drugbank_target|P29218 Inositol monophosphatase 1 (DB01356; DB03542; DB14507; DB14508; DB14509)
 OpenBabel12092119483D

  0  0  0     0  0            999 V3000
M  V30 BEGIN CTAB
M  V30 COUNTS 4231 4265 0 0 0
M  V30 BEGIN ATOM
M  V30 1 H -0.908 1.98254 -0.117106 0
M  V30 2 N 0 1.576 0 0
M  V30 3 C 0.933 2.03868 1.02534 0
M  V30 4 C 1.911 0.928543 1.3348 0
M  V30 5 O 3.095 1.19667 1.45644 0
M  V30 6 C 0.222 2.43627 2.35294 0
M  V30 7 C -0.732 3.65373 2.2001 0
M  V30 8 S 0.101 5.13292 1.52614 0
M  V30 9 C 1.257 5.56322 2.86805 0
M  V30 10 H 1.49 2.90518 0.631377 0
M  V30 11 H -0.977 1.52953 0.210867 0
M  V30 12 H 0.981 2.67203 3.11629 0
M  V30 13 H -0.358 1.57376 2.7183 0
M  V30 14 H -1.165 3.90944 3.18086 0
M  V30 15 H -1.563 3.418 1.51819 0
M  V30 16 H 0.729 5.58782 3.83104 0
M  V30 17 H 1.672 6.56266 2.65933 0
M  V30 18 H 2.08 4.83886 2.90714 0
M  V30 19 N 1.4781 -0.272755 1.55222 0
M  V30 20 C 2.4411 -1.32041 1.87344 0
M  V30 21 C 3.4411 -1.42342 0.74803 0
M  V30 22 O 4.6311 -1.41488 1.0162 0
M  V30 23 C 1.7631 -2.70173 2.07893 0
M  V30 24 H 2.9561 -1.04789 2.80997 0
M  V30 25 H 0.5091 -0.51083 1.47717 0
M  V30 26 H 1.2441 -3.02605 1.16622 0
M  V30 27 H 1.0291 -2.64082 2.89833 0
M  V30 28 H 2.5191 -3.45869 2.34017 0
M  V30 29 N 2.9562 -1.48159 -0.537278 0
M  V30 30 C 4.2332 -1.46291 -1.29839 0
M  V30 31 C 4.6132 -0.170613 -2.10409 0
M  V30 32 O 3.9612 0.847746 -2.12192 0
M  V30 33 C 4.1712 -2.72055 -2.18603 0
M  V30 34 C 5.5192 -3.20087 -2.7898 0
M  V30 35 O 6.5432 -2.72921 -2.28894 0
M  V30 36 O 5.4022 -4.02138 -3.70064 0
M  V30 37 H 2.4962 -0.583906 -0.585647 0
M  V30 38 H 5.0422 -1.60384 -0.554534 0
M  V30 39 H 3.8142 -3.57628 -1.58801 0
M  V30 40 H 3.4372 -2.60646 -3.00249 0
M  V30 41 N 4.4343 0.785586 -1.36625 0
M  V30 42 C 5.8453 1.36101 -1.27803 0
M  V30 43 C 6.1963 1.96035 0.0804875 0
M  V30 44 O 5.3213 1.92834 0.982042 0
M  V30 45 C 5.9163 2.47442 -2.31426 0
M  V30 46 C 4.4753 3.00789 -2.26281 0
M  V30 47 C 3.6223 1.73896 -2.15999 0
M  V30 48 H 6.5733 0.586928 -1.47448 0
M  V30 49 H 6.5943 3.2656 -1.95291 0
M  V30 50 H 6.1063 2.03791 -3.30289 0
M  V30 51 H 4.2073 3.48851 -1.30896 0
M  V30 52 H 4.3203 3.57343 -3.19128 0
M  V30 53 H 2.6843 1.9628 -1.62316 0
M  V30 54 H 3.4673 1.32368 -3.16755 0
M  V30 55 N 5.9124 1.20967 1.01018 0
M  V30 56 C 7.1584 1.0353 1.7508 0
M  V30 57 C 7.5134 -0.42734 1.87594 0
M  V30 58 O 6.8064 -1.31298 1.3954 0
M  V30 59 C 7.0004 1.65997 3.16512 0
M  V30 60 C 6.8294 3.18184 3.17788 0
M  V30 61 C 5.5994 3.87198 3.24662 0
M  V30 62 C 7.7974 4.15334 3.03319 0
M  V30 63 N 5.7794 5.26618 3.15509 0
M  V30 64 C 7.1504 5.41472 3.02007 0
M  V30 65 C 9.2054 4.06449 2.87583 0
M  V30 66 C 7.9084 6.5975 2.86571 0
M  V30 67 C 9.9344 5.24357 2.73503 0
M  V30 68 C 9.2964 6.49404 2.72862 0
M  V30 69 H 5.3954 0.433137 0.651089 0
M  V30 70 H 7.9794 1.5324 1.20107 0
M  V30 71 H 6.1504 1.18863 3.69765 0
M  V30 72 H 7.8824 1.41816 3.79039 0
M  V30 73 H 4.6374 3.38093 3.31648 0
M  V30 74 H 5.0614 5.99626 3.14289 0
M  V30 75 H 9.7034 3.10573 2.86887 0
M  V30 76 H 7.4214 7.55792 2.86015 0
M  V30 77 H 11.0074 5.19299 2.62334 0
M  V30 78 H 9.8874 7.39105 2.62093 0
M  V30 79 N 7.3905 -1.2043 1.01659 0
M  V30 80 C 8.3225 -2.22626 0.544988 0
M  V30 81 C 9.3355 -1.58479 -0.372609 0
M  V30 82 O 10.5245 -1.77679 -0.170958 0
M  V30 83 C 7.6245 -3.38141 -0.22663 0
M  V30 84 C 6.7975 -4.31877 0.692876 0
M  V30 85 C 5.8565 -5.26191 -0.0311616 0
M  V30 86 O 4.8825 -5.6612 0.591343 0
M  V30 87 N 6.0845 -5.65618 -1.30601 0
M  V30 88 H 8.8495 -2.63716 1.42388 0
M  V30 89 H 6.4105 -1.34971 0.894116 0
M  V30 90 H 8.4025 -3.98239 -0.72024 0
M  V30 91 H 6.9725 -2.95943 -1.00681 0
M  V30 92 H 6.1925 -3.69746 1.36679 0
M  V30 93 H 7.4805 -4.91426 1.31824 0
M  V30 94 H 6.8785 -5.3519 -1.83269 0
M  V30 95 H 5.4355 -6.28025 -1.74435 0
M  V30 96 N 8.8686 -0.792821 -1.36206 0
M  V30 97 C 9.7786 -0.194808 -2.3379 0
M  V30 98 C 10.7946 0.654869 -1.61206 0
M  V30 99 O 11.9706 0.569856 -1.9317 0
M  V30 100 C 9.0356 0.657721 -3.40404 0
M  V30 101 C 8.0966 -0.210849 -4.28782 0
M  V30 102 C 7.3296 0.601086 -5.30304 0
M  V30 103 O 7.5526 1.83682 -5.40016 0
M  V30 104 O 6.4866 -0.000808277 -6.019 0
M  V30 105 H 10.3126 -1.00172 -2.86704 0
M  V30 106 H 7.8976 -0.554341 -1.38735 0
M  V30 107 H 9.7796 1.14375 -4.05581 0
M  V30 108 H 8.4546 1.44247 -2.89784 0
M  V30 109 H 7.3616 -0.743714 -3.66633 0
M  V30 110 H 8.6946 -0.959195 -4.82763 0
M  V30 111 N 10.3467 1.47872 -0.545128 0
M  V30 112 C 11.5867 2.04391 -0.0187854 0
M  V30 113 C 11.9507 1.41162 1.30144 0
M  V30 114 O 13.1517 1.88656 1.91474 0
M  V30 115 C 11.4227 3.57299 0.0850867 0
M  V30 116 S 12.9817 4.35221 0.559302 0
M  V30 117 H 9.7997 0.710737 -0.0193301 0
M  V30 118 H 12.4017 1.81395 -0.729125 0
M  V30 119 H 11.1057 4.00847 -0.880351 0
M  V30 120 H 10.6367 3.84773 0.819348 0
M  V30 121 H 12.6517 4.61571 1.82118 0
M  V30 122 N 11.8248 0.280983 1.55075 0
M  V30 123 C 12.7578 -0.645439 2.18882 0
M  V30 124 C 13.7358 -1.14786 1.15165 0
M  V30 125 O 14.9198 -1.21975 1.43716 0
M  V30 126 C 12.0468 -1.88088 2.81674 0
M  V30 127 C 11.0928 -1.51343 3.98745 0
M  V30 128 S 11.9258 -0.586548 5.32278 0
M  V30 129 C 13.0818 -1.83024 5.98543 0
M  V30 130 H 13.3148 -0.1033 2.9712 0
M  V30 131 H 10.8478 0.0652099 1.54262 0
M  V30 132 H 12.8058 -2.58997 3.18482 0
M  V30 133 H 11.4668 -2.39417 2.03318 0
M  V30 134 H 10.6598 -2.43289 4.41392 0
M  V30 135 H 10.2618 -0.884477 3.63391 0
M  V30 136 H 12.5538 -2.77342 6.18133 0
M  V30 137 H 13.4968 -1.44668 6.93164 0
M  V30 138 H 13.9048 -1.99785 5.27964 0
M  V30 139 N 13.3029 -1.57598 0.00835791 0
M  V30 140 C 14.5799 -1.82172 -0.712235 0
M  V30 141 C 14.9599 -0.887873 -1.9152 0
M  V30 142 O 14.3079 0.06146 -2.28417 0
M  V30 143 C 14.5179 -3.30875 -1.11008 0
M  V30 144 C 15.8659 -3.96826 -1.51044 0
M  V30 145 O 16.8899 -3.35248 -1.20364 0
M  V30 146 O 15.7489 -5.05318 -2.08125 0
M  V30 147 H 12.8429 -0.750435 -0.347529 0
M  V30 148 H 15.3889 -1.69665 0.0344523 0
M  V30 149 H 14.1609 -3.90481 -0.252982 0
M  V30 150 H 13.7839 -3.48412 -1.9156 0
M  V30 151 N 14.781 0.264519 -1.55364 0
M  V30 152 C 16.011 1.01153 -1.80143 0
M  V30 153 C 16.419 1.80115 -0.579253 0
M  V30 154 O 15.762 1.77813 0.46132 0
M  V30 155 C 15.824 2.01098 -2.97993 0
M  V30 156 C 15.488 1.40995 -4.34706 0
M  V30 157 C 16.485 0.821316 -5.13372 0
M  V30 158 C 14.17 1.43461 -4.81378 0
M  V30 159 C 16.164 0.265339 -6.36847 0
M  V30 160 C 13.851 0.874771 -6.04807 0
M  V30 161 C 14.849 0.291146 -6.82379 0
M  V30 162 O 14.537 -0.260093 -8.03479 0
M  V30 163 H 14.269 0.304125 -0.603725 0
M  V30 164 H 16.823 0.298089 -2.03225 0
M  V30 165 H 15.053 2.76224 -2.70623 0
M  V30 166 H 16.742 2.61997 -3.1002 0
M  V30 167 H 17.508 0.794903 -4.78442 0
M  V30 168 H 13.387 1.87826 -4.21002 0
M  V30 169 H 16.931 -0.190837 -6.97339 0
M  V30 170 H 12.828 0.898452 -6.39217 0
M  V30 171 H 13.596 -0.150265 -8.18362 0
M  V30 172 N 16.2591 1.48442 0.529413 0
M  V30 173 C 17.2221 1.62524 1.61612 0
M  V30 174 C 18.2221 0.498509 1.52877 0
M  V30 175 O 19.4121 0.76431 1.56537 0
M  V30 176 C 16.5441 1.59597 3.01233 0
M  V30 177 H 17.7371 2.59423 1.50465 0
M  V30 178 H 15.2901 1.37047 0.751514 0
M  V30 179 H 16.0251 0.641781 3.17886 0
M  V30 180 H 15.8101 2.41397 3.08982 0
M  V30 181 H 17.3001 1.72646 3.80241 0
M  V30 182 N 17.7372 -0.778329 1.37039 0
M  V30 183 C 18.9832 -1.53892 1.32079 0
M  V30 184 C 19.3162 -1.9396 -0.0965386 0
M  V30 185 O 18.5912 -1.63568 -1.05242 0
M  V30 186 C 18.8742 -2.80847 2.25382 0
M  V30 187 C 18.7272 -2.47076 3.75864 0
M  V30 188 C 20.0462 -3.82741 2.1725 0
M  V30 189 H 17.1652 -0.558303 0.48111 0
M  V30 190 H 19.8072 -0.893397 1.67685 0
M  V30 191 H 17.9572 -3.35931 1.95148 0
M  V30 192 H 19.6292 -1.97957 4.16666 0
M  V30 193 H 17.8722 -1.79863 3.94755 0
M  V30 194 H 18.5432 -3.37798 4.36574 0
M  V30 195 H 21.0192 -3.37133 2.43887 0
M  V30 196 H 19.8952 -4.69303 2.84686 0
M  V30 197 H 20.1562 -4.2652 1.16331 0
M  V30 198 N 19.2153 -1.21501 -1.00376 0
M  V30 199 C 20.4433 -1.059 -1.77744 0
M  V30 200 C 20.8583 0.391125 -1.84704 0
M  V30 201 O 20.2153 1.27133 -1.30933 0
M  V30 202 C 20.2663 -1.65111 -3.21591 0
M  V30 203 O 19.9873 -3.0445 -3.15027 0
M  V30 204 C 21.4883 -1.54637 -4.15454 0
M  V30 205 H 18.7083 -0.371825 -0.558558 0
M  V30 206 H 21.2523 -1.60865 -1.26264 0
M  V30 207 H 19.4073 -1.14235 -3.70175 0
M  V30 208 H 19.8213 -3.3278 -4.0541 0
M  V30 209 H 21.2953 -2.00808 -5.14179 0
M  V30 210 H 21.7723 -0.501022 -4.36333 0
M  V30 211 H 22.3783 -2.04767 -3.72761 0
M  V30 212 N 20.6934 1.19889 -1.02296 0
M  V30 213 C 21.6234 2.25141 -0.619174 0
M  V30 214 C 22.6044 1.66051 0.368915 0
M  V30 215 O 23.7894 1.92546 0.252941 0
M  V30 216 C 20.9194 3.4728 0.0368783 0
M  V30 217 C 19.8734 4.19005 -0.872865 0
M  V30 218 C 19.1994 5.34637 -0.0822402 0
M  V30 219 C 20.4994 4.74452 -2.18387 0
M  V30 220 H 22.1934 2.59171 -1.49903 0
M  V30 221 H 19.7394 1.24579 -0.722222 0
M  V30 222 H 21.6924 4.20098 0.330958 0
M  V30 223 H 20.4164 3.12433 0.95149 0
M  V30 224 H 19.0754 3.48061 -1.15105 0
M  V30 225 H 18.7234 4.96034 0.83422 0
M  V30 226 H 18.4234 5.83557 -0.688149 0
M  V30 227 H 19.9474 6.10255 0.205238 0
M  V30 228 H 21.3614 5.39055 -1.95172 0
M  V30 229 H 19.7584 5.33834 -2.74119 0
M  V30 230 H 20.8284 3.92844 -2.84257 0
M  V30 231 N 22.1715 0.800033 1.35784 0
M  V30 232 C 23.1345 0.211565 2.28221 0
M  V30 233 C 24.1345 -0.59728 1.49296 0
M  V30 234 O 25.3245 -0.416721 1.69142 0
M  V30 235 C 22.4565 -0.705846 3.33513 0
M  V30 236 H 23.6495 1.02677 2.81776 0
M  V30 237 H 21.2025 0.570211 1.45528 0
M  V30 238 H 21.9375 -1.54498 2.85133 0
M  V30 239 H 21.7225 -0.127655 3.91892 0
M  V30 240 H 23.2125 -1.11211 4.02519 0
M  V30 241 N 23.6496 -1.47581 0.552962 0
M  V30 242 C 25.0656 -1.5818 0.212424 0
M  V30 243 C 25.2656 -1.55213 -1.28496 0
M  V30 244 O 24.3216 -1.45329 -2.06484 0
M  V30 245 C 25.6346 -2.88865 0.835318 0
M  V30 246 C 27.1826 -3.0244 0.806156 0
M  V30 247 C 27.6576 -4.35819 1.40804 0
M  V30 248 N 29.1486 -4.42444 1.37103 0
M  V30 249 C 29.8836 -5.44202 1.80641 0
M  V30 250 N 29.3796 -6.52795 2.32015 0
M  V30 251 N 31.1726 -5.35222 1.71738 0
M  V30 252 H 23.3236 -1.47753 1.52587 0
M  V30 253 H 25.5866 -0.702941 0.636064 0
M  V30 254 H 25.2926 -2.9676 1.88749 0
M  V30 255 H 25.1666 -3.7579 0.325848 0
M  V30 256 H 27.5536 -2.94144 -0.237317 0
M  V30 257 H 27.6346 -2.17068 1.35334 0
M  V30 258 H 27.2786 -4.44871 2.45056 0
M  V30 259 H 27.2086 -5.19916 0.836338 0
M  V30 260 H 29.6996 -3.6456 0.995202 0
M  V30 261 H 30.0126 -7.26609 2.63171 0
M  V30 262 H 28.3576 -6.53696 2.36023 0
M  V30 263 H 31.5486 -4.49284 1.31382 0
M  V30 264 H 31.7216 -6.14389 2.05987 0
M  V30 265 N 25.1277 -0.289203 -1.54924 0
M  V30 266 C 26.0597 0.625583 -2.20497 0
M  V30 267 C 27.0727 1.10667 -1.19402 0
M  V30 268 O 28.2617 1.02615 -1.46056 0
M  V30 269 C 25.3617 1.86702 -2.82835 0
M  V30 270 C 24.5347 1.5304 -4.09753 0
M  V30 271 C 23.5937 2.62576 -4.56005 0
M  V30 272 O 22.6197 2.28167 -5.21468 0
M  V30 273 N 23.8217 3.92901 -4.27328 0
M  V30 274 H 26.5867 0.0642801 -2.99631 0
M  V30 275 H 24.1477 -0.110896 -1.6152 0
M  V30 276 H 26.1397 2.59304 -3.10715 0
M  V30 277 H 24.7097 2.33702 -2.07611 0
M  V30 278 H 23.9297 0.637564 -3.8901 0
M  V30 279 H 25.2177 1.28072 -4.92418 0
M  V30 280 H 24.6157 4.23671 -3.74859 0
M  V30 281 H 23.1727 4.61837 -4.59946 0
M  V30 282 N 26.6058 1.57591 -0.0167156 0
M  V30 283 C 27.5688 2.08393 0.954204 0
M  V30 284 C 28.5688 0.996531 1.26198 0
M  V30 285 O 29.7588 1.25858 1.20438 0
M  V30 286 C 26.8908 2.5394 2.27436 0
M  V30 287 H 28.0838 2.95455 0.514451 0
M  V30 288 H 25.6368 1.54582 0.231089 0
M  V30 289 H 26.3718 1.70171 2.76066 0
M  V30 290 H 26.1568 3.33371 2.06412 0
M  V30 291 H 27.6468 2.93512 2.97053 0
M  V30 292 N 28.0839 -0.256276 1.55502 0
M  V30 293 C 29.3319 -0.983672 1.76545 0
M  V30 294 C 29.6529 -1.86206 0.578982 0
M  V30 295 O 28.9229 -1.91656 -0.405577 0
M  V30 296 H 27.5029 -0.366191 0.651086 0
M  V30 297 H 30.1649 -0.276479 1.92929 0
M  V30 298 H 29.2609 -1.61087 2.67315 0
M  V30 299 N 29.562 -1.4872 -0.521534 0
M  V30 300 C 30.472 -1.66569 -1.65203 0
M  V30 301 C 31.488 -0.548197 -1.65139 0
M  V30 302 O 32.664 -0.820339 -1.83936 0
M  V30 303 C 29.729 -1.70917 -3.01642 0
M  V30 304 C 28.79 -2.94356 -3.12495 0
M  V30 305 C 28.023 -2.98487 -4.42426 0
M  V30 306 O 28.246 -2.10786 -5.30024 0
M  V30 307 O 27.18 -3.90746 -4.57822 0
M  V30 308 H 31.006 -2.62298 -1.5308 0
M  V30 309 H 28.591 -1.3222 -0.695565 0
M  V30 310 H 30.473 -1.7625 -3.82771 0
M  V30 311 H 29.148 -0.783633 -3.14071 0
M  V30 312 H 28.055 -2.94552 -2.3063 0
M  V30 313 H 29.388 -3.86322 -3.04986 0
M  V30 314 N 31.0401 0.771051 -1.3745 0
M  V30 315 C 32.2861 1.5319 -1.32894 0
M  V30 316 C 32.6191 1.94008 0.0862511 0
M  V30 317 O 31.8941 1.64124 1.04373 0
M  V30 318 C 32.1771 2.79648 -2.26868 0
M  V30 319 C 32.0301 2.45079 -3.77169 0
M  V30 320 C 33.3491 3.81583 -2.19277 0
M  V30 321 H 30.4681 0.555744 -0.484064 0
M  V30 322 H 33.1101 0.884492 -1.68157 0
M  V30 323 H 31.2601 3.34891 -1.96926 0
M  V30 324 H 32.9321 1.95745 -4.1771 0
M  V30 325 H 31.1751 1.77767 -3.95704 0
M  V30 326 H 31.8461 3.35478 -4.38359 0
M  V30 327 H 34.3221 3.35835 -2.45671 0
M  V30 328 H 33.1981 4.67787 -2.87171 0
M  V30 329 H 33.4591 4.25897 -1.18592 0
M  V30 330 N 32.5182 1.22032 0.997298 0
M  V30 331 C 33.7642 1.04376 1.73878 0
M  V30 332 C 34.0972 -0.420716 1.89588 0
M  V30 333 O 33.3722 -1.31202 1.43583 0
M  V30 334 C 33.6552 1.75047 3.14691 0
M  V30 335 C 33.5082 3.29062 3.06656 0
M  V30 336 C 34.8272 1.49928 4.13775 0
M  V30 337 H 31.9462 0.380578 0.631133 0
M  V30 338 H 34.5882 1.50312 1.16217 0
M  V30 339 H 32.7382 1.35996 3.63919 0
M  V30 340 H 34.4102 3.7753 2.65083 0
M  V30 341 H 32.6532 3.58967 2.43568 0
M  V30 342 H 33.3242 3.73683 4.06282 0
M  V30 343 H 35.8002 1.83842 3.73285 0
M  V30 344 H 34.6762 2.01878 5.10428 0
M  V30 345 H 34.9372 0.430929 4.39995 0
M  V30 346 N 33.9963 -1.19345 1.0293 0
M  V30 347 C 35.2363 -1.90738 0.734727 0
M  V30 348 C 35.6003 -1.7785 -0.723414 0
M  V30 349 O 36.8013 -2.43844 -1.13108 0
M  V30 350 C 35.0723 -3.37569 1.17396 0
M  V30 351 S 36.6313 -4.27176 1.00329 0
M  V30 352 H 33.4493 -0.658771 0.267474 0
M  V30 353 H 36.0513 -1.4428 1.31922 0
M  V30 354 H 34.7553 -3.44475 2.23081 0
M  V30 355 H 34.2863 -3.8906 0.582772 0
M  V30 356 H 36.3013 -4.96126 -0.0859152 0
M  V30 357 N 35.4744 -0.807222 -1.35358 0
M  V30 358 C 36.3844 -0.219594 -2.3357 0
M  V30 359 C 37.4004 0.637734 -1.61892 0
M  V30 360 O 38.5764 0.549336 -1.93763 0
M  V30 361 C 35.6414 0.62158 -3.41083 0
M  V30 362 C 34.7024 -0.256315 -4.28534 0
M  V30 363 C 33.9354 0.544807 -5.30912 0
M  V30 364 O 34.1584 1.77944 -5.41934 0
M  V30 365 O 33.0924 -0.0646478 -6.01865 0
M  V30 366 H 36.9184 -1.03208 -2.85625 0
M  V30 367 H 34.5034 -0.569025 -1.38139 0
M  V30 368 H 36.3854 1.10067 -4.06772 0
M  V30 369 H 35.0604 1.41165 -2.91297 0
M  V30 370 H 33.9674 -0.782559 -3.65823 0
M  V30 371 H 35.3004 -1.01034 -4.81719 0
M  V30 372 N 36.9525 1.47285 -0.560781 0
M  V30 373 C 37.9155 2.28535 0.174488 0
M  V30 374 C 38.9155 1.37153 0.839388 0
M  V30 375 O 40.1055 1.59748 0.694702 0
M  V30 376 C 37.2375 3.16934 1.25561 0
M  V30 377 H 38.4305 2.95012 -0.539262 0
M  V30 378 H 35.9835 1.53034 -0.317865 0
M  V30 379 H 36.7185 2.55157 2.00164 0
M  V30 380 H 36.5035 3.8419 0.783604 0
M  V30 381 H 37.9935 3.78143 1.77193 0
M  V30 382 N 38.4306 0.297415 1.54768 0
M  V30 383 C 39.6796 -0.313669 1.99246 0
M  V30 384 C 39.9926 -1.55281 1.18942 0
M  V30 385 O 41.1986 -2.23825 1.5367 0
M  V30 386 C 39.6546 -0.609407 3.54703 0
M  V30 387 C 39.2626 0.611192 4.43811 0
M  V30 388 C 41.0066 -1.18188 4.07715 0
M  V30 389 C 38.9136 0.288805 5.90694 0
M  V30 390 H 37.8436 -0.120979 0.744231 0
M  V30 391 H 40.4946 0.40556 1.78962 0
M  V30 392 H 38.8766 -1.38813 3.70873 0
M  V30 393 H 40.0506 1.3875 4.39414 0
M  V30 394 H 38.3656 1.10205 4.01552 0
M  V30 395 H 40.9626 -1.43727 5.15021 0
M  V30 396 H 41.3056 -2.12299 3.58099 0
M  V30 397 H 41.8386 -0.464944 3.95074 0
M  V30 398 H 38.5776 1.19838 6.44453 0
M  V30 399 H 38.0976 -0.450305 5.98107 0
M  V30 400 H 39.7766 -0.110933 6.46905 0
M  V30 401 N 39.9087 -1.5758 0.0250728 0
M  V30 402 C 40.8557 -2.09973 -0.958129 0
M  V30 403 C 41.8257 -1.00085 -1.3256 0
M  V30 404 O 43.0107 -1.27481 -1.41962 0
M  V30 405 C 40.1507 -2.62812 -2.2366 0
M  V30 406 C 39.2637 -3.86693 -1.92594 0
M  V30 407 C 38.3987 -4.27941 -3.14707 0
M  V30 408 C 37.4377 -5.44591 -2.79442 0
M  V30 409 N 36.5747 -5.81014 -3.94167 0
M  V30 410 H 41.4147 -2.937 -0.504428 0
M  V30 411 H 38.9517 -1.45172 -0.237392 0
M  V30 412 H 40.9097 -2.91536 -2.98434 0
M  V30 413 H 39.5397 -1.81922 -2.66654 0
M  V30 414 H 38.5917 -3.64723 -1.0808 0
M  V30 415 H 39.9037 -4.71547 -1.62619 0
M  V30 416 H 39.0577 -4.58079 -3.97804 0
M  V30 417 H 37.7967 -3.41845 -3.4784 0
M  V30 418 H 36.8017 -5.1415 -1.94755 0
M  V30 419 H 38.0267 -6.32382 -2.47528 0
M  V30 420 H 35.9727 -4.97874 -4.2715 0
M  V30 421 H 35.8897 -6.60498 -3.67801 0
M  V30 422 H 37.1577 -6.15756 -4.7798 0
M  V30 423 N 41.3868 0.248026 -1.55636 0
M  V30 424 C 42.3348 1.32683 -1.91045 0
M  V30 425 C 43.3288 1.49883 -0.789401 0
M  V30 426 O 44.5348 1.51371 -0.974007 0
M  V30 427 H 40.9098 0.444272 -0.606734 0
M  V30 428 H 42.8808 1.00085 -2.81115 0
M  V30 429 C 41.6298 2.6755 -2.22064 0
M  V30 430 H 40.9528 2.55114 -3.07826 0
M  V30 431 H 42.3928 3.41912 -2.50743 0
M  V30 432 C 40.8518 3.20556 -1.0366 0
M  V30 433 O 41.3818 4.00695 -0.284016 0
M  V30 434 N 39.5878 2.78568 -0.82753 0
M  V30 435 H 39.1348 2.1351 -1.44123 0
M  V30 436 H 39.0928 3.14378 -0.0369803 0
M  V30 437 N 42.8649 1.48995 0.513639 0
M  V30 438 C 43.7749 1.67443 1.64317 0
M  V30 439 C 44.7909 0.556947 1.64846 0
M  V30 440 O 45.9669 0.830082 1.83498 0
M  V30 441 C 43.0319 1.72515 3.00732 0
M  V30 442 C 42.0929 2.96009 3.1093 0
M  V30 443 C 41.3259 3.00829 4.40837 0
M  V30 444 O 41.5489 2.13594 5.28898 0
M  V30 445 O 40.4829 3.93168 4.55744 0
M  V30 446 H 44.3089 2.63106 1.51687 0
M  V30 447 H 41.8939 1.32588 0.688543 0
M  V30 448 H 43.7759 1.78277 3.81831 0
M  V30 449 H 42.4509 0.800278 3.13651 0
M  V30 450 H 41.3579 2.9577 2.29065 0
M  V30 451 H 42.6909 3.87934 3.02933 0
M  V30 452 N 44.343 -0.763751 1.37857 0
M  V30 453 C 45.276 -1.88486 1.28639 0
M  V30 454 C 46.254 -1.61757 0.165363 0
M  V30 455 O 47.438 -1.85391 0.340948 0
M  V30 456 C 44.565 -3.23884 0.990811 0
M  V30 457 C 43.611 -3.69514 2.12983 0
M  V30 458 S 44.444 -3.82244 3.75033 0
M  V30 459 C 45.6 -5.20477 3.47641 0
M  V30 460 H 45.833 -1.96017 2.23527 0
M  V30 461 H 43.366 -0.925684 1.23574 0
M  V30 462 H 45.324 -4.02081 0.827101 0
M  V30 463 H 43.985 -3.14044 0.0592832 0
M  V30 464 H 43.178 -4.67696 1.87821 0
M  V30 465 H 42.78 -2.98441 2.25408 0
M  V30 466 H 45.072 -6.05905 3.03125 0
M  V30 467 H 46.015 -5.50655 4.4518 0
M  V30 468 H 46.423 -4.88793 2.82385 0
M  V30 469 N 45.8211 -1.22559 -0.990812 0
M  V30 470 C 46.7691 -0.994798 -2.10253 0
M  V30 471 C 47.7631 0.0627798 -1.69284 0
M  V30 472 O 48.9691 -0.0898392 -1.79776 0
M  V30 473 H 45.3441 -0.304527 -0.687581 0
M  V30 474 H 47.3151 -1.93812 -2.26891 0
M  V30 475 C 46.0641 -0.591439 -3.42633 0
M  V30 476 H 45.3871 -1.3969 -3.74602 0
M  V30 477 H 46.8271 -0.469385 -4.21394 0
M  V30 478 C 45.2861 0.699232 -3.29564 0
M  V30 479 O 45.8161 1.75112 -3.61523 0
M  V30 480 N 44.0221 0.671182 -2.82743 0
M  V30 481 H 43.5691 -0.185136 -2.56934 0
M  V30 482 H 43.5271 1.53502 -2.7438 0
M  V30 483 N 47.2992 1.18797 -1.03562 0
M  V30 484 C 48.5452 1.8893 -0.737113 0
M  V30 485 C 48.8782 1.79837 0.732956 0
M  V30 486 O 48.1532 1.19525 1.5344 0
M  V30 487 C 48.4362 3.39607 -1.19745 0
M  V30 488 C 48.2892 3.57537 -2.72924 0
M  V30 489 C 49.6082 4.33069 -0.783526 0
M  V30 490 H 46.7272 0.686057 -0.269249 0
M  V30 491 H 49.3692 1.39797 -1.28673 0
M  V30 492 H 47.5192 3.81583 -0.729855 0
M  V30 493 H 49.1912 3.24688 -3.27682 0
M  V30 494 H 47.4342 3.00363 -3.12993 0
M  V30 495 H 48.1052 4.63238 -3.00191 0
M  V30 496 H 50.5812 3.98846 -1.18581 0
M  V30 497 H 49.4572 5.3707 -1.13343 0
M  V30 498 H 49.7182 4.40986 0.313681 0
M  V30 499 N 48.7773 0.814389 1.34928 0
M  V30 500 C 49.7103 0.175641 2.27523 0
M  V30 501 C 50.6883 -0.662953 1.48471 0
M  V30 502 O 51.8723 -0.628545 1.77712 0
M  V30 503 C 48.9993 -0.755516 3.30166 0
M  V30 504 C 48.0453 0.00445305 4.265 0
M  V30 505 S 48.8783 1.34582 5.18313 0
M  V30 506 C 50.0343 0.419315 6.24494 0
M  V30 507 H 50.2673 0.960691 2.8135 0
M  V30 508 H 47.8003 0.609846 1.41846 0
M  V30 509 H 49.7583 -1.28723 3.89796 0
M  V30 510 H 48.4193 -1.51402 2.75202 0
M  V30 511 H 47.6123 -0.703077 4.99072 0
M  V30 512 H 47.2143 0.466447 3.7108 0
M  V30 513 H 49.5063 -0.392432 6.76362 0
M  V30 514 H 50.4493 1.11446 6.99275 0
M  V30 515 H 50.8573 0.0115389 5.64499 0
M  V30 516 N 50.2554 -1.46986 0.568584 0
M  V30 517 C 51.1854 -2.32946 -0.160753 0
M  V30 518 C 52.1664 -1.44487 -0.897631 0
M  V30 519 O 53.3514 -1.73327 -0.875867 0
M  V30 520 C 50.4814 -3.26494 -1.18403 0
M  V30 521 C 49.4354 -4.24282 -0.562895 0
M  V30 522 C 48.7614 -5.07236 -1.69163 0
M  V30 523 C 50.0614 -5.19989 0.490761 0
M  V30 524 H 51.7554 -2.94175 0.556916 0
M  V30 525 H 49.3014 -1.4146 0.26927 0
M  V30 526 H 51.2544 -3.85477 -1.70251 0
M  V30 527 H 49.9784 -2.63343 -1.93179 0
M  V30 528 H 48.6374 -3.66541 -0.0656164 0
M  V30 529 H 48.2854 -4.4048 -2.42871 0
M  V30 530 H 47.9854 -5.7345 -1.28174 0
M  V30 531 H 49.5094 -5.6908 -2.21314 0
M  V30 532 H 50.9234 -5.73271 0.0579047 0
M  V30 533 H 49.3204 -5.94469 0.820165 0
M  V30 534 H 50.3904 -4.64777 1.3824 0
M  V30 535 N 51.7335 -0.305618 -1.54608 0
M  V30 536 C 52.6805 0.568421 -2.23691 0
M  V30 537 C 53.6505 1.12592 -1.22116 0
M  V30 538 O 54.8355 1.16959 -1.50749 0
M  V30 539 C 51.9755 1.7322 -2.98477 0
M  V30 540 C 51.0885 1.20566 -4.14835 0
M  V30 541 C 50.2235 2.33368 -4.77193 0
M  V30 542 C 49.2625 1.7787 -5.85686 0
M  V30 543 N 48.3995 2.84263 -6.4198 0
M  V30 544 H 53.2395 -0.0272867 -2.97988 0
M  V30 545 H 50.7765 -0.0252363 -1.47078 0
M  V30 546 H 52.7345 2.41675 -3.40072 0
M  V30 547 H 51.3645 2.29947 -2.26548 0
M  V30 548 H 50.4165 0.413223 -3.78149 0
M  V30 549 H 51.7285 0.759417 -4.92985 0
M  V30 550 H 50.8825 3.09761 -5.21664 0
M  V30 551 H 49.6215 2.8132 -3.98385 0
M  V30 552 H 48.6265 0.99968 -5.40635 0
M  V30 553 H 49.8515 1.30816 -6.66381 0
M  V30 554 H 47.7975 3.31541 -5.66053 0
M  V30 555 H 47.7145 2.44149 -7.15491 0
M  V30 556 H 48.9825 3.6054 -6.91109 0
M  V30 557 N 53.2116 1.57565 -0.0334293 0
M  V30 558 C 54.4366 1.96689 0.657895 0
M  V30 559 C 54.8616 0.910057 1.64619 0
M  V30 560 O 54.2196 -0.128598 1.80843 0
M  V30 561 C 54.2676 3.34905 1.33683 0
M  V30 562 O 53.3716 3.31574 2.45219 0
M  V30 563 H 52.7126 0.641205 0.172489 0
M  V30 564 H 55.2426 2.04372 -0.0965621 0
M  V30 565 H 55.2526 3.71234 1.69262 0
M  V30 566 H 53.9276 4.11366 0.612411 0
M  V30 567 H 52.5046 3.06968 2.11719 0
M  V30 568 N 54.6897 -0.239769 1.55765 0
M  V30 569 C 55.9147 -0.988373 1.82335 0
M  V30 570 C 56.3397 -1.77886 0.611421 0
M  V30 571 O 55.6977 -1.75889 -0.439639 0
M  V30 572 C 55.7457 -1.89627 3.06715 0
M  V30 573 O 54.8497 -2.98904 2.84131 0
M  V30 574 H 54.1907 -0.280858 0.601677 0
M  V30 575 H 56.7207 -0.258597 2.02959 0
M  V30 576 H 56.7307 -2.30957 3.36338 0
M  V30 577 H 55.4057 -1.31511 3.9456 0
M  V30 578 H 53.9827 -2.61651 2.65694 0
M  V30 579 N 56.1678 -1.49265 -0.50573 0
M  V30 580 C 57.5788 -1.51769 -1.08734 0
M  V30 581 C 57.9298 -0.301192 -1.93874 0
M  V30 582 O 57.0548 0.589456 -2.08217 0
M  V30 583 C 57.6498 -2.75017 -1.97867 0
M  V30 584 C 56.2088 -2.80314 -2.51199 0
M  V30 585 C 55.3558 -2.4562 -1.28709 0
M  V30 586 H 58.3068 -1.56031 -0.289855 0
M  V30 587 H 58.3278 -2.5491 -2.82491 0
M  V30 588 H 57.8398 -3.63539 -1.35873 0
M  V30 589 H 55.9408 -1.96061 -3.16845 0
M  V30 590 H 56.0538 -3.82366 -2.88675 0
M  V30 591 H 54.4178 -1.97297 -1.61078 0
M  V30 592 H 55.2008 -3.36411 -0.6843 0
M  V30 593 N 57.6459 0.756429 -1.3826 0
M  V30 594 C 58.8919 1.51772 -1.34511 0
M  V30 595 C 59.2249 1.94089 0.0656691 0
M  V30 596 O 58.4999 1.65221 1.02626 0
M  V30 597 C 58.7829 2.77226 -2.29821 0
M  V30 598 C 58.6359 2.41065 -3.79747 0
M  V30 599 C 59.9549 3.79236 -2.23312 0
M  V30 600 H 57.0739 0.550578 -0.489931 0
M  V30 601 H 59.7159 0.866607 -1.69086 0
M  V30 602 H 57.8659 3.32784 -2.00467 0
M  V30 603 H 59.5379 1.91303 -4.19763 0
M  V30 604 H 57.7809 1.7356 -3.97567 0
M  V30 605 H 58.4519 3.3081 -4.41892 0
M  V30 606 H 60.9279 3.3321 -2.49219 0
M  V30 607 H 59.8039 4.64714 -2.92116 0
M  V30 608 H 60.0649 4.24615 -1.23102 0
M  V30 609 N 59.124 1.23083 0.984299 0
M  V30 610 C 60.401 0.9689 1.69917 0
M  V30 611 C 60.781 -0.513604 2.04757 0
M  V30 612 O 60.129 -1.48383 1.73767 0
M  V30 613 C 60.339 1.87518 2.94343 0
M  V30 614 C 61.687 2.13636 3.6694 0
M  V30 615 O 62.711 1.85036 3.04368 0
M  V30 616 O 61.57 2.62119 4.79537 0
M  V30 617 H 58.664 0.365095 0.742048 0
M  V30 618 H 61.21 1.34107 1.03987 0
M  V30 619 H 59.982 2.87756 2.65164 0
M  V30 620 H 59.605 1.50514 3.6801 0
M  V30 621 N 60.6021 -1.18246 1.0419 0
M  V30 622 C 61.5321 -2.24127 0.654914 0
M  V30 623 C 62.5131 -1.66617 -0.342451 0
M  V30 624 O 63.6981 -1.92924 -0.222277 0
M  V30 625 C 60.8281 -3.47295 0.0183757 0
M  V30 626 C 59.7821 -4.17563 0.939414 0
M  V30 627 C 59.1081 -5.34438 0.167286 0
M  V30 628 C 60.4081 -4.70917 2.25908 0
M  V30 629 H 62.1021 -2.56753 1.54007 0
M  V30 630 H 59.6481 -1.23414 0.74195 0
M  V30 631 H 61.6011 -4.20572 -0.264082 0
M  V30 632 H 60.3251 -3.13907 -0.901664 0
M  V30 633 H 58.9841 -3.46186 1.20628 0
M  V30 634 H 58.6321 -4.97298 -0.7552 0
M  V30 635 H 58.3321 -5.82388 0.780901 0
M  V30 636 H 59.8561 -6.10504 -0.108125 0
M  V30 637 H 61.2701 -5.35882 2.03724 0
M  V30 638 H 59.6671 -5.29406 2.82577 0
M  V30 639 H 60.7371 -3.88272 2.9047 0
M  V30 640 N 62.0802 -0.821533 -1.34494 0
M  V30 641 C 63.3262 -0.409552 -1.98622 0
M  V30 642 C 63.6592 1.0244 -1.64984 0
M  V30 643 O 62.9342 1.71325 -0.920758 0
M  V30 644 C 63.2172 -0.610458 -3.54888 0
M  V30 645 C 63.0702 -2.09043 -3.98273 0
M  V30 646 C 64.3892 -0.0455379 -4.40076 0
M  V30 647 H 61.5082 -0.15028 -0.721516 0
M  V30 648 H 64.1502 -1.03384 -1.59411 0
M  V30 649 H 62.3002 -0.079044 -3.8842 0
M  V30 650 H 63.9722 -2.68537 -3.75081 0
M  V30 651 H 62.2152 -2.58139 -3.48635 0
M  V30 652 H 62.8862 -2.18182 -5.07051 0
M  V30 653 H 65.3622 -0.499557 -4.1309 0
M  V30 654 H 64.2382 -0.215922 -5.48475 0
M  V30 655 H 64.4992 1.04939 -4.29465 0
M  V30 656 N 63.5583 1.46682 -0.576371 0
M  V30 657 C 64.7863 2.06798 -0.0649635 0
M  V30 658 C 65.2013 1.42612 1.23723 0
M  V30 659 O 64.5583 0.529203 1.74659 0
M  V30 660 C 64.6093 3.6132 0.114202 0
M  V30 661 O 64.3303 4.23104 -1.13644 0
M  V30 662 C 65.8313 4.38349 0.66069 0
M  V30 663 H 63.0513 0.668778 -0.0545616 0
M  V30 664 H 65.5953 1.88404 -0.795237 0
M  V30 665 H 63.7503 3.79162 0.794673 0
M  V30 666 H 64.1643 5.15894 -0.946253 0
M  V30 667 H 65.6383 5.47081 0.73526 0
M  V30 668 H 66.1153 4.05953 1.67627 0
M  V30 669 H 66.7213 4.25297 0.0152951 0
M  V30 670 N 65.0364 0.313813 1.54444 0
M  V30 671 C 65.9994 -0.54379 2.22656 0
M  V30 672 C 66.9994 -1.05124 1.21678 0
M  V30 673 O 68.1894 -0.945225 1.46325 0
M  V30 674 C 65.3214 -1.75427 2.92298 0
M  V30 675 H 66.5144 0.0523599 2.99854 0
M  V30 676 H 64.0674 0.0647834 1.56166 0
M  V30 677 H 64.8024 -2.38991 2.19211 0
M  V30 678 H 64.5874 -1.39791 3.66334 0
M  V30 679 H 66.0774 -2.36325 3.44297 0
M  V30 680 N 66.5145 -1.57545 0.0417849 0
M  V30 681 C 67.7425 -1.96624 -0.643928 0
M  V30 682 C 68.1575 -0.918897 -1.64929 0
M  V30 683 O 67.5145 0.0979323 -1.82237 0
M  V30 684 C 67.5655 -3.35781 -1.33914 0
M  V30 685 O 67.2865 -4.365 -0.374048 0
M  V30 686 C 68.7875 -3.89566 -2.1155 0
M  V30 687 H 66.0075 -0.647316 -0.176702 0
M  V30 688 H 68.5515 -2.04229 0.105304 0
M  V30 689 H 66.7065 -3.29357 -2.03968 0
M  V30 690 H 67.1205 -5.17248 -0.869179 0
M  V30 691 H 68.5945 -4.89242 -2.55628 0
M  V30 692 H 69.0715 -3.24488 -2.9598 0
M  V30 693 H 69.6775 -3.99298 -1.46427 0
M  V30 694 N 67.9926 0.231505 -1.5589 0
M  V30 695 C 69.2696 0.981096 -1.69215 0
M  V30 696 C 69.6496 2.02799 -0.586164 0
M  V30 697 O 68.9976 2.24823 0.408253 0
M  V30 698 C 69.2076 1.60054 -3.10135 0
M  V30 699 C 70.5556 2.09658 -3.69227 0
M  V30 700 O 71.5796 1.69967 -3.13033 0
M  V30 701 O 70.4386 2.8258 -4.67772 0
M  V30 702 H 67.5326 0.457653 -0.688827 0
M  V30 703 H 70.0786 0.224073 -1.68214 0
M  V30 704 H 68.8506 0.844105 -3.82087 0
M  V30 705 H 68.4736 2.42336 -3.15212 0
M  V30 706 N 69.4707 1.49531 0.497807 0
M  V30 707 C 70.4027 1.62559 1.61578 0
M  V30 708 C 71.4157 0.508134 1.54667 0
M  V30 709 O 72.6047 0.780309 1.60541 0
M  V30 710 C 69.7047 1.56925 3.00379 0
M  V30 711 C 68.8777 2.84257 3.3244 0
M  V30 712 C 67.9367 2.71632 4.50669 0
M  V30 713 O 66.9627 3.4557 4.52294 0
M  V30 714 N 68.1647 1.83391 5.5077 0
M  V30 715 H 70.9297 2.58981 1.50828 0
M  V30 716 H 68.4907 1.4666 0.685743 0
M  V30 717 H 70.4827 1.46129 3.77397 0
M  V30 718 H 69.0527 0.683483 3.05037 0
M  V30 719 H 68.2727 3.09381 2.44289 0
M  V30 720 H 69.5607 3.68666 3.5066 0
M  V30 721 H 68.9587 1.22583 5.52259 0
M  V30 722 H 67.5157 1.78515 6.26878 0
M  V30 723 N 70.9488 -0.749086 1.3866 0
M  V30 724 C 71.8958 -1.86291 1.36251 0
M  V30 725 C 72.8658 -1.64578 0.224347 0
M  V30 726 O 74.0508 -1.86181 0.417279 0
M  V30 727 C 71.1908 -3.23644 1.19786 0
M  V30 728 C 70.3038 -3.57158 2.43027 0
M  V30 729 C 69.4388 -4.83838 2.19258 0
M  V30 730 C 68.4778 -5.10152 3.38247 0
M  V30 731 N 67.6148 -6.28029 3.13884 0
M  V30 732 H 72.4548 -1.87685 2.3147 0
M  V30 733 H 69.9918 -0.917287 1.14997 0
M  V30 734 H 71.9498 -4.0291 1.08254 0
M  V30 735 H 70.5798 -3.21566 0.282031 0
M  V30 736 H 69.6318 -2.72701 2.65214 0
M  V30 737 H 70.9438 -3.7253 3.31697 0
M  V30 738 H 70.0978 -5.71057 2.04888 0
M  V30 739 H 68.8368 -4.70614 1.2796 0
M  V30 740 H 67.8418 -4.21401 3.53131 0
M  V30 741 H 69.0668 -5.25271 4.30427 0
M  V30 742 H 67.0128 -6.1612 2.25238 0
M  V30 743 H 66.9298 -6.43922 3.96106 0
M  V30 744 H 68.1978 -7.18124 3.03179 0
M  V30 745 N 72.4269 -1.23603 -0.977757 0
M  V30 746 C 73.6729 -1.07129 -1.72195 0
M  V30 747 C 74.0059 0.390501 -1.90233 0
M  V30 748 O 73.2809 1.28902 -1.45653 0
M  V30 749 C 73.5639 -1.80031 -3.11867 0
M  V30 750 C 73.4169 -3.33899 -3.01383 0
M  V30 751 C 74.7359 -1.56492 -4.11337 0
M  V30 752 H 71.8549 -0.390571 -0.624999 0
M  V30 753 H 74.4969 -1.52142 -1.13811 0
M  V30 754 H 72.6469 -1.41768 -3.6171 0
M  V30 755 H 74.3189 -3.81699 -2.59043 0
M  V30 756 H 72.5619 -3.62796 -2.37827 0
M  V30 757 H 73.2329 -3.801 -4.00285 0
M  V30 758 H 75.7089 -1.89757 -3.70313 0
M  V30 759 H 74.5849 -2.09973 -5.07151 0
M  V30 760 H 74.8459 -0.500874 -4.39254 0
M  V30 761 N 73.905 1.17692 -1.04816 0
M  V30 762 C 74.815 2.25229 -0.65643 0
M  V30 763 C 75.831 1.71018 0.320761 0
M  V30 764 O 77.007 2.00649 0.173805 0
M  V30 765 C 74.072 3.46684 -0.0332629 0
M  V30 766 C 73.133 4.15997 -1.06042 0
M  V30 767 C 72.366 5.31654 -0.466893 0
M  V30 768 O 72.589 5.65777 0.724758 0
M  V30 769 O 71.523 5.89831 -1.1993 0
M  V30 770 H 75.349 2.61016 -1.55255 0
M  V30 771 H 72.934 1.24919 -0.81949 0
M  V30 772 H 74.816 4.20234 0.313256 0
M  V30 773 H 73.491 3.12703 0.836566 0
M  V30 774 H 72.398 3.44482 -1.45886 0
M  V30 775 H 73.731 4.53996 -1.90127 0
M  V30 776 N 75.3831 0.828654 1.34056 0
M  V30 777 C 76.3301 0.252567 2.29414 0
M  V30 778 C 77.3001 -0.62588 1.53857 0
M  V30 779 O 78.4851 -0.566312 1.82202 0
M  V30 780 C 75.6251 -0.574831 3.40279 0
M  V30 781 C 74.7381 0.326499 4.30764 0
M  V30 782 C 73.8731 -0.511016 5.28736 0
M  V30 783 C 72.9121 0.389342 6.1086 0
M  V30 784 N 72.0491 -0.409439 7.00905 0
M  V30 785 H 76.8891 1.07108 2.78086 0
M  V30 786 H 74.4261 0.539677 1.36843 0
M  V30 787 H 76.3841 -1.06992 4.03248 0
M  V30 788 H 75.0141 -1.35841 2.92826 0
M  V30 789 H 74.0661 0.939837 3.68607 0
M  V30 790 H 75.3781 1.01857 4.88289 0
M  V30 791 H 74.5321 -1.07035 5.97184 0
M  V30 792 H 73.2711 -1.23657 4.71763 0
M  V30 793 H 72.2761 0.960769 5.4134 0
M  V30 794 H 73.5011 1.1131 6.69916 0
M  V30 795 H 71.4471 -1.11856 6.46393 0
M  V30 796 H 71.3641 0.224126 7.55668 0
M  V30 797 H 72.6321 -0.951336 7.73673 0
M  V30 798 N 76.8612 -1.46375 0.584142 0
M  V30 799 C 77.7942 -2.27351 -0.196676 0
M  V30 800 C 78.7722 -1.35715 -0.895561 0
M  V30 801 O 79.9562 -1.65126 -0.90916 0
M  V30 802 C 77.0832 -3.13486 -1.28235 0
M  V30 803 C 76.1292 -4.20896 -0.689145 0
M  V30 804 S 76.9622 -5.33299 0.48507 0
M  V30 805 C 78.1182 -6.23 -0.601767 0
M  V30 806 H 78.3512 -2.93228 0.490395 0
M  V30 807 H 75.8842 -1.49875 0.371071 0
M  V30 808 H 77.8422 -3.63676 -1.90395 0
M  V30 809 H 76.5032 -2.4692 -1.94138 0
M  V30 810 H 75.6962 -4.80997 -1.50527 0
M  V30 811 H 75.2982 -3.73726 -0.143181 0
M  V30 812 H 77.5902 -6.60979 -1.48705 0
M  V30 813 H 78.5332 -7.0809 -0.0374799 0
M  V30 814 H 78.9412 -5.57173 -0.906557 0
M  V30 815 N 78.3393 -0.321999 -1.54275 0
M  V30 816 C 79.2693 0.537411 -2.27231 0
M  V30 817 C 80.2503 1.12064 -1.27968 0
M  V30 818 O 81.4353 1.14606 -1.56777 0
M  V30 819 C 78.5653 1.69919 -3.02894 0
M  V30 820 C 77.5193 1.24534 -4.09482 0
M  V30 821 C 76.8453 2.49394 -4.72977 0
M  V30 822 C 78.1453 0.361335 -5.21049 0
M  V30 823 H 79.8393 -0.0711406 -2.99315 0
M  V30 824 H 77.3853 -0.0356555 -1.43956 0
M  V30 825 H 79.3383 2.30668 -3.52662 0
M  V30 826 H 78.0623 2.33431 -2.28424 0
M  V30 827 H 76.7213 0.660782 -3.60596 0
M  V30 828 H 76.3693 3.11265 -3.95124 0
M  V30 829 H 76.0693 2.19718 -5.44975 0
M  V30 830 H 77.5933 3.10908 -5.25517 0
M  V30 831 H 79.0073 0.875072 -5.66582 0
M  V30 832 H 77.4043 0.157428 -5.99893 0
M  V30 833 H 78.4743 -0.60822 -4.8107 0
M  V30 834 N 79.8174 1.5752 -0.0501392 0
M  V30 835 C 81.0664 1.91827 0.623328 0
M  V30 836 C 81.3794 0.930222 1.72065 0
M  V30 837 O 82.5854 1.1653 2.4522 0
M  V30 838 C 81.0414 3.40692 1.16003 0
M  V30 839 C 80.6494 4.479 0.0948811 0
M  V30 840 C 82.3934 3.84034 1.80881 0
M  V30 841 C 80.3004 5.87879 0.644411 0
M  V30 842 H 79.2304 0.715918 0.236596 0
M  V30 843 H 81.8814 1.83115 -0.118861 0
M  V30 844 H 80.2634 3.44405 1.9545 0
M  V30 845 H 81.4374 4.55775 -0.678675 0
M  V30 846 H 79.7524 4.13892 -0.45637 0
M  V30 847 H 82.3494 4.85984 2.22988 0
M  V30 848 H 82.6924 3.20225 2.6601 0
M  V30 849 H 83.2254 3.82833 1.0809 0
M  V30 850 H 79.9644 6.55282 -0.169229 0
M  V30 851 H 79.4844 5.83567 1.38598 0
M  V30 852 H 81.1634 6.37098 1.12763 0
M  V30 853 N 81.2955 -0.223234 1.56011 0
M  V30 854 C 82.5205 -0.968978 1.83373 0
M  V30 855 C 82.9455 -1.77227 0.630254 0
M  V30 856 O 82.3035 -1.76345 -0.420959 0
M  V30 857 C 82.3515 -1.86363 3.08709 0
M  V30 858 O 81.4555 -2.95873 2.87285 0
M  V30 859 H 80.7965 -0.274461 0.604622 0
M  V30 860 H 83.3265 -0.237056 2.03222 0
M  V30 861 H 83.3365 -2.27376 3.38768 0
M  V30 862 H 82.0115 -1.27319 3.95933 0
M  V30 863 H 80.5885 -2.58818 2.68454 0
M  V30 864 N 82.7736 -1.49793 -0.48987 0
M  V30 865 C 83.9986 -1.63836 -1.27172 0
M  V30 866 C 84.4236 -0.31402 -1.8546 0
M  V30 867 O 83.7816 0.719803 -1.66399 0
M  V30 868 C 83.8296 -2.71797 -2.36978 0
M  V30 869 O 82.9336 -2.31744 -3.41128 0
M  V30 870 H 82.2746 -0.547997 -0.37496 0
M  V30 871 H 84.8046 -1.96053 -0.585191 0
M  V30 872 H 84.8146 -2.94305 -2.82575 0
M  V30 873 H 83.4896 -3.67923 -1.93921 0
M  V30 874 H 82.0666 -2.1961 -3.01373 0
M  V30 875 N 84.2517 0.741722 -1.39055 0
M  V30 876 C 85.5007 1.49656 -1.35225 0
M  V30 877 C 85.8137 1.95533 0.0512708 0
M  V30 878 O 87.0197 2.7067 0.212138 0
M  V30 879 C 85.4757 2.70389 -2.37525 0
M  V30 880 C 85.0837 2.31489 -3.83558 0
M  V30 881 C 86.8277 3.48236 -2.42759 0
M  V30 882 C 84.7347 3.48903 -4.77515 0
M  V30 883 H 83.6647 0.56197 -0.502699 0
M  V30 884 H 86.3157 0.809727 -1.64668 0
M  V30 885 H 84.6977 3.41113 -2.01142 0
M  V30 886 H 85.8717 1.68354 -4.28945 0
M  V30 887 H 84.1867 1.66749 -3.81554 0
M  V30 888 H 86.7837 4.35558 -3.1015 0
M  V30 889 H 87.1267 3.90229 -1.45008 0
M  V30 890 H 87.6597 2.84535 -2.78002 0
M  V30 891 H 84.3987 3.11966 -5.76504 0
M  V30 892 H 83.9187 4.11041 -4.36813 0
M  V30 893 H 85.5977 4.15328 -4.96096 0
M  V30 894 N 85.7298 1.2412 0.971189 0
M  V30 895 C 86.6768 1.0305 2.06517 0
M  V30 896 C 87.6468 -0.0550666 1.66009 0
M  V30 897 O 88.8318 0.0988688 1.90544 0
M  V30 898 C 85.9718 0.637653 3.39158 0
M  V30 899 C 85.0848 1.79633 3.92882 0
M  V30 900 C 84.2198 1.34939 5.13775 0
M  V30 901 C 83.2588 2.47823 5.59687 0
M  V30 902 N 82.3958 2.04022 6.71803 0
M  V30 903 H 87.2358 1.96685 2.23873 0
M  V30 904 H 84.7728 0.979694 1.09729 0
M  V30 905 H 86.7308 0.390931 4.15364 0
M  V30 906 H 85.3608 -0.261693 3.21737 0
M  V30 907 H 84.4128 2.15681 3.13346 0
M  V30 908 H 85.7248 2.64466 4.22918 0
M  V30 909 H 84.8788 1.06134 5.97345 0
M  V30 910 H 83.6178 0.471557 4.85415 0
M  V30 911 H 82.6228 2.77392 4.74693 0
M  V30 912 H 83.8478 3.36158 5.90063 0
M  V30 913 H 81.7938 1.18632 6.45184 0
M  V30 914 H 81.7108 2.82409 7.01271 0
M  V30 915 H 82.9788 1.78347 7.58823 0
M  V30 916 N 87.2079 -1.17134 1.05439 0
M  V30 917 C 88.1179 -2.24878 0.668365 0
M  V30 918 C 89.1339 -1.71186 -0.311687 0
M  V30 919 O 90.3099 -2.00738 -0.163161 0
M  V30 920 C 87.3749 -3.46662 0.051648 0
M  V30 921 C 86.4359 -4.15429 1.08246 0
M  V30 922 C 85.6689 -5.31399 0.495082 0
M  V30 923 O 85.8919 -5.66153 -0.694743 0
M  V30 924 O 84.8259 -5.89187 1.23056 0
M  V30 925 H 88.6519 -2.60189 1.56637 0
M  V30 926 H 86.2369 -1.24482 0.826104 0
M  V30 927 H 88.1189 -4.20394 -0.290966 0
M  V30 928 H 86.7939 -3.13142 -0.819971 0
M  V30 929 H 85.7009 -3.43704 1.47711 0
M  V30 930 H 87.0339 -4.52982 1.92532 0
M  V30 931 N 88.686 -0.835752 -1.33615 0
M  V30 932 C 89.633 -0.26473 -2.29277 0
M  V30 933 C 90.603 0.617712 -1.54187 0
M  V30 934 O 91.788 0.556641 -1.825 0
M  V30 935 C 88.928 0.556777 -3.40579 0
M  V30 936 C 88.041 -0.349339 -4.30585 0
M  V30 937 C 87.176 0.482969 -5.29 0
M  V30 938 C 86.215 -0.421732 -6.10645 0
M  V30 939 N 85.352 0.372262 -7.01112 0
M  V30 940 H 90.192 -1.08582 -2.77514 0
M  V30 941 H 87.729 -0.546927 -1.36554 0
M  V30 942 H 89.687 1.04852 -4.03809 0
M  V30 943 H 88.317 1.34286 -2.93542 0
M  V30 944 H 87.369 -0.959372 -3.68104 0
M  V30 945 H 88.681 -1.04445 -4.87742 0
M  V30 946 H 87.835 1.03866 -5.97743 0
M  V30 947 H 86.574 1.21153 -4.72412 0
M  V30 948 H 85.579 -0.989464 -5.40823 0
M  V30 949 H 86.804 -1.14861 -6.69316 0
M  V30 950 H 84.75 1.08426 -6.46977 0
M  V30 951 H 84.667 -0.264198 -7.55538 0
M  V30 952 H 85.935 0.910293 -7.74167 0
M  V30 953 N 90.1641 1.46063 -0.591896 0
M  V30 954 C 91.3941 2.06418 -0.0867676 0
M  V30 955 C 91.8021 1.43975 1.22751 0
M  V30 956 O 91.1451 0.542531 1.75506 0
M  V30 957 C 91.2071 3.59213 0.143725 0
M  V30 958 C 90.8711 4.439 -1.08635 0
M  V30 959 C 91.8681 4.79864 -2.00067 0
M  V30 960 C 89.5531 4.84896 -1.31077 0
M  V30 961 C 91.5471 5.55661 -3.12282 0
M  V30 962 C 89.2341 5.6045 -2.43596 0
M  V30 963 C 90.2321 5.95747 -3.34027 0
M  V30 964 O 89.9201 6.69772 -4.4459 0
M  V30 965 H 89.6521 0.673443 -0.0587447 0
M  V30 966 H 92.2061 1.88539 -0.814994 0
M  V30 967 H 90.4361 3.75433 0.926668 0
M  V30 968 H 92.1251 4.01463 0.5985 0
M  V30 969 H 92.8911 4.48763 -1.83947 0
M  V30 970 H 88.7701 4.56867 -0.61594 0
M  V30 971 H 92.3141 5.8313 -3.82891 0
M  V30 972 H 88.2111 5.90965 -2.59674 0
M  V30 973 H 88.9791 6.88207 -4.43073 0
M  V30 974 N 91.6422 0.330177 1.54103 0
M  V30 975 C 93.0532 -0.15652 1.86043 0
M  V30 976 C 93.4042 -1.51086 1.2517 0
M  V30 977 O 92.5292 -2.09023 0.560217 0
M  V30 978 C 93.1242 -0.290784 3.3755 0
M  V30 979 C 91.6832 -0.721705 3.69416 0
M  V30 980 C 90.8302 0.152622 2.7688 0
M  V30 981 H 93.7812 0.550237 1.48856 0
M  V30 982 H 93.8022 -1.12058 3.63625 0
M  V30 983 H 93.3142 0.695068 3.81825 0
M  V30 984 H 91.4152 -1.71706 3.30678 0
M  V30 985 H 91.5282 -0.520869 4.7626 0
M  V30 986 H 89.8922 -0.372894 2.51956 0
M  V30 987 H 90.6752 1.13536 3.23982 0
M  V30 988 N 93.1203 -1.57491 0.0584922 0
M  V30 989 C 94.3453 -1.97711 -0.62652 0
M  V30 990 C 94.7703 -0.936132 -1.63151 0
M  V30 991 O 94.1283 0.099811 -1.81025 0
M  V30 992 C 94.1763 -3.36989 -1.28338 0
M  V30 993 O 93.2803 -3.35433 -2.39913 0
M  V30 994 H 92.6213 -0.643868 -0.162266 0
M  V30 995 H 95.1513 -2.04193 0.129064 0
M  V30 996 H 95.1613 -3.73879 -1.63335 0
M  V30 997 H 93.8363 -4.12289 -0.546889 0
M  V30 998 H 92.4133 -3.10298 -2.06809 0
M  V30 999 N 94.5984 0.214957 -1.56127 0
M  V30 1000 C 95.5484 1.27006 -1.8935 0
M  V30 1001 C 96.5324 1.41969 -0.757202 0
M  V30 1002 O 97.7244 1.44673 -1.01973 0
M  V30 1003 C 94.8534 2.61911 -2.2194 0
M  V30 1004 C 93.9394 2.50822 -3.41978 0
M  V30 1005 N 94.3304 2.09391 -4.60423 0
M  V30 1006 C 92.6284 2.81765 -3.45723 0
M  V30 1007 C 93.3294 2.09712 -5.42582 0
M  V30 1008 N 92.3054 2.50454 -4.82466 0
M  V30 1009 H 96.1074 0.940734 -2.78437 0
M  V30 1010 H 93.6214 0.423492 -1.56781 0
M  V30 1011 H 95.6184 3.38096 -2.43919 0
M  V30 1012 H 94.2784 2.95684 -1.34169 0
M  V30 1013 H 95.2894 1.80416 -4.85459 0
M  V30 1014 H 91.9664 3.19865 -2.68314 0
M  V30 1015 H 93.3564 1.79748 -6.4741 0
M  V30 1016 N 96.0765 1.50051 0.48192 0
M  V30 1017 C 97.3015 1.64508 1.26301 0
M  V30 1018 C 97.7265 0.323851 1.85291 0
M  V30 1019 O 97.0845 -0.710969 1.66778 0
M  V30 1020 C 97.1325 2.7305 2.35533 0
M  V30 1021 O 96.2365 2.3355 3.39895 0
M  V30 1022 H 95.5775 0.549978 0.372048 0
M  V30 1023 H 98.1075 1.9636 0.574786 0
M  V30 1024 H 98.1175 2.95799 2.8101 0
M  V30 1025 H 96.7925 3.68946 1.91967 0
M  V30 1026 H 95.3695 2.21205 3.00204 0
M  V30 1027 N 97.5546 -0.734337 1.39446 0
M  V30 1028 C 98.8016 -1.49391 1.36706 0
M  V30 1029 C 99.1296 -1.94465 -0.0367813 0
M  V30 1030 O 98.3846 -1.67154 -1.01774 0
M  V30 1031 C 98.6836 -2.74711 2.28623 0
M  V30 1032 C 98.3496 -2.48501 3.76242 0
M  V30 1033 C 97.0116 -2.41062 4.16464 0
M  V30 1034 C 99.3636 -2.26098 4.69606 0
M  V30 1035 C 96.6916 -2.09262 5.48112 0
M  V30 1036 C 99.0436 -1.95814 6.01531 0
M  V30 1037 C 97.7076 -1.86845 6.40816 0
M  V30 1038 H 96.9776 -0.546661 0.500243 0
M  V30 1039 H 99.6246 -0.842788 1.71957 0
M  V30 1040 H 97.9296 -3.44569 1.86492 0
M  V30 1041 H 99.6266 -3.32741 2.23796 0
M  V30 1042 H 96.2166 -2.55169 3.44364 0
M  V30 1043 H 100.401 -2.30812 4.39363 0
M  V30 1044 H 95.6566 -2.00841 5.77471 0
M  V30 1045 H 99.8306 -1.77488 6.73403 0
M  V30 1046 H 97.4576 -1.6197 7.42745 0
M  V30 1047 N 99.0327 -1.24633 -0.964593 0
M  V30 1048 C 100.282 -1.08188 -1.7023 0
M  V30 1049 C 100.595 0.37873 -1.91898 0
M  V30 1050 O 101.801 0.663427 -2.6327 0
M  V30 1051 C 100.257 -1.88773 -3.06419 0
M  V30 1052 C 99.8647 -3.39263 -2.92582 0
M  V30 1053 C 101.609 -1.80867 -3.84041 0
M  V30 1054 C 99.5157 -4.1218 -4.24101 0
M  V30 1055 H 98.4457 -0.401245 -0.638372 0
M  V30 1056 H 101.097 -1.48742 -1.07462 0
M  V30 1057 H 99.4787 -1.41035 -3.70034 0
M  V30 1058 H 100.653 -3.94603 -2.37961 0
M  V30 1059 H 98.9677 -3.48154 -2.28424 0
M  V30 1060 H 101.565 -2.32646 -4.81435 0
M  V30 1061 H 101.908 -0.774543 -4.09031 0
M  V30 1062 H 102.441 -2.26301 -3.27159 0
M  V30 1063 H 99.1797 -5.15965 -4.04303 0
M  V30 1064 H 98.6997 -3.61626 -4.78526 0
M  V30 1065 H 100.379 -4.19349 -4.92702 0
M  V30 1066 N 100.511 1.16574 -1.06058 0
M  V30 1067 C 101.759 1.86677 -0.77434 0
M  V30 1068 C 102.08 1.81959 0.701147 0
M  V30 1069 O 101.35 1.2515 1.50713 0
M  V30 1070 H 99.9298 0.691134 -0.283449 0
M  V30 1071 H 102.592 1.41378 -1.34158 0
M  V30 1072 H 101.688 2.92181 -1.09711 0
M  V30 1073 N 101.989 0.842826 1.3317 0
M  V30 1074 C 102.899 0.281444 2.32906 0
M  V30 1075 C 103.915 -0.594587 1.63526 0
M  V30 1076 O 105.091 -0.49777 1.95152 0
M  V30 1077 C 102.156 -0.530929 3.42611 0
M  V30 1078 C 101.217 0.369843 4.27704 0
M  V30 1079 C 100.45 -0.403853 5.3217 0
M  V30 1080 O 100.673 -1.63513 5.46461 0
M  V30 1081 O 99.6069 0.224199 6.01482 0
M  V30 1082 H 103.433 1.10744 2.82789 0
M  V30 1083 H 101.018 0.60545 1.36582 0
M  V30 1084 H 102.9 -0.992437 4.09547 0
M  V30 1085 H 101.575 -1.33392 2.94938 0
M  V30 1086 H 100.482 0.879275 3.6362 0
M  V30 1087 H 101.815 1.13771 4.78871 0
M  V30 1088 N 103.467 -1.45747 0.599634 0
M  V30 1089 C 104.377 -2.34262 -0.125888 0
M  V30 1090 C 105.393 -1.50768 -0.868625 0
M  V30 1091 O 106.569 -1.83592 -0.828003 0
M  V30 1092 C 103.634 -3.28252 -1.11587 0
M  V30 1093 C 102.695 -4.27651 -0.375956 0
M  V30 1094 C 101.928 -5.1715 -1.31877 0
M  V30 1095 O 102.151 -5.09916 -2.55621 0
M  V30 1096 O 101.085 -5.96286 -0.820157 0
M  V30 1097 H 104.911 -2.97688 0.601315 0
M  V30 1098 H 102.496 -1.44999 0.359934 0
M  V30 1099 H 104.378 -3.86191 -1.68626 0
M  V30 1100 H 103.053 -2.67401 -1.82424 0
M  V30 1101 H 101.96 -3.7335 0.236698 0
M  V30 1102 H 103.293 -4.91334 0.29177 0
M  V30 1103 N 104.945 -0.338344 -1.53925 0
M  V30 1104 C 106.17 0.263987 -2.05713 0
M  V30 1105 C 106.595 1.43847 -1.21201 0
M  V30 1106 O 105.953 1.79904 -0.224535 0
M  V30 1107 C 106.001 0.662 -3.54471 0
M  V30 1108 O 105.105 1.76265 -3.72833 0
M  V30 1109 H 104.446 0.0448722 -0.662482 0
M  V30 1110 H 106.976 -0.491048 -1.9862 0
M  V30 1111 H 106.986 0.940594 -3.9701 0
M  V30 1112 H 105.661 -0.196937 -4.15433 0
M  V30 1113 H 104.238 1.48173 -3.42198 0
M  V30 1114 N 106.423 1.57458 -0.0668435 0
M  V30 1115 C 107.669 1.93587 0.6043 0
M  V30 1116 C 108.002 0.946722 1.69561 0
M  V30 1117 O 107.277 -0.0248516 1.94484 0
M  V30 1118 C 107.56 3.40014 1.18585 0
M  V30 1119 C 107.413 4.49685 0.101529 0
M  V30 1120 C 108.732 3.87154 2.09284 0
M  V30 1121 H 105.851 0.703958 0.218202 0
M  V30 1122 H 108.493 1.89542 -0.131804 0
M  V30 1123 H 106.643 3.43592 1.81319 0
M  V30 1124 H 108.315 4.5823 -0.531279 0
M  V30 1125 H 106.558 4.30059 -0.568487 0
M  V30 1126 H 107.229 5.49266 0.54874 0
M  V30 1127 H 109.705 3.85551 1.56491 0
M  V30 1128 H 108.581 4.90231 2.46911 0
M  V30 1129 H 108.842 3.2481 2.99918 0
M  V30 1130 N 107.901 -0.206675 1.56239 0
M  V30 1131 C 108.864 -1.23976 1.92776 0
M  V30 1132 C 109.864 -1.39041 0.807729 0
M  V30 1133 O 111.054 -1.37051 1.0753 0
M  V30 1134 C 108.186 -2.61112 2.19165 0
M  V30 1135 H 109.379 -0.927764 2.85189 0
M  V30 1136 H 106.932 -0.447718 1.4975 0
M  V30 1137 H 107.667 -2.97386 1.29352 0
M  V30 1138 H 107.452 -2.51552 3.00772 0
M  V30 1139 H 108.942 -3.35633 2.48476 0
M  V30 1140 N 109.379 -1.50304 -0.473955 0
M  V30 1141 C 110.342 -1.6841 -1.55469 0
M  V30 1142 C 111.342 -0.554905 -1.50922 0
M  V30 1143 O 112.532 -0.821882 -1.53593 0
M  V30 1144 C 109.664 -1.70667 -2.95102 0
M  V30 1145 H 110.857 -2.64828 -1.40733 0
M  V30 1146 H 108.41 -1.39742 -0.700132 0
M  V30 1147 H 109.145 -0.75932 -3.15285 0
M  V30 1148 H 108.93 -2.52698 -2.9981 0
M  V30 1149 H 110.42 -1.8664 -3.73571 0
M  V30 1150 N 110.857 0.726932 -1.39834 0
M  V30 1151 C 112.105 1.4837 -1.37225 0
M  V30 1152 C 112.426 1.94979 0.0284857 0
M  V30 1153 O 111.696 1.69555 0.981213 0
M  V30 1154 H 110.276 0.55043 -0.505011 0
M  V30 1155 H 112.938 0.862468 -1.74778 0
M  V30 1156 H 112.034 2.36198 -2.04003 0
M  V30 1157 N 112.336 1.25143 0.95797 0
M  V30 1158 C 113.246 1.06968 2.08794 0
M  V30 1159 C 114.262 0.00773911 1.73998 0
M  V30 1160 O 115.438 0.207972 2.00323 0
M  V30 1161 C 112.503 0.68691 3.39827 0
M  V30 1162 C 111.564 1.82641 3.88511 0
M  V30 1163 C 110.797 1.46181 5.1329 0
M  V30 1164 O 111.02 0.355971 5.69288 0
M  V30 1165 O 109.954 2.29085 5.566 0
M  V30 1166 H 113.78 2.01723 2.27027 0
M  V30 1167 H 111.365 1.04051 1.07209 0
M  V30 1168 H 113.247 0.485417 4.18595 0
M  V30 1169 H 111.922 -0.231417 3.22872 0
M  V30 1170 H 110.829 2.08274 3.10762 0
M  V30 1171 H 112.162 2.72386 4.09959 0
M  V30 1172 N 113.814 -1.1601 1.06675 0
M  V30 1173 C 114.761 -2.20525 0.680967 0
M  V30 1174 C 115.731 -1.62904 -0.324283 0
M  V30 1175 O 116.916 -1.89615 -0.212294 0
M  V30 1176 C 114.056 -3.45013 0.0776551 0
M  V30 1177 C 113.169 -4.16863 1.13355 0
M  V30 1178 C 112.304 -5.2888 0.49597 0
M  V30 1179 C 111.343 -5.92537 1.53513 0
M  V30 1180 N 110.48 -6.96038 0.920631 0
M  V30 1181 H 115.32 -2.52876 1.57663 0
M  V30 1182 H 112.857 -1.24199 0.788223 0
M  V30 1183 H 114.815 -4.16193 -0.289704 0
M  V30 1184 H 113.445 -3.132 -0.781393 0
M  V30 1185 H 112.497 -3.44248 1.61857 0
M  V30 1186 H 113.809 -4.60294 1.92174 0
M  V30 1187 H 112.963 -6.06653 0.0758604 0
M  V30 1188 H 111.702 -4.86622 -0.324062 0
M  V30 1189 H 110.707 -5.13482 1.9651 0
M  V30 1190 H 111.932 -6.36873 2.35733 0
M  V30 1191 H 109.878 -6.55888 0.12138 0
M  V30 1192 H 109.795 -7.3786 1.64616 0
M  V30 1193 H 111.063 -7.77725 0.525795 0
M  V30 1194 N 115.292 -0.849877 -1.32721 0
M  V30 1195 C 116.517 -0.463856 -2.02146 0
M  V30 1196 C 116.942 0.930449 -1.63476 0
M  V30 1197 O 116.3 1.61033 -0.832952 0
M  V30 1198 C 116.348 -0.604955 -3.55489 0
M  V30 1199 O 115.452 0.36425 -4.10788 0
M  V30 1200 H 114.793 -0.187046 -0.637111 0
M  V30 1201 H 117.323 -1.14775 -1.69375 0
M  V30 1202 H 117.333 -0.490696 -4.05038 0
M  V30 1203 H 116.008 -1.62174 -3.82978 0
M  V30 1204 H 114.585 0.206628 -3.72327 0
M  V30 1205 N 116.77 1.45427 -0.607355 0
M  V30 1206 C 118.019 2.01452 -0.100036 0
M  V30 1207 C 118.332 1.48159 1.27704 0
M  V30 1208 O 119.538 1.96159 1.87707 0
M  V30 1209 C 117.994 3.59672 -0.128158 0
M  V30 1210 C 117.602 4.21962 -1.50507 0
M  V30 1211 C 119.346 4.23262 0.323932 0
M  V30 1212 C 117.253 5.72333 -1.48959 0
M  V30 1213 H 116.183 0.75325 -0.0336299 0
M  V30 1214 H 118.834 1.66901 -0.76265 0
M  V30 1215 H 117.216 3.91411 0.601105 0
M  V30 1216 H 118.39 4.01796 -2.25602 0
M  V30 1217 H 116.705 3.70565 -1.89923 0
M  V30 1218 H 119.302 5.33522 0.354691 0
M  V30 1219 H 119.645 3.93921 1.34656 0
M  V30 1220 H 120.178 3.96239 -0.352056 0
M  V30 1221 H 116.917 6.06373 -2.48981 0
M  V30 1222 H 116.437 5.94691 -0.781214 0
M  V30 1223 H 118.116 6.35525 -1.21313 0
M  V30 1224 N 118.248 0.346503 1.53744 0
M  V30 1225 C 119.178 -0.501193 2.28058 0
M  V30 1226 C 120.159 -1.10014 1.29734 0
M  V30 1227 O 121.344 -1.12097 1.58581 0
M  V30 1228 C 118.474 -1.65078 3.05559 0
M  V30 1229 C 117.428 -1.18003 4.11411 0
M  V30 1230 C 116.754 -2.41837 4.76884 0
M  V30 1231 C 118.054 -0.278394 5.21558 0
M  V30 1232 H 119.748 0.11875 2.99164 0
M  V30 1233 H 117.294 0.0585531 1.43881 0
M  V30 1234 H 119.247 -2.25028 3.56287 0
M  V30 1235 H 117.971 -2.29767 2.32109 0
M  V30 1236 H 116.63 -0.603331 3.61601 0
M  V30 1237 H 116.278 -3.0494 4.00026 0
M  V30 1238 H 115.978 -2.1102 5.48402 0
M  V30 1239 H 117.502 -3.02508 5.30397 0
M  V30 1240 H 118.916 -0.784823 5.67903 0
M  V30 1241 H 117.313 -0.0619707 6.00068 0
M  V30 1242 H 118.383 0.684677 4.80042 0
M  V30 1243 N 119.726 -1.57421 0.075193 0
M  V30 1244 C 120.954 -1.97946 -0.602076 0
M  V30 1245 C 121.369 -0.953674 -1.62943 0
M  V30 1246 O 120.726 0.0592551 -1.82404 0
M  V30 1247 C 120.777 -3.38546 -1.26762 0
M  V30 1248 O 120.498 -4.37195 -0.281376 0
M  V30 1249 C 121.999 -3.93966 -2.03239 0
M  V30 1250 H 119.219 -0.650918 -0.162931 0
M  V30 1251 H 121.763 -2.03959 0.148601 0
M  V30 1252 H 119.918 -3.33609 -1.96936 0
M  V30 1253 H 120.332 -5.18975 -0.759267 0
M  V30 1254 H 121.806 -4.94555 -2.45193 0
M  V30 1255 H 122.283 -3.30693 -2.8903 0
M  V30 1256 H 122.889 -4.02315 -1.37924 0
M  V30 1257 N 121.204 0.198386 -1.56346 0
M  V30 1258 C 122.481 0.944982 -1.71258 0
M  V30 1259 C 122.861 2.0151 -0.629048 0
M  V30 1260 O 122.209 2.25639 0.360473 0
M  V30 1261 C 122.419 1.5344 -3.1346 0
M  V30 1262 C 123.767 2.01778 -3.73591 0
M  V30 1263 O 124.791 1.63288 -3.16568 0
M  V30 1264 O 123.65 2.72594 -4.73661 0
M  V30 1265 H 120.744 0.442939 -0.69838 0
M  V30 1266 H 123.29 0.188342 -1.68652 0
M  V30 1267 H 122.062 0.762869 -3.83792 0
M  V30 1268 H 121.685 2.35596 -3.20282 0
M  V30 1269 N 122.682 1.50554 0.465978 0
M  V30 1270 C 123.63 1.70324 1.58406 0
M  V30 1271 C 124.624 0.569139 1.59553 0
M  V30 1272 O 125.83 0.749776 1.63641 0
M  V30 1273 H 122.205 0.537688 0.525734 0
M  V30 1274 H 124.176 2.64104 1.38894 0
M  V30 1275 C 122.925 1.81928 2.96307 0
M  V30 1276 H 122.248 2.68586 2.96144 0
M  V30 1277 H 123.688 1.99784 3.73982 0
M  V30 1278 C 122.147 0.572095 3.32007 0
M  V30 1279 O 122.677 -0.286416 4.00678 0
M  V30 1280 N 120.883 0.424606 2.87481 0
M  V30 1281 H 120.43 1.12427 2.31771 0
M  V30 1282 H 120.388 -0.408697 3.11732 0
M  V30 1283 N 124.16 -0.719506 1.40217 0
M  V30 1284 C 125.571 -1.29848 1.34151 0
M  V30 1285 C 125.922 -1.96196 0.0131349 0
M  V30 1286 O 125.047 -1.973 -0.88892 0
M  V30 1287 C 125.642 -2.36118 2.42968 0
M  V30 1288 C 124.201 -2.8965 2.40374 0
M  V30 1289 C 123.348 -1.63393 2.24049 0
M  V30 1290 H 126.299 -0.51591 1.5008 0
M  V30 1291 H 126.32 -3.16871 2.10649 0
M  V30 1292 H 125.832 -1.878 3.39636 0
M  V30 1293 H 123.933 -3.42208 1.47392 0
M  V30 1294 H 124.046 -3.4171 3.35814 0
M  V30 1295 H 122.41 -1.88312 1.71495 0
M  V30 1296 H 123.193 -1.17104 3.2271 0
M  V30 1297 N 125.638 -1.25649 -0.95132 0
M  V30 1298 C 126.866 -1.13343 -1.73092 0
M  V30 1299 C 127.281 0.312434 -1.86197 0
M  V30 1300 O 126.638 1.21465 -1.36207 0
M  V30 1301 C 126.689 -1.78602 -3.14299 0
M  V30 1302 O 126.41 -3.17537 -3.01831 0
M  V30 1303 C 127.911 -1.72119 -4.08522 0
M  V30 1304 H 125.131 -0.395181 -0.542285 0
M  V30 1305 H 127.675 -1.66076 -1.19328 0
M  V30 1306 H 125.83 -1.29832 -3.64996 0
M  V30 1307 H 126.244 -3.49676 -3.90931 0
M  V30 1308 H 127.718 -2.22435 -5.052 0
M  V30 1309 H 128.195 -0.685635 -4.33815 0
M  V30 1310 H 128.801 -2.20393 -3.63741 0
M  V30 1311 N 127.117 1.15442 -1.07289 0
M  V30 1312 C 128.363 1.8672 -0.806679 0
M  V30 1313 C 128.718 1.80723 0.660084 0
M  V30 1314 O 128.011 1.21902 1.47819 0
M  V30 1315 C 128.205 3.3489 -1.24834 0
M  V30 1316 C 128.034 3.55313 -2.7565 0
M  V30 1317 C 126.804 3.7082 -3.4325 0
M  V30 1318 C 129.002 3.53188 -3.73848 0
M  V30 1319 N 126.984 3.7929 -4.82713 0
M  V30 1320 C 128.355 3.67765 -4.99149 0
M  V30 1321 C 130.41 3.36459 -3.67015 0
M  V30 1322 C 129.113 3.6734 -6.18428 0
M  V30 1323 C 131.139 3.37333 -4.85758 0
M  V30 1324 C 130.501 3.52438 -6.09891 0
M  V30 1325 H 126.6 0.700433 -0.347733 0
M  V30 1326 H 129.184 1.38441 -1.36902 0
M  V30 1327 H 127.355 3.81786 -0.713713 0
M  V30 1328 H 129.087 3.93875 -0.929745 0
M  V30 1329 H 125.842 3.71568 -2.93656 0
M  V30 1330 H 126.266 3.8727 -5.55294 0
M  V30 1331 H 130.908 3.237 -2.71989 0
M  V30 1332 H 128.626 3.78878 -7.13777 0
M  V30 1333 H 132.212 3.25617 -4.82146 0
M  V30 1334 H 131.092 3.53047 -7.00234 0
M  V30 1335 N 128.595 0.856903 1.32268 0
M  V30 1336 C 129.844 0.457599 1.96441 0
M  V30 1337 C 130.157 -0.992426 1.68553 0
M  V30 1338 O 131.363 -1.49727 2.26482 0
M  V30 1339 C 129.819 0.767358 3.51624 0
M  V30 1340 C 129.427 2.23326 3.88367 0
M  V30 1341 C 131.171 0.435887 4.22256 0
M  V30 1342 C 129.078 2.48613 5.36606 0
M  V30 1343 H 128.008 0.167387 0.735185 0
M  V30 1344 H 130.659 1.048 1.5063 0
M  V30 1345 H 129.041 0.106367 3.95857 0
M  V30 1346 H 130.215 2.93623 3.55137 0
M  V30 1347 H 128.53 2.52948 3.30766 0
M  V30 1348 H 131.127 0.602202 5.31298 0
M  V30 1349 H 131.47 -0.622672 4.11617 0
M  V30 1350 H 132.003 1.05286 3.83614 0
M  V30 1351 H 128.742 3.53101 5.52268 0
M  V30 1352 H 128.262 1.82896 5.71235 0
M  V30 1353 H 129.941 2.32676 6.03714 0
M  V30 1354 N 130.073 -1.45103 0.615059 0
M  V30 1355 C 131.322 -2.01396 0.110718 0
M  V30 1356 C 131.635 -1.48834 -1.26916 0
M  V30 1357 O 132.841 -1.97152 -1.86664 0
M  V30 1358 C 131.297 -3.59599 0.14723 0
M  V30 1359 C 130.905 -4.21158 1.52743 0
M  V30 1360 C 132.649 -4.23428 -0.30148 0
M  V30 1361 C 130.556 -5.71535 1.51992 0
M  V30 1362 H 129.486 -0.753061 0.0376241 0
M  V30 1363 H 132.137 -1.66494 0.77149 0
M  V30 1364 H 130.519 -3.91724 -0.580339 0
M  V30 1365 H 131.693 -4.00594 2.2773 0
M  V30 1366 H 130.008 -3.69552 1.91886 0
M  V30 1367 H 132.605 -5.33703 -0.326392 0
M  V30 1368 H 132.948 -3.94629 -1.32565 0
M  V30 1369 H 133.481 -3.96047 0.373065 0
M  V30 1370 H 130.22 -6.05044 2.52193 0
M  V30 1371 H 129.74 -5.94268 0.81274 0
M  V30 1372 H 131.419 -6.34873 1.24681 0
M  V30 1373 N 131.551 -0.354651 -1.53558 0
M  V30 1374 C 132.828 0.294281 -1.93374 0
M  V30 1375 C 133.208 1.67313 -1.28723 0
M  V30 1376 O 132.556 2.24179 -0.442247 0
M  V30 1377 C 132.766 0.355445 -3.47185 0
M  V30 1378 C 134.114 0.601007 -4.20325 0
M  V30 1379 O 135.138 0.437106 -3.53508 0
M  V30 1380 O 133.997 0.919322 -5.38712 0
M  V30 1381 H 131.091 0.174033 -0.808481 0
M  V30 1382 H 133.637 -0.406638 -1.64756 0
M  V30 1383 H 132.409 -0.611729 -3.86489 0
M  V30 1384 H 132.032 1.1027 -3.82003 0
M  V30 1385 N 133.029 1.57378 -0.0835403 0
M  V30 1386 C 134.44 1.81261 0.447358 0
M  V30 1387 C 134.791 0.998331 1.68902 0
M  V30 1388 O 133.916 0.224282 2.15235 0
M  V30 1389 C 134.511 3.28767 0.818386 0
M  V30 1390 C 133.07 3.53455 1.29409 0
M  V30 1391 C 132.217 2.75831 0.285024 0
M  V30 1392 H 135.168 1.5566 -0.309115 0
M  V30 1393 H 135.189 3.41459 1.67887 0
M  V30 1394 H 134.701 3.88006 -0.0855019 0
M  V30 1395 H 132.802 2.99534 2.21608 0
M  V30 1396 H 132.915 4.62128 1.2639 0
M  V30 1397 H 131.279 2.42947 0.764767 0
M  V30 1398 H 132.062 3.37813 -0.611341 0
M  V30 1399 N 134.507 -0.190092 1.56449 0
M  V30 1400 C 135.756 -0.907912 1.80111 0
M  V30 1401 C 136.069 -1.84214 0.657619 0
M  V30 1402 O 137.275 -2.60094 0.778663 0
M  V30 1403 C 135.731 -1.66485 3.19078 0
M  V30 1404 C 135.339 -0.7752 4.41242 0
M  V30 1405 C 137.083 -2.37201 3.52045 0
M  V30 1406 C 134.99 -1.53129 5.71231 0
M  V30 1407 H 133.92 -0.34276 0.671589 0
M  V30 1408 H 136.571 -0.161109 1.82791 0
M  V30 1409 H 134.953 -2.45572 3.10661 0
M  V30 1410 H 136.127 -0.0226298 4.60794 0
M  V30 1411 H 134.442 -0.178627 4.16017 0
M  V30 1412 H 137.039 -2.94329 4.46402 0
M  V30 1413 H 137.382 -3.11632 2.76028 0
M  V30 1414 H 137.915 -1.65075 3.61932 0
M  V30 1415 H 134.654 -0.82967 6.50228 0
M  V30 1416 H 134.174 -2.25767 5.55688 0
M  V30 1417 H 135.853 -2.08377 6.12526 0
M  V30 1418 N 135.985 -1.50799 -0.457987 0
M  V30 1419 C 137.262 -1.52968 -1.21902 0
M  V30 1420 C 137.642 -0.281906 -2.09209 0
M  V30 1421 O 136.99 0.734076 -2.16388 0
M  V30 1422 C 137.2 -2.8326 -2.03875 0
M  V30 1423 C 138.548 -3.34425 -2.6162 0
M  V30 1424 O 139.572 -2.8467 -2.14106 0
M  V30 1425 O 138.431 -4.21188 -3.48228 0
M  V30 1426 H 135.525 -0.614129 -0.553873 0
M  V30 1427 H 138.071 -1.63098 -0.468739 0
M  V30 1428 H 136.843 -3.65543 -1.39621 0
M  V30 1429 H 136.466 -2.76195 -2.8601 0
M  V30 1430 N 137.463 0.71206 -1.40597 0
M  V30 1431 C 138.711 1.46907 -1.38791 0
M  V30 1432 C 139.032 1.94998 0.00780391 0
M  V30 1433 O 138.302 1.70587 0.963174 0
M  V30 1434 H 136.882 0.545043 -0.51082 0
M  V30 1435 H 139.544 0.843882 -1.75683 0
M  V30 1436 H 138.64 2.34021 -2.06496 0
M  V30 1437 N 138.941 1.26152 0.944643 0
M  V30 1438 C 140.169 1.14259 1.72489 0
M  V30 1439 C 140.584 -0.302555 1.8636 0
M  V30 1440 O 139.941 -1.20741 1.36849 0
M  V30 1441 C 139.992 1.80266 3.13347 0
M  V30 1442 O 139.713 3.19133 3.00143 0
M  V30 1443 C 141.214 1.74283 4.07603 0
M  V30 1444 H 138.434 0.398051 0.540181 0
M  V30 1445 H 140.978 1.66706 1.18446 0
M  V30 1446 H 139.133 1.31766 3.64303 0
M  V30 1447 H 139.547 3.51744 3.89071 0
M  V30 1448 H 141.021 2.25111 5.04013 0
M  V30 1449 H 141.498 0.708631 4.33446 0
M  V30 1450 H 142.104 2.22319 3.62567 0
M  V30 1451 N 140.419 -1.14872 1.07899 0
M  V30 1452 C 141.647 -1.89661 0.82683 0
M  V30 1453 C 142.062 -1.78312 -0.620519 0
M  V30 1454 O 141.419 -1.13888 -1.42604 0
M  V30 1455 C 141.47 -3.39817 1.23316 0
M  V30 1456 O 141.191 -3.50845 2.62372 0
M  V30 1457 C 142.692 -4.31615 1.0111 0
M  V30 1458 H 139.912 -0.60092 0.298557 0
M  V30 1459 H 142.456 -1.4551 1.43691 0
M  V30 1460 H 140.611 -3.8161 0.667286 0
M  V30 1461 H 141.025 -4.44076 2.79101 0
M  V30 1462 H 142.499 -5.35367 1.34486 0
M  V30 1463 H 142.976 -4.39169 -0.0522168 0
M  V30 1464 H 143.582 -3.95572 1.56215 0
M  V30 1465 N 141.898 -0.863906 -1.31812 0
M  V30 1466 C 142.846 -0.30422 -2.30602 0
M  V30 1467 C 143.84 0.577419 -1.59255 0
M  V30 1468 O 145.046 0.464194 -1.73912 0
M  V30 1469 H 141.421 -0.0796877 -0.747766 0
M  V30 1470 H 143.392 -1.15148 -2.75288 0
M  V30 1471 C 142.141 0.484617 -3.44306 0
M  V30 1472 H 141.464 -0.18451 -3.99374 0
M  V30 1473 H 142.904 0.841664 -4.15562 0
M  V30 1474 C 141.363 1.6735 -2.92396 0
M  V30 1475 O 141.893 2.77273 -2.90659 0
M  V30 1476 N 140.099 1.50362 -2.48676 0
M  V30 1477 H 139.646 0.609402 -2.50288 0
M  V30 1478 H 139.604 2.30051 -2.14299 0
M  V30 1479 N 143.376 1.44774 -0.622745 0
M  V30 1480 C 144.623 2.02121 -0.1239 0
M  V30 1481 C 144.951 1.48915 1.25118 0
M  V30 1482 O 144.206 0.660045 1.84233 0
M  V30 1483 C 144.505 3.57364 -0.0508323 0
M  V30 1484 C 144.171 4.29787 -1.36358 0
M  V30 1485 C 142.833 4.4929 -1.72314 0
M  V30 1486 C 145.185 4.71062 -2.23048 0
M  V30 1487 C 142.513 5.07325 -2.94682 0
M  V30 1488 C 144.865 5.30452 -3.44679 0
M  V30 1489 C 143.529 5.48175 -3.80868 0
M  V30 1490 H 142.799 0.739612 -0.0453381 0
M  V30 1491 H 145.446 1.73648 -0.807389 0
M  V30 1492 H 143.751 3.85202 0.715991 0
M  V30 1493 H 145.448 3.99456 0.351533 0
M  V30 1494 H 142.038 4.14932 -1.07375 0
M  V30 1495 H 146.222 4.55715 -1.96565 0
M  V30 1496 H 141.478 5.19235 -3.22809 0
M  V30 1497 H 145.652 5.61385 -4.12092 0
M  V30 1498 H 143.279 5.92912 -4.75773 0
M  V30 1499 N 144.854 0.36279 1.53368 0
M  V30 1500 C 146.1 -0.228113 2.01513 0
M  V30 1501 C 146.433 -1.48648 1.2497 0
M  V30 1502 O 145.708 -1.91459 0.342616 0
M  V30 1503 C 145.991 -0.522884 3.56284 0
M  V30 1504 C 145.844 0.74892 4.43521 0
M  V30 1505 C 147.163 -1.32461 4.19693 0
M  V30 1506 H 144.282 -0.0814343 0.732487 0
M  V30 1507 H 146.924 0.48713 1.83649 0
M  V30 1508 H 145.074 -1.1322 3.71636 0
M  V30 1509 H 146.746 1.38648 4.39971 0
M  V30 1510 H 144.989 1.36986 4.11603 0
M  V30 1511 H 145.66 0.497667 5.49752 0
M  V30 1512 H 148.136 -0.809203 4.08156 0
M  V30 1513 H 147.012 -1.49961 5.28018 0
M  V30 1514 H 147.273 -2.33232 3.75573 0
M  V30 1515 N 146.332 -1.57332 0.0918853 0
M  V30 1516 C 147.282 -2.10385 -0.87876 0
M  V30 1517 C 148.266 -1.01814 -1.24591 0
M  V30 1518 O 149.458 -1.28093 -1.22152 0
M  V30 1519 C 146.587 -2.68517 -2.13901 0
M  V30 1520 C 145.673 -3.84126 -1.79744 0
M  V30 1521 N 146.064 -4.92288 -1.1613 0
M  V30 1522 C 144.362 -3.93801 -2.09373 0
M  V30 1523 C 145.063 -5.7295 -1.00513 0
M  V30 1524 N 144.039 -5.21876 -1.5214 0
M  V30 1525 H 147.841 -2.91395 -0.38293 0
M  V30 1526 H 145.355 -1.62017 -0.111423 0
M  V30 1527 H 147.352 -3.04852 -2.84378 0
M  V30 1528 H 146.012 -1.88961 -2.64053 0
M  V30 1529 H 147.023 -5.1123 -0.828504 0
M  V30 1530 H 143.7 -3.25249 -2.61762 0
M  V30 1531 H 145.09 -6.69978 -0.507902 0
M  V30 1532 N 147.81 0.181792 -1.56548 0
M  V30 1533 C 149.226 0.53316 -1.50431 0
M  V30 1534 C 149.426 1.85184 -0.794297 0
M  V30 1535 O 148.482 2.50058 -0.350318 0
M  V30 1536 C 149.795 0.575597 -2.9514 0
M  V30 1537 C 151.343 0.663519 -3.05886 0
M  V30 1538 C 151.818 0.736946 -4.52032 0
M  V30 1539 N 153.309 0.800118 -4.56237 0
M  V30 1540 C 154.044 0.877327 -5.66649 0
M  V30 1541 N 153.54 0.916016 -6.86718 0
M  V30 1542 N 155.333 0.915542 -5.54594 0
M  V30 1543 H 147.484 -0.683025 -2.01118 0
M  V30 1544 H 149.747 -0.244988 -0.915797 0
M  V30 1545 H 149.453 -0.324482 -3.502 0
M  V30 1546 H 149.327 1.42572 -3.49218 0
M  V30 1547 H 151.714 1.55403 -2.50867 0
M  V30 1548 H 151.795 -0.21307 -2.54911 0
M  V30 1549 H 151.439 -0.149262 -5.07681 0
M  V30 1550 H 151.369 1.62953 -5.00753 0
M  V30 1551 H 153.86 0.778926 -3.69785 0
M  V30 1552 H 154.173 0.975813 -7.66614 0
M  V30 1553 H 152.518 0.884469 -6.89349 0
M  V30 1554 H 155.709 0.882245 -4.59711 0
M  V30 1555 H 155.882 0.972253 -6.40665 0
M  V30 1556 N 149.288 1.51039 0.449983 0
M  V30 1557 C 150.535 1.63081 1.20045 0
M  V30 1558 C 150.863 0.341024 1.91487 0
M  V30 1559 O 150.118 -0.674276 1.83717 0
M  V30 1560 C 150.417 2.77556 2.25161 0
M  V30 1561 C 150.083 4.17289 1.70823 0
M  V30 1562 C 148.745 4.55305 1.55725 0
M  V30 1563 C 151.097 5.04536 1.3074 0
M  V30 1564 C 148.425 5.78287 0.989999 0
M  V30 1565 C 150.777 6.28085 0.754482 0
M  V30 1566 C 149.441 6.64885 0.590308 0
M  V30 1567 H 148.711 0.596755 0.439277 0
M  V30 1568 H 151.358 1.85037 0.49333 0
M  V30 1569 H 149.663 2.49771 3.01863 0
M  V30 1570 H 151.36 2.84073 2.83026 0
M  V30 1571 H 147.95 3.8731 1.83546 0
M  V30 1572 H 152.134 4.75782 1.41229 0
M  V30 1573 H 147.39 6.05456 0.850451 0
M  V30 1574 H 151.564 6.95038 0.435324 0
M  V30 1575 H 149.191 7.60055 0.14862 0
M  V30 1576 N 150.766 -0.704594 1.40972 0
M  V30 1577 C 152.177 -1.28418 1.3552 0
M  V30 1578 C 152.528 -1.96171 0.0339434 0
M  V30 1579 O 151.653 -1.98231 -0.867944 0
M  V30 1580 C 152.248 -2.33528 2.45459 0
M  V30 1581 C 150.807 -2.87085 2.43433 0
M  V30 1582 C 149.954 -1.61007 2.2577 0
M  V30 1583 H 152.905 -0.499963 1.50619 0
M  V30 1584 H 152.926 -3.14619 2.13998 0
M  V30 1585 H 152.438 -1.84187 3.41609 0
M  V30 1586 H 150.539 -3.40626 1.51013 0
M  V30 1587 H 150.652 -3.3813 3.39419 0
M  V30 1588 H 149.016 -1.86482 1.73483 0
M  V30 1589 H 149.799 -1.13675 3.23933 0
M  V30 1590 N 152.244 -1.26651 -0.937939 0
M  V30 1591 C 153.491 -1.12387 -1.6845 0
M  V30 1592 C 153.819 0.332208 -1.91642 0
M  V30 1593 O 153.074 1.2602 -1.49725 0
M  V30 1594 C 153.373 -1.84168 -3.06295 0
M  V30 1595 C 153.039 -3.34056 -3.02849 0
M  V30 1596 C 151.701 -3.74942 -3.01616 0
M  V30 1597 C 154.053 -4.29741 -2.9491 0
M  V30 1598 C 151.381 -5.09894 -2.90215 0
M  V30 1599 C 153.733 -5.64738 -2.8505 0
M  V30 1600 C 152.397 -6.0493 -2.82162 0
M  V30 1601 H 151.667 -0.411252 -0.616403 0
M  V30 1602 H 154.314 -1.57134 -1.09459 0
M  V30 1603 H 152.619 -1.319 -3.6893 0
M  V30 1604 H 154.316 -1.70569 -3.62915 0
M  V30 1605 H 150.906 -3.01534 -3.0459 0
M  V30 1606 H 155.09 -3.99133 -2.94969 0
M  V30 1607 H 150.346 -5.40194 -2.86358 0
M  V30 1608 H 154.52 -6.38561 -2.77872 0
M  V30 1609 H 152.147 -7.09457 -2.73084 0
M  V30 1610 N 153.722 1.14298 -1.08507 0
M  V30 1611 C 154.968 1.85633 -0.816581 0
M  V30 1612 C 155.301 1.82784 0.656021 0
M  V30 1613 O 154.576 1.25926 1.48233 0
M  V30 1614 C 154.859 3.34223 -1.34041 0
M  V30 1615 C 154.712 3.45639 -2.87843 0
M  V30 1616 C 156.031 4.29356 -0.9665 0
M  V30 1617 H 153.15 0.67402 -0.298104 0
M  V30 1618 H 155.792 1.34214 -1.34487 0
M  V30 1619 H 153.942 3.78144 -0.89104 0
M  V30 1620 H 155.614 3.10498 -3.41158 0
M  V30 1621 H 153.857 2.86817 -3.25451 0
M  V30 1622 H 154.528 4.50089 -3.19569 0
M  V30 1623 H 157.004 3.93457 -1.35391 0
M  V30 1624 H 155.88 5.3178 -1.3602 0
M  V30 1625 H 156.141 4.41919 0.126362 0
M  V30 1626 N 155.201 0.870884 1.31352 0
M  V30 1627 C 156.164 0.332243 2.26779 0
M  V30 1628 C 157.164 -0.517302 1.52252 0
M  V30 1629 O 158.354 -0.326477 1.71113 0
M  V30 1630 C 155.486 -0.528066 3.36785 0
M  V30 1631 H 156.679 1.17469 2.75937 0
M  V30 1632 H 154.232 0.64655 1.423 0
M  V30 1633 H 154.967 -1.39167 2.92922 0
M  V30 1634 H 154.752 0.0802582 3.92018 0
M  V30 1635 H 156.242 -0.897179 4.07849 0
M  V30 1636 N 156.679 -1.44442 0.630414 0
M  V30 1637 C 157.925 -2.02351 0.134816 0
M  V30 1638 C 158.258 -1.4947 -1.23986 0
M  V30 1639 O 157.533 -0.678475 -1.82283 0
M  V30 1640 C 157.816 -3.59898 0.120707 0
M  V30 1641 C 157.669 -4.23063 1.52767 0
M  V30 1642 C 158.988 -4.36585 -0.555127 0
M  V30 1643 H 156.107 -0.73527 0.0504646 0
M  V30 1644 H 158.749 -1.72022 0.806751 0
M  V30 1645 H 156.899 -3.85868 -0.451477 0
M  V30 1646 H 158.571 -4.08202 2.14869 0
M  V30 1647 H 156.814 -3.80586 2.08175 0
M  V30 1648 H 157.485 -5.32071 1.46984 0
M  V30 1649 H 159.961 -4.16044 -0.0685429 0
M  V30 1650 H 158.837 -5.46294 -0.534185 0
M  V30 1651 H 159.098 -4.11138 -1.62535 0
M  V30 1652 N 158.157 -0.370918 -1.53173 0
M  V30 1653 C 159.382 0.220293 -2.06227 0
M  V30 1654 C 159.807 1.41243 -1.24225 0
M  V30 1655 O 159.165 1.79387 -0.262645 0
M  V30 1656 C 159.213 0.586663 -3.55796 0
M  V30 1657 O 158.317 1.68317 -3.76488 0
M  V30 1658 H 157.658 0.0308099 -0.663285 0
M  V30 1659 H 160.188 -0.533068 -1.97534 0
M  V30 1660 H 160.198 0.85617 -3.98916 0
M  V30 1661 H 158.873 -0.285013 -4.14922 0
M  V30 1662 H 157.45 1.40881 -3.45264 0
M  V30 1663 N 159.635 1.57281 -0.100228 0
M  V30 1664 C 160.884 1.93713 0.561984 0
M  V30 1665 C 161.197 0.984492 1.69018 0
M  V30 1666 O 162.403 1.24273 2.41389 0
M  V30 1667 C 160.859 3.4421 1.05106 0
M  V30 1668 C 160.467 4.47975 -0.0476628 0
M  V30 1669 C 162.211 3.89595 1.68571 0
M  V30 1670 C 160.118 5.89631 0.457055 0
M  V30 1671 H 159.048 0.723082 0.2137 0
M  V30 1672 H 161.699 1.82644 -0.177057 0
M  V30 1673 H 160.081 3.50449 1.84395 0
M  V30 1674 H 161.255 4.53385 -0.823333 0
M  V30 1675 H 159.57 4.1223 -0.587816 0
M  V30 1676 H 162.167 4.92832 2.07414 0
M  V30 1677 H 162.51 3.28526 2.55688 0
M  V30 1678 H 163.043 3.86078 0.958562 0
M  V30 1679 H 159.782 6.54411 -0.377616 0
M  V30 1680 H 159.302 5.87681 1.19962 0
M  V30 1681 H 160.981 6.40363 0.92437 0
M  V30 1682 N 161.113 -0.173488 1.56642 0
M  V30 1683 C 162.361 -0.888706 1.81512 0
M  V30 1684 C 162.682 -1.82875 0.676872 0
M  V30 1685 O 161.952 -1.93536 -0.303414 0
M  V30 1686 H 160.532 -0.331164 0.669582 0
M  V30 1687 H 163.194 -0.173823 1.94123 0
M  V30 1688 H 162.29 -1.46691 2.75478 0
M  V30 1689 N 162.591 -1.51276 -0.441967 0
M  V30 1690 C 163.838 -1.63715 -1.19179 0
M  V30 1691 C 164.166 -0.351175 -1.91303 0
M  V30 1692 O 163.421 0.664524 -1.84072 0
M  V30 1693 C 163.72 -2.78746 -2.23686 0
M  V30 1694 C 163.386 -4.18189 -1.68607 0
M  V30 1695 C 162.048 -4.56125 -1.53308 0
M  V30 1696 C 164.4 -5.05222 -1.28062 0
M  V30 1697 C 161.728 -5.78804 -0.959317 0
M  V30 1698 C 164.08 -6.28476 -0.721162 0
M  V30 1699 C 162.744 -6.65188 -0.55504 0
M  V30 1700 H 162.014 -0.599076 -0.436106 0
M  V30 1701 H 164.661 -1.85296 -0.48351 0
M  V30 1702 H 162.966 -2.51369 -3.00535 0
M  V30 1703 H 164.663 -2.8557 -2.81515 0
M  V30 1704 H 161.253 -3.88277 -1.8149 0
M  V30 1705 H 165.437 -4.76524 -1.38704 0
M  V30 1706 H 160.693 -6.05899 -0.81833 0
M  V30 1707 H 164.867 -6.95259 -0.398458 0
M  V30 1708 H 162.494 -7.60123 -0.108311 0
M  V30 1709 N 164.069 0.697108 -1.41344 0
M  V30 1710 C 165.032 1.79281 -1.42797 0
M  V30 1711 C 166.032 1.57607 -0.318837 0
M  V30 1712 O 167.222 1.64309 -0.578642 0
M  V30 1713 C 164.354 3.17632 -1.23785 0
M  V30 1714 H 165.547 1.79385 -2.40335 0
M  V30 1715 H 163.1 0.904582 -1.27464 0
M  V30 1716 H 163.835 3.23167 -0.270814 0
M  V30 1717 H 163.62 3.34765 -2.04144 0
M  V30 1718 H 165.11 3.97617 -1.27633 0
M  V30 1719 N 165.547 1.27147 0.931209 0
M  V30 1720 C 166.793 1.13446 1.68101 0
M  V30 1721 C 167.126 -0.319628 1.91552 0
M  V30 1722 O 166.401 -1.23407 1.50336 0
M  V30 1723 C 166.684 1.91482 3.0497 0
M  V30 1724 C 166.537 3.44855 2.88782 0
M  V30 1725 C 167.856 1.71651 4.05246 0
M  V30 1726 H 164.975 0.413498 0.610072 0
M  V30 1727 H 167.617 1.56261 1.08086 0
M  V30 1728 H 165.767 1.55095 3.56199 0
M  V30 1729 H 167.439 3.9105 2.44698 0
M  V30 1730 H 165.682 3.71373 2.24198 0
M  V30 1731 H 166.353 3.94694 3.85902 0
M  V30 1732 H 168.829 2.0337 3.63015 0
M  V30 1733 H 167.705 2.28651 4.99009 0
M  V30 1734 H 167.966 0.663555 4.37092 0
M  V30 1735 N 167.025 -1.13721 1.09112 0
M  V30 1736 C 167.973 -2.21103 0.722219 0
M  V30 1737 C 168.967 -1.67147 -0.275374 0
M  V30 1738 O 170.173 -1.79477 -0.137176 0
M  V30 1739 H 166.548 -0.720445 0.215553 0
M  V30 1740 H 168.519 -2.49483 1.63709 0
M  V30 1741 C 167.268 -3.47352 0.15543 0
M  V30 1742 H 166.591 -3.89206 0.914246 0
M  V30 1743 H 168.031 -4.2395 -0.0647967 0
M  V30 1744 C 166.49 -3.1814 -1.10852 0
M  V30 1745 O 167.02 -3.36604 -2.19227 0
M  V30 1746 N 165.226 -2.72045 -1.02176 0
M  V30 1747 H 164.773 -2.57221 -0.139764 0
M  V30 1748 H 164.731 -2.52875 -1.8682 0
M  V30 1749 N 168.503 -0.877838 -1.30888 0
M  V30 1750 C 169.45 -0.337538 -2.28318 0
M  V30 1751 C 170.42 0.568346 -1.56074 0
M  V30 1752 O 171.605 0.498298 -1.84178 0
M  V30 1753 C 168.745 0.448142 -3.42178 0
M  V30 1754 C 167.858 -0.48615 -4.29256 0
M  V30 1755 C 166.993 0.314427 -5.30269 0
M  V30 1756 C 166.032 -0.615791 -6.08995 0
M  V30 1757 N 165.169 0.14902 -7.01942 0
M  V30 1758 H 170.009 -1.17356 -2.73919 0
M  V30 1759 H 167.546 -0.590094 -1.34745 0
M  V30 1760 H 169.504 0.919517 -4.06941 0
M  V30 1761 H 168.134 1.24879 -2.97666 0
M  V30 1762 H 167.186 -1.076 -3.64865 0
M  V30 1763 H 168.498 -1.19909 -4.84173 0
M  V30 1764 H 167.652 0.847969 -6.00745 0
M  V30 1765 H 166.391 1.06062 -4.76027 0
M  V30 1766 H 165.396 -1.16102 -5.37401 0
M  V30 1767 H 166.621 -1.36097 -6.65323 0
M  V30 1768 H 164.567 0.877884 -6.50099 0
M  V30 1769 H 164.484 -0.504433 -7.54315 0
M  V30 1770 H 165.752 0.663537 -7.76671 0
M  V30 1771 N 169.982 1.44106 -0.638065 0
M  V30 1772 C 170.929 2.30715 0.062701 0
M  V30 1773 C 171.899 1.43882 0.829883 0
M  V30 1774 O 173.084 1.72775 0.809532 0
M  V30 1775 C 170.224 3.29258 1.03358 0
M  V30 1776 C 169.337 4.31192 0.26409 0
M  V30 1777 C 168.472 5.16825 1.22741 0
M  V30 1778 C 167.511 6.10462 0.447475 0
M  V30 1779 N 166.648 6.8877 1.36161 0
M  V30 1780 H 171.488 2.90096 -0.681781 0
M  V30 1781 H 169.025 1.42925 -0.347988 0
M  V30 1782 H 170.983 3.84886 1.60992 0
M  V30 1783 H 169.613 2.71562 1.74511 0
M  V30 1784 H 168.665 3.77981 -0.428295 0
M  V30 1785 H 169.977 4.97619 -0.343052 0
M  V30 1786 H 169.131 5.77004 1.87487 0
M  V30 1787 H 167.87 4.50488 1.86847 0
M  V30 1788 H 166.875 5.49386 -0.213433 0
M  V30 1789 H 168.1 6.78837 -0.188968 0
M  V30 1790 H 166.046 6.25096 1.98975 0
M  V30 1791 H 165.963 7.51663 0.808656 0
M  V30 1792 H 167.231 7.53467 1.99769 0
M  V30 1793 N 171.46 0.379036 1.52974 0
M  V30 1794 C 172.709 -0.207612 2.00629 0
M  V30 1795 C 173.022 -1.48758 1.27006 0
M  V30 1796 O 174.228 -2.15365 1.65318 0
M  V30 1797 C 172.684 -0.42053 3.57435 0
M  V30 1798 C 172.292 0.845587 4.39948 0
M  V30 1799 C 174.036 -0.964102 4.13407 0
M  V30 1800 C 171.943 0.601513 5.88333 0
M  V30 1801 H 170.873 -0.0813591 0.749598 0
M  V30 1802 H 173.524 0.499853 1.76561 0
M  V30 1803 H 171.906 -1.18959 3.7771 0
M  V30 1804 H 173.08 1.61848 4.31442 0
M  V30 1805 H 171.395 1.31336 3.95145 0
M  V30 1806 H 173.992 -1.16225 5.21916 0
M  V30 1807 H 174.335 -1.93019 3.68849 0
M  V30 1808 H 174.868 -0.25487 3.96983 0
M  V30 1809 H 171.607 1.53831 6.37194 0
M  V30 1810 H 171.127 -0.132628 5.99653 0
M  V30 1811 H 172.806 0.232134 6.46583 0
M  V30 1812 N 172.938 -1.57226 0.108567 0
M  V30 1813 C 173.848 -2.18292 -0.859401 0
M  V30 1814 C 174.864 -1.15612 -1.30038 0
M  V30 1815 O 176.04 -1.48039 -1.36552 0
M  V30 1816 C 173.105 -2.762 -2.09558 0
M  V30 1817 C 172.166 -3.93881 -1.70752 0
M  V30 1818 C 171.399 -4.49018 -2.88477 0
M  V30 1819 O 171.622 -4.03068 -4.036 0
M  V30 1820 O 170.556 -5.39852 -2.66164 0
M  V30 1821 H 174.382 -3.01441 -0.369769 0
M  V30 1822 H 171.967 -1.48945 -0.1165 0
M  V30 1823 H 173.849 -3.13156 -2.81978 0
M  V30 1824 H 172.524 -1.96089 -2.57548 0
M  V30 1825 H 171.431 -3.61713 -0.954714 0
M  V30 1826 H 172.764 -4.75396 -1.27513 0
M  V30 1827 N 174.416 0.165178 -1.56732 0
M  V30 1828 C 175.663 0.880807 -1.8234 0
M  V30 1829 C 175.991 1.81977 -0.686621 0
M  V30 1830 O 175.246 1.92971 0.325697 0
M  V30 1831 C 175.545 1.70405 -3.1416 0
M  V30 1832 C 175.211 0.913475 -4.4155 0
M  V30 1833 C 173.873 0.695303 -4.7615 0
M  V30 1834 C 176.225 0.359349 -5.1996 0
M  V30 1835 C 173.553 -0.0879947 -5.86634 0
M  V30 1836 C 175.905 -0.410893 -6.31264 0
M  V30 1837 C 174.569 -0.639808 -6.64427 0
M  V30 1838 H 173.839 0.32231 -0.667231 0
M  V30 1839 H 176.486 0.145402 -1.90947 0
M  V30 1840 H 174.791 2.50903 -3.00923 0
M  V30 1841 H 176.488 2.26091 -3.31186 0
M  V30 1842 H 173.078 1.09357 -4.14414 0
M  V30 1843 H 177.262 0.515228 -4.93618 0
M  V30 1844 H 172.518 -0.27503 -6.10781 0
M  V30 1845 H 176.692 -0.847494 -6.91224 0
M  V30 1846 H 174.319 -1.24864 -7.49875 0
M  V30 1847 N 175.894 1.51508 0.433938 0
M  V30 1848 C 177.142 1.6402 1.18075 0
M  V30 1849 C 177.463 0.360328 1.91642 0
M  V30 1850 O 176.733 -0.623945 1.85698 0
M  V30 1851 H 175.313 0.6045 0.43885 0
M  V30 1852 H 177.975 1.88452 0.497178 0
M  V30 1853 H 177.071 2.46949 1.90847 0
M  V30 1854 N 177.372 -0.689602 1.41712 0
M  V30 1855 C 178.618 -1.45181 1.41599 0
M  V30 1856 C 178.951 -1.94181 0.0270081 0
M  V30 1857 O 178.226 -1.6993 -0.946265 0
M  V30 1858 C 178.509 -2.65945 2.42787 0
M  V30 1859 C 178.362 -2.22672 3.90816 0
M  V30 1860 C 179.681 -3.68149 2.41151 0
M  V30 1861 H 176.8 -0.526576 0.515642 0
M  V30 1862 H 179.442 -0.784947 1.73028 0
M  V30 1863 H 177.592 -3.2284 2.16116 0
M  V30 1864 H 179.264 -1.71058 4.28412 0
M  V30 1865 H 177.507 -1.54394 4.05395 0
M  V30 1866 H 178.178 -3.0935 4.57172 0
M  V30 1867 H 180.654 -3.2094 2.64834 0
M  V30 1868 H 179.53 -4.50248 3.13955 0
M  V30 1869 H 179.791 -4.18259 1.43221 0
M  V30 1870 N 178.85 -1.27639 -0.924453 0
M  V30 1871 C 180.096 -1.14336 -1.67497 0
M  V30 1872 C 180.429 0.309465 -1.91718 0
M  V30 1873 O 179.704 1.22608 -1.50989 0
M  V30 1874 C 179.987 -1.93096 -3.0395 0
M  V30 1875 C 179.84 -3.46381 -2.8695 0
M  V30 1876 C 181.159 -1.73798 -4.0433 0
M  V30 1877 H 178.278 -0.416728 -0.607871 0
M  V30 1878 H 180.92 -1.56832 -1.07256 0
M  V30 1879 H 179.07 -1.56982 -3.55372 0
M  V30 1880 H 180.742 -3.92343 -2.42621 0
M  V30 1881 H 178.985 -3.72557 -2.22225 0
M  V30 1882 H 179.656 -3.96735 -3.83804 0
M  V30 1883 H 182.132 -2.05293 -3.61931 0
M  V30 1884 H 181.008 -2.31294 -4.97789 0
M  V30 1885 H 181.269 -0.686725 -4.36734 0
M  V30 1886 N 180.328 1.1314 -1.09713 0
M  V30 1887 C 181.558 1.88048 -0.855656 0
M  V30 1888 C 181.966 1.79537 0.596919 0
M  V30 1889 O 181.309 1.16196 1.42282 0
M  V30 1890 C 181.371 3.38314 -1.21589 0
M  V30 1891 C 181.035 3.70605 -2.67397 0
M  V30 1892 C 182.032 3.69596 -3.65643 0
M  V30 1893 C 179.717 4.0017 -3.03593 0
M  V30 1894 C 181.711 3.977 -4.9811 0
M  V30 1895 C 179.398 4.27935 -4.36251 0
M  V30 1896 C 180.396 4.26685 -5.33318 0
M  V30 1897 O 180.084 4.53767 -6.63589 0
M  V30 1898 H 179.816 0.60208 -0.307368 0
M  V30 1899 H 182.37 1.44128 -1.46343 0
M  V30 1900 H 180.6 3.82752 -0.551177 0
M  V30 1901 H 182.289 3.94552 -0.953083 0
M  V30 1902 H 183.055 3.46826 -3.39023 0
M  V30 1903 H 178.934 4.00289 -2.2867 0
M  V30 1904 H 182.478 3.9664 -5.73866 0
M  V30 1905 H 178.375 4.50178 -4.62613 0
M  V30 1906 H 179.143 4.71422 -6.69107 0
M  V30 1907 N 181.806 0.884767 1.30421 0
M  V30 1908 C 183.031 0.517288 2.00845 0
M  V30 1909 C 183.456 -0.886779 1.65885 0
M  V30 1910 O 182.814 -1.58768 0.875354 0
M  V30 1911 C 182.862 0.698994 3.5376 0
M  V30 1912 O 181.966 -0.255208 4.1161 0
M  V30 1913 H 181.307 0.203872 0.631927 0
M  V30 1914 H 183.837 1.19225 1.66272 0
M  V30 1915 H 183.847 0.597912 4.03595 0
M  V30 1916 H 182.522 1.72271 3.78544 0
M  V30 1917 H 181.099 -0.10784 3.72744 0
M  V30 1918 N 183.284 -1.43765 0.645699 0
M  V30 1919 C 184.524 -2.03776 0.159542 0
M  V30 1920 C 184.888 -1.49792 -1.2011 0
M  V30 1921 O 186.089 -2.01398 -1.78023 0
M  V30 1922 C 184.36 -3.57036 0.161251 0
M  V30 1923 S 185.919 -4.3804 -0.258159 0
M  V30 1924 H 182.737 -0.707717 0.0682454 0
M  V30 1925 H 185.339 -1.75941 0.852352 0
M  V30 1926 H 184.043 -3.9383 1.15439 0
M  V30 1927 H 183.574 -3.89503 -0.552339 0
M  V30 1928 H 185.589 -4.7302 -1.49889 0
M  V30 1929 N 184.763 -0.387143 -1.52771 0
M  V30 1930 C 186.009 0.196025 -2.0185 0
M  V30 1931 C 186.342 1.46641 -1.27319 0
M  V30 1932 O 185.617 1.90889 -0.373032 0
M  V30 1933 C 185.9 0.466136 -3.5707 0
M  V30 1934 C 185.753 -0.819385 -4.42274 0
M  V30 1935 C 187.072 1.25768 -4.21747 0
M  V30 1936 H 184.191 0.0697708 -0.73369 0
M  V30 1937 H 186.833 -0.516286 -1.82851 0
M  V30 1938 H 184.983 1.07293 -3.7339 0
M  V30 1939 H 186.655 -1.4563 -4.37709 0
M  V30 1940 H 184.898 -1.43517 -4.09372 0
M  V30 1941 H 185.569 -0.585065 -5.48891 0
M  V30 1942 H 188.045 0.744167 -4.09391 0
M  V30 1943 H 186.921 1.41541 -5.30337 0
M  V30 1944 H 187.182 2.27228 -3.79236 0
M  V30 1945 N 186.241 1.57166 -0.116904 0
M  V30 1946 C 187.151 2.18745 0.847812 0
M  V30 1947 C 188.167 1.163 1.29423 0
M  V30 1948 O 189.343 1.48761 1.35765 0
M  V30 1949 C 186.408 2.77307 2.0809 0
M  V30 1950 C 185.469 3.94781 1.68661 0
M  V30 1951 C 184.702 4.50541 2.86091 0
M  V30 1952 O 184.925 4.05202 4.01456 0
M  V30 1953 O 183.859 5.41256 2.63298 0
M  V30 1954 H 187.685 3.01632 0.353778 0
M  V30 1955 H 185.27 1.49005 0.108599 0
M  V30 1956 H 187.152 3.14647 2.80313 0
M  V30 1957 H 185.827 1.97452 2.56504 0
M  V30 1958 H 184.734 3.62214 0.935518 0
M  V30 1959 H 186.067 4.76065 1.24991 0
M  V30 1960 N 187.719 -0.156864 1.56817 0
M  V30 1961 C 188.967 -0.869404 1.82444 0
M  V30 1962 C 189.288 -1.82147 0.69623 0
M  V30 1963 O 188.558 -1.93847 -0.28287 0
M  V30 1964 H 187.138 -0.324043 0.673056 0
M  V30 1965 H 189.8 -0.153224 1.94297 0
M  V30 1966 H 188.896 -1.43761 2.77019 0
M  V30 1967 N 189.197 -1.51736 -0.425897 0
M  V30 1968 C 190.144 -1.73875 -1.51776 0
M  V30 1969 C 191.114 -0.580702 -1.55618 0
M  V30 1970 O 192.299 -0.81641 -1.72451 0
M  V30 1971 C 189.439 -1.88012 -2.89388 0
M  V30 1972 C 188.552 -3.15606 -2.94986 0
M  V30 1973 C 187.687 -3.20271 -4.23793 0
M  V30 1974 C 186.726 -4.42134 -4.23302 0
M  V30 1975 N 185.863 -4.44284 -5.43651 0
M  V30 1976 H 190.703 -2.67071 -1.32201 0
M  V30 1977 H 188.24 -1.32351 -0.642008 0
M  V30 1978 H 190.198 -1.9419 -3.69251 0
M  V30 1979 H 188.828 -0.98213 -3.07496 0
M  V30 1980 H 187.88 -3.18681 -2.07717 0
M  V30 1981 H 189.192 -4.05486 -2.90486 0
M  V30 1982 H 188.346 -3.25428 -5.12036 0
M  V30 1983 H 187.085 -2.28299 -4.30965 0
M  V30 1984 H 186.09 -4.3714 -3.3345 0
M  V30 1985 H 187.315 -5.35382 -4.17783 0
M  V30 1986 H 185.261 -3.55188 -5.51523 0
M  V30 1987 H 185.178 -5.27988 -5.41078 0
M  V30 1988 H 186.446 -4.53649 -6.33895 0
M  V30 1989 N 190.675 0.682077 -1.42076 0
M  V30 1990 C 191.608 1.80666 -1.3941 0
M  V30 1991 C 192.586 1.60518 -0.25939 0
M  V30 1992 O 193.77 1.83088 -0.448456 0
M  V30 1993 C 190.897 3.17556 -1.17796 0
M  V30 1994 C 189.943 3.56468 -2.34164 0
M  V30 1995 S 190.776 3.59729 -3.96681 0
M  V30 1996 C 191.932 4.99323 -3.77395 0
M  V30 1997 H 192.165 1.82652 -2.34575 0
M  V30 1998 H 189.698 0.852062 -1.2876 0
M  V30 1999 H 191.656 3.96575 -1.06012 0
M  V30 2000 H 190.317 3.13164 -0.242279 0
M  V30 2001 H 189.51 4.5595 -2.1477 0
M  V30 2002 H 189.112 2.84792 -2.42425 0
M  V30 2003 H 191.404 5.87202 -3.37935 0
M  V30 2004 H 192.347 5.23763 -4.76527 0
M  V30 2005 H 192.755 4.71498 -3.10403 0
M  V30 2006 N 192.153 1.28127 0.917671 0
M  V30 2007 C 193.383 1.17722 1.6978 0
M  V30 2008 C 193.791 -0.267261 1.87303 0
M  V30 2009 O 193.134 -1.19286 1.39702 0
M  V30 2010 C 193.196 1.79958 3.11216 0
M  V30 2011 C 192.86 3.29187 3.16993 0
M  V30 2012 C 193.857 4.25679 2.98485 0
M  V30 2013 C 191.542 3.70075 3.39632 0
M  V30 2014 C 193.536 5.61035 3.02521 0
M  V30 2015 C 191.223 5.05557 3.433 0
M  V30 2016 C 192.221 6.00847 3.24764 0
M  V30 2017 O 191.909 7.33859 3.28187 0
M  V30 2018 H 191.641 0.409788 0.537634 0
M  V30 2019 H 194.195 1.69694 1.15728 0
M  V30 2020 H 192.425 1.22475 3.66793 0
M  V30 2021 H 194.114 1.64125 3.71238 0
M  V30 2022 H 194.88 3.95426 2.80826 0
M  V30 2023 H 190.759 2.96373 3.53106 0
M  V30 2024 H 194.303 6.35388 2.87971 0
M  V30 2025 H 190.2 5.35462 3.60486 0
M  V30 2026 H 190.968 7.42436 3.44575 0
M  V30 2027 N 193.631 -1.12557 1.10312 0
M  V30 2028 C 194.859 -1.87864 0.866873 0
M  V30 2029 C 195.274 -1.79588 -0.582557 0
M  V30 2030 O 194.631 -1.16887 -1.40156 0
M  V30 2031 C 194.682 -3.37125 1.30496 0
M  V30 2032 O 194.403 -3.45201 2.69755 0
M  V30 2033 C 195.904 -4.29373 1.10243 0
M  V30 2034 H 193.124 -0.594452 0.311236 0
M  V30 2035 H 195.668 -1.42429 1.46745 0
M  V30 2036 H 193.823 -3.80109 0.748081 0
M  V30 2037 H 194.237 -4.38056 2.88457 0
M  V30 2038 H 195.711 -5.32394 1.45811 0
M  V30 2039 H 196.188 -4.39181 0.0409492 0
M  V30 2040 H 196.794 -3.92169 1.64571 0
M  V30 2041 N 195.109 -0.891671 -1.2995 0
M  V30 2042 C 196.072 -0.36828 -2.26222 0
M  V30 2043 C 197.072 0.493014 -1.53056 0
M  V30 2044 O 198.262 0.299213 -1.71611 0
M  V30 2045 C 195.394 0.47442 -3.37583 0
M  V30 2046 H 196.587 -1.21844 -2.74033 0
M  V30 2047 H 194.14 -0.669107 -1.41254 0
M  V30 2048 H 194.875 1.34489 -2.95099 0
M  V30 2049 H 194.66 -0.142615 -3.91841 0
M  V30 2050 H 196.15 0.83218 -4.09224 0
M  V30 2051 N 196.587 1.43421 -0.653314 0
M  V30 2052 C 198.003 1.56341 -0.320886 0
M  V30 2053 C 198.203 1.63696 1.17499 0
M  V30 2054 O 197.259 1.59208 1.95982 0
M  V30 2055 C 198.572 2.82424 -1.03233 0
M  V30 2056 C 200.12 2.96168 -1.01259 0
M  V30 2057 C 200.595 4.25084 -1.70492 0
M  V30 2058 N 202.086 4.31948 -1.67257 0
M  V30 2059 C 202.821 5.30466 -2.17701 0
M  V30 2060 N 202.317 6.35261 -2.76434 0
M  V30 2061 N 204.11 5.2212 -2.082 0
M  V30 2062 H 196.261 1.3689 -1.62403 0
M  V30 2063 H 198.524 0.657455 -0.682977 0
M  V30 2064 H 198.23 2.83053 -2.08744 0
M  V30 2065 H 198.104 3.72653 -0.583948 0
M  V30 2066 H 200.491 2.9508 0.0341235 0
M  V30 2067 H 200.572 2.07229 -1.49966 0
M  V30 2068 H 200.216 4.26932 -2.7512 0
M  V30 2069 H 200.146 5.1292 -1.19251 0
M  V30 2070 H 202.637 3.56838 -1.24398 0
M  V30 2071 H 202.95 7.06754 -3.12601 0
M  V30 2072 H 201.295 6.35884 -2.80495 0
M  V30 2073 H 204.486 4.39166 -1.62021 0
M  V30 2074 H 204.659 5.98739 -2.47822 0
M  V30 2075 N 198.065 0.39524 1.52563 0
M  V30 2076 C 199.012 -0.437036 2.26624 0
M  V30 2077 C 199.982 -1.05281 1.28472 0
M  V30 2078 O 201.167 -1.07971 1.57311 0
M  V30 2079 C 198.307 -1.55524 3.08069 0
M  V30 2080 C 197.42 -0.961745 4.21158 0
M  V30 2081 C 196.555 -2.05149 4.89987 0
M  V30 2082 C 195.594 -1.4342 5.95061 0
M  V30 2083 N 194.731 -2.46351 6.57462 0
M  V30 2084 H 199.571 0.200976 2.97322 0
M  V30 2085 H 197.108 0.110944 1.46681 0
M  V30 2086 H 199.066 -2.21437 3.53584 0
M  V30 2087 H 197.696 -2.16348 2.3957 0
M  V30 2088 H 196.748 -0.192048 3.79915 0
M  V30 2089 H 198.06 -0.470701 4.96574 0
M  V30 2090 H 197.214 -2.78819 5.38837 0
M  V30 2091 H 195.953 -2.57615 4.14109 0
M  V30 2092 H 194.958 -0.682774 5.45544 0
M  V30 2093 H 196.183 -0.917416 6.72875 0
M  V30 2094 H 194.129 -2.97975 5.8442 0
M  V30 2095 H 194.046 -2.02019 7.28508 0
M  V30 2096 H 195.314 -3.19633 7.10954 0
M  V30 2097 N 199.544 -1.57102 0.125237 0
M  V30 2098 C 200.792 -1.95021 -0.530198 0
M  V30 2099 C 201.113 -1.00982 -1.66816 0
M  V30 2100 O 200.383 -0.0672693 -1.95784 0
M  V30 2101 H 198.963 -0.720046 -0.198853 0
M  V30 2102 H 201.625 -1.93916 0.19564 0
M  V30 2103 H 200.721 -2.98211 -0.920681 0
M  V30 2104 N 201.022 0.148545 -1.56898 0
M  V30 2105 C 201.969 1.18345 -1.98149 0
M  V30 2106 C 202.939 1.42772 -0.848848 0
M  V30 2107 O 204.124 1.55132 -1.11079 0
M  V30 2108 C 201.264 2.51231 -2.36594 0
M  V30 2109 C 200.377 2.33991 -3.63142 0
M  V30 2110 C 199.512 3.59902 -3.90697 0
M  V30 2111 C 198.551 3.37692 -5.1052 0
M  V30 2112 N 197.688 4.5573 -5.34092 0
M  V30 2113 H 202.528 0.82467 -2.86362 0
M  V30 2114 H 200.065 0.395756 -1.41676 0
M  V30 2115 H 202.023 3.28713 -2.56912 0
M  V30 2116 H 200.653 2.85059 -1.51463 0
M  V30 2117 H 199.705 1.47572 -3.50609 0
M  V30 2118 H 201.017 2.13539 -4.5078 0
M  V30 2119 H 200.171 4.45813 -4.11505 0
M  V30 2120 H 198.91 3.83357 -3.01477 0
M  V30 2121 H 197.915 2.5017 -4.89587 0
M  V30 2122 H 199.14 3.15637 -6.0129 0
M  V30 2123 H 197.086 4.79361 -4.47827 0
M  V30 2124 H 197.003 4.38274 -6.15996 0
M  V30 2125 H 198.271 5.42858 -5.59397 0
M  V30 2126 N 202.5 1.5196 0.417844 0
M  V30 2127 C 203.748 1.65263 1.16329 0
M  V30 2128 C 204.069 0.380634 1.91249 0
M  V30 2129 O 203.339 -0.604214 1.86349 0
M  V30 2130 H 201.919 0.60912 0.432414 0
M  V30 2131 H 204.581 1.88969 0.477162 0
M  V30 2132 H 203.677 2.4896 1.88217 0
M  V30 2133 N 203.978 -0.674533 1.42435 0
M  V30 2134 C 204.941 -1.76986 1.45632 0
M  V30 2135 C 205.941 -1.5708 0.343871 0
M  V30 2136 O 207.131 -1.63367 0.604709 0
M  V30 2137 C 204.263 -3.15623 1.28822 0
M  V30 2138 H 205.456 -1.75539 2.43158 0
M  V30 2139 H 203.009 -0.884189 1.28887 0
M  V30 2140 H 203.744 -3.22696 0.322193 0
M  V30 2141 H 203.529 -3.31475 2.09444 0
M  V30 2142 H 205.019 -3.95537 1.33942 0
M  V30 2143 N 205.456 -1.28612 -0.910864 0
M  V30 2144 C 206.703 -1.15934 -1.66029 0
M  V30 2145 C 207.031 0.291483 -1.92303 0
M  V30 2146 O 206.286 1.22816 -1.52364 0
M  V30 2147 C 206.585 -1.90624 -3.0232 0
M  V30 2148 C 206.251 -3.40405 -2.95695 0
M  V30 2149 C 204.913 -3.81255 -2.93595 0
M  V30 2150 C 207.265 -4.359 -2.85728 0
M  V30 2151 C 204.593 -5.15936 -2.79334 0
M  V30 2152 C 206.945 -5.70657 -2.73007 0
M  V30 2153 C 205.609 -6.10779 -2.69267 0
M  V30 2154 H 204.879 -0.424234 -0.607541 0
M  V30 2155 H 207.526 -1.5942 -1.06101 0
M  V30 2156 H 205.831 -1.39696 -3.6605 0
M  V30 2157 H 207.528 -1.78228 -3.59215 0
M  V30 2158 H 204.118 -3.07927 -2.98125 0
M  V30 2159 H 208.302 -4.053 -2.86436 0
M  V30 2160 H 203.558 -5.46146 -2.74835 0
M  V30 2161 H 207.732 -6.44311 -2.64264 0
M  V30 2162 H 205.359 -7.1509 -2.57974 0
M  V30 2163 N 206.934 1.1197 -1.10907 0
M  V30 2164 C 208.174 1.85224 -0.864378 0
M  V30 2165 C 208.538 1.82411 0.599178 0
M  V30 2166 O 209.739 2.51057 0.960416 0
M  V30 2167 C 208.01 3.2868 -1.40371 0
M  V30 2168 S 209.569 4.1925 -1.29518 0
M  V30 2169 H 206.387 0.63878 -0.312219 0
M  V30 2170 H 208.989 1.3485 -1.41548 0
M  V30 2171 H 207.693 3.28289 -2.46281 0
M  V30 2172 H 207.224 3.84121 -0.849402 0
M  V30 2173 H 209.239 4.95539 -0.256059 0
M  V30 2174 N 208.412 0.89855 1.29475 0
M  V30 2175 C 209.36 0.365253 2.29714 0
M  V30 2176 C 210.354 -0.534993 1.6073 0
M  V30 2177 O 211.56 -0.417921 1.75081 0
M  V30 2178 H 207.935 0.0994853 0.74539 0
M  V30 2179 H 209.906 1.22406 2.72138 0
M  V30 2180 C 208.655 -0.393159 3.4547 0
M  V30 2181 H 207.978 0.290332 3.98744 0
M  V30 2182 H 209.418 -0.731189 4.17648 0
M  V30 2183 C 207.877 -1.59539 2.9673 0
M  V30 2184 O 208.407 -2.69469 2.97908 0
M  V30 2185 N 206.613 -1.43716 2.52575 0
M  V30 2186 H 206.16 -0.542828 2.51816 0
M  V30 2187 H 206.118 -2.24288 2.20323 0
M  V30 2188 N 209.89 -1.43072 0.660911 0
M  V30 2189 C 211.138 -2.01323 0.177094 0
M  V30 2190 C 211.459 -1.5245 -1.2159 0
M  V30 2191 O 210.729 -0.740322 -1.81373 0
M  V30 2192 H 209.309 -0.744382 0.0624804 0
M  V30 2193 H 211.971 -1.75179 0.854305 0
M  V30 2194 H 211.067 -3.11649 0.167641 0
M  V30 2195 N 211.368 -0.403325 -1.52352 0
M  V30 2196 C 212.3 0.4603 -2.2453 0
M  V30 2197 C 213.313 1.01505 -1.27282 0
M  V30 2198 O 214.502 0.914982 -1.53266 0
M  V30 2199 C 211.602 1.65208 -2.95905 0
M  V30 2200 C 210.775 1.22224 -4.19976 0
M  V30 2201 C 209.834 2.28028 -4.74226 0
M  V30 2202 O 208.86 1.88857 -5.36956 0
M  V30 2203 N 210.062 3.6012 -4.55295 0
M  V30 2204 H 212.827 -0.158156 -2.99282 0
M  V30 2205 H 210.388 -0.230402 -1.60252 0
M  V30 2206 H 212.38 2.35541 -3.29093 0
M  V30 2207 H 210.95 2.17658 -2.24374 0
M  V30 2208 H 210.17 0.34725 -3.92668 0
M  V30 2209 H 211.458 0.911924 -5.00561 0
M  V30 2210 H 210.856 3.94698 -4.05253 0
M  V30 2211 H 209.413 4.26447 -4.92936 0
M  V30 2212 N 212.846 1.57033 -0.133567 0
M  V30 2213 C 213.793 2.16074 0.811208 0
M  V30 2214 C 214.763 1.08979 1.2535 0
M  V30 2215 O 215.948 1.36958 1.32843 0
M  V30 2216 C 213.088 2.77595 2.05024 0
M  V30 2217 C 212.201 3.99042 1.65498 0
M  V30 2218 C 211.336 4.48603 2.84479 0
M  V30 2219 C 210.375 5.62547 2.41262 0
M  V30 2220 N 209.512 6.06787 3.53206 0
M  V30 2221 H 214.352 2.96477 0.300906 0
M  V30 2222 H 211.889 1.46462 0.136822 0
M  V30 2223 H 213.847 3.11402 2.77642 0
M  V30 2224 H 212.477 1.99859 2.53488 0
M  V30 2225 H 211.529 3.71302 0.826981 0
M  V30 2226 H 212.841 4.81629 1.29748 0
M  V30 2227 H 211.995 4.84395 3.65303 0
M  V30 2228 H 210.734 3.64995 3.23465 0
M  V30 2229 H 209.739 5.26345 1.58874 0
M  V30 2230 H 210.964 6.47931 2.03377 0
M  V30 2231 H 208.91 5.26117 3.91838 0
M  V30 2232 H 208.827 6.84266 3.21427 0
M  V30 2233 H 210.095 6.4722 4.34427 0
M  V30 2234 N 214.325 -0.140222 1.56975 0
M  V30 2235 C 215.255 -1.17456 2.01808 0
M  V30 2236 C 216.236 -1.44415 0.898794 0
M  V30 2237 O 217.421 -1.5522 1.16707 0
M  V30 2238 C 214.551 -2.50607 2.40444 0
M  V30 2239 C 213.505 -2.38155 3.55621 0
M  V30 2240 C 212.831 -3.76078 3.80091 0
M  V30 2241 C 214.131 -1.85991 4.88062 0
M  V30 2242 H 215.825 -0.801743 2.88466 0
M  V30 2243 H 213.371 -0.38422 1.38779 0
M  V30 2244 H 215.324 -3.23197 2.7041 0
M  V30 2245 H 214.048 -2.89737 1.50732 0
M  V30 2246 H 212.707 -1.68016 3.25832 0
M  V30 2247 H 212.355 -4.12656 2.87618 0
M  V30 2248 H 212.055 -3.68606 4.57606 0
M  V30 2249 H 213.579 -4.50206 4.12488 0
M  V30 2250 H 214.993 -2.4838 5.16701 0
M  V30 2251 H 213.39 -1.89393 5.6943 0
M  V30 2252 H 214.46 -0.816023 4.77984 0
M  V30 2253 N 215.803 -1.52179 -0.40978 0
M  V30 2254 C 216.735 -1.71703 -1.51825 0
M  V30 2255 C 217.748 -0.597445 -1.51441 0
M  V30 2256 O 218.937 -0.872582 -1.55719 0
M  V30 2257 C 216.037 -1.74171 -2.90719 0
M  V30 2258 C 215.21 -3.03156 -3.15302 0
M  V30 2259 C 214.269 -2.97445 -4.34065 0
M  V30 2260 O 213.295 -3.71352 -4.31377 0
M  V30 2261 N 214.497 -2.15191 -5.39141 0
M  V30 2262 H 217.262 -2.67334 -1.35472 0
M  V30 2263 H 214.823 -1.50409 -0.599069 0
M  V30 2264 H 216.815 -1.67884 -3.68235 0
M  V30 2265 H 215.385 -0.860166 -3.00533 0
M  V30 2266 H 214.605 -3.23097 -2.25836 0
M  V30 2267 H 215.893 -3.88484 -3.28569 0
M  V30 2268 H 215.291 -1.54573 -5.44173 0
M  V30 2269 H 213.848 -2.1476 -6.15403 0
M  V30 2270 N 217.281 0.66697 -1.42791 0
M  V30 2271 C 218.527 1.4291 -1.43891 0
M  V30 2272 C 218.86 1.94114 -0.0578972 0
M  V30 2273 O 218.135 1.71414 0.91911 0
M  V30 2274 C 218.418 2.62049 -2.46987 0
M  V30 2275 C 218.271 2.16426 -3.94309 0
M  V30 2276 C 219.59 3.64266 -2.46978 0
M  V30 2277 H 216.709 0.518306 -0.523954 0
M  V30 2278 H 219.351 0.757321 -1.74255 0
M  V30 2279 H 217.501 3.19361 -2.21225 0
M  V30 2280 H 219.173 1.64221 -4.31079 0
M  V30 2281 H 217.416 1.47925 -4.078 0
M  V30 2282 H 218.087 3.02038 -4.62036 0
M  V30 2283 H 220.563 3.16686 -2.69906 0
M  V30 2284 H 219.439 4.45196 -3.21079 0
M  V30 2285 H 219.7 4.15927 -1.49857 0
M  V30 2286 N 218.759 1.29093 0.90403 0
M  V30 2287 C 219.984 1.19809 1.69294 0
M  V30 2288 C 220.409 -0.238481 1.86582 0
M  V30 2289 O 219.767 -1.1723 1.383 0
M  V30 2290 C 219.815 1.91202 3.05736 0
M  V30 2291 O 218.919 1.22611 3.93752 0
M  V30 2292 H 218.26 0.415385 0.518027 0
M  V30 2293 H 220.79 1.70586 1.12967 0
M  V30 2294 H 220.8 1.99487 3.55906 0
M  V30 2295 H 219.475 2.95692 2.92471 0
M  V30 2296 H 218.052 1.22554 3.52186 0
M  V30 2297 N 220.237 -1.11381 1.11499 0
M  V30 2298 C 221.169 -2.17207 0.731704 0
M  V30 2299 C 222.182 -1.61066 -0.236957 0
M  V30 2300 O 223.371 -1.78489 -0.0197591 0
M  V30 2301 C 220.471 -3.38846 0.0607624 0
M  V30 2302 C 219.644 -4.24451 1.0564 0
M  V30 2303 C 218.703 -5.24562 0.4149 0
M  V30 2304 O 217.729 -5.59071 1.069 0
M  V30 2305 N 218.931 -5.74651 -0.821943 0
M  V30 2306 H 221.696 -2.50699 1.64225 0
M  V30 2307 H 219.257 -1.26908 1.00529 0
M  V30 2308 H 221.249 -4.02911 -0.380139 0
M  V30 2309 H 219.819 -3.03411 -0.752376 0
M  V30 2310 H 219.039 -3.56833 1.67524 0
M  V30 2311 H 220.327 -4.78486 1.72998 0
M  V30 2312 H 219.725 -5.48797 -1.37252 0
M  V30 2313 H 218.282 -6.40549 -1.20582 0
M  V30 2314 N 221.715 -0.905404 -1.28997 0
M  V30 2315 C 222.647 -0.344748 -2.26592 0
M  V30 2316 C 223.66 0.512135 -1.54535 0
M  V30 2317 O 224.849 0.328368 -1.75454 0
M  V30 2318 C 221.949 0.526587 -3.34784 0
M  V30 2319 C 221.122 -0.305871 -4.36329 0
M  V30 2320 C 220.181 0.499209 -5.23827 0
M  V30 2321 O 219.207 -0.0853004 -5.69136 0
M  V30 2322 N 220.409 1.80408 -5.51755 0
M  V30 2323 H 223.174 -1.18359 -2.75338 0
M  V30 2324 H 220.735 -0.770481 -1.42391 0
M  V30 2325 H 222.727 1.07171 -3.90252 0
M  V30 2326 H 221.297 1.26613 -2.85811 0
M  V30 2327 H 220.517 -1.0324 -3.80441 0
M  V30 2328 H 221.805 -0.875773 -5.01206 0
M  V30 2329 H 221.203 2.3016 -5.16762 0
M  V30 2330 H 219.76 2.29621 -6.10014 0
M  V30 2331 N 223.193 1.4272 -0.668489 0
M  V30 2332 C 224.103 2.34596 0.0139753 0
M  V30 2333 C 225.119 1.5474 0.795703 0
M  V30 2334 O 226.295 1.87334 0.739466 0
M  V30 2335 C 223.36 3.33202 0.957982 0
M  V30 2336 C 222.421 4.28957 0.17149 0
M  V30 2337 C 221.654 5.22853 1.07053 0
M  V30 2338 O 221.877 5.21531 2.31001 0
M  V30 2339 O 220.811 5.9952 0.534727 0
M  V30 2340 H 224.637 2.9448 -0.742661 0
M  V30 2341 H 222.222 1.43117 -0.428705 0
M  V30 2342 H 224.104 3.93796 1.50008 0
M  V30 2343 H 222.779 2.758 1.69458 0
M  V30 2344 H 221.686 3.71796 -0.414558 0
M  V30 2345 H 223.019 4.89383 -0.52586 0
M  V30 2346 N 224.671 0.411399 1.52136 0
M  V30 2347 C 225.948 -0.222308 1.94333 0
M  V30 2348 C 226.328 -1.6242 1.34844 0
M  V30 2349 O 225.676 -2.22384 0.525145 0
M  V30 2350 C 225.886 -0.226345 3.48265 0
M  V30 2351 C 227.234 -0.444592 4.22266 0
M  V30 2352 O 228.258 -0.305602 3.54887 0
M  V30 2353 O 227.117 -0.718749 5.41753 0
M  V30 2354 H 224.211 -0.143907 0.814383 0
M  V30 2355 H 226.757 0.467506 1.63133 0
M  V30 2356 H 225.529 0.75475 3.83952 0
M  V30 2357 H 225.152 -0.960163 3.85832 0
M  V30 2358 N 226.149 -1.5696 0.141893 0
M  V30 2359 C 227.398 -1.95135 -0.510427 0
M  V30 2360 C 227.711 -1.02896 -1.66348 0
M  V30 2361 O 228.917 -1.30629 -2.38009 0
M  V30 2362 C 227.373 -3.46876 -0.959427 0
M  V30 2363 C 226.981 -4.47691 0.166419 0
M  V30 2364 C 228.725 -3.93927 -1.58183 0
M  V30 2365 C 226.632 -5.90636 -0.300565 0
M  V30 2366 H 225.562 -0.728494 -0.194454 0
M  V30 2367 H 228.213 -1.8211 0.22542 0
M  V30 2368 H 226.595 -3.55215 -1.75038 0
M  V30 2369 H 227.769 -4.51043 0.94325 0
M  V30 2370 H 226.084 -4.10527 0.696905 0
M  V30 2371 H 228.681 -4.98158 -1.94275 0
M  V30 2372 H 229.024 -3.3519 -2.46888 0
M  V30 2373 H 229.557 -3.88484 -0.855863 0
M  V30 2374 H 226.296 -6.5318 0.550989 0
M  V30 2375 H 225.816 -5.90655 -1.04338 0
M  V30 2376 H 227.495 -6.42588 -0.754265 0
M  V30 2377 N 227.627 0.131896 -1.57047 0
M  V30 2378 C 228.855 0.856461 -1.88341 0
M  V30 2379 C 229.27 1.74042 -0.731757 0
M  V30 2380 O 228.627 1.80051 0.297945 0
M  V30 2381 C 228.678 1.70064 -3.18999 0
M  V30 2382 O 228.399 0.852278 -4.2973 0
M  V30 2383 C 229.9 2.53148 -3.63911 0
M  V30 2384 H 227.12 0.246885 -0.62393 0
M  V30 2385 H 229.664 0.120152 -2.04147 0
M  V30 2386 H 227.819 2.38984 -3.04902 0
M  V30 2387 H 228.233 1.43329 -5.04537 0
M  V30 2388 H 229.707 3.07931 -4.58129 0
M  V30 2389 H 230.184 3.29901 -2.89935 0
M  V30 2390 H 230.79 1.89492 -3.80753 0
M  V30 2391 N 229.106 1.52395 0.401703 0
M  V30 2392 C 230.053 1.76268 1.48991 0
M  V30 2393 C 231.023 0.605386 1.54675 0
M  V30 2394 O 232.208 0.843742 1.7113 0
M  V30 2395 C 229.348 1.92592 2.86361 0
M  V30 2396 C 228.461 3.20259 2.89928 0
M  V30 2397 C 227.596 3.26972 4.18644 0
M  V30 2398 C 226.635 4.48812 4.16214 0
M  V30 2399 N 225.772 4.52877 5.36514 0
M  V30 2400 H 230.612 2.6914 1.27935 0
M  V30 2401 H 228.149 1.33355 0.620871 0
M  V30 2402 H 230.107 2.0004 3.66115 0
M  V30 2403 H 228.737 1.03093 3.05895 0
M  V30 2404 H 227.789 3.21945 2.02621 0
M  V30 2405 H 229.101 4.10056 2.83999 0
M  V30 2406 H 228.255 3.33533 5.06794 0
M  V30 2407 H 226.994 2.35126 4.27278 0
M  V30 2408 H 225.999 4.4239 3.26453 0
M  V30 2409 H 227.224 5.41961 4.09213 0
M  V30 2410 H 225.17 3.63917 5.45802 0
M  V30 2411 H 225.087 5.36529 5.32609 0
M  V30 2412 H 226.355 4.63676 6.26597 0
M  V30 2413 N 230.584 -0.659388 1.43143 0
M  V30 2414 C 231.809 -1.45221 1.48073 0
M  V30 2415 C 232.234 -1.87845 0.097995 0
M  V30 2416 O 231.592 -1.56985 -0.90694 0
M  V30 2417 C 231.64 -2.66748 2.42647 0
M  V30 2418 O 230.744 -3.65583 1.90848 0
M  V30 2419 H 230.085 -0.435669 0.501088 0
M  V30 2420 H 232.615 -0.807432 1.87994 0
M  V30 2421 H 232.625 -3.14637 2.59745 0
M  V30 2422 H 231.3 -2.35067 3.43098 0
M  V30 2423 H 229.877 -3.24693 1.83381 0
M  V30 2424 N 232.062 -1.29571 -0.897171 0
M  V30 2425 C 232.992 -1.17473 -2.01798 0
M  V30 2426 C 233.973 -0.068323 -1.69963 0
M  V30 2427 O 235.158 -0.248239 -1.92607 0
M  V30 2428 C 232.288 -0.853099 -3.36659 0
M  V30 2429 C 231.242 -1.9161 -3.82713 0
M  V30 2430 C 230.568 -1.44773 -5.14728 0
M  V30 2431 C 231.868 -3.32535 -4.02763 0
M  V30 2432 H 233.562 -2.11237 -2.12177 0
M  V30 2433 H 231.108 -1.01699 -1.01948 0
M  V30 2434 H 233.061 -0.755165 -4.14578 0
M  V30 2435 H 231.785 0.120236 -3.26379 0
M  V30 2436 H 230.444 -2.00346 -3.07013 0
M  V30 2437 H 230.092 -0.462995 -5.00865 0
M  V30 2438 H 229.792 -2.15865 -5.46513 0
M  V30 2439 H 231.316 -1.36334 -5.95185 0
M  V30 2440 H 232.73 -3.26626 -4.71156 0
M  V30 2441 H 231.127 -4.01607 -4.45905 0
M  V30 2442 H 232.197 -3.75326 -3.07016 0
M  V30 2443 N 233.54 1.10788 -1.12088 0
M  V30 2444 C 234.47 2.19083 -0.807755 0
M  V30 2445 C 235.451 1.6858 0.226859 0
M  V30 2446 O 236.636 1.93997 0.0888475 0
M  V30 2447 C 233.766 3.46344 -0.257576 0
M  V30 2448 C 232.72 4.101 -1.22483 0
M  V30 2449 C 232.046 5.32016 -0.535052 0
M  V30 2450 C 233.346 4.54236 -2.57811 0
M  V30 2451 H 235.04 2.45534 -1.71328 0
M  V30 2452 H 232.586 1.1801 -0.825205 0
M  V30 2453 H 234.539 4.21392 -0.0262679 0
M  V30 2454 H 233.263 3.19373 0.683278 0
M  V30 2455 H 231.922 3.37054 -1.44189 0
M  V30 2456 H 231.57 5.01319 0.410827 0
M  V30 2457 H 231.27 5.75625 -1.18024 0
M  V30 2458 H 232.794 6.09799 -0.312695 0
M  V30 2459 H 234.208 5.20575 -2.40155 0
M  V30 2460 H 232.605 5.08682 -3.18375 0
M  V30 2461 H 233.675 3.6734 -3.16528 0
M  V30 2462 N 235.018 0.912232 1.28515 0
M  V30 2463 C 236.264 0.545405 1.95328 0
M  V30 2464 C 236.597 -0.908313 1.71649 0
M  V30 2465 O 235.872 -1.64575 1.03659 0
M  V30 2466 C 236.155 0.853483 3.4984 0
M  V30 2467 C 236.008 2.35982 3.82926 0
M  V30 2468 C 237.327 0.348589 4.38717 0
M  V30 2469 H 234.446 0.199626 0.709449 0
M  V30 2470 H 237.088 1.1412 1.5191 0
M  V30 2471 H 235.238 0.34643 3.86952 0
M  V30 2472 H 236.91 2.93738 3.55691 0
M  V30 2473 H 235.153 2.81543 3.30024 0
M  V30 2474 H 235.824 2.52593 4.90816 0
M  V30 2475 H 238.3 0.78294 4.08668 0
M  V30 2476 H 237.176 0.593242 5.45685 0
M  V30 2477 H 237.437 -0.751049 4.35674 0
M  V30 2478 N 236.496 -1.42363 0.676048 0
M  V30 2479 C 237.724 -2.05859 0.207268 0
M  V30 2480 C 238.139 -1.50796 -1.13605 0
M  V30 2481 O 237.496 -0.648265 -1.70598 0
M  V30 2482 C 237.547 -3.61248 0.134975 0
M  V30 2483 O 237.268 -4.1427 1.42521 0
M  V30 2484 C 238.769 -4.41859 -0.357151 0
M  V30 2485 H 235.989 -0.663431 0.100503 0
M  V30 2486 H 238.533 -1.82479 0.923136 0
M  V30 2487 H 236.688 -3.83735 -0.531588 0
M  V30 2488 H 237.102 -5.0815 1.29939 0
M  V30 2489 H 238.576 -5.50847 -0.356641 0
M  V30 2490 H 239.053 -4.16536 -1.39264 0
M  V30 2491 H 239.659 -4.24392 0.27772 0
M  V30 2492 N 237.974 -0.419461 -1.51915 0
M  V30 2493 C 238.884 0.407528 -2.31033 0
M  V30 2494 C 239.9 1.04413 -1.3919 0
M  V30 2495 O 241.076 1.0434 -1.72265 0
M  V30 2496 C 238.141 1.50365 -3.12396 0
M  V30 2497 C 237.202 0.889029 -4.19994 0
M  V30 2498 C 236.435 1.93291 -4.97468 0
M  V30 2499 O 236.658 3.15259 -4.75361 0
M  V30 2500 O 235.592 1.53339 -5.8204 0
M  V30 2501 H 239.418 -0.237865 -3.02767 0
M  V30 2502 H 237.003 -0.182413 -1.48282 0
M  V30 2503 H 238.885 2.13975 -3.63032 0
M  V30 2504 H 237.56 2.13345 -2.43445 0
M  V30 2505 H 236.467 0.215353 -3.7348 0
M  V30 2506 H 237.8 0.302991 -4.91267 0
M  V30 2507 N 239.452 1.56882 -0.150215 0
M  V30 2508 C 240.382 2.19935 0.784284 0
M  V30 2509 C 241.363 1.14854 1.25469 0
M  V30 2510 O 242.548 1.43209 1.31168 0
M  V30 2511 C 239.678 2.82349 2.02229 0
M  V30 2512 C 238.632 3.93285 1.68853 0
M  V30 2513 C 237.958 4.42649 2.99944 0
M  V30 2514 C 239.258 5.13904 0.932714 0
M  V30 2515 H 240.952 2.9828 0.258781 0
M  V30 2516 H 238.498 1.43473 0.123029 0
M  V30 2517 H 240.451 3.25126 2.68088 0
M  V30 2518 H 239.175 2.0134 2.57157 0
M  V30 2519 H 237.834 3.5113 1.05371 0
M  V30 2520 H 237.482 3.58458 3.52869 0
M  V30 2521 H 237.182 5.17476 2.78374 0
M  V30 2522 H 238.706 4.88099 3.66868 0
M  V30 2523 H 240.12 5.53506 1.49345 0
M  V30 2524 H 238.517 5.94515 0.81684 0
M  V30 2525 H 239.587 4.84842 -0.0749568 0
M  V30 2526 N 240.93 -0.123565 1.57115 0
M  V30 2527 C 242.178 -0.83051 1.84247 0
M  V30 2528 C 242.499 -1.80629 0.73471 0
M  V30 2529 O 241.769 -1.94403 -0.241688 0
M  V30 2530 H 240.349 -0.309694 0.679778 0
M  V30 2531 H 243.011 -0.111976 1.94578 0
M  V30 2532 H 242.107 -1.37852 2.80006 0
M  V30 2533 N 242.408 -1.52605 -0.393616 0
M  V30 2534 C 243.633 -1.71592 -1.16495 0
M  V30 2535 C 244.058 -0.43133 -1.83088 0
M  V30 2536 O 243.416 0.612523 -1.7064 0
M  V30 2537 C 243.464 -2.86318 -2.19213 0
M  V30 2538 O 242.568 -2.52969 -3.257 0
M  V30 2539 H 241.909 -0.570734 -0.33935 0
M  V30 2540 H 244.439 -1.99377 -0.459324 0
M  V30 2541 H 244.449 -3.1168 -2.63286 0
M  V30 2542 H 243.124 -3.79511 -1.7013 0
M  V30 2543 H 241.701 -2.38332 -2.86797 0
M  V30 2544 N 243.887 0.651787 -1.4349 0
M  V30 2545 C 245.112 1.44434 -1.48841 0
M  V30 2546 C 245.537 1.8779 -0.107955 0
M  V30 2547 O 244.895 1.57464 0.898602 0
M  V30 2548 C 244.943 2.65458 -2.44059 0
M  V30 2549 O 244.047 3.64566 -1.92784 0
M  V30 2550 H 243.388 0.433005 -0.503391 0
M  V30 2551 H 245.918 0.797451 -1.88419 0
M  V30 2552 H 245.928 3.13255 -2.6141 0
M  V30 2553 H 244.603 2.33244 -3.4434 0
M  V30 2554 H 243.18 3.23716 -1.851 0
M  V30 2555 N 245.365 1.30045 0.890287 0
M  V30 2556 C 246.781 1.08261 1.17268 0
M  V30 2557 C 246.981 -0.160063 2.00863 0
M  V30 2558 O 246.037 -0.855181 2.37577 0
M  V30 2559 C 247.35 2.34323 1.8845 0
M  V30 2560 C 248.898 2.39735 2.01237 0
M  V30 2561 C 249.373 3.65625 2.7583 0
M  V30 2562 N 250.864 3.66402 2.83379 0
M  V30 2563 C 251.599 4.60498 3.41657 0
M  V30 2564 N 251.095 5.64933 4.01026 0
M  V30 2565 N 252.888 4.48051 3.39421 0
M  V30 2566 H 245.039 2.09777 0.332762 0
M  V30 2567 H 247.302 0.92446 0.209948 0
M  V30 2568 H 247.008 3.2498 1.34465 0
M  V30 2569 H 246.882 2.4256 2.88867 0
M  V30 2570 H 249.269 1.4956 2.54393 0
M  V30 2571 H 249.35 2.35476 0.999232 0
M  V30 2572 H 248.994 4.56156 2.23347 0
M  V30 2573 H 248.924 3.67144 3.77509 0
M  V30 2574 H 251.415 2.90896 2.41222 0
M  V30 2575 H 251.728 6.32841 4.43545 0
M  V30 2576 H 250.073 5.68732 3.99461 0
M  V30 2577 H 253.264 3.65649 2.92264 0
M  V30 2578 H 253.437 5.21565 3.84544 0
M  V30 2579 N 246.843 -1.10192 1.12674 0
M  V30 2580 C 248.071 -1.85983 0.906527 0
M  V30 2581 C 248.486 -1.80783 -0.544333 0
M  V30 2582 O 247.843 -1.19834 -1.37645 0
M  V30 2583 C 247.894 -3.34281 1.37618 0
M  V30 2584 O 247.615 -3.39401 2.77017 0
M  V30 2585 C 249.116 -4.26938 1.19325 0
M  V30 2586 H 246.336 -0.587716 0.323775 0
M  V30 2587 H 248.88 -1.39284 1.49734 0
M  V30 2588 H 247.035 -3.78436 0.828539 0
M  V30 2589 H 247.449 -4.31838 2.97684 0
M  V30 2590 H 248.923 -5.29181 1.57071 0
M  V30 2591 H 249.4 -4.38995 0.134097 0
M  V30 2592 H 250.006 -3.8859 1.72852 0
M  V30 2593 N 248.321 -0.919034 -1.28029 0
M  V30 2594 C 249.732 -0.600735 -1.76771 0
M  V30 2595 C 250.083 0.884024 -1.75156 0
M  V30 2596 O 249.208 1.69163 -1.34956 0
M  V30 2597 C 249.803 -1.08372 -3.21 0
M  V30 2598 C 248.362 -0.816248 -3.67443 0
M  V30 2599 C 247.509 -1.24742 -2.47658 0
M  V30 2600 H 250.46 -1.09974 -1.14418 0
M  V30 2601 H 250.481 -0.427512 -3.78091 0
M  V30 2602 H 249.993 -2.16437 -3.22144 0
M  V30 2603 H 248.094 0.250968 -3.71754 0
M  V30 2604 H 248.207 -1.4277 -4.57333 0
M  V30 2605 H 246.571 -0.666083 -2.45836 0
M  V30 2606 H 247.354 -2.33653 -2.51518 0
M  V30 2607 N 249.799 1.42003 -0.683588 0
M  V30 2608 C 250.709 2.34597 -0.0109075 0
M  V30 2609 C 251.725 1.55576 0.779245 0
M  V30 2610 O 252.901 1.88107 0.719555 0
M  V30 2611 C 249.966 3.34199 0.922588 0
M  V30 2612 C 249.027 4.29115 0.125984 0
M  V30 2613 C 248.26 5.23959 1.01502 0
M  V30 2614 O 248.483 5.23952 2.25456 0
M  V30 2615 O 247.417 6.00053 0.47111 0
M  V30 2616 H 251.243 2.93675 -0.773853 0
M  V30 2617 H 248.828 1.42654 -0.443861 0
M  V30 2618 H 250.71 3.95365 1.45823 0
M  V30 2619 H 249.385 2.77582 1.66523 0
M  V30 2620 H 248.292 3.71335 -0.453969 0
M  V30 2621 H 249.625 4.88798 -0.577736 0
M  V30 2622 N 251.277 0.427512 1.51691 0
M  V30 2623 C 252.505 -0.141191 2.06418 0
M  V30 2624 C 252.92 -1.37303 1.29589 0
M  V30 2625 O 252.277 -1.79059 0.352732 0
M  V30 2626 C 252.328 -0.473266 3.58389 0
M  V30 2627 O 252.049 0.709673 4.32314 0
M  V30 2628 C 253.55 -1.09371 4.29596 0
M  V30 2629 H 250.77 -0.0122747 0.670888 0
M  V30 2630 H 253.314 0.603764 1.95384 0
M  V30 2631 H 251.469 -1.16812 3.69369 0
M  V30 2632 H 251.883 0.42807 5.2275 0
M  V30 2633 H 253.357 -1.27613 5.37046 0
M  V30 2634 H 253.834 -2.072 3.87253 0
M  V30 2635 H 254.44 -0.43853 4.23033 0
M  V30 2636 N 252.755 -1.56801 0.158532 0
M  V30 2637 C 254.001 -1.96781 -0.490405 0
M  V30 2638 C 254.334 -1.04397 -1.63753 0
M  V30 2639 O 253.609 -0.0885805 -1.94298 0
M  V30 2640 C 253.892 -3.4635 -0.985594 0
M  V30 2641 C 253.745 -4.49512 0.160824 0
M  V30 2642 C 255.064 -3.98697 -1.86355 0
M  V30 2643 H 252.183 -0.715482 -0.176788 0
M  V30 2644 H 254.825 -1.88451 0.242088 0
M  V30 2645 H 252.975 -3.53579 -1.60978 0
M  V30 2646 H 254.647 -4.54353 0.797537 0
M  V30 2647 H 252.89 -4.26013 0.818256 0
M  V30 2648 H 253.561 -5.51531 -0.227569 0
M  V30 2649 H 256.037 -3.94019 -1.33746 0
M  V30 2650 H 254.913 -5.03792 -2.17909 0
M  V30 2651 H 255.174 -3.41744 -2.8047 0
M  V30 2652 N 254.233 0.115231 -1.57178 0
M  V30 2653 C 255.649 0.468877 -1.52557 0
M  V30 2654 C 255.849 1.81649 -0.872125 0
M  V30 2655 O 254.905 2.48347 -0.45606 0
M  V30 2656 C 256.218 0.4499 -2.97315 0
M  V30 2657 C 257.766 0.533185 -3.08425 0
M  V30 2658 C 258.241 0.54456 -4.54751 0
M  V30 2659 N 259.732 0.605892 -4.5922 0
M  V30 2660 C 260.467 0.636203 -5.6986 0
M  V30 2661 N 259.963 0.623931 -6.89985 0
M  V30 2662 N 261.756 0.679496 -5.57978 0
M  V30 2663 H 253.907 -0.767712 -1.9804 0
M  V30 2664 H 256.17 -0.283609 -0.904583 0
M  V30 2665 H 255.876 -0.472721 -3.48509 0
M  V30 2666 H 255.75 1.27632 -3.5495 0
M  V30 2667 H 258.137 1.44623 -2.57232 0
M  V30 2668 H 258.218 -0.320995 -2.53778 0
M  V30 2669 H 257.862 -0.364452 -5.06591 0
M  V30 2670 H 257.792 1.41568 -5.07214 0
M  V30 2671 H 260.283 0.621386 -3.72756 0
M  V30 2672 H 260.596 0.649787 -7.70063 0
M  V30 2673 H 258.941 0.591296 -6.9248 0
M  V30 2674 H 262.132 0.686472 -4.63039 0
M  V30 2675 H 262.305 0.69965 -6.44212 0
M  V30 2676 N 255.711 1.52812 0.385517 0
M  V30 2677 C 256.644 1.72592 1.49289 0
M  V30 2678 C 257.622 0.573819 1.52138 0
M  V30 2679 O 258.806 0.80404 1.70492 0
M  V30 2680 C 255.933 1.78669 2.87741 0
M  V30 2681 C 254.979 3.00455 3.02703 0
M  V30 2682 S 255.812 4.60366 2.73538 0
M  V30 2683 C 256.968 4.69263 4.14177 0
M  V30 2684 H 257.201 2.66248 1.32285 0
M  V30 2685 H 254.734 1.43148 0.578611 0
M  V30 2686 H 256.692 1.82855 3.67524 0
M  V30 2687 H 255.353 0.861 3.02069 0
M  V30 2688 H 254.546 3.01258 4.04054 0
M  V30 2689 H 254.148 2.94278 2.30817 0
M  V30 2690 H 256.44 4.48092 5.08153 0
M  V30 2691 H 257.383 5.71276 4.18388 0
M  V30 2692 H 257.791 3.98072 4.00249 0
M  V30 2693 N 257.189 -0.644168 1.43834 0
M  V30 2694 C 258.435 -1.40603 1.46146 0
M  V30 2695 C 258.768 -1.93997 0.0887717 0
M  V30 2696 O 258.043 -1.72854 -0.891724 0
M  V30 2697 C 258.326 -2.58086 2.51124 0
M  V30 2698 C 258.179 -2.10126 3.97702 0
M  V30 2699 C 259.498 -3.60291 2.52742 0
M  V30 2700 H 256.617 -0.509905 0.532134 0
M  V30 2701 H 259.259 -0.729502 1.75437 0
M  V30 2702 H 257.409 -3.15801 2.26278 0
M  V30 2703 H 259.081 -1.57342 4.33637 0
M  V30 2704 H 257.324 -1.41419 4.10101 0
M  V30 2705 H 257.995 -2.94649 4.66783 0
M  V30 2706 H 260.471 -3.12352 2.7491 0
M  V30 2707 H 259.347 -4.40032 3.28121 0
M  V30 2708 H 259.608 -4.1349 1.56455 0
M  V30 2709 N 258.668 -1.30515 -0.883378 0
M  V30 2710 C 259.598 -1.19607 -2.00541 0
M  V30 2711 C 260.579 -0.086346 -1.69881 0
M  V30 2712 O 261.764 -0.268654 -1.92333 0
M  V30 2713 C 258.894 -0.888758 -3.35736 0
M  V30 2714 C 257.848 -1.95659 -3.8066 0
M  V30 2715 C 257.174 -1.50224 -5.13164 0
M  V30 2716 C 258.474 -3.36788 -3.99213 0
M  V30 2717 H 260.168 -2.13476 -2.09925 0
M  V30 2718 H 257.714 -1.02775 -1.00863 0
M  V30 2719 H 259.667 -0.799094 -4.13754 0
M  V30 2720 H 258.391 0.0856125 -3.26488 0
M  V30 2721 H 257.05 -2.03591 -3.04871 0
M  V30 2722 H 256.698 -0.516092 -5.00345 0
M  V30 2723 H 256.398 -2.2165 -5.44192 0
M  V30 2724 H 257.922 -1.42639 -5.93706 0
M  V30 2725 H 259.336 -3.31605 -4.67665 0
M  V30 2726 H 257.733 -4.06314 -4.41621 0
M  V30 2727 H 258.803 -3.78561 -3.03017 0
M  V30 2728 N 260.146 1.09593 -1.13257 0
M  V30 2729 C 261.371 1.8604 -0.916732 0
M  V30 2730 C 261.796 1.80504 0.529146 0
M  V30 2731 O 261.154 1.18127 1.37534 0
M  V30 2732 C 261.202 3.32017 -1.40703 0
M  V30 2733 O 260.306 4.08141 -0.591153 0
M  V30 2734 H 259.647 0.576943 -0.328683 0
M  V30 2735 H 262.177 1.38405 -1.50682 0
M  V30 2736 H 262.187 3.82865 -1.4099 0
M  V30 2737 H 260.862 3.35361 -2.45979 0
M  V30 2738 H 259.439 3.67084 -0.656005 0
M  V30 2739 N 261.624 0.925811 1.2754 0
M  V30 2740 C 262.572 0.413897 2.28888 0
M  V30 2741 C 263.566 -0.500779 1.61829 0
M  V30 2742 O 264.772 -0.38069 1.75928 0
M  V30 2743 H 261.147 0.115274 0.743112 0
M  V30 2744 H 263.118 1.28151 2.69481 0
M  V30 2745 C 261.867 -0.319792 3.46226 0
M  V30 2746 H 261.19 0.374846 3.98039 0
M  V30 2747 H 262.63 -0.642435 4.19105 0
M  V30 2748 C 261.089 -1.53209 3.00048 0
M  V30 2749 O 261.619 -2.6309 3.03557 0
M  V30 2750 N 259.825 -1.38326 2.55566 0
M  V30 2751 H 259.372 -0.489292 2.5291 0
M  V30 2752 H 259.33 -2.19564 2.25031 0
M  V30 2753 N 263.102 -1.41638 0.69111 0
M  V30 2754 C 264.035 -2.28183 -0.0274913 0
M  V30 2755 C 265.013 -1.41984 -0.792424 0
M  V30 2756 O 266.197 -1.71415 -0.784169 0
M  V30 2757 C 263.324 -3.22135 -1.04628 0
M  V30 2758 C 262.37 -4.24848 -0.375037 0
M  V30 2759 S 263.203 -5.28231 0.879321 0
M  V30 2760 C 264.359 -6.25748 -0.137983 0
M  V30 2761 H 264.592 -2.88782 0.706553 0
M  V30 2762 H 262.125 -1.46709 0.481222 0
M  V30 2763 H 264.083 -3.76797 -1.62894 0
M  V30 2764 H 262.744 -2.6064 -1.75287 0
M  V30 2765 H 261.937 -4.90837 -1.14433 0
M  V30 2766 H 261.539 -3.73758 0.134434 0
M  V30 2767 H 263.831 -6.70188 -0.992659 0
M  V30 2768 H 264.774 -7.06417 0.487867 0
M  V30 2769 H 265.182 -5.62363 -0.490762 0
M  V30 2770 N 264.58 -0.43555 -1.51462 0
M  V30 2771 C 265.49 0.383001 -2.31453 0
M  V30 2772 C 266.506 1.02931 -1.4029 0
M  V30 2773 O 267.682 1.02507 -1.73362 0
M  V30 2774 C 264.747 1.47043 -3.13973 0
M  V30 2775 C 263.808 0.844433 -4.20913 0
M  V30 2776 C 263.041 1.88004 -4.9949 0
M  V30 2777 O 263.264 3.10199 -4.78678 0
M  V30 2778 O 262.198 1.47157 -5.83634 0
M  V30 2779 H 266.024 -0.269964 -3.02498 0
M  V30 2780 H 263.609 -0.19813 -1.4808 0
M  V30 2781 H 265.491 2.10113 -3.65281 0
M  V30 2782 H 264.166 2.10751 -2.45695 0
M  V30 2783 H 263.073 0.175729 -3.73687 0
M  V30 2784 H 264.406 0.250869 -4.9156 0
M  V30 2785 N 266.058 1.56714 -0.166846 0
M  V30 2786 C 267.005 2.17746 0.765193 0
M  V30 2787 C 267.975 1.11614 1.23011 0
M  V30 2788 O 269.16 1.39745 1.29908 0
M  V30 2789 C 266.3 2.81882 1.9909 0
M  V30 2790 C 265.413 4.02462 1.56997 0
M  V30 2791 C 264.548 4.54537 2.749 0
M  V30 2792 C 263.587 5.67538 2.29275 0
M  V30 2793 N 262.724 6.14142 3.40255 0
M  V30 2794 H 267.564 2.97048 0.237952 0
M  V30 2795 H 265.101 1.4672 0.105725 0
M  V30 2796 H 267.059 3.17221 2.70974 0
M  V30 2797 H 265.689 2.05191 2.49192 0
M  V30 2798 H 264.741 3.72973 0.748037 0
M  V30 2799 H 266.053 4.84273 1.19503 0
M  V30 2800 H 265.207 4.92035 3.54946 0
M  V30 2801 H 263.946 3.71774 3.1565 0
M  V30 2802 H 262.951 5.29597 1.47674 0
M  V30 2803 H 264.176 6.52099 1.89588 0
M  V30 2804 H 262.122 5.3431 3.8059 0
M  V30 2805 H 262.039 6.9093 3.06841 0
M  V30 2806 H 263.307 6.56289 4.206 0
M  V30 2807 N 267.536 -0.106894 1.57237 0
M  V30 2808 C 268.466 -1.13148 2.04254 0
M  V30 2809 C 269.447 -1.42476 0.929224 0
M  V30 2810 O 270.632 -1.52709 1.19973 0
M  V30 2811 C 267.762 -2.4545 2.45706 0
M  V30 2812 C 266.716 -2.30558 3.60592 0
M  V30 2813 C 266.042 -3.67931 3.87983 0
M  V30 2814 C 267.342 -1.75597 4.91897 0
M  V30 2815 H 269.036 -0.740374 2.90101 0
M  V30 2816 H 266.582 -0.354696 1.39563 0
M  V30 2817 H 268.535 -3.17389 2.77205 0
M  V30 2818 H 267.259 -2.86475 1.56843 0
M  V30 2819 H 265.918 -1.61067 3.29322 0
M  V30 2820 H 265.566 -4.06462 2.96306 0
M  V30 2821 H 265.266 -3.58817 4.65322 0
M  V30 2822 H 266.79 -4.41356 4.21945 0
M  V30 2823 H 268.204 -2.37364 5.21854 0
M  V30 2824 H 266.601 -1.77272 5.73319 0
M  V30 2825 H 267.671 -0.714451 4.79608 0
M  V30 2826 N 269.014 -1.53014 -0.377408 0
M  V30 2827 C 270.261 -1.68623 -1.12128 0
M  V30 2828 C 270.589 -0.431997 -1.89642 0
M  V30 2829 O 269.844 0.585855 -1.86725 0
M  V30 2830 C 270.143 -2.87982 -2.11663 0
M  V30 2831 C 269.809 -4.24964 -1.50719 0
M  V30 2832 C 268.471 -4.62217 -1.33825 0
M  V30 2833 C 270.823 -5.10199 -1.06519 0
M  V30 2834 C 268.151 -5.82352 -0.712963 0
M  V30 2835 C 270.503 -6.30969 -0.453955 0
M  V30 2836 C 269.167 -6.66944 -0.272411 0
M  V30 2837 H 268.437 -0.617034 -0.410305 0
M  V30 2838 H 271.084 -1.8718 -0.404484 0
M  V30 2839 H 269.389 -2.63889 -2.89603 0
M  V30 2840 H 271.086 -2.97253 -2.6915 0
M  V30 2841 H 267.676 -3.95626 -1.64858 0
M  V30 2842 H 271.86 -4.81978 -1.18368 0
M  V30 2843 H 267.116 -6.08824 -0.560611 0
M  V30 2844 H 271.29 -6.96324 -0.103217 0
M  V30 2845 H 268.917 -7.59898 0.214181 0
M  V30 2846 N 270.492 0.636531 -1.44174 0
M  V30 2847 C 271.732 1.40781 -1.48189 0
M  V30 2848 C 272.096 1.91688 -0.10944 0
M  V30 2849 O 273.297 2.68789 -0.0242741 0
M  V30 2850 C 271.568 2.54575 -2.50851 0
M  V30 2851 S 273.127 3.4284 -2.73873 0
M  V30 2852 H 269.945 0.480345 -0.524204 0
M  V30 2853 H 272.547 0.737416 -1.81059 0
M  V30 2854 H 271.251 2.15478 -3.49281 0
M  V30 2855 H 270.782 3.26447 -2.19536 0
M  V30 2856 H 272.797 4.51846 -2.05059 0
M  V30 2857 N 271.97 1.30982 0.876444 0
M  V30 2858 C 273.219 1.19658 1.62373 0
M  V30 2859 C 273.532 -0.245636 1.94052 0
M  V30 2860 O 274.738 -0.48049 2.67214 0
M  V30 2861 C 273.194 2.09433 2.92687 0
M  V30 2862 C 272.802 3.58613 2.68516 0
M  V30 2863 C 274.546 2.06893 3.70669 0
M  V30 2864 C 272.453 4.40416 3.94699 0
M  V30 2865 H 271.383 0.444268 0.609214 0
M  V30 2866 H 274.034 1.55791 0.969605 0
M  V30 2867 H 272.416 1.66191 3.59439 0
M  V30 2868 H 273.59 4.10058 2.10212 0
M  V30 2869 H 271.905 3.63063 2.03898 0
M  V30 2870 H 274.502 2.65258 4.64265 0
M  V30 2871 H 274.845 1.05448 4.02724 0
M  V30 2872 H 275.378 2.48301 3.10792 0
M  V30 2873 H 272.117 5.42591 3.67798 0
M  V30 2874 H 271.637 3.93731 4.52477 0
M  V30 2875 H 273.316 4.52294 4.62644 0
M  V30 2876 N 273.449 -1.08991 1.13837 0
M  V30 2877 C 274.86 -1.62746 0.914917 0
M  V30 2878 C 275.211 -1.88403 -0.547594 0
M  V30 2879 O 274.336 -1.63706 -1.41525 0
M  V30 2880 C 274.931 -2.95662 1.65437 0
M  V30 2881 C 273.49 -3.46225 1.47666 0
M  V30 2882 C 272.637 -2.20562 1.6807 0
M  V30 2883 H 275.588 -0.922946 1.29102 0
M  V30 2884 H 275.609 -3.63825 1.11407 0
M  V30 2885 H 275.121 -2.76956 2.71877 0
M  V30 2886 H 273.222 -3.70046 0.435478 0
M  V30 2887 H 273.335 -4.23368 2.24268 0
M  V30 2888 H 271.699 -2.29439 1.10589 0
M  V30 2889 H 272.482 -2.0437 2.7584 0
M  V30 2890 N 274.927 -0.932562 -1.27047 0
M  V30 2891 C 276.173 -0.576412 -1.94436 0
M  V30 2892 C 276.506 0.880891 -1.73072 0
M  V30 2893 O 275.781 1.62905 -1.06264 0
M  V30 2894 C 276.064 -0.909031 -3.48437 0
M  V30 2895 C 275.917 -2.42044 -3.79123 0
M  V30 2896 C 277.236 -0.418341 -4.38107 0
M  V30 2897 H 274.355 -0.210888 -0.706184 0
M  V30 2898 H 276.997 -1.16522 -1.50075 0
M  V30 2899 H 275.147 -0.407947 -3.86352 0
M  V30 2900 H 276.819 -2.99359 -3.50973 0
M  V30 2901 H 275.062 -2.86758 -3.25503 0
M  V30 2902 H 275.733 -2.6037 -4.86736 0
M  V30 2903 H 278.209 -0.847856 -4.0737 0
M  V30 2904 H 277.085 -0.679981 -5.44672 0
M  V30 2905 H 277.346 0.681642 -4.36814 0
M  V30 2906 N 276.405 1.4127 -0.698611 0
M  V30 2907 C 277.355 2.27997 -0.0119836 0
M  V30 2908 C 278.339 1.42363 0.749765 0
M  V30 2909 O 279.531 1.65607 0.624758 0
M  V30 2910 C 276.66 3.30702 0.921458 0
M  V30 2911 C 275.746 4.23814 0.155796 0
M  V30 2912 N 276.137 4.98572 -0.852015 0
M  V30 2913 C 274.435 4.44284 0.390836 0
M  V30 2914 C 275.136 5.66744 -1.3106 0
M  V30 2915 N 274.112 5.39867 -0.635944 0
M  V30 2916 H 277.914 2.83232 -0.784649 0
M  V30 2917 H 275.428 1.53518 -0.529711 0
M  V30 2918 H 277.425 3.91661 1.42854 0
M  V30 2919 H 276.085 2.77028 1.69369 0
M  V30 2920 H 277.096 5.03024 -1.23235 0
M  V30 2921 H 273.773 4.01614 1.14071 0
M  V30 2922 H 275.163 6.36672 -2.14707 0
M  V30 2923 N 277.883 0.443576 1.51229 0
M  V30 2924 C 279.131 -0.120557 2.0174 0
M  V30 2925 C 279.452 -1.42665 1.32935 0
M  V30 2926 O 278.722 -1.9028 0.465866 0
M  V30 2927 H 277.302 -0.0475426 0.745486 0
M  V30 2928 H 279.964 0.587711 1.85828 0
M  V30 2929 H 279.06 -0.291972 3.10731 0
M  V30 2930 N 279.361 -1.56624 0.175154 0
M  V30 2931 C 280.61 -1.96173 -0.468921 0
M  V30 2932 C 280.923 -1.06401 -1.64128 0
M  V30 2933 O 282.129 -1.35648 -2.35185 0
M  V30 2934 C 280.585 -3.48833 -0.885633 0
M  V30 2935 C 280.193 -4.47237 0.261343 0
M  V30 2936 C 281.937 -3.97194 -1.49791 0
M  V30 2937 C 279.844 -5.9114 -0.175214 0
M  V30 2938 H 278.774 -0.732455 -0.178958 0
M  V30 2939 H 281.425 -1.81591 0.263997 0
M  V30 2940 H 279.807 -3.58848 -1.67464 0
M  V30 2941 H 280.981 -4.4894 1.03871 0
M  V30 2942 H 279.296 -4.08956 0.783827 0
M  V30 2943 H 281.893 -5.02167 -1.83665 0
M  V30 2944 H 282.236 -3.40351 -2.39722 0
M  V30 2945 H 282.769 -3.90212 -0.773267 0
M  V30 2946 H 279.508 -6.51865 0.689414 0
M  V30 2947 H 279.028 -5.92735 -0.91786 0
M  V30 2948 H 280.707 -6.44044 -0.617792 0
M  V30 2949 N 280.839 0.0985539 -1.57292 0
M  V30 2950 C 282.255 0.45267 -1.53046 0
M  V30 2951 C 282.455 1.80713 -0.891342 0
M  V30 2952 O 281.511 2.4785 -0.482375 0
M  V30 2953 C 282.824 0.418341 -2.97776 0
M  V30 2954 C 284.372 0.500443 -3.08973 0
M  V30 2955 C 284.847 0.496297 -4.55303 0
M  V30 2956 N 286.338 0.557151 -4.59837 0
M  V30 2957 C 287.073 0.575726 -5.70502 0
M  V30 2958 N 286.569 0.550714 -6.90608 0
M  V30 2959 N 288.362 0.620277 -5.58667 0
M  V30 2960 H 280.513 -0.788673 -1.97215 0
M  V30 2961 H 282.776 -0.293188 -0.901524 0
M  V30 2962 H 282.482 -0.509659 -3.47988 0
M  V30 2963 H 282.356 1.2386 -3.56284 0
M  V30 2964 H 284.743 1.41886 -2.58751 0
M  V30 2965 H 284.824 -0.347894 -2.53423 0
M  V30 2966 H 284.468 -0.418162 -5.06176 0
M  V30 2967 H 284.398 1.3618 -5.08687 0
M  V30 2968 H 286.889 0.581816 -3.73394 0
M  V30 2969 H 287.202 0.568075 -7.70709 0
M  V30 2970 H 285.547 0.517816 -6.93068 0
M  V30 2971 H 288.738 0.637322 -4.63741 0
M  V30 2972 H 288.911 0.631283 -6.44918 0
M  V30 2973 N 282.317 1.53212 0.369288 0
M  V30 2974 C 283.542 1.73423 1.1375 0
M  V30 2975 C 283.967 0.460404 1.82378 0
M  V30 2976 O 283.325 -0.585298 1.71592 0
M  V30 2977 C 283.373 2.89769 2.1463 0
M  V30 2978 O 282.477 2.58119 3.21634 0
M  V30 2979 H 281.818 0.576061 0.330227 0
M  V30 2980 H 284.348 2.00083 0.427547 0
M  V30 2981 H 284.358 3.15829 2.58294 0
M  V30 2982 H 283.033 3.8217 1.64071 0
M  V30 2983 H 281.61 2.42864 2.82969 0
M  V30 2984 N 283.795 -0.628877 1.44509 0
M  V30 2985 C 285.041 -1.39045 1.47629 0
M  V30 2986 C 285.374 -1.93892 0.109343 0
M  V30 2987 O 284.649 -1.7379 -0.87334 0
M  V30 2988 C 284.932 -2.55408 2.53848 0
M  V30 2989 C 284.785 -2.05896 3.99909 0
M  V30 2990 C 286.104 -3.5759 2.56549 0
M  V30 2991 H 283.223 -0.504232 0.537512 0
M  V30 2992 H 285.865 -0.710854 1.76201 0
M  V30 2993 H 284.015 -3.13384 2.29615 0
M  V30 2994 H 285.687 -1.52734 4.35282 0
M  V30 2995 H 283.93 -1.37061 4.11578 0
M  V30 2996 H 284.601 -2.89681 4.69882 0
M  V30 2997 H 287.077 -3.09419 2.78207 0
M  V30 2998 H 285.953 -4.36527 3.32769 0
M  V30 2999 H 286.214 -4.11808 1.60832 0
M  V30 3000 N 285.273 -1.31445 -0.869486 0
M  V30 3001 C 286.521 -1.20918 -1.61936 0
M  V30 3002 C 286.842 0.232683 -1.93607 0
M  V30 3003 O 286.112 1.15352 -1.58338 0
M  V30 3004 H 284.692 -0.44454 -0.600328 0
M  V30 3005 H 287.354 -1.64776 -1.0409 0
M  V30 3006 H 286.45 -1.78124 -2.56278 0
M  V30 3007 N 286.751 1.08385 -1.14413 0
M  V30 3008 C 287.979 1.84517 -0.936001 0
M  V30 3009 C 288.394 1.81626 0.515503 0
M  V30 3010 O 287.751 1.22008 1.35721 0
M  V30 3011 C 287.802 3.32049 -1.42918 0
M  V30 3012 O 287.523 3.34951 -2.82381 0
M  V30 3013 C 289.024 4.24986 -1.26103 0
M  V30 3014 H 286.244 0.582491 -0.333084 0
M  V30 3015 H 288.788 1.36885 -1.5193 0
M  V30 3016 H 286.943 3.7707 -0.888641 0
M  V30 3017 H 287.357 4.27048 -3.04517 0
M  V30 3018 H 288.831 5.26615 -1.6547 0
M  V30 3019 H 289.308 4.38726 -0.20392 0
M  V30 3020 H 289.914 3.85791 -1.79012 0
M  V30 3021 N 288.23 0.939286 1.26551 0
M  V30 3022 C 289.193 0.451987 2.24699 0
M  V30 3023 C 290.193 -0.435869 1.5478 0
M  V30 3024 O 291.383 -0.235314 1.72603 0
M  V30 3025 C 288.515 -0.348801 3.39111 0
M  V30 3026 H 289.708 1.3193 2.69322 0
M  V30 3027 H 287.261 0.721072 1.38673 0
M  V30 3028 H 287.996 -1.23444 2.99887 0
M  V30 3029 H 287.781 0.287945 3.91041 0
M  V30 3030 H 289.271 -0.679726 4.12031 0
M  V30 3031 N 289.708 -1.40897 0.706093 0
M  V30 3032 C 290.671 -2.29131 0.0562841 0
M  V30 3033 C 291.671 -1.44901 -0.697166 0
M  V30 3034 O 292.861 -1.65926 -0.530484 0
M  V30 3035 C 289.993 -3.27957 -0.93043 0
M  V30 3036 H 291.186 -2.88091 0.833284 0
M  V30 3037 H 288.739 -1.4906 0.470192 0
M  V30 3038 H 289.474 -2.73997 -1.73482 0
M  V30 3039 H 289.259 -3.90124 -0.393166 0
M  V30 3040 H 290.749 -3.94049 -1.38256 0
M  V30 3041 N 291.186 -0.45159 -1.50991 0
M  V30 3042 C 292.432 0.110237 -2.025 0
M  V30 3043 C 292.765 1.41109 -1.33424 0
M  V30 3044 O 292.04 1.89135 -0.453659 0
M  V30 3045 C 292.323 0.314271 -3.58726 0
M  V30 3046 C 292.176 -1.00623 -4.38401 0
M  V30 3047 C 293.495 1.07767 -4.26702 0
M  V30 3048 H 290.614 0.0385897 -0.735989 0
M  V30 3049 H 293.256 -0.593374 -1.80497 0
M  V30 3050 H 291.406 0.913601 -3.77605 0
M  V30 3051 H 293.078 -1.64064 -4.31139 0
M  V30 3052 H 291.321 -1.6075 -4.02917 0
M  V30 3053 H 291.992 -0.817341 -5.45915 0
M  V30 3054 H 294.468 0.56986 -4.12179 0
M  V30 3055 H 293.344 1.18921 -5.35863 0
M  V30 3056 H 293.605 2.10939 -3.88532 0
M  V30 3057 N 292.664 1.56529 -0.183458 0
M  V30 3058 C 293.612 2.19873 0.758845 0
M  V30 3059 C 294.606 1.16638 1.22849 0
M  V30 3060 O 295.812 1.3481 1.19274 0
M  V30 3061 H 292.187 0.7045 0.263029 0
M  V30 3062 H 294.158 2.97724 0.200755 0
M  V30 3063 C 292.907 2.86314 1.9728 0
M  V30 3064 H 292.23 3.65487 1.62047 0
M  V30 3065 H 293.67 3.3409 2.61075 0
M  V30 3066 C 292.129 1.86729 2.80418 0
M  V30 3067 O 292.659 1.36031 3.77966 0
M  V30 3068 N 290.865 1.55216 2.45675 0
M  V30 3069 H 290.412 1.96636 1.66409 0
M  V30 3070 H 290.37 0.888388 3.01588 0
M  V30 3071 N 294.142 -0.090211 1.57342 0
M  V30 3072 C 295.075 -1.14035 1.97664 0
M  V30 3073 C 296.053 -1.38576 0.850616 0
M  V30 3074 O 297.237 -1.52255 1.11134 0
M  V30 3075 C 294.364 -2.48854 2.2976 0
M  V30 3076 C 293.41 -2.40564 3.52181 0
M  V30 3077 S 294.243 -1.81745 5.03715 0
M  V30 3078 C 295.399 -3.18178 5.38993 0
M  V30 3079 H 295.632 -0.796636 2.86428 0
M  V30 3080 H 293.165 -0.298072 1.51496 0
M  V30 3081 H 295.123 -3.26413 2.48927 0
M  V30 3082 H 293.784 -2.80393 1.41558 0
M  V30 3083 H 292.977 -3.39942 3.72096 0
M  V30 3084 H 292.579 -1.71135 3.32549 0
M  V30 3085 H 294.871 -4.14461 5.35937 0
M  V30 3086 H 295.814 -3.03062 6.39968 0
M  V30 3087 H 296.222 -3.17935 4.66452 0
M  V30 3088 N 295.62 -1.53406 -0.361157 0
M  V30 3089 C 296.86 -1.71507 -1.11197 0
M  V30 3090 C 297.224 -0.459337 -1.86425 0
M  V30 3091 O 298.425 -0.517102 -2.63779 0
M  V30 3092 C 296.696 -2.93307 -2.0422 0
M  V30 3093 S 298.255 -3.32135 -2.86761 0
M  V30 3094 H 295.073 -0.603448 -0.375995 0
M  V30 3095 H 297.675 -1.91516 -0.392642 0
M  V30 3096 H 296.379 -3.82891 -1.47724 0
M  V30 3097 H 295.91 -2.75712 -2.80618 0
M  V30 3098 H 297.925 -2.84493 -4.06544 0
M  V30 3099 N 297.098 0.621204 -1.44841 0
M  V30 3100 C 298.028 1.74366 -1.55303 0
M  V30 3101 C 299.009 1.65199 -0.405385 0
M  V30 3102 O 300.194 1.83807 -0.626787 0
M  V30 3103 C 297.324 3.12931 -1.50637 0
M  V30 3104 C 296.278 3.36896 -2.63979 0
M  V30 3105 C 295.604 4.75594 -2.44366 0
M  V30 3106 C 296.904 3.28483 -4.06074 0
M  V30 3107 H 298.598 1.65867 -2.49256 0
M  V30 3108 H 296.144 0.796558 -1.19962 0
M  V30 3109 H 298.097 3.9124 -1.56555 0
M  V30 3110 H 296.821 3.22237 -0.532057 0
M  V30 3111 H 295.48 2.60972 -2.57467 0
M  V30 3112 H 295.128 4.81616 -1.45105 0
M  V30 3113 H 294.828 4.92586 -3.20364 0
M  V30 3114 H 296.352 5.5612 -2.52117 0
M  V30 3115 H 297.766 3.96684 -4.13902 0
M  V30 3116 H 296.163 3.57008 -4.82354 0
M  V30 3117 H 297.233 2.26133 -4.28943 0
M  V30 3118 N 298.576 1.31904 0.862503 0
M  V30 3119 C 299.822 1.22197 1.61851 0
M  V30 3120 C 300.155 -0.217641 1.92977 0
M  V30 3121 O 299.43 -1.15264 1.56666 0
M  V30 3122 C 299.713 2.07378 2.94391 0
M  V30 3123 C 299.566 3.59678 2.70096 0
M  V30 3124 C 300.885 1.92891 3.95577 0
M  V30 3125 H 298.004 0.445255 0.587296 0
M  V30 3126 H 300.646 1.6177 0.99651 0
M  V30 3127 H 298.796 1.73758 3.47477 0
M  V30 3128 H 300.468 4.03472 2.23625 0
M  V30 3129 H 298.711 3.82735 2.04197 0
M  V30 3130 H 299.382 4.14595 3.64438 0
M  V30 3131 H 301.858 2.22327 3.51724 0
M  V30 3132 H 300.734 2.54781 4.86187 0
M  V30 3133 H 300.995 0.894315 4.3296 0
M  V30 3134 N 300.054 -1.07777 1.14986 0
M  V30 3135 C 301.017 -2.13041 0.845358 0
M  V30 3136 C 302.017 -1.60071 -0.152931 0
M  V30 3137 O 303.207 -1.74033 0.0761879 0
M  V30 3138 C 300.339 -3.39896 0.261383 0
M  V30 3139 H 301.532 -2.41485 1.77834 0
M  V30 3140 H 299.085 -1.23595 0.956757 0
M  V30 3141 H 299.82 -3.17091 -0.68 0
M  V30 3142 H 299.605 -3.79642 0.980514 0
M  V30 3143 H 301.095 -4.17548 0.0657687 0
M  V30 3144 N 301.532 -0.945985 -1.26051 0
M  V30 3145 C 302.76 -0.613025 -1.9761 0
M  V30 3146 C 303.175 0.813035 -1.70397 0
M  V30 3147 O 302.532 1.54274 -0.974979 0
M  V30 3148 C 302.583 -0.85159 -3.51326 0
M  V30 3149 O 302.304 -2.22157 -3.77595 0
M  V30 3150 C 303.805 -0.529831 -4.40122 0
M  V30 3151 H 301.025 -0.230593 -0.630133 0
M  V30 3152 H 303.569 -1.268 -1.60443 0
M  V30 3153 H 301.724 -0.243151 -3.86636 0
M  V30 3154 H 302.138 -2.2852 -4.721 0
M  V30 3155 H 303.612 -0.747348 -5.46917 0
M  V30 3156 H 304.089 0.535341 -4.35925 0
M  V30 3157 H 304.695 -1.11721 -4.10364 0
M  V30 3158 N 303.011 1.40521 -0.713556 0
M  V30 3159 C 304.259 2.00527 -0.251692 0
M  V30 3160 C 304.58 1.56857 1.15848 0
M  V30 3161 O 303.85 0.807127 1.785 0
M  V30 3162 H 302.43 0.741551 -0.0900646 0
M  V30 3163 H 305.092 1.71887 -0.918733 0
M  V30 3164 H 304.188 3.10813 -0.283192 0
M  V30 3165 N 304.489 0.459591 1.5075 0
M  V30 3166 C 305.737 -0.0991532 2.01857 0
M  V30 3167 C 306.058 -1.41247 1.34441 0
M  V30 3168 O 305.328 -1.89775 0.486022 0
M  V30 3169 H 303.908 -0.039633 0.745948 0
M  V30 3170 H 306.57 0.607387 1.85194 0
M  V30 3171 H 305.666 -0.258998 3.11023 0
M  V30 3172 N 305.967 -1.56429 0.191757 0
M  V30 3173 C 306.93 -2.17707 -0.716688 0
M  V30 3174 C 307.93 -1.13061 -1.14341 0
M  V30 3175 O 309.12 -1.38464 -1.05704 0
M  V30 3176 C 306.252 -2.77644 -1.97804 0
M  V30 3177 H 307.445 -2.99342 -0.1829 0
M  V30 3178 H 304.998 -1.56193 -0.0578566 0
M  V30 3179 H 305.733 -1.99799 -2.55443 0
M  V30 3180 H 305.518 -3.54246 -1.68083 0
M  V30 3181 H 307.008 -3.24708 -2.62592 0
M  V30 3182 N 307.445 0.0818655 -1.57387 0
M  V30 3183 C 308.722 0.815343 -1.77796 0
M  V30 3184 C 309.102 1.96289 -0.77679 0
M  V30 3185 O 308.45 2.27691 0.192106 0
M  V30 3186 C 308.66 1.29765 -3.23978 0
M  V30 3187 C 310.008 1.7351 -3.8753 0
M  V30 3188 O 311.032 1.39356 -3.27808 0
M  V30 3189 O 309.891 2.36708 -4.92576 0
M  V30 3190 H 306.985 0.389914 -0.729312 0
M  V30 3191 H 309.531 0.0627213 -1.69584 0
M  V30 3192 H 308.303 0.47608 -3.88393 0
M  V30 3193 H 307.926 2.11189 -3.36875 0
M  V30 3194 N 308.923 1.53595 0.353017 0
M  V30 3195 C 309.886 1.80232 1.41594 0
M  V30 3196 C 310.886 0.673081 1.46035 0
M  V30 3197 O 312.076 0.941335 1.46576 0
M  V30 3198 C 309.208 1.93578 2.80607 0
M  V30 3199 H 310.401 2.75174 1.19244 0
M  V30 3200 H 307.954 1.44864 0.586872 0
M  V30 3201 H 308.689 1.00746 3.08254 0
M  V30 3202 H 308.474 2.75724 2.78781 0
M  V30 3203 H 309.964 2.15735 3.57558 0
M  V30 3204 N 310.401 -0.613514 1.45168 0
M  V30 3205 C 311.631 -1.39743 1.52169 0
M  V30 3206 C 312.039 -1.88596 0.151086 0
M  V30 3207 O 311.382 -1.6251 -0.856521 0
M  V30 3208 C 311.444 -2.64035 2.43979 0
M  V30 3209 C 311.108 -2.36861 3.90827 0
M  V30 3210 C 312.105 -1.97591 4.80889 0
M  V30 3211 C 309.79 -2.49956 4.35692 0
M  V30 3212 C 311.784 -1.71768 6.1382 0
M  V30 3213 C 309.471 -2.23747 5.68665 0
M  V30 3214 C 310.469 -1.84714 6.57548 0
M  V30 3215 O 310.157 -1.58809 7.88058 0
M  V30 3216 H 309.889 -0.434382 0.517966 0
M  V30 3217 H 312.443 -0.75587 1.90986 0
M  V30 3218 H 310.673 -3.3089 2.00122 0
M  V30 3219 H 312.362 -3.26069 2.41731 0
M  V30 3220 H 313.128 -1.87015 4.47493 0
M  V30 3221 H 309.007 -2.79305 3.66756 0
M  V30 3222 H 312.551 -1.41227 6.83155 0
M  V30 3223 H 308.448 -2.33938 6.01617 0
M  V30 3224 H 309.216 -1.7291 8.00028 0
M  V30 3225 N 311.879 -1.3236 -0.855495 0
M  V30 3226 C 313.109 -1.25688 -1.6397 0
M  V30 3227 C 313.517 0.177592 -1.88365 0
M  V30 3228 O 312.86 1.12485 -1.45234 0
M  V30 3229 C 312.922 -1.94602 -3.02275 0
M  V30 3230 C 312.586 -3.43937 -3.00926 0
M  V30 3231 C 313.583 -4.39435 -2.77835 0
M  V30 3232 C 311.268 -3.85858 -3.21588 0
M  V30 3233 C 313.262 -5.74829 -2.75409 0
M  V30 3234 C 310.949 -5.21361 -3.18789 0
M  V30 3235 C 311.947 -6.15658 -2.95727 0
M  V30 3236 O 311.635 -7.48681 -2.928 0
M  V30 3237 H 311.367 -0.434972 -0.51747 0
M  V30 3238 H 313.921 -1.75023 -1.075 0
M  V30 3239 H 312.151 -1.39836 -3.60531 0
M  V30 3240 H 313.84 -1.81651 -3.62985 0
M  V30 3241 H 314.606 -4.08374 -2.6164 0
M  V30 3242 H 310.485 -3.12883 -3.38564 0
M  V30 3243 H 314.029 -6.48404 -2.57328 0
M  V30 3244 H 309.926 -5.52052 -3.34528 0
M  V30 3245 H 310.694 -7.5803 -3.0876 0
M  V30 3246 N 313.357 1.07166 -1.15556 0
M  V30 3247 C 314.267 2.17947 -0.868116 0
M  V30 3248 C 315.283 1.73297 0.156297 0
M  V30 3249 O 316.459 2.01392 -0.0182327 0
M  V30 3250 C 313.524 3.44789 -0.36355 0
M  V30 3251 C 312.585 4.03996 -1.45209 0
M  V30 3252 C 311.818 5.24783 -0.971508 0
M  V30 3253 O 312.041 5.70109 0.182194 0
M  V30 3254 O 310.975 5.75715 -1.75603 0
M  V30 3255 H 314.801 2.4503 -1.79427 0
M  V30 3256 H 312.386 1.16539 -0.934824 0
M  V30 3257 H 314.268 4.21307 -0.0887113 0
M  V30 3258 H 312.943 3.19253 0.534708 0
M  V30 3259 H 311.85 3.29009 -1.78056 0
M  V30 3260 H 313.183 4.33808 -2.32533 0
M  V30 3261 N 314.835 0.952656 1.25548 0
M  V30 3262 C 315.768 0.415525 2.24385 0
M  V30 3263 C 316.746 -0.502046 1.54655 0
M  V30 3264 O 317.93 -0.436875 1.83368 0
M  V30 3265 C 315.057 -0.401734 3.36309 0
M  V30 3266 C 314.103 0.455949 4.24056 0
M  V30 3267 S 314.936 1.88698 5.01152 0
M  V30 3268 C 316.092 1.07809 6.16545 0
M  V30 3269 H 316.325 1.25315 2.69599 0
M  V30 3270 H 313.858 0.756587 1.34592 0
M  V30 3271 H 315.816 -0.867329 4.01233 0
M  V30 3272 H 314.477 -1.21416 2.89684 0
M  V30 3273 H 313.67 -0.170776 5.03711 0
M  V30 3274 H 313.272 0.856675 3.64056 0
M  V30 3275 H 315.564 0.325816 6.76716 0
M  V30 3276 H 316.507 1.84849 6.83547 0
M  V30 3277 H 316.915 0.60909 5.61204 0
M  V30 3278 N 316.313 -1.40141 0.720998 0
M  V30 3279 C 317.561 -2.0039 0.262323 0
M  V30 3280 C 317.882 -1.57469 -1.15015 0
M  V30 3281 O 317.152 -0.816582 -1.78069 0
M  V30 3282 H 315.732 -0.741063 0.093996 0
M  V30 3283 H 318.394 -1.71398 0.927835 0
M  V30 3284 H 317.49 -3.10658 0.299671 0
M  V30 3285 N 317.792 -0.46758 -1.50504 0
M  V30 3286 C 319.041 0.0902868 -2.01498 0
M  V30 3287 C 319.354 1.411 -1.35463 0
M  V30 3288 O 320.56 2.0536 -1.77594 0
M  V30 3289 C 319.016 0.21142 -3.59278 0
M  V30 3290 C 318.624 -1.10065 -4.34269 0
M  V30 3291 C 320.368 0.721433 -4.18325 0
M  V30 3292 C 318.275 -0.943505 -5.83825 0
M  V30 3293 H 317.205 0.037517 -0.753066 0
M  V30 3294 H 319.856 -0.601943 -1.73346 0
M  V30 3295 H 318.238 0.967352 -3.84003 0
M  V30 3296 H 319.412 -1.86726 -4.21272 0
M  V30 3297 H 317.727 -1.5415 -3.86816 0
M  V30 3298 H 320.324 0.85598 -5.27804 0
M  V30 3299 H 320.667 1.71186 -3.79475 0
M  V30 3300 H 321.2 0.0229843 -3.97793 0
M  V30 3301 H 317.939 -1.90719 -6.27141 0
M  V30 3302 H 317.459 -0.217213 -5.99407 0
M  V30 3303 H 319.138 -0.608715 -6.4413 0
M  V30 3304 N 319.27 1.56325 -0.20005 0
M  V30 3305 C 320.22 2.15939 0.731743 0
M  V30 3306 C 321.204 1.10154 1.17281 0
M  V30 3307 O 322.396 1.36203 1.13038 0
M  V30 3308 C 319.525 2.82614 1.94895 0
M  V30 3309 C 318.611 3.95596 1.52855 0
M  V30 3310 N 319.002 4.99118 0.819418 0
M  V30 3311 C 317.3 4.07288 1.81748 0
M  V30 3312 C 318.001 5.78513 0.608053 0
M  V30 3313 N 316.977 5.31117 1.15828 0
M  V30 3314 H 320.779 2.9334 0.181285 0
M  V30 3315 H 318.293 1.624 -0.000452172 0
M  V30 3316 H 320.29 3.23718 2.62702 0
M  V30 3317 H 318.95 2.06702 2.50408 0
M  V30 3318 H 319.961 5.15723 0.47436 0
M  V30 3319 H 316.638 3.42509 2.38734 0
M  V30 3320 H 318.028 6.71885 0.0451619 0
M  V30 3321 N 320.748 -0.0735177 1.57428 0
M  V30 3322 C 321.988 -0.778363 1.89 0
M  V30 3323 C 322.352 -1.7483 0.793634 0
M  V30 3324 O 323.553 -2.49811 0.992367 0
M  V30 3325 C 321.824 -1.46929 3.25802 0
M  V30 3326 S 323.383 -2.20943 3.79117 0
M  V30 3327 H 320.201 -0.258874 0.662197 0
M  V30 3328 H 322.803 -0.0345338 1.95469 0
M  V30 3329 H 321.507 -0.749532 4.03497 0
M  V30 3330 H 321.038 -2.25258 3.22525 0
M  V30 3331 H 323.053 -3.47435 3.54265 0
M  V30 3332 N 322.226 -1.5378 -0.344866 0
M  V30 3333 C 323.472 -1.72158 -1.0832 0
M  V30 3334 C 323.827 -0.478218 -1.86362 0
M  V30 3335 O 323.12 0.529152 -1.84148 0
M  V30 3336 C 323.314 -2.92407 -2.05506 0
M  V30 3337 C 323.143 -4.28318 -1.37017 0
M  V30 3338 C 321.913 -4.92832 -1.11558 0
M  V30 3339 C 324.111 -5.08086 -0.797071 0
M  V30 3340 N 322.093 -6.12619 -0.396358 0
M  V30 3341 C 323.464 -6.1965 -0.208336 0
M  V30 3342 C 325.519 -4.92986 -0.697787 0
M  V30 3343 C 324.222 -7.17763 0.470023 0
M  V30 3344 C 326.248 -5.91391 -0.033171 0
M  V30 3345 C 325.61 -7.02292 0.544599 0
M  V30 3346 H 321.709 -0.683017 -0.380805 0
M  V30 3347 H 324.293 -1.91211 -0.366961 0
M  V30 3348 H 322.464 -2.74857 -2.74423 0
M  V30 3349 H 324.196 -2.9951 -2.72169 0
M  V30 3350 H 320.951 -4.52362 -1.40234 0
M  V30 3351 H 321.375 -6.7698 -0.0515119 0
M  V30 3352 H 326.017 -4.07414 -1.13022 0
M  V30 3353 H 323.735 -8.0291 0.914351 0
M  V30 3354 H 327.321 -5.81784 0.0430009 0
M  V30 3355 H 326.201 -7.77129 1.05073 0
M  V30 3356 N 323.704 0.605807 -1.45491 0
M  V30 3357 C 324.981 1.36522 -1.40075 0
M  V30 3358 C 325.361 2.10976 -0.0722744 0
M  V30 3359 O 324.709 2.08007 0.945808 0
M  V30 3360 C 324.919 2.31056 -2.61561 0
M  V30 3361 C 326.267 2.93608 -3.06724 0
M  V30 3362 O 327.291 2.41376 -2.61946 0
M  V30 3363 O 326.15 3.88421 -3.84437 0
M  V30 3364 H 323.244 0.612248 -0.555951 0
M  V30 3365 H 325.79 0.628747 -1.57623 0
M  V30 3366 H 324.562 1.75311 -3.49831 0
M  V30 3367 H 324.185 3.12081 -2.46356 0
M  V30 3368 N 325.182 1.32811 0.848464 0
M  V30 3369 C 326.428 1.23907 1.60546 0
M  V30 3370 C 326.761 -0.197161 1.93197 0
M  V30 3371 O 326.036 -1.13596 1.5788 0
M  V30 3372 C 326.319 2.10489 2.92175 0
M  V30 3373 C 326.172 3.62522 2.66266 0
M  V30 3374 C 327.491 1.97075 3.93509 0
M  V30 3375 H 324.61 0.451459 0.58254 0
M  V30 3376 H 327.252 1.62818 0.979296 0
M  V30 3377 H 325.402 1.77434 3.45614 0
M  V30 3378 H 327.074 4.05821 2.19334 0
M  V30 3379 H 325.317 3.84879 2.00126 0
M  V30 3380 H 325.988 4.18437 3.6002 0
M  V30 3381 H 328.464 2.26045 3.49346 0
M  V30 3382 H 327.34 2.59923 4.83457 0
M  V30 3383 H 327.601 0.940186 4.31987 0
M  V30 3384 N 326.66 -1.06551 1.16123 0
M  V30 3385 C 327.623 -2.12132 0.867906 0
M  V30 3386 C 328.623 -1.60224 -0.135944 0
M  V30 3387 O 329.813 -1.73943 0.0946422 0
M  V30 3388 C 326.945 -3.396 0.297419 0
M  V30 3389 H 328.138 -2.39586 1.80385 0
M  V30 3390 H 325.691 -1.22574 0.969812 0
M  V30 3391 H 326.426 -3.17794 -0.64633 0
M  V30 3392 H 326.211 -3.78581 1.02073 0
M  V30 3393 H 327.701 -4.17455 0.110052 0
M  V30 3394 N 328.138 -0.959301 -1.25041 0
M  V30 3395 C 329.386 -0.615393 -1.92503 0
M  V30 3396 C 329.707 0.850969 -1.75452 0
M  V30 3397 O 328.977 1.60658 -1.12098 0
M  V30 3398 H 327.557 -0.224613 -0.712431 0
M  V30 3399 H 330.219 -1.21855 -1.5211 0
M  V30 3400 H 329.315 -0.848738 -3.00338 0
M  V30 3401 N 329.616 1.39756 -0.72842 0
M  V30 3402 C 330.579 2.29012 -0.0927297 0
M  V30 3403 C 331.579 1.45992 0.674025 0
M  V30 3404 O 332.769 1.66749 0.50402 0
M  V30 3405 C 329.901 3.29396 0.878137 0
M  V30 3406 H 331.094 2.86729 -0.879011 0
M  V30 3407 H 328.647 1.48293 -0.493847 0
M  V30 3408 H 329.382 2.76722 1.69101 0
M  V30 3409 H 329.167 3.907 0.331051 0
M  V30 3410 H 330.657 3.96199 1.3197 0
M  V30 3411 N 331.094 0.475555 1.50254 0
M  V30 3412 C 332.342 -0.077738 2.0195 0
M  V30 3413 C 332.663 -1.39813 1.35931 0
M  V30 3414 O 331.933 -1.89249 0.506123 0
M  V30 3415 H 330.513 -0.031719 0.746326 0
M  V30 3416 H 333.175 0.626995 1.84539 0
M  V30 3417 H 332.271 -0.225995 3.11281 0
M  V30 3418 N 332.573 -1.56217 0.208337 0
M  V30 3419 C 333.822 -1.97124 -0.427204 0
M  V30 3420 C 334.135 -1.09859 -1.61835 0
M  V30 3421 O 335.341 -1.40606 -2.32255 0
M  V30 3422 C 333.797 -3.50633 -0.811442 0
M  V30 3423 C 333.405 -4.46582 0.35615 0
M  V30 3424 C 335.149 -4.00282 -1.41332 0
M  V30 3425 C 333.056 -5.91379 -0.0497852 0
M  V30 3426 H 331.986 -0.736086 -0.163381 0
M  V30 3427 H 334.637 -1.8099 0.302456 0
M  V30 3428 H 333.019 -3.62319 -1.59815 0
M  V30 3429 H 334.193 -4.46636 1.1337 0
M  V30 3430 H 332.508 -4.07202 0.870396 0
M  V30 3431 H 335.105 -5.0595 -1.72972 0
M  V30 3432 H 335.448 -3.45359 -2.32449 0
M  V30 3433 H 335.981 -3.91764 -0.690323 0
M  V30 3434 H 332.72 -6.50255 0.827529 0
M  V30 3435 H 332.24 -5.94549 -0.791926 0
M  V30 3436 H 333.919 -6.45209 -0.481042 0
M  V30 3437 N 334.051 0.0651679 -1.57465 0
M  V30 3438 C 335.3 0.761916 -1.86756 0
M  V30 3439 C 335.613 1.78406 -0.801925 0
M  V30 3440 O 336.819 2.53084 -0.982885 0
M  V30 3441 C 335.275 1.40603 -3.31299 0
M  V30 3442 C 334.883 0.422115 -4.46007 0
M  V30 3443 C 336.627 2.08476 -3.69781 0
M  V30 3444 C 334.534 1.07252 -5.81593 0
M  V30 3445 H 333.464 0.288308 -0.696702 0
M  V30 3446 H 336.115 0.015344 -1.83494 0
M  V30 3447 H 334.497 2.20109 -3.29193 0
M  V30 3448 H 335.671 -0.343613 -4.59517 0
M  V30 3449 H 333.986 -0.152527 -4.16121 0
M  V30 3450 H 336.583 2.57925 -4.68379 0
M  V30 3451 H 336.926 2.88712 -2.99919 0
M  V30 3452 H 337.459 1.35792 -3.73905 0
M  V30 3453 H 334.198 0.310342 -6.54765 0
M  V30 3454 H 333.718 1.80895 -5.71872 0
M  V30 3455 H 335.397 1.59043 -6.27148 0
M  V30 3456 N 335.529 1.53961 0.336706 0
M  V30 3457 C 336.775 1.7179 1.07777 0
M  V30 3458 C 337.108 0.483263 1.88091 0
M  V30 3459 O 336.383 -0.519747 1.87427 0
M  V30 3460 C 336.666 2.98558 2.01334 0
M  V30 3461 C 336.519 4.32245 1.24437 0
M  V30 3462 C 337.838 3.21023 3.01052 0
M  V30 3463 H 334.957 0.625089 0.390426 0
M  V30 3464 H 337.599 1.86641 0.35567 0
M  V30 3465 H 335.749 2.86028 2.62908 0
M  V30 3466 H 337.421 4.56637 0.654243 0
M  V30 3467 H 335.664 4.30344 0.546458 0
M  V30 3468 H 336.335 5.17137 1.93063 0
M  V30 3469 H 338.811 3.32929 2.49595 0
M  V30 3470 H 337.687 4.11104 3.6371 0
M  V30 3471 H 337.948 2.37637 3.72802 0
M  V30 3472 N 337.007 -0.598083 1.45811 0
M  V30 3473 C 338.235 -1.38322 1.53866 0
M  V30 3474 C 338.65 -1.87992 0.174479 0
M  V30 3475 O 338.007 -1.62756 -0.825627 0
M  V30 3476 C 338.058 -2.58125 2.53089 0
M  V30 3477 O 337.779 -2.10516 3.84206 0
M  V30 3478 C 339.28 -3.50869 2.70935 0
M  V30 3479 H 336.5 -0.423093 0.520801 0
M  V30 3480 H 339.044 -0.728527 1.91083 0
M  V30 3481 H 337.199 -3.19615 2.18917 0
M  V30 3482 H 337.613 -2.88425 4.38077 0
M  V30 3483 H 339.087 -4.31451 3.44317 0
M  V30 3484 H 339.564 -4.01822 1.77301 0
M  V30 3485 H 340.17 -2.95225 3.06141 0
M  V30 3486 N 338.485 -1.33259 -0.841409 0
M  V30 3487 C 339.395 -1.25332 -1.98316 0
M  V30 3488 C 340.411 -0.164364 -1.73222 0
M  V30 3489 O 341.587 -0.387486 -1.97637 0
M  V30 3490 C 338.652 -0.990078 -3.32262 0
M  V30 3491 C 337.713 -2.16879 -3.70489 0
M  V30 3492 C 336.946 -1.91801 -4.98044 0
M  V30 3493 O 337.169 -0.867075 -5.63771 0
M  V30 3494 O 336.103 -2.78267 -5.33714 0
M  V30 3495 H 339.929 -2.21344 -2.07944 0
M  V30 3496 H 337.514 -1.1328 -0.974058 0
M  V30 3497 H 339.396 -0.860321 -4.12524 0
M  V30 3498 H 338.071 -0.0602155 -3.23644 0
M  V30 3499 H 336.978 -2.35407 -2.90748 0
M  V30 3500 H 338.311 -3.0819 -3.8377 0
M  V30 3501 N 339.963 1.05934 -1.16686 0
M  V30 3502 C 340.926 2.11669 -0.879144 0
M  V30 3503 C 341.926 1.60294 0.127445 0
M  V30 3504 O 343.116 1.7389 -0.103865 0
M  V30 3505 C 340.248 3.39438 -0.315425 0
M  V30 3506 H 341.441 2.38626 -1.81653 0
M  V30 3507 H 338.994 1.22058 -0.976299 0
M  V30 3508 H 339.729 3.18132 0.629468 0
M  V30 3509 H 339.514 3.78034 -1.04079 0
M  V30 3510 H 341.004 4.17391 -0.132189 0
M  V30 3511 N 341.441 0.965919 1.2453 0
M  V30 3512 C 342.689 0.625593 1.92174 0
M  V30 3513 C 343.01 -0.841652 1.75901 0
M  V30 3514 O 342.28 -1.60061 1.12948 0
M  V30 3515 H 340.86 0.228388 0.71123 0
M  V30 3516 H 343.522 1.2266 1.51461 0
M  V30 3517 H 342.618 0.864653 2.99884 0
M  V30 3518 N 342.919 -1.39368 0.735821 0
M  V30 3519 C 344.167 -2.00101 0.283562 0
M  V30 3520 C 344.488 -1.5868 -1.13338 0
M  V30 3521 O 343.758 -0.835423 -1.77193 0
M  V30 3522 H 342.338 -0.740024 0.101851 0
M  V30 3523 H 345 -1.70404 0.945962 0
M  V30 3524 H 344.096 -3.10323 0.332604 0
M  V30 3525 N 344.397 -0.483516 -1.5 0
M  V30 3526 C 345.643 0.0672592 -2.02688 0
M  V30 3527 C 345.976 1.38247 -1.36387 0
M  V30 3528 O 345.251 1.88131 -0.493675 0
M  V30 3529 C 345.534 0.238109 -3.59312 0
M  V30 3530 C 345.387 -1.099 -4.36168 0
M  V30 3531 C 346.706 0.986916 -4.28892 0
M  V30 3532 H 343.825 0.0229696 -0.736642 0
M  V30 3533 H 346.467 -0.631527 -1.79197 0
M  V30 3534 H 344.617 0.8333 -3.79458 0
M  V30 3535 H 346.289 -1.73172 -4.27562 0
M  V30 3536 H 344.532 -1.69261 -3.99416 0
M  V30 3537 H 345.203 -0.932954 -5.44059 0
M  V30 3538 H 347.679 0.482302 -4.13295 0
M  V30 3539 H 346.555 1.07527 -5.38265 0
M  V30 3540 H 346.816 2.0265 -3.92919 0
M  V30 3541 N 345.875 1.56104 -0.216619 0
M  V30 3542 C 346.805 2.23063 0.690296 0
M  V30 3543 C 347.786 1.20072 1.20485 0
M  V30 3544 O 348.971 1.48643 1.24976 0
M  V30 3545 C 346.101 2.90672 1.90072 0
M  V30 3546 C 345.055 4.00092 1.5202 0
M  V30 3547 C 344.381 4.54972 2.80899 0
M  V30 3548 C 345.681 5.17398 0.71391 0
M  V30 3549 H 347.375 2.99109 0.132038 0
M  V30 3550 H 344.921 1.43866 0.0620664 0
M  V30 3551 H 346.874 3.36204 2.54057 0
M  V30 3552 H 345.598 2.12066 2.48386 0
M  V30 3553 H 344.257 3.55283 0.903839 0
M  V30 3554 H 343.905 3.73102 3.37348 0
M  V30 3555 H 343.605 5.28817 2.56176 0
M  V30 3556 H 345.129 5.0322 3.45836 0
M  V30 3557 H 346.543 5.59342 1.25735 0
M  V30 3558 H 344.94 5.97444 0.563951 0
M  V30 3559 H 346.01 4.84088 -0.280527 0
M  V30 3560 N 347.353 -0.0568162 1.57498 0
M  V30 3561 C 348.286 -1.09817 2.00039 0
M  V30 3562 C 349.264 -1.3674 0.879819 0
M  V30 3563 O 350.448 -1.49863 1.14338 0
M  V30 3564 C 347.575 -2.43924 2.34986 0
M  V30 3565 C 346.621 -2.33039 3.57204 0
M  V30 3566 S 347.454 -1.7102 5.07457 0
M  V30 3567 C 348.61 -3.06674 5.45621 0
M  V30 3568 H 348.843 -0.735701 2.88053 0
M  V30 3569 H 346.376 -0.265871 1.52094 0
M  V30 3570 H 348.334 -3.2106 2.55795 0
M  V30 3571 H 346.995 -2.77327 1.47474 0
M  V30 3572 H 346.188 -3.31973 3.79223 0
M  V30 3573 H 345.79 -1.64043 3.36104 0
M  V30 3574 H 348.082 -4.03 5.44608 0
M  V30 3575 H 349.025 -2.8942 6.46252 0
M  V30 3576 H 349.433 -3.07969 4.73091 0
M  V30 3577 N 348.832 -1.54138 -0.328536 0
M  V30 3578 C 350.109 -1.62749 -1.08499 0
M  V30 3579 C 350.489 -0.458198 -2.06067 0
M  V30 3580 O 349.837 0.548046 -2.2183 0
M  V30 3581 C 350.047 -2.99519 -1.79135 0
M  V30 3582 C 351.395 -3.55394 -2.32337 0
M  V30 3583 O 352.419 -3.01792 -1.89209 0
M  V30 3584 O 351.278 -4.49186 -3.11279 0
M  V30 3585 H 348.372 -0.65886 -0.499832 0
M  V30 3586 H 350.918 -1.66484 -0.328826 0
M  V30 3587 H 349.69 -3.76061 -1.08139 0
M  V30 3588 H 349.313 -2.99441 -2.61574 0
M  V30 3589 N 350.31 0.590341 -1.46126 0
M  V30 3590 C 351.556 1.35082 -1.51264 0
M  V30 3591 C 351.889 1.93534 -0.160711 0
M  V30 3592 O 351.164 1.76045 0.826956 0
M  V30 3593 C 351.447 2.48588 -2.6053 0
M  V30 3594 C 351.3 1.95221 -4.05227 0
M  V30 3595 C 352.619 3.50662 -2.6594 0
M  V30 3596 H 349.738 0.489803 -0.550692 0
M  V30 3597 H 352.38 0.663887 -1.78024 0
M  V30 3598 H 350.53 3.07186 -2.37843 0
M  V30 3599 H 352.202 1.41139 -4.39178 0
M  V30 3600 H 350.445 1.26101 -4.15068 0
M  V30 3601 H 351.116 2.77121 -4.77397 0
M  V30 3602 H 353.592 3.01934 -2.86313 0
M  V30 3603 H 352.468 4.27551 -3.44226 0
M  V30 3604 H 352.729 4.07399 -1.71694 0
M  V30 3605 N 351.788 1.33704 0.83433 0
M  V30 3606 C 353.016 1.28467 1.62185 0
M  V30 3607 C 353.431 -0.143526 1.88254 0
M  V30 3608 O 352.788 -1.08709 1.4659 0
M  V30 3609 C 352.839 2.06174 2.96942 0
M  V30 3610 O 352.56 3.43422 2.72016 0
M  V30 3611 C 354.061 2.08201 3.91366 0
M  V30 3612 H 351.281 0.4424 0.504503 0
M  V30 3613 H 353.825 1.76145 1.03891 0
M  V30 3614 H 351.98 1.62167 3.51825 0
M  V30 3615 H 352.394 3.83453 3.57861 0
M  V30 3616 H 353.868 2.67017 4.83121 0
M  V30 3617 H 354.345 1.07343 4.2588 0
M  V30 3618 H 354.951 2.52246 3.42421 0
M  V30 3619 N 353.266 -1.05314 1.17247 0
M  V30 3620 C 354.514 -1.77941 0.958194 0
M  V30 3621 C 354.835 -1.88089 -0.514556 0
M  V30 3622 O 354.105 -1.39676 -1.37359 0
M  V30 3623 H 352.685 -0.659116 0.351533 0
M  V30 3624 H 355.347 -1.27166 1.47699 0
M  V30 3625 H 354.443 -2.79663 1.38546 0
M  V30 3626 N 354.744 -0.972509 -1.24016 0
M  V30 3627 C 355.992 -0.635776 -1.91839 0
M  V30 3628 C 356.313 0.832312 -1.76345 0
M  V30 3629 O 355.583 1.5946 -1.13795 0
M  V30 3630 H 354.163 -0.232157 -0.710009 0
M  V30 3631 H 356.825 -1.23462 -1.50809 0
M  V30 3632 H 355.921 -0.880545 -2.99421 0
M  V30 3633 N 356.222 1.38976 -0.743202 0
M  V30 3634 C 357.633 1.83123 -0.363732 0
M  V30 3635 C 357.984 1.6205 1.10609 0
M  V30 3636 O 357.109 1.11606 1.854 0
M  V30 3637 C 357.704 3.32439 -0.653408 0
M  V30 3638 C 356.263 3.74974 -0.327338 0
M  V30 3639 C 355.41 2.61878 -0.911875 0
M  V30 3640 H 358.361 1.27852 -0.940191 0
M  V30 3641 H 358.382 3.80432 0.0720031 0
M  V30 3642 H 357.894 3.47745 -1.72323 0
M  V30 3643 H 355.995 3.65252 0.736314 0
M  V30 3644 H 356.108 4.72106 -0.815631 0
M  V30 3645 H 354.472 2.52448 -0.337944 0
M  V30 3646 H 355.255 2.79987 -1.98651 0
M  V30 3647 N 357.7 0.491464 1.49741 0
M  V30 3648 C 358.947 -0.0564256 2.02421 0
M  V30 3649 C 359.275 -1.37872 1.37192 0
M  V30 3650 O 358.53 -1.89375 0.493508 0
M  V30 3651 C 358.829 -0.267329 3.56399 0
M  V30 3652 C 358.495 0.975775 4.40215 0
M  V30 3653 C 357.157 1.31655 4.62839 0
M  V30 3654 C 359.509 1.80251 4.89039 0
M  V30 3655 C 356.837 2.48375 5.31532 0
M  V30 3656 C 359.189 2.96116 5.59015 0
M  V30 3657 C 357.853 3.30585 5.79888 0
M  V30 3658 H 357.123 -0.0206476 0.740712 0
M  V30 3659 H 359.77 0.649686 1.80143 0
M  V30 3660 H 358.075 -1.05588 3.77304 0
M  V30 3661 H 359.772 -0.705549 3.94744 0
M  V30 3662 H 356.362 0.700315 4.2284 0
M  V30 3663 H 360.546 1.55239 4.71396 0
M  V30 3664 H 355.802 2.7533 5.45897 0
M  V30 3665 H 359.976 3.60509 5.95824 0
M  V30 3666 H 357.603 4.21132 6.32892 0
M  V30 3667 N 359.178 -1.55987 0.224894 0
M  V30 3668 C 360.455 -1.90232 -0.455083 0
M  V30 3669 C 360.835 -1.14269 -1.77499 0
M  V30 3670 O 360.183 -0.253079 -2.27094 0
M  V30 3671 C 360.393 -3.42993 -0.644758 0
M  V30 3672 C 361.741 -4.13821 -0.950669 0
M  V30 3673 O 362.765 -3.4861 -0.731423 0
M  V30 3674 O 361.624 -5.29128 -1.36695 0
M  V30 3675 H 358.718 -0.79108 -0.241084 0
M  V30 3676 H 361.264 -1.67581 0.267327 0
M  V30 3677 H 360.036 -3.90252 0.28613 0
M  V30 3678 H 359.659 -3.71434 -1.41853 0
M  V30 3679 N 360.656 0.0484629 -1.57525 0
M  V30 3680 C 361.586 1.0549 -2.08313 0
M  V30 3681 C 362.567 1.38929 -0.981463 0
M  V30 3682 O 363.752 1.48151 -1.25558 0
M  V30 3683 C 360.882 2.36162 -2.54646 0
M  V30 3684 C 359.836 2.17016 -3.68901 0
M  V30 3685 C 359.162 3.53278 -4.01371 0
M  V30 3686 C 360.462 1.57219 -4.98076 0
M  V30 3687 H 362.156 0.632195 -2.92649 0
M  V30 3688 H 359.702 0.302654 -1.40784 0
M  V30 3689 H 361.655 3.06882 -2.88793 0
M  V30 3690 H 360.379 2.80456 -1.67368 0
M  V30 3691 H 359.038 1.48733 -3.35073 0
M  V30 3692 H 358.686 3.95185 -3.11188 0
M  V30 3693 H 358.386 3.41299 -4.78318 0
M  V30 3694 H 359.91 4.25391 -4.38035 0
M  V30 3695 H 361.324 2.17832 -5.30304 0
M  V30 3696 H 359.721 1.55871 -5.79503 0
M  V30 3697 H 360.791 0.535956 -4.81929 0
M  V30 3698 N 362.134 1.5431 0.320358 0
M  V30 3699 C 363.067 1.78769 1.41834 0
M  V30 3700 C 364.045 0.63783 1.49568 0
M  V30 3701 O 365.229 0.875628 1.66928 0
M  V30 3702 C 362.356 1.90712 2.79905 0
M  V30 3703 C 361.402 3.13023 2.89687 0
M  V30 3704 S 362.235 4.71554 2.53766 0
M  V30 3705 C 363.391 4.86408 3.93902 0
M  V30 3706 H 363.624 2.71619 1.20874 0
M  V30 3707 H 361.157 1.45474 0.517377 0
M  V30 3708 H 363.115 1.98279 3.59438 0
M  V30 3709 H 361.776 0.988343 2.98145 0
M  V30 3710 H 360.969 3.18124 3.90913 0
M  V30 3711 H 360.571 3.03803 2.18128 0
M  V30 3712 H 362.863 4.69241 4.88691 0
M  V30 3713 H 363.806 5.88508 3.93782 0
M  V30 3714 H 364.214 4.14689 3.83005 0
M  V30 3715 N 363.613 -0.582584 1.46437 0
M  V30 3716 C 364.838 -1.37168 1.55563 0
M  V30 3717 C 365.263 -1.87061 0.19743 0
M  V30 3718 O 364.621 -1.61572 -0.822451 0
M  V30 3719 C 364.669 -2.53511 2.56446 0
M  V30 3720 O 363.773 -3.54953 2.09958 0
M  V30 3721 H 363.114 -0.408494 0.523477 0
M  V30 3722 H 365.644 -0.706646 1.9201 0
M  V30 3723 H 365.654 -3.00426 2.76058 0
M  V30 3724 H 364.329 -2.16549 3.55076 0
M  V30 3725 H 362.906 -3.14516 2.00334 0
M  V30 3726 N 365.091 -1.34144 -0.827227 0
M  V30 3727 C 366.507 -1.13732 -1.11969 0
M  V30 3728 C 366.707 0.0640463 -2.01398 0
M  V30 3729 O 365.763 0.740856 -2.41387 0
M  V30 3730 C 367.076 -2.43047 -1.77055 0
M  V30 3731 C 368.624 -2.49063 -1.89569 0
M  V30 3732 C 369.099 -3.78369 -2.58072 0
M  V30 3733 N 370.59 -3.79505 -2.65575 0
M  V30 3734 C 371.325 -4.76274 -3.19297 0
M  V30 3735 N 370.821 -5.83424 -3.73616 0
M  V30 3736 N 372.614 -4.63735 -3.17658 0
M  V30 3737 H 364.765 -2.11126 -0.232296 0
M  V30 3738 H 367.028 -0.933424 -0.165602 0
M  V30 3739 H 366.734 -3.31025 -1.18807 0
M  V30 3740 H 366.608 -2.56066 -2.76966 0
M  V30 3741 H 368.995 -1.61527 -2.46968 0
M  V30 3742 H 369.076 -2.39975 -0.885745 0
M  V30 3743 H 368.72 -4.66293 -2.01329 0
M  V30 3744 H 368.65 -3.84737 -3.59562 0
M  V30 3745 H 371.141 -3.02074 -2.27068 0
M  V30 3746 H 371.454 -6.53282 -4.12846 0
M  V30 3747 H 369.799 -5.87143 -3.71871 0
M  V30 3748 H 372.99 -3.79177 -2.74486 0
M  V30 3749 H 373.163 -5.39318 -3.59221 0
M  V30 3750 N 366.569 1.04691 -1.17803 0
M  V30 3751 C 367.985 1.29963 -0.926379 0
M  V30 3752 C 368.185 1.97251 0.411635 0
M  V30 3753 O 367.241 2.24922 1.14744 0
M  V30 3754 C 368.554 2.16447 -2.08737 0
M  V30 3755 C 370.102 2.29814 -2.12496 0
M  V30 3756 C 370.577 3.19661 -3.27995 0
M  V30 3757 N 372.068 3.27247 -3.27816 0
M  V30 3758 C 372.803 3.96906 -4.13827 0
M  V30 3759 N 372.299 4.6895 -5.09959 0
M  V30 3760 N 374.092 3.93122 -4.01761 0
M  V30 3761 H 366.243 0.594182 -2.0392 0
M  V30 3762 H 368.506 0.324649 -0.890678 0
M  V30 3763 H 368.212 1.74304 -3.05469 0
M  V30 3764 H 368.086 3.17103 -2.04268 0
M  V30 3765 H 370.473 2.71196 -1.16347 0
M  V30 3766 H 370.554 1.2877 -2.21025 0
M  V30 3767 H 370.198 2.78991 -4.24413 0
M  V30 3768 H 370.128 4.20722 -3.16703 0
M  V30 3769 H 372.619 2.75921 -2.58217 0
M  V30 3770 H 372.932 5.19679 -5.71974 0
M  V30 3771 H 371.277 4.67875 -5.13924 0
M  V30 3772 H 374.468 3.35967 -3.2595 0
M  V30 3773 H 374.641 4.47139 -4.6901 0
M  V30 3774 N 368.047 0.979072 1.23499 0
M  V30 3775 C 369.293 0.648178 1.92163 0
M  V30 3776 C 369.626 -0.816049 1.76222 0
M  V30 3777 O 368.901 -1.58849 1.12237 0
M  V30 3778 C 369.184 1.03773 3.44824 0
M  V30 3779 C 369.037 2.55948 3.69879 0
M  V30 3780 C 370.356 0.580653 4.36253 0
M  V30 3781 H 367.475 0.236952 0.69787 0
M  V30 3782 H 370.117 1.22012 1.45647 0
M  V30 3783 H 368.267 0.551058 3.84572 0
M  V30 3784 H 369.939 3.12179 3.3962 0
M  V30 3785 H 368.182 2.98641 3.14636 0
M  V30 3786 H 368.853 2.78255 4.76737 0
M  V30 3787 H 371.329 0.998465 4.03943 0
M  V30 3788 H 370.205 0.881663 5.41773 0
M  V30 3789 H 370.466 -0.519052 4.39042 0
M  V30 3790 N 369.525 -1.3858 0.750561 0
M  V30 3791 C 370.774 -1.99424 0.302172 0
M  V30 3792 C 371.087 -1.60254 -1.12152 0
M  V30 3793 O 372.293 -2.14046 -1.67023 0
M  V30 3794 C 370.749 -3.56558 0.489307 0
M  V30 3795 C 370.357 -4.04682 1.92189 0
M  V30 3796 C 372.101 -4.24374 0.103478 0
M  V30 3797 C 370.008 -5.54446 2.05775 0
M  V30 3798 H 368.938 -0.746046 0.10923 0
M  V30 3799 H 371.589 -1.58383 0.92667 0
M  V30 3800 H 369.971 -3.95472 -0.204329 0
M  V30 3801 H 371.145 -3.77065 2.64875 0
M  V30 3802 H 369.46 -3.4958 2.26236 0
M  V30 3803 H 372.057 -5.34384 0.183787 0
M  V30 3804 H 372.4 -4.05468 -0.943481 0
M  V30 3805 H 372.933 -3.90688 0.748854 0
M  V30 3806 H 369.672 -5.78252 3.08714 0
M  V30 3807 H 369.192 -5.83816 1.37546 0
M  V30 3808 H 370.871 -6.20099 1.84626 0
M  V30 3809 N 371.003 -0.499398 -1.49478 0
M  V30 3810 C 371.966 0.268838 -2.27618 0
M  V30 3811 C 372.966 0.895383 -1.33565 0
M  V30 3812 O 374.156 0.760164 -1.56739 0
M  V30 3813 C 371.288 1.38559 -3.11471 0
M  V30 3814 H 372.481 -0.416812 -2.96989 0
M  V30 3815 H 370.034 -0.254313 -1.54217 0
M  V30 3816 H 370.769 2.10544 -2.46661 0
M  V30 3817 H 370.554 0.941797 -3.80621 0
M  V30 3818 H 372.044 1.92678 -3.70493 0
M  V30 3819 N 372.481 1.55866 -0.233164 0
M  V30 3820 C 373.444 2.1953 0.658715 0
M  V30 3821 C 374.444 1.16053 1.11303 0
M  V30 3822 O 375.634 1.41218 1.01996 0
M  V30 3823 C 372.766 2.82791 1.90373 0
M  V30 3824 H 373.959 2.99721 0.10347 0
M  V30 3825 H 371.512 1.56291 0.0164245 0
M  V30 3826 H 372.247 2.06501 2.50056 0
M  V30 3827 H 372.032 3.58578 1.58632 0
M  V30 3828 H 373.522 3.31556 2.53891 0
M  V30 3829 N 373.959 -0.0401083 1.57549 0
M  V30 3830 C 374.907 -1.06264 2.06908 0
M  V30 3831 C 375.901 -1.38132 0.980608 0
M  V30 3832 O 377.107 -1.37167 1.16556 0
M  V30 3833 H 373.482 -0.360166 0.660139 0
M  V30 3834 H 375.453 -0.620445 2.91878 0
M  V30 3835 C 374.202 -2.35846 2.55483 0
M  V30 3836 H 373.525 -2.12183 3.38849 0
M  V30 3837 H 374.965 -3.05765 2.93741 0
M  V30 3838 C 373.424 -3.0404 1.45126 0
M  V30 3839 O 373.954 -3.93424 0.811216 0
M  V30 3840 N 372.16 -2.65184 1.18852 0
M  V30 3841 H 371.707 -1.92584 1.71083 0
M  V30 3842 H 371.665 -3.1113 0.452244 0
M  V30 3843 N 375.437 -1.54477 -0.31217 0
M  V30 3844 C 376.385 -1.85395 -1.40469 0
M  V30 3845 C 377.379 -0.726749 -1.53019 0
M  V30 3846 O 378.585 -0.910582 -1.55269 0
M  V30 3847 H 374.96 -0.587845 -0.46898 0
M  V30 3848 H 376.931 -2.76736 -1.11623 0
M  V30 3849 C 375.68 -2.10811 -2.76503 0
M  V30 3850 H 375.003 -2.97014 -2.67625 0
M  V30 3851 H 376.443 -2.3639 -3.51988 0
M  V30 3852 C 374.902 -0.903165 -3.24568 0
M  V30 3853 O 375.432 -0.118085 -4.01526 0
M  V30 3854 N 373.638 -0.711634 -2.81752 0
M  V30 3855 H 373.185 -1.35171 -2.19286 0
M  V30 3856 H 373.143 0.0930473 -3.14262 0
M  V30 3857 N 376.915 0.57481 -1.46744 0
M  V30 3858 C 378.331 0.898981 -1.31873 0
M  V30 3859 C 378.531 1.99313 -0.29605 0
M  V30 3860 O 377.587 2.50728 0.298621 0
M  V30 3861 C 378.9 1.30886 -2.7072 0
M  V30 3862 C 380.448 1.42127 -2.78871 0
M  V30 3863 C 380.923 1.86478 -4.18318 0
M  V30 3864 N 382.414 1.93658 -4.20774 0
M  V30 3865 C 383.149 2.29267 -5.2557 0
M  V30 3866 N 382.645 2.63612 -6.40688 0
M  V30 3867 N 384.438 2.29889 -5.1294 0
M  V30 3868 H 376.589 -0.147839 -2.11885 0
M  V30 3869 H 378.852 -0.00347013 -0.947994 0
M  V30 3870 H 378.558 0.578853 -3.46904 0
M  V30 3871 H 378.432 2.26874 -3.01343 0
M  V30 3872 H 380.819 2.14213 -2.0297 0
M  V30 3873 H 380.9 0.443705 -2.51922 0
M  V30 3874 H 380.544 1.14968 -4.94717 0
M  V30 3875 H 380.474 2.85207 -4.42679 0
M  V30 3876 H 382.965 1.69574 -3.37718 0
M  V30 3877 H 383.278 2.89759 -7.16421 0
M  V30 3878 H 381.623 2.61232 -6.44036 0
M  V30 3879 H 384.814 2.02485 -4.22039 0
M  V30 3880 H 384.987 2.57312 -5.94722 0
M  V30 3881 N 378.394 1.34581 0.820102 0
M  V30 3882 C 379.643 1.26437 1.57151 0
M  V30 3883 C 379.956 -0.163111 1.94919 0
M  V30 3884 O 381.162 -0.366722 2.69012 0
M  V30 3885 C 379.618 2.21658 2.83541 0
M  V30 3886 C 379.226 3.69679 2.53065 0
M  V30 3887 C 380.97 2.22428 3.61561 0
M  V30 3888 C 378.877 4.56761 3.75664 0
M  V30 3889 H 377.807 0.469707 0.589823 0
M  V30 3890 H 380.458 1.59763 0.902656 0
M  V30 3891 H 378.84 1.81287 3.52067 0
M  V30 3892 H 380.014 4.18605 1.92631 0
M  V30 3893 H 378.329 3.71384 1.88316 0
M  V30 3894 H 380.926 2.8471 4.52597 0
M  V30 3895 H 381.269 1.22434 3.97889 0
M  V30 3896 H 381.802 2.61259 2.99981 0
M  V30 3897 H 378.541 5.57702 3.44454 0
M  V30 3898 H 378.061 4.12568 4.35371 0
M  V30 3899 H 379.74 4.71509 4.43044 0
M  V30 3900 N 379.872 -1.04064 1.18357 0
M  V30 3901 C 380.802 -2.14001 0.934113 0
M  V30 3902 C 381.783 -1.69616 -0.128186 0
M  V30 3903 O 382.968 -1.94185 0.0244093 0
M  V30 3904 C 380.098 -3.44253 0.459066 0
M  V30 3905 C 379.052 -4.02261 1.46185 0
M  V30 3906 C 378.378 -5.27992 0.844322 0
M  V30 3907 C 379.678 -4.38432 2.83856 0
M  V30 3908 H 381.372 -2.35127 1.85352 0
M  V30 3909 H 378.918 -1.12998 0.892604 0
M  V30 3910 H 380.871 -4.20522 0.271907 0
M  V30 3911 H 379.595 -3.22813 -0.495912 0
M  V30 3912 H 378.254 -3.28074 1.63595 0
M  V30 3913 H 377.902 -5.02862 -0.117845 0
M  V30 3914 H 377.602 -5.67765 1.51384 0
M  V30 3915 H 379.126 -6.06938 0.667693 0
M  V30 3916 H 380.54 -5.05688 2.70098 0
M  V30 3917 H 378.937 -4.89254 3.47491 0
M  V30 3918 H 380.007 -3.4826 3.37406 0
M  V30 3919 N 381.35 -0.985608 -1.22978 0
M  V30 3920 C 382.313 -0.535071 -2.22867 0
M  V30 3921 C 383.313 0.378123 -1.56291 0
M  V30 3922 O 384.503 0.171092 -1.73358 0
M  V30 3923 C 381.635 0.222702 -3.40172 0
M  V30 3924 H 382.828 -1.41835 -2.6424 0
M  V30 3925 H 380.381 -0.772042 -1.35901 0
M  V30 3926 H 381.116 1.12229 -3.04262 0
M  V30 3927 H 380.901 -0.43288 -3.89703 0
M  V30 3928 H 382.391 0.526335 -4.1427 0
M  V30 3929 N 382.828 1.3818 -0.7579 0
M  V30 3930 C 383.738 2.3421 -0.135247 0
M  V30 3931 C 384.754 1.59487 0.695683 0
M  V30 3932 O 385.93 1.91657 0.618832 0
M  V30 3933 C 382.995 3.3862 0.744139 0
M  V30 3934 C 382.056 4.2918 -0.101658 0
M  V30 3935 C 381.289 5.28603 0.735851 0
M  V30 3936 O 381.512 5.35166 1.97366 0
M  V30 3937 O 380.446 6.01707 0.152372 0
M  V30 3938 H 384.272 2.8916 -0.928436 0
M  V30 3939 H 381.857 1.40101 -0.518855 0
M  V30 3940 H 383.739 4.02539 1.2466 0
M  V30 3941 H 382.414 2.86019 1.51575 0
M  V30 3942 H 381.321 3.68407 -0.650167 0
M  V30 3943 H 382.654 4.85048 -0.836024 0
M  V30 3944 N 384.306 0.507319 1.49211 0
M  V30 3945 C 385.722 0.163682 1.58758 0
M  V30 3946 C 385.922 -1.33208 1.51188 0
M  V30 3947 O 384.978 -2.10855 1.38911 0
M  V30 3948 C 386.291 0.746095 2.91297 0
M  V30 3949 C 387.839 0.712773 3.04776 0
M  V30 3950 C 388.314 1.27336 4.39943 0
M  V30 3951 N 389.805 1.23433 4.46451 0
M  V30 3952 C 390.54 1.63821 5.495 0
M  V30 3953 N 390.036 2.11832 6.5962 0
M  V30 3954 N 391.829 1.55198 5.4025 0
M  V30 3955 H 383.98 1.47972 1.52375 0
M  V30 3956 H 386.243 0.614147 0.722168 0
M  V30 3957 H 385.949 1.79534 3.02424 0
M  V30 3958 H 385.823 0.210137 3.76614 0
M  V30 3959 H 388.21 -0.327656 2.93275 0
M  V30 3960 H 388.291 1.28595 2.21127 0
M  V30 3961 H 387.935 2.3126 4.52196 0
M  V30 3962 H 387.865 0.676066 5.22242 0
M  V30 3963 H 390.356 0.882627 3.67448 0
M  V30 3964 H 390.669 2.40703 7.34358 0
M  V30 3965 H 389.014 2.1581 6.60644 0
M  V30 3966 H 392.205 1.17505 4.53112 0
M  V30 3967 H 392.378 1.86997 6.20432 0
M  V30 3968 N 385.784 -1.5574 0.241426 0
M  V30 3969 C 387.033 -1.97986 -0.385295 0
M  V30 3970 C 387.346 -1.13267 -1.59468 0
M  V30 3971 O 388.552 -1.45501 -2.2922 0
M  V30 3972 C 387.008 -3.52275 -0.736884 0
M  V30 3973 C 386.616 -4.45726 0.450796 0
M  V30 3974 C 388.36 -4.03189 -1.3281 0
M  V30 3975 C 386.267 -5.91352 0.0756662 0
M  V30 3976 H 385.197 -0.739386 -0.147731 0
M  V30 3977 H 387.848 -1.80308 0.340779 0
M  V30 3978 H 386.23 -3.65628 -1.52094 0
M  V30 3979 H 387.404 -4.44131 1.22819 0
M  V30 3980 H 385.719 -4.05264 0.956573 0
M  V30 3981 H 388.316 -5.09505 -1.62201 0
M  V30 3982 H 388.659 -3.50212 -2.25071 0
M  V30 3983 H 389.192 -3.93141 -0.607069 0
M  V30 3984 H 385.931 -6.48354 0.965272 0
M  V30 3985 H 385.451 -5.96095 -0.665635 0
M  V30 3986 H 387.13 -6.46084 -0.344075 0
M  V30 3987 N 387.262 0.0317525 -1.57568 0
M  V30 3988 C 388.225 1.01783 -2.0536 0
M  V30 3989 C 389.225 1.29203 -0.957253 0
M  V30 3990 O 390.415 1.24251 -1.22095 0
M  V30 3991 C 387.547 2.35137 -2.46827 0
M  V30 3992 H 388.74 0.605062 -2.93733 0
M  V30 3993 H 386.293 0.278514 -1.53799 0
M  V30 3994 H 387.028 2.81168 -1.61602 0
M  V30 3995 H 386.813 2.16566 -3.26866 0
M  V30 3996 H 388.303 3.05938 -2.84239 0
M  V30 3997 N 388.74 1.54641 0.303973 0
M  V30 3998 C 389.687 1.85386 1.37479 0
M  V30 3999 C 390.657 0.702528 1.50512 0
M  V30 4000 O 391.842 0.950867 1.65418 0
M  V30 4001 C 388.982 2.10413 2.73533 0
M  V30 4002 C 388.095 3.38049 2.68974 0
M  V30 4003 C 387.23 3.52934 3.97002 0
M  V30 4004 C 386.269 4.74373 3.86829 0
M  V30 4005 N 385.406 4.8608 5.06627 0
M  V30 4006 H 390.246 2.76732 1.1056 0
M  V30 4007 H 387.783 1.37034 0.534805 0
M  V30 4008 H 389.741 2.22919 3.52652 0
M  V30 4009 H 388.371 1.22338 2.98719 0
M  V30 4010 H 387.423 3.3418 1.81736 0
M  V30 4011 H 388.735 4.27288 2.57346 0
M  V30 4012 H 387.889 3.65088 4.84557 0
M  V30 4013 H 386.628 2.61824 4.1146 0
M  V30 4014 H 385.633 4.62255 2.97658 0
M  V30 4015 H 386.858 5.66888 3.73918 0
M  V30 4016 H 384.804 3.97891 5.21554 0
M  V30 4017 H 384.721 5.69315 4.9741 0
M  V30 4018 H 385.989 5.02587 5.95841 0
M  V30 4019 N 390.218 -0.567019 1.47046 0
M  V30 4020 C 391.128 -1.70247 1.6141 0
M  V30 4021 C 392.144 -1.66746 0.497157 0
M  V30 4022 O 393.32 -1.86371 0.763389 0
M  V30 4023 C 390.385 -3.06756 1.61561 0
M  V30 4024 C 389.446 -3.21399 2.84607 0
M  V30 4025 C 388.679 -4.51396 2.84741 0
M  V30 4026 O 388.902 -5.36255 1.94388 0
M  V30 4027 O 387.836 -4.69621 3.76483 0
M  V30 4028 H 391.662 -1.61073 2.57467 0
M  V30 4029 H 389.247 -0.735894 1.30019 0
M  V30 4030 H 391.129 -3.8801 1.64396 0
M  V30 4031 H 389.804 -3.16333 0.686684 0
M  V30 4032 H 388.711 -2.39579 2.8732 0
M  V30 4033 H 390.044 -3.16721 3.76761 0
M  V30 4034 N 391.696 -1.35014 -0.812953 0
M  V30 4035 C 392.945 -1.27269 -1.56479 0
M  V30 4036 C 393.258 0.152771 -1.95002 0
M  V30 4037 O 394.464 0.352451 -2.69203 0
M  V30 4038 C 392.92 -2.23159 -2.82362 0
M  V30 4039 C 392.528 -3.71016 -2.511 0
M  V30 4040 C 394.272 -2.24342 -3.60376 0
M  V30 4041 C 392.179 -4.58746 -3.73237 0
M  V30 4042 H 391.109 -0.472829 -0.587324 0
M  V30 4043 H 393.76 -1.6024 -0.894171 0
M  V30 4044 H 392.142 -1.83151 -3.51101 0
M  V30 4045 H 393.316 -4.1962 -1.90409 0
M  V30 4046 H 391.631 -3.72378 -1.86343 0
M  V30 4047 H 394.228 -2.87107 -4.51081 0
M  V30 4048 H 394.571 -1.24542 -3.97234 0
M  V30 4049 H 395.104 -2.62846 -2.98591 0
M  V30 4050 H 391.843 -5.59521 -3.41492 0
M  V30 4051 H 391.363 -4.14871 -4.33176 0
M  V30 4052 H 393.042 -4.73852 -4.40537 0
M  V30 4053 N 393.175 1.03435 -1.18907 0
M  V30 4054 C 394.107 2.1165 -0.879595 0
M  V30 4055 C 395.12 1.62316 0.125439 0
M  V30 4056 O 396.309 1.78201 -0.103245 0
M  V30 4057 C 393.409 3.37622 -0.294042 0
M  V30 4058 C 392.582 4.16166 -1.34629 0
M  V30 4059 C 391.641 5.20457 -0.775274 0
M  V30 4060 O 390.667 5.50379 -1.4516 0
M  V30 4061 N 391.869 5.78949 0.424126 0
M  V30 4062 H 394.634 2.38791 -1.81105 0
M  V30 4063 H 392.195 1.19681 -1.09032 0
M  V30 4064 H 394.187 4.04572 0.101679 0
M  V30 4065 H 392.757 3.07873 0.541575 0
M  V30 4066 H 391.977 3.44444 -1.91707 0
M  V30 4067 H 393.265 4.65432 -2.05549 0
M  V30 4068 H 392.663 5.56948 0.991209 0
M  V30 4069 H 391.22 6.47334 0.761691 0
M  V30 4070 N 394.653 0.992116 1.22453 0
M  V30 4071 C 395.899 0.668523 1.91464 0
M  V30 4072 C 396.232 -0.797313 1.77078 0
M  V30 4073 O 395.507 -1.5765 1.13916 0
M  V30 4074 C 395.79 1.07424 3.43703 0
M  V30 4075 C 395.643 2.59857 3.67143 0
M  V30 4076 C 396.962 0.626891 4.35612 0
M  V30 4077 H 394.081 0.244341 0.695318 0
M  V30 4078 H 396.723 1.2355 1.44345 0
M  V30 4079 H 394.873 0.591816 3.83966 0
M  V30 4080 H 396.545 3.15764 3.3629 0
M  V30 4081 H 394.788 3.01961 3.11451 0
M  V30 4082 H 395.459 2.83296 4.73759 0
M  V30 4083 H 397.935 1.04125 4.02861 0
M  V30 4084 H 396.811 0.939076 5.40807 0
M  V30 4085 H 397.072 -0.472457 4.39568 0
M  V30 4086 N 396.131 -1.37776 0.765217 0
M  V30 4087 C 397.38 -1.99092 0.323307 0
M  V30 4088 C 397.693 -1.61434 -1.10446 0
M  V30 4089 O 398.899 -2.15805 -1.64743 0
M  V30 4090 C 397.355 -3.56019 0.527098 0
M  V30 4091 C 396.963 -4.0262 1.96471 0
M  V30 4092 C 398.707 -4.2424 0.148483 0
M  V30 4093 C 396.614 -5.52233 2.11644 0
M  V30 4094 H 395.544 -0.744846 0.117137 0
M  V30 4095 H 398.195 -1.57391 0.943417 0
M  V30 4096 H 396.577 -3.95667 -0.162372 0
M  V30 4097 H 397.751 -3.74234 2.68859 0
M  V30 4098 H 396.066 -3.47161 2.29931 0
M  V30 4099 H 398.663 -5.34159 0.240456 0
M  V30 4100 H 399.006 -4.06446 -0.900422 0
M  V30 4101 H 399.539 -3.89872 0.79025 0
M  V30 4102 H 396.278 -5.74945 3.1483 0
M  V30 4103 H 395.798 -5.82324 1.4373 0
M  V30 4104 H 397.477 -6.18106 1.91193 0
M  V30 4105 N 397.609 -0.515225 -1.4894 0
M  V30 4106 C 399.02 -0.0710067 -1.86565 0
M  V30 4107 C 399.371 1.34733 -1.42623 0
M  V30 4108 O 398.496 2.00653 -0.810379 0
M  V30 4109 C 399.091 -0.122083 -3.3858 0
M  V30 4110 C 397.65 0.266863 -3.75453 0
M  V30 4111 C 396.797 -0.488376 -2.72966 0
M  V30 4112 H 399.748 -0.727266 -1.41055 0
M  V30 4113 H 399.769 0.669818 -3.74558 0
M  V30 4114 H 399.281 -1.15448 -3.70531 0
M  V30 4115 H 397.382 1.30196 -3.49113 0
M  V30 4116 H 397.495 -0.0624811 -4.79059 0
M  V30 4117 H 395.859 0.0635622 -2.54621 0
M  V30 4118 H 396.642 -1.52113 -3.07761 0
M  V30 4119 N 399.087 1.5561 -0.249682 0
M  V30 4120 C 400.017 2.24477 0.642826 0
M  V30 4121 C 400.998 1.22601 1.17911 0
M  V30 4122 O 402.183 1.5126 1.21795 0
M  V30 4123 C 399.313 2.94638 1.83863 0
M  V30 4124 C 398.267 4.03227 1.435 0
M  V30 4125 C 397.593 4.60828 2.71186 0
M  V30 4126 C 398.893 5.18796 0.604002 0
M  V30 4127 H 400.587 2.99321 0.0685625 0
M  V30 4128 H 398.133 1.43965 0.0315363 0
M  V30 4129 H 400.086 3.41517 2.46868 0
M  V30 4130 H 398.81 2.17287 2.43832 0
M  V30 4131 H 397.469 3.57121 0.828275 0
M  V30 4132 H 397.117 3.80174 3.29358 0
M  V30 4133 H 396.817 5.34132 2.44901 0
M  V30 4134 H 398.341 5.10442 3.35084 0
M  V30 4135 H 399.755 5.61883 1.13842 0
M  V30 4136 H 398.152 5.98506 0.437097 0
M  V30 4137 H 399.222 4.83384 -0.383147 0
M  V30 4138 N 400.565 -0.0233959 1.57583 0
M  V30 4139 C 401.497 -1.04994 2.03737 0
M  V30 4140 C 402.51 -1.32125 0.951152 0
M  V30 4141 O 403.699 -1.29512 1.22837 0
M  V30 4142 C 400.799 -2.39026 2.40249 0
M  V30 4143 C 399.972 -2.31171 3.7132 0
M  V30 4144 C 399.031 -3.47698 3.94959 0
M  V30 4145 O 398.057 -3.26937 4.65941 0
M  V30 4146 N 399.259 -4.6976 3.41037 0
M  V30 4147 H 402.024 -0.656507 2.92421 0
M  V30 4148 H 399.585 -0.211235 1.60516 0
M  V30 4149 H 401.577 -3.15712 2.53196 0
M  V30 4150 H 400.147 -2.70194 1.57207 0
M  V30 4151 H 399.367 -1.39547 3.68674 0
M  V30 4152 H 400.655 -2.23071 4.57293 0
M  V30 4153 H 400.053 -4.89528 2.83512 0
M  V30 4154 H 398.61 -5.43791 3.59353 0
M  V30 4155 N 402.043 -1.548 -0.295768 0
M  V30 4156 C 403.459 -1.4613 -0.641722 0
M  V30 4157 C 403.659 -0.656771 -1.90496 0
M  V30 4158 O 402.715 -0.166547 -2.5195 0
M  V30 4159 C 404.028 -2.90141 -0.789852 0
M  V30 4160 C 405.576 -3.00216 -0.885396 0
M  V30 4161 C 406.051 -4.45434 -1.06548 0
M  V30 4162 N 407.542 -4.49166 -1.13156 0
M  V30 4163 C 408.277 -5.58717 -1.28929 0
M  V30 4164 N 407.773 -6.78182 -1.41567 0
M  V30 4165 N 409.566 -5.46415 -1.31859 0
M  V30 4166 H 401.717 -2.05574 0.534147 0
M  V30 4167 H 403.98 -0.931259 0.177372 0
M  V30 4168 H 403.686 -3.51635 0.0675598 0
M  V30 4169 H 403.56 -3.37859 -1.67724 0
M  V30 4170 H 405.947 -2.38833 -1.73329 0
M  V30 4171 H 406.028 -2.55787 0.0261185 0
M  V30 4172 H 405.672 -5.07413 -0.222335 0
M  V30 4173 H 405.602 -4.87499 -1.9913 0
M  V30 4174 H 408.093 -3.631 -1.04721 0
M  V30 4175 H 408.406 -7.57428 -1.53372 0
M  V30 4176 H 406.751 -6.81037 -1.38613 0
M  V30 4177 H 409.942 -4.5203 -1.21601 0
M  V30 4178 H 410.115 -6.31841 -1.43808 0
M  V30 4179 N 403.521 0.559213 -1.47345 0
M  V30 4180 C 404.798 1.31997 -1.44348 0
M  V30 4181 C 405.178 2.1064 -0.139358 0
M  V30 4182 O 404.526 2.1091 0.879153 0
M  V30 4183 C 404.736 2.22618 -2.68779 0
M  V30 4184 C 406.084 2.83701 -3.1591 0
M  V30 4185 O 407.108 2.32921 -2.69493 0
M  V30 4186 O 405.967 3.75993 -3.966 0
M  V30 4187 H 403.061 0.594251 -0.575147 0
M  V30 4188 H 405.607 0.578282 -1.59543 0
M  V30 4189 H 404.379 1.64093 -3.55231 0
M  V30 4190 H 404.002 3.04085 -2.5616 0
M  V30 4191 N 404.999 1.35443 0.805782 0
M  V30 4192 C 406.276 1.19325 1.54987 0
M  V30 4193 C 406.656 -0.227294 2.09873 0
M  V30 4194 O 406.004 -1.2309 1.92512 0
M  V30 4195 C 406.214 2.26196 2.65775 0
M  V30 4196 C 407.562 2.62043 3.34094 0
M  V30 4197 O 408.586 2.25115 2.76046 0
M  V30 4198 O 407.445 3.25542 4.38958 0
M  V30 4199 H 404.539 0.463623 0.684823 0
M  V30 4200 H 407.085 1.47127 0.845674 0
M  V30 4201 H 405.857 3.21471 2.23096 0
M  V30 4202 H 405.48 1.99667 3.43829 0
M  V30 4203 N 406.477 -1.02803 1.19454 0
M  V30 4204 C 407.387 -2.14575 0.948408 0
M  V30 4205 C 408.403 -1.73757 -0.091871 0
M  V30 4206 O 409.579 -2.01185 0.0929654 0
M  V30 4207 C 406.644 -3.43202 0.491265 0
M  V30 4208 C 405.705 -3.98328 1.60103 0
M  V30 4209 C 404.938 -5.20816 1.16561 0
M  V30 4210 O 405.161 -5.70392 0.0295238 0
M  V30 4211 O 404.095 -5.68801 1.96849 0
M  V30 4212 H 407.921 -2.38202 1.88397 0
M  V30 4213 H 405.506 -1.12989 0.977433 0
M  V30 4214 H 407.388 -4.20687 0.245015 0
M  V30 4215 H 406.063 -3.21018 -0.415851 0
M  V30 4216 H 404.97 -3.22174 1.90144 0
M  V30 4217 H 406.303 -4.24879 2.48473 0
M  V30 4218 N 407.956 -0.998596 -1.21925 0
M  V30 4219 C 409.233 -0.593401 -1.86382 0
M  V30 4220 C 409.613 0.92916 -1.89552 0
M  V30 4221 O 408.961 1.81347 -1.39017 0
M  V30 4222 C 409.171 -1.22039 -3.26967 0
M  V30 4223 C 410.519 -1.32449 -4.03413 0
M  V30 4224 O 411.543 -1.17522 -3.36254 0
M  V30 4225 O 410.402 -1.56395 -5.23644 0
M  V30 4226 H 407.496 -0.202385 -0.801854 0
M  V30 4227 H 410.042 -1.09484 -1.29659 0
M  V30 4228 H 408.814 -2.26158 -3.19325 0
M  V30 4229 H 408.437 -0.704906 -3.91301 0
M  V30 4230 O 409.473 1.33471 -0.909268 0
M  V30 4231 H 410.164 1.86473 -0.524175 0
M  V30 END ATOM
M  V30 BEGIN BOND
M  V30 END BOND
M  V30 END CTAB
M  END
$$$$
