drugbank_target|P29322 Ephrin type-A receptor 8 (DB12010)
 OpenBabel12092121153D

  0  0  0     0  0            999 V3000
M  V30 BEGIN CTAB
M  V30 COUNTS 15485 15668 0 0 0
M  V30 BEGIN ATOM
M  V30 1 H -0.908 1.98254 -0.117106 0
M  V30 2 N 0 1.576 0 0
M  V30 3 C 0.933 2.03868 1.02534 0
M  V30 4 C 1.911 0.928543 1.3348 0
M  V30 5 O 3.095 1.19667 1.45644 0
M  V30 6 C 0.222 2.43627 2.35294 0
M  V30 7 C -0.732 3.65373 2.2001 0
M  V30 8 S 0.101 5.13292 1.52614 0
M  V30 9 C 1.257 5.56322 2.86805 0
M  V30 10 H 1.49 2.90518 0.631377 0
M  V30 11 H -0.977 1.52953 0.210867 0
M  V30 12 H 0.981 2.67203 3.11629 0
M  V30 13 H -0.358 1.57376 2.7183 0
M  V30 14 H -1.165 3.90944 3.18086 0
M  V30 15 H -1.563 3.418 1.51819 0
M  V30 16 H 0.729 5.58782 3.83104 0
M  V30 17 H 1.672 6.56266 2.65933 0
M  V30 18 H 2.08 4.83886 2.90714 0
M  V30 19 N 1.4781 -0.272755 1.55222 0
M  V30 20 C 2.4411 -1.32041 1.87344 0
M  V30 21 C 3.4411 -1.42342 0.74803 0
M  V30 22 O 4.6311 -1.41488 1.0162 0
M  V30 23 C 1.7631 -2.70173 2.07893 0
M  V30 24 H 2.9561 -1.04789 2.80997 0
M  V30 25 H 0.5091 -0.51083 1.47717 0
M  V30 26 H 1.2441 -3.02605 1.16622 0
M  V30 27 H 1.0291 -2.64082 2.89833 0
M  V30 28 H 2.5191 -3.45869 2.34017 0
M  V30 29 N 2.9562 -1.48159 -0.537278 0
M  V30 30 C 4.3672 -1.49429 -1.11928 0
M  V30 31 C 4.7182 -0.26 -1.9447 0
M  V30 32 O 3.8432 0.633489 -2.0692 0
M  V30 33 C 4.4382 -2.70758 -2.03656 0
M  V30 34 C 2.9972 -2.74923 -2.57088 0
M  V30 35 C 2.1442 -2.42835 -1.3389 0
M  V30 36 H 5.0952 -1.55381 -0.322886 0
M  V30 37 H 5.1162 -2.48861 -2.87834 0
M  V30 38 H 4.6282 -3.60575 -1.43553 0
M  V30 39 H 2.7292 -1.89296 -3.20933 0
M  V30 40 H 2.8422 -3.76157 -2.9672 0
M  V30 41 H 1.2062 -1.93836 -1.65226 0
M  V30 42 H 1.9892 -3.34884 -0.755504 0
M  V30 43 N 4.4343 0.785586 -1.36625 0
M  V30 44 C 5.3973 1.87999 -1.31107 0
M  V30 45 C 6.3973 1.59316 -0.217959 0
M  V30 46 O 7.5873 1.67656 -0.472977 0
M  V30 47 C 4.7193 3.24861 -1.03334 0
M  V30 48 H 5.9123 1.94307 -2.2844 0
M  V30 49 H 3.4653 0.983813 -1.21453 0
M  V30 50 H 4.2003 3.24235 -0.0647432 0
M  V30 51 H 3.9853 3.4707 -1.82441 0
M  V30 52 H 5.4753 4.04929 -1.02088 0
M  V30 53 N 5.9124 1.20967 1.01018 0
M  V30 54 C 7.3284 0.965905 1.27053 0
M  V30 55 C 7.5284 -0.350785 1.98423 0
M  V30 56 O 6.5844 -1.07773 2.28344 0
M  V30 57 C 7.8974 2.15294 2.09926 0
M  V30 58 C 9.4454 2.19463 2.23171 0
M  V30 59 C 9.9204 3.3767 3.09424 0
M  V30 60 N 11.4114 3.37724 3.17012 0
M  V30 61 C 12.1464 4.25837 3.83993 0
M  V30 62 N 11.6424 5.24138 4.53047 0
M  V30 63 N 13.4354 4.1366 3.80581 0
M  V30 64 H 5.5864 2.0565 0.531194 0
M  V30 65 H 7.8494 0.90024 0.297106 0
M  V30 66 H 7.5554 3.10684 1.64828 0
M  V30 67 H 7.4294 2.13923 3.10672 0
M  V30 68 H 9.8164 1.24632 2.6749 0
M  V30 69 H 9.8974 2.2488 1.21912 0
M  V30 70 H 9.5414 4.32791 2.65808 0
M  V30 71 H 9.4714 3.29491 4.10784 0
M  V30 72 H 11.9624 2.6658 2.6785 0
M  V30 73 H 12.2754 5.87684 5.01844 0
M  V30 74 H 10.6204 5.28068 4.5185 0
M  V30 75 H 13.8114 3.36127 3.25785 0
M  V30 76 H 13.9844 4.82538 4.32505 0
M  V30 77 N 7.3905 -1.2043 1.01659 0
M  V30 78 C 8.6385 -1.89423 0.704522 0
M  V30 79 C 8.9595 -1.79231 -0.768197 0
M  V30 80 O 8.2295 -1.1947 -1.55254 0
M  V30 81 H 6.8095 -0.701178 0.257602 0
M  V30 82 H 9.4715 -1.4626 1.28818 0
M  V30 83 H 8.5675 -2.96052 0.987916 0
M  V30 84 N 8.8686 -0.792821 -1.36206 0
M  V30 85 C 10.2846 -0.474903 -1.52371 0
M  V30 86 C 10.4846 1.00622 -1.74578 0
M  V30 87 O 9.5406 1.79162 -1.77924 0
M  V30 88 C 10.8536 -1.3083 -2.70747 0
M  V30 89 C 12.4016 -1.30234 -2.84619 0
M  V30 90 C 12.8766 -2.11956 -4.06004 0
M  V30 91 N 14.3676 -2.09419 -4.13156 0
M  V30 92 C 15.1026 -2.69419 -5.06163 0
M  V30 93 N 14.5986 -3.3829 -6.04592 0
M  V30 94 N 16.3916 -2.59134 -4.98804 0
M  V30 95 H 8.5426 -1.75222 -1.20046 0
M  V30 96 H 10.8056 -0.745024 -0.586211 0
M  V30 97 H 10.5116 -2.35881 -2.6087 0
M  V30 98 H 10.3856 -0.95196 -3.6499 0
M  V30 99 H 12.7726 -0.259748 -2.93955 0
M  V30 100 H 12.8536 -1.69847 -1.91274 0
M  V30 101 H 12.4976 -3.16248 -3.97429 0
M  V30 102 H 12.4276 -1.69711 -4.98503 0
M  V30 103 H 14.9186 -1.59297 -3.42685 0
M  V30 104 H 15.2316 -3.81394 -6.7213 0
M  V30 105 H 13.5766 -3.42393 -6.04807 0
M  V30 106 H 16.7676 -2.04927 -4.20859 0
M  V30 107 H 16.9406 -3.06185 -5.711 0
M  V30 108 N 10.3467 1.47872 -0.545128 0
M  V30 109 C 11.2767 2.32661 0.197793 0
M  V30 110 C 12.2577 1.43041 0.920504 0
M  V30 111 O 13.4427 1.71912 0.90333 0
M  V30 112 C 10.5727 3.24569 1.23582 0
M  V30 113 C 9.5267 4.23333 0.630323 0
M  V30 114 C 8.8527 5.0448 1.77211 0
M  V30 115 C 10.1527 5.20704 -0.407974 0
M  V30 116 H 11.8467 2.95024 -0.510045 0
M  V30 117 H 9.3927 1.4187 -0.246731 0
M  V30 118 H 11.3457 3.8272 1.76362 0
M  V30 119 H 10.0697 2.60236 1.97344 0
M  V30 120 H 8.7287 3.6639 0.123922 0
M  V30 121 H 8.3767 4.36561 2.49847 0
M  V30 122 H 8.0767 5.71339 1.37281 0
M  V30 123 H 9.6007 5.65487 2.3034 0
M  V30 124 H 11.0147 5.7329 0.033305 0
M  V30 125 H 9.4117 5.95699 -0.725486 0
M  V30 126 H 10.4817 4.66917 -1.30828 0
M  V30 127 N 11.8248 0.280983 1.55075 0
M  V30 128 C 13.2358 -0.215629 1.85451 0
M  V30 129 C 13.5868 -1.54991 1.203 0
M  V30 130 O 12.7118 -2.10699 0.493435 0
M  V30 131 C 13.3068 -0.398026 3.36454 0
M  V30 132 C 11.8658 -0.838866 3.66933 0
M  V30 133 C 11.0128 0.064458 2.77225 0
M  V30 134 H 13.9638 0.502601 1.50531 0
M  V30 135 H 13.9848 -1.23569 3.59876 0
M  V30 136 H 13.4968 0.573241 3.83843 0
M  V30 137 H 11.5978 -1.8214 3.25048 0
M  V30 138 H 11.7108 -0.672123 4.74362 0
M  V30 139 H 10.0748 -0.452863 2.50642 0
M  V30 140 H 10.8578 1.03172 3.2743 0
M  V30 141 N 13.3029 -1.57598 0.00835791 0
M  V30 142 C 14.7139 -1.7892 -0.53333 0
M  V30 143 C 15.0649 -0.916609 -1.73473 0
M  V30 144 O 14.1899 -0.121336 -2.1606 0
M  V30 145 C 14.7849 -3.24488 -0.974313 0
M  V30 146 C 13.3439 -3.46878 -1.46125 0
M  V30 147 C 12.4909 -2.74157 -0.416302 0
M  V30 148 H 15.4419 -1.56958 0.234495 0
M  V30 149 H 15.4629 -3.3306 -1.83988 0
M  V30 150 H 14.9749 -3.87972 -0.099718 0
M  V30 151 H 13.0759 -2.8862 -2.35646 0
M  V30 152 H 13.1889 -4.55572 -1.48295 0
M  V30 153 H 11.5529 -2.39022 -0.87981 0
M  V30 154 H 12.3359 -3.40345 0.44947 0
M  V30 155 N 14.781 0.264519 -1.55364 0
M  V30 156 C 15.744 1.31046 -1.88042 0
M  V30 157 C 16.744 1.41943 -0.755569 0
M  V30 158 O 17.934 1.40947 -1.02369 0
M  V30 159 C 15.066 2.69067 -2.09323 0
M  V30 160 H 16.259 1.03297 -2.81549 0
M  V30 161 H 13.812 0.502989 -1.47986 0
M  V30 162 H 14.547 3.01982 -1.18226 0
M  V30 163 H 14.332 2.62542 -2.91229 0
M  V30 164 H 15.822 3.44623 -2.35848 0
M  V30 165 N 16.2591 1.48442 0.529413 0
M  V30 166 C 17.1891 1.65902 1.64313 0
M  V30 167 C 18.1701 0.507897 1.6234 0
M  V30 168 O 19.3551 0.740503 1.79528 0
M  V30 169 C 16.4851 1.69911 3.02898 0
M  V30 170 C 15.4391 2.8453 3.19729 0
M  V30 171 C 14.7651 2.73629 4.59381 0
M  V30 172 C 16.0651 4.25821 3.02447 0
M  V30 173 H 17.7591 2.5914 1.49955 0
M  V30 174 H 15.3051 1.24709 0.719982 0
M  V30 175 H 17.2581 1.80715 3.80684 0
M  V30 176 H 15.9821 0.732524 3.18279 0
M  V30 177 H 14.6411 2.73283 2.44361 0
M  V30 178 H 14.2891 1.74938 4.71599 0
M  V30 179 H 13.9891 3.50541 4.71588 0
M  V30 180 H 15.5131 2.86401 5.39265 0
M  V30 181 H 16.9271 4.37898 3.70024 0
M  V30 182 H 15.3241 5.03735 3.26146 0
M  V30 183 H 16.3941 4.42244 1.98867 0
M  V30 184 N 17.7372 -0.778329 1.37039 0
M  V30 185 C 18.9832 -1.53817 1.33086 0
M  V30 186 C 19.3382 -1.92208 -0.0860346 0
M  V30 187 O 18.6312 -1.60713 -1.04316 0
M  V30 188 C 18.8252 -2.81845 2.19768 0
M  V30 189 C 18.6542 -2.55967 3.69744 0
M  V30 190 C 17.4242 -2.50428 4.38878 0
M  V30 191 C 19.6222 -2.2441 4.62758 0
M  V30 192 N 17.6042 -2.16564 5.74433 0
M  V30 193 C 18.9752 -2.0063 5.86641 0
M  V30 194 C 21.0302 -2.1051 4.5121 0
M  V30 195 C 19.7332 -1.64354 7.00272 0
M  V30 196 C 21.7592 -1.75634 5.64718 0
M  V30 197 C 21.1212 -1.52709 6.87648 0
M  V30 198 H 17.2202 -0.563434 0.542279 0
M  V30 199 H 19.8042 -0.908617 1.72198 0
M  V30 200 H 17.9752 -3.42649 1.82883 0
M  V30 201 H 19.7072 -3.47682 2.07122 0
M  V30 202 H 16.4622 -2.66056 3.91805 0
M  V30 203 H 16.8862 -2.02348 6.46053 0
M  V30 204 H 21.5282 -2.26919 3.56746 0
M  V30 205 H 19.2462 -1.46683 7.94676 0
M  V30 206 H 22.8322 -1.65546 5.57751 0
M  V30 207 H 21.7122 -1.2612 7.73992 0
M  V30 208 N 19.2153 -1.21501 -1.00376 0
M  V30 209 C 20.4613 -1.03452 -1.74429 0
M  V30 210 C 20.7943 0.430764 -1.89362 0
M  V30 211 O 20.0693 1.31962 -1.42886 0
M  V30 212 C 20.3523 -1.73375 -3.15615 0
M  V30 213 C 20.2053 -3.27431 -3.08397 0
M  V30 214 C 21.5243 -1.47732 -4.14564 0
M  V30 215 H 18.6433 -0.377226 -0.633143 0
M  V30 216 H 21.2853 -1.49693 -1.17013 0
M  V30 217 H 19.4353 -1.34064 -3.64636 0
M  V30 218 H 21.1073 -3.76119 -2.67081 0
M  V30 219 H 19.3503 -3.5767 -2.45468 0
M  V30 220 H 20.0213 -3.71524 -4.08258 0
M  V30 221 H 22.4973 -1.8186 -3.74254 0
M  V30 222 H 21.3733 -1.99169 -5.11491 0
M  V30 223 H 21.6343 -0.407589 -4.40217 0
M  V30 224 N 20.6934 1.19889 -1.02296 0
M  V30 225 C 21.9394 1.89701 -0.717033 0
M  V30 226 C 22.2724 1.7905 0.751989 0
M  V30 227 O 21.5474 1.17891 1.547 0
M  V30 228 C 21.8304 3.40858 -1.16136 0
M  V30 229 C 21.6834 3.60411 -2.69117 0
M  V30 230 C 23.0024 4.33876 -0.737549 0
M  V30 231 H 20.1214 0.688874 -0.261957 0
M  V30 232 H 22.7634 1.41154 -1.27183 0
M  V30 233 H 20.9134 3.82335 -0.689342 0
M  V30 234 H 22.5854 3.28145 -3.2422 0
M  V30 235 H 20.8284 3.03665 -3.0979 0
M  V30 236 H 21.4994 4.66396 -2.95261 0
M  V30 237 H 23.9754 4.00081 -1.14344 0
M  V30 238 H 22.8514 5.38242 -1.0764 0
M  V30 239 H 23.1124 4.40628 0.360436 0
M  V30 240 N 22.1715 0.800033 1.35784 0
M  V30 241 C 23.3995 0.389606 2.03199 0
M  V30 242 C 23.8145 -0.997375 1.60306 0
M  V30 243 O 23.1715 -1.64154 0.797481 0
M  V30 244 C 23.2225 0.455855 3.58614 0
M  V30 245 O 22.9435 1.78815 3.99946 0
M  V30 246 C 24.4445 0.0374032 4.43284 0
M  V30 247 H 21.6645 0.159132 0.651857 0
M  V30 248 H 24.2085 1.08183 1.73541 0
M  V30 249 H 22.3635 -0.188057 3.86943 0
M  V30 250 H 22.7775 1.74636 4.94573 0
M  V30 251 H 24.2515 0.134882 5.51835 0
M  V30 252 H 24.7285 -1.01651 4.27275 0
M  V30 253 H 25.3345 0.654215 4.20238 0
M  V30 254 N 23.6496 -1.47581 0.552962 0
M  V30 255 C 24.6126 -2.28439 -0.186605 0
M  V30 256 C 25.6126 -1.36706 -0.84665 0
M  V30 257 O 26.8026 -1.59378 -0.703164 0
M  V30 258 C 23.9346 -3.16264 -1.2724 0
M  V30 259 H 25.1276 -2.95294 0.523609 0
M  V30 260 H 22.6806 -1.532 0.309745 0
M  V30 261 H 23.4156 -2.54091 -2.01514 0
M  V30 262 H 23.2006 -3.83769 -0.803968 0
M  V30 263 H 24.6906 -3.77198 -1.79196 0
M  V30 264 N 25.1277 -0.289203 -1.54924 0
M  V30 265 C 26.0907 0.579144 -2.21762 0
M  V30 266 C 27.0907 1.07047 -1.1999 0
M  V30 267 O 28.2807 0.968384 -1.44803 0
M  V30 268 C 25.4127 1.80055 -2.8947 0
M  V30 269 H 26.6057 -0.00464908 -2.999 0
M  V30 270 H 24.1587 -0.0399306 -1.56249 0
M  V30 271 H 24.8937 2.42449 -2.15381 0
M  V30 272 H 24.6787 1.45602 -3.64064 0
M  V30 273 H 26.1687 2.41773 -3.40493 0
M  V30 274 N 26.6058 1.57591 -0.0167156 0
M  V30 275 C 27.5688 2.08393 0.954204 0
M  V30 276 C 28.5688 0.996531 1.26198 0
M  V30 277 O 29.7588 1.25858 1.20438 0
M  V30 278 C 26.8908 2.5394 2.27436 0
M  V30 279 H 28.0838 2.95455 0.514451 0
M  V30 280 H 25.6368 1.54582 0.231089 0
M  V30 281 H 26.3718 1.70171 2.76066 0
M  V30 282 H 26.1568 3.33371 2.06412 0
M  V30 283 H 27.6468 2.93512 2.97053 0
M  V30 284 N 28.0839 -0.256276 1.55502 0
M  V30 285 C 29.0469 -1.30047 1.88734 0
M  V30 286 C 30.0469 -1.4154 0.763086 0
M  V30 287 O 31.2369 -1.40403 1.03115 0
M  V30 288 C 28.3689 -2.67953 2.10747 0
M  V30 289 H 29.5619 -1.01802 2.82093 0
M  V30 290 H 27.1149 -0.495134 1.4825 0
M  V30 291 H 27.8499 -3.01351 1.19825 0
M  V30 292 H 27.6349 -2.60993 2.92617 0
M  V30 293 H 29.1249 -3.43368 2.37673 0
M  V30 294 N 29.562 -1.4872 -0.521534 0
M  V30 295 C 30.525 -1.63379 -1.60748 0
M  V30 296 C 31.525 -0.50661 -1.52611 0
M  V30 297 O 32.715 -0.772601 -1.5613 0
M  V30 298 C 29.847 -1.61192 -3.00383 0
M  V30 299 H 31.04 -2.60217 -1.49087 0
M  V30 300 H 28.593 -1.37444 -0.744235 0
M  V30 301 H 29.328 -0.65863 -3.17541 0
M  V30 302 H 29.113 -2.43032 -3.07698 0
M  V30 303 H 30.603 -1.7466 -3.7932 0
M  V30 304 N 31.0401 0.771051 -1.3745 0
M  V30 305 C 32.0031 1.86598 -1.33093 0
M  V30 306 C 33.0031 1.59076 -0.234845 0
M  V30 307 O 34.1931 1.67145 -0.490732 0
M  V30 308 C 31.3251 3.23747 -1.06773 0
M  V30 309 H 32.5181 1.91873 -2.30488 0
M  V30 310 H 30.0711 0.970876 -1.2249 0
M  V30 311 H 30.8061 3.24148 -0.099129 0
M  V30 312 H 30.5911 3.45115 -1.86112 0
M  V30 313 H 32.0811 4.03824 -1.06377 0
M  V30 314 N 32.5182 1.22032 0.997298 0
M  V30 315 C 33.7462 1.06841 1.7718 0
M  V30 316 C 34.1612 -0.381325 1.84909 0
M  V30 317 O 33.5182 -1.26437 1.31605 0
M  V30 318 C 33.5692 1.66814 3.20711 0
M  V30 319 O 33.2902 3.06116 3.13408 0
M  V30 320 C 34.7912 1.56838 4.14628 0
M  V30 321 H 32.0112 0.374782 0.556578 0
M  V30 322 H 34.5552 1.61532 1.2541 0
M  V30 323 H 32.7102 1.16196 3.69564 0
M  V30 324 H 33.1242 3.34926 4.0364 0
M  V30 325 H 34.5982 2.03532 5.13107 0
M  V30 326 H 35.0752 0.524155 4.36061 0
M  V30 327 H 35.6812 2.06741 3.7167 0
M  V30 328 N 33.9963 -1.19345 1.0293 0
M  V30 329 C 35.2363 -1.90738 0.734727 0
M  V30 330 C 35.6003 -1.7785 -0.723414 0
M  V30 331 O 36.8013 -2.43844 -1.13108 0
M  V30 332 C 35.0723 -3.37569 1.17396 0
M  V30 333 S 36.6313 -4.27176 1.00329 0
M  V30 334 H 33.4493 -0.658771 0.267474 0
M  V30 335 H 36.0513 -1.4428 1.31922 0
M  V30 336 H 34.7553 -3.44475 2.23081 0
M  V30 337 H 34.2863 -3.8906 0.582772 0
M  V30 338 H 36.3013 -4.96126 -0.0859152 0
M  V30 339 N 35.4744 -0.807222 -1.35358 0
M  V30 340 C 36.7204 -0.388463 -1.99045 0
M  V30 341 C 37.0534 1.04184 -1.63888 0
M  V30 342 O 36.3284 1.72292 -0.902535 0
M  V30 343 C 36.6114 -0.572783 -3.55515 0
M  V30 344 C 36.4644 -2.04807 -4.00468 0
M  V30 345 C 37.7834 0.00114064 -4.401 0
M  V30 346 H 34.9024 -0.142619 -0.723069 0
M  V30 347 H 37.5444 -1.01687 -1.60498 0
M  V30 348 H 35.6944 -0.0378425 -3.88482 0
M  V30 349 H 37.3664 -2.64544 -3.77908 0
M  V30 350 H 35.6094 -2.54427 -3.51353 0
M  V30 351 H 36.2804 -2.12792 -5.09337 0
M  V30 352 H 38.7564 -0.455716 -4.13597 0
M  V30 353 H 37.6324 -0.157737 -5.48673 0
M  V30 354 H 37.8934 1.09488 -4.28328 0
M  V30 355 N 36.9525 1.47285 -0.560781 0
M  V30 356 C 38.1775 2.07359 -0.0410566 0
M  V30 357 C 38.6025 1.41017 1.24483 0
M  V30 358 O 37.9605 0.486368 1.74654 0
M  V30 359 C 38.0085 3.6035 0.134123 0
M  V30 360 O 37.1125 3.94681 1.19587 0
M  V30 361 H 36.4535 0.661887 -0.0529291 0
M  V30 362 H 38.9835 1.89252 -0.777482 0
M  V30 363 H 38.9935 4.0652 0.347207 0
M  V30 364 H 37.6685 4.08034 -0.805047 0
M  V30 365 H 36.2455 3.60251 0.962987 0
M  V30 366 N 38.4306 0.297415 1.54768 0
M  V30 367 C 39.3936 -0.567375 2.22066 0
M  V30 368 C 40.3936 -1.06409 1.20556 0
M  V30 369 O 41.5836 -0.960691 1.45315 0
M  V30 370 C 38.7156 -1.78517 2.90421 0
M  V30 371 H 39.9086 0.0205534 2.99893 0
M  V30 372 H 37.4616 0.0482163 1.56226 0
M  V30 373 H 38.1966 -2.41303 2.16664 0
M  V30 374 H 37.9816 -1.43669 3.64831 0
M  V30 375 H 39.4716 -2.39964 3.41771 0
M  V30 376 N 39.9087 -1.5758 0.0250728 0
M  V30 377 C 40.8717 -2.08896 -0.943139 0
M  V30 378 C 41.8717 -1.00321 -1.25668 0
M  V30 379 O 43.0617 -1.26495 -1.19769 0
M  V30 380 C 40.1937 -2.55143 -2.26086 0
M  V30 381 H 41.3867 -2.95723 -0.498775 0
M  V30 382 H 38.9397 -1.54703 -0.222888 0
M  V30 383 H 39.6747 -1.71633 -2.75159 0
M  V30 384 H 39.4597 -3.34461 -2.04641 0
M  V30 385 H 40.9497 -2.95083 -2.95492 0
M  V30 386 N 41.3868 0.248026 -1.55636 0
M  V30 387 C 42.8028 0.596483 -1.48035 0
M  V30 388 C 43.0028 1.88386 -0.715039 0
M  V30 389 O 42.0588 2.51319 -0.243944 0
M  V30 390 C 43.3718 0.700258 -2.92433 0
M  V30 391 C 44.9198 0.792659 -3.02797 0
M  V30 392 C 45.3948 0.928005 -4.485 0
M  V30 393 N 46.8858 0.992903 -4.52433 0
M  V30 394 C 47.6208 1.11687 -5.62418 0
M  V30 395 N 47.1168 1.20645 -6.82214 0
M  V30 396 N 48.9098 1.14994 -5.50212 0
M  V30 397 H 41.0608 -0.597109 -2.03834 0
M  V30 398 H 43.3238 -0.205925 -0.925364 0
M  V30 399 H 43.0298 -0.175658 -3.51261 0
M  V30 400 H 42.9038 1.57255 -3.42857 0
M  V30 401 H 45.2908 1.65903 -2.4405 0
M  V30 402 H 45.3718 -0.104762 -2.55585 0
M  V30 403 H 45.0158 0.0661971 -5.07857 0
M  V30 404 H 44.9458 1.84045 -4.93391 0
M  V30 405 H 47.4368 0.935064 -3.66149 0
M  V30 406 H 47.7498 1.30008 -7.61786 0
M  V30 407 H 46.0948 1.17605 -6.84977 0
M  V30 408 H 49.2858 1.07643 -4.55555 0
M  V30 409 H 49.4588 1.24311 -6.35965 0
M  V30 410 N 42.8649 1.48995 0.513639 0
M  V30 411 C 44.1129 1.57531 1.26604 0
M  V30 412 C 44.4339 0.258236 1.93283 0
M  V30 413 O 43.7039 -0.721502 1.8213 0
M  V30 414 H 42.2839 0.580387 0.470276 0
M  V30 415 H 44.9459 1.85552 0.596373 0
M  V30 416 H 44.0419 2.36486 2.03669 0
M  V30 417 N 44.343 -0.763751 1.37857 0
M  V30 418 C 45.253 -1.90817 1.36478 0
M  V30 419 C 46.269 -1.71997 0.263248 0
M  V30 420 O 47.445 -1.95095 0.499979 0
M  V30 421 C 44.51 -3.2605 1.17864 0
M  V30 422 C 43.571 -3.57467 2.3773 0
M  V30 423 C 42.804 -4.86249 2.19995 0
M  V30 424 O 43.027 -5.57884 1.18836 0
M  V30 425 O 41.961 -5.16911 3.08361 0
M  V30 426 H 45.787 -1.94933 2.32884 0
M  V30 427 H 43.372 -0.907619 1.1867 0
M  V30 428 H 45.254 -4.06924 1.09504 0
M  V30 429 H 43.929 -3.22769 0.245372 0
M  V30 430 H 42.836 -2.76796 2.51664 0
M  V30 431 H 44.169 -3.655 3.29652 0
M  V30 432 N 45.8211 -1.22559 -0.990812 0
M  V30 433 C 47.0671 -1.05297 -1.73322 0
M  V30 434 C 47.4001 0.410655 -1.89808 0
M  V30 435 O 46.6751 1.30439 -1.44277 0
M  V30 436 C 46.9581 -1.76713 -3.13759 0
M  V30 437 C 46.8111 -3.30684 -3.04907 0
M  V30 438 C 48.1301 -1.52121 -4.12974 0
M  V30 439 H 45.2491 -0.38392 -0.629106 0
M  V30 440 H 47.8911 -1.50926 -1.15418 0
M  V30 441 H 46.0411 -1.37924 -3.63193 0
M  V30 442 H 47.7131 -3.7893 -2.63077 0
M  V30 443 H 45.9561 -3.60253 -2.41661 0
M  V30 444 H 46.6271 -3.75833 -4.04294 0
M  V30 445 H 49.1031 -1.85819 -3.72304 0
M  V30 446 H 47.9791 -2.04582 -5.0935 0
M  V30 447 H 48.2401 -0.454257 -4.3976 0
M  V30 448 N 47.2992 1.18797 -1.03562 0
M  V30 449 C 48.2472 2.24297 -0.615905 0
M  V30 450 C 49.2412 1.65643 0.354808 0
M  V30 451 O 50.4472 1.78618 0.22265 0
M  V30 452 H 46.8222 0.729909 -0.180934 0
M  V30 453 H 48.7932 2.5701 -1.5162 0
M  V30 454 C 47.5422 3.47698 0.0104735 0
M  V30 455 H 46.8652 3.93125 -0.727509 0
M  V30 456 H 48.3052 4.23159 0.266995 0
M  V30 457 C 46.7642 3.12489 1.25905 0
M  V30 458 O 47.2942 3.25761 2.35038 0
M  V30 459 N 45.5002 2.6686 1.15039 0
M  V30 460 H 45.0472 2.56261 0.262328 0
M  V30 461 H 45.0052 2.43674 1.98672 0
M  V30 462 N 48.7773 0.814389 1.34928 0
M  V30 463 C 49.7073 0.244827 2.32213 0
M  V30 464 C 50.6883 -0.634024 1.57842 0
M  V30 465 O 51.8733 -0.562676 1.8587 0
M  V30 466 C 49.0033 -0.601106 3.42058 0
M  V30 467 C 47.9573 0.179896 4.27622 0
M  V30 468 C 47.2833 -0.788237 5.28858 0
M  V30 469 C 48.5833 1.38329 5.03649 0
M  V30 470 H 50.2773 1.05763 2.80097 0
M  V30 471 H 47.8233 0.510029 1.34665 0
M  V30 472 H 49.7763 -1.00968 4.09125 0
M  V30 473 H 48.5003 -1.44688 2.92802 0
M  V30 474 H 47.1593 0.569739 3.62146 0
M  V30 475 H 46.8073 -1.62973 4.75866 0
M  V30 476 H 46.5073 -0.269942 5.8698 0
M  V30 477 H 48.0313 -1.19485 5.98795 0
M  V30 478 H 49.4453 1.04918 5.63618 0
M  V30 479 H 47.8423 1.83662 5.71304 0
M  V30 480 H 48.9123 2.16592 4.33839 0
M  V30 481 N 50.2554 -1.46986 0.568584 0
M  V30 482 C 51.1854 -2.32946 -0.160753 0
M  V30 483 C 52.1664 -1.44487 -0.897631 0
M  V30 484 O 53.3514 -1.73327 -0.875867 0
M  V30 485 C 50.4814 -3.26494 -1.18403 0
M  V30 486 C 49.4354 -4.24282 -0.562895 0
M  V30 487 C 48.7614 -5.07236 -1.69163 0
M  V30 488 C 50.0614 -5.19989 0.490761 0
M  V30 489 H 51.7554 -2.94175 0.556916 0
M  V30 490 H 49.3014 -1.4146 0.26927 0
M  V30 491 H 51.2544 -3.85477 -1.70251 0
M  V30 492 H 49.9784 -2.63343 -1.93179 0
M  V30 493 H 48.6374 -3.66541 -0.0656164 0
M  V30 494 H 48.2854 -4.4048 -2.42871 0
M  V30 495 H 47.9854 -5.7345 -1.28174 0
M  V30 496 H 49.5094 -5.6908 -2.21314 0
M  V30 497 H 50.9234 -5.73271 0.0579047 0
M  V30 498 H 49.3204 -5.94469 0.820165 0
M  V30 499 H 50.3904 -4.64777 1.3824 0
M  V30 500 N 51.7335 -0.305618 -1.54608 0
M  V30 501 C 53.0105 0.355652 -1.92339 0
M  V30 502 C 53.3905 1.71324 -1.23335 0
M  V30 503 O 52.7385 2.25473 -0.370702 0
M  V30 504 C 52.9485 0.46572 -3.45879 0
M  V30 505 C 54.2965 0.734426 -4.182 0
M  V30 506 O 55.3205 0.54935 -3.51938 0
M  V30 507 O 54.1795 1.09024 -5.35515 0
M  V30 508 H 51.2735 0.199666 -0.802535 0
M  V30 509 H 53.8195 -0.354017 -1.65966 0
M  V30 510 H 52.5915 -0.488461 -3.88239 0
M  V30 511 H 52.2145 1.22367 -3.78301 0
M  V30 512 N 53.2116 1.57565 -0.0334293 0
M  V30 513 C 54.4396 1.9628 0.654347 0
M  V30 514 C 54.8546 0.910138 1.65414 0
M  V30 515 O 54.2116 -0.107595 1.82183 0
M  V30 516 C 54.2626 3.35067 1.35693 0
M  V30 517 O 53.9836 4.36296 0.397191 0
M  V30 518 C 55.4846 3.88439 2.13613 0
M  V30 519 H 52.7046 0.646369 0.180132 0
M  V30 520 H 55.2486 2.04282 -0.0944721 0
M  V30 521 H 53.4036 3.2827 2.05712 0
M  V30 522 H 53.8176 5.1678 0.896597 0
M  V30 523 H 55.2916 4.8788 2.58219 0
M  V30 524 H 55.7686 3.22914 2.97696 0
M  V30 525 H 56.3746 3.98516 1.48543 0
M  V30 526 N 54.6897 -0.239769 1.55765 0
M  V30 527 C 55.9147 -0.988373 1.82335 0
M  V30 528 C 56.3397 -1.77886 0.611421 0
M  V30 529 O 55.6977 -1.75889 -0.439639 0
M  V30 530 C 55.7457 -1.89627 3.06715 0
M  V30 531 O 54.8497 -2.98904 2.84131 0
M  V30 532 H 54.1907 -0.280858 0.601677 0
M  V30 533 H 56.7207 -0.258597 2.02959 0
M  V30 534 H 56.7307 -2.30957 3.36338 0
M  V30 535 H 55.4057 -1.31511 3.9456 0
M  V30 536 H 53.9827 -2.61651 2.65694 0
M  V30 537 N 56.1678 -1.49265 -0.50573 0
M  V30 538 C 57.3958 -1.62215 -1.28429 0
M  V30 539 C 57.8108 -0.291697 -1.86533 0
M  V30 540 O 57.1678 0.722233 -1.67601 0
M  V30 541 C 57.2188 -2.68735 -2.41793 0
M  V30 542 O 56.9398 -3.96619 -1.86078 0
M  V30 543 C 58.4408 -2.92346 -3.3324 0
M  V30 544 H 55.6608 -0.546239 -0.389697 0
M  V30 545 H 58.2048 -1.95265 -0.607609 0
M  V30 546 H 56.3598 -2.38476 -3.053 0
M  V30 547 H 56.7738 -4.55256 -2.60465 0
M  V30 548 H 58.2478 -3.70623 -4.09075 0
M  V30 549 H 58.7248 -2.02081 -3.89948 0
M  V30 550 H 59.3308 -3.24003 -2.75503 0
M  V30 551 N 57.6459 0.756429 -1.3826 0
M  V30 552 C 58.8949 1.51082 -1.3363 0
M  V30 553 C 59.2079 1.95467 0.0720068 0
M  V30 554 O 60.4139 2.7043 0.240834 0
M  V30 555 C 58.8699 2.72893 -2.34644 0
M  V30 556 C 58.4779 2.35544 -3.81081 0
M  V30 557 C 60.2219 3.50791 -2.39052 0
M  V30 558 C 58.1289 3.53948 -4.73787 0
M  V30 559 H 57.0589 0.56727 -0.49671 0
M  V30 560 H 59.7099 0.827147 -1.638 0
M  V30 561 H 58.0919 3.43227 -1.97513 0
M  V30 562 H 59.2659 1.72894 -4.27135 0
M  V30 563 H 57.5809 1.70786 -3.79764 0
M  V30 564 H 60.1779 4.38823 -3.05513 0
M  V30 565 H 60.5209 3.91745 -1.40861 0
M  V30 566 H 61.0539 2.87467 -2.74968 0
M  V30 567 H 57.7929 3.18064 -5.73163 0
M  V30 568 H 57.3129 4.15651 -4.32428 0
M  V30 569 H 58.9919 4.20566 -4.91663 0
M  V30 570 N 59.124 1.23083 0.984299 0
M  V30 571 C 60.074 0.975749 2.06066 0
M  V30 572 C 61.058 -0.0768251 1.60716 0
M  V30 573 O 62.25 0.134805 1.76486 0
M  V30 574 C 59.379 0.564673 3.38624 0
M  V30 575 C 58.465 1.65244 3.90583 0
M  V30 576 N 58.856 2.88193 4.15666 0
M  V30 577 C 57.154 1.52612 4.19077 0
M  V30 578 C 57.855 3.58593 4.58024 0
M  V30 579 N 56.831 2.86093 4.62225 0
M  V30 580 H 60.633 1.90957 2.23411 0
M  V30 581 H 58.147 1.12963 1.16675 0
M  V30 582 H 60.144 0.36322 4.15315 0
M  V30 583 H 58.804 -0.362147 3.22674 0
M  V30 584 H 59.815 3.24537 4.03604 0
M  V30 585 H 56.492 0.666121 4.12152 0
M  V30 586 H 57.882 4.63974 4.85982 0
M  V30 587 N 60.6021 -1.18246 1.0419 0
M  V30 588 C 61.8501 -1.87886 0.744543 0
M  V30 589 C 62.1711 -1.8082 -0.730006 0
M  V30 590 O 61.4411 -1.22736 -1.52685 0
M  V30 591 H 60.0211 -0.695556 0.272417 0
M  V30 592 H 62.6831 -1.43494 1.31892 0
M  V30 593 H 61.7791 -2.9389 1.05049 0
M  V30 594 N 62.0802 -0.821533 -1.34494 0
M  V30 595 C 63.3572 -0.33159 -1.92769 0
M  V30 596 C 63.7372 1.18088 -1.74981 0
M  V30 597 O 63.0852 1.98733 -1.12772 0
M  V30 598 C 63.2952 -0.759398 -3.40638 0
M  V30 599 C 64.6432 -0.757433 -4.1779 0
M  V30 600 O 65.6672 -0.70189 -3.49216 0
M  V30 601 O 64.5262 -0.829361 -5.4017 0
M  V30 602 H 61.6202 -0.0902502 -0.822061 0
M  V30 603 H 64.1662 -0.906231 -1.43477 0
M  V30 604 H 62.9382 -1.8012 -3.47379 0
M  V30 605 H 62.5612 -0.160378 -3.97276 0
M  V30 606 N 63.5583 1.46682 -0.576371 0
M  V30 607 C 64.8043 2.03287 -0.0679305 0
M  V30 608 C 65.1593 1.44063 1.27529 0
M  V30 609 O 64.4523 0.593973 1.82161 0
M  V30 610 C 64.6463 3.57345 0.062886 0
M  V30 611 C 64.4753 4.31509 -1.26611 0
M  V30 612 C 63.2453 4.70664 -1.83856 0
M  V30 613 C 65.4433 4.65444 -2.18783 0
M  V30 614 N 63.4253 5.29552 -3.10561 0
M  V30 615 C 64.7963 5.24835 -3.30072 0
M  V30 616 C 66.8513 4.47375 -2.18542 0
M  V30 617 C 65.5543 5.68063 -4.41244 0
M  V30 618 C 67.5803 4.91614 -3.28739 0
M  V30 619 C 66.9423 5.51071 -4.38748 0
M  V30 620 H 63.0413 0.779083 -0.0674836 0
M  V30 621 H 65.6253 1.78918 -0.767877 0
M  V30 622 H 63.7963 3.8144 0.731988 0
M  V30 623 H 65.5283 4.00592 0.575134 0
M  V30 624 H 62.2833 4.53224 -1.37424 0
M  V30 625 H 62.7073 5.63523 -3.75195 0
M  V30 626 H 67.3493 4.00747 -1.34765 0
M  V30 627 H 65.0673 6.13672 -5.25768 0
M  V30 628 H 68.6533 4.79389 -3.29662 0
M  V30 629 H 67.5333 5.84678 -5.22611 0
M  V30 630 N 65.0364 0.313813 1.54444 0
M  V30 631 C 66.2844 -0.291099 1.99993 0
M  V30 632 C 66.6054 -1.53418 1.20366 0
M  V30 633 O 65.8754 -1.93544 0.302927 0
M  V30 634 H 64.4554 -0.110552 0.738774 0
M  V30 635 H 67.1174 0.428106 1.9014 0
M  V30 636 H 66.2134 -0.554268 3.07139 0
M  V30 637 N 66.5145 -1.57545 0.0417849 0
M  V30 638 C 67.7605 -1.93424 -0.629168 0
M  V30 639 C 68.1155 -0.919564 -1.69002 0
M  V30 640 O 67.4085 0.0626178 -1.91498 0
M  V30 641 C 67.6025 -3.33794 -1.27735 0
M  V30 642 C 67.4315 -4.48822 -0.280806 0
M  V30 643 C 66.2015 -5.05148 0.123869 0
M  V30 644 C 68.3995 -5.12148 0.470012 0
M  V30 645 N 66.3815 -6.03703 1.11426 0
M  V30 646 C 67.7525 -6.05921 1.31377 0
M  V30 647 C 69.8075 -4.95078 0.529343 0
M  V30 648 C 68.5105 -6.84459 2.21152 0
M  V30 649 C 70.5365 -5.74235 1.41448 0
M  V30 650 C 69.8985 -6.67634 2.24598 0
M  V30 651 H 65.9975 -0.755418 -0.202158 0
M  V30 652 H 68.5815 -1.94378 0.111923 0
M  V30 653 H 66.7525 -3.33635 -1.98852 0
M  V30 654 H 68.4845 -3.56988 -1.90635 0
M  V30 655 H 65.2395 -4.72923 -0.253178 0
M  V30 656 H 65.6635 -6.57674 1.60607 0
M  V30 657 H 70.3055 -4.22683 -0.0992798 0
M  V30 658 H 68.0235 -7.56151 2.85063 0
M  V30 659 H 71.6095 -5.63057 1.46484 0
M  V30 660 H 70.4895 -7.27817 2.9198 0
M  V30 661 N 67.9926 0.231505 -1.5589 0
M  V30 662 C 68.9226 1.29022 -1.94617 0
M  V30 663 C 69.9036 1.4941 -0.813067 0
M  V30 664 O 71.0886 1.6176 -1.07459 0
M  V30 665 C 68.2186 2.64199 -2.25424 0
M  V30 666 C 67.1726 2.58484 -3.41131 0
M  V30 667 C 66.4986 3.97599 -3.57518 0
M  V30 668 C 67.7986 2.1413 -4.76388 0
M  V30 669 H 69.4926 0.968563 -2.83301 0
M  V30 670 H 67.0386 0.464479 -1.36303 0
M  V30 671 H 68.9916 3.38413 -2.51107 0
M  V30 672 H 67.7156 2.98032 -1.33583 0
M  V30 673 H 66.3746 1.86727 -3.15481 0
M  V30 674 H 66.0226 4.28723 -2.6307 0
M  V30 675 H 65.7226 3.94659 -4.35337 0
M  V30 676 H 67.2466 4.7349 -3.85538 0
M  V30 677 H 68.6606 2.78083 -5.01341 0
M  V30 678 H 67.0576 2.2227 -5.57419 0
M  V30 679 H 68.1276 1.09331 -4.72414 0
M  V30 680 N 69.4707 1.49531 0.497807 0
M  V30 681 C 70.6987 1.62893 1.27567 0
M  V30 682 C 71.1137 0.301585 1.86376 0
M  V30 683 O 70.4707 -0.713335 1.67982 0
M  V30 684 C 70.5217 2.70013 2.40364 0
M  V30 685 O 70.2427 3.976 1.83972 0
M  V30 686 C 71.7437 2.94109 3.31685 0
M  V30 687 H 68.9637 0.548298 0.386794 0
M  V30 688 H 71.5077 1.95584 0.597245 0
M  V30 689 H 69.6627 2.40092 3.04031 0
M  V30 690 H 70.0767 4.56631 2.58047 0
M  V30 691 H 71.5507 3.72788 4.07104 0
M  V30 692 H 72.0277 2.04147 3.88871 0
M  V30 693 H 72.6337 3.2546 2.73781 0
M  V30 694 N 70.9488 -0.749086 1.3866 0
M  V30 695 C 72.1788 -1.53611 1.38157 0
M  V30 696 C 72.5868 -1.89177 -0.0293595 0
M  V30 697 O 71.9298 -1.53606 -1.00752 0
M  V30 698 C 71.9918 -2.86087 2.17702 0
M  V30 699 C 71.6558 -2.73034 3.66472 0
M  V30 700 C 72.6528 -2.42526 4.59866 0
M  V30 701 C 70.3378 -2.90345 4.09884 0
M  V30 702 C 72.3318 -2.29492 5.94653 0
M  V30 703 C 70.0188 -2.7693 5.4475 0
M  V30 704 C 71.0168 -2.46547 6.36949 0
M  V30 705 O 70.7048 -2.33199 7.69333 0
M  V30 706 H 70.4368 -0.481773 0.474205 0
M  V30 707 H 72.9908 -0.934465 1.82912 0
M  V30 708 H 71.2208 -3.48458 1.67672 0
M  V30 709 H 72.9098 -3.47625 2.09551 0
M  V30 710 H 73.6758 -2.28816 4.27631 0
M  V30 711 H 69.5548 -3.1299 3.38464 0
M  V30 712 H 73.0988 -2.05698 6.66584 0
M  V30 713 H 68.9958 -2.90215 5.76581 0
M  V30 714 H 69.7638 -2.48376 7.79905 0
M  V30 715 N 72.4269 -1.23603 -0.977757 0
M  V30 716 C 73.8379 -1.06424 -1.53398 0
M  V30 717 C 74.1889 0.367578 -1.92726 0
M  V30 718 O 73.3139 1.25465 -1.76316 0
M  V30 719 C 73.9089 -1.92568 -2.78753 0
M  V30 720 C 72.4679 -1.79642 -3.30765 0
M  V30 721 C 71.6149 -1.88111 -2.03739 0
M  V30 722 H 74.5659 -1.37227 -0.797152 0
M  V30 723 H 74.5869 -1.45203 -3.51705 0
M  V30 724 H 74.0989 -2.96771 -2.50098 0
M  V30 725 H 72.1999 -0.782325 -3.64294 0
M  V30 726 H 72.3129 -2.63174 -4.00345 0
M  V30 727 H 70.6769 -1.31723 -2.17994 0
M  V30 728 H 71.4599 -2.93875 -1.77461 0
M  V30 729 N 73.905 1.17692 -1.04816 0
M  V30 730 C 74.868 2.19787 -0.650117 0
M  V30 731 C 75.868 1.58044 0.296427 0
M  V30 732 O 77.058 1.74012 0.0808097 0
M  V30 733 C 74.19 3.40869 0.0456987 0
M  V30 734 H 75.383 2.56516 -1.5537 0
M  V30 735 H 72.936 1.31708 -0.841594 0
M  V30 736 H 73.671 3.09681 0.962726 0
M  V30 737 H 73.456 3.86928 -0.634727 0
M  V30 738 H 74.946 4.16445 0.310432 0
M  V30 739 N 75.3831 0.828654 1.34056 0
M  V30 740 C 76.3331 0.226828 2.26869 0
M  V30 741 C 77.3171 -0.612243 1.48796 0
M  V30 742 O 78.5091 -0.465884 1.70759 0
M  V30 743 C 75.6381 -0.605654 3.37915 0
M  V30 744 C 74.7241 0.244361 4.23395 0
M  V30 745 N 75.1151 1.31815 4.88322 0
M  V30 746 C 73.4131 0.0296616 4.4599 0
M  V30 747 C 74.1141 1.83895 5.51867 0
M  V30 748 N 73.0901 1.14196 5.3147 0
M  V30 749 H 76.8921 1.04811 2.74576 0
M  V30 750 H 74.4061 0.67205 1.47842 0
M  V30 751 H 76.4031 -1.05302 4.03382 0
M  V30 752 H 75.0631 -1.42504 2.91758 0
M  V30 753 H 76.0741 1.70099 4.8917 0
M  V30 754 H 72.7511 -0.757097 4.10578 0
M  V30 755 H 74.1411 2.7376 6.136 0
M  V30 756 N 76.8612 -1.46375 0.584142 0
M  V30 757 C 78.1092 -2.01978 0.0701287 0
M  V30 758 C 78.4302 -1.4579 -1.295 0
M  V30 759 O 77.7002 -0.64314 -1.85042 0
M  V30 760 H 76.2802 -0.746648 0.0229345 0
M  V30 761 H 78.9422 -1.79461 0.760245 0
M  V30 762 H 78.0382 -3.121 0.0022064 0
M  V30 763 N 78.3393 -0.321999 -1.54275 0
M  V30 764 C 79.5853 0.274234 -2.01543 0
M  V30 765 C 79.9403 1.499 -1.20614 0
M  V30 766 O 79.2333 1.89546 -0.279804 0
M  V30 767 C 79.4273 0.661769 -3.5122 0
M  V30 768 C 79.2563 -0.523892 -4.46638 0
M  V30 769 C 78.0263 -1.02251 -4.94846 0
M  V30 770 C 80.2243 -1.37558 -4.95563 0
M  V30 771 N 78.2063 -2.17274 -5.74165 0
M  V30 772 C 79.5773 -2.37301 -5.7279 0
M  V30 773 C 81.6323 -1.40353 -4.77709 0
M  V30 774 C 80.3353 -3.3964 -6.34064 0
M  V30 775 C 82.3613 -2.41562 -5.39817 0
M  V30 776 C 81.7233 -3.40031 -6.16894 0
M  V30 777 H 77.8223 0.0642367 -0.779357 0
M  V30 778 H 80.4063 -0.456683 -1.89268 0
M  V30 779 H 78.5773 1.36182 -3.63743 0
M  V30 780 H 80.3093 1.23934 -3.85256 0
M  V30 781 H 77.0643 -0.594046 -4.6986 0
M  V30 782 H 77.4883 -2.75289 -6.18502 0
M  V30 783 H 82.1303 -0.655907 -4.17681 0
M  V30 784 H 79.8483 -4.15309 -6.93213 0
M  V30 785 H 83.4343 -2.44524 -5.2792 0
M  V30 786 H 82.3143 -4.17063 -6.64099 0
M  V30 787 N 79.8174 1.5752 -0.0501392 0
M  V30 788 C 81.0944 1.83996 0.663685 0
M  V30 789 C 81.4744 0.938339 1.89099 0
M  V30 790 O 80.8224 -0.00087759 2.285 0
M  V30 791 C 81.0324 3.33702 1.02196 0
M  V30 792 C 82.3804 4.00691 1.40469 0
M  V30 793 O 83.4044 3.38321 1.11433 0
M  V30 794 O 82.2634 5.10658 1.94654 0
M  V30 795 H 79.3574 0.759385 0.32751 0
M  V30 796 H 81.9034 1.69514 -0.0794238 0
M  V30 797 H 80.6754 3.91015 0.149364 0
M  V30 798 H 80.2984 3.53368 1.82255 0
M  V30 799 N 81.2955 -0.223234 1.56011 0
M  V30 800 C 82.5205 -0.968978 1.83373 0
M  V30 801 C 82.9455 -1.77227 0.630254 0
M  V30 802 O 82.3035 -1.76345 -0.420959 0
M  V30 803 C 82.3515 -1.86363 3.08709 0
M  V30 804 O 81.4555 -2.95873 2.87285 0
M  V30 805 H 80.7965 -0.274461 0.604622 0
M  V30 806 H 83.3265 -0.237056 2.03222 0
M  V30 807 H 83.3365 -2.27376 3.38768 0
M  V30 808 H 82.0115 -1.27319 3.95933 0
M  V30 809 H 80.5885 -2.58818 2.68454 0
M  V30 810 N 82.7736 -1.49793 -0.48987 0
M  V30 811 C 84.0226 -1.59085 -1.23995 0
M  V30 812 C 84.3356 -0.287907 -1.9347 0
M  V30 813 O 85.5416 -0.259506 -2.70257 0
M  V30 814 C 83.9976 -2.80736 -2.252 0
M  V30 815 C 83.6056 -4.17833 -1.61614 0
M  V30 816 C 85.3496 -2.99364 -3.00967 0
M  V30 817 C 83.2566 -5.30693 -2.60996 0
M  V30 818 H 82.1866 -0.592372 -0.466488 0
M  V30 819 H 84.8376 -1.76197 -0.51252 0
M  V30 820 H 83.2196 -2.57142 -3.01154 0
M  V30 821 H 84.3936 -4.51608 -0.915774 0
M  V30 822 H 82.7086 -4.04656 -0.981977 0
M  V30 823 H 85.3056 -3.80851 -3.75308 0
M  V30 824 H 85.6486 -2.10356 -3.59244 0
M  V30 825 H 86.1816 -3.2305 -2.32128 0
M  V30 826 H 82.9206 -6.21796 -2.07485 0
M  V30 827 H 82.4406 -5.01359 -3.2924 0
M  V30 828 H 84.1196 -5.6049 -3.23202 0
M  V30 829 N 84.2517 0.741722 -1.39055 0
M  V30 830 C 85.1997 1.87702 -1.3737 0
M  V30 831 C 86.1937 1.67427 -0.257812 0
M  V30 832 O 87.3997 1.7485 -0.427489 0
M  V30 833 H 83.7747 0.617757 -0.428812 0
M  V30 834 H 85.7457 1.86239 -2.33147 0
M  V30 835 C 84.4947 3.25315 -1.22741 0
M  V30 836 H 83.8177 3.41509 -2.07873 0
M  V30 837 H 85.2577 4.04964 -1.25618 0
M  V30 838 C 83.7167 3.36838 0.0647316 0
M  V30 839 O 84.2467 3.88073 1.03741 0
M  V30 840 N 82.4527 2.90329 0.125544 0
M  V30 841 H 81.9997 2.48823 -0.666682 0
M  V30 842 H 81.9577 2.98418 0.989639 0
M  V30 843 N 85.7298 1.2412 0.971189 0
M  V30 844 C 86.6398 1.04747 2.09917 0
M  V30 845 C 87.6558 -0.0107162 1.73997 0
M  V30 846 O 88.8318 0.186714 2.00533 0
M  V30 847 C 85.8968 0.650828 3.40537 0
M  V30 848 C 84.9578 1.7851 3.90426 0
M  V30 849 C 84.1908 1.40729 5.14812 0
M  V30 850 O 84.4138 0.29557 5.69634 0
M  V30 851 O 83.3478 2.23168 5.58999 0
M  V30 852 H 87.1738 1.99304 2.29154 0
M  V30 853 H 84.7588 1.02908 1.08307 0
M  V30 854 H 86.6408 0.440992 4.19086 0
M  V30 855 H 85.3158 -0.265649 3.22608 0
M  V30 856 H 84.2228 2.04966 3.12953 0
M  V30 857 H 85.5558 2.68023 4.12825 0
M  V30 858 N 87.2079 -1.17134 1.05439 0
M  V30 859 C 88.4539 -1.87733 0.767077 0
M  V30 860 C 88.7869 -1.8098 -0.704253 0
M  V30 861 O 88.0619 -1.21951 -1.5152 0
M  V30 862 C 88.3449 -3.37659 1.25133 0
M  V30 863 C 88.1979 -3.53149 2.78578 0
M  V30 864 C 89.5169 -4.31768 0.852324 0
M  V30 865 H 86.6359 -0.681687 0.280129 0
M  V30 866 H 89.2779 -1.37732 1.30881 0
M  V30 867 H 87.4279 -3.80373 0.790469 0
M  V30 868 H 89.0999 -3.19434 3.32806 0
M  V30 869 H 87.3429 -2.95345 3.17732 0
M  V30 870 H 88.0139 -4.58403 3.07523 0
M  V30 871 H 90.4899 -3.96909 1.24911 0
M  V30 872 H 89.3659 -5.35199 1.21873 0
M  V30 873 H 89.6269 -4.41429 -0.243485 0
M  V30 874 N 88.686 -0.835752 -1.33615 0
M  V30 875 C 89.963 -0.352017 -1.92406 0
M  V30 876 C 90.343 1.16225 -1.76224 0
M  V30 877 O 89.691 1.97526 -1.14873 0
M  V30 878 C 89.901 -0.795485 -3.39813 0
M  V30 879 C 91.249 -0.801703 -4.16963 0
M  V30 880 O 92.273 -0.738889 -3.48452 0
M  V30 881 O 91.132 -0.886607 -5.3926 0
M  V30 882 H 88.226 -0.0989641 -0.821057 0
M  V30 883 H 90.772 -0.921397 -1.42507 0
M  V30 884 H 89.544 -1.83795 -3.45449 0
M  V30 885 H 89.167 -0.202505 -3.97084 0
M  V30 886 N 90.1641 1.46063 -0.591896 0
M  V30 887 C 91.0741 2.34192 0.13831 0
M  V30 888 C 92.0901 1.50305 0.876608 0
M  V30 889 O 93.2661 1.8315 0.837728 0
M  V30 890 C 90.3311 3.27656 1.13326 0
M  V30 891 C 89.3921 4.27445 0.39863 0
M  V30 892 C 88.6251 5.16443 1.34618 0
M  V30 893 O 88.8481 5.08553 2.58321 0
M  V30 894 O 87.7821 5.95843 0.851768 0
M  V30 895 H 91.6081 2.98002 -0.58552 0
M  V30 896 H 89.1931 1.45188 -0.352239 0
M  V30 897 H 91.0751 3.85291 1.70671 0
M  V30 898 H 89.7501 2.6643 1.83839 0
M  V30 899 H 88.6571 3.73471 -0.216895 0
M  V30 900 H 89.9901 4.91482 -0.265709 0
M  V30 901 N 91.6422 0.330177 1.54103 0
M  V30 902 C 92.8672 -0.274893 2.0557 0
M  V30 903 C 93.2922 -1.44487 1.20437 0
M  V30 904 O 92.6502 -1.80021 0.214991 0
M  V30 905 C 92.6982 -0.68079 3.54115 0
M  V30 906 O 91.8022 -1.7824 3.71893 0
M  V30 907 H 91.1432 -0.0483849 0.662235 0
M  V30 908 H 93.6732 0.480508 1.98878 0
M  V30 909 H 93.6832 -0.961635 3.96505 0
M  V30 910 H 92.3582 0.174903 4.15532 0
M  V30 911 H 90.9352 -1.49985 3.41407 0
M  V30 912 N 93.1203 -1.57491 0.0584922 0
M  V30 913 C 94.3673 -1.92978 -0.613648 0
M  V30 914 C 94.6953 -0.937461 -1.70417 0
M  V30 915 O 93.9503 0.049078 -1.95638 0
M  V30 916 C 94.2493 -3.3513 -1.24188 0
M  V30 917 C 93.9153 -4.50037 -0.278826 0
M  V30 918 C 92.5773 -4.81198 -0.0138447 0
M  V30 919 C 94.9293 -5.19807 0.380777 0
M  V30 920 C 92.2573 -5.79473 0.918052 0
M  V30 921 C 94.6093 -6.19079 1.30091 0
M  V30 922 C 93.2733 -6.48665 1.57449 0
M  V30 923 H 92.5433 -0.706157 -0.22455 0
M  V30 924 H 95.1903 -1.91082 0.126533 0
M  V30 925 H 93.4953 -3.33429 -2.05749 0
M  V30 926 H 95.1923 -3.59871 -1.769 0
M  V30 927 H 91.7823 -4.25726 -0.495539 0
M  V30 928 H 95.9663 -4.95939 0.189158 0
M  V30 929 H 91.2223 -6.00727 1.1374 0
M  V30 930 H 95.3963 -6.7225 1.81804 0
M  V30 931 H 93.0233 -7.24628 2.29822 0
M  V30 932 N 94.5984 0.214957 -1.56127 0
M  V30 933 C 95.5304 1.29004 -1.89448 0
M  V30 934 C 96.5434 1.42716 -0.783326 0
M  V30 935 O 97.7324 1.43496 -1.06166 0
M  V30 936 C 94.8324 2.66482 -2.09381 0
M  V30 937 C 94.0054 2.74633 -3.40434 0
M  V30 938 C 93.0644 3.9317 -3.49719 0
M  V30 939 O 92.0904 3.812 -4.227 0
M  V30 940 N 93.2924 5.07765 -2.81346 0
M  V30 941 H 96.0574 1.00743 -2.82261 0
M  V30 942 H 93.6184 0.40497 -1.56753 0
M  V30 943 H 95.6104 3.44173 -2.12901 0
M  V30 944 H 94.1804 2.87314 -1.23163 0
M  V30 945 H 93.4004 1.83368 -3.48955 0
M  V30 946 H 94.6884 2.77054 -4.26754 0
M  V30 947 H 94.0864 5.20386 -2.21843 0
M  V30 948 H 92.6434 5.83474 -2.90519 0
M  V30 949 N 96.0765 1.50051 0.48192 0
M  V30 950 C 97.4875 1.5348 1.06305 0
M  V30 951 C 97.8385 0.331997 1.93371 0
M  V30 952 O 96.9635 -0.556256 2.09129 0
M  V30 953 C 97.5585 2.7813 1.93466 0
M  V30 954 C 96.1175 2.84275 2.46707 0
M  V30 955 C 95.2645 2.47637 1.24785 0
M  V30 956 H 98.2155 1.56472 0.264995 0
M  V30 957 H 98.2365 2.59372 2.78399 0
M  V30 958 H 97.7485 3.65654 1.30072 0
M  V30 959 H 95.8495 2.01077 3.13686 0
M  V30 960 H 95.9625 3.8691 2.82555 0
M  V30 961 H 94.3265 1.99835 1.57918 0
M  V30 962 H 95.1095 3.37457 0.630694 0
M  V30 963 N 97.5546 -0.734337 1.39446 0
M  V30 964 C 98.8036 -1.48937 1.36017 0
M  V30 965 C 99.1166 -1.95557 -0.0409005 0
M  V30 966 O 100.323 -2.70779 -0.19778 0
M  V30 967 C 98.7786 -2.69125 2.38955 0
M  V30 968 C 98.3866 -2.29452 3.8478 0
M  V30 969 C 100.131 -3.46944 2.44603 0
M  V30 970 C 98.0376 -3.46366 4.79358 0
M  V30 971 H 96.9676 -0.559296 0.505672 0
M  V30 972 H 99.6186 -0.800983 1.65095 0
M  V30 973 H 98.0006 -3.40041 2.02948 0
M  V30 974 H 99.1746 -1.66077 4.29831 0
M  V30 975 H 97.4896 -1.64723 3.82433 0
M  V30 976 H 100.087 -4.33907 3.12456 0
M  V30 977 H 100.43 -3.89454 1.47076 0
M  V30 978 H 100.963 -2.83056 2.79507 0
M  V30 979 H 97.7016 -3.08905 5.78151 0
M  V30 980 H 97.2216 -4.08719 4.38986 0
M  V30 981 H 98.9006 -4.12691 4.98292 0
M  V30 982 N 99.0327 -1.24633 -0.964593 0
M  V30 983 C 99.9827 -1.00841 -2.04487 0
M  V30 984 C 100.967 0.0512468 -1.60818 0
M  V30 985 O 102.159 -0.162865 -1.76249 0
M  V30 986 C 99.2877 -0.618474 -3.37683 0
M  V30 987 C 98.3737 -1.71437 -3.87905 0
M  V30 988 N 98.7647 -2.9477 -4.11029 0
M  V30 989 C 97.0627 -1.5926 -4.16596 0
M  V30 990 C 97.7637 -3.65834 -4.52261 0
M  V30 991 N 96.7397 -2.9341 -4.57615 0
M  V30 992 H 100.542 -1.94487 -2.20345 0
M  V30 993 H 98.0557 -1.14805 -1.14863 0
M  V30 994 H 100.053 -0.429247 -4.14684 0
M  V30 995 H 98.7127 0.310766 -3.23209 0
M  V30 996 H 99.7237 -3.30917 -3.9839 0
M  V30 997 H 96.4007 -0.731606 -4.1104 0
M  V30 998 H 97.7907 -4.71646 -4.78539 0
M  V30 999 N 100.511 1.16574 -1.06058 0
M  V30 1000 C 101.739 1.90952 -0.796552 0
M  V30 1001 C 102.154 1.77302 0.648808 0
M  V30 1002 O 101.511 1.11605 1.44397 0
M  V30 1003 C 101.562 3.41736 -1.17894 0
M  V30 1004 O 101.283 3.54975 -2.56758 0
M  V30 1005 C 102.784 4.33169 -0.942308 0
M  V30 1006 H 100.004 0.605594 -0.288959 0
M  V30 1007 H 102.548 1.47777 -1.41358 0
M  V30 1008 H 100.703 3.82623 -0.606491 0
M  V30 1009 H 101.117 4.4846 -2.72 0
M  V30 1010 H 102.591 5.37439 -1.25952 0
M  V30 1011 H 103.068 4.3903 0.122078 0
M  V30 1012 H 103.674 3.98007 -1.49902 0
M  V30 1013 N 101.989 0.842826 1.3317 0
M  V30 1014 C 103.219 0.453397 2.01564 0
M  V30 1015 C 103.627 -0.951147 1.63554 0
M  V30 1016 O 102.97 -1.63021 0.846746 0
M  V30 1017 C 103.032 0.499013 3.5602 0
M  V30 1018 C 102.696 1.86037 4.1742 0
M  V30 1019 C 103.693 2.82416 4.36506 0
M  V30 1020 C 101.378 2.15428 4.53757 0
M  V30 1021 C 103.372 4.06346 4.91082 0
M  V30 1022 C 101.059 3.39615 5.0804 0
M  V30 1023 C 102.057 4.3489 5.26649 0
M  V30 1024 O 101.745 5.5688 5.79776 0
M  V30 1025 H 101.477 0.177871 0.652179 0
M  V30 1026 H 104.031 1.13808 1.70988 0
M  V30 1027 H 102.261 -0.242467 3.85939 0
M  V30 1028 H 103.95 0.126852 4.05702 0
M  V30 1029 H 104.716 2.6101 4.08777 0
M  V30 1030 H 100.595 1.42061 4.38565 0
M  V30 1031 H 104.139 4.80722 5.05522 0
M  V30 1032 H 100.036 3.60876 5.352 0
M  V30 1033 H 100.804 5.58674 5.98185 0
M  V30 1034 N 103.467 -1.45747 0.599634 0
M  V30 1035 C 104.399 -2.28628 -0.161879 0
M  V30 1036 C 105.412 -1.39494 -0.839367 0
M  V30 1037 O 106.601 -1.63941 -0.706089 0
M  V30 1038 C 103.701 -3.15014 -1.24976 0
M  V30 1039 C 102.874 -4.32378 -0.660935 0
M  V30 1040 C 101.933 -5.00033 -1.63869 0
M  V30 1041 O 100.959 -5.57085 -1.1681 0
M  V30 1042 N 102.161 -4.98589 -2.97303 0
M  V30 1043 H 104.926 -2.94624 0.549265 0
M  V30 1044 H 102.487 -1.55847 0.438565 0
M  V30 1045 H 104.479 -3.5714 -1.9035 0
M  V30 1046 H 103.049 -2.5098 -1.86354 0
M  V30 1047 H 102.269 -3.9383 0.170688 0
M  V30 1048 H 103.557 -5.08197 -0.247619 0
M  V30 1049 H 102.955 -4.53514 -3.38145 0
M  V30 1050 H 101.512 -5.44603 -3.58121 0
M  V30 1051 N 104.945 -0.338344 -1.53925 0
M  V30 1052 C 106.191 0.260143 -2.01125 0
M  V30 1053 C 106.524 1.50617 -1.22589 0
M  V30 1054 O 105.799 1.91979 -0.312113 0
M  V30 1055 C 106.082 0.579499 -3.55407 0
M  V30 1056 C 105.935 -0.678264 -4.44657 0
M  V30 1057 C 107.254 1.39122 -4.17532 0
M  V30 1058 H 104.373 0.0930772 -0.731099 0
M  V30 1059 H 107.015 -0.457852 -1.84401 0
M  V30 1060 H 105.165 1.19118 -3.69788 0
M  V30 1061 H 106.837 -1.31631 -4.42121 0
M  V30 1062 H 105.08 -1.3042 -4.13731 0
M  V30 1063 H 105.751 -0.410143 -5.50474 0
M  V30 1064 H 108.227 0.874035 -4.06817 0
M  V30 1065 H 107.103 1.58342 -5.25565 0
M  V30 1066 H 107.364 2.39178 -3.71815 0
M  V30 1067 N 106.423 1.57458 -0.0668435 0
M  V30 1068 C 107.663 1.95175 0.607116 0
M  V30 1069 C 108.027 0.946039 1.67075 0
M  V30 1070 O 109.228 1.2107 2.39991 0
M  V30 1071 C 107.499 3.37582 1.17358 0
M  V30 1072 S 109.058 3.97271 1.86336 0
M  V30 1073 H 105.876 0.682604 0.19893 0
M  V30 1074 H 108.478 1.95002 -0.139519 0
M  V30 1075 H 107.182 4.08566 0.387553 0
M  V30 1076 H 106.713 3.41288 1.95669 0
M  V30 1077 H 108.728 3.83772 3.14537 0
M  V30 1078 N 107.901 -0.206675 1.56239 0
M  V30 1079 C 108.849 -1.27571 1.94495 0
M  V30 1080 C 109.843 -1.47737 0.828862 0
M  V30 1081 O 111.049 -1.48735 1.0138 0
M  V30 1082 H 107.424 -0.428029 0.6183 0
M  V30 1083 H 109.395 -0.925961 2.8367 0
M  V30 1084 C 108.144 -2.61568 2.29079 0
M  V30 1085 H 107.467 -2.46863 3.14482 0
M  V30 1086 H 108.907 -3.35144 2.5972 0
M  V30 1087 C 107.366 -3.17695 1.12123 0
M  V30 1088 O 107.896 -3.99801 0.390153 0
M  V30 1089 N 106.102 -2.76276 0.901097 0
M  V30 1090 H 105.649 -2.09613 1.49733 0
M  V30 1091 H 105.607 -3.1417 0.120319 0
M  V30 1092 N 109.379 -1.50304 -0.473955 0
M  V30 1093 C 110.625 -1.61389 -1.22806 0
M  V30 1094 C 110.958 -0.311955 -1.91678 0
M  V30 1095 O 110.233 0.686384 -1.81986 0
M  V30 1096 C 110.516 -2.79219 -2.27396 0
M  V30 1097 C 110.369 -4.19286 -1.62848 0
M  V30 1098 C 111.688 -2.92614 -3.28732 0
M  V30 1099 H 108.807 -0.587399 -0.445119 0
M  V30 1100 H 111.449 -1.82681 -0.522265 0
M  V30 1101 H 109.599 -2.61195 -2.87592 0
M  V30 1102 H 111.271 -4.48892 -1.06271 0
M  V30 1103 H 109.514 -4.23677 -0.931693 0
M  V30 1104 H 110.185 -4.97655 -2.38838 0
M  V30 1105 H 112.661 -3.09105 -2.78556 0
M  V30 1106 H 111.537 -3.76688 -3.99246 0
M  V30 1107 H 111.798 -2.03107 -3.92683 0
M  V30 1108 N 110.857 0.726932 -1.39834 0
M  V30 1109 C 111.79 1.8501 -1.33592 0
M  V30 1110 C 112.768 1.61262 -0.208191 0
M  V30 1111 O 113.952 1.84422 -0.389981 0
M  V30 1112 C 111.079 3.21143 -1.07633 0
M  V30 1113 C 110.125 3.63737 -2.22705 0
M  V30 1114 S 110.958 3.72167 -3.85035 0
M  V30 1115 C 112.114 5.11077 -3.61318 0
M  V30 1116 H 112.347 1.90022 -2.28646 0
M  V30 1117 H 109.88 0.892595 -1.25985 0
M  V30 1118 H 111.838 3.99747 -0.933415 0
M  V30 1119 H 110.499 3.13776 -0.142526 0
M  V30 1120 H 109.692 4.62551 -2.00155 0
M  V30 1121 H 109.294 2.9236 -2.33242 0
M  V30 1122 H 111.586 5.97656 -3.19083 0
M  V30 1123 H 112.529 5.38658 -4.59623 0
M  V30 1124 H 112.937 4.81135 -2.95245 0
M  V30 1125 N 112.336 1.25143 0.95797 0
M  V30 1126 C 113.561 1.12521 1.74223 0
M  V30 1127 C 113.986 -0.317402 1.85403 0
M  V30 1128 O 113.344 -1.2299 1.33204 0
M  V30 1129 C 113.392 1.78062 3.1357 0
M  V30 1130 O 112.496 1.058 3.98598 0
M  V30 1131 H 111.837 0.39304 0.535178 0
M  V30 1132 H 114.367 1.65641 1.201 0
M  V30 1133 H 114.377 1.84213 3.64046 0
M  V30 1134 H 113.052 2.83021 3.04749 0
M  V30 1135 H 111.629 1.07506 3.57067 0
M  V30 1136 N 113.814 -1.1601 1.06675 0
M  V30 1137 C 115.225 -1.68235 0.809565 0
M  V30 1138 C 115.576 -1.8454 -0.666303 0
M  V30 1139 O 114.701 -1.54374 -1.5165 0
M  V30 1140 C 115.296 -3.05585 1.46299 0
M  V30 1141 C 113.855 -3.54915 1.25349 0
M  V30 1142 C 113.002 -2.30804 1.53703 0
M  V30 1143 H 115.953 -1.00318 1.22971 0
M  V30 1144 H 115.974 -3.70174 0.880431 0
M  V30 1145 H 115.486 -2.93686 2.53713 0
M  V30 1146 H 113.587 -3.72067 0.199261 0
M  V30 1147 H 113.7 -4.36774 1.9689 0
M  V30 1148 H 112.064 -2.36007 0.957739 0
M  V30 1149 H 112.847 -2.21499 2.62284 0
M  V30 1150 N 115.292 -0.849877 -1.32721 0
M  V30 1151 C 116.24 -0.279745 -2.30912 0
M  V30 1152 C 117.234 0.594278 -1.58634 0
M  V30 1153 O 118.44 0.482613 -1.73409 0
M  V30 1154 H 114.815 -0.0717521 -0.748569 0
M  V30 1155 H 116.786 -1.12222 -2.76494 0
M  V30 1156 C 115.535 0.521108 -3.43773 0
M  V30 1157 H 114.858 -0.142141 -3.99547 0
M  V30 1158 H 116.298 0.885693 -4.14646 0
M  V30 1159 C 114.757 1.70442 -2.90605 0
M  V30 1160 O 115.287 2.8034 -2.87702 0
M  V30 1161 N 113.493 1.52991 -2.47067 0
M  V30 1162 H 113.04 0.635914 -2.49628 0
M  V30 1163 H 112.998 2.32311 -2.11847 0
M  V30 1164 N 116.77 1.45427 -0.607355 0
M  V30 1165 C 117.702 2.2871 0.149752 0
M  V30 1166 C 118.715 1.39937 0.831958 0
M  V30 1167 O 119.904 1.64313 0.697385 0
M  V30 1168 C 117.004 3.15673 1.23304 0
M  V30 1169 C 116.177 4.32722 0.637996 0
M  V30 1170 C 115.236 5.00895 1.61215 0
M  V30 1171 O 114.262 5.57697 1.13854 0
M  V30 1172 N 115.464 5.00159 2.94655 0
M  V30 1173 H 118.229 2.94328 -0.564882 0
M  V30 1174 H 115.79 1.55612 -0.446823 0
M  V30 1175 H 117.782 3.58144 1.88454 0
M  V30 1176 H 116.352 2.51965 1.8502 0
M  V30 1177 H 115.572 3.93734 -0.191572 0
M  V30 1178 H 116.86 5.08321 0.220665 0
M  V30 1179 H 116.258 4.553 3.35735 0
M  V30 1180 H 114.815 5.46495 3.55228 0
M  V30 1181 N 118.248 0.346503 1.53744 0
M  V30 1182 C 119.196 -0.52422 2.26616 0
M  V30 1183 C 120.19 -1.09948 1.28871 0
M  V30 1184 O 121.396 -1.04488 1.46568 0
M  V30 1185 H 117.771 -0.187743 0.728187 0
M  V30 1186 H 119.742 0.11239 2.98188 0
M  V30 1187 C 118.491 -1.66186 3.05414 0
M  V30 1188 H 117.814 -1.22848 3.80458 0
M  V30 1189 H 119.254 -2.24622 3.59612 0
M  V30 1190 C 117.713 -2.59302 2.1509 0
M  V30 1191 O 118.243 -3.61628 1.74895 0
M  V30 1192 N 116.449 -2.28055 1.8011 0
M  V30 1193 H 115.996 -1.44883 2.12994 0
M  V30 1194 H 115.954 -2.90615 1.19958 0
M  V30 1195 N 119.726 -1.57421 0.075193 0
M  V30 1196 C 120.674 -2.14124 -0.908508 0
M  V30 1197 C 121.668 -1.07898 -1.30592 0
M  V30 1198 O 122.874 -1.26273 -1.28277 0
M  V30 1199 H 119.249 -0.684707 -0.310935 0
M  V30 1200 H 121.22 -2.95634 -0.405374 0
M  V30 1201 C 119.969 -2.72044 -2.16535 0
M  V30 1202 H 119.292 -3.53456 -1.86839 0
M  V30 1203 H 120.732 -3.15311 -2.83469 0
M  V30 1204 C 119.191 -1.66968 -2.92615 0
M  V30 1205 O 119.721 -1.0967 -3.86439 0
M  V30 1206 N 117.927 -1.37923 -2.55784 0
M  V30 1207 H 117.474 -1.84706 -1.79559 0
M  V30 1208 H 117.432 -0.67852 -3.06991 0
M  V30 1209 N 121.204 0.198386 -1.56346 0
M  V30 1210 C 122.45 0.916115 -1.81601 0
M  V30 1211 C 122.805 1.81025 -0.651744 0
M  V30 1212 O 122.098 1.88316 0.353229 0
M  V30 1213 C 122.292 1.77031 -3.10475 0
M  V30 1214 C 122.121 0.960365 -4.39326 0
M  V30 1215 C 120.891 0.646093 -5.01152 0
M  V30 1216 C 123.089 0.314628 -5.13337 0
M  V30 1217 N 121.071 -0.182828 -6.13628 0
M  V30 1218 C 122.442 -0.37664 -6.18855 0
M  V30 1219 C 124.497 0.230019 -4.97368 0
M  V30 1220 C 123.2 -1.14445 -7.10137 0
M  V30 1221 C 125.226 -0.524389 -5.89071 0
M  V30 1222 C 124.588 -1.20412 -6.94032 0
M  V30 1223 H 120.687 0.314732 -0.715868 0
M  V30 1224 H 123.271 0.185102 -1.93818 0
M  V30 1225 H 121.442 2.47295 -2.99499 0
M  V30 1226 H 123.174 2.42727 -3.2383 0
M  V30 1227 H 119.929 0.969724 -4.63566 0
M  V30 1228 H 120.353 -0.586802 -6.74452 0
M  V30 1229 H 124.995 0.741184 -4.16253 0
M  V30 1230 H 122.713 -1.66706 -7.90718 0
M  V30 1231 H 126.299 -0.591167 -5.78789 0
M  V30 1232 H 125.179 -1.77853 -7.63766 0
M  V30 1233 N 122.682 1.50554 0.465978 0
M  V30 1234 C 123.612 1.72722 1.57128 0
M  V30 1235 C 124.593 0.576294 1.6004 0
M  V30 1236 O 125.778 0.81598 1.76225 0
M  V30 1237 C 122.908 1.82605 2.95419 0
M  V30 1238 C 121.862 2.97835 3.07373 0
M  V30 1239 C 121.188 2.92867 4.47363 0
M  V30 1240 C 122.488 4.38265 2.84114 0
M  V30 1241 H 124.182 2.65267 1.38829 0
M  V30 1242 H 121.728 1.2765 0.666441 0
M  V30 1243 H 123.681 1.96698 3.72677 0
M  V30 1244 H 122.405 0.866858 3.14886 0
M  V30 1245 H 121.064 2.83401 2.3255 0
M  V30 1246 H 120.712 1.94783 4.63755 0
M  V30 1247 H 120.412 3.70227 4.56296 0
M  V30 1248 H 121.936 3.09015 5.26633 0
M  V30 1249 H 123.35 4.53198 3.51118 0
M  V30 1250 H 121.747 5.17115 3.04487 0
M  V30 1251 H 122.817 4.50281 1.7993 0
M  V30 1252 N 124.16 -0.719506 1.40217 0
M  V30 1253 C 125.576 -1.02707 1.22161 0
M  V30 1254 C 125.776 -2.0128 0.0940557 0
M  V30 1255 O 124.832 -2.46452 -0.549318 0
M  V30 1256 C 126.145 -1.57454 2.56181 0
M  V30 1257 C 127.693 -1.69458 2.63159 0
M  V30 1258 C 128.168 -2.27611 3.97438 0
M  V30 1259 N 129.659 -2.35002 3.99159 0
M  V30 1260 C 130.394 -2.80972 4.99842 0
M  V30 1261 N 129.89 -3.26723 6.10921 0
M  V30 1262 N 131.683 -2.80321 4.87213 0
M  V30 1263 H 123.834 -0.0660492 2.12297 0
M  V30 1264 H 126.097 -0.0919077 0.943534 0
M  V30 1265 H 125.803 -0.924873 3.39321 0
M  V30 1266 H 125.677 -2.56036 2.76993 0
M  V30 1267 H 128.064 -2.33543 1.80393 0
M  V30 1268 H 128.145 -0.694867 2.46181 0
M  V30 1269 H 127.789 -1.6415 4.80643 0
M  V30 1270 H 127.719 -3.2829 4.11744 0
M  V30 1271 H 130.21 -2.02685 3.18947 0
M  V30 1272 H 130.523 -3.60355 6.8364 0
M  V30 1273 H 128.868 -3.24692 6.14492 0
M  V30 1274 H 132.059 -2.43912 3.9953 0
M  V30 1275 H 132.232 -3.15831 5.65822 0
M  V30 1276 N 125.638 -1.25649 -0.95132 0
M  V30 1277 C 126.866 -1.13343 -1.73092 0
M  V30 1278 C 127.281 0.312434 -1.86197 0
M  V30 1279 O 126.638 1.21465 -1.36207 0
M  V30 1280 C 126.689 -1.78602 -3.14299 0
M  V30 1281 O 126.41 -3.17537 -3.01831 0
M  V30 1282 C 127.911 -1.72119 -4.08522 0
M  V30 1283 H 125.131 -0.395181 -0.542285 0
M  V30 1284 H 127.675 -1.66076 -1.19328 0
M  V30 1285 H 125.83 -1.29832 -3.64996 0
M  V30 1286 H 126.244 -3.49676 -3.90931 0
M  V30 1287 H 127.718 -2.22435 -5.052 0
M  V30 1288 H 128.195 -0.685635 -4.33815 0
M  V30 1289 H 128.801 -2.20393 -3.63741 0
M  V30 1290 N 127.117 1.15442 -1.07289 0
M  V30 1291 C 128.342 1.90638 -0.816828 0
M  V30 1292 C 128.767 1.77445 0.624083 0
M  V30 1293 O 128.125 1.10671 1.43602 0
M  V30 1294 C 128.173 3.39008 -1.22906 0
M  V30 1295 O 127.277 4.10701 -0.373975 0
M  V30 1296 H 126.618 0.593555 -0.297638 0
M  V30 1297 H 129.148 1.46198 -1.43134 0
M  V30 1298 H 129.158 3.89801 -1.20497 0
M  V30 1299 H 127.833 3.47929 -2.27856 0
M  V30 1300 H 126.41 3.70046 -0.460499 0
M  V30 1301 N 128.595 0.856903 1.32268 0
M  V30 1302 C 129.841 0.471355 1.97863 0
M  V30 1303 C 130.196 -0.962896 1.66572 0
M  V30 1304 O 129.489 -1.66686 0.944797 0
M  V30 1305 C 129.683 0.649919 3.51441 0
M  V30 1306 C 129.512 2.09997 3.97657 0
M  V30 1307 C 128.282 2.73893 4.2463 0
M  V30 1308 C 130.48 3.07081 4.1256 0
M  V30 1309 N 128.462 4.09786 4.57109 0
M  V30 1310 C 129.833 4.27968 4.48602 0
M  V30 1311 C 131.888 3.03247 3.949 0
M  V30 1312 C 130.591 5.45521 4.68827 0
M  V30 1313 C 132.617 4.20046 4.16311 0
M  V30 1314 C 131.979 5.39692 4.52672 0
M  V30 1315 H 128.078 0.221263 0.750044 0
M  V30 1316 H 130.662 1.10876 1.60045 0
M  V30 1317 H 128.833 0.0421938 3.88377 0
M  V30 1318 H 130.565 0.234044 4.04023 0
M  V30 1319 H 127.32 2.24918 4.16784 0
M  V30 1320 H 127.744 4.7989 4.7753 0
M  V30 1321 H 132.386 2.11863 3.65888 0
M  V30 1322 H 130.104 6.37434 4.96693 0
M  V30 1323 H 133.69 4.18517 4.04147 0
M  V30 1324 H 132.57 6.28566 4.68907 0
M  V30 1325 N 130.073 -1.45103 0.615059 0
M  V30 1326 C 131.319 -2.02483 0.113347 0
M  V30 1327 C 131.652 -1.48146 -1.25564 0
M  V30 1328 O 130.927 -0.659104 -1.82992 0
M  V30 1329 C 131.21 -3.60005 0.0825278 0
M  V30 1330 C 131.063 -4.2466 1.48271 0
M  V30 1331 C 132.382 -4.35972 -0.601401 0
M  V30 1332 H 129.501 -0.735764 0.0426632 0
M  V30 1333 H 132.143 -1.72868 0.788461 0
M  V30 1334 H 130.293 -3.85367 -0.492378 0
M  V30 1335 H 131.965 -4.10458 2.10527 0
M  V30 1336 H 130.208 -3.82772 2.04127 0
M  V30 1337 H 130.879 -5.336 1.41332 0
M  V30 1338 H 133.355 -4.15947 -0.112666 0
M  V30 1339 H 132.231 -5.45697 -0.592097 0
M  V30 1340 H 132.492 -4.09391 -1.66887 0
M  V30 1341 N 131.551 -0.354651 -1.53558 0
M  V30 1342 C 132.962 0.126902 -1.86268 0
M  V30 1343 C 133.313 1.49075 -1.27558 0
M  V30 1344 O 132.438 2.08105 -0.5934 0
M  V30 1345 C 133.033 0.237046 -3.3797 0
M  V30 1346 C 131.592 0.662842 -3.70518 0
M  V30 1347 C 130.739 -0.196652 -2.76602 0
M  V30 1348 H 133.69 -0.573849 -1.47962 0
M  V30 1349 H 133.711 1.06259 -3.65362 0
M  V30 1350 H 133.223 -0.755725 -3.80671 0
M  V30 1351 H 131.324 1.66424 -3.33367 0
M  V30 1352 H 131.437 0.445034 -4.77029 0
M  V30 1353 H 129.801 0.332763 -2.52517 0
M  V30 1354 H 130.584 -1.18676 -3.22135 0
M  V30 1355 N 133.029 1.57378 -0.0835403 0
M  V30 1356 C 134.445 1.57246 0.273109 0
M  V30 1357 C 134.645 1.09385 1.69225 0
M  V30 1358 O 133.701 0.765051 2.40631 0
M  V30 1359 C 135.014 3.00614 0.0720628 0
M  V30 1360 C 136.562 3.12684 0.1407 0
M  V30 1361 C 137.037 4.57989 -0.0322094 0
M  V30 1362 N 138.528 4.63194 0.0230085 0
M  V30 1363 C 139.263 5.73335 -0.0861941 0
M  V30 1364 N 138.759 6.9235 -0.24958 0
M  V30 1365 N 140.552 5.62093 -0.0282886 0
M  V30 1366 H 132.703 1.86801 -1.0109 0
M  V30 1367 H 134.966 0.861687 -0.395222 0
M  V30 1368 H 134.672 3.39786 -0.907662 0
M  V30 1369 H 134.546 3.68193 0.81936 0
M  V30 1370 H 136.933 2.73391 1.11092 0
M  V30 1371 H 137.014 2.47719 -0.637896 0
M  V30 1372 H 136.658 4.97973 -0.999247 0
M  V30 1373 H 136.588 5.21 0.765937 0
M  V30 1374 H 139.079 3.77613 0.14722 0
M  V30 1375 H 139.392 7.72117 -0.324733 0
M  V30 1376 H 137.737 6.94415 -0.285097 0
M  V30 1377 H 140.928 4.67997 0.0981408 0
M  V30 1378 H 141.101 6.47895 -0.116845 0
M  V30 1379 N 134.507 -0.190092 1.56449 0
M  V30 1380 C 135.784 -0.935886 1.71757 0
M  V30 1381 C 136.164 -2.01173 0.639726 0
M  V30 1382 O 135.512 -2.25827 -0.348502 0
M  V30 1383 C 135.722 -1.51775 3.1427 0
M  V30 1384 C 137.07 -1.99794 3.74656 0
M  V30 1385 O 138.094 -1.61607 3.1743 0
M  V30 1386 O 136.953 -2.70079 4.751 0
M  V30 1387 H 134.047 -0.439229 0.700719 0
M  V30 1388 H 136.593 -0.179395 1.68749 0
M  V30 1389 H 135.365 -0.742505 3.84191 0
M  V30 1390 H 134.988 -2.33894 3.21527 0
M  V30 1391 N 135.985 -1.50799 -0.457987 0
M  V30 1392 C 137.233 -1.62121 -1.2067 0
M  V30 1393 C 137.554 -0.329793 -1.92191 0
M  V30 1394 O 136.824 0.653409 -1.84682 0
M  V30 1395 H 135.404 -0.597441 -0.448411 0
M  V30 1396 H 138.066 -1.87637 -0.527096 0
M  V30 1397 H 137.162 -2.43882 -1.94751 0
M  V30 1398 N 137.463 0.71206 -1.40597 0
M  V30 1399 C 138.426 1.80785 -1.40888 0
M  V30 1400 C 139.426 1.57937 -0.302103 0
M  V30 1401 O 140.616 1.64913 -0.561182 0
M  V30 1402 C 137.748 3.18927 -1.20409 0
M  V30 1403 H 138.941 1.81924 -2.38419 0
M  V30 1404 H 136.494 0.91805 -1.26497 0
M  V30 1405 H 137.229 3.23436 -0.236522 0
M  V30 1406 H 137.014 3.36911 -2.00582 0
M  V30 1407 H 138.504 3.98949 -1.23408 0
M  V30 1408 N 138.941 1.26152 0.944643 0
M  V30 1409 C 140.357 1.03189 1.21754 0
M  V30 1410 C 140.557 -0.245112 2.00004 0
M  V30 1411 O 139.613 -0.955176 2.33736 0
M  V30 1412 C 140.926 2.26119 1.98219 0
M  V30 1413 C 142.474 2.30984 2.11224 0
M  V30 1414 C 142.949 3.53597 2.91089 0
M  V30 1415 N 144.44 3.54053 2.98664 0
M  V30 1416 C 145.175 4.45593 3.60881 0
M  V30 1417 N 144.671 5.47416 4.24626 0
M  V30 1418 N 146.464 4.33252 3.58119 0
M  V30 1419 H 138.615 2.08177 0.421437 0
M  V30 1420 H 140.878 0.914723 0.248969 0
M  V30 1421 H 140.584 3.18984 1.48128 0
M  V30 1422 H 140.458 2.3009 2.98895 0
M  V30 1423 H 142.845 1.38635 2.60508 0
M  V30 1424 H 142.926 2.31026 1.09821 0
M  V30 1425 H 142.57 4.46273 2.42493 0
M  V30 1426 H 142.5 3.50802 3.92741 0
M  V30 1427 H 144.991 2.80403 2.53343 0
M  V30 1428 H 145.304 6.13459 4.69987 0
M  V30 1429 H 143.649 5.51278 4.23223 0
M  V30 1430 H 146.84 3.52924 3.0751 0
M  V30 1431 H 147.013 5.04786 4.06319 0
M  V30 1432 N 140.419 -1.14872 1.07899 0
M  V30 1433 C 141.835 -1.37776 0.805606 0
M  V30 1434 C 142.035 -1.92743 -0.587555 0
M  V30 1435 O 141.091 -2.13678 -1.34528 0
M  V30 1436 C 142.404 -2.34361 1.88402 0
M  V30 1437 C 143.952 -2.48012 1.90942 0
M  V30 1438 C 144.427 -3.47893 2.97883 0
M  V30 1439 N 145.918 -3.55433 2.97021 0
M  V30 1440 C 146.653 -4.32553 3.76412 0
M  V30 1441 N 146.149 -5.12959 4.65666 0
M  V30 1442 N 147.942 -4.27697 3.64735 0
M  V30 1443 H 140.093 -0.775365 1.97742 0
M  V30 1444 H 142.356 -0.403521 0.857831 0
M  V30 1445 H 142.062 -2.01098 2.88535 0
M  V30 1446 H 141.936 -3.34206 1.74889 0
M  V30 1447 H 144.323 -2.8057 0.914579 0
M  V30 1448 H 144.404 -1.48147 2.08534 0
M  V30 1449 H 144.048 -3.16069 3.97571 0
M  V30 1450 H 143.978 -4.47527 2.77538 0
M  V30 1451 H 146.469 -2.98048 2.32326 0
M  V30 1452 H 146.782 -5.69065 5.22862 0
M  V30 1453 H 145.127 -5.12245 4.69712 0
M  V30 1454 H 148.318 -3.63949 2.94378 0
M  V30 1455 H 148.491 -4.8755 4.26848 0
M  V30 1456 N 141.898 -0.863906 -1.31812 0
M  V30 1457 C 143.144 -0.472535 -1.97218 0
M  V30 1458 C 143.477 0.971394 -1.68159 0
M  V30 1459 O 142.752 1.68309 -0.974798 0
M  V30 1460 C 143.035 -0.723054 -3.52766 0
M  V30 1461 C 142.888 -2.21608 -3.91421 0
M  V30 1462 C 144.207 -0.185522 -4.39709 0
M  V30 1463 H 141.326 -0.173158 -0.71637 0
M  V30 1464 H 143.968 -1.08403 -1.56041 0
M  V30 1465 H 142.118 -0.202577 -3.87971 0
M  V30 1466 H 143.79 -2.80334 -3.66347 0
M  V30 1467 H 142.033 -2.691 -3.40246 0
M  V30 1468 H 142.704 -2.34203 -4.99853 0
M  V30 1469 H 145.18 -0.630726 -4.11292 0
M  V30 1470 H 144.056 -0.390306 -5.47511 0
M  V30 1471 H 144.317 0.912229 -4.32586 0
M  V30 1472 N 143.376 1.44774 -0.622745 0
M  V30 1473 C 144.606 2.06187 -0.130532 0
M  V30 1474 C 145.014 1.46547 1.19669 0
M  V30 1475 O 144.357 0.579636 1.74316 0
M  V30 1476 C 144.419 3.59437 0.0674983 0
M  V30 1477 C 144.083 4.41496 -1.18026 0
M  V30 1478 C 145.08 4.75512 -2.102 0
M  V30 1479 C 142.765 4.82007 -1.41333 0
M  V30 1480 C 144.759 5.48912 -3.23998 0
M  V30 1481 C 142.446 5.55157 -2.55429 0
M  V30 1482 C 143.444 5.88528 -3.46589 0
M  V30 1483 O 143.132 6.60191 -4.58697 0
M  V30 1484 H 142.864 0.672045 -0.0730162 0
M  V30 1485 H 145.418 1.86768 -0.854802 0
M  V30 1486 H 143.648 3.77314 0.846825 0
M  V30 1487 H 145.337 4.02642 0.513209 0
M  V30 1488 H 146.103 4.4476 -1.93425 0
M  V30 1489 H 141.982 4.55457 -0.712709 0
M  V30 1490 H 145.526 5.74877 -3.95174 0
M  V30 1491 H 141.423 5.85324 -2.72151 0
M  V30 1492 H 142.191 6.78654 -4.57571 0
M  V30 1493 N 144.854 0.36279 1.53368 0
M  V30 1494 C 145.817 -0.472679 2.24273 0
M  V30 1495 C 146.817 -1.012 1.24961 0
M  V30 1496 O 148.007 -0.898194 1.49259 0
M  V30 1497 C 145.139 -1.66039 2.97731 0
M  V30 1498 H 146.332 0.14773 2.99536 0
M  V30 1499 H 143.885 0.114434 1.55881 0
M  V30 1500 H 144.62 -2.31896 2.26704 0
M  V30 1501 H 144.405 -1.28066 3.70596 0
M  V30 1502 H 145.895 -2.25252 3.51641 0
M  V30 1503 N 146.332 -1.57332 0.0918853 0
M  V30 1504 C 147.242 -2.17368 -0.882505 0
M  V30 1505 C 148.258 -1.14226 -1.31257 0
M  V30 1506 O 149.434 -1.46582 -1.38115 0
M  V30 1507 C 146.499 -2.73962 -2.12476 0
M  V30 1508 C 145.56 -3.92048 -1.7492 0
M  V30 1509 C 144.793 -4.45933 -2.93223 0
M  V30 1510 O 145.016 -3.98764 -4.07852 0
M  V30 1511 O 143.95 -5.36999 -2.71875 0
M  V30 1512 H 147.776 -3.01031 -0.40172 0
M  V30 1513 H 145.361 -1.48813 -0.132291 0
M  V30 1514 H 147.243 -3.10147 -2.85283 0
M  V30 1515 H 145.918 -1.93347 -2.59613 0
M  V30 1516 H 144.825 -3.6068 -0.993025 0
M  V30 1517 H 146.158 -4.74017 -1.32548 0
M  V30 1518 N 147.81 0.181792 -1.56548 0
M  V30 1519 C 149.059 0.898348 -1.8059 0
M  V30 1520 C 149.372 1.83862 -0.667379 0
M  V30 1521 O 150.578 2.59678 -0.792446 0
M  V30 1522 C 149.034 1.64791 -3.19956 0
M  V30 1523 C 148.642 0.751789 -4.41647 0
M  V30 1524 C 150.386 2.35331 -3.53298 0
M  V30 1525 C 148.293 1.50098 -5.72035 0
M  V30 1526 H 147.223 0.339194 -0.673397 0
M  V30 1527 H 149.874 0.151413 -1.82874 0
M  V30 1528 H 148.256 2.43921 -3.11959 0
M  V30 1529 H 149.43 -0.0018076 -4.608 0
M  V30 1530 H 147.745 0.156562 -4.16106 0
M  V30 1531 H 150.342 2.91958 -4.47956 0
M  V30 1532 H 150.685 3.10164 -2.77676 0
M  V30 1533 H 151.218 1.63154 -3.62803 0
M  V30 1534 H 147.957 0.795175 -6.50659 0
M  V30 1535 H 147.477 2.22817 -5.56878 0
M  V30 1536 H 149.156 2.05125 -6.13622 0
M  V30 1537 N 149.288 1.51039 0.449983 0
M  V30 1538 C 150.235 1.71439 1.54523 0
M  V30 1539 C 151.205 0.555871 1.56522 0
M  V30 1540 O 152.39 0.788871 1.73728 0
M  V30 1541 C 149.53 1.83384 2.92343 0
M  V30 1542 C 148.643 3.10873 2.9997 0
M  V30 1543 C 147.778 3.13488 4.28834 0
M  V30 1544 C 146.817 4.35343 4.30282 0
M  V30 1545 N 145.954 4.35579 5.5065 0
M  V30 1546 H 150.794 2.64934 1.36433 0
M  V30 1547 H 148.331 1.31312 0.662982 0
M  V30 1548 H 150.289 1.88291 3.72293 0
M  V30 1549 H 148.919 0.933086 3.0902 0
M  V30 1550 H 147.971 3.15336 2.12761 0
M  V30 1551 H 149.283 4.00814 2.96901 0
M  V30 1552 H 148.437 3.17241 5.17149 0
M  V30 1553 H 147.176 2.21414 4.34543 0
M  V30 1554 H 146.181 4.3178 3.40362 0
M  V30 1555 H 147.406 5.28668 4.26248 0
M  V30 1556 H 145.352 3.46369 5.57104 0
M  V30 1557 H 145.269 5.19313 5.49409 0
M  V30 1558 H 146.537 4.43507 6.41032 0
M  V30 1559 N 150.766 -0.704594 1.40972 0
M  V30 1560 C 152.013 -1.46458 1.39844 0
M  V30 1561 C 152.341 -1.94499 0.00447594 0
M  V30 1562 O 151.596 -1.69275 -0.982057 0
M  V30 1563 C 151.895 -2.698 2.34399 0
M  V30 1564 C 151.561 -2.40464 3.81429 0
M  V30 1565 C 150.223 -2.32174 4.21484 0
M  V30 1566 C 152.575 -2.16086 4.74296 0
M  V30 1567 C 149.903 -1.97589 5.52427 0
M  V30 1568 C 152.255 -1.83011 6.05549 0
M  V30 1569 C 150.919 -1.7321 6.44635 0
M  V30 1570 H 150.189 -0.535927 0.511725 0
M  V30 1571 H 152.836 -0.806124 1.73706 0
M  V30 1572 H 151.141 -3.40536 1.93759 0
M  V30 1573 H 152.838 -3.27919 2.30804 0
M  V30 1574 H 149.428 -2.47808 3.49699 0
M  V30 1575 H 153.612 -2.2144 4.4416 0
M  V30 1576 H 148.868 -1.88547 5.81601 0
M  V30 1577 H 153.042 -1.63164 6.77016 0
M  V30 1578 H 150.669 -1.46179 7.46013 0
M  V30 1579 N 152.244 -1.26651 -0.937939 0
M  V30 1580 C 153.472 -1.15173 -1.7188 0
M  V30 1581 C 153.887 0.292668 -1.86518 0
M  V30 1582 O 153.244 1.20014 -1.37488 0
M  V30 1583 C 153.295 -1.81925 -3.12387 0
M  V30 1584 O 153.016 -3.2072 -2.98446 0
M  V30 1585 C 154.517 -1.76442 -4.06673 0
M  V30 1586 H 151.737 -0.400911 -0.538063 0
M  V30 1587 H 154.281 -1.67332 -1.1756 0
M  V30 1588 H 152.436 -1.33696 -3.63599 0
M  V30 1589 H 152.85 -3.53802 -3.872 0
M  V30 1590 H 154.324 -2.27781 -5.02812 0
M  V30 1591 H 154.801 -0.731608 -4.33064 0
M  V30 1592 H 155.407 -2.24238 -3.61382 0
M  V30 1593 N 153.722 1.14298 -1.08507 0
M  V30 1594 C 154.652 2.21542 -0.737646 0
M  V30 1595 C 155.633 1.67773 0.280377 0
M  V30 1596 O 156.818 1.93616 0.150521 0
M  V30 1597 C 153.948 3.46988 -0.147259 0
M  V30 1598 C 152.902 4.13789 -1.09374 0
M  V30 1599 C 152.228 5.33449 -0.365524 0
M  V30 1600 C 153.528 4.62208 -2.4323 0
M  V30 1601 H 155.222 2.5086 -1.6343 0
M  V30 1602 H 152.768 1.20576 -0.787243 0
M  V30 1603 H 154.721 4.21262 0.107808 0
M  V30 1604 H 153.445 3.17037 0.784538 0
M  V30 1605 H 152.104 3.4147 -1.33393 0
M  V30 1606 H 151.752 4.99759 0.57011 0
M  V30 1607 H 151.452 5.79088 -0.996512 0
M  V30 1608 H 152.976 6.10485 -0.118534 0
M  V30 1609 H 154.39 5.27952 -2.23472 0
M  V30 1610 H 152.787 5.18553 -3.02031 0
M  V30 1611 H 153.857 3.77224 -3.04681 0
M  V30 1612 N 155.201 0.870884 1.31352 0
M  V30 1613 C 156.617 0.562932 1.49343 0
M  V30 1614 C 156.817 -0.902725 1.80148 0
M  V30 1615 O 155.873 -1.68484 1.88067 0
M  V30 1616 C 157.186 1.46393 2.62659 0
M  V30 1617 C 158.734 1.46607 2.76542 0
M  V30 1618 C 159.209 2.35266 3.92955 0
M  V30 1619 N 160.7 2.33151 4.00243 0
M  V30 1620 C 161.435 2.98471 4.89594 0
M  V30 1621 N 160.931 3.72964 5.8384 0
M  V30 1622 N 162.724 2.87775 4.82848 0
M  V30 1623 H 154.875 1.81923 1.09626 0
M  V30 1624 H 157.138 0.777934 0.541777 0
M  V30 1625 H 156.844 2.50689 2.46674 0
M  V30 1626 H 156.718 1.16314 3.58819 0
M  V30 1627 H 159.105 0.43069 2.9194 0
M  V30 1628 H 159.186 1.8071 1.81046 0
M  V30 1629 H 158.83 3.38881 3.78315 0
M  V30 1630 H 158.76 1.98487 4.87761 0
M  V30 1631 H 161.251 1.79006 3.32814 0
M  V30 1632 H 161.564 4.19932 6.4875 0
M  V30 1633 H 159.909 3.77073 5.83816 0
M  V30 1634 H 163.1 2.29116 4.08195 0
M  V30 1635 H 163.273 3.38961 5.52277 0
M  V30 1636 N 156.679 -1.44442 0.630414 0
M  V30 1637 C 157.956 -1.9549 0.0655657 0
M  V30 1638 C 158.336 -1.5724 -1.40851 0
M  V30 1639 O 157.684 -0.846116 -2.12257 0
M  V30 1640 C 157.894 -3.47812 0.287691 0
M  V30 1641 C 159.242 -4.24216 0.180513 0
M  V30 1642 O 160.266 -3.55526 0.219019 0
M  V30 1643 O 159.125 -5.46434 0.0848493 0
M  V30 1644 H 156.219 -0.826688 -0.0227177 0
M  V30 1645 H 158.765 -1.54496 0.702068 0
M  V30 1646 H 157.537 -3.687 1.31056 0
M  V30 1647 H 157.16 -3.95751 -0.382984 0
M  V30 1648 N 158.157 -0.370918 -1.53173 0
M  V30 1649 C 159.397 0.217106 -2.03244 0
M  V30 1650 C 159.761 1.45558 -1.25207 0
M  V30 1651 O 160.962 2.11957 -1.65311 0
M  V30 1652 C 159.233 0.496664 -3.53932 0
M  V30 1653 S 160.792 1.0576 -4.25864 0
M  V30 1654 H 157.61 0.0627827 -0.708223 0
M  V30 1655 H 160.212 -0.515019 -1.88594 0
M  V30 1656 H 158.916 -0.412096 -4.08326 0
M  V30 1657 H 158.447 1.25772 -3.72753 0
M  V30 1658 H 160.462 2.34145 -4.37482 0
M  V30 1659 N 159.635 1.57281 -0.100228 0
M  V30 1660 C 160.583 2.15542 0.874328 0
M  V30 1661 C 161.577 1.09962 1.28859 0
M  V30 1662 O 162.783 1.28298 1.26252 0
M  V30 1663 H 159.158 0.689567 0.300003 0
M  V30 1664 H 161.129 2.96241 0.35829 0
M  V30 1665 C 159.878 2.75454 2.1218 0
M  V30 1666 H 159.201 3.56384 1.81193 0
M  V30 1667 H 160.641 3.19781 2.78417 0
M  V30 1668 C 159.1 1.71602 2.89921 0
M  V30 1669 O 159.63 1.15804 3.84646 0
M  V30 1670 N 157.836 1.41975 2.53558 0
M  V30 1671 H 157.383 1.87539 1.76598 0
M  V30 1672 H 157.341 0.727274 3.05873 0
M  V30 1673 N 161.113 -0.173488 1.56642 0
M  V30 1674 C 162.338 -0.910149 1.86363 0
M  V30 1675 C 162.763 -1.75132 0.686318 0
M  V30 1676 O 162.121 -1.77595 -0.364643 0
M  V30 1677 C 162.169 -1.76447 3.14482 0
M  V30 1678 O 161.273 -2.86584 2.96553 0
M  V30 1679 H 160.614 -0.255086 0.613047 0
M  V30 1680 H 163.144 -0.172283 2.03873 0
M  V30 1681 H 163.154 -2.16483 3.45831 0
M  V30 1682 H 161.829 -1.14658 3.99783 0
M  V30 1683 H 160.406 -2.50146 2.76553 0
M  V30 1684 N 162.591 -1.51276 -0.441967 0
M  V30 1685 C 163.524 -1.66933 -1.55591 0
M  V30 1686 C 164.502 -0.516958 -1.54163 0
M  V30 1687 O 165.686 -0.740209 -1.73358 0
M  V30 1688 C 162.813 -1.67866 -2.94174 0
M  V30 1689 C 161.859 -2.89013 -3.13646 0
M  V30 1690 S 162.692 -4.49897 -2.90436 0
M  V30 1691 C 163.848 -4.53568 -4.31308 0
M  V30 1692 H 164.081 -2.61155 -1.42076 0
M  V30 1693 H 161.614 -1.40902 -0.631341 0
M  V30 1694 H 163.572 -1.69089 -3.74058 0
M  V30 1695 H 162.233 -0.748296 -3.05056 0
M  V30 1696 H 161.426 -2.86054 -4.14957 0
M  V30 1697 H 161.028 -2.85509 -2.4158 0
M  V30 1698 H 163.32 -4.28924 -5.24434 0
M  V30 1699 H 164.263 -5.55355 -4.39303 0
M  V30 1700 H 164.671 -3.82943 -4.14747 0
M  V30 1701 N 164.069 0.697108 -1.41344 0
M  V30 1702 C 165.48 1.27697 -1.36199 0
M  V30 1703 C 165.831 1.9615 -0.0443463 0
M  V30 1704 O 164.956 1.98689 0.857419 0
M  V30 1705 C 165.551 2.32223 -2.46694 0
M  V30 1706 C 164.11 2.8579 -2.44952 0
M  V30 1707 C 163.257 1.59807 -2.26621 0
M  V30 1708 H 166.208 0.491968 -1.50882 0
M  V30 1709 H 166.229 3.1348 -2.15664 0
M  V30 1710 H 165.741 1.82373 -3.42581 0
M  V30 1711 H 163.842 3.3982 -1.52817 0
M  V30 1712 H 163.955 3.36325 -3.41207 0
M  V30 1713 H 162.319 1.8556 -1.7447 0
M  V30 1714 H 163.102 1.11956 -3.24532 0
M  V30 1715 N 165.547 1.27147 0.931209 0
M  V30 1716 C 166.795 1.13055 1.6752 0
M  V30 1717 C 167.116 -0.324791 1.92276 0
M  V30 1718 O 166.386 -1.22775 1.52654 0
M  V30 1719 H 164.966 0.415391 0.620854 0
M  V30 1720 H 167.628 1.59623 1.11833 0
M  V30 1721 H 166.724 1.65694 2.64485 0
M  V30 1722 N 167.025 -1.13721 1.09112 0
M  V30 1723 C 168.271 -1.85198 0.826414 0
M  V30 1724 C 168.604 -1.83129 -0.646319 0
M  V30 1725 O 167.879 -1.2671 -1.47563 0
M  V30 1726 C 168.162 -3.33507 1.35812 0
M  V30 1727 C 168.015 -3.44108 2.89672 0
M  V30 1728 C 169.334 -4.28838 0.989256 0
M  V30 1729 H 166.453 -0.67243 0.301675 0
M  V30 1730 H 169.095 -1.33499 1.35197 0
M  V30 1731 H 167.245 -3.77666 0.911082 0
M  V30 1732 H 168.917 -3.08684 3.428 0
M  V30 1733 H 167.16 -2.85087 3.26967 0
M  V30 1734 H 167.831 -4.48388 3.21951 0
M  V30 1735 H 170.307 -3.92734 1.37475 0
M  V30 1736 H 169.183 -5.31051 1.38838 0
M  V30 1737 H 169.444 -4.4198 -0.102924 0
M  V30 1738 N 168.503 -0.877838 -1.30888 0
M  V30 1739 C 169.433 -0.35534 -2.3078 0
M  V30 1740 C 170.414 0.557994 -1.60687 0
M  V30 1741 O 171.599 0.473355 -1.88343 0
M  V30 1742 C 168.729 0.437221 -3.44537 0
M  V30 1743 C 167.683 -0.383715 -4.26276 0
M  V30 1744 C 167.009 0.535014 -5.32017 0
M  V30 1745 C 168.309 -1.62201 -4.96476 0
M  V30 1746 H 170.003 -1.19007 -2.74732 0
M  V30 1747 H 167.549 -0.573698 -1.32078 0
M  V30 1748 H 169.502 0.813334 -4.13477 0
M  V30 1749 H 168.226 1.30553 -2.99372 0
M  V30 1750 H 166.885 -0.741874 -3.59015 0
M  V30 1751 H 166.533 1.40083 -4.831 0
M  V30 1752 H 166.233 -0.0104211 -5.87599 0
M  V30 1753 H 167.757 0.907799 -6.03814 0
M  V30 1754 H 169.171 -1.31689 -5.5797 0
M  V30 1755 H 167.568 -2.10711 -5.61891 0
M  V30 1756 H 168.638 -2.37044 -4.23011 0
M  V30 1757 N 169.982 1.44106 -0.638065 0
M  V30 1758 C 171.23 2.01579 -0.145043 0
M  V30 1759 C 171.551 1.50496 1.24 0
M  V30 1760 O 170.821 0.711374 1.82527 0
M  V30 1761 H 169.401 0.745282 -0.05063 0
M  V30 1762 H 172.063 1.76516 -0.826327 0
M  V30 1763 H 171.159 3.11877 -0.118039 0
M  V30 1764 N 171.46 0.379036 1.52974 0
M  V30 1765 C 172.688 -0.20679 2.05864 0
M  V30 1766 C 173.103 -1.41356 1.25155 0
M  V30 1767 O 172.46 -1.8009 0.295588 0
M  V30 1768 C 172.511 -0.587045 3.56702 0
M  V30 1769 O 172.232 0.571776 4.34353 0
M  V30 1770 C 173.733 -1.22983 4.25899 0
M  V30 1771 H 170.953 -0.0336123 0.670158 0
M  V30 1772 H 173.497 0.541298 1.97206 0
M  V30 1773 H 171.652 -1.28504 3.65466 0
M  V30 1774 H 172.066 0.261544 5.23847 0
M  V30 1775 H 173.54 -1.44635 5.32715 0
M  V30 1776 H 174.017 -2.19416 3.80465 0
M  V30 1777 H 174.623 -0.572892 4.21424 0
M  V30 1778 N 172.938 -1.57226 0.108567 0
M  V30 1779 C 174.178 -1.96717 -0.555155 0
M  V30 1780 C 174.542 -0.990003 -1.64508 0
M  V30 1781 O 175.743 -1.2739 -2.36696 0
M  V30 1782 C 174.014 -3.40575 -1.08367 0
M  V30 1783 S 175.573 -4.02072 -1.75737 0
M  V30 1784 H 172.391 -0.687638 -0.180762 0
M  V30 1785 H 174.993 -1.94563 0.191172 0
M  V30 1786 H 173.697 -4.0945 -0.279092 0
M  V30 1787 H 173.228 -3.46356 -1.86551 0
M  V30 1788 H 175.243 -3.91977 -3.04251 0
M  V30 1789 N 174.416 0.165178 -1.56732 0
M  V30 1790 C 175.363 1.2044 -1.96883 0
M  V30 1791 C 176.333 1.43664 -0.833657 0
M  V30 1792 O 177.518 1.56302 -1.09427 0
M  V30 1793 C 174.658 2.53727 -2.33916 0
M  V30 1794 C 173.771 2.3783 -3.6064 0
M  V30 1795 C 172.906 3.64026 -3.86857 0
M  V30 1796 C 171.945 3.43088 -5.06909 0
M  V30 1797 N 171.082 4.61369 -5.29229 0
M  V30 1798 H 175.922 0.854996 -2.85471 0
M  V30 1799 H 173.459 0.41076 -1.41249 0
M  V30 1800 H 175.417 3.31419 -2.53411 0
M  V30 1801 H 174.047 2.8665 -1.48431 0
M  V30 1802 H 173.099 1.51282 -3.49024 0
M  V30 1803 H 174.411 2.18308 -4.4849 0
M  V30 1804 H 173.565 4.50152 -4.06753 0
M  V30 1805 H 172.304 3.86533 -2.97394 0
M  V30 1806 H 171.309 2.55349 -4.86906 0
M  V30 1807 H 172.534 3.21997 -5.97909 0
M  V30 1808 H 170.48 4.84084 -4.42718 0
M  V30 1809 H 170.397 4.44783 -6.11313 0
M  V30 1810 H 171.665 5.48761 -5.53608 0
M  V30 1811 N 175.894 1.51508 0.433938 0
M  V30 1812 C 176.804 1.75917 1.5521 0
M  V30 1813 C 177.82 0.643545 1.61662 0
M  V30 1814 O 178.996 0.926183 1.7884 0
M  V30 1815 C 176.061 1.88213 2.91164 0
M  V30 1816 C 175.122 3.12074 2.94802 0
M  V30 1817 C 174.355 3.23774 4.24271 0
M  V30 1818 O 174.578 2.4133 5.16833 0
M  V30 1819 O 173.512 4.16774 4.34262 0
M  V30 1820 H 177.338 2.70777 1.37527 0
M  V30 1821 H 174.923 1.36051 0.617293 0
M  V30 1822 H 176.805 1.98267 3.71845 0
M  V30 1823 H 175.48 0.965413 3.08968 0
M  V30 1824 H 174.387 3.07497 2.13065 0
M  V30 1825 H 175.72 4.03446 2.81943 0
M  V30 1826 N 177.372 -0.689602 1.41712 0
M  V30 1827 C 178.6 -1.47827 1.44758 0
M  V30 1828 C 179.015 -1.88721 0.0545703 0
M  V30 1829 O 178.372 -1.57176 -0.927463 0
M  V30 1830 C 178.423 -2.73698 2.3616 0
M  V30 1831 O 178.144 -2.34524 3.7004 0
M  V30 1832 C 179.645 -3.67389 2.48072 0
M  V30 1833 H 176.865 -0.455357 0.49284 0
M  V30 1834 H 179.409 -0.848574 1.86063 0
M  V30 1835 H 177.564 -3.32891 1.98148 0
M  V30 1836 H 177.978 -3.15701 4.18847 0
M  V30 1837 H 179.452 -4.52475 3.16181 0
M  V30 1838 H 179.929 -4.12284 1.51388 0
M  V30 1839 H 180.535 -3.14097 2.86746 0
M  V30 1840 N 178.85 -1.27639 -0.924453 0
M  V30 1841 C 180.097 -1.14167 -1.67249 0
M  V30 1842 C 180.425 0.311863 -1.91984 0
M  V30 1843 O 179.68 1.24425 -1.51053 0
M  V30 1844 C 179.979 -1.87407 -3.04325 0
M  V30 1845 C 179.645 -3.37249 -2.99289 0
M  V30 1846 C 178.307 -3.7812 -2.97622 0
M  V30 1847 C 180.659 -4.32845 -2.90336 0
M  V30 1848 C 177.987 -5.12944 -2.8479 0
M  V30 1849 C 180.339 -5.6773 -2.79045 0
M  V30 1850 C 179.003 -6.07889 -2.7573 0
M  V30 1851 H 178.273 -0.417766 -0.612007 0
M  V30 1852 H 180.92 -1.58286 -1.07786 0
M  V30 1853 H 179.225 -1.35805 -3.67511 0
M  V30 1854 H 180.922 -1.74408 -3.61086 0
M  V30 1855 H 177.512 -3.04748 -3.01374 0
M  V30 1856 H 181.696 -4.02239 -2.90719 0
M  V30 1857 H 176.952 -5.432 -2.80612 0
M  V30 1858 H 181.126 -6.41472 -2.71083 0
M  V30 1859 H 178.753 -7.12314 -2.65544 0
M  V30 1860 N 180.328 1.1314 -1.09713 0
M  V30 1861 C 181.276 2.20717 -0.733934 0
M  V30 1862 C 182.27 1.6729 0.266506 0
M  V30 1863 O 183.476 1.79547 0.127656 0
M  V30 1864 H 179.851 0.719292 -0.21937 0
M  V30 1865 H 181.822 2.48611 -1.6503 0
M  V30 1866 C 180.571 3.47265 -0.173849 0
M  V30 1867 H 179.894 3.88716 -0.934873 0
M  V30 1868 H 181.334 4.23979 0.0423126 0
M  V30 1869 C 179.793 3.18724 1.09164 0
M  V30 1870 O 180.323 3.37762 2.17439 0
M  V30 1871 N 178.529 2.72583 1.00732 0
M  V30 1872 H 178.076 2.57291 0.126121 0
M  V30 1873 H 178.034 2.53862 1.85476 0
M  V30 1874 N 181.806 0.884767 1.30421 0
M  V30 1875 C 182.736 0.367574 2.30589 0
M  V30 1876 C 183.717 -0.549464 1.60981 0
M  V30 1877 O 184.902 -0.46336 1.88591 0
M  V30 1878 C 182.032 -0.418944 3.44764 0
M  V30 1879 C 180.986 0.406316 4.26067 0
M  V30 1880 C 180.312 -0.506793 5.32293 0
M  V30 1881 C 181.612 1.64832 4.95608 0
M  V30 1882 H 183.306 1.20462 2.74097 0
M  V30 1883 H 180.852 0.580695 1.31772 0
M  V30 1884 H 182.805 -0.791395 4.13902 0
M  V30 1885 H 181.529 -1.28964 3.0006 0
M  V30 1886 H 180.188 0.760903 3.58617 0
M  V30 1887 H 179.836 -1.37519 4.83836 0
M  V30 1888 H 179.536 0.0415828 5.87585 0
M  V30 1889 H 181.06 -0.875764 6.04287 0
M  V30 1890 H 182.474 1.34646 5.57264 0
M  V30 1891 H 180.871 2.13688 5.60765 0
M  V30 1892 H 181.941 2.39284 4.21748 0
M  V30 1893 N 183.284 -1.43765 0.645699 0
M  V30 1894 C 184.514 -2.05953 0.163318 0
M  V30 1895 C 184.922 -1.48432 -1.17322 0
M  V30 1896 O 184.265 -0.607295 -1.73371 0
M  V30 1897 C 184.327 -3.59499 -0.0103065 0
M  V30 1898 C 183.991 -4.39563 1.25035 0
M  V30 1899 C 184.988 -4.72108 2.17739 0
M  V30 1900 C 182.673 -4.79697 1.48983 0
M  V30 1901 C 184.667 -5.43688 3.3269 0
M  V30 1902 C 182.354 -5.51023 2.64229 0
M  V30 1903 C 183.352 -5.8294 3.55908 0
M  V30 1904 O 183.04 -6.5281 4.69142 0
M  V30 1905 H 182.772 -0.670798 0.0836986 0
M  V30 1906 H 185.326 -1.85384 0.884407 0
M  V30 1907 H 183.556 -3.78613 -0.78669 0
M  V30 1908 H 185.245 -4.03408 -0.449087 0
M  V30 1909 H 186.011 -4.41627 2.00476 0
M  V30 1910 H 181.89 -4.54266 0.785078 0
M  V30 1911 H 185.434 -5.68517 4.04269 0
M  V30 1912 H 181.331 -5.8092 2.81429 0
M  V30 1913 H 182.099 -6.71288 4.6831 0
M  V30 1914 N 184.763 -0.387143 -1.52771 0
M  V30 1915 C 185.993 0.195585 -2.05672 0
M  V30 1916 C 186.401 1.41241 -1.25887 0
M  V30 1917 O 185.744 1.81265 -0.298081 0
M  V30 1918 C 185.806 0.632327 -3.53895 0
M  V30 1919 C 185.47 -0.470739 -4.54569 0
M  V30 1920 C 186.467 -1.32746 -5.02667 0
M  V30 1921 C 184.152 -0.637151 -4.98243 0
M  V30 1922 C 186.146 -2.33574 -5.93061 0
M  V30 1923 C 183.833 -1.64877 -5.88438 0
M  V30 1924 C 184.831 -2.49649 -6.35739 0
M  V30 1925 O 184.519 -3.49082 -7.24153 0
M  V30 1926 H 184.251 0.033658 -0.675162 0
M  V30 1927 H 186.805 -0.550221 -1.97893 0
M  V30 1928 H 185.035 1.43008 -3.59285 0
M  V30 1929 H 186.724 1.14048 -3.89548 0
M  V30 1930 H 187.49 -1.21019 -4.69659 0
M  V30 1931 H 183.369 0.0129567 -4.60998 0
M  V30 1932 H 186.913 -2.99777 -6.29904 0
M  V30 1933 H 182.81 -1.76643 -6.2086 0
M  V30 1934 H 183.578 -3.45065 -7.42208 0
M  V30 1935 N 186.241 1.57166 -0.116904 0
M  V30 1936 C 187.171 2.18222 0.830759 0
M  V30 1937 C 188.152 1.12167 1.27877 0
M  V30 1938 O 189.337 1.40394 1.34176 0
M  V30 1939 C 186.467 2.77996 2.08172 0
M  V30 1940 C 185.421 3.89614 1.77157 0
M  V30 1941 C 184.747 4.36187 3.09265 0
M  V30 1942 C 186.047 5.1181 1.04151 0
M  V30 1943 H 187.741 2.97664 0.321992 0
M  V30 1944 H 185.287 1.4318 0.153434 0
M  V30 1945 H 187.24 3.19366 2.74924 0
M  V30 1946 H 185.964 1.9584 2.6137 0
M  V30 1947 H 184.623 3.48816 1.12796 0
M  V30 1948 H 184.271 3.50893 3.60393 0
M  V30 1949 H 183.971 5.11455 2.89288 0
M  V30 1950 H 185.495 4.80207 3.77139 0
M  V30 1951 H 186.909 5.50214 1.61052 0
M  V30 1952 H 185.306 5.92648 0.942762 0
M  V30 1953 H 186.376 4.84892 0.0279022 0
M  V30 1954 N 187.719 -0.156864 1.56817 0
M  V30 1955 C 188.629 -1.2136 2.00771 0
M  V30 1956 C 189.645 -1.47598 0.921459 0
M  V30 1957 O 190.821 -1.59462 1.2302 0
M  V30 1958 C 187.886 -2.52943 2.37109 0
M  V30 1959 C 186.947 -2.34439 3.59634 0
M  V30 1960 C 186.18 -3.59748 3.94229 0
M  V30 1961 O 186.403 -4.65526 3.29609 0
M  V30 1962 O 185.337 -3.52998 4.8752 0
M  V30 1963 H 189.163 -0.870468 2.90958 0
M  V30 1964 H 186.748 -0.36484 1.44877 0
M  V30 1965 H 188.63 -3.30538 2.61386 0
M  V30 1966 H 187.305 -2.86806 1.5008 0
M  V30 1967 H 186.212 -1.54828 3.40557 0
M  V30 1968 H 187.545 -2.05496 4.4725 0
M  V30 1969 N 189.197 -1.51736 -0.425897 0
M  V30 1970 C 190.422 -1.69082 -1.20108 0
M  V30 1971 C 190.847 -0.392398 -1.83962 0
M  V30 1972 O 190.205 0.64858 -1.69302 0
M  V30 1973 C 190.253 -2.81604 -2.25237 0
M  V30 1974 O 189.357 -2.46004 -3.30992 0
M  V30 1975 H 188.698 -0.563408 -0.35138 0
M  V30 1976 H 191.228 -1.98358 -0.501512 0
M  V30 1977 H 191.238 -3.06025 -2.69838 0
M  V30 1978 H 189.913 -3.75817 -1.78142 0
M  V30 1979 H 188.49 -2.32195 -2.91787 0
M  V30 1980 N 190.675 0.682077 -1.42076 0
M  V30 1981 C 191.952 1.43755 -1.32642 0
M  V30 1982 C 192.332 2.11063 0.0396611 0
M  V30 1983 O 191.68 2.02701 1.05474 0
M  V30 1984 C 191.89 2.44596 -2.48946 0
M  V30 1985 C 193.238 3.09454 -2.9073 0
M  V30 1986 O 194.262 2.54922 -2.48783 0
M  V30 1987 O 193.121 4.08253 -3.63307 0
M  V30 1988 H 190.215 0.640857 -0.522715 0
M  V30 1989 H 192.761 0.711415 -1.54068 0
M  V30 1990 H 191.533 1.93609 -3.40046 0
M  V30 1991 H 191.156 3.24701 -2.29467 0
M  V30 1992 N 192.153 1.28127 0.917671 0
M  V30 1993 C 193.569 1.05749 1.19538 0
M  V30 1994 C 193.769 -0.202633 2.00479 0
M  V30 1995 O 192.825 -0.905382 2.3571 0
M  V30 1996 C 194.138 2.30273 1.93378 0
M  V30 1997 C 195.686 2.35412 2.06277 0
M  V30 1998 C 196.161 3.59692 2.83524 0
M  V30 1999 N 197.652 3.60309 2.91087 0
M  V30 2000 C 198.387 4.53147 3.51348 0
M  V30 2001 N 197.883 5.563 4.12919 0
M  V30 2002 N 199.676 4.40751 3.48849 0
M  V30 2003 H 191.827 2.09024 0.377184 0
M  V30 2004 H 194.09 0.919798 0.22951 0
M  V30 2005 H 193.796 3.22055 1.41328 0
M  V30 2006 H 193.67 2.36378 2.93947 0
M  V30 2007 H 196.057 1.4413 2.57508 0
M  V30 2008 H 196.138 2.33304 1.04895 0
M  V30 2009 H 195.782 4.51316 2.32973 0
M  V30 2010 H 195.712 3.59054 3.85211 0
M  V30 2011 H 198.203 2.85714 2.47338 0
M  V30 2012 H 198.516 6.2329 4.56869 0
M  V30 2013 H 196.861 5.60131 4.11435 0
M  V30 2014 H 200.052 3.59367 2.99955 0
M  V30 2015 H 200.225 5.13291 3.9552 0
M  V30 2016 N 193.631 -1.12557 1.10312 0
M  V30 2017 C 194.908 -1.80363 0.756878 0
M  V30 2018 C 195.288 -1.97067 -0.756824 0
M  V30 2019 O 194.636 -1.54601 -1.68259 0
M  V30 2020 C 194.846 -3.14812 1.50647 0
M  V30 2021 C 196.194 -3.90029 1.67817 0
M  V30 2022 O 197.218 -3.24464 1.46974 0
M  V30 2023 O 196.077 -5.07652 2.02365 0
M  V30 2024 H 193.171 -0.780667 0.272926 0
M  V30 2025 H 195.717 -1.19404 1.20586 0
M  V30 2026 H 194.489 -2.97936 2.53672 0
M  V30 2027 H 194.112 -3.83478 1.05026 0
M  V30 2028 N 195.109 -0.891671 -1.2995 0
M  V30 2029 C 196.039 -0.379797 -2.30391 0
M  V30 2030 C 197.02 0.540919 -1.6127 0
M  V30 2031 O 198.205 0.453352 -1.88834 0
M  V30 2032 C 195.335 0.400654 -3.44981 0
M  V30 2033 C 194.289 -0.428905 -4.25846 0
M  V30 2034 C 193.615 0.478557 -5.32554 0
M  V30 2035 C 194.915 -1.67458 -4.94727 0
M  V30 2036 H 196.609 -1.21914 -2.73454 0
M  V30 2037 H 194.155 -0.587675 -1.31462 0
M  V30 2038 H 196.108 0.769434 -4.14316 0
M  V30 2039 H 194.832 1.27371 -3.0074 0
M  V30 2040 H 193.491 -0.779911 -3.58208 0
M  V30 2041 H 193.139 1.34951 -4.84559 0
M  V30 2042 H 192.839 -0.0727433 -5.87555 0
M  V30 2043 H 194.363 0.843705 -6.04743 0
M  V30 2044 H 195.777 -1.376 -5.56542 0
M  V30 2045 H 194.174 -2.16659 -5.59624 0
M  V30 2046 H 195.244 -2.41518 -4.20473 0
M  V30 2047 N 196.587 1.43421 -0.653314 0
M  V30 2048 C 197.835 2.01414 -0.166415 0
M  V30 2049 C 198.156 1.51803 1.22397 0
M  V30 2050 O 197.426 0.730693 1.81763 0
M  V30 2051 H 196.006 0.744703 -0.0585319 0
M  V30 2052 H 198.668 1.75629 -0.845003 0
M  V30 2053 H 197.764 3.11734 -0.151111 0
M  V30 2054 N 198.065 0.39524 1.52563 0
M  V30 2055 C 199.028 -0.425001 2.25225 0
M  V30 2056 C 200.028 -0.985266 1.27079 0
M  V30 2057 O 201.218 -0.866332 1.5113 0
M  V30 2058 C 198.35 -1.59686 3.01186 0
M  V30 2059 H 199.543 0.211233 2.99155 0
M  V30 2060 H 197.096 0.147472 1.55603 0
M  V30 2061 H 197.831 -2.27035 2.31572 0
M  V30 2062 H 197.616 -1.20176 3.73229 0
M  V30 2063 H 199.106 -2.17743 3.5634 0
M  V30 2064 N 199.544 -1.57102 0.125237 0
M  V30 2065 C 200.769 -2.0019 -0.542101 0
M  V30 2066 C 201.194 -1.00449 -1.59034 0
M  V30 2067 O 200.552 0.0229423 -1.81285 0
M  V30 2068 C 200.6 -3.42129 -1.13929 0
M  V30 2069 O 199.704 -3.45307 -2.2547 0
M  V30 2070 H 199.045 -0.650171 -0.134812 0
M  V30 2071 H 201.575 -2.03461 0.215553 0
M  V30 2072 H 201.585 -3.80471 -1.4733 0
M  V30 2073 H 200.26 -4.14237 -0.371531 0
M  V30 2074 H 198.837 -3.1879 -1.93462 0
M  V30 2075 N 201.022 0.148545 -1.56898 0
M  V30 2076 C 202.25 0.876389 -1.87422 0
M  V30 2077 C 202.665 1.74809 -0.713256 0
M  V30 2078 O 202.022 1.79725 0.317025 0
M  V30 2079 C 202.073 1.73438 -3.17178 0
M  V30 2080 O 201.794 0.897809 -4.28802 0
M  V30 2081 C 203.295 2.56993 -3.61205 0
M  V30 2082 H 200.515 0.253489 -0.621277 0
M  V30 2083 H 203.059 0.141798 -2.04008 0
M  V30 2084 H 201.214 2.42205 -3.0235 0
M  V30 2085 H 201.628 1.48672 -5.02988 0
M  V30 2086 H 203.102 3.12773 -4.54838 0
M  V30 2087 H 203.579 3.32958 -2.86419 0
M  V30 2088 H 204.185 1.9352 -3.78722 0
M  V30 2089 N 202.5 1.5196 0.417844 0
M  V30 2090 C 203.432 1.70895 1.52733 0
M  V30 2091 C 204.445 0.589405 1.51756 0
M  V30 2092 O 205.634 0.864312 1.56179 0
M  V30 2093 C 202.734 1.72627 2.91639 0
M  V30 2094 C 201.907 3.01479 3.16905 0
M  V30 2095 C 200.966 2.95139 4.35637 0
M  V30 2096 O 199.992 3.69059 4.3334 0
M  V30 2097 N 201.194 2.12328 5.40275 0
M  V30 2098 H 203.959 2.66612 1.36888 0
M  V30 2099 H 201.52 1.50089 0.607037 0
M  V30 2100 H 203.512 1.65928 3.6912 0
M  V30 2101 H 202.082 0.844216 3.00985 0
M  V30 2102 H 201.302 3.21895 2.27546 0
M  V30 2103 H 202.59 3.86736 3.30625 0
M  V30 2104 H 201.988 1.51685 5.44985 0
M  V30 2105 H 200.545 2.11494 6.16534 0
M  V30 2106 N 203.978 -0.674533 1.42435 0
M  V30 2107 C 204.888 -1.81751 1.48337 0
M  V30 2108 C 205.904 -1.69975 0.372099 0
M  V30 2109 O 207.08 -1.91521 0.62304 0
M  V30 2110 C 204.145 -3.17895 1.38361 0
M  V30 2111 C 203.206 -3.41625 2.59982 0
M  V30 2112 C 202.439 -4.71274 2.50473 0
M  V30 2113 O 202.662 -5.49197 1.54075 0
M  V30 2114 O 201.596 -4.96254 3.4061 0
M  V30 2115 H 205.422 -1.79728 2.44809 0
M  V30 2116 H 203.007 -0.830312 1.24202 0
M  V30 2117 H 204.889 -3.99136 1.35161 0
M  V30 2118 H 203.564 -3.20555 0.450144 0
M  V30 2119 H 202.471 -2.60231 2.68757 0
M  V30 2120 H 203.804 -3.43796 3.52229 0
M  V30 2121 N 205.456 -1.28612 -0.910864 0
M  V30 2122 C 206.681 -1.1891 -1.69927 0
M  V30 2123 C 207.106 0.248372 -1.86453 0
M  V30 2124 O 206.464 1.17961 -1.37676 0
M  V30 2125 C 206.512 -1.89578 -3.06745 0
M  V30 2126 O 205.616 -1.20521 -3.94396 0
M  V30 2127 H 204.957 -0.412632 -0.520222 0
M  V30 2128 H 207.487 -1.69985 -1.1387 0
M  V30 2129 H 207.497 -1.97597 -3.56958 0
M  V30 2130 H 206.172 -2.94136 -2.94035 0
M  V30 2131 H 204.749 -1.20684 -3.52831 0
M  V30 2132 N 206.934 1.1197 -1.10907 0
M  V30 2133 C 207.866 2.17592 -0.720175 0
M  V30 2134 C 208.879 1.60938 0.245495 0
M  V30 2135 O 210.068 1.78476 0.0292245 0
M  V30 2136 C 207.168 3.38873 -0.0427917 0
M  V30 2137 C 206.341 4.25006 -1.03388 0
M  V30 2138 C 205.4 5.24774 -0.387075 0
M  V30 2139 O 204.426 5.59631 -1.03934 0
M  V30 2140 N 205.628 5.74208 0.852407 0
M  V30 2141 H 208.393 2.51567 -1.62893 0
M  V30 2142 H 205.954 1.27439 -0.998543 0
M  V30 2143 H 207.946 4.02703 0.401501 0
M  V30 2144 H 206.516 3.03007 0.768456 0
M  V30 2145 H 205.736 3.57716 -1.65629 0
M  V30 2146 H 207.024 4.79397 -1.70458 0
M  V30 2147 H 206.422 5.48062 1.40161 0
M  V30 2148 H 204.979 6.39901 1.23977 0
M  V30 2149 N 208.412 0.89855 1.29475 0
M  V30 2150 C 209.659 0.523882 1.95606 0
M  V30 2151 C 209.987 -0.929608 1.70847 0
M  V30 2152 O 209.242 -1.67401 1.01367 0
M  V30 2153 C 209.541 0.761398 3.49195 0
M  V30 2154 C 209.207 2.19207 3.94029 0
M  V30 2155 C 207.869 2.58326 4.05982 0
M  V30 2156 C 210.221 3.12379 4.17216 0
M  V30 2157 C 207.549 3.898 4.38489 0
M  V30 2158 C 209.901 4.43401 4.51197 0
M  V30 2159 C 208.565 4.82394 4.61359 0
M  V30 2160 H 207.835 0.191702 0.715773 0
M  V30 2161 H 210.482 1.13699 1.54094 0
M  V30 2162 H 208.787 0.0653622 3.91745 0
M  V30 2163 H 210.484 0.450904 3.98457 0
M  V30 2164 H 207.074 1.87846 3.85242 0
M  V30 2165 H 211.258 2.83371 4.07449 0
M  V30 2166 H 206.514 4.19734 4.44559 0
M  V30 2167 H 210.688 5.15623 4.68087 0
M  V30 2168 H 208.315 5.84306 4.86303 0
M  V30 2169 N 209.89 -1.43072 0.660911 0
M  V30 2170 C 210.82 -2.33497 -0.0122829 0
M  V30 2171 C 211.801 -1.49903 -0.803925 0
M  V30 2172 O 212.986 -1.78546 -0.763864 0
M  V30 2173 C 210.116 -3.33363 -0.973994 0
M  V30 2174 C 209.07 -4.27003 -0.291928 0
M  V30 2175 C 208.396 -5.16967 -1.36562 0
M  V30 2176 C 209.696 -5.15816 0.820462 0
M  V30 2177 H 211.39 -2.90038 0.742873 0
M  V30 2178 H 208.936 -1.39461 0.358688 0
M  V30 2179 H 210.889 -3.95524 -1.45392 0
M  V30 2180 H 209.613 -2.75095 -1.7604 0
M  V30 2181 H 208.272 -3.66217 0.167623 0
M  V30 2182 H 207.92 -4.55034 -2.14366 0
M  V30 2183 H 207.62 -5.80441 -0.914454 0
M  V30 2184 H 209.144 -5.82003 -1.84675 0
M  V30 2185 H 210.558 -5.71742 0.422366 0
M  V30 2186 H 208.955 -5.8805 1.19656 0
M  V30 2187 H 210.025 -4.55045 1.67518 0
M  V30 2188 N 211.368 -0.403325 -1.52352 0
M  V30 2189 C 212.315 0.425011 -2.26853 0
M  V30 2190 C 213.285 1.04598 -1.29029 0
M  V30 2191 O 214.47 1.07135 -1.57882 0
M  V30 2192 C 211.61 1.53888 -3.08889 0
M  V30 2193 C 210.723 0.939396 -4.21663 0
M  V30 2194 C 209.858 2.02547 -4.91068 0
M  V30 2195 C 208.897 1.40263 -5.95813 0
M  V30 2196 N 208.034 2.4286 -6.58759 0
M  V30 2197 H 212.874 -0.21674 -2.97211 0
M  V30 2198 H 210.411 -0.118722 -1.4662 0
M  V30 2199 H 212.369 2.19558 -3.54753 0
M  V30 2200 H 210.999 2.15074 -2.40714 0
M  V30 2201 H 210.051 0.171898 -3.80011 0
M  V30 2202 H 211.363 0.44436 -4.96817 0
M  V30 2203 H 210.517 2.75958 -5.40308 0
M  V30 2204 H 209.256 2.55415 -4.15469 0
M  V30 2205 H 208.261 0.653833 -5.45898 0
M  V30 2206 H 209.486 0.881719 -6.73352 0
M  V30 2207 H 207.432 2.94871 -5.85992 0
M  V30 2208 H 207.349 1.98152 -7.2957 0
M  V30 2209 H 208.617 3.15858 -7.12639 0
M  V30 2210 N 212.846 1.57033 -0.133567 0
M  V30 2211 C 214.095 1.94861 0.520768 0
M  V30 2212 C 214.408 1.02012 1.66892 0
M  V30 2213 O 215.614 1.29365 2.38699 0
M  V30 2214 C 214.07 3.46362 0.977809 0
M  V30 2215 C 213.678 4.47773 -0.142674 0
M  V30 2216 C 215.422 3.93083 1.60269 0
M  V30 2217 C 213.329 5.90468 0.331883 0
M  V30 2218 H 212.259 0.727453 0.198315 0
M  V30 2219 H 214.91 1.82227 -0.215759 0
M  V30 2220 H 213.292 3.54282 1.7692 0
M  V30 2221 H 214.466 4.51536 -0.919317 0
M  V30 2222 H 212.781 4.10891 -0.675124 0
M  V30 2223 H 215.378 4.97121 1.96914 0
M  V30 2224 H 215.721 3.33876 2.48662 0
M  V30 2225 H 216.254 3.88025 0.876453 0
M  V30 2226 H 212.993 6.53463 -0.516341 0
M  V30 2227 H 212.513 5.90094 1.07469 0
M  V30 2228 H 214.192 6.42179 0.788332 0
M  V30 2229 N 214.325 -0.140222 1.56975 0
M  V30 2230 C 215.602 -0.880769 1.74648 0
M  V30 2231 C 215.982 -1.99036 0.703404 0
M  V30 2232 O 215.33 -2.26821 -0.27648 0
M  V30 2233 C 215.54 -1.417 3.18939 0
M  V30 2234 C 216.888 -1.87774 3.80823 0
M  V30 2235 O 217.912 -1.51427 3.2241 0
M  V30 2236 O 216.771 -2.54827 4.83452 0
M  V30 2237 H 213.865 -0.416713 0.714338 0
M  V30 2238 H 216.411 -0.125618 1.69234 0
M  V30 2239 H 215.183 -0.619902 3.86359 0
M  V30 2240 H 214.806 -2.23546 3.28805 0
M  V30 2241 N 215.803 -1.52179 -0.40978 0
M  V30 2242 C 217.031 -1.70054 -1.17853 0
M  V30 2243 C 217.446 -0.409735 -1.843 0
M  V30 2244 O 216.803 0.614183 -1.71855 0
M  V30 2245 C 216.854 -2.83568 -2.24213 0
M  V30 2246 O 216.575 -4.0765 -1.60478 0
M  V30 2247 C 218.076 -3.12947 -3.13973 0
M  V30 2248 H 215.296 -0.569917 -0.354169 0
M  V30 2249 H 217.84 -1.98734 -0.482198 0
M  V30 2250 H 215.995 -2.57409 -2.89516 0
M  V30 2251 H 216.409 -4.70899 -2.30986 0
M  V30 2252 H 217.883 -3.95889 -3.84677 0
M  V30 2253 H 218.36 -2.26472 -3.76307 0
M  V30 2254 H 218.966 -3.40868 -2.5434 0
M  V30 2255 N 217.281 0.66697 -1.42791 0
M  V30 2256 C 218.53 1.42278 -1.42968 0
M  V30 2257 C 218.843 1.9553 -0.0524489 0
M  V30 2258 O 220.049 2.71414 0.068363 0
M  V30 2259 C 218.505 2.57418 -2.51524 0
M  V30 2260 C 218.113 2.10832 -3.9529 0
M  V30 2261 C 219.857 3.34878 -2.60877 0
M  V30 2262 C 217.764 3.23101 -4.95338 0
M  V30 2263 H 216.694 0.534533 -0.531781 0
M  V30 2264 H 219.345 0.721302 -1.68729 0
M  V30 2265 H 217.727 3.29971 -2.18941 0
M  V30 2266 H 218.901 1.4538 -4.37266 0
M  V30 2267 H 217.216 1.46289 -3.89857 0
M  V30 2268 H 219.813 4.18505 -3.32802 0
M  V30 2269 H 220.156 3.81993 -1.6549 0
M  V30 2270 H 220.689 2.69398 -2.92693 0
M  V30 2271 H 217.428 2.80969 -5.9223 0
M  V30 2272 H 216.948 3.87309 -4.57987 0
M  V30 2273 H 218.627 3.88447 -5.17415 0
M  V30 2274 N 218.759 1.29093 0.90403 0
M  V30 2275 C 219.722 1.1386 1.98919 0
M  V30 2276 C 220.722 0.0753457 1.60623 0
M  V30 2277 O 221.912 0.321931 1.71199 0
M  V30 2278 C 219.044 0.740198 3.32767 0
M  V30 2279 H 220.237 2.10246 2.13861 0
M  V30 2280 H 217.79 1.12218 1.08797 0
M  V30 2281 H 218.525 -0.223997 3.23525 0
M  V30 2282 H 218.31 1.50838 3.61926 0
M  V30 2283 H 219.8 0.656546 4.12407 0
M  V30 2284 N 220.237 -1.11381 1.11499 0
M  V30 2285 C 221.2 -2.15622 0.777153 0
M  V30 2286 C 222.2 -1.59504 -0.203779 0
M  V30 2287 O 223.39 -1.74188 0.020782 0
M  V30 2288 C 220.522 -3.40556 0.153116 0
M  V30 2289 H 221.715 -2.47021 1.70061 0
M  V30 2290 H 219.268 -1.26577 0.916952 0
M  V30 2291 H 220.003 -3.14767 -0.780536 0
M  V30 2292 H 219.788 -3.8257 0.859238 0
M  V30 2293 H 221.278 -4.17546 -0.0671044 0
M  V30 2294 N 221.715 -0.905404 -1.28997 0
M  V30 2295 C 222.992 -0.453513 -1.9027 0
M  V30 2296 C 223.372 1.06721 -1.82137 0
M  V30 2297 O 222.72 1.91159 -1.25182 0
M  V30 2298 C 222.93 -0.974494 -3.35119 0
M  V30 2299 C 224.278 -1.0216 -4.12127 0
M  V30 2300 O 225.302 -0.922557 -3.44046 0
M  V30 2301 O 224.161 -1.17121 -5.33802 0
M  V30 2302 H 221.255 -0.142347 -0.814657 0
M  V30 2303 H 223.801 -0.995642 -1.37423 0
M  V30 2304 H 222.573 -2.01848 -3.35221 0
M  V30 2305 H 222.196 -0.412706 -3.95452 0
M  V30 2306 N 223.193 1.4272 -0.668489 0
M  V30 2307 C 224.103 2.34596 0.0139753 0
M  V30 2308 C 225.119 1.5474 0.795703 0
M  V30 2309 O 226.295 1.87334 0.739466 0
M  V30 2310 C 223.36 3.33202 0.957982 0
M  V30 2311 C 222.421 4.28957 0.17149 0
M  V30 2312 C 221.654 5.22853 1.07053 0
M  V30 2313 O 221.877 5.21531 2.31001 0
M  V30 2314 O 220.811 5.9952 0.534727 0
M  V30 2315 H 224.637 2.9448 -0.742661 0
M  V30 2316 H 222.222 1.43117 -0.428705 0
M  V30 2317 H 224.104 3.93796 1.50008 0
M  V30 2318 H 222.779 2.758 1.69458 0
M  V30 2319 H 221.686 3.71796 -0.414558 0
M  V30 2320 H 223.019 4.89383 -0.52586 0
M  V30 2321 N 224.671 0.411399 1.52136 0
M  V30 2322 C 225.896 -0.165538 2.06738 0
M  V30 2323 C 226.321 -1.379 1.27926 0
M  V30 2324 O 225.679 -1.78628 0.310114 0
M  V30 2325 C 225.727 -0.492124 3.57226 0
M  V30 2326 O 224.831 -1.58276 3.80818 0
M  V30 2327 H 224.172 -0.0132132 0.663869 0
M  V30 2328 H 226.702 0.585253 1.96051 0
M  V30 2329 H 226.712 -0.750104 4.01045 0
M  V30 2330 H 225.387 0.394922 4.14021 0
M  V30 2331 H 223.964 -1.31677 3.48877 0
M  V30 2332 N 226.149 -1.5696 0.141893 0
M  V30 2333 C 227.396 -1.9596 -0.510492 0
M  V30 2334 C 227.724 -1.02648 -1.65208 0
M  V30 2335 O 226.979 -0.0546947 -1.95624 0
M  V30 2336 C 227.278 -3.41242 -1.06249 0
M  V30 2337 C 226.944 -4.50882 -0.0398791 0
M  V30 2338 C 225.606 -4.80595 0.241247 0
M  V30 2339 C 227.958 -5.17058 0.65578 0
M  V30 2340 C 225.286 -5.73792 1.22393 0
M  V30 2341 C 227.638 -6.11313 1.62724 0
M  V30 2342 C 226.302 -6.39407 1.91612 0
M  V30 2343 H 225.572 -0.717068 -0.186802 0
M  V30 2344 H 228.219 -1.90142 0.227643 0
M  V30 2345 H 226.524 -3.43866 -1.87785 0
M  V30 2346 H 228.221 -3.68742 -1.57576 0
M  V30 2347 H 224.811 -4.27754 -0.269174 0
M  V30 2348 H 228.995 -4.94239 0.451779 0
M  V30 2349 H 224.251 -5.93853 1.45424 0
M  V30 2350 H 228.425 -6.61668 2.17183 0
M  V30 2351 H 226.052 -7.11427 2.6791 0
M  V30 2352 N 227.627 0.131896 -1.57047 0
M  V30 2353 C 228.855 0.856461 -1.88341 0
M  V30 2354 C 229.27 1.74042 -0.731757 0
M  V30 2355 O 228.627 1.80051 0.297945 0
M  V30 2356 C 228.678 1.70064 -3.18999 0
M  V30 2357 O 228.399 0.852278 -4.2973 0
M  V30 2358 C 229.9 2.53148 -3.63911 0
M  V30 2359 H 227.12 0.246885 -0.62393 0
M  V30 2360 H 229.664 0.120152 -2.04147 0
M  V30 2361 H 227.819 2.38984 -3.04902 0
M  V30 2362 H 228.233 1.43329 -5.04537 0
M  V30 2363 H 229.707 3.07931 -4.58129 0
M  V30 2364 H 230.184 3.29901 -2.89935 0
M  V30 2365 H 230.79 1.89492 -3.80753 0
M  V30 2366 N 229.106 1.52395 0.401703 0
M  V30 2367 C 230.354 1.66488 1.14569 0
M  V30 2368 C 230.675 0.400897 1.90835 0
M  V30 2369 O 229.945 -0.584415 1.8698 0
M  V30 2370 H 228.525 0.613672 0.425929 0
M  V30 2371 H 231.187 1.89464 0.457093 0
M  V30 2372 H 230.283 2.50942 1.85566 0
M  V30 2373 N 230.584 -0.659388 1.43143 0
M  V30 2374 C 231.547 -1.75432 1.47501 0
M  V30 2375 C 232.547 -1.56707 0.360512 0
M  V30 2376 O 233.737 -1.62717 0.622002 0
M  V30 2377 C 230.869 -3.14239 1.32162 0
M  V30 2378 H 232.062 -1.7295 2.45006 0
M  V30 2379 H 229.615 -0.870469 1.29817 0
M  V30 2380 H 230.35 -3.22336 0.356401 0
M  V30 2381 H 230.135 -3.29235 2.12948 0
M  V30 2382 H 231.625 -3.94094 1.3813 0
M  V30 2383 N 232.062 -1.29571 -0.897171 0
M  V30 2384 C 233.339 -1.08365 -1.62839 0
M  V30 2385 C 233.719 0.371331 -2.07808 0
M  V30 2386 O 233.067 1.3606 -1.83576 0
M  V30 2387 C 233.277 -2.0735 -2.80726 0
M  V30 2388 C 234.625 -2.38406 -3.51351 0
M  V30 2389 O 235.649 -2.05564 -2.90898 0
M  V30 2390 O 234.508 -2.9453 -4.60341 0
M  V30 2391 H 231.602 -0.415345 -0.715134 0
M  V30 2392 H 234.148 -1.40952 -0.945018 0
M  V30 2393 H 232.92 -3.05339 -2.44711 0
M  V30 2394 H 232.543 -1.75507 -3.56767 0
M  V30 2395 N 233.54 1.10788 -1.12088 0
M  V30 2396 C 234.47 2.19083 -0.807755 0
M  V30 2397 C 235.451 1.6858 0.226859 0
M  V30 2398 O 236.636 1.93997 0.0888475 0
M  V30 2399 C 233.766 3.46344 -0.257576 0
M  V30 2400 C 232.72 4.101 -1.22483 0
M  V30 2401 C 232.046 5.32016 -0.535052 0
M  V30 2402 C 233.346 4.54236 -2.57811 0
M  V30 2403 H 235.04 2.45534 -1.71328 0
M  V30 2404 H 232.586 1.1801 -0.825205 0
M  V30 2405 H 234.539 4.21392 -0.0262679 0
M  V30 2406 H 233.263 3.19373 0.683278 0
M  V30 2407 H 231.922 3.37054 -1.44189 0
M  V30 2408 H 231.57 5.01319 0.410827 0
M  V30 2409 H 231.27 5.75625 -1.18024 0
M  V30 2410 H 232.794 6.09799 -0.312695 0
M  V30 2411 H 234.208 5.20575 -2.40155 0
M  V30 2412 H 232.605 5.08682 -3.18375 0
M  V30 2413 H 233.675 3.6734 -3.16528 0
M  V30 2414 N 235.018 0.912232 1.28515 0
M  V30 2415 C 236.266 0.543523 1.94654 0
M  V30 2416 C 236.587 -0.9155 1.72173 0
M  V30 2417 O 235.857 -1.64708 1.06058 0
M  V30 2418 H 234.437 0.198017 0.720277 0
M  V30 2419 H 237.099 1.16126 1.56527 0
M  V30 2420 H 236.195 0.736684 3.03281 0
M  V30 2421 N 236.496 -1.42363 0.676048 0
M  V30 2422 C 237.742 -2.0182 0.199125 0
M  V30 2423 C 238.075 -1.53339 -1.19168 0
M  V30 2424 O 237.35 -0.736124 -1.80032 0
M  V30 2425 C 237.633 -3.59331 0.235144 0
M  V30 2426 C 237.486 -4.17989 1.66149 0
M  V30 2427 C 238.805 -4.3813 -0.41595 0
M  V30 2428 H 235.924 -0.733293 0.0738311 0
M  V30 2429 H 238.566 -1.69368 0.86107 0
M  V30 2430 H 236.716 -3.87109 -0.328487 0
M  V30 2431 H 238.388 -4.0116 2.27747 0
M  V30 2432 H 236.631 -3.7377 2.20178 0
M  V30 2433 H 237.302 -5.27126 1.63837 0
M  V30 2434 H 239.778 -4.16051 0.0638529 0
M  V30 2435 H 238.654 -5.47717 -0.360115 0
M  V30 2436 H 238.915 -4.16101 -1.49373 0
M  V30 2437 N 237.974 -0.419461 -1.51915 0
M  V30 2438 C 239.39 -0.0708431 -1.59443 0
M  V30 2439 C 239.59 1.41796 -1.43164 0
M  V30 2440 O 238.646 2.18596 -1.26381 0
M  V30 2441 C 239.959 -0.574991 -2.95151 0
M  V30 2442 C 241.507 -0.533867 -3.08413 0
M  V30 2443 C 241.982 -1.01469 -4.46618 0
M  V30 2444 N 243.473 -0.971939 -4.52888 0
M  V30 2445 C 244.208 -1.31505 -5.58116 0
M  V30 2446 N 243.704 -1.73014 -6.70849 0
M  V30 2447 N 245.497 -1.23436 -5.48379 0
M  V30 2448 H 237.648 -1.38836 -1.60743 0
M  V30 2449 H 239.911 -0.570998 -0.756747 0
M  V30 2450 H 239.617 -1.61597 -3.12377 0
M  V30 2451 H 239.491 0.00979777 -3.77199 0
M  V30 2452 H 241.878 0.498086 -2.90866 0
M  V30 2453 H 241.959 -1.15484 -2.28248 0
M  V30 2454 H 241.603 -2.04502 -4.6491 0
M  V30 2455 H 241.533 -0.370433 -5.25295 0
M  V30 2456 H 244.024 -0.666893 -3.71969 0
M  V30 2457 H 244.337 -1.97479 -7.47143 0
M  V30 2458 H 242.682 -1.76926 -6.72103 0
M  V30 2459 H 245.873 -0.908869 -4.59192 0
M  V30 2460 H 246.046 -1.50506 -6.30279 0
M  V30 2461 N 239.452 1.56882 -0.150215 0
M  V30 2462 C 240.868 1.58263 0.20617 0
M  V30 2463 C 241.068 1.16464 1.64434 0
M  V30 2464 O 240.124 0.866422 2.3717 0
M  V30 2465 C 241.437 3.00649 -0.0555025 0
M  V30 2466 C 242.985 3.12999 0.00795388 0
M  V30 2467 C 243.46 4.5744 -0.226429 0
M  V30 2468 N 244.951 4.62875 -0.173469 0
M  V30 2469 C 245.686 5.72454 -0.329288 0
M  V30 2470 N 245.182 6.90669 -0.543005 0
M  V30 2471 N 246.975 5.61467 -0.266666 0
M  V30 2472 H 239.126 1.82345 -1.08922 0
M  V30 2473 H 241.389 0.844149 -0.431413 0
M  V30 2474 H 241.095 3.3563 -1.05096 0
M  V30 2475 H 240.969 3.71337 0.66246 0
M  V30 2476 H 243.356 2.77857 0.993966 0
M  V30 2477 H 243.437 2.4479 -0.742388 0
M  V30 2478 H 243.081 4.93287 -1.20956 0
M  V30 2479 H 243.011 5.2378 0.544274 0
M  V30 2480 H 245.502 3.77898 -0.0130709 0
M  V30 2481 H 245.815 7.70045 -0.651922 0
M  V30 2482 H 244.16 6.92581 -0.579366 0
M  V30 2483 H 247.351 4.67992 -0.100441 0
M  V30 2484 H 247.524 6.46816 -0.391535 0
M  V30 2485 N 240.93 -0.123565 1.57115 0
M  V30 2486 C 241.86 -1.15309 2.03042 0
M  V30 2487 C 242.841 -1.43454 0.914061 0
M  V30 2488 O 244.026 -1.53973 1.18347 0
M  V30 2489 C 241.156 -2.48043 2.43089 0
M  V30 2490 C 240.11 -2.3437 3.58127 0
M  V30 2491 C 239.436 -3.72026 3.84059 0
M  V30 2492 C 240.736 -1.80804 4.90007 0
M  V30 2493 H 242.43 -0.771102 2.893 0
M  V30 2494 H 239.976 -0.369479 1.39179 0
M  V30 2495 H 241.929 -3.20311 2.73823 0
M  V30 2496 H 240.653 -2.88122 1.53796 0
M  V30 2497 H 239.312 -1.64551 3.27595 0
M  V30 2498 H 238.96 -4.09582 2.91979 0
M  V30 2499 H 238.66 -3.63732 4.6149 0
M  V30 2500 H 240.184 -4.45806 4.1724 0
M  V30 2501 H 241.598 -2.42886 5.19307 0
M  V30 2502 H 239.995 -1.83343 5.71407 0
M  V30 2503 H 241.065 -0.76528 4.78823 0
M  V30 2504 N 242.408 -1.52605 -0.393616 0
M  V30 2505 C 243.355 -1.77055 -1.48054 0
M  V30 2506 C 244.325 -0.61358 -1.54352 0
M  V30 2507 O 245.51 -0.852806 -1.70681 0
M  V30 2508 C 242.65 -1.94108 -2.85335 0
M  V30 2509 C 241.763 -3.21792 -2.88226 0
M  V30 2510 C 240.898 -3.29188 -4.16904 0
M  V30 2511 C 239.937 -4.51013 -4.13828 0
M  V30 2512 N 239.074 -4.55716 -5.34105 0
M  V30 2513 H 243.914 -2.69815 -1.26506 0
M  V30 2514 H 241.451 -1.33683 -0.61379 0
M  V30 2515 H 243.409 -2.01979 -3.65049 0
M  V30 2516 H 242.039 -1.04713 -3.05344 0
M  V30 2517 H 241.091 -3.23015 -2.00911 0
M  V30 2518 H 242.403 -4.11557 -2.8182 0
M  V30 2519 H 241.557 -3.36216 -5.05018 0
M  V30 2520 H 240.296 -2.37389 -4.26026 0
M  V30 2521 H 239.301 -4.44115 -3.24102 0
M  V30 2522 H 240.526 -5.44123 -4.06333 0
M  V30 2523 H 238.472 -3.66807 -5.43865 0
M  V30 2524 H 238.389 -5.39346 -5.29756 0
M  V30 2525 H 239.657 -4.66993 -6.2413 0
M  V30 2526 N 243.887 0.651787 -1.4349 0
M  V30 2527 C 244.817 1.77621 -1.51569 0
M  V30 2528 C 245.798 1.66022 -0.370253 0
M  V30 2529 O 246.983 1.85095 -0.587658 0
M  V30 2530 C 244.113 3.16056 -1.43966 0
M  V30 2531 C 243.067 3.4242 -2.56774 0
M  V30 2532 C 242.393 4.8067 -2.34223 0
M  V30 2533 C 243.693 3.37023 -3.99015 0
M  V30 2534 H 245.387 1.71117 -2.45681 0
M  V30 2535 H 242.933 0.821825 -1.18246 0
M  V30 2536 H 244.886 3.94472 -1.48221 0
M  V30 2537 H 243.61 3.23293 -0.463586 0
M  V30 2538 H 242.269 2.66375 -2.51873 0
M  V30 2539 H 241.917 4.84585 -1.34856 0
M  V30 2540 H 241.617 4.9927 -3.09844 0
M  V30 2541 H 243.141 5.61342 -2.40265 0
M  V30 2542 H 244.555 4.05374 -4.05395 0
M  V30 2543 H 242.952 3.67159 -4.74673 0
M  V30 2544 H 244.022 2.3518 -4.2405 0
M  V30 2545 N 245.365 1.30045 0.890287 0
M  V30 2546 C 246.313 1.15873 2.01683 0
M  V30 2547 C 247.307 0.0719403 1.69247 0
M  V30 2548 O 248.513 0.232414 1.78493 0
M  V30 2549 H 244.888 0.358203 0.661207 0
M  V30 2550 H 246.859 2.11229 2.10772 0
M  V30 2551 C 245.608 0.861842 3.36849 0
M  V30 2552 H 244.931 1.69016 3.62317 0
M  V30 2553 H 246.371 0.802762 4.16331 0
M  V30 2554 C 244.83 -0.435132 3.34078 0
M  V30 2555 O 245.36 -1.4583 3.74295 0
M  V30 2556 N 243.566 -0.444377 2.87182 0
M  V30 2557 H 243.113 0.388723 2.5465 0
M  V30 2558 H 243.071 -1.31213 2.85711 0
M  V30 2559 N 246.843 -1.10192 1.12674 0
M  V30 2560 C 248.071 -1.85983 0.906527 0
M  V30 2561 C 248.486 -1.80783 -0.544333 0
M  V30 2562 O 247.843 -1.19834 -1.37645 0
M  V30 2563 C 247.894 -3.34281 1.37618 0
M  V30 2564 O 247.615 -3.39401 2.77017 0
M  V30 2565 C 249.116 -4.26938 1.19325 0
M  V30 2566 H 246.336 -0.587716 0.323775 0
M  V30 2567 H 248.88 -1.39284 1.49734 0
M  V30 2568 H 247.035 -3.78436 0.828539 0
M  V30 2569 H 247.449 -4.31838 2.97684 0
M  V30 2570 H 248.923 -5.29181 1.57071 0
M  V30 2571 H 249.4 -4.38995 0.134097 0
M  V30 2572 H 250.006 -3.8859 1.72852 0
M  V30 2573 N 248.321 -0.919034 -1.28029 0
M  V30 2574 C 249.231 -0.416756 -2.30869 0
M  V30 2575 C 250.247 0.498235 -1.66714 0
M  V30 2576 O 251.423 0.383144 -1.97722 0
M  V30 2577 C 248.488 0.330274 -3.45123 0
M  V30 2578 C 247.549 -0.618578 -4.2482 0
M  V30 2579 C 246.782 0.0928959 -5.33619 0
M  V30 2580 O 247.005 1.31375 -5.55065 0
M  V30 2581 O 245.939 -0.574499 -5.99152 0
M  V30 2582 H 249.765 -1.27043 -2.75851 0
M  V30 2583 H 247.35 -0.684052 -1.3282 0
M  V30 2584 H 249.232 0.751972 -4.14636 0
M  V30 2585 H 247.907 1.1597 -3.02213 0
M  V30 2586 H 246.814 -1.08978 -3.57875 0
M  V30 2587 H 248.147 -1.41497 -4.71423 0
M  V30 2588 N 249.799 1.42003 -0.683588 0
M  V30 2589 C 251.045 2.01712 -0.209825 0
M  V30 2590 C 251.378 1.53968 1.18353 0
M  V30 2591 O 250.653 0.745661 1.79639 0
M  V30 2592 C 250.936 3.59202 -0.254197 0
M  V30 2593 C 250.789 4.17102 -1.68363 0
M  V30 2594 C 252.108 4.38344 0.392709 0
M  V30 2595 H 249.227 0.732891 -0.0777189 0
M  V30 2596 H 251.869 1.68909 -0.87004 0
M  V30 2597 H 250.019 3.87278 0.307954 0
M  V30 2598 H 251.691 3.99946 -2.29871 0
M  V30 2599 H 249.934 3.72597 -2.22157 0
M  V30 2600 H 250.605 5.26249 -1.6663 0
M  V30 2601 H 253.081 4.16011 -0.0859162 0
M  V30 2602 H 251.957 5.47901 0.331063 0
M  V30 2603 H 252.218 4.16887 1.47164 0
M  V30 2604 N 251.277 0.427512 1.51691 0
M  V30 2605 C 252.693 0.0792977 1.59403 0
M  V30 2606 C 252.893 -1.41035 1.43914 0
M  V30 2607 O 251.949 -2.17922 1.27539 0
M  V30 2608 C 253.262 0.590636 2.94842 0
M  V30 2609 C 254.81 0.550215 3.08126 0
M  V30 2610 C 255.285 1.03836 4.46074 0
M  V30 2611 N 256.776 0.995943 4.52366 0
M  V30 2612 C 257.511 1.34463 5.57411 0
M  V30 2613 N 257.007 1.76569 6.69922 0
M  V30 2614 N 258.8 1.26343 5.47717 0
M  V30 2615 H 250.951 1.39687 1.60004 0
M  V30 2616 H 253.214 0.575003 0.753708 0
M  V30 2617 H 252.92 1.63251 3.11516 0
M  V30 2618 H 252.794 0.0102061 3.77199 0
M  V30 2619 H 255.181 -0.482654 2.91126 0
M  V30 2620 H 255.262 1.16693 2.27632 0
M  V30 2621 H 254.906 2.06965 4.63819 0
M  V30 2622 H 254.836 0.398286 5.25092 0
M  V30 2623 H 257.327 0.68661 3.7161 0
M  V30 2624 H 257.64 2.01438 7.46085 0
M  V30 2625 H 255.985 1.80488 6.71155 0
M  V30 2626 H 259.176 0.933209 4.58703 0
M  V30 2627 H 259.349 1.53846 6.29472 0
M  V30 2628 N 252.755 -1.56801 0.158532 0
M  V30 2629 C 253.98 -2.01295 -0.499516 0
M  V30 2630 C 254.405 -1.03799 -1.56867 0
M  V30 2631 O 253.763 -0.0155162 -1.81293 0
M  V30 2632 C 253.811 -3.44469 -1.06647 0
M  V30 2633 O 252.915 -3.50012 -2.18095 0
M  V30 2634 H 252.256 -0.652884 -0.12099 0
M  V30 2635 H 254.786 -2.02958 0.258661 0
M  V30 2636 H 254.796 -3.8351 -1.39227 0
M  V30 2637 H 253.471 -4.14932 -0.283581 0
M  V30 2638 H 252.048 -3.22822 -1.86656 0
M  V30 2639 N 254.233 0.115231 -1.57178 0
M  V30 2640 C 255.479 0.82357 -1.85325 0
M  V30 2641 C 255.812 1.79349 -0.744814 0
M  V30 2642 O 255.087 1.92899 0.249024 0
M  V30 2643 C 255.37 1.57014 -3.24066 0
M  V30 2644 C 255.223 0.619565 -4.45513 0
M  V30 2645 C 256.542 2.52545 -3.60429 0
M  V30 2646 H 253.661 0.297948 -0.674089 0
M  V30 2647 H 256.303 0.0877138 -1.89797 0
M  V30 2648 H 254.453 2.19742 -3.20383 0
M  V30 2649 H 256.125 0.000837639 -4.613 0
M  V30 2650 H 254.368 -0.0686174 -4.33746 0
M  V30 2651 H 255.039 1.17866 -5.3927 0
M  V30 2652 H 257.515 1.9992 -3.64926 0
M  V30 2653 H 256.391 3.01811 -4.58477 0
M  V30 2654 H 256.652 3.35383 -2.88047 0
M  V30 2655 N 255.711 1.52812 0.385517 0
M  V30 2656 C 256.959 1.67694 1.12797 0
M  V30 2657 C 257.28 0.421115 1.90399 0
M  V30 2658 O 256.55 -0.564551 1.87589 0
M  V30 2659 H 255.13 0.618155 0.419396 0
M  V30 2660 H 257.792 1.89938 0.436972 0
M  V30 2661 H 256.888 2.52896 1.82894 0
M  V30 2662 N 257.189 -0.644168 1.43834 0
M  V30 2663 C 258.6 -1.22554 1.40845 0
M  V30 2664 C 258.951 -1.9585 0.117115 0
M  V30 2665 O 258.076 -2.01734 -0.783086 0
M  V30 2666 C 258.671 -2.22907 2.55143 0
M  V30 2667 C 257.23 -2.76501 2.5539 0
M  V30 2668 C 256.377 -1.51287 2.32396 0
M  V30 2669 H 259.328 -0.43563 1.52604 0
M  V30 2670 H 259.349 -3.05259 2.2715 0
M  V30 2671 H 258.861 -1.69533 3.49114 0
M  V30 2672 H 256.962 -3.33914 1.65324 0
M  V30 2673 H 257.075 -3.23429 3.53455 0
M  V30 2674 H 255.439 -1.78957 1.81236 0
M  V30 2675 H 256.222 -0.998336 3.28463 0
M  V30 2676 N 258.668 -1.30515 -0.883378 0
M  V30 2677 C 259.598 -1.19607 -2.00541 0
M  V30 2678 C 260.579 -0.086346 -1.69881 0
M  V30 2679 O 261.764 -0.268654 -1.92333 0
M  V30 2680 C 258.894 -0.888758 -3.35736 0
M  V30 2681 C 257.848 -1.95659 -3.8066 0
M  V30 2682 C 257.174 -1.50224 -5.13164 0
M  V30 2683 C 258.474 -3.36788 -3.99213 0
M  V30 2684 H 260.168 -2.13476 -2.09925 0
M  V30 2685 H 257.714 -1.02775 -1.00863 0
M  V30 2686 H 259.667 -0.799094 -4.13754 0
M  V30 2687 H 258.391 0.0856125 -3.26488 0
M  V30 2688 H 257.05 -2.03591 -3.04871 0
M  V30 2689 H 256.698 -0.516092 -5.00345 0
M  V30 2690 H 256.398 -2.2165 -5.44192 0
M  V30 2691 H 257.922 -1.42639 -5.93706 0
M  V30 2692 H 259.336 -3.31605 -4.67665 0
M  V30 2693 H 257.733 -4.06314 -4.41621 0
M  V30 2694 H 258.803 -3.78561 -3.03017 0
M  V30 2695 N 260.146 1.09593 -1.13257 0
M  V30 2696 C 261.371 1.8604 -0.916732 0
M  V30 2697 C 261.796 1.80504 0.529146 0
M  V30 2698 O 261.154 1.18127 1.37534 0
M  V30 2699 C 261.202 3.32017 -1.40703 0
M  V30 2700 O 260.306 4.08141 -0.591153 0
M  V30 2701 H 259.647 0.576943 -0.328683 0
M  V30 2702 H 262.177 1.38405 -1.50682 0
M  V30 2703 H 262.187 3.82865 -1.4099 0
M  V30 2704 H 260.862 3.35361 -2.45979 0
M  V30 2705 H 259.439 3.67084 -0.656005 0
M  V30 2706 N 261.624 0.925811 1.2754 0
M  V30 2707 C 262.571 0.422045 2.26908 0
M  V30 2708 C 263.541 -0.510029 1.58076 0
M  V30 2709 O 264.726 -0.429599 1.85901 0
M  V30 2710 C 261.866 -0.320837 3.43605 0
M  V30 2711 C 260.979 0.64513 4.27156 0
M  V30 2712 C 260.114 -0.117405 5.3107 0
M  V30 2713 C 259.153 0.841391 6.0629 0
M  V30 2714 N 258.29 0.111604 7.02011 0
M  V30 2715 H 263.13 1.27441 2.69375 0
M  V30 2716 H 260.667 0.639697 1.32462 0
M  V30 2717 H 262.625 -0.76785 4.10073 0
M  V30 2718 H 261.255 -1.13745 3.02096 0
M  V30 2719 H 260.307 1.21067 3.6062 0
M  V30 2720 H 261.619 1.37797 4.79389 0
M  V30 2721 H 260.773 -0.624422 6.03478 0
M  V30 2722 H 259.512 -0.883219 4.79636 0
M  V30 2723 H 258.517 1.35967 5.32722 0
M  V30 2724 H 259.742 1.60696 6.59813 0
M  V30 2725 H 257.688 -0.635999 6.5291 0
M  V30 2726 H 257.605 0.784044 7.51923 0
M  V30 2727 H 258.873 -0.374823 7.78598 0
M  V30 2728 N 263.102 -1.41638 0.69111 0
M  V30 2729 C 264.518 -1.55435 0.362224 0
M  V30 2730 C 264.718 -1.66754 -1.13117 0
M  V30 2731 O 263.774 -1.64348 -1.91692 0
M  V30 2732 C 265.087 -2.79588 1.10684 0
M  V30 2733 C 266.635 -2.9338 1.09075 0
M  V30 2734 C 267.11 -4.20414 1.81703 0
M  V30 2735 N 268.601 -4.27362 1.7865 0
M  V30 2736 C 269.336 -5.24507 2.31689 0
M  V30 2737 N 268.832 -6.27708 2.93179 0
M  V30 2738 N 270.625 -5.16416 2.2197 0
M  V30 2739 H 262.776 -1.32536 1.65976 0
M  V30 2740 H 265.039 -0.639115 0.700168 0
M  V30 2741 H 264.745 -2.77419 2.16175 0
M  V30 2742 H 264.619 -3.70973 0.682545 0
M  V30 2743 H 267.006 -2.95067 0.0441238 0
M  V30 2744 H 267.087 -2.0318 1.55407 0
M  V30 2745 H 266.731 -4.19488 2.86343 0
M  V30 2746 H 266.661 -5.09578 1.32808 0
M  V30 2747 H 269.152 -3.53415 1.33815 0
M  V30 2748 H 269.465 -6.98217 3.31229 0
M  V30 2749 H 267.81 -6.28223 2.97255 0
M  V30 2750 H 271.001 -4.34716 1.73607 0
M  V30 2751 H 271.174 -5.91958 2.63609 0
M  V30 2752 N 264.58 -0.43555 -1.51462 0
M  V30 2753 C 265.828 0.131254 -2.01673 0
M  V30 2754 C 266.149 1.43368 -1.32177 0
M  V30 2755 O 265.419 1.90524 -0.455769 0
M  V30 2756 H 263.999 0.0514954 -0.745223 0
M  V30 2757 H 266.661 -0.577847 -1.86137 0
M  V30 2758 H 265.757 0.308446 -3.10572 0
M  V30 2759 N 266.058 1.56714 -0.166846 0
M  V30 2760 C 267.305 1.96747 0.479252 0
M  V30 2761 C 267.633 1.05263 1.63554 0
M  V30 2762 O 266.888 0.0858098 1.95512 0
M  V30 2763 C 267.187 3.42889 1.00806 0
M  V30 2764 C 266.853 4.50889 -0.0318574 0
M  V30 2765 C 265.515 4.8015 -0.317675 0
M  V30 2766 C 267.867 5.15949 -0.737956 0
M  V30 2767 C 265.195 5.71772 -1.31506 0
M  V30 2768 C 267.547 6.08647 -1.72429 0
M  V30 2769 C 266.211 6.36277 -2.0176 0
M  V30 2770 H 265.481 0.719949 0.175371 0
M  V30 2771 H 268.128 1.89756 -0.257864 0
M  V30 2772 H 266.433 3.4681 1.82291 0
M  V30 2773 H 268.13 3.71203 1.51689 0
M  V30 2774 H 264.72 4.28128 0.201088 0
M  V30 2775 H 268.904 4.93458 -0.530351 0
M  V30 2776 H 264.16 5.91465 -1.54853 0
M  V30 2777 H 268.334 6.58129 -2.27682 0
M  V30 2778 H 265.961 7.07075 -2.79194 0
M  V30 2779 N 267.536 -0.106894 1.57237 0
M  V30 2780 C 268.766 -0.825191 1.89405 0
M  V30 2781 C 269.174 -1.73374 0.757496 0
M  V30 2782 O 268.517 -1.81552 -0.280115 0
M  V30 2783 C 268.579 -1.70102 3.1671 0
M  V30 2784 C 268.243 -0.965523 4.46684 0
M  V30 2785 C 269.24 -0.300741 5.19029 0
M  V30 2786 C 266.925 -0.943105 4.93367 0
M  V30 2787 C 268.919 0.376622 6.36286 0
M  V30 2788 C 266.606 -0.261949 6.10538 0
M  V30 2789 C 267.604 0.396748 6.81847 0
M  V30 2790 O 267.292 1.06701 7.96787 0
M  V30 2791 H 267.024 -0.241852 0.631255 0
M  V30 2792 H 269.578 -0.0921491 2.05193 0
M  V30 2793 H 267.808 -2.47601 2.97036 0
M  V30 2794 H 269.497 -2.29483 3.34802 0
M  V30 2795 H 270.263 -0.309599 4.84011 0
M  V30 2796 H 266.142 -1.44524 4.3776 0
M  V30 2797 H 269.686 0.891334 6.91882 0
M  V30 2798 H 265.583 -0.250896 6.45012 0
M  V30 2799 H 266.351 0.972707 8.127 0
M  V30 2800 N 269.014 -1.53014 -0.377408 0
M  V30 2801 C 269.944 -1.81589 -1.46791 0
M  V30 2802 C 270.925 -0.668622 -1.56408 0
M  V30 2803 O 272.11 -0.917337 -1.71168 0
M  V30 2804 C 269.24 -1.99519 -2.8427 0
M  V30 2805 C 268.194 -3.15249 -2.89486 0
M  V30 2806 C 267.52 -3.18451 -4.29527 0
M  V30 2807 C 268.82 -4.54084 -2.58079 0
M  V30 2808 H 270.514 -2.7291 -1.23127 0
M  V30 2809 H 268.06 -1.31319 -0.590883 0
M  V30 2810 H 270.013 -2.18092 -3.60575 0
M  V30 2811 H 268.737 -1.04897 -3.09296 0
M  V30 2812 H 267.396 -2.96477 -2.15631 0
M  V30 2813 H 267.044 -2.2149 -4.5161 0
M  V30 2814 H 266.744 -3.962 -4.33934 0
M  V30 2815 H 268.268 -3.39193 -5.07721 0
M  V30 2816 H 269.682 -4.72899 -3.24098 0
M  V30 2817 H 268.079 -5.33987 -2.7382 0
M  V30 2818 H 269.149 -4.60006 -1.53372 0
M  V30 2819 N 270.492 0.636531 -1.44174 0
M  V30 2820 C 271.455 1.73063 -1.50273 0
M  V30 2821 C 272.455 1.56113 -0.385397 0
M  V30 2822 O 273.645 1.61707 -0.64781 0
M  V30 2823 C 270.777 3.12096 -1.37145 0
M  V30 2824 H 271.97 1.69031 -2.47727 0
M  V30 2825 H 269.523 0.849706 -1.31186 0
M  V30 2826 H 270.258 3.21728 -0.407636 0
M  V30 2827 H 270.043 3.25805 -2.18159 0
M  V30 2828 H 271.533 3.91846 -1.44382 0
M  V30 2829 N 271.97 1.30982 0.876444 0
M  V30 2830 C 273.217 1.20296 1.62896 0
M  V30 2831 C 273.545 -0.240395 1.93009 0
M  V30 2832 O 272.8 -1.18733 1.55567 0
M  V30 2833 C 273.099 1.98572 2.9716 0
M  V30 2834 C 272.765 3.48125 2.86566 0
M  V30 2835 C 271.427 3.88905 2.83383 0
M  V30 2836 C 273.779 4.43322 2.74071 0
M  V30 2837 C 271.107 5.2316 2.65556 0
M  V30 2838 C 273.459 5.77695 2.57781 0
M  V30 2839 C 272.123 6.17704 2.52979 0
M  V30 2840 H 271.393 0.440193 0.59608 0
M  V30 2841 H 274.04 1.62177 1.01837 0
M  V30 2842 H 272.345 1.49352 3.62217 0
M  V30 2843 H 274.042 1.8769 3.54364 0
M  V30 2844 H 270.632 3.15723 2.89856 0
M  V30 2845 H 274.816 4.12752 2.75589 0
M  V30 2846 H 270.072 5.53241 2.60259 0
M  V30 2847 H 274.246 6.51091 2.47089 0
M  V30 2848 H 271.873 7.21678 2.38924 0
M  V30 2849 N 273.449 -1.08991 1.13837 0
M  V30 2850 C 274.381 -2.15606 0.777612 0
M  V30 2851 C 275.394 -1.61533 -0.202739 0
M  V30 2852 O 276.583 -1.78491 0.0181055 0
M  V30 2853 C 273.683 -3.3864 0.132623 0
M  V30 2854 C 272.856 -4.22115 1.1462 0
M  V30 2855 C 271.915 -5.23564 0.526074 0
M  V30 2856 O 270.941 -5.56678 1.18735 0
M  V30 2857 N 272.143 -5.76266 -0.699866 0
M  V30 2858 H 274.908 -2.47159 1.69506 0
M  V30 2859 H 272.469 -1.24747 1.03198 0
M  V30 2860 H 274.461 -4.03626 -0.29459 0
M  V30 2861 H 273.031 -3.04938 -0.687849 0
M  V30 2862 H 272.251 -3.53199 1.75055 0
M  V30 2863 H 273.539 -4.74709 1.83109 0
M  V30 2864 H 272.937 -5.51585 -1.25581 0
M  V30 2865 H 271.494 -6.42963 -1.06968 0
M  V30 2866 N 274.927 -0.932562 -1.27047 0
M  V30 2867 C 276.204 -0.49377 -1.89265 0
M  V30 2868 C 276.584 1.02833 -1.8436 0
M  V30 2869 O 275.932 1.88461 -1.29209 0
M  V30 2870 C 276.142 -1.04536 -3.32976 0
M  V30 2871 C 277.49 -1.10879 -4.09867 0
M  V30 2872 O 278.514 -0.995327 -3.42011 0
M  V30 2873 O 277.373 -1.28417 -5.31198 0
M  V30 2874 H 274.467 -0.159596 -0.811454 0
M  V30 2875 H 277.013 -1.02457 -1.3528 0
M  V30 2876 H 275.785 -2.08913 -3.30864 0
M  V30 2877 H 275.408 -0.496494 -3.94488 0
M  V30 2878 N 276.405 1.4127 -0.698611 0
M  V30 2879 C 277.654 2.00408 -0.227949 0
M  V30 2880 C 277.967 1.55981 1.18023 0
M  V30 2881 O 279.173 2.07699 1.74852 0
M  V30 2882 C 277.629 3.58129 -0.356636 0
M  V30 2883 C 277.237 4.11536 -1.77037 0
M  V30 2884 C 278.981 4.24466 0.0540969 0
M  V30 2885 C 276.888 5.61701 -1.85055 0
M  V30 2886 H 275.818 0.749586 -0.0814657 0
M  V30 2887 H 278.469 1.61713 -0.867249 0
M  V30 2888 H 276.851 3.94442 0.350965 0
M  V30 2889 H 278.025 3.86636 -2.50698 0
M  V30 2890 H 276.34 3.57736 -2.13105 0
M  V30 2891 H 278.937 5.34698 0.0146723 0
M  V30 2892 H 279.28 4.01687 1.09332 0
M  V30 2893 H 279.813 3.93198 -0.603337 0
M  V30 2894 H 276.552 5.89312 -2.8704 0
M  V30 2895 H 276.072 5.88519 -1.15783 0
M  V30 2896 H 277.751 6.26524 -1.61484 0
M  V30 2897 N 277.883 0.443576 1.51229 0
M  V30 2898 C 279.131 -0.120557 2.0174 0
M  V30 2899 C 279.452 -1.42665 1.32935 0
M  V30 2900 O 278.722 -1.9028 0.465866 0
M  V30 2901 H 277.302 -0.0475426 0.745486 0
M  V30 2902 H 279.964 0.587711 1.85828 0
M  V30 2903 H 279.06 -0.291972 3.10731 0
M  V30 2904 N 279.361 -1.56624 0.175154 0
M  V30 2905 C 280.324 -2.16934 -0.739738 0
M  V30 2906 C 281.324 -1.11842 -1.15533 0
M  V30 2907 O 282.514 -1.37335 -1.07167 0
M  V30 2908 C 279.646 -2.75531 -2.00738 0
M  V30 2909 H 280.839 -2.99131 -0.214639 0
M  V30 2910 H 278.392 -1.56123 -0.0744197 0
M  V30 2911 H 279.127 -1.97078 -2.57548 0
M  V30 2912 H 278.912 -3.52444 -1.71831 0
M  V30 2913 H 280.402 -3.21904 -2.66021 0
M  V30 2914 N 280.839 0.0985539 -1.57292 0
M  V30 2915 C 282.079 0.808332 -1.87737 0
M  V30 2916 C 282.443 1.7607 -0.76572 0
M  V30 2917 O 283.644 2.51358 -0.952499 0
M  V30 2918 C 281.915 1.52093 -3.23423 0
M  V30 2919 S 283.474 2.26947 -3.75554 0
M  V30 2920 H 280.292 0.269377 -0.657995 0
M  V30 2921 H 282.894 0.0656269 -1.9539 0
M  V30 2922 H 281.598 0.81363 -4.02254 0
M  V30 2923 H 281.129 2.30361 -3.189 0
M  V30 2924 H 283.144 3.53027 -3.48692 0
M  V30 2925 N 282.317 1.53212 0.369288 0
M  V30 2926 C 283.247 1.82365 1.45826 0
M  V30 2927 C 284.228 0.676907 1.56051 0
M  V30 2928 O 285.413 0.926401 1.70679 0
M  V30 2929 C 282.543 2.01023 2.83208 0
M  V30 2930 C 281.497 3.1678 2.8781 0
M  V30 2931 C 280.823 3.20724 4.27832 0
M  V30 2932 C 282.123 4.55447 2.55667 0
M  V30 2933 H 283.817 2.73559 1.21678 0
M  V30 2934 H 281.363 1.3163 0.583911 0
M  V30 2935 H 283.316 2.20001 3.59413 0
M  V30 2936 H 282.04 1.06536 3.08736 0
M  V30 2937 H 280.699 2.97616 2.14056 0
M  V30 2938 H 280.347 2.23882 4.50429 0
M  V30 2939 H 280.047 3.98496 4.31827 0
M  V30 2940 H 281.571 3.41881 5.05915 0
M  V30 2941 H 282.985 4.74611 3.21586 0
M  V30 2942 H 281.382 5.35432 2.70984 0
M  V30 2943 H 282.452 4.60812 1.5093 0
M  V30 2944 N 283.795 -0.628877 1.44509 0
M  V30 2945 C 284.758 -1.72263 1.51188 0
M  V30 2946 C 285.758 -1.55907 0.39367 0
M  V30 2947 O 286.948 -1.61361 0.656377 0
M  V30 2948 C 284.08 -3.11365 1.38798 0
M  V30 2949 H 285.273 -1.67714 2.4862 0
M  V30 2950 H 282.826 -0.842737 1.31634 0
M  V30 2951 H 283.561 -3.21507 0.424693 0
M  V30 2952 H 283.346 -3.24644 2.19884 0
M  V30 2953 H 284.836 -3.91075 1.46458 0
M  V30 2954 N 285.273 -1.31445 -0.869486 0
M  V30 2955 C 286.522 -1.20517 -1.61736 0
M  V30 2956 C 286.835 0.235341 -1.94179 0
M  V30 2957 O 288.041 0.466312 -2.67465 0
M  V30 2958 C 286.497 -2.10982 -2.91573 0
M  V30 2959 C 286.105 -3.60032 -2.66611 0
M  V30 2960 C 287.849 -2.08856 -3.69567 0
M  V30 2961 C 285.756 -4.42503 -3.92358 0
M  V30 2962 H 284.686 -0.447493 -0.606849 0
M  V30 2963 H 287.337 -1.56303 -0.96133 0
M  V30 2964 H 285.719 -1.68095 -3.58553 0
M  V30 2965 H 286.893 -4.11167 -2.08035 0
M  V30 2966 H 285.208 -3.64139 -2.0197 0
M  V30 2967 H 287.805 -2.67716 -4.62852 0
M  V30 2968 H 288.148 -1.07582 -4.02159 0
M  V30 2969 H 288.681 -2.49945 -3.09471 0
M  V30 2970 H 285.42 -5.44533 -3.64916 0
M  V30 2971 H 284.94 -3.96125 -4.50383 0
M  V30 2972 H 286.619 -4.54741 -4.60238 0
M  V30 2973 N 286.751 1.08385 -1.14413 0
M  V30 2974 C 287.681 2.17321 -0.854044 0
M  V30 2975 C 288.662 1.69024 0.191049 0
M  V30 2976 O 289.847 1.94141 0.0476779 0
M  V30 2977 C 286.977 3.45719 -0.330983 0
M  V30 2978 C 285.931 4.07409 -1.31155 0
M  V30 2979 C 285.257 5.30762 -0.64778 0
M  V30 2980 C 286.557 4.48665 -2.67388 0
M  V30 2981 H 288.251 2.41845 -1.76498 0
M  V30 2982 H 285.797 1.16233 -0.850051 0
M  V30 2983 H 287.75 4.21241 -0.115645 0
M  V30 2984 H 286.474 3.2075 0.615381 0
M  V30 2985 H 285.133 3.33919 -1.51306 0
M  V30 2986 H 284.781 5.02078 0.304398 0
M  V30 2987 H 284.481 5.72992 -1.30207 0
M  V30 2988 H 286.005 6.08998 -0.441972 0
M  V30 2989 H 287.419 5.15364 -2.51143 0
M  V30 2990 H 285.816 5.01814 -3.29093 0
M  V30 2991 H 286.886 3.60543 -3.24248 0
M  V30 2992 N 288.23 0.939286 1.26551 0
M  V30 2993 C 289.455 0.602008 1.98471 0
M  V30 2994 C 289.88 -0.815624 1.69497 0
M  V30 2995 O 289.238 -1.54912 0.941905 0
M  V30 2996 C 289.286 0.848407 3.50477 0
M  V30 2997 O 288.39 -0.0804009 4.12322 0
M  V30 2998 H 287.731 0.23049 0.622712 0
M  V30 2999 H 290.261 1.2617 1.61066 0
M  V30 3000 H 290.271 0.768553 4.00696 0
M  V30 3001 H 288.946 1.88171 3.70897 0
M  V30 3002 H 287.523 0.0503508 3.72866 0
M  V30 3003 N 289.708 -1.40897 0.706093 0
M  V30 3004 C 290.638 -2.33418 0.0620085 0
M  V30 3005 C 291.619 -1.52385 -0.755827 0
M  V30 3006 O 292.804 -1.80886 -0.706674 0
M  V30 3007 C 289.934 -3.36293 -0.867445 0
M  V30 3008 C 288.888 -4.27716 -0.155932 0
M  V30 3009 C 288.214 -5.2105 -1.20046 0
M  V30 3010 C 289.514 -5.12944 0.984149 0
M  V30 3011 H 291.208 -2.87527 0.83477 0
M  V30 3012 H 288.754 -1.38249 0.402875 0
M  V30 3013 H 290.707 -3.99949 -1.32735 0
M  V30 3014 H 289.431 -2.80556 -1.67199 0
M  V30 3015 H 288.09 -3.65498 0.284047 0
M  V30 3016 H 287.738 -4.61624 -1.99781 0
M  V30 3017 H 287.438 -5.83056 -0.729328 0
M  V30 3018 H 288.962 -5.87584 -1.66066 0
M  V30 3019 H 290.376 -5.70109 0.604048 0
M  V30 3020 H 288.773 -5.83945 1.38304 0
M  V30 3021 H 289.843 -4.49485 1.81911 0
M  V30 3022 N 291.186 -0.45159 -1.50991 0
M  V30 3023 C 292.602 -0.104647 -1.59257 0
M  V30 3024 C 292.802 1.38728 -1.4614 0
M  V30 3025 O 291.858 2.15866 -1.30989 0
M  V30 3026 C 293.171 -0.637468 -2.93865 0
M  V30 3027 C 294.719 -0.599166 -3.07212 0
M  V30 3028 C 295.194 -1.1092 -4.44366 0
M  V30 3029 N 296.685 -1.06778 -4.50725 0
M  V30 3030 C 297.42 -1.43314 -5.55201 0
M  V30 3031 N 296.916 -1.87204 -6.67028 0
M  V30 3032 N 298.709 -1.3504 -5.45638 0
M  V30 3033 H 290.86 -1.42214 -1.57762 0
M  V30 3034 H 293.123 -0.586921 -0.744465 0
M  V30 3035 H 292.829 -1.68187 -3.08879 0
M  V30 3036 H 292.703 -0.0702139 -3.77135 0
M  V30 3037 H 295.09 0.436277 -2.91857 0
M  V30 3038 H 295.171 -1.20299 -2.25747 0
M  V30 3039 H 294.815 -2.14318 -4.60467 0
M  V30 3040 H 294.745 -0.481773 -5.24392 0
M  V30 3041 H 297.236 -0.745643 -3.70471 0
M  V30 3042 H 297.549 -2.13282 -7.42786 0
M  V30 3043 H 295.894 -1.91142 -6.68199 0
M  V30 3044 H 299.085 -1.00607 -4.57161 0
M  V30 3045 H 299.258 -1.63841 -6.26945 0
M  V30 3046 N 292.664 1.56529 -0.183458 0
M  V30 3047 C 293.913 1.96419 0.458511 0
M  V30 3048 C 294.226 1.0727 1.63562 0
M  V30 3049 O 295.432 1.36893 2.34462 0
M  V30 3050 C 293.888 3.49298 0.867122 0
M  V30 3051 C 293.496 4.47092 -0.285057 0
M  V30 3052 C 295.24 3.97983 1.47683 0
M  V30 3053 C 293.147 5.91225 0.143862 0
M  V30 3054 H 292.077 0.733394 0.175071 0
M  V30 3055 H 294.728 1.81448 -0.273624 0
M  V30 3056 H 293.11 3.59731 1.65559 0
M  V30 3057 H 294.284 4.48383 -1.0625 0
M  V30 3058 H 292.599 4.08535 -0.805503 0
M  V30 3059 H 295.196 5.03134 1.80999 0
M  V30 3060 H 295.539 3.41618 2.37914 0
M  V30 3061 H 296.072 3.90617 0.752562 0
M  V30 3062 H 292.811 6.5149 -0.723974 0
M  V30 3063 H 292.331 5.93214 0.886413 0
M  V30 3064 H 294.01 6.44362 0.583628 0
M  V30 3065 N 294.142 -0.090211 1.57342 0
M  V30 3066 C 295.372 -0.805055 1.90269 0
M  V30 3067 C 295.78 -1.72561 0.775842 0
M  V30 3068 O 295.123 -1.81839 -0.260843 0
M  V30 3069 C 295.185 -1.66734 3.18497 0
M  V30 3070 C 294.849 -0.918092 4.47683 0
M  V30 3071 C 295.846 -0.245674 5.19319 0
M  V30 3072 C 293.531 -0.890724 4.94339 0
M  V30 3073 C 295.525 0.444088 6.35851 0
M  V30 3074 C 293.212 -0.197179 6.10782 0
M  V30 3075 C 294.21 0.469044 6.81388 0
M  V30 3076 O 293.898 1.15146 7.95611 0
M  V30 3077 H 293.63 -0.235143 0.633785 0
M  V30 3078 H 296.184 -0.0703805 2.05279 0
M  V30 3079 H 294.414 -2.44437 2.99646 0
M  V30 3080 H 296.103 -2.25919 3.37217 0
M  V30 3081 H 296.869 -0.258246 4.84312 0
M  V30 3082 H 292.748 -1.39873 4.39268 0
M  V30 3083 H 296.292 0.964667 6.90898 0
M  V30 3084 H 292.189 -0.18247 6.45242 0
M  V30 3085 H 292.957 1.05885 8.11622 0
M  V30 3086 N 295.62 -1.53406 -0.361157 0
M  V30 3087 C 296.85 -1.73465 -1.1222 0
M  V30 3088 C 297.258 -0.465486 -1.83384 0
M  V30 3089 O 296.601 0.571611 -1.7458 0
M  V30 3090 C 296.663 -2.84834 -2.19339 0
M  V30 3091 C 296.327 -4.25038 -1.67903 0
M  V30 3092 C 297.324 -5.07231 -1.14074 0
M  V30 3093 C 295.009 -4.71464 -1.73282 0
M  V30 3094 C 297.003 -6.33942 -0.663068 0
M  V30 3095 C 294.69 -5.98153 -1.25127 0
M  V30 3096 C 295.688 -6.79223 -0.717296 0
M  V30 3097 O 295.376 -8.03533 -0.242865 0
M  V30 3098 H 295.108 -0.583526 -0.341283 0
M  V30 3099 H 297.662 -2.00964 -0.424591 0
M  V30 3100 H 295.892 -2.5282 -2.92607 0
M  V30 3101 H 297.581 -2.9303 -2.80871 0
M  V30 3102 H 298.347 -4.72534 -1.09254 0
M  V30 3103 H 294.226 -4.08432 -2.13786 0
M  V30 3104 H 297.77 -6.97167 -0.245612 0
M  V30 3105 H 293.667 -6.32347 -1.29642 0
M  V30 3106 H 294.435 -8.177 -0.361786 0
M  V30 3107 N 297.098 0.621204 -1.44841 0
M  V30 3108 C 298.045 1.73267 -1.5247 0
M  V30 3109 C 299.015 1.6189 -0.371611 0
M  V30 3110 O 300.2 1.81668 -0.58321 0
M  V30 3111 C 297.34 3.11545 -1.48438 0
M  V30 3112 C 296.453 3.33827 -2.74196 0
M  V30 3113 C 295.588 4.62133 -2.61929 0
M  V30 3114 C 294.627 4.77627 -3.82804 0
M  V30 3115 N 293.764 5.97219 -3.69153 0
M  V30 3116 H 298.604 1.66082 -2.47428 0
M  V30 3117 H 296.141 0.810026 -1.22788 0
M  V30 3118 H 298.099 3.91528 -1.4409 0
M  V30 3119 H 296.729 3.1772 -0.570402 0
M  V30 3120 H 295.781 2.47715 -2.88689 0
M  V30 3121 H 297.093 3.41153 -3.6389 0
M  V30 3122 H 296.247 5.50291 -2.5547 0
M  V30 3123 H 294.986 4.57182 -1.69811 0
M  V30 3124 H 293.991 3.87896 -3.89637 0
M  V30 3125 H 295.216 4.84385 -4.75971 0
M  V30 3126 H 293.162 5.93339 -2.79794 0
M  V30 3127 H 293.079 6.05644 -4.52472 0
M  V30 3128 H 294.347 6.87912 -3.66603 0
M  V30 3129 N 298.576 1.31904 0.862503 0
M  V30 3130 C 299.523 1.20182 1.9704 0
M  V30 3131 C 300.493 0.0858247 1.65878 0
M  V30 3132 O 301.678 0.26 1.8902 0
M  V30 3133 C 298.818 0.922797 3.32533 0
M  V30 3134 C 297.931 2.12284 3.76244 0
M  V30 3135 C 297.066 1.77996 5.00491 0
M  V30 3136 C 296.105 2.94366 5.36671 0
M  V30 3137 N 295.242 2.60223 6.52095 0
M  V30 3138 H 300.082 2.14951 2.06398 0
M  V30 3139 H 297.619 1.06917 1.01031 0
M  V30 3140 H 299.577 0.741548 4.10557 0
M  V30 3141 H 298.207 0.0119227 3.22798 0
M  V30 3142 H 297.259 2.41461 2.9394 0
M  V30 3143 H 298.571 2.99357 3.98982 0
M  V30 3144 H 297.725 1.56377 5.862 0
M  V30 3145 H 296.464 0.881252 4.79672 0
M  V30 3146 H 295.469 3.16625 4.49476 0
M  V30 3147 H 296.694 3.84957 5.59451 0
M  V30 3148 H 294.64 1.72884 6.32809 0
M  V30 3149 H 294.557 3.40827 6.74814 0
M  V30 3150 H 295.825 2.42016 7.40978 0
M  V30 3151 N 300.054 -1.07777 1.14986 0
M  V30 3152 C 301.294 -1.81888 0.932527 0
M  V30 3153 C 301.658 -1.84509 -0.531064 0
M  V30 3154 O 302.859 -2.54448 -0.866577 0
M  V30 3155 C 301.13 -3.23244 1.52473 0
M  V30 3156 S 302.689 -4.14154 1.44989 0
M  V30 3157 H 299.507 -0.626752 0.335712 0
M  V30 3158 H 302.109 -1.29503 1.46455 0
M  V30 3159 H 300.813 -3.18922 2.58296 0
M  V30 3160 H 300.344 -3.80704 0.991381 0
M  V30 3161 H 302.359 -4.94247 0.439799 0
M  V30 3162 N 301.532 -0.945985 -1.26051 0
M  V30 3163 C 302.943 -0.638096 -1.75457 0
M  V30 3164 C 303.294 0.846672 -1.76991 0
M  V30 3165 O 302.419 1.66262 -1.38513 0
M  V30 3166 C 303.014 -1.15157 -3.18629 0
M  V30 3167 C 301.573 -0.894004 -3.65629 0
M  V30 3168 C 300.72 -1.29967 -2.44957 0
M  V30 3169 H 303.671 -1.12376 -1.1206 0
M  V30 3170 H 303.692 -0.507615 -3.77099 0
M  V30 3171 H 303.204 -2.23222 -3.1748 0
M  V30 3172 H 301.305 0.172057 -3.72203 0
M  V30 3173 H 301.418 -1.52439 -4.54202 0
M  V30 3174 H 299.782 -0.718078 -2.44368 0
M  V30 3175 H 300.565 -2.38935 -2.46505 0
M  V30 3176 N 303.011 1.40521 -0.713556 0
M  V30 3177 C 303.974 2.29098 -0.0684347 0
M  V30 3178 C 304.974 1.45268 0.689472 0
M  V30 3179 O 306.164 1.66205 0.521677 0
M  V30 3180 C 303.296 3.28446 0.913024 0
M  V30 3181 H 304.489 2.87645 -0.84855 0
M  V30 3182 H 302.042 1.48809 -0.47809 0
M  V30 3183 H 302.777 2.74913 1.72027 0
M  V30 3184 H 302.562 3.90327 0.372472 0
M  V30 3185 H 304.052 3.94777 1.36165 0
M  V30 3186 N 304.489 0.459591 1.5075 0
M  V30 3187 C 305.422 -0.386257 2.24907 0
M  V30 3188 C 306.4 -1.006 1.27744 0
M  V30 3189 O 307.584 -1.04416 1.56938 0
M  V30 3190 C 304.711 -1.54021 3.01654 0
M  V30 3191 C 303.757 -1.03898 4.13651 0
M  V30 3192 S 304.59 0.0370501 5.35487 0
M  V30 3193 C 305.746 -1.12105 6.15779 0
M  V30 3194 H 305.979 0.243272 2.96303 0
M  V30 3195 H 303.512 0.244339 1.52454 0
M  V30 3196 H 305.47 -2.20163 3.46466 0
M  V30 3197 H 304.131 -2.14121 2.29806 0
M  V30 3198 H 303.324 -1.90254 4.66711 0
M  V30 3199 H 302.926 -0.45545 3.71216 0
M  V30 3200 H 305.218 -2.03501 6.46215 0
M  V30 3201 H 306.161 -0.62995 7.05292 0
M  V30 3202 H 306.569 -1.36967 5.47631 0
M  V30 3203 N 305.967 -1.56429 0.191757 0
M  V30 3204 C 307.213 -1.97777 -0.448554 0
M  V30 3205 C 307.546 -1.07847 -1.61501 0
M  V30 3206 O 306.821 -0.129774 -1.94067 0
M  V30 3207 C 307.104 -3.48362 -0.911906 0
M  V30 3208 C 306.957 -4.4907 0.256136 0
M  V30 3209 C 308.276 -4.02561 -1.77857 0
M  V30 3210 H 305.395 -0.719071 -0.161572 0
M  V30 3211 H 308.037 -1.87896 0.282007 0
M  V30 3212 H 306.187 -3.56914 -1.53442 0
M  V30 3213 H 307.859 -4.5256 0.893733 0
M  V30 3214 H 306.102 -4.24181 0.908436 0
M  V30 3215 H 306.773 -5.51889 -0.11053 0
M  V30 3216 H 309.249 -3.96767 -1.25359 0
M  V30 3217 H 308.125 -5.08301 -2.07174 0
M  V30 3218 H 308.386 -3.47616 -2.73158 0
M  V30 3219 N 307.445 0.0818655 -1.57387 0
M  V30 3220 C 308.861 0.436412 -1.53517 0
M  V30 3221 C 309.061 1.79758 -0.910459 0
M  V30 3222 O 308.117 2.47324 -0.508636 0
M  V30 3223 C 309.43 0.386734 -2.98203 0
M  V30 3224 C 310.978 0.467644 -3.09487 0
M  V30 3225 C 311.453 0.447978 -4.55804 0
M  V30 3226 N 312.944 0.508348 -4.60402 0
M  V30 3227 C 313.679 0.515184 -5.71081 0
M  V30 3228 N 313.175 0.477435 -6.91153 0
M  V30 3229 N 314.968 0.560988 -5.59294 0
M  V30 3230 H 307.119 -0.809546 -1.96367 0
M  V30 3231 H 309.382 -0.302733 -0.898363 0
M  V30 3232 H 309.088 -0.546539 -3.47427 0
M  V30 3233 H 308.962 1.20075 -3.57578 0
M  V30 3234 H 311.349 1.39134 -2.60242 0
M  V30 3235 H 311.43 -0.374753 -2.5304 0
M  V30 3236 H 311.074 -0.471826 -5.05704 0
M  V30 3237 H 311.004 1.30777 -5.10103 0
M  V30 3238 H 313.495 0.54218 -3.7399 0
M  V30 3239 H 313.808 0.486299 -7.71268 0
M  V30 3240 H 312.153 0.444278 -6.93579 0
M  V30 3241 H 315.344 0.5881 -4.64391 0
M  V30 3242 H 315.517 0.562846 -6.45551 0
M  V30 3243 N 308.923 1.53595 0.353017 0
M  V30 3244 C 309.871 1.81605 1.45335 0
M  V30 3245 C 310.865 0.685923 1.54892 0
M  V30 3246 O 312.071 0.869095 1.57628 0
M  V30 3247 H 308.446 0.575204 0.484401 0
M  V30 3248 H 310.417 2.73679 1.18921 0
M  V30 3249 C 309.166 2.03406 2.81995 0
M  V30 3250 H 308.489 2.89814 2.75405 0
M  V30 3251 H 309.929 2.26975 3.58132 0
M  V30 3252 C 308.388 0.816794 3.26849 0
M  V30 3253 O 308.918 0.0115856 4.01698 0
M  V30 3254 N 307.124 0.636682 2.8354 0
M  V30 3255 H 306.671 1.2931 2.22793 0
M  V30 3256 H 306.629 -0.176336 3.13905 0
M  V30 3257 N 310.401 -0.613514 1.45168 0
M  V30 3258 C 311.331 -1.7354 1.56225 0
M  V30 3259 C 312.312 -1.64981 0.41414 0
M  V30 3260 O 313.497 -1.83472 0.636526 0
M  V30 3261 C 310.627 -3.12128 1.52295 0
M  V30 3262 C 309.581 -3.35491 2.65762 0
M  V30 3263 C 308.907 -4.74291 2.46885 0
M  V30 3264 C 310.207 -3.26325 4.0781 0
M  V30 3265 H 311.901 -1.64543 2.50132 0
M  V30 3266 H 309.447 -0.790185 1.20383 0
M  V30 3267 H 311.4 -3.90404 1.58628 0
M  V30 3268 H 310.124 -3.2195 0.549139 0
M  V30 3269 H 308.783 -2.59603 2.58847 0
M  V30 3270 H 308.431 -4.80839 1.47657 0
M  V30 3271 H 308.131 -4.9088 3.22972 0
M  V30 3272 H 309.655 -5.54775 2.55063 0
M  V30 3273 H 311.069 -3.94483 4.16 0
M  V30 3274 H 309.466 -3.54445 4.8424 0
M  V30 3275 H 310.536 -2.23855 4.30136 0
M  V30 3276 N 311.879 -1.3236 -0.855495 0
M  V30 3277 C 312.842 -1.21164 -1.94556 0
M  V30 3278 C 313.842 -0.134908 -1.60233 0
M  V30 3279 O 315.032 -0.385249 -1.69887 0
M  V30 3280 C 312.164 -0.863192 -3.29791 0
M  V30 3281 H 313.357 -2.18038 -2.05911 0
M  V30 3282 H 310.91 -1.16179 -1.04557 0
M  V30 3283 H 311.645 0.103769 -3.24134 0
M  V30 3284 H 311.43 -1.64166 -3.56078 0
M  V30 3285 H 312.92 -0.809156 -4.09686 0
M  V30 3286 N 313.357 1.07166 -1.15556 0
M  V30 3287 C 314.32 2.12589 -0.856644 0
M  V30 3288 C 315.32 1.6015 0.14444 0
M  V30 3289 O 316.51 1.7399 -0.0854163 0
M  V30 3290 C 313.642 3.39753 -0.279405 0
M  V30 3291 H 314.835 2.40539 -1.79112 0
M  V30 3292 H 312.388 1.23086 -0.963298 0
M  V30 3293 H 313.123 3.17447 0.663174 0
M  V30 3294 H 312.908 3.79117 -1.00063 0
M  V30 3295 H 314.398 4.17507 -0.0879113 0
M  V30 3296 N 314.835 0.952656 1.25548 0
M  V30 3297 C 316.082 0.606373 1.93208 0
M  V30 3298 C 316.41 -0.85631 1.74636 0
M  V30 3299 O 315.665 -1.62951 1.08376 0
M  V30 3300 C 315.964 0.908818 3.45652 0
M  V30 3301 C 315.63 2.35722 3.84378 0
M  V30 3302 C 314.292 2.75312 3.9466 0
M  V30 3303 C 316.644 3.29793 4.03591 0
M  V30 3304 C 313.972 4.08047 4.21562 0
M  V30 3305 C 316.324 4.62138 4.31985 0
M  V30 3306 C 314.988 5.01528 4.40484 0
M  V30 3307 H 314.258 0.221888 0.706998 0
M  V30 3308 H 316.905 1.20132 1.49133 0
M  V30 3309 H 315.21 0.231456 3.91116 0
M  V30 3310 H 316.907 0.619498 3.96186 0
M  V30 3311 H 313.497 2.04017 3.76928 0
M  V30 3312 H 317.681 3.00397 3.95064 0
M  V30 3313 H 312.937 4.38212 4.26357 0
M  V30 3314 H 317.111 5.35012 4.45797 0
M  V30 3315 H 314.738 6.04406 4.61083 0
M  V30 3316 N 316.313 -1.40141 0.720998 0
M  V30 3317 C 317.538 -2.05618 0.271258 0
M  V30 3318 C 317.963 -1.53978 -1.08039 0
M  V30 3319 O 317.321 -0.677463 -1.68167 0
M  V30 3320 C 317.369 -3.59609 0.267197 0
M  V30 3321 O 316.473 -4.05526 -0.749814 0
M  V30 3322 H 315.814 -0.651904 0.126162 0
M  V30 3323 H 318.344 -1.79439 0.982997 0
M  V30 3324 H 318.354 -4.0786 0.106744 0
M  V30 3325 H 317.029 -3.96559 1.25354 0
M  V30 3326 H 315.606 -3.68722 -0.556644 0
M  V30 3327 N 317.792 -0.46758 -1.50504 0
M  V30 3328 C 318.702 0.33382 -2.32213 0
M  V30 3329 C 319.718 0.999323 -1.42441 0
M  V30 3330 O 320.894 0.988068 -1.75497 0
M  V30 3331 C 317.959 1.4035 -3.17022 0
M  V30 3332 C 317.02 0.754961 -4.2261 0
M  V30 3333 C 316.253 1.77367 -5.03365 0
M  V30 3334 O 316.476 2.99976 -4.8515 0
M  V30 3335 O 315.41 1.34744 -5.86624 0
M  V30 3336 H 319.236 -0.334067 -3.01857 0
M  V30 3337 H 316.821 -0.229496 -1.47627 0
M  V30 3338 H 318.703 2.02318 -3.69656 0
M  V30 3339 H 317.378 2.05492 -2.5011 0
M  V30 3340 H 316.285 0.0964244 -3.73976 0
M  V30 3341 H 317.618 0.146545 -4.91982 0
M  V30 3342 N 319.27 1.56325 -0.20005 0
M  V30 3343 C 320.233 2.18084 0.705132 0
M  V30 3344 C 321.233 1.13666 1.1374 0
M  V30 3345 O 322.423 1.39023 1.04968 0
M  V30 3346 C 319.555 2.78689 1.96329 0
M  V30 3347 H 320.748 2.99435 0.167023 0
M  V30 3348 H 318.301 1.56221 0.0495725 0
M  V30 3349 H 319.036 2.0115 2.5438 0
M  V30 3350 H 318.821 3.55133 1.66202 0
M  V30 3351 H 320.311 3.26096 2.60866 0
M  V30 3352 N 320.748 -0.0735177 1.57428 0
M  V30 3353 C 321.994 -0.774145 1.87443 0
M  V30 3354 C 322.327 -1.77311 0.792103 0
M  V30 3355 O 321.602 -1.93492 -0.197793 0
M  V30 3356 C 321.885 -1.48367 3.28115 0
M  V30 3357 C 321.738 -0.501227 4.46999 0
M  V30 3358 C 323.057 -2.429 3.66998 0
M  V30 3359 H 320.176 -0.279971 0.681752 0
M  V30 3360 H 322.818 -0.0373616 1.89963 0
M  V30 3361 H 320.968 -2.11171 3.26097 0
M  V30 3362 H 322.64 0.121468 4.6114 0
M  V30 3363 H 320.883 0.183593 4.33411 0
M  V30 3364 H 321.554 -1.03526 5.42205 0
M  V30 3365 H 324.03 -1.90175 3.70098 0
M  V30 3366 H 322.906 -2.89549 4.66318 0
M  V30 3367 H 323.167 -3.27628 2.96837 0
M  V30 3368 N 322.226 -1.5378 -0.344866 0
M  V30 3369 C 323.454 -1.74899 -1.10534 0
M  V30 3370 C 323.869 -0.487534 -1.82397 0
M  V30 3371 O 323.226 0.540741 -1.74305 0
M  V30 3372 C 323.277 -2.92822 -2.11984 0
M  V30 3373 O 322.998 -4.14089 -1.43044 0
M  V30 3374 C 324.499 -3.25982 -3.00417 0
M  V30 3375 H 321.719 -0.584426 -0.329678 0
M  V30 3376 H 324.263 -2.006 -0.397474 0
M  V30 3377 H 322.418 -2.69457 -2.78338 0
M  V30 3378 H 322.832 -4.80272 -2.10805 0
M  V30 3379 H 324.306 -4.11848 -3.67539 0
M  V30 3380 H 324.783 -2.42228 -3.66363 0
M  V30 3381 H 325.389 -3.51349 -2.39654 0
M  V30 3382 N 323.704 0.605807 -1.45491 0
M  V30 3383 C 324.952 1.36207 -1.49305 0
M  V30 3384 C 325.273 1.94519 -0.136863 0
M  V30 3385 O 324.543 1.77261 0.833983 0
M  V30 3386 H 323.123 0.50565 -0.549843 0
M  V30 3387 H 325.785 0.711239 -1.81459 0
M  V30 3388 H 324.881 2.18058 -2.23287 0
M  V30 3389 N 325.182 1.32811 0.848464 0
M  V30 3390 C 326.145 1.22194 1.9391 0
M  V30 3391 C 327.145 0.143404 1.60159 0
M  V30 3392 O 328.335 0.394253 1.6968 0
M  V30 3393 C 325.467 0.88067 3.29328 0
M  V30 3394 H 326.66 2.19127 2.04752 0
M  V30 3395 H 324.213 1.16731 1.0394 0
M  V30 3396 H 324.948 -0.0865776 3.24184 0
M  V30 3397 H 324.733 1.66052 3.55203 0
M  V30 3398 H 326.223 0.830871 4.09251 0
M  V30 3399 N 326.66 -1.06551 1.16123 0
M  V30 3400 C 327.937 -1.76097 0.85142 0
M  V30 3401 C 328.317 -2.00802 -0.6513 0
M  V30 3402 O 327.665 -1.63302 -1.59827 0
M  V30 3403 C 327.875 -3.06384 1.67122 0
M  V30 3404 C 329.223 -3.80585 1.88255 0
M  V30 3405 O 330.247 -3.16218 1.63966 0
M  V30 3406 O 329.106 -4.96212 2.2899 0
M  V30 3407 H 326.2 -0.765102 0.313923 0
M  V30 3408 H 328.746 -1.12844 1.26745 0
M  V30 3409 H 327.518 -2.84071 2.69108 0
M  V30 3410 H 327.141 -3.77371 1.25206 0
M  V30 3411 N 328.138 -0.959301 -1.25041 0
M  V30 3412 C 329.363 -0.633507 -1.97488 0
M  V30 3413 C 329.788 0.788555 -1.70773 0
M  V30 3414 O 329.146 1.53394 -0.966431 0
M  V30 3415 C 329.194 -0.904057 -3.49083 0
M  V30 3416 O 328.298 0.0147939 -4.12397 0
M  V30 3417 H 327.639 -0.240368 -0.618966 0
M  V30 3418 H 330.169 -1.28717 -1.59038 0
M  V30 3419 H 330.179 -0.832203 -3.99423 0
M  V30 3420 H 328.854 -1.94048 -3.67856 0
M  V30 3421 H 327.431 -0.109664 -3.72739 0
M  V30 3422 N 329.616 1.39756 -0.72842 0
M  V30 3423 C 330.841 2.05472 -0.282159 0
M  V30 3424 C 331.266 1.54549 1.07221 0
M  V30 3425 O 330.624 0.686372 1.67805 0
M  V30 3426 C 330.672 3.59462 -0.286264 0
M  V30 3427 O 329.776 4.05918 0.728298 0
M  V30 3428 H 329.117 0.651226 -0.129618 0
M  V30 3429 H 331.647 1.78915 -0.992499 0
M  V30 3430 H 331.657 4.07798 -0.128373 0
M  V30 3431 H 330.332 3.95889 -1.27456 0
M  V30 3432 H 328.909 3.69012 0.537081 0
M  V30 3433 N 331.094 0.475555 1.50254 0
M  V30 3434 C 332.319 -0.0777042 2.07254 0
M  V30 3435 C 332.744 -1.3235 1.3366 0
M  V30 3436 O 332.102 -1.77152 0.385597 0
M  V30 3437 C 332.15 -0.340169 3.58992 0
M  V30 3438 O 331.254 -1.41982 3.87188 0
M  V30 3439 H 330.595 0.0149556 0.663832 0
M  V30 3440 H 333.125 0.667878 1.93392 0
M  V30 3441 H 333.135 -0.579332 4.03866 0
M  V30 3442 H 331.81 0.570167 4.11973 0
M  V30 3443 H 330.387 -1.16762 3.54148 0
M  V30 3444 N 332.573 -1.56217 0.208337 0
M  V30 3445 C 333.503 -2.22694 -0.702116 0
M  V30 3446 C 334.484 -1.19432 -1.2112 0
M  V30 3447 O 335.669 -1.47978 -1.25762 0
M  V30 3448 C 332.799 -2.8966 -1.9161 0
M  V30 3449 C 331.753 -3.9928 -1.5414 0
M  V30 3450 C 331.079 -4.53476 -2.83308 0
M  V30 3451 C 332.379 -5.17012 -0.741339 0
M  V30 3452 H 334.073 -2.99034 -0.147898 0
M  V30 3453 H 331.619 -1.43831 -0.0696951 0
M  V30 3454 H 333.572 -3.34852 -2.55836 0
M  V30 3455 H 332.296 -2.10746 -2.49507 0
M  V30 3456 H 330.955 -3.54799 -0.922668 0
M  V30 3457 H 330.603 -3.71308 -3.39322 0
M  V30 3458 H 330.303 -5.27451 -2.58976 0
M  V30 3459 H 331.827 -5.01378 -3.485 0
M  V30 3460 H 333.241 -5.58667 -1.28699 0
M  V30 3461 H 331.638 -5.97137 -0.595627 0
M  V30 3462 H 332.708 -4.8423 0.254851 0
M  V30 3463 N 334.051 0.0651679 -1.57465 0
M  V30 3464 C 335.297 0.764193 -1.87851 0
M  V30 3465 C 335.63 1.76889 -0.801495 0
M  V30 3466 O 334.905 1.93594 0.187528 0
M  V30 3467 C 335.188 1.46625 -3.28897 0
M  V30 3468 C 335.041 0.477515 -4.47258 0
M  V30 3469 C 336.36 2.4095 -3.68281 0
M  V30 3470 H 333.479 0.276351 -0.683227 0
M  V30 3471 H 336.121 0.0272868 -1.8998 0
M  V30 3472 H 334.271 2.09438 -3.27212 0
M  V30 3473 H 335.943 -0.145922 -4.61069 0
M  V30 3474 H 334.186 -0.206576 -4.33308 0
M  V30 3475 H 334.857 1.0065 -5.42746 0
M  V30 3476 H 337.333 1.88209 -3.71102 0
M  V30 3477 H 336.209 2.87072 -4.67847 0
M  V30 3478 H 336.47 3.26049 -2.98571 0
M  V30 3479 N 335.529 1.53961 0.336706 0
M  V30 3480 C 336.439 1.85432 1.43708 0
M  V30 3481 C 337.455 0.745053 1.57242 0
M  V30 3482 O 338.631 1.03804 1.72588 0
M  V30 3483 C 335.696 2.06349 2.78605 0
M  V30 3484 C 334.757 3.30191 2.74358 0
M  V30 3485 C 333.99 3.50101 4.02822 0
M  V30 3486 O 334.213 2.7371 5.00439 0
M  V30 3487 O 333.147 4.43547 4.06878 0
M  V30 3488 H 336.973 2.78975 1.20028 0
M  V30 3489 H 334.558 1.39701 0.52952 0
M  V30 3490 H 336.44 2.21513 3.58483 0
M  V30 3491 H 335.115 1.15995 3.02203 0
M  V30 3492 H 334.022 3.20425 1.93078 0
M  V30 3493 H 335.355 4.2056 2.55715 0
M  V30 3494 N 337.007 -0.598083 1.45811 0
M  V30 3495 C 338.253 -1.35882 1.50545 0
M  V30 3496 C 338.586 -1.93616 0.150445 0
M  V30 3497 O 337.861 -1.75604 -0.83628 0
M  V30 3498 C 338.144 -2.49966 2.59208 0
M  V30 3499 C 337.997 -1.97367 4.04186 0
M  V30 3500 C 339.316 -3.52068 2.64076 0
M  V30 3501 H 336.435 -0.492717 0.548087 0
M  V30 3502 H 339.077 -0.673319 1.77669 0
M  V30 3503 H 337.227 -3.08443 2.3621 0
M  V30 3504 H 338.899 -1.43466 4.38423 0
M  V30 3505 H 337.142 -1.283 4.14393 0
M  V30 3506 H 337.813 -2.79649 4.75921 0
M  V30 3507 H 340.289 -3.03448 2.84708 0
M  V30 3508 H 339.165 -4.2937 3.41954 0
M  V30 3509 H 339.426 -4.08304 1.69531 0
M  V30 3510 N 338.485 -1.33259 -0.841409 0
M  V30 3511 C 339.901 -1.12538 -1.13169 0
M  V30 3512 C 340.101 0.0854037 -2.01319 0
M  V30 3513 O 339.157 0.766417 -2.40587 0
M  V30 3514 C 340.47 -2.41156 -1.79623 0
M  V30 3515 C 342.018 -2.47038 -1.922 0
M  V30 3516 C 342.493 -3.7561 -2.6207 0
M  V30 3517 N 343.984 -3.76667 -2.69585 0
M  V30 3518 C 344.719 -4.72861 -3.2433 0
M  V30 3519 N 344.215 -5.79428 -3.79783 0
M  V30 3520 N 346.008 -4.6034 -3.22558 0
M  V30 3521 H 338.159 -2.10868 -0.254676 0
M  V30 3522 H 340.422 -0.931615 -0.175493 0
M  V30 3523 H 340.128 -3.29747 -1.22311 0
M  V30 3524 H 340.002 -2.53114 -2.79666 0
M  V30 3525 H 342.389 -1.58898 -2.48667 0
M  V30 3526 H 342.47 -2.39022 -0.911148 0
M  V30 3527 H 342.114 -4.64131 -2.06263 0
M  V30 3528 H 342.044 -3.80902 -3.63622 0
M  V30 3529 H 344.535 -2.99648 -2.30259 0
M  V30 3530 H 344.848 -6.48867 -4.19752 0
M  V30 3531 H 343.193 -5.83166 -3.78078 0
M  V30 3532 H 346.384 -3.76244 -2.78492 0
M  V30 3533 H 346.557 -5.35478 -3.64921 0
M  V30 3534 N 339.963 1.05934 -1.16686 0
M  V30 3535 C 341.211 1.78447 -0.948744 0
M  V30 3536 C 341.532 1.87813 0.524523 0
M  V30 3537 O 340.802 1.38945 1.38098 0
M  V30 3538 H 339.382 0.660971 -0.348033 0
M  V30 3539 H 342.044 1.27947 -1.47022 0
M  V30 3540 H 341.14 2.80394 -1.37061 0
M  V30 3541 N 341.441 0.965919 1.2453 0
M  V30 3542 C 342.373 0.452465 2.2469 0
M  V30 3543 C 343.386 -0.437821 1.56802 0
M  V30 3544 O 344.575 -0.244283 1.76821 0
M  V30 3545 C 341.675 -0.366258 3.36915 0
M  V30 3546 C 340.848 0.513701 4.34373 0
M  V30 3547 C 339.907 -0.248716 5.25612 0
M  V30 3548 O 338.933 0.356745 5.68081 0
M  V30 3549 N 340.135 -1.53877 5.59734 0
M  V30 3550 H 342.9 1.31361 2.69378 0
M  V30 3551 H 340.461 0.837541 1.38553 0
M  V30 3552 H 342.453 -0.884297 3.94921 0
M  V30 3553 H 341.023 -1.12832 2.91526 0
M  V30 3554 H 340.243 1.21273 3.75082 0
M  V30 3555 H 341.531 1.11391 4.96457 0
M  V30 3556 H 340.929 -2.05243 5.27154 0
M  V30 3557 H 339.486 -2.00254 6.20275 0
M  V30 3558 N 342.919 -1.39368 0.735821 0
M  V30 3559 C 344.159 -2.02349 0.288813 0
M  V30 3560 C 344.523 -1.57127 -1.10341 0
M  V30 3561 O 345.724 -2.12312 -1.64854 0
M  V30 3562 C 343.995 -3.55288 0.387986 0
M  V30 3563 S 345.554 -4.38795 0.0209408 0
M  V30 3564 H 342.372 -0.701944 0.113115 0
M  V30 3565 H 344.974 -1.70164 0.962518 0
M  V30 3566 H 343.678 -3.85691 1.40252 0
M  V30 3567 H 343.209 -3.92227 -0.303512 0
M  V30 3568 H 345.224 -4.81595 -1.19503 0
M  V30 3569 N 344.397 -0.483516 -1.5 0
M  V30 3570 C 345.643 0.0672592 -2.02688 0
M  V30 3571 C 345.976 1.38247 -1.36387 0
M  V30 3572 O 345.251 1.88131 -0.493675 0
M  V30 3573 C 345.534 0.238109 -3.59312 0
M  V30 3574 C 345.387 -1.099 -4.36168 0
M  V30 3575 C 346.706 0.986916 -4.28892 0
M  V30 3576 H 343.825 0.0229696 -0.736642 0
M  V30 3577 H 346.467 -0.631527 -1.79197 0
M  V30 3578 H 344.617 0.8333 -3.79458 0
M  V30 3579 H 346.289 -1.73172 -4.27562 0
M  V30 3580 H 344.532 -1.69261 -3.99416 0
M  V30 3581 H 345.203 -0.932954 -5.44059 0
M  V30 3582 H 347.679 0.482302 -4.13295 0
M  V30 3583 H 346.555 1.07527 -5.38265 0
M  V30 3584 H 346.816 2.0265 -3.92919 0
M  V30 3585 N 345.875 1.56104 -0.216619 0
M  V30 3586 C 347.291 1.58995 0.13886 0
M  V30 3587 C 347.491 1.23333 1.59346 0
M  V30 3588 O 346.547 0.966234 2.33281 0
M  V30 3589 C 347.86 3.00143 -0.182968 0
M  V30 3590 C 349.408 3.12751 -0.124807 0
M  V30 3591 C 349.883 4.56068 -0.420241 0
M  V30 3592 N 351.374 4.61723 -0.369634 0
M  V30 3593 C 352.109 5.70542 -0.571789 0
M  V30 3594 N 351.605 6.87744 -0.835453 0
M  V30 3595 N 353.398 5.59831 -0.504563 0
M  V30 3596 H 345.549 1.77562 -1.16557 0
M  V30 3597 H 347.812 0.825091 -0.466828 0
M  V30 3598 H 347.518 3.30871 -1.19237 0
M  V30 3599 H 347.392 3.73813 0.504367 0
M  V30 3600 H 349.779 2.81822 0.875223 0
M  V30 3601 H 349.86 2.41421 -0.845544 0
M  V30 3602 H 349.504 4.87713 -1.41769 0
M  V30 3603 H 349.434 5.25617 0.321631 0
M  V30 3604 H 351.925 3.77502 -0.173338 0
M  V30 3605 H 352.238 7.66587 -0.977938 0
M  V30 3606 H 350.583 6.895 -0.872592 0
M  V30 3607 H 353.774 4.67145 -0.298842 0
M  V30 3608 H 353.947 6.44573 -0.665519 0
M  V30 3609 N 347.353 -0.0568162 1.57498 0
M  V30 3610 C 348.303 -1.07315 2.01166 0
M  V30 3611 C 349.287 -1.33632 0.896171 0
M  V30 3612 O 350.479 -1.33682 1.16009 0
M  V30 3613 C 347.608 -2.38257 2.47161 0
M  V30 3614 C 346.694 -2.1515 3.65474 0
M  V30 3615 N 347.085 -1.62014 4.7915 0
M  V30 3616 C 345.383 -2.45559 3.72313 0
M  V30 3617 C 346.084 -1.54069 5.60926 0
M  V30 3618 N 345.06 -2.00652 5.05213 0
M  V30 3619 H 348.862 -0.655878 2.86488 0
M  V30 3620 H 346.376 -0.263635 1.60246 0
M  V30 3621 H 348.373 -3.11845 2.76691 0
M  V30 3622 H 347.033 -2.80687 1.63232 0
M  V30 3623 H 348.044 -1.30667 5.01145 0
M  V30 3624 H 344.721 -2.91253 2.99129 0
M  V30 3625 H 346.111 -1.13712 6.62208 0
M  V30 3626 N 348.832 -1.54138 -0.328536 0
M  V30 3627 C 350.057 -1.76378 -1.09112 0
M  V30 3628 C 350.482 -0.508596 -1.81094 0
M  V30 3629 O 349.84 0.539598 -1.73084 0
M  V30 3630 C 349.888 -2.95358 -2.06872 0
M  V30 3631 O 348.992 -2.66556 -3.14677 0
M  V30 3632 H 348.333 -0.584614 -0.314838 0
M  V30 3633 H 350.863 -2.01146 -0.374348 0
M  V30 3634 H 350.873 -3.22566 -2.4983 0
M  V30 3635 H 349.548 -3.86385 -1.5388 0
M  V30 3636 H 348.125 -2.50282 -2.7643 0
M  V30 3637 N 350.31 0.590341 -1.46126 0
M  V30 3638 C 351.22 1.72793 -1.58681 0
M  V30 3639 C 352.236 1.67516 -0.470566 0
M  V30 3640 O 353.412 1.87562 -0.733642 0
M  V30 3641 C 350.477 3.09287 -1.5666 0
M  V30 3642 C 349.538 3.25886 -2.79458 0
M  V30 3643 C 348.771 4.55869 -2.77524 0
M  V30 3644 O 348.994 5.3928 -1.85832 0
M  V30 3645 O 347.928 4.75552 -3.68964 0
M  V30 3646 H 351.754 1.65149 -2.54872 0
M  V30 3647 H 349.339 0.756486 -1.28832 0
M  V30 3648 H 351.221 3.90577 -1.58202 0
M  V30 3649 H 349.896 3.17385 -0.636271 0
M  V30 3650 H 348.803 2.44119 -2.83472 0
M  V30 3651 H 350.136 3.22675 -3.71674 0
M  V30 3652 N 351.788 1.33704 0.83433 0
M  V30 3653 C 352.698 1.26382 1.97648 0
M  V30 3654 C 353.714 0.173548 1.73132 0
M  V30 3655 O 354.89 0.397962 1.97429 0
M  V30 3656 C 351.955 1.00769 3.31733 0
M  V30 3657 C 351.016 2.1884 3.69334 0
M  V30 3658 C 350.249 1.9444 4.9702 0
M  V30 3659 O 350.472 0.896961 5.63303 0
M  V30 3660 O 349.406 2.81093 5.32231 0
M  V30 3661 H 353.232 2.22444 2.06767 0
M  V30 3662 H 350.817 1.13795 0.968037 0
M  V30 3663 H 352.699 0.882186 4.12062 0
M  V30 3664 H 351.374 0.0773783 3.23608 0
M  V30 3665 H 350.281 2.36946 2.89495 0
M  V30 3666 H 351.614 3.10221 3.82131 0
M  V30 3667 N 353.266 -1.05314 1.17247 0
M  V30 3668 C 354.682 -1.30452 0.919473 0
M  V30 3669 C 354.882 -1.9703 -0.42209 0
M  V30 3670 O 353.938 -2.24311 -1.15935 0
M  V30 3671 C 355.251 -2.17551 2.07586 0
M  V30 3672 C 356.799 -2.30937 2.11275 0
M  V30 3673 C 357.274 -3.21396 3.26296 0
M  V30 3674 N 358.765 -3.28981 3.26076 0
M  V30 3675 C 359.5 -3.99095 4.11716 0
M  V30 3676 N 358.996 -4.71648 5.07465 0
M  V30 3677 N 360.789 -3.95247 3.9967 0
M  V30 3678 H 352.94 -0.604988 2.03602 0
M  V30 3679 H 355.203 -0.329368 0.888944 0
M  V30 3680 H 354.909 -1.75921 3.0454 0
M  V30 3681 H 354.783 -3.18182 2.02584 0
M  V30 3682 H 357.17 -2.71809 1.14907 0
M  V30 3683 H 357.251 -1.2994 2.20339 0
M  V30 3684 H 356.895 -2.81238 4.22927 0
M  V30 3685 H 356.825 -4.22395 3.14467 0
M  V30 3686 H 359.316 -2.77286 2.5675 0
M  V30 3687 H 359.629 -5.22705 5.6921 0
M  V30 3688 H 357.974 -4.70594 5.11435 0
M  V30 3689 H 361.165 -3.37691 3.24164 0
M  V30 3690 H 361.338 -4.4962 4.66632 0
M  V30 3691 N 354.744 -0.972509 -1.24016 0
M  V30 3692 C 356.021 -0.553733 -1.87598 0
M  V30 3693 C 356.401 0.969158 -1.87538 0
M  V30 3694 O 355.749 1.84255 -1.35139 0
M  V30 3695 C 355.959 -1.15076 -3.29482 0
M  V30 3696 C 357.307 -1.23862 -4.06132 0
M  V30 3697 O 358.331 -1.10363 -3.38672 0
M  V30 3698 O 357.19 -1.45252 -5.26844 0
M  V30 3699 H 354.284 -0.185331 -0.805966 0
M  V30 3700 H 356.83 -1.06709 -1.31952 0
M  V30 3701 H 355.602 -2.19333 -3.2405 0
M  V30 3702 H 355.225 -0.621746 -3.92709 0
M  V30 3703 N 356.222 1.38976 -0.743202 0
M  V30 3704 C 357.45 2.04636 -0.30525 0
M  V30 3705 C 357.865 1.56044 1.06281 0
M  V30 3706 O 357.222 0.728921 1.67311 0
M  V30 3707 C 357.273 3.60193 -0.307177 0
M  V30 3708 O 356.994 4.06998 -1.62124 0
M  V30 3709 C 358.495 4.4306 0.145928 0
M  V30 3710 H 355.715 0.65788 -0.132041 0
M  V30 3711 H 358.259 1.77866 -1.00915 0
M  V30 3712 H 356.414 3.85835 0.347898 0
M  V30 3713 H 356.828 5.01371 -1.54036 0
M  V30 3714 H 358.302 5.51921 0.0934183 0
M  V30 3715 H 358.779 4.22706 1.19231 0
M  V30 3716 H 359.385 4.22584 -0.479886 0
M  V30 3717 N 357.7 0.491464 1.49741 0
M  V30 3718 C 359.111 0.0413169 1.86654 0
M  V30 3719 C 359.462 -1.36985 1.40462 0
M  V30 3720 O 358.587 -2.01917 0.778354 0
M  V30 3721 C 359.182 0.0682023 3.38731 0
M  V30 3722 C 357.741 -0.32656 3.74981 0
M  V30 3723 C 356.888 0.444888 2.73708 0
M  V30 3724 H 359.839 0.704733 1.42194 0
M  V30 3725 H 359.86 -0.729322 3.73445 0
M  V30 3726 H 359.372 1.09539 3.72321 0
M  V30 3727 H 357.473 -1.35734 3.46997 0
M  V30 3728 H 357.586 -0.013741 4.79098 0
M  V30 3729 H 355.95 -0.104062 2.54487 0
M  V30 3730 H 356.733 1.47197 3.10142 0
M  V30 3731 N 359.178 -1.55987 0.224894 0
M  V30 3732 C 360.125 -2.20436 -0.68385 0
M  V30 3733 C 361.095 -1.16102 -1.18783 0
M  V30 3734 O 362.28 -1.4447 -1.24632 0
M  V30 3735 C 359.42 -2.89076 -1.88491 0
M  V30 3736 C 358.533 -4.08012 -1.41951 0
M  V30 3737 C 357.668 -4.64426 -2.5784 0
M  V30 3738 C 356.707 -5.75656 -2.08053 0
M  V30 3739 N 355.844 -6.26347 -3.17227 0
M  V30 3740 H 360.684 -2.97727 -0.12754 0
M  V30 3741 H 358.221 -1.47011 -0.0511978 0
M  V30 3742 H 360.179 -3.27059 -2.59014 0
M  V30 3743 H 358.809 -2.14298 -2.41405 0
M  V30 3744 H 357.861 -3.75492 -0.609095 0
M  V30 3745 H 359.173 -4.88375 -1.01447 0
M  V30 3746 H 358.327 -5.04869 -3.3644 0
M  V30 3747 H 357.066 -3.83233 -3.01635 0
M  V30 3748 H 356.071 -5.34712 -1.27916 0
M  V30 3749 H 357.296 -6.58686 -1.65255 0
M  V30 3750 H 355.242 -5.48067 -3.60497 0
M  V30 3751 H 355.159 -7.01843 -2.80986 0
M  V30 3752 H 356.427 -6.71447 -3.95953 0
M  V30 3753 N 360.656 0.0484629 -1.57525 0
M  V30 3754 C 361.589 1.08755 -2.00618 0
M  V30 3755 C 362.567 1.36272 -0.887058 0
M  V30 3756 O 363.751 1.49255 -1.15131 0
M  V30 3757 C 360.878 2.42675 -2.36277 0
M  V30 3758 C 359.924 2.31142 -3.58435 0
M  V30 3759 S 360.757 1.68326 -5.08357 0
M  V30 3760 C 361.913 3.03776 -5.47239 0
M  V30 3761 H 362.146 0.720415 -2.88439 0
M  V30 3762 H 359.679 0.257801 -1.52233 0
M  V30 3763 H 361.637 3.19699 -2.57494 0
M  V30 3764 H 360.298 2.76541 -1.48942 0
M  V30 3765 H 359.491 3.29957 -3.80978 0
M  V30 3766 H 359.093 1.62258 -3.36969 0
M  V30 3767 H 361.385 4.00106 -5.46737 0
M  V30 3768 H 362.328 2.85988 -6.47778 0
M  V30 3769 H 362.736 3.05456 -4.74718 0
M  V30 3770 N 362.134 1.5431 0.320358 0
M  V30 3771 C 363.364 1.7638 1.07582 0
M  V30 3772 C 363.772 0.513944 1.82086 0
M  V30 3773 O 363.115 -0.525123 1.76035 0
M  V30 3774 C 363.177 2.9055 2.1171 0
M  V30 3775 C 362.841 4.2934 1.56575 0
M  V30 3776 C 363.838 5.10077 1.00586 0
M  V30 3777 C 361.523 4.75893 1.60722 0
M  V30 3778 C 363.517 6.35477 0.494756 0
M  V30 3779 C 361.204 6.0126 1.09224 0
M  V30 3780 C 362.202 6.80886 0.53696 0
M  V30 3781 O 361.89 8.03894 0.0297371 0
M  V30 3782 H 361.622 0.592369 0.325692 0
M  V30 3783 H 364.176 2.02019 0.37116 0
M  V30 3784 H 362.406 2.60489 2.85801 0
M  V30 3785 H 364.095 3.00373 2.73003 0
M  V30 3786 H 364.861 4.75265 0.966869 0
M  V30 3787 H 360.74 4.13957 2.02882 0
M  V30 3788 H 364.284 6.97574 0.0606842 0
M  V30 3789 H 360.181 6.35562 1.12831 0
M  V30 3790 H 360.949 8.18372 0.14486 0
M  V30 3791 N 363.613 -0.582584 1.46437 0
M  V30 3792 C 364.853 -1.35184 1.53312 0
M  V30 3793 C 365.217 -1.9115 0.180508 0
M  V30 3794 O 366.418 -2.68514 0.124017 0
M  V30 3795 C 364.689 -2.45089 2.60127 0
M  V30 3796 S 366.248 -3.32439 2.86408 0
M  V30 3797 H 363.066 -0.460559 0.54167 0
M  V30 3798 H 365.668 -0.669709 1.83671 0
M  V30 3799 H 364.372 -2.02366 3.57038 0
M  V30 3800 H 363.903 -3.18074 2.315 0
M  V30 3801 H 365.918 -4.43924 2.21688 0
M  V30 3802 N 365.091 -1.34144 -0.827227 0
M  V30 3803 C 366.316 -1.29476 -1.62021 0
M  V30 3804 C 366.741 0.129292 -1.87655 0
M  V30 3805 O 366.099 1.08967 -1.449 0
M  V30 3806 C 366.147 -2.08702 -2.94068 0
M  V30 3807 O 365.251 -1.45359 -3.85933 0
M  V30 3808 H 364.592 -0.444881 -0.492927 0
M  V30 3809 H 367.122 -1.76882 -1.02829 0
M  V30 3810 H 367.132 -2.19898 -3.43669 0
M  V30 3811 H 365.807 -3.12241 -2.74734 0
M  V30 3812 H 364.384 -1.42879 -3.44442 0
M  V30 3813 N 366.569 1.04691 -1.17803 0
M  V30 3814 C 367.532 2.10724 -0.901545 0
M  V30 3815 C 368.532 1.6042 0.110437 0
M  V30 3816 O 369.722 1.7377 -0.122303 0
M  V30 3817 C 366.854 3.39084 -0.351409 0
M  V30 3818 H 368.047 2.36686 -1.84174 0
M  V30 3819 H 365.6 1.21015 -0.98919 0
M  V30 3820 H 366.335 3.18782 0.59569 0
M  V30 3821 H 366.12 3.76909 -1.08083 0
M  V30 3822 H 367.61 4.17227 -0.176451 0
M  V30 3823 N 368.047 0.979072 1.23499 0
M  V30 3824 C 368.957 0.526431 2.28617 0
M  V30 3825 C 369.973 -0.418126 1.68901 0
M  V30 3826 O 371.149 -0.288372 1.99325 0
M  V30 3827 C 368.214 -0.165235 3.46306 0
M  V30 3828 C 367.275 0.82056 4.21385 0
M  V30 3829 C 366.508 0.161807 5.33455 0
M  V30 3830 O 366.731 -1.04742 5.60701 0
M  V30 3831 O 365.665 0.859708 5.95729 0
M  V30 3832 H 369.491 1.4006 2.69475 0
M  V30 3833 H 367.076 0.746643 1.29405 0
M  V30 3834 H 368.958 -0.553287 4.17752 0
M  V30 3835 H 367.633 -1.01419 3.07402 0
M  V30 3836 H 366.54 1.25929 3.52268 0
M  V30 3837 H 367.873 1.63828 4.64135 0
M  V30 3838 N 369.525 -1.3858 0.750561 0
M  V30 3839 C 370.773 -1.99789 0.30477 0
M  V30 3840 C 371.094 -1.59874 -1.11649 0
M  V30 3841 O 370.364 -0.85417 -1.76297 0
M  V30 3842 H 368.944 -0.738902 0.109694 0
M  V30 3843 H 371.606 -1.69391 0.963983 0
M  V30 3844 H 370.702 -3.09952 0.365499 0
M  V30 3845 N 371.003 -0.499398 -1.49478 0
M  V30 3846 C 371.913 0.284489 -2.32869 0
M  V30 3847 C 372.929 0.968885 -1.44529 0
M  V30 3848 O 374.105 0.95062 -1.77553 0
M  V30 3849 C 371.17 1.33594 -3.19928 0
M  V30 3850 C 370.231 0.665149 -4.24116 0
M  V30 3851 C 369.464 1.6665 -5.07014 0
M  V30 3852 O 369.687 2.89618 -4.91404 0
M  V30 3853 O 368.621 1.22271 -5.8935 0
M  V30 3854 H 372.447 -0.39802 -3.01081 0
M  V30 3855 H 370.032 -0.260758 -1.47107 0
M  V30 3856 H 371.914 1.94431 -3.73864 0
M  V30 3857 H 370.589 2.0014 -2.54412 0
M  V30 3858 H 369.496 0.0170769 -3.74096 0
M  V30 3859 H 370.829 0.0421555 -4.92182 0
M  V30 3860 N 372.481 1.55866 -0.233164 0
M  V30 3861 C 373.727 1.99643 0.389148 0
M  V30 3862 C 374.082 1.11836 1.56558 0
M  V30 3863 O 373.375 0.170848 1.90837 0
M  V30 3864 C 373.569 3.46856 0.861724 0
M  V30 3865 C 373.398 4.48904 -0.267376 0
M  V30 3866 C 372.168 4.99888 -0.737577 0
M  V30 3867 C 374.366 5.02624 -1.08966 0
M  V30 3868 N 372.348 5.8566 -1.84052 0
M  V30 3869 C 373.719 5.85434 -2.04125 0
M  V30 3870 C 375.774 4.84959 -1.12779 0
M  V30 3871 C 374.477 6.52466 -3.02789 0
M  V30 3872 C 376.503 5.52759 -2.10266 0
M  V30 3873 C 375.865 6.35346 -3.04162 0
M  V30 3874 H 371.964 0.774402 0.108742 0
M  V30 3875 H 374.548 1.91572 -0.347596 0
M  V30 3876 H 372.719 3.55352 1.5678 0
M  V30 3877 H 374.451 3.77531 1.45783 0
M  V30 3878 H 371.206 4.7249 -0.324122 0
M  V30 3879 H 371.63 6.33246 -2.39434 0
M  V30 3880 H 376.272 4.20751 -0.415749 0
M  V30 3881 H 373.99 7.15849 -3.74948 0
M  V30 3882 H 377.576 5.41051 -2.13905 0
M  V30 3883 H 376.456 6.86883 -3.78366 0
M  V30 3884 N 373.959 -0.0401083 1.57549 0
M  V30 3885 C 374.889 -1.04384 2.08869 0
M  V30 3886 C 375.87 -1.38407 0.988817 0
M  V30 3887 O 377.055 -1.47483 1.26342 0
M  V30 3888 C 374.185 -2.34808 2.55895 0
M  V30 3889 C 373.139 -2.15057 3.70047 0
M  V30 3890 C 372.465 -3.51145 4.03239 0
M  V30 3891 C 373.765 -1.54576 4.98902 0
M  V30 3892 H 375.459 -0.616666 2.92981 0
M  V30 3893 H 373.005 -0.295184 1.40942 0
M  V30 3894 H 374.958 -3.05346 2.90417 0
M  V30 3895 H 373.682 -2.79565 1.68853 0
M  V30 3896 H 372.341 -1.46954 3.35857 0
M  V30 3897 H 371.989 -3.93529 3.13279 0
M  V30 3898 H 371.689 -3.38758 4.80122 0
M  V30 3899 H 373.213 -4.23062 4.40285 0
M  V30 3900 H 374.627 -2.15017 5.31451 0
M  V30 3901 H 373.024 -1.52796 5.80322 0
M  V30 3902 H 374.094 -0.51039 4.82206 0
M  V30 3903 N 375.437 -1.54477 -0.31217 0
M  V30 3904 C 376.683 -1.73483 -1.0503 0
M  V30 3905 C 377.016 -0.513125 -1.87298 0
M  V30 3906 O 376.291 0.489864 -1.8823 0
M  V30 3907 C 376.574 -3.01723 -1.96558 0
M  V30 3908 C 376.427 -4.3417 -1.17545 0
M  V30 3909 C 377.746 -3.25772 -2.95907 0
M  V30 3910 H 374.865 -0.631222 -0.380432 0
M  V30 3911 H 377.507 -1.87184 -0.325932 0
M  V30 3912 H 375.657 -2.90174 -2.58324 0
M  V30 3913 H 377.329 -4.5762 -0.581513 0
M  V30 3914 H 375.572 -4.31159 -0.477925 0
M  V30 3915 H 376.243 -5.20143 -1.84811 0
M  V30 3916 H 378.719 -3.36857 -2.44267 0
M  V30 3917 H 377.595 -4.16838 -3.57123 0
M  V30 3918 H 377.856 -2.43537 -3.68974 0
M  V30 3919 N 376.915 0.57481 -1.46744 0
M  V30 3920 C 378.326 1.15695 -1.46532 0
M  V30 3921 C 378.677 1.95068 -0.210425 0
M  V30 3922 O 377.802 2.05241 0.685944 0
M  V30 3923 C 378.397 2.1048 -2.65487 0
M  V30 3924 C 376.956 2.64002 -2.68291 0
M  V30 3925 C 376.103 1.40026 -2.39349 0
M  V30 3926 H 379.054 0.362325 -1.54509 0
M  V30 3927 H 379.075 2.94074 -2.41455 0
M  V30 3928 H 378.587 1.52683 -3.56805 0
M  V30 3929 H 376.688 3.25646 -1.81067 0
M  V30 3930 H 376.801 3.06197 -3.68483 0
M  V30 3931 H 375.165 1.70106 -1.89568 0
M  V30 3932 H 375.948 0.840485 -3.32852 0
M  V30 3933 N 378.394 1.34581 0.820102 0
M  V30 3934 C 379.643 1.26437 1.57151 0
M  V30 3935 C 379.956 -0.163111 1.94919 0
M  V30 3936 O 381.162 -0.366722 2.69012 0
M  V30 3937 C 379.618 2.21658 2.83541 0
M  V30 3938 C 379.226 3.69679 2.53065 0
M  V30 3939 C 380.97 2.22428 3.61561 0
M  V30 3940 C 378.877 4.56761 3.75664 0
M  V30 3941 H 377.807 0.469707 0.589823 0
M  V30 3942 H 380.458 1.59763 0.902656 0
M  V30 3943 H 378.84 1.81287 3.52067 0
M  V30 3944 H 380.014 4.18605 1.92631 0
M  V30 3945 H 378.329 3.71384 1.88316 0
M  V30 3946 H 380.926 2.8471 4.52597 0
M  V30 3947 H 381.269 1.22434 3.97889 0
M  V30 3948 H 381.802 2.61259 2.99981 0
M  V30 3949 H 378.541 5.57702 3.44454 0
M  V30 3950 H 378.061 4.12568 4.35371 0
M  V30 3951 H 379.74 4.71509 4.43044 0
M  V30 3952 N 379.872 -1.04064 1.18357 0
M  V30 3953 C 381.12 -1.76915 0.977013 0
M  V30 3954 C 381.441 -1.88624 -0.494577 0
M  V30 3955 O 380.711 -1.41125 -1.3587 0
M  V30 3956 H 379.291 -0.65535 0.358504 0
M  V30 3957 H 381.953 -1.25592 1.49039 0
M  V30 3958 H 381.049 -2.78178 1.41504 0
M  V30 3959 N 381.35 -0.985608 -1.22978 0
M  V30 3960 C 382.297 -0.529825 -2.24636 0
M  V30 3961 C 383.267 0.434028 -1.60329 0
M  V30 3962 O 384.452 0.340414 -1.87739 0
M  V30 3963 C 381.592 0.156533 -3.44745 0
M  V30 3964 C 380.705 -0.848197 -4.23591 0
M  V30 3965 C 379.84 -0.136109 -5.31026 0
M  V30 3966 C 378.879 -1.1297 -6.01585 0
M  V30 3967 N 378.016 -0.446415 -7.00679 0
M  V30 3968 H 382.856 -1.40148 -2.62988 0
M  V30 3969 H 380.393 -0.702168 -1.29259 0
M  V30 3970 H 382.351 0.571324 -4.1327 0
M  V30 3971 H 380.981 0.992025 -3.07179 0
M  V30 3972 H 380.033 -1.38135 -3.54433 0
M  V30 3973 H 381.345 -1.60512 -4.72268 0
M  V30 3974 H 380.499 0.335784 -6.0577 0
M  V30 3975 H 379.238 0.653373 -4.83304 0
M  V30 3976 H 378.243 -1.6123 -5.25628 0
M  V30 3977 H 379.468 -1.91993 -6.51395 0
M  V30 3978 H 377.414 0.323763 -6.55201 0
M  V30 3979 H 377.331 -1.1419 -7.47326 0
M  V30 3980 H 378.599 0.00291697 -7.795 0
M  V30 3981 N 382.828 1.3818 -0.7579 0
M  V30 3982 C 384.068 2.01864 -0.320968 0
M  V30 3983 C 384.432 1.58863 1.07827 0
M  V30 3984 O 385.633 2.14908 1.61456 0
M  V30 3985 C 383.904 3.54626 -0.44446 0
M  V30 3986 S 385.463 4.38706 -0.0907467 0
M  V30 3987 H 382.281 0.700056 -0.124268 0
M  V30 3988 H 384.883 1.68611 -0.989468 0
M  V30 3989 H 383.587 3.83411 -1.4637 0
M  V30 3990 H 383.118 3.92661 0.241073 0
M  V30 3991 H 385.133 4.83435 1.11826 0
M  V30 3992 N 384.306 0.507319 1.49211 0
M  V30 3993 C 385.552 -0.0350047 2.0277 0
M  V30 3994 C 385.885 -1.3606 1.38569 0
M  V30 3995 O 385.16 -1.87321 0.523542 0
M  V30 3996 C 385.443 -0.180916 3.59645 0
M  V30 3997 C 385.296 1.16825 4.34364 0
M  V30 3998 C 386.615 -0.918558 4.30407 0
M  V30 3999 H 383.734 -0.0112473 0.736914 0
M  V30 4000 H 386.376 0.659956 1.7817 0
M  V30 4001 H 384.526 -0.772826 3.80736 0
M  V30 4002 H 386.198 1.79952 4.24753 0
M  V30 4003 H 384.441 1.75594 3.96673 0
M  V30 4004 H 385.112 1.01939 5.42506 0
M  V30 4005 H 387.588 -0.41649 4.1401 0
M  V30 4006 H 386.464 -0.989505 5.39907 0
M  V30 4007 H 386.725 -1.96373 3.96093 0
M  V30 4008 N 385.784 -1.5574 0.241426 0
M  V30 4009 C 387.024 -2.00714 -0.38644 0
M  V30 4010 C 387.388 -1.12586 -1.55526 0
M  V30 4011 O 388.589 -1.46992 -2.25048 0
M  V30 4012 C 386.86 -3.48534 -0.791128 0
M  V30 4013 S 388.419 -4.15519 -1.41029 0
M  V30 4014 H 385.237 -0.700484 -0.121834 0
M  V30 4015 H 387.839 -1.92243 0.355377 0
M  V30 4016 H 386.543 -4.10342 0.0689225 0
M  V30 4017 H 386.074 -3.6092 -1.56526 0
M  V30 4018 H 388.089 -4.16352 -2.69936 0
M  V30 4019 N 387.262 0.0317525 -1.57568 0
M  V30 4020 C 388.487 0.738664 -1.938 0
M  V30 4021 C 388.912 1.68242 -0.841208 0
M  V30 4022 O 388.27 1.80157 0.203267 0
M  V30 4023 C 388.318 1.47417 -3.29091 0
M  V30 4024 O 387.422 2.5872 -3.2115 0
M  V30 4025 H 386.763 0.198856 -0.633524 0
M  V30 4026 H 389.293 -0.0119713 -2.04596 0
M  V30 4027 H 389.303 1.84468 -3.63917 0
M  V30 4028 H 387.978 0.781988 -4.08482 0
M  V30 4029 H 386.555 2.24231 -2.97951 0
M  V30 4030 N 388.74 1.54641 0.303973 0
M  V30 4031 C 389.703 1.84646 1.35789 0
M  V30 4032 C 390.703 0.7192 1.4382 0
M  V30 4033 O 391.893 0.987491 1.43507 0
M  V30 4034 C 389.025 2.02407 2.74307 0
M  V30 4035 H 390.218 2.78829 1.10429 0
M  V30 4036 H 387.771 1.46658 0.540487 0
M  V30 4037 H 388.506 1.10502 3.04893 0
M  V30 4038 H 388.291 2.84453 2.69868 0
M  V30 4039 H 389.781 2.27002 3.50514 0
M  V30 4040 N 390.218 -0.567019 1.47046 0
M  V30 4041 C 391.466 -1.322 1.52864 0
M  V30 4042 C 391.787 -1.94088 0.188388 0
M  V30 4043 O 391.057 -1.7941 -0.786693 0
M  V30 4044 H 389.637 -0.490894 0.563056 0
M  V30 4045 H 392.299 -0.662879 1.83281 0
M  V30 4046 H 391.395 -2.12062 2.2899 0
M  V30 4047 N 391.696 -1.35014 -0.812953 0
M  V30 4048 C 392.926 -1.30841 -1.59888 0
M  V30 4049 C 393.334 0.117576 -1.88834 0
M  V30 4050 O 392.677 1.07807 -1.48739 0
M  V30 4051 C 392.739 -2.0412 -2.95931 0
M  V30 4052 C 392.403 -3.53336 -2.89832 0
M  V30 4053 C 393.4 -4.48052 -2.63714 0
M  V30 4054 C 391.085 -3.95894 -3.0915 0
M  V30 4055 C 393.079 -5.833 -2.56982 0
M  V30 4056 C 390.766 -5.31239 -3.0204 0
M  V30 4057 C 391.764 -6.24754 -2.75991 0
M  V30 4058 O 391.452 -7.57617 -2.68833 0
M  V30 4059 H 391.184 -0.451215 -0.50337 0
M  V30 4060 H 393.738 -1.78354 -1.01877 0
M  V30 4061 H 391.968 -1.51235 -3.559 0
M  V30 4062 H 393.657 -1.93107 -3.57022 0
M  V30 4063 H 394.423 -4.16492 -2.48515 0
M  V30 4064 H 390.302 -3.23495 -3.28438 0
M  V30 4065 H 393.846 -6.56263 -2.36569 0
M  V30 4066 H 389.743 -5.62415 -3.16796 0
M  V30 4067 H 390.511 -7.67469 -2.84487 0
M  V30 4068 N 393.175 1.03435 -1.18907 0
M  V30 4069 C 394.085 2.15075 -0.937015 0
M  V30 4070 C 395.101 1.73706 0.101085 0
M  V30 4071 O 396.277 2.01232 -0.0822948 0
M  V30 4072 C 393.342 3.43458 -0.473057 0
M  V30 4073 C 392.403 3.99172 -1.57989 0
M  V30 4074 C 391.636 5.21427 -1.13797 0
M  V30 4075 O 391.859 5.704 0.000725941 0
M  V30 4076 O 390.793 5.69837 -1.9383 0
M  V30 4077 H 394.619 2.39198 -1.87131 0
M  V30 4078 H 392.204 1.13506 -0.971427 0
M  V30 4079 H 394.086 4.20811 -0.222702 0
M  V30 4080 H 392.761 3.20793 0.432869 0
M  V30 4081 H 391.668 3.23178 -1.88433 0
M  V30 4082 H 393.001 4.2619 -2.46217 0
M  V30 4083 N 394.653 0.992116 1.22453 0
M  V30 4084 C 395.563 0.55065 2.28046 0
M  V30 4085 C 396.579 -0.400189 1.69335 0
M  V30 4086 O 397.755 -0.267215 1.99619 0
M  V30 4087 C 394.82 -0.128496 3.46462 0
M  V30 4088 C 393.881 0.865208 4.20491 0
M  V30 4089 C 393.114 0.218377 5.33253 0
M  V30 4090 O 393.337 -0.987894 5.6178 0
M  V30 4091 O 392.271 0.922845 5.94783 0
M  V30 4092 H 396.097 1.4291 2.67975 0
M  V30 4093 H 393.682 0.760326 1.28606 0
M  V30 4094 H 395.564 -0.508947 4.18315 0
M  V30 4095 H 394.239 -0.981526 3.0846 0
M  V30 4096 H 393.146 1.29658 3.50913 0
M  V30 4097 H 394.479 1.68741 4.62371 0
M  V30 4098 N 396.131 -1.37776 0.765217 0
M  V30 4099 C 397.547 -1.53297 0.444108 0
M  V30 4100 C 397.747 -1.72515 -1.04119 0
M  V30 4101 O 396.803 -1.74278 -1.82711 0
M  V30 4102 C 398.116 -2.73328 1.25349 0
M  V30 4103 C 399.664 -2.87185 1.24473 0
M  V30 4104 C 400.139 -4.10191 2.03733 0
M  V30 4105 N 401.63 -4.17291 2.01053 0
M  V30 4106 C 402.365 -5.11488 2.59166 0
M  V30 4107 N 401.861 -6.11285 3.26041 0
M  V30 4108 N 403.654 -5.03924 2.49032 0
M  V30 4109 H 395.805 -1.23552 1.72768 0
M  V30 4110 H 398.068 -0.601103 0.733062 0
M  V30 4111 H 397.774 -2.6557 2.30577 0
M  V30 4112 H 397.648 -3.66834 0.87823 0
M  V30 4113 H 400.035 -2.94418 0.20047 0
M  V30 4114 H 400.116 -1.94657 1.65959 0
M  V30 4115 H 399.76 -4.0372 3.08176 0
M  V30 4116 H 399.69 -5.01821 1.59633 0
M  V30 4117 H 402.181 -3.45825 1.5236 0
M  V30 4118 H 402.494 -6.79678 3.67774 0
M  V30 4119 H 400.839 -6.11583 3.30138 0
M  V30 4120 H 404.03 -4.24902 1.96407 0
M  V30 4121 H 404.203 -5.77152 2.94617 0
M  V30 4122 N 397.609 -0.515225 -1.4894 0
M  V30 4123 C 399.025 -0.172099 -1.58669 0
M  V30 4124 C 399.225 1.32405 -1.51892 0
M  V30 4125 O 398.281 2.10116 -1.40027 0
M  V30 4126 C 399.594 -0.761533 -2.90897 0
M  V30 4127 C 401.142 -0.728926 -3.04394 0
M  V30 4128 C 401.617 -1.29667 -4.39261 0
M  V30 4129 N 403.108 -1.25799 -4.4579 0
M  V30 4130 C 403.843 -1.66733 -5.48623 0
M  V30 4131 N 403.339 -2.15327 -6.58488 0
M  V30 4132 N 405.132 -1.58061 -5.39419 0
M  V30 4133 H 397.283 -1.48778 -1.51588 0
M  V30 4134 H 399.546 -0.617968 -0.718901 0
M  V30 4135 H 399.252 -1.81136 -3.01468 0
M  V30 4136 H 399.126 -0.230106 -3.76497 0
M  V30 4137 H 401.513 0.312098 -2.93445 0
M  V30 4138 H 401.594 -1.29766 -2.20442 0
M  V30 4139 H 401.238 -2.33655 -4.50963 0
M  V30 4140 H 401.168 -0.703752 -5.21876 0
M  V30 4141 H 403.659 -0.902102 -3.66975 0
M  V30 4142 H 403.972 -2.44594 -7.33071 0
M  V30 4143 H 402.317 -2.19311 -6.59491 0
M  V30 4144 H 405.508 -1.19906 -4.52482 0
M  V30 4145 H 405.681 -1.90284 -6.19432 0
M  V30 4146 N 399.087 1.5561 -0.249682 0
M  V30 4147 C 400.364 1.90932 0.424761 0
M  V30 4148 C 400.744 1.17078 1.75658 0
M  V30 4149 O 400.092 0.289176 2.26663 0
M  V30 4150 C 400.302 3.43975 0.590109 0
M  V30 4151 C 401.65 4.15281 0.884714 0
M  V30 4152 O 402.674 3.49729 0.67587 0
M  V30 4153 O 401.533 5.31236 1.28259 0
M  V30 4154 H 398.627 0.794815 0.228468 0
M  V30 4155 H 401.173 1.67135 -0.293954 0
M  V30 4156 H 399.945 3.89748 -0.34818 0
M  V30 4157 H 399.568 3.73644 1.35926 0
M  V30 4158 N 400.565 -0.0233959 1.57583 0
M  V30 4159 C 401.528 -1.00693 2.05897 0
M  V30 4160 C 402.528 -1.28693 0.964092 0
M  V30 4161 O 403.718 -1.23602 1.22753 0
M  V30 4162 C 400.85 -2.33825 2.4807 0
M  V30 4163 H 402.043 -0.589476 2.9405 0
M  V30 4164 H 399.596 -0.270354 1.53944 0
M  V30 4165 H 400.331 -2.80307 1.6309 0
M  V30 4166 H 400.116 -2.1483 3.2801 0
M  V30 4167 H 401.606 -3.04426 2.85857 0
M  V30 4168 N 402.043 -1.548 -0.295768 0
M  V30 4169 C 403.283 -1.76069 -1.03823 0
M  V30 4170 C 403.647 -0.537992 -1.84309 0
M  V30 4171 O 404.848 -0.628514 -2.61349 0
M  V30 4172 C 403.119 -3.01705 -1.91596 0
M  V30 4173 S 404.678 -3.43998 -2.72416 0
M  V30 4174 H 401.496 -0.618852 -0.350062 0
M  V30 4175 H 404.098 -1.93009 -0.31106 0
M  V30 4176 H 402.802 -3.88812 -1.31351 0
M  V30 4177 H 402.333 -2.87366 -2.68671 0
M  V30 4178 H 404.348 -3.0148 -3.94112 0
M  V30 4179 N 403.521 0.559213 -1.47345 0
M  V30 4180 C 404.767 1.31843 -1.54095 0
M  V30 4181 C 405.1 1.93149 -0.201726 0
M  V30 4182 O 404.375 1.77759 0.789428 0
M  V30 4183 C 404.658 2.43006 -2.65744 0
M  V30 4184 C 404.511 1.86581 -4.09277 0
M  V30 4185 C 405.83 3.44943 -2.73318 0
M  V30 4186 H 402.949 0.478012 -0.560957 0
M  V30 4187 H 405.591 0.625977 -1.79392 0
M  V30 4188 H 403.741 3.02072 -2.44305 0
M  V30 4189 H 405.413 1.31792 -4.42073 0
M  V30 4190 H 403.656 1.17268 -4.17649 0
M  V30 4191 H 404.327 2.66933 -4.83168 0
M  V30 4192 H 406.803 2.95793 -2.92653 0
M  V30 4193 H 405.679 4.20153 -3.53218 0
M  V30 4194 H 405.94 4.03665 -1.80296 0
M  V30 4195 N 404.999 1.35443 0.805782 0
M  V30 4196 C 405.962 1.28301 1.89925 0
M  V30 4197 C 406.962 0.194285 1.59622 0
M  V30 4198 O 408.152 0.448036 1.6834 0
M  V30 4199 C 405.284 0.984997 3.2636 0
M  V30 4200 H 406.477 2.2553 1.97677 0
M  V30 4201 H 404.03 1.19979 1.00173 0
M  V30 4202 H 404.765 0.016603 3.24296 0
M  V30 4203 H 404.55 1.77269 3.4974 0
M  V30 4204 H 406.04 0.960651 4.064 0
M  V30 4205 N 406.477 -1.02803 1.19454 0
M  V30 4206 C 407.717 -1.77769 1.00883 0
M  V30 4207 C 408.081 -1.86596 -0.45233 0
M  V30 4208 O 409.282 -2.57895 -0.757877 0
M  V30 4209 C 407.553 -3.16486 1.66046 0
M  V30 4210 S 409.112 -4.07632 1.62424 0
M  V30 4211 H 405.93 -0.611949 0.361993 0
M  V30 4212 H 408.532 -1.23175 1.51816 0
M  V30 4213 H 407.236 -3.0768 2.7159 0
M  V30 4214 H 406.767 -3.76156 1.15196 0
M  V30 4215 H 408.782 -4.91937 0.64903 0
M  V30 4216 N 407.956 -0.998596 -1.21925 0
M  V30 4217 C 408.866 -0.562736 -2.27751 0
M  V30 4218 C 409.882 0.391203 -1.69545 0
M  V30 4219 O 411.058 0.256625 -1.99758 0
M  V30 4220 C 408.123 0.11012 -3.46525 0
M  V30 4221 C 407.184 -0.887495 -4.20026 0
M  V30 4222 C 406.417 -0.246654 -5.3313 0
M  V30 4223 O 406.64 0.958088 -5.62296 0
M  V30 4224 O 405.574 -0.954374 -5.94286 0
M  V30 4225 H 409.4 -1.44329 -2.67213 0
M  V30 4226 H 406.985 -0.767135 -1.28201 0
M  V30 4227 H 408.867 0.486756 -4.18579 0
M  V30 4228 H 407.542 0.965154 -3.08976 0
M  V30 4229 H 406.449 -1.31517 -3.5022 0
M  V30 4230 H 407.782 -1.71191 -4.6147 0
M  V30 4231 N 409.434 1.37368 -0.772513 0
M  V30 4232 C 410.364 2.32856 -0.173304 0
M  V30 4233 C 411.345 1.55818 0.682262 0
M  V30 4234 O 412.53 1.84052 0.619566 0
M  V30 4235 C 409.66 3.40048 0.706007 0
M  V30 4236 C 408.614 4.27973 -0.0483144 0
M  V30 4237 C 407.94 5.26184 0.950491 0
M  V30 4238 C 409.24 5.07665 -1.22776 0
M  V30 4239 H 410.934 2.83217 -0.971002 0
M  V30 4240 H 408.48 1.3617 -0.468377 0
M  V30 4241 H 410.433 4.05827 1.13501 0
M  V30 4242 H 409.157 2.88214 1.53623 0
M  V30 4243 H 407.816 3.63726 -0.458107 0
M  V30 4244 H 407.464 4.7063 1.77529 0
M  V30 4245 H 407.164 5.85872 0.450314 0
M  V30 4246 H 408.688 5.94838 1.37842 0
M  V30 4247 H 410.102 5.66578 -0.875366 0
M  V30 4248 H 408.499 5.76681 -1.66007 0
M  V30 4249 H 409.569 4.40294 -2.03149 0
M  V30 4250 N 410.912 0.523116 1.48665 0
M  V30 4251 C 412.16 -0.0134497 2.02096 0
M  V30 4252 C 412.481 -1.35418 1.40311 0
M  V30 4253 O 411.751 -1.87543 0.566074 0
M  V30 4254 H 410.331 -0.00795915 0.746958 0
M  V30 4255 H 412.993 0.685388 1.82451 0
M  V30 4256 H 412.089 -0.126849 3.11842 0
M  V30 4257 N 412.39 -1.55475 0.257931 0
M  V30 4258 C 413.637 -1.99207 -0.363728 0
M  V30 4259 C 413.965 -1.1462 -1.57139 0
M  V30 4260 O 413.22 -0.199653 -1.94679 0
M  V30 4261 C 413.519 -3.48183 -0.806433 0
M  V30 4262 C 413.185 -4.49936 0.294684 0
M  V30 4263 C 411.847 -4.77481 0.597076 0
M  V30 4264 C 414.199 -5.10769 1.03751 0
M  V30 4265 C 411.527 -5.63132 1.64618 0
M  V30 4266 C 413.879 -5.97558 2.07622 0
M  V30 4267 C 412.543 -6.23432 2.38514 0
M  V30 4268 H 411.813 -0.728949 -0.133097 0
M  V30 4269 H 414.46 -1.8793 0.368059 0
M  V30 4270 H 412.765 -3.56848 -1.61761 0
M  V30 4271 H 414.462 -3.79415 -1.29789 0
M  V30 4272 H 411.052 -4.28572 0.0488649 0
M  V30 4273 H 415.236 -4.89527 0.817149 0
M  V30 4274 H 410.492 -5.8143 1.89074 0
M  V30 4275 H 414.666 -6.43735 2.65666 0
M  V30 4276 H 412.293 -6.89594 3.19943 0
M  V30 4277 N 413.868 0.0150385 -1.57593 0
M  V30 4278 C 415.098 0.713359 -1.93894 0
M  V30 4279 C 415.506 1.68663 -0.857289 0
M  V30 4280 O 414.849 1.82876 0.173788 0
M  V30 4281 C 414.911 1.51348 -3.26089 0
M  V30 4282 C 414.575 0.703451 -4.51554 0
M  V30 4283 C 415.572 -0.00237924 -5.199 0
M  V30 4284 C 413.257 0.653854 -4.98026 0
M  V30 4285 C 415.251 -0.746955 -6.33008 0
M  V30 4286 C 412.938 -0.0944578 -6.11027 0
M  V30 4287 C 413.936 -0.793609 -6.78374 0
M  V30 4288 O 413.624 -1.52974 -7.89211 0
M  V30 4289 H 413.356 0.204637 -0.644282 0
M  V30 4290 H 415.91 -0.0276411 -2.05381 0
M  V30 4291 H 414.14 2.29862 -3.10967 0
M  V30 4292 H 415.829 2.09572 -3.47612 0
M  V30 4293 H 416.595 0.0268803 -4.84993 0
M  V30 4294 H 412.474 1.18756 -4.45441 0
M  V30 4295 H 416.018 -1.2932 -6.85509 0
M  V30 4296 H 411.915 -0.125591 -6.45378 0
M  V30 4297 H 412.683 -1.44488 -8.05646 0
M  V30 4298 N 415.346 1.54954 0.287554 0
M  V30 4299 C 416.293 1.86834 1.35505 0
M  V30 4300 C 417.263 0.718452 1.49758 0
M  V30 4301 O 418.448 0.968358 1.644 0
M  V30 4302 C 415.588 2.13303 2.71286 0
M  V30 4303 C 414.701 3.40883 2.65373 0
M  V30 4304 C 413.836 3.57125 3.93236 0
M  V30 4305 C 412.875 4.78449 3.81776 0
M  V30 4306 N 412.012 4.91426 5.01443 0
M  V30 4307 H 416.852 2.77889 1.07619 0
M  V30 4308 H 414.389 1.37593 0.520241 0
M  V30 4309 H 416.347 2.26646 3.50267 0
M  V30 4310 H 414.977 1.25499 2.97405 0
M  V30 4311 H 414.029 3.36088 1.78182 0
M  V30 4312 H 415.341 4.29993 2.52799 0
M  V30 4313 H 414.495 3.70207 4.80658 0
M  V30 4314 H 413.234 2.66173 4.0866 0
M  V30 4315 H 412.239 4.65386 2.92738 0
M  V30 4316 H 413.464 5.70822 3.67884 0
M  V30 4317 H 411.41 4.03401 5.17304 0
M  V30 4318 H 411.327 5.74559 4.91343 0
M  V30 4319 H 412.595 5.08879 5.90477 0
M  V30 4320 N 416.824 -0.551391 1.4764 0
M  V30 4321 C 418.049 -1.33837 1.58437 0
M  V30 4322 C 418.474 -1.866 0.237063 0
M  V30 4323 O 417.832 -1.6328 -0.787994 0
M  V30 4324 C 417.88 -2.48014 2.61766 0
M  V30 4325 O 416.984 -3.50419 2.1744 0
M  V30 4326 H 416.325 -0.397299 0.532024 0
M  V30 4327 H 418.855 -0.665759 1.93465 0
M  V30 4328 H 418.865 -2.94503 2.82369 0
M  V30 4329 H 417.54 -2.08969 3.5959 0
M  V30 4330 H 416.117 -3.10196 2.06961 0
M  V30 4331 N 418.302 -1.35869 -0.798587 0
M  V30 4332 C 419.265 -1.29307 -1.89242 0
M  V30 4333 C 420.265 -0.202747 -1.59517 0
M  V30 4334 O 421.455 -0.456957 -1.681 0
M  V30 4335 C 418.587 -1.00229 -3.25833 0
M  V30 4336 H 419.78 -2.26576 -1.96478 0
M  V30 4337 H 417.333 -1.20509 -0.995358 0
M  V30 4338 H 418.068 -0.033801 -3.24282 0
M  V30 4339 H 417.853 -1.79121 -3.48795 0
M  V30 4340 H 419.343 -0.98219 -4.05885 0
M  V30 4341 N 419.78 1.02168 -1.19998 0
M  V30 4342 C 421.191 1.57135 -1.00825 0
M  V30 4343 C 421.542 1.91276 0.436818 0
M  V30 4344 O 420.667 1.71679 1.3174 0
M  V30 4345 C 421.262 2.85514 -1.82393 0
M  V30 4346 C 419.821 3.37027 -1.67601 0
M  V30 4347 C 418.968 2.10388 -1.80644 0
M  V30 4348 H 421.919 0.846106 -1.34264 0
M  V30 4349 H 421.94 3.56711 -1.32429 0
M  V30 4350 H 421.452 2.60634 -2.87561 0
M  V30 4351 H 419.553 3.66878 -0.650485 0
M  V30 4352 H 419.666 4.09572 -2.4857 0
M  V30 4353 H 418.03 2.22601 -1.23778 0
M  V30 4354 H 418.813 1.8794 -2.87286 0
M  V30 4355 N 421.258 1.00505 1.21394 0
M  V30 4356 C 422.506 0.686415 1.90086 0
M  V30 4357 C 422.827 -0.785264 1.7849 0
M  V30 4358 O 422.097 -1.56387 1.17983 0
M  V30 4359 H 420.677 0.2509 0.703604 0
M  V30 4360 H 423.339 1.27417 1.47482 0
M  V30 4361 H 422.435 0.959621 2.96981 0
M  V30 4362 N 422.737 -1.36956 0.779787 0
M  V30 4363 C 424.014 -1.93697 0.272156 0
M  V30 4364 C 424.394 -1.71267 -1.23413 0
M  V30 4365 O 423.742 -1.06607 -2.02107 0
M  V30 4366 C 423.952 -3.42812 0.654291 0
M  V30 4367 C 425.3 -4.19921 0.628602 0
M  V30 4368 O 426.324 -3.51209 0.594172 0
M  V30 4369 O 425.183 -5.42465 0.662864 0
M  V30 4370 H 422.277 -0.824447 0.0649286 0
M  V30 4371 H 424.823 -1.46196 0.861682 0
M  V30 4372 H 423.595 -3.52754 1.69353 0
M  V30 4373 H 423.218 -3.97582 0.0381369 0
M  V30 4374 N 424.215 -0.530993 -1.48385 0
M  V30 4375 C 425.147 0.268353 -2.27624 0
M  V30 4376 C 426.16 0.903525 -1.35426 0
M  V30 4377 O 427.349 0.781796 -1.60469 0
M  V30 4378 C 424.449 1.39535 -3.08842 0
M  V30 4379 C 423.622 0.861913 -4.28824 0
M  V30 4380 C 422.681 1.87016 -4.91845 0
M  V30 4381 O 421.707 1.4267 -5.5103 0
M  V30 4382 N 422.909 3.20238 -4.84178 0
M  V30 4383 H 425.674 -0.41123 -2.96865 0
M  V30 4384 H 423.235 -0.365387 -1.57723 0
M  V30 4385 H 425.227 2.06803 -3.47871 0
M  V30 4386 H 423.797 1.97859 -2.42014 0
M  V30 4387 H 423.017 0.0132126 -3.94198 0
M  V30 4388 H 424.305 0.484415 -5.06489 0
M  V30 4389 H 423.703 3.58932 -4.37246 0
M  V30 4390 H 422.26 3.83136 -5.27305 0
M  V30 4391 N 425.693 1.55336 -0.266172 0
M  V30 4392 C 426.623 2.25146 0.618981 0
M  V30 4393 C 427.604 1.23845 1.16604 0
M  V30 4394 O 428.789 1.52544 1.20183 0
M  V30 4395 C 425.919 2.96572 1.80728 0
M  V30 4396 C 424.873 4.04726 1.39215 0
M  V30 4397 C 424.199 4.63678 2.66283 0
M  V30 4398 C 425.499 5.19407 0.548942 0
M  V30 4399 H 427.193 2.99377 0.0368116 0
M  V30 4400 H 424.739 1.43991 0.0162651 0
M  V30 4401 H 426.692 3.44116 2.43232 0
M  V30 4402 H 425.416 2.19861 2.41514 0
M  V30 4403 H 424.075 3.57979 0.790351 0
M  V30 4404 H 423.723 3.83646 3.25308 0
M  V30 4405 H 423.423 5.367 2.39222 0
M  V30 4406 H 424.947 5.13967 3.29651 0
M  V30 4407 H 426.361 5.63059 1.07876 0
M  V30 4408 H 424.758 5.98936 0.373593 0
M  V30 4409 H 425.828 4.8295 -0.434394 0
M  V30 4410 N 427.171 -0.0066808 1.57599 0
M  V30 4411 C 428.411 -0.697501 1.92131 0
M  V30 4412 C 428.775 -1.71306 0.867071 0
M  V30 4413 O 429.976 -2.45377 1.09743 0
M  V30 4414 C 428.247 -1.32978 3.3174 0
M  V30 4415 S 429.806 -2.04665 3.88146 0
M  V30 4416 H 426.624 -0.230555 0.672581 0
M  V30 4417 H 429.226 0.0484026 1.9544 0
M  V30 4418 H 427.93 -0.57772 4.06313 0
M  V30 4419 H 427.461 -2.11376 3.31789 0
M  V30 4420 H 429.476 -3.32097 3.68682 0
M  V30 4421 N 428.649 -1.55105 -0.279332 0
M  V30 4422 C 429.612 -1.86783 -1.32834 0
M  V30 4423 C 430.612 -0.74199 -1.42657 0
M  V30 4424 O 431.802 -1.0102 -1.41918 0
M  V30 4425 C 428.934 -2.06746 -2.71052 0
M  V30 4426 H 430.127 -2.8055 -1.05979 0
M  V30 4427 H 427.68 -1.47499 -0.517087 0
M  V30 4428 H 428.415 -1.15339 -3.03097 0
M  V30 4429 H 428.2 -2.88711 -2.65309 0
M  V30 4430 H 429.69 -2.32549 -3.46858 0
M  V30 4431 N 430.127 0.543554 -1.4793 0
M  V30 4432 C 431.543 0.870806 -1.3375 0
M  V30 4433 C 431.743 1.9864 -0.338261 0
M  V30 4434 O 430.799 2.51305 0.245371 0
M  V30 4435 C 432.112 1.25114 -2.73435 0
M  V30 4436 C 433.66 1.3618 -2.81823 0
M  V30 4437 C 434.135 1.77563 -4.22179 0
M  V30 4438 N 435.626 1.8469 -4.24787 0
M  V30 4439 C 436.361 2.18067 -5.30315 0
M  V30 4440 N 435.857 2.49963 -6.46135 0
M  V30 4441 N 437.65 2.18958 -5.17701 0
M  V30 4442 H 429.801 -0.19275 -2.11524 0
M  V30 4443 H 432.064 -0.0235777 -0.947707 0
M  V30 4444 H 431.77 0.50514 -3.48053 0
M  V30 4445 H 431.644 2.20431 -3.06088 0
M  V30 4446 H 434.031 2.09859 -2.07468 0
M  V30 4447 H 434.112 0.390169 -2.52807 0
M  V30 4448 H 433.756 1.04449 -4.97044 0
M  V30 4449 H 433.686 2.75753 -4.48629 0
M  V30 4450 H 436.177 1.62372 -3.41239 0
M  V30 4451 H 436.49 2.74497 -7.22406 0
M  V30 4452 H 434.835 2.47513 -6.49432 0
M  V30 4453 H 438.026 1.93488 -4.2624 0
M  V30 4454 H 438.199 2.44639 -6.00047 0
M  V30 4455 N 431.605 1.3629 0.791371 0
M  V30 4456 C 432.845 1.31792 1.56238 0
M  V30 4457 C 433.209 -0.102237 1.91728 0
M  V30 4458 O 434.41 -0.271759 2.67423 0
M  V30 4459 C 432.681 2.21303 2.80642 0
M  V30 4460 S 434.24 2.34468 3.70904 0
M  V30 4461 H 431.058 0.468141 0.535131 0
M  V30 4462 H 433.66 1.71841 0.932246 0
M  V30 4463 H 432.364 3.23439 2.52617 0
M  V30 4464 H 431.895 1.82266 3.4863 0
M  V30 4465 H 433.91 1.54074 4.71673 0
M  V30 4466 N 433.083 -1.0153 1.20538 0
M  V30 4467 C 434.494 -1.56598 1.01657 0
M  V30 4468 C 434.845 -1.91505 -0.426668 0
M  V30 4469 O 433.97 -1.72375 -1.30827 0
M  V30 4470 C 434.565 -2.84542 1.83905 0
M  V30 4471 C 433.124 -3.36133 1.69386 0
M  V30 4472 C 432.271 -2.09427 1.81757 0
M  V30 4473 H 435.222 -0.838974 1.34711 0
M  V30 4474 H 435.243 -3.56004 1.34319 0
M  V30 4475 H 434.755 -2.59105 2.8894 0
M  V30 4476 H 432.856 -3.66528 0.669933 0
M  V30 4477 H 432.969 -4.08248 2.50739 0
M  V30 4478 H 431.333 -2.21941 1.24957 0
M  V30 4479 H 432.116 -1.86414 2.88279 0
M  V30 4480 N 434.561 -1.01147 -1.20859 0
M  V30 4481 C 435.972 -0.730205 -1.71828 0
M  V30 4482 C 436.323 0.751662 -1.8123 0
M  V30 4483 O 435.448 1.58686 -1.47132 0
M  V30 4484 C 436.043 -1.31885 -3.12077 0
M  V30 4485 C 434.602 -1.08656 -3.60376 0
M  V30 4486 C 433.749 -1.42769 -2.37723 0
M  V30 4487 H 436.7 -1.18158 -1.05945 0
M  V30 4488 H 436.721 -0.706793 -3.73878 0
M  V30 4489 H 436.233 -2.39737 -3.05201 0
M  V30 4490 H 434.334 -0.0254814 -3.72591 0
M  V30 4491 H 434.447 -1.76301 -4.45483 0
M  V30 4492 H 432.811 -0.846603 -2.40218 0
M  V30 4493 H 433.594 -2.51666 -2.33493 0
M  V30 4494 N 436.039 1.36541 -0.78704 0
M  V30 4495 C 436.989 2.27459 -0.156957 0
M  V30 4496 C 437.973 1.46843 0.657709 0
M  V30 4497 O 439.165 1.69245 0.518173 0
M  V30 4498 C 436.294 3.35893 0.709278 0
M  V30 4499 C 435.38 4.23947 -0.114049 0
M  V30 4500 N 435.771 4.92145 -1.16736 0
M  V30 4501 C 434.069 4.4587 0.107497 0
M  V30 4502 C 434.77 5.57261 -1.66837 0
M  V30 4503 N 433.746 5.3473 -0.977992 0
M  V30 4504 H 437.548 2.77669 -0.963185 0
M  V30 4505 H 435.062 1.49839 -0.62627 0
M  V30 4506 H 437.059 3.99953 1.17656 0
M  V30 4507 H 435.719 2.87238 1.51408 0
M  V30 4508 H 436.73 4.94169 -1.54976 0
M  V30 4509 H 433.407 4.08056 0.882994 0
M  V30 4510 H 434.797 6.21728 -2.54762 0
M  V30 4511 N 437.518 0.538854 1.48102 0
M  V30 4512 C 438.743 0.0102694 2.07397 0
M  V30 4513 C 439.168 -1.26562 1.39153 0
M  V30 4514 O 438.526 -1.75357 0.460387 0
M  V30 4515 C 438.574 -0.187602 3.60112 0
M  V30 4516 O 437.678 -1.25432 3.92862 0
M  V30 4517 H 437.019 0.0430975 0.6626 0
M  V30 4518 H 439.549 0.749301 1.90385 0
M  V30 4519 H 439.559 -0.407517 4.0596 0
M  V30 4520 H 438.234 0.744386 4.09184 0
M  V30 4521 H 436.811 -1.01636 3.58782 0
M  V30 4522 N 438.996 -1.55193 0.274407 0
M  V30 4523 C 439.946 -2.19184 -0.627882 0
M  V30 4524 C 440.93 -1.15625 -1.11892 0
M  V30 4525 O 442.122 -1.41441 -1.06411 0
M  V30 4526 C 439.251 -2.91591 -1.81189 0
M  V30 4527 C 438.337 -4.02438 -1.33807 0
M  V30 4528 N 438.728 -5.0246 -0.580349 0
M  V30 4529 C 437.026 -4.15496 -1.62109 0
M  V30 4530 C 437.727 -5.80756 -0.331344 0
M  V30 4531 N 436.703 -5.36038 -0.903556 0
M  V30 4532 H 440.505 -2.93871 -0.0411216 0
M  V30 4533 H 438.019 -1.62213 0.0779348 0
M  V30 4534 H 440.016 -3.35883 -2.46957 0
M  V30 4535 H 438.676 -2.18414 -2.40261 0
M  V30 4536 H 439.687 -5.17399 -0.227762 0
M  V30 4537 H 436.364 -3.53509 -2.22121 0
M  V30 4538 H 437.754 -6.71335 0.275454 0
M  V30 4539 N 440.474 -0.00167713 -1.576 0
M  V30 4540 C 441.699 0.69739 -1.95323 0
M  V30 4541 C 442.124 1.6642 -0.876706 0
M  V30 4542 O 441.482 1.80548 0.165007 0
M  V30 4543 C 441.53 1.40403 -3.32144 0
M  V30 4544 O 440.634 2.5185 -3.26566 0
M  V30 4545 H 439.975 0.185373 -0.637599 0
M  V30 4546 H 442.505 -0.0553665 -2.04525 0
M  V30 4547 H 442.515 1.76707 -3.67748 0
M  V30 4548 H 441.19 0.695167 -4.10049 0
M  V30 4549 H 439.767 2.17861 -3.0264 0
M  V30 4550 N 441.952 1.55251 0.271103 0
M  V30 4551 C 442.915 1.87484 1.31842 0
M  V30 4552 C 443.915 0.749545 1.42262 0
M  V30 4553 O 445.105 1.01771 1.4138 0
M  V30 4554 C 442.237 2.0818 2.69951 0
M  V30 4555 H 443.43 2.81108 1.0449 0
M  V30 4556 H 440.983 1.47771 0.509258 0
M  V30 4557 H 441.718 1.16944 3.02481 0
M  V30 4558 H 441.503 2.90114 2.63774 0
M  V30 4559 H 442.993 2.34385 3.4562 0
M  V30 4560 N 443.43 -0.535701 1.48216 0
M  V30 4561 C 444.393 -1.623 1.61838 0
M  V30 4562 C 445.393 -1.53087 0.492024 0
M  V30 4563 O 446.583 -1.5686 0.757668 0
M  V30 4564 C 443.715 -3.01907 1.58319 0
M  V30 4565 H 444.908 -1.51564 2.58783 0
M  V30 4566 H 442.461 -0.757317 1.36727 0
M  V30 4567 H 443.196 -3.18155 0.628299 0
M  V30 4568 H 442.981 -3.10003 2.40085 0
M  V30 4569 H 444.471 -3.80969 1.71033 0
M  V30 4570 N 444.908 -1.36708 -0.784132 0
M  V30 4571 C 446.319 -1.27947 -1.35965 0
M  V30 4572 C 446.67 0.0784013 -1.96043 0
M  V30 4573 O 445.795 0.979989 -1.92938 0
M  V30 4574 C 446.39 -2.31689 -2.47195 0
M  V30 4575 C 444.949 -2.26601 -3.00548 0
M  V30 4576 C 444.096 -2.16184 -1.73666 0
M  V30 4577 H 447.047 -1.4751 -0.585358 0
M  V30 4578 H 447.068 -1.95638 -3.26352 0
M  V30 4579 H 446.58 -3.30506 -2.03439 0
M  V30 4580 H 444.681 -1.31268 -3.48711 0
M  V30 4581 H 444.794 -3.19508 -3.57004 0
M  V30 4582 H 443.158 -1.62524 -1.96107 0
M  V30 4583 H 443.941 -3.16896 -1.32031 0
M  V30 4584 N 446.386 1.0089 -1.21074 0
M  V30 4585 C 447.349 2.0775 -0.968129 0
M  V30 4586 C 448.349 1.6069 0.0593445 0
M  V30 4587 O 449.539 1.73293 -0.177525 0
M  V30 4588 C 446.671 3.37794 -0.459108 0
M  V30 4589 H 447.864 2.30707 -1.9161 0
M  V30 4590 H 445.417 1.17807 -1.02719 0
M  V30 4591 H 446.152 3.20516 0.49397 0
M  V30 4592 H 445.937 3.7328 -1.20019 0
M  V30 4593 H 447.427 4.16454 -0.309099 0
M  V30 4594 N 447.864 1.01787 1.20321 0
M  V30 4595 C 448.827 0.593972 2.2137 0
M  V30 4596 C 449.827 -0.336553 1.57239 0
M  V30 4597 O 451.017 -0.125069 1.7375 0
M  V30 4598 C 448.149 -0.132433 3.40643 0
M  V30 4599 H 449.342 1.48791 2.60387 0
M  V30 4600 H 446.895 0.807803 1.33807 0
M  V30 4601 H 447.63 -1.04123 3.0713 0
M  V30 4602 H 447.415 0.53605 3.88418 0
M  V30 4603 H 448.905 -0.416314 4.1552 0
M  V30 4604 N 449.342 -1.36122 0.79427 0
M  V30 4605 C 450.274 -2.28683 0.153903 0
M  V30 4606 C 451.287 -1.49707 -0.639669 0
M  V30 4607 O 452.476 -1.7209 -0.474054 0
M  V30 4608 C 449.576 -3.29202 -0.804921 0
M  V30 4609 C 448.749 -4.37358 -0.060366 0
M  V30 4610 C 447.808 -5.17811 -0.935849 0
M  V30 4611 O 446.834 -5.67853 -0.391309 0
M  V30 4612 N 448.036 -5.34721 -2.25951 0
M  V30 4613 H 450.801 -2.84278 0.949008 0
M  V30 4614 H 448.362 -1.4834 0.648611 0
M  V30 4615 H 450.354 -3.79914 -1.39455 0
M  V30 4616 H 448.924 -2.74212 -1.50088 0
M  V30 4617 H 448.144 -3.87746 0.710382 0
M  V30 4618 H 449.432 -5.06777 0.45324 0
M  V30 4619 H 448.83 -4.95687 -2.72601 0
M  V30 4620 H 447.387 -5.88657 -2.79867 0
M  V30 4621 N 450.82 -0.546701 -1.47814 0
M  V30 4622 C 451.783 0.196287 -2.28358 0
M  V30 4623 C 452.783 0.852437 -1.36346 0
M  V30 4624 O 453.973 0.709913 -1.59078 0
M  V30 4625 C 451.105 1.28579 -3.15722 0
M  V30 4626 H 452.298 -0.511086 -2.95513 0
M  V30 4627 H 449.851 -0.303248 -1.5333 0
M  V30 4628 H 450.586 2.0259 -2.53235 0
M  V30 4629 H 450.371 0.820229 -3.83425 0
M  V30 4630 H 451.861 1.80793 -3.76435 0
M  V30 4631 N 452.299 1.55045 -0.282633 0
M  V30 4632 C 453.539 2.01668 0.333088 0
M  V30 4633 C 453.903 1.1667 1.52486 0
M  V30 4634 O 455.104 1.52907 2.21072 0
M  V30 4635 C 453.375 3.50509 0.698442 0
M  V30 4636 S 454.934 4.19112 1.29963 0
M  V30 4637 H 451.752 0.703468 0.103219 0
M  V30 4638 H 454.354 1.91233 -0.406222 0
M  V30 4639 H 453.058 4.10015 -0.177693 0
M  V30 4640 H 452.589 3.64943 1.46902 0
M  V30 4641 H 454.604 4.23362 2.58803 0
M  V30 4642 N 453.777 0.010035 1.57597 0
M  V30 4643 C 454.727 -0.986858 2.05536 0
M  V30 4644 C 455.711 -1.29711 0.952042 0
M  V30 4645 O 456.903 -1.28641 1.21575 0
M  V30 4646 C 454.032 -2.2756 2.57043 0
M  V30 4647 C 453.118 -1.99455 3.74271 0
M  V30 4648 N 453.509 -1.41546 4.85591 0
M  V30 4649 C 451.807 -2.29547 3.82393 0
M  V30 4650 C 452.508 -1.3014 5.66956 0
M  V30 4651 N 451.484 -1.79044 5.13268 0
M  V30 4652 H 455.286 -0.533778 2.89012 0
M  V30 4653 H 452.8 -0.195432 1.6122 0
M  V30 4654 H 454.797 -2.99829 2.89669 0
M  V30 4655 H 453.457 -2.73512 1.7499 0
M  V30 4656 H 454.468 -1.09294 5.06236 0
M  V30 4657 H 451.145 -2.78304 3.11213 0
M  V30 4658 H 452.535 -0.855237 6.66435 0
M  V30 4659 N 455.255 -1.55392 -0.262866 0
M  V30 4660 C 456.495 -1.78231 -1.00064 0
M  V30 4661 C 456.859 -0.576966 -1.83126 0
M  V30 4662 O 458.06 -0.683809 -2.59957 0
M  V30 4663 C 456.331 -3.05701 -1.85153 0
M  V30 4664 S 457.89 -3.49699 -2.65058 0
M  V30 4665 H 454.708 -0.626138 -0.336856 0
M  V30 4666 H 457.31 -1.93626 -0.27005 0
M  V30 4667 H 456.014 -3.91511 -1.23074 0
M  V30 4668 H 455.545 -2.93 -2.62515 0
M  V30 4669 H 457.56 -3.09772 -3.87629 0
M  V30 4670 N 456.733 0.527833 -1.48498 0
M  V30 4671 C 458.01 1.28905 -1.47115 0
M  V30 4672 C 458.39 2.10297 -0.184007 0
M  V30 4673 O 457.738 2.12728 0.834218 0
M  V30 4674 C 457.948 2.16866 -2.73441 0
M  V30 4675 C 459.296 2.76936 -3.21857 0
M  V30 4676 O 460.32 2.27152 -2.74373 0
M  V30 4677 O 459.179 3.67496 -4.04486 0
M  V30 4678 H 456.273 0.581918 -0.587623 0
M  V30 4679 H 458.819 0.544311 -1.60734 0
M  V30 4680 H 457.591 1.56521 -3.58632 0
M  V30 4681 H 457.214 2.98583 -2.62553 0
M  V30 4682 N 458.211 1.37122 0.776871 0
M  V30 4683 C 459.141 1.35164 1.90402 0
M  V30 4684 C 460.122 0.221069 1.68657 0
M  V30 4685 O 461.307 0.420642 1.8959 0
M  V30 4686 C 458.437 1.15274 3.27611 0
M  V30 4687 C 457.391 2.25289 3.63908 0
M  V30 4688 C 456.717 1.90527 4.99603 0
M  V30 4689 C 458.017 3.67446 3.71188 0
M  V30 4690 H 459.711 2.29482 1.92297 0
M  V30 4691 H 457.257 1.10465 0.923773 0
M  V30 4692 H 459.21 1.12536 4.06096 0
M  V30 4693 H 457.934 0.174102 3.26136 0
M  V30 4694 H 456.593 2.27174 2.87728 0
M  V30 4695 H 456.241 0.91206 4.94662 0
M  V30 4696 H 455.941 2.64193 5.24858 0
M  V30 4697 H 457.465 1.89367 5.80493 0
M  V30 4698 H 458.879 3.67719 4.39836 0
M  V30 4699 H 457.276 4.40123 4.07936 0
M  V30 4700 H 458.346 4.01443 2.71977 0
M  V30 4701 N 459.689 -1.00246 1.21608 0
M  V30 4702 C 460.914 -1.78167 1.06167 0
M  V30 4703 C 461.339 -1.84138 -0.384035 0
M  V30 4704 O 460.697 -1.28683 -1.27712 0
M  V30 4705 C 460.745 -3.19786 1.66642 0
M  V30 4706 O 459.849 -4.02153 0.913613 0
M  V30 4707 H 459.19 -0.549 0.37349 0
M  V30 4708 H 461.72 -1.25994 1.61204 0
M  V30 4709 H 461.73 -3.70451 1.70969 0
M  V30 4710 H 460.405 -3.14754 2.7185 0
M  V30 4711 H 458.982 -3.60711 0.945635 0
M  V30 4712 N 461.167 -1.02423 -1.1978 0
M  V30 4713 C 462.397 -0.736387 -1.93031 0
M  V30 4714 C 462.805 0.708023 -1.75453 0
M  V30 4715 O 462.148 1.4927 -1.07071 0
M  V30 4716 C 462.21 -1.00194 -3.45255 0
M  V30 4717 C 461.874 -2.43698 -3.86601 0
M  V30 4718 C 462.871 -3.41814 -3.91738 0
M  V30 4719 C 460.556 -2.77975 -4.18372 0
M  V30 4720 C 462.55 -4.72265 -4.28071 0
M  V30 4721 C 460.237 -4.08636 -4.54378 0
M  V30 4722 C 461.235 -5.05592 -4.59201 0
M  V30 4723 O 460.923 -6.33914 -4.94376 0
M  V30 4724 H 460.655 -0.269116 -0.620123 0
M  V30 4725 H 463.209 -1.37043 -1.52998 0
M  V30 4726 H 461.439 -0.310747 -3.85449 0
M  V30 4727 H 463.128 -0.704488 -3.9974 0
M  V30 4728 H 463.894 -3.16671 -3.67348 0
M  V30 4729 H 459.773 -2.0319 -4.13805 0
M  V30 4730 H 463.317 -5.4794 -4.3175 0
M  V30 4731 H 459.214 -4.33556 -4.78226 0
M  V30 4732 H 459.982 -6.38317 -5.12341 0
M  V30 4733 N 462.645 1.35699 -0.801477 0
M  V30 4734 C 463.875 2.02862 -0.3912 0
M  V30 4735 C 464.283 1.60552 1.00099 0
M  V30 4736 O 463.626 0.796215 1.65548 0
M  V30 4737 C 463.688 3.57386 -0.389299 0
M  V30 4738 C 463.352 4.22943 -1.73113 0
M  V30 4739 C 464.349 4.44984 -2.68859 0
M  V30 4740 C 462.034 4.60167 -2.01373 0
M  V30 4741 C 464.028 5.03345 -3.91053 0
M  V30 4742 C 461.715 5.18243 -3.23832 0
M  V30 4743 C 462.713 5.39773 -4.1849 0
M  V30 4744 O 462.401 5.96626 -5.38788 0
M  V30 4745 H 462.133 0.657341 -0.157732 0
M  V30 4746 H 464.687 1.74407 -1.08496 0
M  V30 4747 H 462.917 3.85011 0.361031 0
M  V30 4748 H 464.606 4.059 -0.0020365 0
M  V30 4749 H 465.372 4.1661 -2.48316 0
M  V30 4750 H 461.251 4.42726 -1.28508 0
M  V30 4751 H 464.795 5.20065 -4.64949 0
M  V30 4752 H 460.692 5.46044 -3.44248 0
M  V30 4753 H 461.46 6.15082 -5.40015 0
M  V30 4754 N 464.123 0.554532 1.47522 0
M  V30 4755 C 465.539 0.214107 1.58157 0
M  V30 4756 C 465.739 -1.28331 1.55349 0
M  V30 4757 O 464.795 -2.06329 1.45549 0
M  V30 4758 C 466.108 0.838391 2.88776 0
M  V30 4759 C 467.656 0.809374 3.02354 0
M  V30 4760 C 468.131 1.41268 4.35669 0
M  V30 4761 N 469.622 1.37574 4.42298 0
M  V30 4762 C 470.357 1.8122 5.4401 0
M  V30 4763 N 469.853 2.3271 6.52547 0
M  V30 4764 N 471.646 1.72307 5.35039 0
M  V30 4765 H 463.797 1.52744 1.4759 0
M  V30 4766 H 466.06 0.636812 0.702264 0
M  V30 4767 H 465.766 1.89065 2.96559 0
M  V30 4768 H 465.64 0.329847 3.75755 0
M  V30 4769 H 468.027 -0.234187 2.94169 0
M  V30 4770 H 468.108 1.35565 2.16924 0
M  V30 4771 H 467.752 2.45529 4.4461 0
M  V30 4772 H 467.682 0.841871 5.19827 0
M  V30 4773 H 470.173 0.999081 3.64454 0
M  V30 4774 H 470.486 2.63944 7.26329 0
M  V30 4775 H 468.831 2.36719 6.53444 0
M  V30 4776 H 472.022 1.3186 4.49144 0
M  V30 4777 H 472.195 2.06641 6.14169 0
M  V30 4778 N 465.601 -1.54893 0.290851 0
M  V30 4779 C 466.564 -2.21824 -0.576784 0
M  V30 4780 C 467.564 -1.20104 -1.06919 0
M  V30 4781 O 468.754 -1.44906 -0.966843 0
M  V30 4782 C 465.886 -2.89662 -1.79747 0
M  V30 4783 H 467.079 -2.99899 0.00784051 0
M  V30 4784 H 464.632 -1.56245 0.0415934 0
M  V30 4785 H 465.367 -2.15639 -2.42219 0
M  V30 4786 H 465.152 -3.64219 -1.45214 0
M  V30 4787 H 466.642 -3.4075 -2.4141 0
M  V30 4788 N 467.08 -0.0183926 -1.57589 0
M  V30 4789 C 468.043 0.951986 -2.08494 0
M  V30 4790 C 469.043 1.26092 -0.997874 0
M  V30 4791 O 470.233 1.20304 -1.25987 0
M  V30 4792 C 467.365 2.27165 -2.54182 0
M  V30 4793 H 468.558 0.511307 -2.95509 0
M  V30 4794 H 466.111 0.229444 -1.54607 0
M  V30 4795 H 466.846 2.75884 -1.70465 0
M  V30 4796 H 466.631 2.06057 -3.33591 0
M  V30 4797 H 468.121 2.9674 -2.93828 0
M  V30 4798 N 468.558 1.5553 0.254621 0
M  V30 4799 C 469.488 1.9268 1.31897 0
M  V30 4800 C 470.469 0.790797 1.506 0
M  V30 4801 O 471.654 1.05045 1.63337 0
M  V30 4802 C 468.784 2.21477 2.67517 0
M  V30 4803 C 467.738 3.37256 2.63519 0
M  V30 4804 C 467.064 3.51576 4.02862 0
M  V30 4805 C 468.364 4.73157 2.21179 0
M  V30 4806 H 470.058 2.81832 1.01051 0
M  V30 4807 H 467.604 1.35599 0.484662 0
M  V30 4808 H 469.557 2.46055 3.42104 0
M  V30 4809 H 468.281 1.29144 2.99982 0
M  V30 4810 H 466.94 3.12675 1.9139 0
M  V30 4811 H 466.588 2.56676 4.32581 0
M  V30 4812 H 466.288 4.2943 4.01078 0
M  V30 4813 H 467.812 3.78467 4.79161 0
M  V30 4814 H 469.226 4.97158 2.85494 0
M  V30 4815 H 467.623 5.54058 2.30521 0
M  V30 4816 H 468.693 4.70739 1.16332 0
M  V30 4817 N 470.036 -0.519951 1.48776 0
M  V30 4818 C 471.313 -1.28123 1.47797 0
M  V30 4819 C 471.693 -2.10196 0.195157 0
M  V30 4820 O 471.041 -2.13167 -0.822925 0
M  V30 4821 C 471.251 -2.15413 2.74587 0
M  V30 4822 C 472.599 -2.75225 3.23321 0
M  V30 4823 O 473.623 -2.25694 2.75574 0
M  V30 4824 O 472.482 -3.65346 4.06429 0
M  V30 4825 H 469.576 -0.578793 0.590701 0
M  V30 4826 H 472.122 -0.535779 1.6102 0
M  V30 4827 H 470.894 -1.54617 3.59457 0
M  V30 4828 H 470.517 -2.97186 2.64132 0
M  V30 4829 N 471.514 -1.37532 -0.769588 0
M  V30 4830 C 472.925 -1.29382 -1.346 0
M  V30 4831 C 473.276 0.0576039 -1.96115 0
M  V30 4832 O 472.401 0.95947 -1.93967 0
M  V30 4833 C 472.996 -2.34298 -2.44724 0
M  V30 4834 C 471.555 -2.29776 -2.98128 0
M  V30 4835 C 470.702 -2.18013 -1.71364 0
M  V30 4836 H 473.653 -1.48123 -0.56968 0
M  V30 4837 H 473.674 -1.99089 -3.24259 0
M  V30 4838 H 473.186 -3.32645 -1.99922 0
M  V30 4839 H 471.287 -1.34959 -3.47299 0
M  V30 4840 H 471.4 -3.23276 -3.53595 0
M  V30 4841 H 469.764 -1.64595 -1.94372 0
M  V30 4842 H 470.547 -3.18278 -1.28662 0
M  V30 4843 N 472.992 0.995999 -1.22138 0
M  V30 4844 C 474.403 1.54961 -1.04135 0
M  V30 4845 C 474.754 1.92159 0.396147 0
M  V30 4846 O 473.879 1.74435 1.28069 0
M  V30 4847 C 474.474 2.81581 -1.88408 0
M  V30 4848 C 473.033 3.33396 -1.74712 0
M  V30 4849 C 472.18 2.06509 -1.85066 0
M  V30 4850 H 475.131 0.817436 -1.36028 0
M  V30 4851 H 475.152 3.53822 -1.39966 0
M  V30 4852 H 474.664 2.54476 -2.93025 0
M  V30 4853 H 472.765 3.65416 -0.728159 0
M  V30 4854 H 472.878 4.04208 -2.57202 0
M  V30 4855 H 471.242 2.19925 -1.28472 0
M  V30 4856 H 472.025 1.81804 -2.91208 0
M  V30 4857 N 474.47 1.03057 1.19235 0
M  V30 4858 C 475.695 0.74757 1.93458 0
M  V30 4859 C 476.12 -0.687648 1.7508 0
M  V30 4860 O 475.478 -1.47499 1.05422 0
M  V30 4861 C 475.526 1.10604 3.43219 0
M  V30 4862 O 474.63 0.225671 4.11782 0
M  V30 4863 H 473.971 0.276047 0.603899 0
M  V30 4864 H 476.501 1.3777 1.51263 0
M  V30 4865 H 476.511 1.06366 3.93891 0
M  V30 4866 H 475.186 2.15165 3.55917 0
M  V30 4867 H 473.763 0.326795 3.71465 0
M  V30 4868 N 475.948 -1.35272 0.808662 0
M  V30 4869 C 477.173 -2.03477 0.401475 0
M  V30 4870 C 477.598 -1.60537 -0.980279 0
M  V30 4871 O 476.956 -0.78304 -1.63518 0
M  V30 4872 C 477.004 -3.57181 0.495354 0
M  V30 4873 O 476.108 -4.09474 -0.490397 0
M  V30 4874 H 475.449 -0.642561 0.167366 0
M  V30 4875 H 477.979 -1.72824 1.09512 0
M  V30 4876 H 477.989 -4.06356 0.365912 0
M  V30 4877 H 476.664 -3.87784 1.5032 0
M  V30 4878 H 475.241 -3.71516 -0.321023 0
M  V30 4879 N 477.426 -0.562348 -1.47226 0
M  V30 4880 C 478.389 0.172056 -2.28553 0
M  V30 4881 C 479.389 0.837928 -1.37242 0
M  V30 4882 O 480.579 0.693001 -1.59822 0
M  V30 4883 C 477.711 1.25223 -3.17068 0
M  V30 4884 H 478.904 -0.542401 -2.94954 0
M  V30 4885 H 476.457 -0.319493 -1.53 0
M  V30 4886 H 477.192 1.99892 -2.55369 0
M  V30 4887 H 476.977 0.779515 -3.84273 0
M  V30 4888 H 478.467 1.76791 -3.78332 0
M  V30 4889 N 478.904 1.54736 -0.299062 0
M  V30 4890 C 480.144 2.0201 0.31168 0
M  V30 4891 C 480.508 1.18281 1.5124 0
M  V30 4892 O 481.709 1.55243 2.19438 0
M  V30 4893 C 479.98 3.5123 0.661227 0
M  V30 4894 S 481.539 4.20467 1.2551 0
M  V30 4895 H 478.357 0.704523 0.0957517 0
M  V30 4896 H 480.959 1.90791 -0.426482 0
M  V30 4897 H 479.663 4.09804 -0.221171 0
M  V30 4898 H 479.194 3.66481 1.43023 0
M  V30 4899 H 481.209 4.26083 2.54298 0
M  V30 4900 N 480.382 0.0267497 1.57577 0
M  V30 4901 C 481.61 -0.662661 1.96001 0
M  V30 4902 C 482.025 -1.65799 0.903117 0
M  V30 4903 O 481.382 -1.82135 -0.115317 0
M  V30 4904 C 481.433 -1.37112 3.34488 0
M  V30 4905 O 481.154 -0.415683 4.36123 0
M  V30 4906 C 482.655 -2.15257 3.8753 0
M  V30 4907 H 479.875 -0.18287 0.6456 0
M  V30 4908 H 482.419 0.0858116 2.0432 0
M  V30 4909 H 480.574 -2.07101 3.27395 0
M  V30 4910 H 480.988 -0.918496 5.16395 0
M  V30 4911 H 482.462 -2.60285 4.86781 0
M  V30 4912 H 482.939 -2.99063 3.21649 0
M  V30 4913 H 483.545 -1.50231 3.97883 0
M  V30 4914 N 481.861 -1.55662 -0.24637 0
M  V30 4915 C 483.277 -1.48098 -0.594907 0
M  V30 4916 C 483.477 -0.717044 -1.8831 0
M  V30 4917 O 482.533 -0.246618 -2.51293 0
M  V30 4918 C 483.846 -2.92507 -0.697146 0
M  V30 4919 C 485.394 -3.02881 -0.789436 0
M  V30 4920 C 485.869 -4.48598 -0.923232 0
M  V30 4921 N 487.36 -4.52538 -0.988088 0
M  V30 4922 C 488.095 -5.62536 -1.11089 0
M  V30 4923 N 487.591 -6.82342 -1.19919 0
M  V30 4924 N 489.384 -5.50334 -1.14408 0
M  V30 4925 H 481.535 -2.0377 0.599278 0
M  V30 4926 H 483.798 -0.925145 0.20691 0
M  V30 4927 H 483.504 -3.51242 0.179396 0
M  V30 4928 H 483.378 -3.43024 -1.5689 0
M  V30 4929 H 485.765 -2.44226 -1.65643 0
M  V30 4930 H 485.846 -2.55574 0.107482 0
M  V30 4931 H 485.49 -5.07864 -0.0607927 0
M  V30 4932 H 485.42 -4.93587 -1.8352 0
M  V30 4933 H 487.911 -3.66248 -0.931167 0
M  V30 4934 H 488.224 -7.61924 -1.29197 0
M  V30 4935 H 486.569 -6.85102 -1.16876 0
M  V30 4936 H 489.76 -4.5567 -1.07158 0
M  V30 4937 H 489.933 -6.36096 -1.23634 0
M  V30 4938 N 483.339 0.512053 -1.4905 0
M  V30 4939 C 484.75 1.09376 -1.51307 0
M  V30 4940 C 485.101 1.94 -0.292971 0
M  V30 4941 O 484.226 2.07965 0.598277 0
M  V30 4942 C 484.821 1.99031 -2.74176 0
M  V30 4943 C 483.38 2.52385 -2.79247 0
M  V30 4944 C 482.527 1.29749 -2.45073 0
M  V30 4945 H 485.478 0.296467 -1.55906 0
M  V30 4946 H 485.499 2.83569 -2.53711 0
M  V30 4947 H 485.011 1.37412 -3.62959 0
M  V30 4948 H 483.112 3.17673 -1.94716 0
M  V30 4949 H 483.225 2.90293 -3.81139 0
M  V30 4950 H 481.589 1.61912 -1.96612 0
M  V30 4951 H 482.372 0.698555 -3.36118 0
M  V30 4952 N 484.817 1.37938 0.762283 0
M  V30 4953 C 486.228 1.30094 1.33912 0
M  V30 4954 C 486.579 -0.0472026 1.96143 0
M  V30 4955 O 485.704 -0.94917 1.94473 0
M  V30 4956 C 486.299 2.35592 2.43478 0
M  V30 4957 C 484.858 2.31353 2.96905 0
M  V30 4958 C 484.005 2.18919 1.70205 0
M  V30 4959 H 486.956 1.48423 0.561816 0
M  V30 4960 H 486.977 2.00806 3.23199 0
M  V30 4961 H 486.489 3.33701 1.98155 0
M  V30 4962 H 484.59 1.36799 3.46579 0
M  V30 4963 H 484.703 3.25147 3.51875 0
M  V30 4964 H 483.067 1.65624 1.93496 0
M  V30 4965 H 483.85 3.18956 1.26973 0
M  V30 4966 N 486.295 -0.989507 1.22664 0
M  V30 4967 C 487.52 -1.77031 1.08051 0
M  V30 4968 C 487.945 -1.84535 -0.364483 0
M  V30 4969 O 487.303 -1.3003 -1.2634 0
M  V30 4970 C 487.351 -3.18 1.70024 0
M  V30 4971 O 486.455 -4.01161 0.956216 0
M  V30 4972 H 485.796 -0.545008 0.379292 0
M  V30 4973 H 488.326 -1.24277 1.62531 0
M  V30 4974 H 488.336 -3.68616 1.74888 0
M  V30 4975 H 487.011 -3.11853 2.75174 0
M  V30 4976 H 485.588 -3.59687 0.98384 0
M  V30 4977 N 487.773 -1.03688 -1.18687 0
M  V30 4978 C 488.736 -0.629115 -2.20397 0
M  V30 4979 C 489.736 0.311495 -1.57754 0
M  V30 4980 O 490.926 0.0974107 -1.73927 0
M  V30 4981 C 488.058 0.0782231 -3.4081 0
M  V30 4982 H 489.251 -1.52915 -2.57987 0
M  V30 4983 H 486.804 -0.828988 -1.32505 0
M  V30 4984 H 487.539 0.992233 -3.08748 0
M  V30 4985 H 487.324 -0.597776 -3.87517 0
M  V30 4986 H 488.814 0.350156 -4.16129 0
M  V30 4987 N 489.251 1.34841 -0.815825 0
M  V30 4988 C 490.662 1.80937 -0.46029 0
M  V30 4989 C 491.013 1.67685 1.01863 0
M  V30 4990 O 490.138 1.21277 1.79223 0
M  V30 4991 C 490.733 3.28509 -0.828708 0
M  V30 4992 C 489.292 3.72712 -0.525644 0
M  V30 4993 C 488.439 2.56676 -1.04941 0
M  V30 4994 H 491.39 1.22688 -1.00664 0
M  V30 4995 H 491.411 3.80279 -0.129757 0
M  V30 4996 H 490.923 3.38122 -1.90513 0
M  V30 4997 H 489.024 3.68642 0.541666 0
M  V30 4998 H 489.137 4.67119 -1.06474 0
M  V30 4999 H 487.501 2.50302 -0.471286 0
M  V30 5000 H 488.284 2.69063 -2.13214 0
M  V30 5001 N 490.729 0.570148 1.46925 0
M  V30 5002 C 491.975 0.0510284 2.02736 0
M  V30 5003 C 492.308 -1.3006 1.44215 0
M  V30 5004 O 491.583 -1.84932 0.602521 0
M  V30 5005 C 491.866 -0.028215 3.60089 0
M  V30 5006 C 491.719 1.35142 4.29018 0
M  V30 5007 C 493.038 -0.735181 4.33916 0
M  V30 5008 H 490.157 0.0200178 0.736728 0
M  V30 5009 H 492.799 0.73493 1.75211 0
M  V30 5010 H 490.949 -0.610648 3.83671 0
M  V30 5011 H 492.621 1.97806 4.16738 0
M  V30 5012 H 490.864 1.9226 3.88868 0
M  V30 5013 H 491.535 1.24857 5.37694 0
M  V30 5014 H 494.011 -0.240519 4.15404 0
M  V30 5015 H 492.887 -0.759622 5.43618 0
M  V30 5016 H 493.148 -1.79397 4.04066 0
M  V30 5017 N 492.207 -1.54576 0.307264 0
M  V30 5018 C 493.155 -2.25208 -0.581723 0
M  V30 5019 C 494.149 -1.26031 -1.13192 0
M  V30 5020 O 495.355 -1.43862 -1.08184 0
M  V30 5021 H 491.73 -0.723173 -0.206214 0
M  V30 5022 H 493.701 -2.98378 0.0364663 0
M  V30 5023 C 492.45 -3.01086 -1.73904 0
M  V30 5024 H 491.773 -3.77208 -1.32491 0
M  V30 5025 H 493.213 -3.5378 -2.33701 0
M  V30 5026 C 491.672 -2.08422 -2.64692 0
M  V30 5027 O 492.202 -1.65636 -3.65961 0
M  V30 5028 N 490.408 -1.74247 -2.32564 0
M  V30 5029 H 489.955 -2.09238 -1.50257 0
M  V30 5030 H 489.913 -1.12524 -2.93574 0
M  V30 5031 N 493.685 -0.035106 -1.57561 0
M  V30 5032 C 494.615 0.942993 -2.13612 0
M  V30 5033 C 495.596 1.33531 -1.05373 0
M  V30 5034 O 496.781 1.41287 -1.33235 0
M  V30 5035 C 493.911 2.22332 -2.66807 0
M  V30 5036 C 492.865 1.97156 -3.79886 0
M  V30 5037 C 492.191 3.31506 -4.19533 0
M  V30 5038 C 493.491 1.30596 -5.05709 0
M  V30 5039 H 495.185 0.476179 -2.95589 0
M  V30 5040 H 492.731 0.227602 -1.4219 0
M  V30 5041 H 494.684 2.91142 -3.04654 0
M  V30 5042 H 493.408 2.7119 -1.81999 0
M  V30 5043 H 492.067 1.30763 -3.42486 0
M  V30 5044 H 491.715 3.78134 -3.31698 0
M  V30 5045 H 491.415 3.15465 -4.95738 0
M  V30 5046 H 492.939 4.01574 -4.59968 0
M  V30 5047 H 494.353 1.89416 -5.41105 0
M  V30 5048 H 492.75 1.24934 -5.86951 0
M  V30 5049 H 493.82 0.279742 -4.84092 0
M  V30 5050 N 495.163 1.55791 0.238111 0
M  V30 5051 C 496.412 1.77234 0.962868 0
M  V30 5052 C 496.725 0.600661 1.86149 0
M  V30 5053 O 497.931 0.698315 2.62366 0
M  V30 5054 C 496.387 3.13808 1.76218 0
M  V30 5055 C 495.995 4.3865 0.910518 0
M  V30 5056 C 497.739 3.44585 2.47914 0
M  V30 5057 C 495.646 5.66252 1.70623 0
M  V30 5058 H 494.576 0.660731 0.36325 0
M  V30 5059 H 497.227 1.8221 0.217242 0
M  V30 5060 H 495.609 3.02963 2.55009 0
M  V30 5061 H 496.783 4.60507 0.164316 0
M  V30 5062 H 495.098 4.15271 0.30647 0
M  V30 5063 H 497.695 4.3714 3.07917 0
M  V30 5064 H 498.038 2.66314 3.19973 0
M  V30 5065 H 498.571 3.56685 1.76127 0
M  V30 5066 H 495.31 6.47369 1.02923 0
M  V30 5067 H 494.83 5.48483 2.42748 0
M  V30 5068 H 496.509 6.05829 2.27114 0
M  V30 5069 N 496.642 -0.504142 1.49319 0
M  V30 5070 C 497.867 -1.28729 1.62615 0
M  V30 5071 C 498.292 -1.85752 0.296309 0
M  V30 5072 O 497.65 -1.65704 -0.735649 0
M  V30 5073 C 497.698 -2.39561 2.69524 0
M  V30 5074 O 496.802 -3.43324 2.28478 0
M  V30 5075 H 496.143 -0.380172 0.544395 0
M  V30 5076 H 498.673 -0.603872 1.95485 0
M  V30 5077 H 498.683 -2.8537 2.91595 0
M  V30 5078 H 497.358 -1.97423 3.66056 0
M  V30 5079 H 495.935 -3.03455 2.16725 0
M  V30 5080 N 498.12 -1.38341 -0.754957 0
M  V30 5081 C 499.345 -1.37882 -1.5493 0
M  V30 5082 C 499.77 0.0296385 -1.88077 0
M  V30 5083 O 499.128 1.01133 -1.50472 0
M  V30 5084 C 499.176 -2.23996 -2.82592 0
M  V30 5085 O 498.28 -1.65612 -3.77686 0
M  V30 5086 H 497.621 -0.470384 -0.468652 0
M  V30 5087 H 500.151 -1.82084 -0.933082 0
M  V30 5088 H 500.161 -2.37806 -3.3153 0
M  V30 5089 H 498.836 -3.26365 -2.57796 0
M  V30 5090 H 497.413 -1.60936 -3.36384 0
M  V30 5091 N 499.598 0.982988 -1.23187 0
M  V30 5092 C 500.844 1.72648 -1.06398 0
M  V30 5093 C 501.177 1.90066 0.398561 0
M  V30 5094 O 500.452 1.45105 1.29518 0
M  V30 5095 C 500.735 3.12627 -1.78707 0
M  V30 5096 C 500.588 3.02795 -3.32618 0
M  V30 5097 C 501.907 4.11997 -1.54747 0
M  V30 5098 H 499.026 0.626649 -0.387918 0
M  V30 5099 H 501.668 1.14455 -1.51658 0
M  V30 5100 H 499.818 3.62308 -1.40234 0
M  V30 5101 H 501.49 2.60659 -3.80598 0
M  V30 5102 H 499.733 2.39362 -3.61785 0
M  V30 5103 H 500.404 4.01893 -3.78399 0
M  V30 5104 H 502.88 3.71114 -1.88186 0
M  V30 5105 H 501.756 5.08037 -2.07821 0
M  V30 5106 H 502.017 4.39462 -0.482249 0
M  V30 5107 N 501.076 1.04316 1.18135 0
M  V30 5108 C 502.024 0.630175 2.23901 0
M  V30 5109 C 503.018 -0.344254 1.65865 0
M  V30 5110 O 504.224 -0.211273 1.78756 0
M  V30 5111 H 500.599 0.185578 0.728742 0
M  V30 5112 H 502.57 1.53253 2.56039 0
M  V30 5113 C 501.319 0.011666 3.47698 0
M  V30 5114 H 500.642 0.752526 3.92654 0
M  V30 5115 H 502.082 -0.240046 4.2332 0
M  V30 5116 C 500.541 -1.23913 3.13285 0
M  V30 5117 O 501.071 -2.32959 3.27251 0
M  V30 5118 N 499.277 -1.13338 2.67587 0
M  V30 5119 H 498.824 -0.246006 2.56423 0
M  V30 5120 H 498.782 -1.97116 2.44934 0
M  V30 5121 N 502.554 -1.34406 0.822964 0
M  V30 5122 C 503.802 -1.97892 0.410245 0
M  V30 5123 C 504.123 -1.65567 -1.03017 0
M  V30 5124 O 503.393 -0.94642 -1.71522 0
M  V30 5125 H 501.973 -0.732049 0.148707 0
M  V30 5126 H 504.635 -1.64043 1.05242 0
M  V30 5127 H 503.731 -3.07579 0.529284 0
M  V30 5128 N 504.032 -0.577932 -1.46621 0
M  V30 5129 C 505.26 -0.0671642 -2.06791 0
M  V30 5130 C 505.675 1.23571 -1.42743 0
M  V30 5131 O 505.032 1.74602 -0.531062 0
M  V30 5132 C 505.083 0.110357 -3.61332 0
M  V30 5133 O 504.804 -1.14095 -4.22982 0
M  V30 5134 C 506.305 0.656025 -4.38419 0
M  V30 5135 H 503.525 -0.0552732 -0.66872 0
M  V30 5136 H 506.069 -0.797242 -1.8832 0
M  V30 5137 H 504.224 0.790637 -3.79246 0
M  V30 5138 H 504.638 -0.951742 -5.15793 0
M  V30 5139 H 506.112 0.729438 -5.47159 0
M  V30 5140 H 506.589 1.67195 -4.06131 0
M  V30 5141 H 507.195 0.0107692 -4.25299 0
M  V30 5142 N 505.51 1.54411 -0.315457 0
M  V30 5143 C 506.735 2.05299 0.294496 0
M  V30 5144 C 507.16 1.19052 1.4563 0
M  V30 5145 O 506.518 0.197804 1.80218 0
M  V30 5146 C 506.566 3.5345 0.714549 0
M  V30 5147 O 505.67 3.70175 1.81781 0
M  V30 5148 H 505.011 0.661743 0.0547019 0
M  V30 5149 H 507.541 1.99327 -0.461508 0
M  V30 5150 H 507.551 3.9557 0.999426 0
M  V30 5151 H 506.226 4.1568 -0.135244 0
M  V30 5152 H 504.803 3.3996 1.53236 0
M  V30 5153 N 506.988 0.0434614 1.5754 0
M  V30 5154 C 508.234 -0.632971 1.92669 0
M  V30 5155 C 508.567 -1.70947 0.921446 0
M  V30 5156 O 507.842 -1.94426 -0.0537202 0
M  V30 5157 C 508.125 -1.23619 3.38216 0
M  V30 5158 C 507.978 -0.168274 4.49485 0
M  V30 5159 C 509.297 -2.15008 3.84005 0
M  V30 5160 H 506.416 -0.228629 0.700641 0
M  V30 5161 H 509.058 0.103651 1.89717 0
M  V30 5162 H 507.208 -1.864 3.40863 0
M  V30 5163 H 508.88 0.463196 4.58969 0
M  V30 5164 H 507.123 0.504581 4.30855 0
M  V30 5165 H 507.794 -0.630218 5.48391 0
M  V30 5166 H 510.27 -1.62198 3.83185 0
M  V30 5167 H 509.146 -2.54161 4.86511 0
M  V30 5168 H 509.407 -3.04707 3.20322 0
M  V30 5169 N 508.466 -1.55915 -0.229846 0
M  V30 5170 C 509.694 -1.82617 -0.972562 0
M  V30 5171 C 510.109 -0.621488 -1.78278 0
M  V30 5172 O 509.466 0.409956 -1.77836 0
M  V30 5173 C 509.517 -3.0774 -1.89679 0
M  V30 5174 O 509.238 -4.23559 -1.11934 0
M  V30 5175 C 510.739 -3.47368 -2.75409 0
M  V30 5176 H 507.959 -0.60727 -0.285419 0
M  V30 5177 H 510.503 -2.02996 -0.247579 0
M  V30 5178 H 508.658 -2.89361 -2.57583 0
M  V30 5179 H 509.072 -4.94586 -1.74599 0
M  V30 5180 H 510.546 -4.37977 -3.35977 0
M  V30 5181 H 511.023 -2.68737 -3.47386 0
M  V30 5182 H 511.629 -3.68158 -2.12931 0
M  V30 5183 N 509.944 0.496216 -1.49584 0
M  V30 5184 C 510.874 1.60576 -1.69521 0
M  V30 5185 C 511.855 1.61169 -0.543933 0
M  V30 5186 O 513.04 1.77834 -0.78031 0
M  V30 5187 C 510.17 2.99038 -1.76616 0
M  V30 5188 C 509.124 3.13312 -2.91581 0
M  V30 5189 C 508.45 4.53172 -2.83794 0
M  V30 5190 C 509.75 2.92886 -4.32452 0
M  V30 5191 H 511.444 1.44146 -2.62416 0
M  V30 5192 H 508.99 0.692024 -1.26282 0
M  V30 5193 H 510.943 3.76564 -1.8915 0
M  V30 5194 H 509.667 3.16568 -0.80324 0
M  V30 5195 H 508.326 2.38213 -2.78658 0
M  V30 5196 H 507.974 4.67585 -1.854 0
M  V30 5197 H 507.674 4.63662 -3.60958 0
M  V30 5198 H 509.198 5.32752 -2.98342 0
M  V30 5199 H 510.612 3.60178 -4.46032 0
M  V30 5200 H 509.009 3.14844 -5.10875 0
M  V30 5201 H 510.079 1.88966 -4.46565 0
M  V30 5202 N 511.423 1.38739 0.74761 0
M  V30 5203 C 512.333 1.38696 1.89211 0
M  V30 5204 C 513.349 0.283303 1.71678 0
M  V30 5205 O 514.525 0.522713 1.94498 0
M  V30 5206 C 511.59 1.21662 3.24653 0
M  V30 5207 C 510.651 2.41886 3.54669 0
M  V30 5208 C 509.884 2.25655 4.83648 0
M  V30 5209 O 510.107 1.25339 5.56459 0
M  V30 5210 O 509.041 3.14372 5.13277 0
M  V30 5211 H 512.867 2.35143 1.92202 0
M  V30 5212 H 510.452 1.19721 0.893708 0
M  V30 5213 H 512.334 1.14246 4.05618 0
M  V30 5214 H 511.009 0.283024 3.2246 0
M  V30 5215 H 509.916 2.54877 2.73841 0
M  V30 5216 H 511.249 3.33895 3.61628 0
M  V30 5217 N 512.901 -0.976442 1.23707 0
M  V30 5218 C 514.147 -1.72158 1.08319 0
M  V30 5219 C 514.502 -1.88701 -0.375445 0
M  V30 5220 O 513.795 -1.43107 -1.274 0
M  V30 5221 C 513.989 -3.11814 1.74662 0
M  V30 5222 C 513.818 -3.08892 3.26827 0
M  V30 5223 C 512.588 -3.13861 3.96004 0
M  V30 5224 C 514.786 -2.9175 4.2354 0
M  V30 5225 N 512.768 -3.00867 5.35119 0
M  V30 5226 C 514.139 -2.8696 5.49595 0
M  V30 5227 C 516.194 -2.76265 4.14225 0
M  V30 5228 C 514.897 -2.68268 6.67401 0
M  V30 5229 C 516.923 -2.58938 5.317 0
M  V30 5230 C 516.285 -2.54849 6.56682 0
M  V30 5231 H 512.384 -0.638896 0.450927 0
M  V30 5232 H 514.968 -1.15835 1.56494 0
M  V30 5233 H 513.139 -3.66347 1.29014 0
M  V30 5234 H 514.871 -3.74984 1.52215 0
M  V30 5235 H 511.626 -3.22198 3.4711 0
M  V30 5236 H 512.05 -2.97634 6.08065 0
M  V30 5237 H 516.692 -2.78213 3.18366 0
M  V30 5238 H 514.41 -2.65063 7.63392 0
M  V30 5239 H 517.996 -2.47914 5.26336 0
M  V30 5240 H 516.876 -2.41611 7.46052 0
M  V30 5241 N 514.379 -1.04941 -1.1758 0
M  V30 5242 C 515.342 -0.652456 -2.19717 0
M  V30 5243 C 516.342 0.294745 -1.58076 0
M  V30 5244 O 517.532 0.0789579 -1.74021 0
M  V30 5245 C 514.664 0.0420712 -3.40874 0
M  V30 5246 H 515.857 -1.55642 -2.5635 0
M  V30 5247 H 513.41 -0.842995 -1.31618 0
M  V30 5248 H 514.145 0.95943 -3.09783 0
M  V30 5249 H 513.93 -0.638844 -3.86861 0
M  V30 5250 H 515.42 0.306 -4.16477 0
M  V30 5251 N 515.857 1.33968 -0.830081 0
M  V30 5252 C 517.268 1.80439 -0.479455 0
M  V30 5253 C 517.619 1.68756 1.00079 0
M  V30 5254 O 516.744 1.23171 1.77927 0
M  V30 5255 C 517.339 3.27611 -0.863505 0
M  V30 5256 C 515.898 3.72133 -0.565145 0
M  V30 5257 C 515.045 2.55549 -1.07657 0
M  V30 5258 H 517.996 1.21614 -1.0196 0
M  V30 5259 H 518.017 3.8012 -0.170083 0
M  V30 5260 H 517.529 3.36082 -1.94089 0
M  V30 5261 H 515.63 3.69196 0.502536 0
M  V30 5262 H 515.743 4.65963 -1.11422 0
M  V30 5263 H 514.107 2.49788 -0.497807 0
M  V30 5264 H 514.89 2.66786 -2.16055 0
M  V30 5265 N 517.335 0.585699 1.46312 0
M  V30 5266 C 518.746 0.159938 1.86014 0
M  V30 5267 C 519.097 -1.27775 1.48889 0
M  V30 5268 O 518.222 -1.96559 0.90519 0
M  V30 5269 C 518.817 0.283485 3.37612 0
M  V30 5270 C 517.376 -0.0874256 3.76298 0
M  V30 5271 C 516.523 0.618055 2.70325 0
M  V30 5272 H 519.474 0.793737 1.37425 0
M  V30 5273 H 519.495 -0.490348 3.77327 0
M  V30 5274 H 519.007 1.32995 3.64601 0
M  V30 5275 H 517.108 -1.13391 3.54927 0
M  V30 5276 H 517.221 0.290975 4.78216 0
M  V30 5277 H 515.585 0.057993 2.54634 0
M  V30 5278 H 516.368 1.66623 3.00153 0
M  V30 5279 N 518.813 -1.54241 0.323641 0
M  V30 5280 C 519.743 -2.27289 -0.534993 0
M  V30 5281 C 520.724 -1.28087 -1.11927 0
M  V30 5282 O 521.909 -1.56899 -1.14439 0
M  V30 5283 C 519.039 -3.03075 -1.69596 0
M  V30 5284 C 517.993 -4.09614 -1.24098 0
M  V30 5285 C 517.319 -4.73242 -2.4889 0
M  V30 5286 C 518.619 -5.21087 -0.355789 0
M  V30 5287 H 520.313 -2.99308 0.0743257 0
M  V30 5288 H 517.859 -1.43952 0.0371874 0
M  V30 5289 H 519.812 -3.52907 -2.30293 0
M  V30 5290 H 518.536 -2.28673 -2.33187 0
M  V30 5291 H 517.195 -3.60666 -0.656945 0
M  V30 5292 H 516.843 -3.95455 -3.10845 0
M  V30 5293 H 516.543 -5.45209 -2.19138 0
M  V30 5294 H 518.067 -5.25848 -3.10348 0
M  V30 5295 H 519.481 -5.66675 -0.869042 0
M  V30 5296 H 517.878 -5.9991 -0.151045 0
M  V30 5297 H 518.948 -4.81005 0.613339 0
M  V30 5298 N 520.291 -0.0518155 -1.57515 0
M  V30 5299 C 521.568 0.661727 -1.84067 0
M  V30 5300 C 521.948 1.88999 -0.940351 0
M  V30 5301 O 521.296 2.285 -0.00155404 0
M  V30 5302 C 521.506 1.01841 -3.3381 0
M  V30 5303 C 522.854 1.40043 -4.00841 0
M  V30 5304 O 523.878 1.11073 -3.38439 0
M  V30 5305 O 522.737 1.94111 -5.10865 0
M  V30 5306 H 519.831 0.326702 -0.759733 0
M  V30 5307 H 522.377 -0.0812277 -1.69505 0
M  V30 5308 H 521.149 0.145202 -3.91031 0
M  V30 5309 H 520.772 1.81879 -3.53562 0
M  V30 5310 N 521.769 1.56035 0.221574 0
M  V30 5311 C 523.18 1.69229 0.788567 0
M  V30 5312 C 523.531 0.653814 1.84986 0
M  V30 5313 O 522.656 -0.195065 2.15519 0
M  V30 5314 C 523.251 3.06809 1.43713 0
M  V30 5315 C 521.81 3.21858 1.95152 0
M  V30 5316 C 520.957 2.65155 0.811685 0
M  V30 5317 H 523.908 1.587 -0.00307894 0
M  V30 5318 H 523.929 3.02666 2.30594 0
M  V30 5319 H 523.441 3.82369 0.664475 0
M  V30 5320 H 521.542 2.51167 2.7522 0
M  V30 5321 H 521.655 4.29073 2.1315 0
M  V30 5322 H 520.019 2.23635 1.21899 0
M  V30 5323 H 520.802 3.43261 0.0516987 0
M  V30 5324 N 523.247 -0.488276 1.49845 0
M  V30 5325 C 524.495 -1.23911 1.59657 0
M  V30 5326 C 524.816 -1.92816 0.291005 0
M  V30 5327 O 524.086 -1.83328 -0.690485 0
M  V30 5328 H 522.666 -0.460357 0.588286 0
M  V30 5329 H 525.328 -0.564794 1.86537 0
M  V30 5330 H 524.424 -1.99625 2.39909 0
M  V30 5331 N 524.725 -1.39134 -0.740242 0
M  V30 5332 C 525.973 -1.35803 -1.49673 0
M  V30 5333 C 526.294 0.0470897 -1.94943 0
M  V30 5334 O 525.564 0.997347 -1.68611 0
M  V30 5335 H 524.144 -0.499736 -0.555224 0
M  V30 5336 H 526.806 -1.73947 -0.879107 0
M  V30 5337 H 525.902 -2.0174 -2.38133 0
M  V30 5338 N 526.204 0.969867 -1.24223 0
M  V30 5339 C 527.62 1.23809 -1.00716 0
M  V30 5340 C 527.82 1.99469 0.285358 0
M  V30 5341 O 526.876 2.31764 1.00207 0
M  V30 5342 C 528.189 2.02734 -2.2208 0
M  V30 5343 C 529.737 2.15834 -2.26681 0
M  V30 5344 C 530.212 2.98154 -3.47661 0
M  V30 5345 N 531.703 3.05737 -3.47964 0
M  V30 5346 C 532.438 3.69785 -4.38231 0
M  V30 5347 N 531.934 4.35569 -5.3875 0
M  V30 5348 N 533.727 3.66775 -4.25949 0
M  V30 5349 H 525.878 0.463294 -2.07286 0
M  V30 5350 H 528.141 0.267348 -0.909521 0
M  V30 5351 H 527.847 1.54524 -3.15935 0
M  V30 5352 H 527.721 3.0347 -2.24021 0
M  V30 5353 H 530.108 2.63248 -1.33359 0
M  V30 5354 H 530.189 1.14453 -2.28767 0
M  V30 5355 H 529.833 2.51435 -4.41297 0
M  V30 5356 H 529.763 3.99729 -3.42818 0
M  V30 5357 H 532.254 2.58941 -2.75242 0
M  V30 5358 H 532.567 4.82251 -6.03866 0
M  V30 5359 H 530.912 4.34244 -5.42639 0
M  V30 5360 H 534.103 3.14558 -3.46657 0
M  V30 5361 H 534.276 4.16407 -4.96497 0
M  V30 5362 N 527.682 1.05563 1.17022 0
M  V30 5363 C 528.907 0.788437 1.91829 0
M  V30 5364 C 529.332 -0.650356 1.76499 0
M  V30 5365 O 528.69 -1.45229 1.08527 0
M  V30 5366 C 528.738 1.1786 3.40795 0
M  V30 5367 O 527.842 0.312965 4.11211 0
M  V30 5368 H 527.183 0.288794 0.597908 0
M  V30 5369 H 529.713 1.40948 1.48307 0
M  V30 5370 H 529.723 1.14697 3.91546 0
M  V30 5371 H 528.398 2.22666 3.51273 0
M  V30 5372 H 526.975 0.405515 3.70689 0
M  V30 5373 N 529.16 -1.33526 0.837174 0
M  V30 5374 C 530.437 -1.92369 0.354065 0
M  V30 5375 C 530.817 -1.76348 -1.16038 0
M  V30 5376 O 530.165 -1.15083 -1.97403 0
M  V30 5377 C 530.375 -3.39728 0.799101 0
M  V30 5378 C 531.723 -4.16877 0.806139 0
M  V30 5379 O 532.747 -3.48373 0.742597 0
M  V30 5380 O 531.606 -5.39166 0.892345 0
M  V30 5381 H 528.7 -0.820952 0.0998378 0
M  V30 5382 H 531.246 -1.42409 0.922913 0
M  V30 5383 H 530.018 -3.45254 1.84162 0
M  V30 5384 H 529.641 -3.97062 0.206731 0
M  V30 5385 N 530.638 -0.59345 -1.46 0
M  V30 5386 C 531.887 -0.0808084 -2.01538 0
M  V30 5387 C 532.2 1.29112 -1.46934 0
M  V30 5388 O 533.406 1.8957 -1.94359 0
M  V30 5389 C 531.862 -0.0938311 -3.59778 0
M  V30 5390 C 531.47 -1.46474 -4.23379 0
M  V30 5391 C 533.214 0.364306 -4.22934 0
M  V30 5392 C 531.121 -1.4349 -5.73729 0
M  V30 5393 H 530.051 -0.0264407 -0.753536 0
M  V30 5394 H 532.702 -0.746689 -1.67621 0
M  V30 5395 H 531.084 0.638427 -3.9082 0
M  V30 5396 H 532.258 -2.21758 -4.03931 0
M  V30 5397 H 530.573 -1.86379 -3.7236 0
M  V30 5398 H 533.17 0.405584 -5.3316 0
M  V30 5399 H 533.513 1.38409 -3.92618 0
M  V30 5400 H 534.046 -0.31423 -3.96557 0
M  V30 5401 H 530.785 -2.43184 -6.08722 0
M  V30 5402 H 530.305 -0.724431 -5.95409 0
M  V30 5403 H 531.984 -1.15243 -6.36654 0
M  V30 5404 N 532.116 1.54067 -0.331816 0
M  V30 5405 C 533.344 2.05131 0.269996 0
M  V30 5406 C 533.759 1.20749 1.45138 0
M  V30 5407 O 533.116 0.240069 1.80914 0
M  V30 5408 C 533.167 3.54728 0.696456 0
M  V30 5409 O 532.888 4.35906 -0.43794 0
M  V30 5410 C 534.389 4.21916 1.36021 0
M  V30 5411 H 531.609 0.668807 0.0542042 0
M  V30 5412 H 534.153 1.98777 -0.4804 0
M  V30 5413 H 532.308 3.61342 1.39681 0
M  V30 5414 H 532.722 5.24404 -0.100334 0
M  V30 5415 H 534.196 5.28015 1.60947 0
M  V30 5416 H 534.673 3.73538 2.31011 0
M  V30 5417 H 535.279 4.19463 0.702212 0
M  V30 5418 N 533.594 0.0601682 1.57485 0
M  V30 5419 C 534.824 -0.620037 1.97076 0
M  V30 5420 C 535.232 -1.64381 0.936784 0
M  V30 5421 O 534.575 -1.83497 -0.0863377 0
M  V30 5422 C 534.637 -1.35617 3.32939 0
M  V30 5423 C 534.301 -0.487208 4.54396 0
M  V30 5424 C 535.298 0.250428 5.19297 0
M  V30 5425 C 532.983 -0.415494 5.00579 0
M  V30 5426 C 534.977 1.04812 6.28723 0
M  V30 5427 C 532.664 0.385879 6.0988 0
M  V30 5428 C 533.662 1.11637 6.73815 0
M  V30 5429 O 533.35 1.90454 7.81014 0
M  V30 5430 H 533.082 -0.173664 0.653312 0
M  V30 5431 H 535.636 0.1256 2.05016 0
M  V30 5432 H 533.866 -2.14763 3.2158 0
M  V30 5433 H 535.555 -1.92749 3.57215 0
M  V30 5434 H 536.321 0.204546 4.84568 0
M  V30 5435 H 532.2 -0.973679 4.506 0
M  V30 5436 H 535.744 1.6188 6.78558 0
M  V30 5437 H 531.641 0.433366 6.44044 0
M  V30 5438 H 532.409 1.82762 7.97835 0
M  V30 5439 N 535.072 -1.5615 -0.213296 0
M  V30 5440 C 536.02 -1.93953 -1.28394 0
M  V30 5441 C 537.014 -0.822592 -1.48087 0
M  V30 5442 O 538.22 -1.00748 -1.49164 0
M  V30 5443 H 534.595 -0.61648 -0.430646 0
M  V30 5444 H 536.566 -2.83275 -0.937977 0
M  V30 5445 C 535.315 -2.27969 -2.62537 0
M  V30 5446 H 534.638 -3.13432 -2.48194 0
M  V30 5447 H 536.078 -2.58297 -3.36242 0
M  V30 5448 C 534.537 -1.10775 -3.18167 0
M  V30 5449 O 535.067 -0.373201 -3.99963 0
M  V30 5450 N 533.273 -0.889377 -2.76656 0
M  V30 5451 H 532.82 -1.48843 -2.10246 0
M  V30 5452 H 532.778 -0.107 -3.14218 0
M  V30 5453 N 536.55 0.480323 -1.50102 0
M  V30 5454 C 537.513 1.56181 -1.6775 0
M  V30 5455 C 538.513 1.51156 -0.548503 0
M  V30 5456 O 539.703 1.5394 -0.815363 0
M  V30 5457 C 536.835 2.95823 -1.69415 0
M  V30 5458 H 538.028 1.41855 -2.6423 0
M  V30 5459 H 535.581 0.70605 -1.39444 0
M  V30 5460 H 536.316 3.15604 -0.745948 0
M  V30 5461 H 536.101 3.00878 -2.51425 0
M  V30 5462 H 537.591 3.74359 -1.85054 0
M  V30 5463 N 538.028 1.39524 0.732853 0
M  V30 5464 C 539.274 1.37068 1.49467 0
M  V30 5465 C 539.607 -0.0327166 1.94172 0
M  V30 5466 O 538.882 -0.998071 1.66939 0
M  V30 5467 C 539.165 2.34494 2.73285 0
M  V30 5468 C 539.018 3.83784 2.34585 0
M  V30 5469 C 540.337 2.29717 3.75391 0
M  V30 5470 H 537.456 0.499206 0.542183 0
M  V30 5471 H 540.098 1.70532 0.837783 0
M  V30 5472 H 538.248 2.06087 3.29333 0
M  V30 5473 H 539.92 4.22949 1.84151 0
M  V30 5474 H 538.163 4.00455 1.66787 0
M  V30 5475 H 538.834 4.47444 3.23262 0
M  V30 5476 H 541.31 2.54839 3.28932 0
M  V30 5477 H 540.186 2.99962 4.59689 0
M  V30 5478 H 540.447 1.30291 4.22465 0
M  V30 5479 N 539.506 -0.963266 1.24736 0
M  V30 5480 C 540.746 -1.72172 1.10165 0
M  V30 5481 C 541.11 -1.88731 -0.352784 0
M  V30 5482 O 542.311 -2.61549 -0.620107 0
M  V30 5483 C 540.582 -3.0724 1.82589 0
M  V30 5484 S 542.141 -3.98449 1.83803 0
M  V30 5485 H 538.959 -0.591901 0.393922 0
M  V30 5486 H 541.561 -1.14955 1.58132 0
M  V30 5487 H 540.265 -2.92851 2.87518 0
M  V30 5488 H 539.796 -3.69521 1.34973 0
M  V30 5489 H 541.811 -4.87805 0.908883 0
M  V30 5490 N 540.985 -1.06182 -1.16461 0
M  V30 5491 C 542.401 -0.785065 -1.38956 0
M  V30 5492 C 542.601 0.616103 -1.9185 0
M  V30 5493 O 541.657 1.37686 -2.11657 0
M  V30 5494 C 542.97 -1.84902 -2.37132 0
M  V30 5495 C 544.518 -1.8724 -2.50819 0
M  V30 5496 C 544.993 -2.92686 -3.52277 0
M  V30 5497 N 546.484 -2.91712 -3.59803 0
M  V30 5498 C 547.219 -3.69949 -4.38093 0
M  V30 5499 N 546.715 -4.58 -5.19815 0
M  V30 5500 N 548.508 -3.58346 -4.33064 0
M  V30 5501 H 540.659 -1.96569 -0.804634 0
M  V30 5502 H 542.922 -0.851747 -0.416211 0
M  V30 5503 H 542.628 -2.85518 -2.0536 0
M  V30 5504 H 542.502 -1.69908 -3.36766 0
M  V30 5505 H 544.889 -0.872827 -2.81897 0
M  V30 5506 H 544.97 -2.06311 -1.51226 0
M  V30 5507 H 544.614 -3.92835 -3.21937 0
M  V30 5508 H 544.544 -2.70864 -4.51598 0
M  V30 5509 H 547.035 -2.27876 -3.01464 0
M  V30 5510 H 547.348 -5.14357 -5.76764 0
M  V30 5511 H 545.693 -4.62056 -5.19162 0
M  V30 5512 H 548.884 -2.88943 -3.68279 0
M  V30 5513 H 549.057 -4.19563 -4.93833 0
M  V30 5514 N 542.463 1.3308 -0.844243 0
M  V30 5515 C 543.879 1.50447 -0.532729 0
M  V30 5516 C 544.079 1.78292 0.938837 0
M  V30 5517 O 543.135 1.84635 1.72239 0
M  V30 5518 C 544.448 2.65555 -1.41072 0
M  V30 5519 C 545.996 2.7944 -1.41005 0
M  V30 5520 C 546.471 3.97616 -2.27301 0
M  V30 5521 N 547.962 4.0486 -2.2504 0
M  V30 5522 C 548.697 4.95508 -2.88547 0
M  V30 5523 N 548.193 5.91236 -3.61126 0
M  V30 5524 N 549.986 4.88548 -2.77989 0
M  V30 5525 H 542.137 1.13269 -1.79677 0
M  V30 5526 H 544.4 0.55734 -0.766861 0
M  V30 5527 H 544.106 2.51675 -2.45668 0
M  V30 5528 H 543.98 3.61089 -1.09061 0
M  V30 5529 H 546.367 2.92749 -0.371784 0
M  V30 5530 H 546.448 1.8465 -1.77026 0
M  V30 5531 H 546.092 3.85066 -3.3119 0
M  V30 5532 H 546.022 4.91661 -1.88619 0
M  V30 5533 H 548.513 3.36353 -1.72264 0
M  V30 5534 H 548.826 6.57079 -4.06776 0
M  V30 5535 H 547.171 5.91295 -3.65234 0
M  V30 5536 H 550.362 4.12729 -2.20846 0
M  V30 5537 H 550.535 5.58994 -3.27765 0
M  V30 5538 N 543.941 0.601185 1.45683 0
M  V30 5539 C 545.181 0.0968037 2.04171 0
M  V30 5540 C 545.545 -1.2466 1.46027 0
M  V30 5541 O 546.746 -1.84132 1.95829 0
M  V30 5542 C 545.017 0.051384 3.57363 0
M  V30 5543 S 546.576 -0.392737 4.37039 0
M  V30 5544 H 543.394 0.0464504 0.709481 0
M  V30 5545 H 545.996 0.797846 1.78479 0
M  V30 5546 H 544.7 1.03274 3.97193 0
M  V30 5547 H 544.231 -0.671853 3.87621 0
M  V30 5548 H 546.246 -1.64364 4.68187 0
M  V30 5549 N 545.419 -1.53889 0.339982 0
M  V30 5550 C 546.83 -1.86139 -0.144671 0
M  V30 5551 C 547.181 -1.2613 -1.50285 0
M  V30 5552 O 546.306 -0.573515 -2.08662 0
M  V30 5553 C 546.901 -3.37728 -0.269285 0
M  V30 5554 C 545.46 -3.69868 -0.698168 0
M  V30 5555 C 544.607 -2.76777 0.170249 0
M  V30 5556 H 547.558 -1.48503 0.559704 0
M  V30 5557 H 547.579 -3.64331 -1.0974 0
M  V30 5558 H 547.091 -3.81375 0.719366 0
M  V30 5559 H 545.192 -3.31764 -1.69597 0
M  V30 5560 H 545.305 -4.76582 -0.490533 0
M  V30 5561 H 543.669 -2.52188 -0.356844 0
M  V30 5562 H 544.452 -3.23253 1.15597 0
M  V30 5563 N 546.897 -0.0685191 -1.57451 0
M  V30 5564 C 548.143 0.596247 -1.94465 0
M  V30 5565 C 548.498 1.67417 -0.948117 0
M  V30 5566 O 547.791 1.91576 0.0301056 0
M  V30 5567 C 547.985 1.22051 -3.35914 0
M  V30 5568 C 547.814 0.204586 -4.49234 0
M  V30 5569 C 546.584 -0.20959 -5.04865 0
M  V30 5570 C 548.782 -0.556872 -5.11276 0
M  V30 5571 N 546.764 -1.21656 -6.01725 0
M  V30 5572 C 548.135 -1.41642 -6.03604 0
M  V30 5573 C 550.19 -0.613297 -4.94108 0
M  V30 5574 C 548.893 -2.32737 -6.80607 0
M  V30 5575 C 550.919 -1.51174 -5.71752 0
M  V30 5576 C 550.281 -2.35898 -6.63726 0
M  V30 5577 H 546.38 0.189307 -0.75874 0
M  V30 5578 H 548.964 -0.144899 -1.9416 0
M  V30 5579 H 547.135 1.9316 -3.36963 0
M  V30 5580 H 548.867 1.84548 -3.60172 0
M  V30 5581 H 545.622 0.172871 -4.73284 0
M  V30 5582 H 546.046 -1.71746 -6.54853 0
M  V30 5583 H 550.688 0.0275228 -4.22791 0
M  V30 5584 H 548.406 -2.97856 -7.51204 0
M  V30 5585 H 551.992 -1.5602 -5.6049 0
M  V30 5586 H 550.872 -3.04291 -7.22756 0
M  V30 5587 N 548.375 1.56261 0.205012 0
M  V30 5588 C 549.338 1.92908 1.23771 0
M  V30 5589 C 550.338 0.809208 1.38955 0
M  V30 5590 O 551.528 1.07676 1.36936 0
M  V30 5591 C 548.66 2.19442 2.60879 0
M  V30 5592 H 549.853 2.85287 0.924728 0
M  V30 5593 H 547.406 1.49798 0.446125 0
M  V30 5594 H 548.141 1.29668 2.97248 0
M  V30 5595 H 547.926 3.0104 2.51232 0
M  V30 5596 H 549.416 2.48833 3.35368 0
M  V30 5597 N 549.853 -0.472356 1.50355 0
M  V30 5598 C 550.783 -1.57859 1.72055 0
M  V30 5599 C 551.764 -1.60283 0.569505 0
M  V30 5600 O 552.949 -1.7657 0.808503 0
M  V30 5601 C 550.079 -2.96191 1.81351 0
M  V30 5602 C 549.033 -3.08633 2.96529 0
M  V30 5603 C 548.359 -4.486 2.90968 0
M  V30 5604 C 549.659 -2.85969 4.37057 0
M  V30 5605 H 551.353 -1.39953 2.64676 0
M  V30 5606 H 548.899 -0.671846 1.27367 0
M  V30 5607 H 550.852 -3.73507 1.95117 0
M  V30 5608 H 549.576 -3.15251 0.853502 0
M  V30 5609 H 548.235 -2.33749 2.82413 0
M  V30 5610 H 547.883 -4.64577 1.92815 0
M  V30 5611 H 547.583 -4.57861 3.68289 0
M  V30 5612 H 549.107 -5.27938 3.0678 0
M  V30 5613 H 550.521 -3.53036 4.51706 0
M  V30 5614 H 548.918 -3.06677 5.15819 0
M  V30 5615 H 549.988 -1.81838 4.49514 0
M  V30 5616 N 551.331 -1.39911 -0.725443 0
M  V30 5617 C 552.556 -1.41137 -1.5197 0
M  V30 5618 C 552.981 -0.010262 -1.88097 0
M  V30 5619 O 552.339 0.979184 -1.52583 0
M  V30 5620 C 552.387 -2.2994 -2.77777 0
M  V30 5621 O 551.491 -1.73586 -3.74088 0
M  V30 5622 H 550.832 -0.480219 -0.458569 0
M  V30 5623 H 553.362 -1.84023 -0.894249 0
M  V30 5624 H 553.372 -2.44785 -3.26411 0
M  V30 5625 H 552.047 -3.31759 -2.50816 0
M  V30 5626 H 550.624 -1.68035 -3.32894 0
M  V30 5627 N 552.809 0.956637 -1.25245 0
M  V30 5628 C 554.225 1.22733 -1.02023 0
M  V30 5629 C 554.425 1.99761 0.264186 0
M  V30 5630 O 553.481 2.32814 0.977436 0
M  V30 5631 C 554.794 2.00367 -2.24217 0
M  V30 5632 C 556.342 2.13418 -2.28958 0
M  V30 5633 C 556.817 2.9445 -3.50803 0
M  V30 5634 N 558.308 3.02029 -3.51187 0
M  V30 5635 C 559.043 3.65116 -4.42129 0
M  V30 5636 N 558.539 4.2983 -5.43339 0
M  V30 5637 N 560.332 3.62237 -4.29815 0
M  V30 5638 H 552.483 0.441282 -2.07765 0
M  V30 5639 H 554.746 0.257686 -0.912306 0
M  V30 5640 H 554.452 1.51165 -3.17556 0
M  V30 5641 H 554.326 3.01077 -2.27228 0
M  V30 5642 H 556.713 2.61819 -1.36143 0
M  V30 5643 H 556.794 1.1202 -2.29968 0
M  V30 5644 H 556.438 2.46741 -4.43939 0
M  V30 5645 H 556.368 3.9607 -3.47039 0
M  V30 5646 H 558.859 2.56007 -2.77973 0
M  V30 5647 H 559.172 4.75819 -6.08947 0
M  V30 5648 H 557.517 4.28465 -5.47214 0
M  V30 5649 H 560.708 3.10863 -3.49974 0
M  V30 5650 H 560.881 4.11117 -5.00886 0
M  V30 5651 N 554.287 1.06798 1.15896 0
M  V30 5652 C 555.527 0.797041 1.8822 0
M  V30 5653 C 555.891 -0.664549 1.80133 0
M  V30 5654 O 557.092 -1.0503 2.47431 0
M  V30 5655 C 555.363 1.28431 3.33527 0
M  V30 5656 S 556.922 1.14319 4.23647 0
M  V30 5657 H 553.74 0.288988 0.649621 0
M  V30 5658 H 556.342 1.36594 1.39865 0
M  V30 5659 H 555.046 2.34286 3.36954 0
M  V30 5660 H 554.577 0.710371 3.86933 0
M  V30 5661 H 556.592 0.0772467 4.9614 0
M  V30 5662 N 555.766 -1.3263 0.851289 0
M  V30 5663 C 556.676 -2.32722 0.296268 0
M  V30 5664 C 557.692 -1.63901 -0.584162 0
M  V30 5665 O 558.868 -1.95465 -0.485334 0
M  V30 5666 C 555.933 -3.42942 -0.509103 0
M  V30 5667 C 554.994 -4.2746 0.397069 0
M  V30 5668 C 554.227 -5.32416 -0.36996 0
M  V30 5669 O 554.45 -5.47491 -1.6003 0
M  V30 5670 O 553.384 -6.01327 0.262493 0
M  V30 5671 H 557.21 -2.82078 1.12543 0
M  V30 5672 H 554.795 -1.36194 0.614135 0
M  V30 5673 H 556.677 -4.1017 -0.96634 0
M  V30 5674 H 555.352 -2.95781 -1.31512 0
M  V30 5675 H 554.259 -3.63053 0.902411 0
M  V30 5676 H 555.592 -4.78136 1.16818 0
M  V30 5677 N 557.244 -0.608902 -1.45362 0
M  V30 5678 C 558.207 0.0992563 -2.28985 0
M  V30 5679 C 559.207 0.793841 -1.39838 0
M  V30 5680 O 560.397 0.641804 -1.61946 0
M  V30 5681 C 557.529 1.15073 -3.20891 0
M  V30 5682 H 558.722 -0.635964 -2.93079 0
M  V30 5683 H 556.275 -0.368007 -1.51906 0
M  V30 5684 H 557.01 1.91667 -2.616 0
M  V30 5685 H 556.795 0.656867 -3.86559 0
M  V30 5686 H 558.285 1.64665 -3.83765 0
M  V30 5687 N 558.722 1.53707 -0.348139 0
M  V30 5688 C 559.962 2.02899 0.247254 0
M  V30 5689 C 560.326 1.23033 1.47401 0
M  V30 5690 O 561.527 1.62146 2.14388 0
M  V30 5691 C 559.798 3.53156 0.549151 0
M  V30 5692 S 561.357 4.24247 1.1207 0
M  V30 5693 H 558.175 0.707213 0.0732894 0
M  V30 5694 H 560.777 1.89338 -0.486965 0
M  V30 5695 H 559.481 4.08893 -0.351435 0
M  V30 5696 H 559.012 3.70845 1.31291 0
M  V30 5697 H 561.027 4.33958 2.40613 0
M  V30 5698 N 560.2 0.0768682 1.57412 0
M  V30 5699 C 561.448 -0.589918 1.93299 0
M  V30 5700 C 561.769 -1.69842 0.958049 0
M  V30 5701 O 561.039 -1.95899 0.00703261 0
M  V30 5702 H 559.619 -0.220901 0.713591 0
M  V30 5703 H 562.281 0.135917 1.94425 0
M  V30 5704 H 561.377 -1.01195 2.95239 0
M  V30 5705 N 561.678 -1.56367 -0.196722 0
M  V30 5706 C 562.903 -1.84991 -0.937714 0
M  V30 5707 C 563.328 -0.660244 -1.76132 0
M  V30 5708 O 562.686 0.390967 -1.77034 0
M  V30 5709 C 562.734 -3.11828 -1.81096 0
M  V30 5710 O 561.838 -2.92266 -2.90955 0
M  V30 5711 H 561.179 -0.609193 -0.264159 0
M  V30 5712 H 563.709 -2.03595 -0.202529 0
M  V30 5713 H 563.719 -3.42579 -2.21594 0
M  V30 5714 H 562.394 -3.98037 -1.2058 0
M  V30 5715 H 560.971 -2.72809 -2.54224 0
M  V30 5716 N 563.156 0.464375 -1.50603 0
M  V30 5717 C 564.404 1.21356 -1.61608 0
M  V30 5718 C 564.725 1.92329 -0.321643 0
M  V30 5719 O 563.995 1.84403 0.661232 0
M  V30 5720 H 562.575 0.45094 -0.595535 0
M  V30 5721 H 565.237 0.535046 -1.87412 0
M  V30 5722 H 564.333 1.95783 -2.43054 0
M  V30 5723 N 564.634 1.40294 0.718013 0
M  V30 5724 C 565.862 1.4175 1.50714 0
M  V30 5725 C 566.277 0.0165366 1.88793 0
M  V30 5726 O 565.634 -0.958942 1.55276 0
M  V30 5727 C 565.685 2.30598 2.784 0
M  V30 5728 O 565.406 3.6524 2.41932 0
M  V30 5729 C 566.907 2.4062 3.72313 0
M  V30 5730 H 564.127 0.483565 0.465194 0
M  V30 5731 H 566.671 1.84316 0.885889 0
M  V30 5732 H 564.826 1.91401 3.36815 0
M  V30 5733 H 565.24 4.12402 3.24076 0
M  V30 5734 H 566.714 3.07001 4.58753 0
M  V30 5735 H 567.191 1.4305 4.15251 0
M  V30 5736 H 567.797 2.80359 3.19811 0
M  V30 5737 N 566.112 -0.949982 1.2575 0
M  V30 5738 C 567.528 -1.22191 1.02672 0
M  V30 5739 C 567.728 -1.99898 -0.253588 0
M  V30 5740 O 566.784 -2.33329 -0.965076 0
M  V30 5741 C 568.097 -1.99175 2.25277 0
M  V30 5742 C 569.645 -2.12201 2.30087 0
M  V30 5743 C 570.12 -2.92586 3.5236 0
M  V30 5744 N 571.611 -3.00163 3.52784 0
M  V30 5745 C 572.346 -3.62766 4.44059 0
M  V30 5746 N 571.842 -4.26943 5.45611 0
M  V30 5747 N 573.635 -3.59953 4.3173 0
M  V30 5748 H 565.786 -0.430258 2.07996 0
M  V30 5749 H 568.049 -0.252844 0.91366 0
M  V30 5750 H 567.755 -1.49479 3.18354 0
M  V30 5751 H 567.629 -2.99868 2.28821 0
M  V30 5752 H 570.016 -2.61093 1.3753 0
M  V30 5753 H 570.097 -1.10799 2.30559 0
M  V30 5754 H 569.741 -2.44383 4.45241 0
M  V30 5755 H 569.671 -3.94224 3.49134 0
M  V30 5756 H 572.162 -2.54529 2.79327 0
M  V30 5757 H 572.475 -4.72583 6.11461 0
M  V30 5758 H 570.82 -4.25557 5.49478 0
M  V30 5759 H 574.011 -3.09003 3.51617 0
M  V30 5760 H 574.184 -4.08455 5.03059 0
M  V30 5761 N 567.59 -1.07411 -1.15328 0
M  V30 5762 C 568.837 -0.797649 -1.86128 0
M  V30 5763 C 569.165 0.676298 -1.82364 0
M  V30 5764 O 568.42 1.51223 -1.24218 0
M  V30 5765 C 568.719 -1.25191 -3.34757 0
M  V30 5766 C 568.385 -2.73191 -3.58716 0
M  V30 5767 C 567.047 -3.13616 -3.64964 0
M  V30 5768 C 569.399 -3.68718 -3.6837 0
M  V30 5769 C 566.727 -4.48383 -3.78377 0
M  V30 5770 C 569.079 -5.03248 -3.83306 0
M  V30 5771 C 567.743 -5.43293 -3.878 0
M  V30 5772 H 567.013 -0.29188 -0.681092 0
M  V30 5773 H 569.66 -1.34524 -1.36292 0
M  V30 5774 H 567.965 -0.623712 -3.86804 0
M  V30 5775 H 569.662 -1.01489 -3.87945 0
M  V30 5776 H 566.252 -2.40898 -3.54494 0
M  V30 5777 H 570.436 -3.38614 -3.62842 0
M  V30 5778 H 565.692 -4.78877 -3.80114 0
M  V30 5779 H 569.866 -5.77142 -3.89718 0
M  V30 5780 H 567.493 -6.47721 -3.97946 0
M  V30 5781 N 569.068 1.32177 -0.85831 0
M  V30 5782 C 570.314 1.97417 -0.46417 0
M  V30 5783 C 570.647 1.67746 0.978514 0
M  V30 5784 O 569.922 0.967654 1.68721 0
M  V30 5785 C 570.205 3.53069 -0.708094 0
M  V30 5786 C 570.058 3.92357 -2.19946 0
M  V30 5787 C 571.377 4.39783 -0.166881 0
M  V30 5788 H 568.496 0.717097 -0.17012 0
M  V30 5789 H 571.138 1.56499 -1.07741 0
M  V30 5790 H 569.288 3.88054 -0.186128 0
M  V30 5791 H 570.96 3.67533 -2.78779 0
M  V30 5792 H 569.203 3.41384 -2.67656 0
M  V30 5793 H 569.874 5.00841 -2.32082 0
M  V30 5794 H 572.35 4.11556 -0.613285 0
M  V30 5795 H 571.226 5.47671 -0.367093 0
M  V30 5796 H 571.487 4.32196 0.930559 0
M  V30 5797 N 570.547 0.616602 1.45037 0
M  V30 5798 C 571.958 0.199359 1.85633 0
M  V30 5799 C 572.309 -1.24588 1.51566 0
M  V30 5800 O 571.434 -1.94594 0.94668 0
M  V30 5801 C 572.029 0.355033 3.36935 0
M  V30 5802 C 570.588 -0.00758748 3.76399 0
M  V30 5803 C 569.735 0.675256 2.68953 0
M  V30 5804 H 572.686 0.822708 1.3571 0
M  V30 5805 H 572.707 -0.410201 3.78282 0
M  V30 5806 H 572.219 1.40699 3.61698 0
M  V30 5807 H 570.32 -1.05837 3.57252 0
M  V30 5808 H 570.433 0.392346 4.77491 0
M  V30 5809 H 568.797 0.111992 2.54454 0
M  V30 5810 H 569.58 1.72952 2.96551 0
M  V30 5811 N 572.025 -1.5352 0.356285 0
M  V30 5812 C 572.957 -2.23009 -0.529127 0
M  V30 5813 C 573.97 -1.241 -1.05371 0
M  V30 5814 O 575.159 -1.50379 -0.961679 0
M  V30 5815 C 572.259 -2.90685 -1.74229 0
M  V30 5816 C 571.432 -4.16019 -1.35081 0
M  V30 5817 C 570.491 -4.66989 -2.42502 0
M  V30 5818 O 569.517 -5.30895 -2.05279 0
M  V30 5819 N 570.719 -4.44006 -3.7395 0
M  V30 5820 H 573.484 -2.99627 0.0660501 0
M  V30 5821 H 571.045 -1.60885 0.181014 0
M  V30 5822 H 573.037 -3.21695 -2.4555 0
M  V30 5823 H 571.607 -2.17575 -2.24454 0
M  V30 5824 H 570.827 -3.91414 -0.467833 0
M  V30 5825 H 572.115 -4.9752 -1.06542 0
M  V30 5826 H 571.513 -3.92924 -4.06973 0
M  V30 5827 H 570.07 -4.7959 -4.41403 0
M  V30 5828 N 573.503 -0.0852151 -1.57369 0
M  V30 5829 C 574.435 0.907099 -2.10486 0
M  V30 5830 C 575.448 1.25259 -1.03991 0
M  V30 5831 O 576.637 1.20743 -1.31467 0
M  V30 5832 C 573.737 2.21908 -2.56145 0
M  V30 5833 C 572.91 2.05042 -3.86363 0
M  V30 5834 C 571.969 3.19664 -4.17973 0
M  V30 5835 O 570.995 2.94062 -4.87356 0
M  V30 5836 N 572.197 4.45151 -3.72587 0
M  V30 5837 H 574.962 0.453505 -2.96249 0
M  V30 5838 H 572.523 0.100157 -1.6159 0
M  V30 5839 H 574.515 2.97519 -2.74343 0
M  V30 5840 H 573.085 2.58723 -1.75446 0
M  V30 5841 H 572.305 1.13819 -3.77411 0
M  V30 5842 H 573.593 1.91039 -4.71574 0
M  V30 5843 H 572.991 4.68834 -3.16561 0
M  V30 5844 H 571.548 5.17744 -3.9596 0
M  V30 5845 N 574.981 1.5647 0.188427 0
M  V30 5846 C 576.209 1.85131 0.923803 0
M  V30 5847 C 576.624 0.668537 1.76567 0
M  V30 5848 O 575.981 -0.362662 1.7886 0
M  V30 5849 C 576.032 3.12661 1.81453 0
M  V30 5850 O 575.753 4.26378 1.00665 0
M  V30 5851 C 577.254 3.54548 2.66103 0
M  V30 5852 H 574.474 0.614624 0.269218 0
M  V30 5853 H 577.018 2.03581 0.193671 0
M  V30 5854 H 575.173 2.96088 2.49821 0
M  V30 5855 H 575.587 4.99041 1.61425 0
M  V30 5856 H 577.061 4.4673 3.24247 0
M  V30 5857 H 577.538 2.77853 3.40139 0
M  V30 5858 H 578.144 3.73674 2.03096 0
M  V30 5859 N 576.459 -0.456382 1.50847 0
M  V30 5860 C 577.684 -1.2349 1.66628 0
M  V30 5861 C 578.109 -1.84715 0.355254 0
M  V30 5862 O 577.467 -1.67961 -0.682559 0
M  V30 5863 C 577.515 -2.30865 2.77009 0
M  V30 5864 O 576.619 -3.35882 2.39285 0
M  V30 5865 H 575.96 -0.36266 0.556214 0
M  V30 5866 H 578.49 -0.541374 1.97308 0
M  V30 5867 H 578.5 -2.75949 3.00526 0
M  V30 5868 H 577.175 -1.85677 3.72152 0
M  V30 5869 H 575.752 -2.96406 2.26269 0
M  V30 5870 N 577.937 -1.40673 -0.710563 0
M  V30 5871 C 578.867 -1.44095 -1.83736 0
M  V30 5872 C 579.848 -0.301286 -1.67411 0
M  V30 5873 O 581.033 -0.510618 -1.87367 0
M  V30 5874 C 578.163 -1.30773 -3.21738 0
M  V30 5875 C 577.117 -2.42395 -3.52745 0
M  V30 5876 C 576.443 -2.14147 -4.89944 0
M  V30 5877 C 577.743 -3.84738 -3.53234 0
M  V30 5878 H 579.437 -2.38396 -1.81129 0
M  V30 5879 H 576.983 -1.14746 -0.870017 0
M  V30 5880 H 578.936 -1.31783 -4.00264 0
M  V30 5881 H 577.66 -0.329507 -3.24934 0
M  V30 5882 H 576.319 -2.40643 -2.76562 0
M  V30 5883 H 575.967 -1.14703 -4.89747 0
M  V30 5884 H 575.667 -2.88934 -5.11655 0
M  V30 5885 H 577.191 -2.16848 -5.70797 0
M  V30 5886 H 578.605 -3.88286 -4.2179 0
M  V30 5887 H 577.002 -4.59085 -3.86473 0
M  V30 5888 H 578.072 -4.13962 -2.52514 0
M  V30 5889 N 579.415 0.9433 -1.26252 0
M  V30 5890 C 580.661 1.69175 -1.11837 0
M  V30 5891 C 580.994 1.91238 0.337891 0
M  V30 5892 O 580.269 1.49152 1.24836 0
M  V30 5893 C 580.552 3.06783 -1.88563 0
M  V30 5894 C 580.405 2.9206 -3.42083 0
M  V30 5895 C 581.724 4.06865 -1.67776 0
M  V30 5896 H 578.843 0.61399 -0.407658 0
M  V30 5897 H 581.485 1.09572 -1.55222 0
M  V30 5898 H 579.635 3.57663 -1.51689 0
M  V30 5899 H 581.307 2.48419 -3.88698 0
M  V30 5900 H 579.55 2.27731 -3.69217 0
M  V30 5901 H 580.221 3.89651 -3.90994 0
M  V30 5902 H 582.697 3.64939 -1.99897 0
M  V30 5903 H 581.573 5.01168 -2.23879 0
M  V30 5904 H 581.834 4.37705 -0.621816 0
M  V30 5905 N 580.893 1.08022 1.14757 0
M  V30 5906 C 581.825 0.664566 2.19354 0
M  V30 5907 C 582.838 -0.286374 1.60261 0
M  V30 5908 O 584.027 -0.0746362 1.78344 0
M  V30 5909 C 581.127 -0.0434634 3.38872 0
M  V30 5910 C 580.3 0.925381 4.27499 0
M  V30 5911 C 579.359 0.253398 5.2559 0
M  V30 5912 O 578.385 0.896581 5.62094 0
M  V30 5913 N 579.587 -0.998263 5.71852 0
M  V30 5914 H 582.352 1.56438 2.55631 0
M  V30 5915 H 579.913 0.965788 1.29939 0
M  V30 5916 H 581.905 -0.503857 4.01551 0
M  V30 5917 H 580.475 -0.845321 3.00954 0
M  V30 5918 H 579.695 1.56472 3.61815 0
M  V30 5919 H 580.983 1.58203 4.8358 0
M  V30 5920 H 580.381 -1.54063 5.44317 0
M  V30 5921 H 578.938 -1.40222 6.36538 0
M  V30 5922 N 582.371 -1.3172 0.865308 0
M  V30 5923 C 583.334 -2.26918 0.322627 0
M  V30 5924 C 584.334 -1.52031 -0.523751 0
M  V30 5925 O 585.524 -1.70973 -0.333727 0
M  V30 5926 C 582.656 -3.36558 -0.542338 0
M  V30 5927 H 583.849 -2.76432 1.16298 0
M  V30 5928 H 581.402 -1.42573 0.640512 0
M  V30 5929 H 582.137 -2.92329 -1.40407 0
M  V30 5930 H 581.922 -3.92048 0.0636395 0
M  V30 5931 H 583.412 -4.07465 -0.91446 0
M  V30 5932 N 583.85 -0.624285 -1.44708 0
M  V30 5933 C 585.075 -0.131171 -2.06985 0
M  V30 5934 C 585.5 1.18234 -1.46295 0
M  V30 5935 O 584.858 1.72375 -0.561842 0
M  V30 5936 C 584.906 -0.0226724 -3.60593 0
M  V30 5937 O 584.01 1.02314 -3.99507 0
M  V30 5938 H 583.351 -0.0816556 -0.65896 0
M  V30 5939 H 585.88 -0.859027 -1.85693 0
M  V30 5940 H 585.891 0.170138 -4.07645 0
M  V30 5941 H 584.566 -0.981685 -4.04148 0
M  V30 5942 H 583.143 0.805452 -3.64097 0
M  V30 5943 N 585.328 1.53329 -0.364422 0
M  V30 5944 C 586.258 2.28627 0.474543 0
M  V30 5945 C 587.239 1.31009 1.08492 0
M  V30 5946 O 588.424 1.59878 1.10239 0
M  V30 5947 C 585.554 3.07465 1.61501 0
M  V30 5948 C 584.508 4.1276 1.13194 0
M  V30 5949 C 583.834 4.79674 2.36255 0
M  V30 5950 C 585.134 5.21847 0.217507 0
M  V30 5951 H 586.828 2.99005 -0.153656 0
M  V30 5952 H 584.374 1.43803 -0.0753406 0
M  V30 5953 H 586.327 3.58889 2.20855 0
M  V30 5954 H 585.051 2.34775 2.27042 0
M  V30 5955 H 583.71 3.62281 0.56109 0
M  V30 5956 H 583.358 4.03557 3.00251 0
M  V30 5957 H 583.058 5.50827 2.04606 0
M  V30 5958 H 584.582 5.33892 2.96297 0
M  V30 5959 H 585.996 5.6878 0.718493 0
M  V30 5960 H 584.393 6.00099 -0.00806408 0
M  V30 5961 H 585.463 4.7921 -0.740653 0
M  V30 5962 N 586.806 0.0935595 1.57322 0
M  V30 5963 C 587.736 -0.863062 2.16964 0
M  V30 5964 C 588.717 -1.29528 1.10256 0
M  V30 5965 O 589.902 -1.36245 1.38387 0
M  V30 5966 C 587.032 -2.12276 2.74875 0
M  V30 5967 C 585.986 -1.82921 3.86942 0
M  V30 5968 C 585.312 -3.15707 4.31548 0
M  V30 5969 C 586.612 -1.11737 5.10208 0
M  V30 5970 H 588.306 -0.366145 2.97153 0
M  V30 5971 H 585.852 -0.174673 1.42937 0
M  V30 5972 H 587.805 -2.79634 3.1525 0
M  V30 5973 H 586.529 -2.64248 1.91938 0
M  V30 5974 H 585.188 -1.17961 3.47103 0
M  V30 5975 H 584.836 -3.65563 3.45504 0
M  V30 5976 H 584.536 -2.96849 5.07104 0
M  V30 5977 H 586.06 -3.84226 4.74555 0
M  V30 5978 H 587.474 -1.69203 5.47762 0
M  V30 5979 H 585.871 -1.03064 5.91183 0
M  V30 5980 H 586.941 -0.0998818 4.84797 0
M  V30 5981 N 588.284 -1.56567 -0.180126 0
M  V30 5982 C 589.53 -1.81761 -0.899497 0
M  V30 5983 C 589.863 -0.670015 -1.82276 0
M  V30 5984 O 589.138 0.328575 -1.91705 0
M  V30 5985 C 589.421 -3.17296 -1.7028 0
M  V30 5986 C 589.274 -4.4257 -0.803255 0
M  V30 5987 C 590.593 -3.49678 -2.67233 0
M  V30 5988 H 587.712 -0.661192 -0.325567 0
M  V30 5989 H 590.354 -1.89272 -0.16612 0
M  V30 5990 H 588.504 -3.11023 -2.32802 0
M  V30 5991 H 590.176 -4.60902 -0.191585 0
M  V30 5992 H 588.419 -4.33658 -0.110796 0
M  V30 5993 H 589.09 -5.33935 -1.40064 0
M  V30 5994 H 591.566 -3.56347 -2.14839 0
M  V30 5995 H 590.442 -4.45605 -3.20511 0
M  V30 5996 H 590.703 -2.73932 -3.47007 0
M  V30 5997 N 589.762 0.448376 -1.51087 0
M  V30 5998 C 590.725 1.52588 -1.71025 0
M  V30 5999 C 591.725 1.49958 -0.580442 0
M  V30 6000 O 592.915 1.52176 -0.847833 0
M  V30 6001 C 590.047 2.92163 -1.75652 0
M  V30 6002 H 591.24 1.36218 -2.67179 0
M  V30 6003 H 588.793 0.676313 -1.4091 0
M  V30 6004 H 589.528 3.13951 -0.812724 0
M  V30 6005 H 589.313 2.95478 -2.57751 0
M  V30 6006 H 590.803 3.70349 -1.92953 0
M  V30 6007 N 591.24 1.41047 0.703093 0
M  V30 6008 C 592.188 1.42494 1.83843 0
M  V30 6009 C 593.182 0.303885 1.66652 0
M  V30 6010 O 594.388 0.475544 1.73605 0
M  V30 6011 H 590.763 0.445685 0.605697 0
M  V30 6012 H 592.734 2.38194 1.79739 0
M  V30 6013 C 591.483 1.31666 3.21807 0
M  V30 6014 H 590.806 2.17212 3.35647 0
M  V30 6015 H 592.246 1.36738 4.01346 0
M  V30 6016 C 590.705 0.0281828 3.36888 0
M  V30 6017 O 591.235 -0.929995 3.90786 0
M  V30 6018 N 589.441 -0.0454322 2.90564 0
M  V30 6019 H 588.988 0.735046 2.4689 0
M  V30 6020 H 588.946 -0.906968 3.01034 0
M  V30 6021 N 592.718 -0.936591 1.26751 0
M  V30 6022 C 593.648 -2.05315 1.11212 0
M  V30 6023 C 594.629 -1.70092 0.0160262 0
M  V30 6024 O 595.814 -1.93279 0.188894 0
M  V30 6025 C 592.944 -3.39123 0.749171 0
M  V30 6026 C 591.898 -3.88425 1.79751 0
M  V30 6027 C 591.224 -5.18936 1.28876 0
M  V30 6028 C 592.524 -4.12798 3.19992 0
M  V30 6029 H 594.218 -2.18573 2.04613 0
M  V30 6030 H 591.764 -1.05027 0.985159 0
M  V30 6031 H 593.717 -4.16704 0.627323 0
M  V30 6032 H 592.441 -3.25855 -0.220543 0
M  V30 6033 H 591.1 -3.13028 1.90811 0
M  V30 6034 H 590.748 -5.02051 0.308757 0
M  V30 6035 H 590.448 -5.52892 1.98958 0
M  V30 6036 H 591.972 -5.99096 1.17967 0
M  V30 6037 H 593.386 -4.80977 3.11983 0
M  V30 6038 H 591.783 -4.58044 3.87705 0
M  V30 6039 H 592.853 -3.18412 3.65707 0
M  V30 6040 N 594.196 -1.08629 -1.14182 0
M  V30 6041 C 595.126 -0.740003 -2.21464 0
M  V30 6042 C 596.107 0.278591 -1.67803 0
M  V30 6043 O 597.292 0.148461 -1.93632 0
M  V30 6044 C 594.422 -0.150952 -3.46972 0
M  V30 6045 C 593.376 -1.09815 -4.13672 0
M  V30 6046 C 592.702 -0.3712 -5.3341 0
M  V30 6047 C 594.002 -2.43722 -4.61949 0
M  V30 6048 H 595.696 -1.63697 -2.50686 0
M  V30 6049 H 593.242 -0.788526 -1.20492 0
M  V30 6050 H 595.195 0.103325 -4.21273 0
M  V30 6051 H 593.919 0.781164 -3.1712 0
M  V30 6052 H 592.578 -1.33756 -3.41328 0
M  V30 6053 H 592.226 0.564792 -4.99819 0
M  V30 6054 H 591.926 -1.00267 -5.78982 0
M  V30 6055 H 593.45 -0.12503 -6.10472 0
M  V30 6056 H 594.864 -2.24034 -5.27714 0
M  V30 6057 H 593.261 -3.02582 -5.18232 0
M  V30 6058 H 594.331 -3.05082 -3.76899 0
M  V30 6059 N 595.674 1.31259 -0.872281 0
M  V30 6060 C 596.637 2.26744 -0.334656 0
M  V30 6061 C 597.637 1.52307 0.515681 0
M  V30 6062 O 598.827 1.71148 0.324656 0
M  V30 6063 C 595.959 3.36841 0.524482 0
M  V30 6064 H 597.152 2.75812 -1.17762 0
M  V30 6065 H 594.705 1.42232 -0.648064 0
M  V30 6066 H 595.44 2.93069 1.38855 0
M  V30 6067 H 595.225 3.92009 -0.0844299 0
M  V30 6068 H 596.715 4.07944 0.892838 0
M  V30 6069 N 597.152 0.631951 1.44375 0
M  V30 6070 C 598.102 -0.0943862 2.27805 0
M  V30 6071 C 599.086 -0.815359 1.38711 0
M  V30 6072 O 600.278 -0.701331 1.62513 0
M  V30 6073 C 597.407 -1.07472 3.26044 0
M  V30 6074 C 596.493 -0.353329 4.22626 0
M  V30 6075 N 596.884 0.618512 5.02004 0
M  V30 6076 C 595.182 -0.597662 4.41977 0
M  V30 6077 C 595.883 1.0448 5.7224 0
M  V30 6078 N 594.859 0.383413 5.42246 0
M  V30 6079 H 598.661 0.651672 2.86584 0
M  V30 6080 H 596.175 0.45752 1.55822 0
M  V30 6081 H 598.172 -1.60969 3.84571 0
M  V30 6082 H 596.832 -1.82107 2.68825 0
M  V30 6083 H 597.843 0.996356 5.08226 0
M  V30 6084 H 594.52 -1.32682 3.95856 0
M  V30 6085 H 595.91 1.84773 6.45994 0
M  V30 6086 N 598.631 -1.53133 0.372548 0
M  V30 6087 C 599.564 -2.22328 -0.514361 0
M  V30 6088 C 600.542 -1.21776 -1.07747 0
M  V30 6089 O 601.726 -1.50704 -1.13228 0
M  V30 6090 C 598.853 -2.92343 -1.71035 0
M  V30 6091 C 597.899 -4.07026 -1.27405 0
M  V30 6092 S 598.732 -5.34821 -0.269526 0
M  V30 6093 C 599.888 -6.08352 -1.47168 0
M  V30 6094 H 600.121 -2.9721 0.0732683 0
M  V30 6095 H 597.654 -1.53603 0.156673 0
M  V30 6096 H 599.612 -3.33296 -2.39634 0
M  V30 6097 H 598.273 -2.17173 -2.26925 0
M  V30 6098 H 597.466 -4.55056 -2.16656 0
M  V30 6099 H 597.068 -3.68001 -0.66719 0
M  V30 6100 H 599.36 -6.33507 -2.40157 0
M  V30 6101 H 600.303 -7.0053 -1.03263 0
M  V30 6102 H 600.711 -5.38893 -1.6809 0
M  V30 6103 N 600.109 -0.101901 -1.5727 0
M  V30 6104 C 601.057 0.872034 -2.15635 0
M  V30 6105 C 602.051 1.28742 -1.10099 0
M  V30 6106 O 603.257 1.26116 -1.28432 0
M  V30 6107 H 599.632 0.299269 -0.689886 0
M  V30 6108 H 601.603 0.355137 -2.96279 0
M  V30 6109 C 600.352 2.11886 -2.7568 0
M  V30 6110 H 599.675 1.80813 -3.56576 0
M  V30 6111 H 601.115 2.78077 -3.20077 0
M  V30 6112 C 599.574 2.89739 -1.7191 0
M  V30 6113 O 600.104 3.84522 -1.16213 0
M  V30 6114 N 598.31 2.53407 -1.42245 0
M  V30 6115 H 597.857 1.76398 -1.87727 0
M  V30 6116 H 597.815 3.05795 -0.730529 0
M  V30 6117 N 601.587 1.56661 0.17182 0
M  V30 6118 C 602.817 1.85831 0.902804 0
M  V30 6119 C 603.225 0.685157 1.76358 0
M  V30 6120 O 602.568 -0.354947 1.80238 0
M  V30 6121 C 602.63 3.09406 1.83053 0
M  V30 6122 C 602.294 4.4231 1.1494 0
M  V30 6123 C 603.291 5.17342 0.515104 0
M  V30 6124 C 600.976 4.89045 1.14631 0
M  V30 6125 C 602.97 6.37299 -0.113194 0
M  V30 6126 C 600.657 6.08933 0.514184 0
M  V30 6127 C 601.655 6.82904 -0.114463 0
M  V30 6128 O 601.343 8.00518 -0.736622 0
M  V30 6129 H 601.075 0.620715 0.267748 0
M  V30 6130 H 603.629 2.04637 0.176918 0
M  V30 6131 H 601.859 2.86544 2.59672 0
M  V30 6132 H 603.548 3.25027 2.4313 0
M  V30 6133 H 604.314 4.82317 0.509474 0
M  V30 6134 H 600.193 4.31409 1.62502 0
M  V30 6135 H 603.737 6.94976 -0.604477 0
M  V30 6136 H 599.634 6.43423 0.517395 0
M  V30 6137 H 600.402 8.16027 -0.635822 0
M  V30 6138 N 603.065 -0.440357 1.51323 0
M  V30 6139 C 604.29 -1.21716 1.67928 0
M  V30 6140 C 604.715 -1.84328 0.374826 0
M  V30 6141 O 604.073 -1.68675 -0.664706 0
M  V30 6142 C 604.121 -2.27914 2.79442 0
M  V30 6143 O 603.225 -3.33325 2.42834 0
M  V30 6144 H 602.566 -0.35674 0.560029 0
M  V30 6145 H 605.096 -0.520417 1.97871 0
M  V30 6146 H 605.106 -2.72746 3.03436 0
M  V30 6147 H 603.781 -1.8172 3.741 0
M  V30 6148 H 602.358 -2.9399 2.294 0
M  V30 6149 N 604.543 -1.41418 -0.695603 0
M  V30 6150 C 605.79 -1.40774 -1.45564 0
M  V30 6151 C 606.118 -0.0168604 -1.94493 0
M  V30 6152 O 605.373 0.971259 -1.69897 0
M  V30 6153 C 605.672 -2.36112 -2.68302 0
M  V30 6154 C 605.338 -3.82952 -2.38031 0
M  V30 6155 C 604 -4.22954 -2.29486 0
M  V30 6156 C 606.352 -4.75662 -2.13061 0
M  V30 6157 C 603.68 -5.53674 -1.94067 0
M  V30 6158 C 606.032 -6.06702 -1.79151 0
M  V30 6159 C 604.696 -6.45725 -1.69102 0
M  V30 6160 H 603.966 -0.515128 -0.532658 0
M  V30 6161 H 606.613 -1.74216 -0.795047 0
M  V30 6162 H 604.918 -1.95924 -3.39295 0
M  V30 6163 H 606.615 -2.32887 -3.26442 0
M  V30 6164 H 603.205 -3.5127 -2.45576 0
M  V30 6165 H 607.389 -4.45561 -2.18608 0
M  V30 6166 H 602.645 -5.8279 -1.8484 0
M  V30 6167 H 606.819 -6.78041 -1.5885 0
M  V30 6168 H 604.446 -7.46929 -1.41426 0
M  V30 6169 N 606.021 0.929856 -1.27246 0
M  V30 6170 C 607.267 1.6802 -1.14634 0
M  V30 6171 C 607.622 1.89965 0.305151 0
M  V30 6172 O 606.915 1.47737 1.22001 0
M  V30 6173 C 607.109 3.05116 -1.86115 0
M  V30 6174 C 606.938 2.96549 -3.38066 0
M  V30 6175 C 605.708 2.98947 -4.0738 0
M  V30 6176 C 607.906 2.7583 -4.34077 0
M  V30 6177 N 605.888 2.80799 -5.45917 0
M  V30 6178 C 607.259 2.66364 -5.59866 0
M  V30 6179 C 609.314 2.60701 -4.24193 0
M  V30 6180 C 608.017 2.43313 -6.76898 0
M  V30 6181 C 610.043 2.39026 -5.40944 0
M  V30 6182 C 609.405 2.30302 -6.65688 0
M  V30 6183 H 605.504 0.62172 -0.474329 0
M  V30 6184 H 608.088 1.09947 -1.60685 0
M  V30 6185 H 606.259 3.61306 -1.42522 0
M  V30 6186 H 607.991 3.69076 -1.66027 0
M  V30 6187 H 604.746 3.09093 -3.58829 0
M  V30 6188 H 605.17 2.74861 -6.18692 0
M  V30 6189 H 609.812 2.66206 -3.28473 0
M  V30 6190 H 607.53 2.36548 -7.72704 0
M  V30 6191 H 611.116 2.28208 -5.35175 0
M  V30 6192 H 609.996 2.13756 -7.54505 0
M  V30 6193 N 607.499 1.09233 1.13605 0
M  V30 6194 C 608.748 0.82205 1.84188 0
M  V30 6195 C 609.061 -0.654548 1.84323 0
M  V30 6196 O 610.267 -1.04029 2.50779 0
M  V30 6197 C 608.723 1.42066 3.30674 0
M  V30 6198 C 608.331 2.92965 3.38933 0
M  V30 6199 C 610.075 1.22924 4.06313 0
M  V30 6200 C 607.982 3.45922 4.79679 0
M  V30 6201 H 606.912 0.303854 0.690064 0
M  V30 6202 H 609.563 1.31479 1.28006 0
M  V30 6203 H 607.945 0.855613 3.86646 0
M  V30 6204 H 609.119 3.55679 2.92966 0
M  V30 6205 H 607.434 3.11118 2.76757 0
M  V30 6206 H 610.031 1.59945 5.10217 0
M  V30 6207 H 610.374 0.169726 4.15954 0
M  V30 6208 H 610.907 1.76168 3.56665 0
M  V30 6209 H 607.646 4.51484 4.75229 0
M  V30 6210 H 607.166 2.87971 5.26149 0
M  V30 6211 H 608.845 3.43009 5.48592 0
M  V30 6212 N 608.977 -1.30795 0.87923 0
M  V30 6213 C 609.887 -2.32041 0.345565 0
M  V30 6214 C 610.903 -1.65103 -0.549265 0
M  V30 6215 O 612.079 -1.9645 -0.443763 0
M  V30 6216 C 609.144 -3.43944 -0.436245 0
M  V30 6217 C 608.205 -4.26521 0.48765 0
M  V30 6218 C 607.438 -5.33081 -0.256943 0
M  V30 6219 O 607.661 -5.50762 -1.48381 0
M  V30 6220 O 606.595 -6.00635 0.389985 0
M  V30 6221 H 610.421 -2.79627 1.18501 0
M  V30 6222 H 608.006 -1.3486 0.642885 0
M  V30 6223 H 609.888 -4.12128 -0.879119 0
M  V30 6224 H 608.563 -2.98504 -1.25208 0
M  V30 6225 H 607.47 -3.61057 0.979216 0
M  V30 6226 H 608.803 -4.75551 1.26933 0
M  V30 6227 N 610.455 -0.639598 -1.44038 0
M  V30 6228 C 611.418 0.0506628 -2.29144 0
M  V30 6229 C 612.418 0.764001 -1.41491 0
M  V30 6230 O 613.608 0.607309 -1.63271 0
M  V30 6231 C 610.74 1.0824 -3.2326 0
M  V30 6232 H 611.933 -0.697987 -2.91664 0
M  V30 6233 H 609.486 -0.400146 -1.51091 0
M  V30 6234 H 610.221 1.86075 -2.65606 0
M  V30 6235 H 610.006 0.574725 -3.87865 0
M  V30 6236 H 611.496 1.56487 -3.87171 0
M  V30 6237 N 611.933 1.52934 -0.380664 0
M  V30 6238 C 613.179 2.01765 0.20458 0
M  V30 6239 C 613.512 1.26696 1.47179 0
M  V30 6240 O 612.787 0.364936 1.91046 0
M  V30 6241 C 613.07 3.56869 0.481269 0
M  V30 6242 C 612.923 4.42617 -0.800629 0
M  V30 6243 C 614.242 4.2121 1.27554 0
M  V30 6244 H 611.361 0.733388 0.0728803 0
M  V30 6245 H 614.003 1.83068 -0.50853 0
M  V30 6246 H 612.153 3.72932 1.08875 0
M  V30 6247 H 613.825 4.38323 -1.43773 0
M  V30 6248 H 612.068 4.09977 -1.4178 0
M  V30 6249 H 612.739 5.49134 -0.561791 0
M  V30 6250 H 615.215 4.09072 0.761514 0
M  V30 6251 H 614.091 5.29732 1.43788 0
M  V30 6252 H 614.352 3.78269 2.28833 0
M  V30 6253 N 613.412 0.11024 1.57214 0
M  V30 6254 C 614.36 -0.860586 2.16094 0
M  V30 6255 C 615.354 -1.28156 1.1078 0
M  V30 6256 O 616.56 -1.25433 1.29099 0
M  V30 6257 H 612.935 -0.295606 0.691463 0
M  V30 6258 H 614.906 -0.33942 2.96463 0
M  V30 6259 C 613.655 -2.10421 2.768 0
M  V30 6260 H 612.978 -1.7892 3.5753 0
M  V30 6261 H 614.418 -2.76375 3.21547 0
M  V30 6262 C 612.877 -2.88823 1.73444 0
M  V30 6263 O 613.407 -3.839 1.18251 0
M  V30 6264 N 611.613 -2.52649 1.43586 0
M  V30 6265 H 611.16 -1.754 1.8866 0
M  V30 6266 H 611.118 -3.05403 0.746735 0
M  V30 6267 N 614.89 -1.56749 -0.16351 0
M  V30 6268 C 616.138 -1.82074 -0.87713 0
M  V30 6269 C 616.459 -0.688503 -1.82441 0
M  V30 6270 O 615.729 0.291085 -1.93725 0
M  V30 6271 H 614.309 -0.671677 -0.326893 0
M  V30 6272 H 616.971 -1.9423 -0.161459 0
M  V30 6273 H 616.067 -2.76407 -1.44934 0
M  V30 6274 N 616.368 0.432326 -1.51554 0
M  V30 6275 C 617.614 1.18309 -1.64714 0
M  V30 6276 C 617.947 1.90745 -0.364696 0
M  V30 6277 O 617.222 1.8381 0.635936 0
M  V30 6278 C 617.505 2.1961 -2.85383 0
M  V30 6279 C 617.358 1.51223 -4.23617 0
M  V30 6280 C 618.677 3.20538 -3.01569 0
M  V30 6281 H 615.796 0.428751 -0.599451 0
M  V30 6282 H 618.438 0.471689 -1.84052 0
M  V30 6283 H 616.588 2.8028 -2.69027 0
M  V30 6284 H 618.26 0.938516 -4.51652 0
M  V30 6285 H 616.503 0.814501 -4.26085 0
M  V30 6286 H 617.174 2.25024 -5.04052 0
M  V30 6287 H 619.65 2.69926 -3.16669 0
M  V30 6288 H 618.526 3.88706 -3.87555 0
M  V30 6289 H 618.787 3.86933 -2.13859 0
M  V30 6290 N 617.846 1.41785 0.688094 0
M  V30 6291 C 619.071 1.45117 1.48175 0
M  V30 6292 C 619.496 0.060129 1.88004 0
M  V30 6293 O 618.854 -0.938385 1.55126 0
M  V30 6294 C 618.902 2.37224 2.71583 0
M  V30 6295 O 618.006 1.83443 3.69354 0
M  V30 6296 H 617.347 0.492208 0.445676 0
M  V30 6297 H 619.877 1.86329 0.845145 0
M  V30 6298 H 619.887 2.53353 3.19806 0
M  V30 6299 H 618.562 3.38293 2.41931 0
M  V30 6300 H 617.139 1.76802 3.28322 0
M  V30 6301 N 619.324 -0.923095 1.27737 0
M  V30 6302 C 620.601 -1.64989 1.05062 0
M  V30 6303 C 620.981 -2.07018 -0.413124 0
M  V30 6304 O 620.329 -1.80797 -1.39731 0
M  V30 6305 C 620.539 -2.84847 2.01652 0
M  V30 6306 C 621.887 -3.56083 2.31279 0
M  V30 6307 O 622.911 -2.94981 1.99662 0
M  V30 6308 O 621.77 -4.66182 2.85196 0
M  V30 6309 H 618.864 -0.723357 0.400853 0
M  V30 6310 H 621.41 -0.973224 1.3902 0
M  V30 6311 H 620.182 -2.50814 3.00347 0
M  V30 6312 H 619.805 -3.60231 1.68284 0
M  V30 6313 N 620.802 -1.09834 -1.13024 0
M  V30 6314 C 621.732 -0.763451 -2.20666 0
M  V30 6315 C 622.713 0.260778 -1.68089 0
M  V30 6316 O 623.898 0.127915 -1.93778 0
M  V30 6317 C 621.028 -0.187744 -3.46792 0
M  V30 6318 C 619.982 -1.14196 -4.12484 0
M  V30 6319 C 619.308 -0.427755 -5.32986 0
M  V30 6320 C 620.608 -2.48607 -4.59338 0
M  V30 6321 H 622.302 -1.66347 -2.48936 0
M  V30 6322 H 619.848 -0.801261 -1.19649 0
M  V30 6323 H 621.801 0.0586375 -4.21359 0
M  V30 6324 H 620.525 0.747485 -3.17931 0
M  V30 6325 H 619.184 -1.37369 -3.3989 0
M  V30 6326 H 618.832 0.511747 -5.0039 0
M  V30 6327 H 618.532 -1.06403 -5.77886 0
M  V30 6328 H 620.056 -0.189772 -6.10305 0
M  V30 6329 H 621.47 -2.29618 -5.25308 0
M  V30 6330 H 619.867 -3.08062 -5.14993 0
M  V30 6331 H 620.937 -3.09062 -3.73642 0
M  V30 6332 N 622.28 1.30327 -0.886154 0
M  V30 6333 C 623.505 2.0079 -0.519425 0
M  V30 6334 C 623.93 1.65979 0.885013 0
M  V30 6335 O 623.288 0.877043 1.58675 0
M  V30 6336 C 623.336 3.53686 -0.702758 0
M  V30 6337 O 622.44 4.11637 0.250828 0
M  V30 6338 H 621.781 0.63171 -0.204544 0
M  V30 6339 H 624.311 1.66145 -1.19402 0
M  V30 6340 H 624.321 4.03531 -0.602207 0
M  V30 6341 H 622.996 3.78361 -1.72673 0
M  V30 6342 H 621.573 3.72755 0.103873 0
M  V30 6343 N 623.758 0.647228 1.43697 0
M  V30 6344 C 625.169 0.238689 1.85168 0
M  V30 6345 C 625.52 -1.21345 1.54175 0
M  V30 6346 O 624.645 -1.92542 0.987743 0
M  V30 6347 C 625.24 0.426422 3.36106 0
M  V30 6348 C 623.799 0.0722541 3.76331 0
M  V30 6349 C 622.946 0.732153 2.6746 0
M  V30 6350 H 625.897 0.851309 1.33934 0
M  V30 6351 H 625.918 -0.32987 3.79067 0
M  V30 6352 H 625.43 1.48339 3.58632 0
M  V30 6353 H 623.531 -0.982355 3.59417 0
M  V30 6354 H 623.644 0.493541 4.76551 0
M  V30 6355 H 622.008 0.16594 2.54159 0
M  V30 6356 H 622.791 1.79204 2.92816 0
M  V30 6357 N 625.236 -1.5273 0.388769 0
M  V30 6358 C 626.146 -2.30165 -0.453993 0
M  V30 6359 C 627.162 -1.37058 -1.07197 0
M  V30 6360 O 628.338 -1.70127 -1.0779 0
M  V30 6361 C 625.403 -3.09303 -1.56628 0
M  V30 6362 C 624.464 -4.18117 -0.973467 0
M  V30 6363 C 623.697 -4.93472 -2.03275 0
M  V30 6364 O 623.92 -4.68913 -3.24772 0
M  V30 6365 O 622.854 -5.78833 -1.65034 0
M  V30 6366 H 626.68 -3.03185 0.176816 0
M  V30 6367 H 624.265 -1.4862 0.152501 0
M  V30 6368 H 626.147 -3.58648 -2.21246 0
M  V30 6369 H 624.822 -2.39098 -2.18206 0
M  V30 6370 H 623.729 -3.7297 -0.290556 0
M  V30 6371 H 625.062 -4.90556 -0.401908 0
M  V30 6372 N 626.714 -0.118576 -1.57153 0
M  V30 6373 C 628.125 0.40687 -1.82213 0
M  V30 6374 C 628.476 1.66636 -1.03571 0
M  V30 6375 O 627.601 2.14682 -0.272171 0
M  V30 6376 C 628.196 0.744949 -3.30509 0
M  V30 6377 C 626.755 1.21503 -3.5625 0
M  V30 6378 C 625.902 0.223511 -2.76398 0
M  V30 6379 H 628.853 -0.343712 -1.54933 0
M  V30 6380 H 628.874 1.6024 -3.45114 0
M  V30 6381 H 628.386 -0.171911 -3.87719 0
M  V30 6382 H 626.487 2.1488 -3.04396 0
M  V30 6383 H 626.6 1.16065 -4.64829 0
M  V30 6384 H 624.964 0.71046 -2.44591 0
M  V30 6385 H 625.747 -0.686439 -3.36367 0
M  V30 6386 N 628.193 1.56834 0.155195 0
M  V30 6387 C 629.609 1.51315 0.50755 0
M  V30 6388 C 629.809 0.825614 1.83809 0
M  V30 6389 O 628.865 0.39271 2.49427 0
M  V30 6390 C 630.178 2.96074 0.52542 0
M  V30 6391 C 631.726 3.06968 0.611505 0
M  V30 6392 C 632.201 4.53218 0.660115 0
M  V30 6393 N 633.692 4.5753 0.722564 0
M  V30 6394 C 634.427 5.68056 0.781023 0
M  V30 6395 N 633.923 6.88173 0.799327 0
M  V30 6396 N 635.716 5.56068 0.821278 0
M  V30 6397 H 627.867 1.9993 -0.717063 0
M  V30 6398 H 630.13 0.911507 -0.260496 0
M  V30 6399 H 629.836 3.49599 -0.383875 0
M  V30 6400 H 629.71 3.51587 1.36624 0
M  V30 6401 H 632.097 2.53468 1.51122 0
M  V30 6402 H 632.178 2.54513 -0.256306 0
M  V30 6403 H 631.822 5.07354 -0.23541 0
M  V30 6404 H 631.752 5.03447 1.5443 0
M  V30 6405 H 634.243 3.71054 0.716049 0
M  V30 6406 H 634.556 7.6816 0.845553 0
M  V30 6407 H 632.901 6.90751 0.767337 0
M  V30 6408 H 636.092 4.61142 0.804091 0
M  V30 6409 H 636.265 6.42223 0.863372 0
M  V30 6410 N 629.671 -0.424282 1.51781 0
M  V30 6411 C 631.087 -0.761768 1.40247 0
M  V30 6412 C 631.287 -1.95324 0.495041 0
M  V30 6413 O 630.343 -2.5246 -0.0448949 0
M  V30 6414 C 631.656 -1.0299 2.82513 0
M  V30 6415 C 633.204 -1.13354 2.91753 0
M  V30 6416 C 633.679 -1.43453 4.34954 0
M  V30 6417 N 635.17 -1.5035 4.3812 0
M  V30 6418 C 635.905 -1.75236 5.45967 0
M  V30 6419 N 635.401 -1.97827 6.63955 0
M  V30 6420 N 637.194 -1.77126 5.33463 0
M  V30 6421 H 629.345 0.360228 2.09323 0
M  V30 6422 H 631.608 0.0988128 0.942836 0
M  V30 6423 H 631.314 -0.226961 3.50967 0
M  V30 6424 H 631.188 -1.95411 3.22637 0
M  V30 6425 H 633.575 -1.92709 2.23489 0
M  V30 6426 H 633.656 -0.188041 2.55108 0
M  V30 6427 H 633.3 -0.646209 5.03772 0
M  V30 6428 H 633.23 -2.3923 4.69123 0
M  V30 6429 H 635.721 -1.34742 3.53062 0
M  V30 6430 H 636.034 -2.16223 7.41935 0
M  V30 6431 H 634.379 -1.95123 6.67047 0
M  V30 6432 H 637.57 -1.59005 4.40267 0
M  V30 6433 H 637.743 -1.96182 6.17589 0
M  V30 6434 N 631.149 -1.42148 -0.680565 0
M  V30 6435 C 632.112 -1.4488 -1.77602 0
M  V30 6436 C 633.112 -0.337209 -1.57224 0
M  V30 6437 O 634.302 -0.597778 -1.63622 0
M  V30 6438 C 631.434 -1.27483 -3.16166 0
M  V30 6439 H 632.627 -2.42412 -1.76568 0
M  V30 6440 H 630.18 -1.28511 -0.889645 0
M  V30 6441 H 630.915 -0.30851 -3.22829 0
M  V30 6442 H 630.7 -2.08037 -3.3236 0
M  V30 6443 H 632.19 -1.32265 -3.96101 0
M  V30 6444 N 632.627 0.916307 -1.28225 0
M  V30 6445 C 633.59 1.99996 -1.11957 0
M  V30 6446 C 634.59 1.60688 -0.0600152 0
M  V30 6447 O 635.78 1.71499 -0.30558 0
M  V30 6448 C 632.912 3.33458 -0.708411 0
M  V30 6449 H 634.105 2.15858 -2.08196 0
M  V30 6450 H 631.658 1.09863 -1.11175 0
M  V30 6451 H 632.393 3.23297 0.254859 0
M  V30 6452 H 632.178 3.63349 -1.47377 0
M  V30 6453 H 633.668 4.13014 -0.617164 0
M  V30 6454 N 634.105 1.10431 1.1244 0
M  V30 6455 C 635.351 0.847972 1.84221 0
M  V30 6456 C 635.684 -0.624903 1.83871 0
M  V30 6457 O 634.959 -1.46074 1.28423 0
M  V30 6458 C 635.242 1.39695 3.319 0
M  V30 6459 C 635.095 2.93668 3.40704 0
M  V30 6460 C 636.414 1.03924 4.27654 0
M  V30 6461 H 633.533 0.309502 0.668863 0
M  V30 6462 H 636.175 1.36745 1.31912 0
M  V30 6463 H 634.325 0.955095 3.76577 0
M  V30 6464 H 635.997 3.46379 3.04662 0
M  V30 6465 H 634.24 3.30272 2.81252 0
M  V30 6466 H 634.911 3.27162 4.446 0
M  V30 6467 H 637.387 1.42049 3.91102 0
M  V30 6468 H 636.263 1.45027 5.29394 0
M  V30 6469 H 636.524 -0.051336 4.4207 0
M  V30 6470 N 635.583 -1.29855 0.893053 0
M  V30 6471 C 636.829 -1.96116 0.516349 0
M  V30 6472 C 637.162 -1.70281 -0.933695 0
M  V30 6473 O 636.437 -1.01205 -1.66096 0
M  V30 6474 C 636.72 -3.51068 0.801455 0
M  V30 6475 C 636.573 -3.86387 2.30272 0
M  V30 6476 C 637.892 -4.39186 0.283423 0
M  V30 6477 H 635.011 -0.712335 0.189072 0
M  V30 6478 H 637.653 -1.53587 1.11852 0
M  V30 6479 H 635.803 -3.87424 0.288949 0
M  V30 6480 H 637.475 -3.60012 2.88425 0
M  V30 6481 H 635.718 -3.34167 2.76613 0
M  V30 6482 H 636.389 -4.94512 2.45279 0
M  V30 6483 H 638.865 -4.09785 0.722187 0
M  V30 6484 H 637.741 -5.46505 0.512169 0
M  V30 6485 H 638.002 -4.34511 -0.815643 0
M  V30 6486 N 637.061 -0.65484 -1.43351 0
M  V30 6487 C 638.009 0.0476784 -2.32551 0
M  V30 6488 C 639.003 0.811403 -1.48703 0
M  V30 6489 O 640.209 0.721621 -1.64902 0
M  V30 6490 H 636.584 0.0342038 -0.751222 0
M  V30 6491 H 638.555 -0.722342 -2.89525 0
M  V30 6492 C 637.304 0.999251 -3.33032 0
M  V30 6493 H 636.627 0.421005 -3.97577 0
M  V30 6494 H 638.067 1.45986 -3.98076 0
M  V30 6495 C 636.526 2.09606 -2.63756 0
M  V30 6496 O 637.056 3.18004 -2.4543 0
M  V30 6497 N 635.262 1.86207 -2.23103 0
M  V30 6498 H 634.809 0.980555 -2.38208 0
M  V30 6499 H 634.767 2.59787 -1.77081 0
M  V30 6500 N 638.539 1.52521 -0.396863 0
M  V30 6501 C 639.788 2.00857 0.184184 0
M  V30 6502 C 640.101 1.28733 1.47265 0
M  V30 6503 O 641.307 1.67821 2.13421 0
M  V30 6504 C 639.763 3.57901 0.378787 0
M  V30 6505 C 639.371 4.38931 -0.896873 0
M  V30 6506 C 641.115 4.14504 0.915789 0
M  V30 6507 C 639.022 5.87591 -0.670133 0
M  V30 6508 H 637.952 0.750496 0.0726055 0
M  V30 6509 H 640.603 1.75965 -0.520425 0
M  V30 6510 H 638.985 3.79072 1.14543 0
M  V30 6511 H 640.159 4.29524 -1.66872 0
M  V30 6512 H 638.474 3.93586 -1.35938 0
M  V30 6513 H 641.071 5.23236 1.10126 0
M  V30 6514 H 641.414 3.71076 1.88701 0
M  V30 6515 H 641.947 3.97253 0.208523 0
M  V30 6516 H 638.686 6.35355 -1.61257 0
M  V30 6517 H 638.206 5.99767 0.0626368 0
M  V30 6518 H 639.885 6.46268 -0.307577 0
M  V30 6519 N 640.017 0.126909 1.57088 0
M  V30 6520 C 641.245 -0.53667 1.99819 0
M  V30 6521 C 641.66 -1.5972 1.00673 0
M  V30 6522 O 641.017 -1.825 0.000747365 0
M  V30 6523 C 641.068 -1.15563 3.42531 0
M  V30 6524 O 640.789 -0.137483 4.37884 0
M  V30 6525 C 642.29 -1.90176 4.00435 0
M  V30 6526 H 639.51 -0.141443 0.655923 0
M  V30 6527 H 642.054 0.215578 2.03361 0
M  V30 6528 H 640.209 -1.85861 3.39904 0
M  V30 6529 H 640.623 -0.588229 5.21191 0
M  V30 6530 H 642.097 -2.28801 5.02349 0
M  V30 6531 H 642.574 -2.78002 3.40017 0
M  V30 6532 H 643.18 -1.24623 4.06632 0
M  V30 6533 N 641.495 -1.56914 -0.146875 0
M  V30 6534 C 642.723 -1.87515 -0.874394 0
M  V30 6535 C 643.138 -0.715116 -1.74733 0
M  V30 6536 O 642.495 0.315113 -1.79759 0
M  V30 6537 C 642.546 -3.17362 -1.731 0
M  V30 6538 O 642.267 -4.28897 -0.893245 0
M  V30 6539 C 643.768 -3.61479 -2.56609 0
M  V30 6540 H 640.988 -0.621546 -0.252827 0
M  V30 6541 H 643.532 -2.04023 -0.139627 0
M  V30 6542 H 641.687 -3.02608 -2.41883 0
M  V30 6543 H 642.101 -5.03146 -1.48137 0
M  V30 6544 H 643.575 -4.5517 -3.12289 0
M  V30 6545 H 644.052 -2.86773 -3.32653 0
M  V30 6546 H 644.658 -3.78927 -1.93117 0
M  V30 6547 N 642.974 0.416227 -1.52004 0
M  V30 6548 C 643.922 1.5272 -1.7544 0
M  V30 6549 C 644.916 1.57596 -0.621289 0
M  V30 6550 O 646.122 1.61087 -0.803172 0
M  V30 6551 H 642.497 0.507772 -0.554682 0
M  V30 6552 H 644.468 1.30136 -2.68528 0
M  V30 6553 C 643.217 2.90165 -1.91571 0
M  V30 6554 H 642.54 2.87154 -2.78178 0
M  V30 6555 H 643.98 3.67211 -2.11972 0
M  V30 6556 C 642.439 3.29947 -0.680942 0
M  V30 6557 O 642.969 4.01403 0.154527 0
M  V30 6558 N 641.175 2.8593 -0.518894 0
M  V30 6559 H 640.722 2.2795 -1.19986 0
M  V30 6560 H 640.68 3.12907 0.305985 0
M  V30 6561 N 644.452 1.42507 0.673017 0
M  V30 6562 C 645.384 1.42074 1.79854 0
M  V30 6563 C 646.397 0.319569 1.59633 0
M  V30 6564 O 647.586 0.582769 1.68719 0
M  V30 6565 C 644.686 1.19886 3.16987 0
M  V30 6566 C 643.859 2.42471 3.64042 0
M  V30 6567 C 642.918 2.15802 4.79913 0
M  V30 6568 O 641.944 2.89015 4.90366 0
M  V30 6569 N 643.146 1.16225 5.68746 0
M  V30 6570 H 645.911 2.3909 1.8071 0
M  V30 6571 H 643.472 1.37409 0.856171 0
M  V30 6572 H 645.464 0.999591 3.92161 0
M  V30 6573 H 644.034 0.313879 3.1102 0
M  V30 6574 H 643.254 2.77954 2.79526 0
M  V30 6575 H 644.542 3.24097 3.92223 0
M  V30 6576 H 643.94 0.556756 5.62954 0
M  V30 6577 H 642.497 1.02285 6.43724 0
M  V30 6578 N 645.93 -0.909495 1.28709 0
M  V30 6579 C 646.893 -1.99399 1.13016 0
M  V30 6580 C 647.893 -1.60654 0.068536 0
M  V30 6581 O 649.083 -1.71334 0.314671 0
M  V30 6582 C 646.215 -3.33078 0.726085 0
M  V30 6583 H 647.408 -2.14751 2.09338 0
M  V30 6584 H 644.961 -1.09272 1.11756 0
M  V30 6585 H 645.696 -3.23428 -0.23771 0
M  V30 6586 H 645.481 -3.62562 1.49302 0
M  V30 6587 H 646.971 -4.12681 0.639058 0
M  V30 6588 N 647.408 -1.11026 -1.11852 0
M  V30 6589 C 648.371 -0.768006 -2.1595 0
M  V30 6590 C 649.371 0.210538 -1.59416 0
M  V30 6591 O 650.561 -0.0133978 -1.74195 0
M  V30 6592 C 647.693 -0.138678 -3.40618 0
M  V30 6593 H 648.886 -1.69012 -2.4774 0
M  V30 6594 H 646.439 -0.911578 -1.26964 0
M  V30 6595 H 647.174 0.793872 -3.14433 0
M  V30 6596 H 646.959 -0.843012 -3.8293 0
M  V30 6597 H 648.449 0.0848039 -4.17514 0
M  V30 6598 N 648.886 1.2938 -0.899927 0
M  V30 6599 C 650.297 1.77644 -0.574427 0
M  V30 6600 C 650.648 1.73824 0.909928 0
M  V30 6601 O 649.773 1.32429 1.71147 0
M  V30 6602 C 650.368 3.22573 -1.03595 0
M  V30 6603 C 648.927 3.68614 -0.76161 0
M  V30 6604 C 648.074 2.49483 -1.21052 0
M  V30 6605 H 651.025 1.16038 -1.08263 0
M  V30 6606 H 651.046 3.78684 -0.371337 0
M  V30 6607 H 650.558 3.25321 -2.11631 0
M  V30 6608 H 648.659 3.7134 0.306127 0
M  V30 6609 H 648.772 4.59402 -1.35965 0
M  V30 6610 H 647.136 2.46798 -0.629515 0
M  V30 6611 H 647.919 2.54959 -2.29893 0
M  V30 6612 N 650.364 0.662433 1.43002 0
M  V30 6613 C 651.589 0.186003 2.06564 0
M  V30 6614 C 652.014 -1.14314 1.49379 0
M  V30 6615 O 651.372 -1.70824 0.607346 0
M  V30 6616 C 651.42 0.118269 3.60406 0
M  V30 6617 O 650.524 -0.916859 4.02079 0
M  V30 6618 H 649.865 0.0990981 0.656563 0
M  V30 6619 H 652.395 0.907958 1.8335 0
M  V30 6620 H 652.405 -0.0619981 4.07953 0
M  V30 6621 H 651.08 1.08849 4.01403 0
M  V30 6622 H 649.657 -0.708635 3.66105 0
M  V30 6623 N 651.842 -1.52309 0.404946 0
M  V30 6624 C 652.774 -2.24579 -0.45791 0
M  V30 6625 C 653.787 -1.2739 -1.01369 0
M  V30 6626 O 654.976 -1.53363 -0.91335 0
M  V30 6627 C 652.076 -2.9608 -1.64893 0
M  V30 6628 C 651.249 -4.20106 -1.21777 0
M  V30 6629 C 650.308 -4.74468 -2.27523 0
M  V30 6630 O 649.334 -5.37157 -1.88285 0
M  V30 6631 N 650.536 -4.55678 -3.59635 0
M  V30 6632 H 653.301 -2.99265 0.161341 0
M  V30 6633 H 650.862 -1.60228 0.232107 0
M  V30 6634 H 652.854 -3.29344 -2.35191 0
M  V30 6635 H 651.424 -2.24606 -2.17419 0
M  V30 6636 H 650.644 -3.92704 -0.343071 0
M  V30 6637 H 651.932 -5.00658 -0.906596 0
M  V30 6638 H 651.33 -4.05673 -3.94266 0
M  V30 6639 H 649.887 -4.9339 -4.25922 0
M  V30 6640 N 653.32 -0.135238 -1.57019 0
M  V30 6641 C 654.566 0.519563 -1.96032 0
M  V30 6642 C 654.899 1.65284 -1.01955 0
M  V30 6643 O 654.174 1.94408 -0.059727 0
M  V30 6644 C 654.457 1.0369 -3.44848 0
M  V30 6645 C 654.31 -0.0940754 -4.49702 0
M  V30 6646 C 655.629 1.92254 -3.95887 0
M  V30 6647 H 652.748 0.18739 -0.712779 0
M  V30 6648 H 655.39 -0.214086 -1.8879 0
M  V30 6649 H 653.54 1.66209 -3.5115 0
M  V30 6650 H 655.212 -0.73 -4.55487 0
M  V30 6651 H 653.455 -0.754924 -4.27181 0
M  V30 6652 H 654.126 0.309419 -5.51132 0
M  V30 6653 H 656.602 1.39581 -3.9199 0
M  V30 6654 H 655.478 2.25364 -5.00502 0
M  V30 6655 H 655.739 2.85513 -3.37543 0
M  V30 6656 N 654.798 1.5699 0.138552 0
M  V30 6657 C 656.044 1.84081 0.85099 0
M  V30 6658 C 656.377 0.718107 1.80435 0
M  V30 6659 O 655.652 -0.277633 1.92508 0
M  V30 6660 C 655.935 3.21699 1.61808 0
M  V30 6661 C 655.788 4.44544 0.685633 0
M  V30 6662 C 657.107 3.5664 2.57868 0
M  V30 6663 H 654.226 0.669592 0.307922 0
M  V30 6664 H 656.868 1.89646 0.11588 0
M  V30 6665 H 655.018 3.17086 2.24474 0
M  V30 6666 H 656.69 4.61248 0.0693179 0
M  V30 6667 H 654.933 4.338 -0.00421993 0
M  V30 6668 H 655.604 5.3746 1.25858 0
M  V30 6669 H 658.08 3.61918 2.05316 0
M  V30 6670 H 656.956 4.53946 3.08584 0
M  V30 6671 H 657.217 2.83036 3.39622 0
M  V30 6672 N 656.276 -0.40816 1.52223 0
M  V30 6673 C 657.522 -1.15673 1.66576 0
M  V30 6674 C 657.855 -1.90141 0.394996 0
M  V30 6675 O 657.13 -1.84798 -0.606613 0
M  V30 6676 C 657.413 -2.15042 2.88841 0
M  V30 6677 C 657.266 -1.44465 4.25969 0
M  V30 6678 C 658.585 -3.15699 3.0663 0
M  V30 6679 H 655.704 -0.41916 0.606196 0
M  V30 6680 H 658.346 -0.442348 1.84779 0
M  V30 6681 H 656.496 -2.75964 2.73452 0
M  V30 6682 H 658.168 -0.866544 4.53088 0
M  V30 6683 H 656.411 -0.746612 4.27327 0
M  V30 6684 H 657.082 -2.16976 5.07568 0
M  V30 6685 H 659.558 -2.64854 3.20923 0
M  V30 6686 H 658.434 -3.82491 3.9369 0
M  V30 6687 H 658.695 -3.83481 2.19987 0
M  V30 6688 N 657.755 -1.42862 -0.66545 0
M  V30 6689 C 659.004 -1.43119 -1.42126 0
M  V30 6690 C 659.317 -0.0545297 -1.95524 0
M  V30 6691 O 660.523 0.0654747 -2.71421 0
M  V30 6692 C 658.979 -2.51797 -2.5715 0
M  V30 6693 C 658.587 -3.95514 -2.10411 0
M  V30 6694 C 660.331 -2.61233 -3.346 0
M  V30 6695 C 658.238 -4.95682 -3.22573 0
M  V30 6696 H 657.168 -0.532349 -0.533966 0
M  V30 6697 H 659.819 -1.68806 -0.719506 0
M  V30 6698 H 658.201 -2.19292 -3.29738 0
M  V30 6699 H 659.375 -4.3742 -1.44915 0
M  V30 6700 H 657.69 -3.90012 -1.45874 0
M  V30 6701 H 660.287 -3.33248 -4.18151 0
M  V30 6702 H 660.63 -1.65896 -3.81817 0
M  V30 6703 H 661.163 -2.9298 -2.69087 0
M  V30 6704 H 657.902 -5.92529 -2.80338 0
M  V30 6705 H 657.422 -4.58399 -3.86821 0
M  V30 6706 H 659.101 -5.17828 -3.87896 0
M  V30 6707 N 659.233 0.902656 -1.29189 0
M  V30 6708 C 660.649 1.18296 -1.07137 0
M  V30 6709 C 660.849 2.00701 0.179223 0
M  V30 6710 O 659.905 2.3675 0.877812 0
M  V30 6711 C 661.218 1.90677 -2.32514 0
M  V30 6712 C 662.766 2.03515 -2.37804 0
M  V30 6713 C 663.241 2.79307 -3.62976 0
M  V30 6714 N 664.732 2.86862 -3.63681 0
M  V30 6715 C 665.467 3.46035 -4.57217 0
M  V30 6716 N 664.963 4.06399 -5.61081 0
M  V30 6717 N 666.756 3.43681 -4.44792 0
M  V30 6718 H 658.907 0.352765 -2.0945 0
M  V30 6719 H 661.17 0.21876 -0.922414 0
M  V30 6720 H 660.876 1.3756 -3.23682 0
M  V30 6721 H 660.75 2.91169 -2.39793 0
M  V30 6722 H 663.137 2.55809 -1.47125 0
M  V30 6723 H 663.218 1.02166 -2.34512 0
M  V30 6724 H 662.862 2.2769 -4.54004 0
M  V30 6725 H 662.792 3.80995 -3.63525 0
M  V30 6726 H 665.283 2.43987 -2.88581 0
M  V30 6727 H 665.596 4.49564 -6.2858 0
M  V30 6728 H 663.941 4.0487 -5.64894 0
M  V30 6729 H 667.132 2.9574 -3.62843 0
M  V30 6730 H 667.305 3.89503 -5.17872 0
M  V30 6731 N 660.711 1.11618 1.11262 0
M  V30 6732 C 661.643 0.734015 2.17129 0
M  V30 6733 C 662.656 -0.235243 1.61091 0
M  V30 6734 O 663.845 -0.0178597 1.78491 0
M  V30 6735 C 660.945 0.0643682 3.38839 0
M  V30 6736 C 660.118 1.06092 4.24339 0
M  V30 6737 C 659.177 0.420482 5.24517 0
M  V30 6738 O 658.203 1.07495 5.58957 0
M  V30 6739 N 659.405 -0.815828 5.74739 0
M  V30 6740 H 662.17 1.64492 2.50524 0
M  V30 6741 H 659.731 1.00664 1.26801 0
M  V30 6742 H 661.723 -0.375851 4.02951 0
M  V30 6743 H 660.293 -0.749147 3.03491 0
M  V30 6744 H 659.513 1.67903 3.56654 0
M  V30 6745 H 660.801 1.73507 4.78302 0
M  V30 6746 H 660.199 -1.36668 5.48943 0
M  V30 6747 H 658.756 -1.199 6.40677 0
M  V30 6748 N 662.189 -1.289 0.906776 0
M  V30 6749 C 663.099 -2.31256 0.394707 0
M  V30 6750 C 664.115 -1.66231 -0.514121 0
M  V30 6751 O 665.291 -1.97347 -0.401994 0
M  V30 6752 C 662.356 -3.44792 -0.363191 0
M  V30 6753 C 661.417 -4.25391 0.578012 0
M  V30 6754 C 660.65 -5.33506 -0.143811 0
M  V30 6755 O 660.873 -5.53786 -1.36665 0
M  V30 6756 O 659.807 -5.99673 0.5173 0
M  V30 6757 H 663.633 -2.77051 1.24405 0
M  V30 6758 H 661.218 -1.33466 0.671346 0
M  V30 6759 H 663.1 -4.139 -0.791503 0
M  V30 6760 H 661.775 -3.01093 -1.18848 0
M  V30 6761 H 660.682 -3.58899 1.05558 0
M  V30 6762 H 662.015 -4.72752 1.36992 0
M  V30 6763 N 663.667 -0.670007 -1.42649 0
M  V30 6764 C 665.083 -0.33911 -1.55956 0
M  V30 6765 C 665.283 1.1558 -1.65056 0
M  V30 6766 O 664.339 1.94111 -1.61485 0
M  V30 6767 C 665.652 -1.06522 -2.812 0
M  V30 6768 C 667.2 -1.04708 -2.94966 0
M  V30 6769 C 667.675 -1.75442 -4.23065 0
M  V30 6770 N 669.166 -1.72286 -4.29967 0
M  V30 6771 C 669.901 -2.23877 -5.27889 0
M  V30 6772 N 669.397 -2.83829 -6.31991 0
M  V30 6773 N 671.19 -2.14279 -5.19654 0
M  V30 6774 H 663.341 -1.6399 -1.34986 0
M  V30 6775 H 665.604 -0.690603 -0.649439 0
M  V30 6776 H 665.31 -2.12033 -2.80597 0
M  V30 6777 H 665.184 -0.627398 -3.71946 0
M  V30 6778 H 667.571 -0.000315966 -2.951 0
M  V30 6779 H 667.652 -1.52374 -2.05465 0
M  V30 6780 H 667.296 -2.80084 -4.23693 0
M  V30 6781 H 667.226 -1.25229 -5.11493 0
M  V30 6782 H 669.717 -1.28554 -3.55362 0
M  V30 6783 H 670.03 -3.20827 -7.03057 0
M  V30 6784 H 668.375 -2.87896 -6.32567 0
M  V30 6785 H 671.566 -1.67135 -4.37245 0
M  V30 6786 H 671.739 -2.54792 -5.95806 0
M  V30 6787 N 665.145 1.52092 -0.413018 0
M  V30 6788 C 666.108 2.25706 0.398687 0
M  V30 6789 C 667.108 1.28221 0.970368 0
M  V30 6790 O 668.298 1.52131 0.848635 0
M  V30 6791 C 665.43 3.03029 1.5616 0
M  V30 6792 H 666.623 2.98888 -0.246131 0
M  V30 6793 H 664.176 1.5542 -0.165622 0
M  V30 6794 H 664.911 2.34205 2.24317 0
M  V30 6795 H 664.696 3.74606 1.15812 0
M  V30 6796 H 666.186 3.58857 2.13569 0
M  V30 6797 N 666.623 0.143563 1.56945 0
M  V30 6798 C 667.871 -0.507402 1.95627 0
M  V30 6799 C 668.192 -1.65626 1.02922 0
M  V30 6800 O 667.462 -1.95693 0.0901136 0
M  V30 6801 H 666.042 -0.190436 0.722318 0
M  V30 6802 H 668.704 0.218257 1.93674 0
M  V30 6803 H 667.8 -0.885816 2.99265 0
M  V30 6804 N 668.101 -1.57061 -0.130224 0
M  V30 6805 C 669.033 -1.96147 -1.18571 0
M  V30 6806 C 670.046 -0.859347 -1.38272 0
M  V30 6807 O 671.235 -1.13769 -1.37545 0
M  V30 6808 C 668.335 -2.23484 -2.54771 0
M  V30 6809 C 667.508 -3.54786 -2.55824 0
M  V30 6810 C 666.567 -3.70467 -3.73686 0
M  V30 6811 O 665.593 -4.42693 -3.57787 0
M  V30 6812 N 666.795 -3.08389 -4.91809 0
M  V30 6813 H 669.56 -2.87295 -0.853333 0
M  V30 6814 H 667.121 -1.58714 -0.319621 0
M  V30 6815 H 669.113 -2.312 -3.32158 0
M  V30 6816 H 667.683 -1.38518 -2.80235 0
M  V30 6817 H 666.903 -3.5836 -1.64232 0
M  V30 6818 H 668.191 -4.4111 -2.53573 0
M  V30 6819 H 667.589 -2.49656 -5.0763 0
M  V30 6820 H 666.146 -3.21642 -5.66912 0
M  V30 6821 N 669.579 0.400081 -1.52437 0
M  V30 6822 C 670.807 1.16768 -1.70801 0
M  V30 6823 C 671.222 1.84036 -0.421462 0
M  V30 6824 O 670.579 1.72242 0.603228 0
M  V30 6825 C 670.63 2.22403 -2.8499 0
M  V30 6826 O 670.351 1.57879 -4.08663 0
M  V30 6827 C 671.852 3.11974 -3.1494 0
M  V30 6828 H 669.072 0.350533 -0.57216 0
M  V30 6829 H 671.616 0.469534 -1.99037 0
M  V30 6830 H 669.771 2.87871 -2.59247 0
M  V30 6831 H 670.185 2.27982 -4.7236 0
M  V30 6832 H 671.659 3.82148 -3.9833 0
M  V30 6833 H 672.136 3.74858 -2.28863 0
M  V30 6834 H 672.742 2.52165 -3.42481 0
M  V30 6835 N 671.057 1.43213 0.657864 0
M  V30 6836 C 672.282 1.48227 1.45064 0
M  V30 6837 C 672.707 0.0999939 1.87834 0
M  V30 6838 O 672.065 -0.905269 1.57081 0
M  V30 6839 C 672.113 2.42931 2.6649 0
M  V30 6840 O 671.217 1.91237 3.6538 0
M  V30 6841 H 670.558 0.501551 0.435135 0
M  V30 6842 H 673.088 1.8808 0.805431 0
M  V30 6843 H 673.098 2.6008 3.1436 0
M  V30 6844 H 671.773 3.43348 2.34701 0
M  V30 6845 H 670.35 1.83726 3.24498 0
M  V30 6846 N 672.536 -0.895792 1.29666 0
M  V30 6847 C 673.782 -1.64908 1.18039 0
M  V30 6848 C 674.115 -1.9236 -0.266682 0
M  V30 6849 O 673.39 -1.53682 -1.19214 0
M  V30 6850 C 673.673 -2.99574 1.99819 0
M  V30 6851 C 673.526 -2.79163 3.52687 0
M  V30 6852 C 674.845 -4.00358 1.82761 0
M  V30 6853 H 671.964 -0.598437 0.430165 0
M  V30 6854 H 674.606 -1.03736 1.59182 0
M  V30 6855 H 672.756 -3.51786 1.64859 0
M  V30 6856 H 674.428 -2.33821 3.9765 0
M  V30 6857 H 672.671 -2.13871 3.77414 0
M  V30 6858 H 673.342 -3.74871 4.05186 0
M  V30 6859 H 675.818 -3.57268 2.13304 0
M  V30 6860 H 674.694 -4.92514 2.42325 0
M  V30 6861 H 674.955 -4.35096 0.783839 0
M  V30 6862 N 674.014 -1.12206 -1.10668 0
M  V30 6863 C 675.239 -0.898938 -1.86906 0
M  V30 6864 C 675.664 0.546346 -1.79991 0
M  V30 6865 O 675.022 1.38655 -1.1681 0
M  V30 6866 C 675.07 -1.37529 -3.33344 0
M  V30 6867 O 674.174 -0.55218 -4.08687 0
M  V30 6868 H 673.515 -0.323163 -0.580053 0
M  V30 6869 H 676.045 -1.49355 -1.39837 0
M  V30 6870 H 676.055 -1.3733 -3.84193 0
M  V30 6871 H 674.73 -2.42767 -3.37693 0
M  V30 6872 H 673.307 -0.620947 -3.67694 0
M  V30 6873 N 675.492 1.28418 -0.913599 0
M  V30 6874 C 676.422 2.29713 -0.418847 0
M  V30 6875 C 677.403 1.62165 0.513469 0
M  V30 6876 O 678.588 1.89576 0.421235 0
M  V30 6877 C 675.718 3.45612 0.342042 0
M  V30 6878 C 674.672 4.25056 -0.501123 0
M  V30 6879 C 673.998 5.3329 0.388097 0
M  V30 6880 C 675.298 4.91814 -1.75831 0
M  V30 6881 H 676.992 2.71346 -1.26538 0
M  V30 6882 H 674.538 1.30446 -0.609903 0
M  V30 6883 H 676.491 4.15562 0.699 0
M  V30 6884 H 675.215 3.02858 1.22248 0
M  V30 6885 H 673.874 3.56833 -0.840598 0
M  V30 6886 H 673.522 4.8678 1.26707 0
M  V30 6887 H 673.222 5.87347 -0.172459 0
M  V30 6888 H 674.746 6.06088 0.74094 0
M  V30 6889 H 676.16 5.54126 -1.47026 0
M  V30 6890 H 674.557 5.55866 -2.26126 0
M  V30 6891 H 675.627 4.16313 -2.4862 0
M  V30 6892 N 676.97 0.677563 1.42291 0
M  V30 6893 C 677.9 0.014968 2.33495 0
M  V30 6894 C 678.881 -0.786376 1.50831 0
M  V30 6895 O 680.066 -0.742975 1.79426 0
M  V30 6896 C 677.196 -0.935023 3.34477 0
M  V30 6897 C 676.15 -0.242074 4.27315 0
M  V30 6898 C 675.476 -1.30519 5.18526 0
M  V30 6899 C 676.776 0.880604 5.14823 0
M  V30 6900 H 678.47 0.776671 2.89151 0
M  V30 6901 H 676.016 0.37494 1.39033 0
M  V30 6902 H 677.969 -1.40766 3.97194 0
M  V30 6903 H 676.693 -1.72818 2.77131 0
M  V30 6904 H 675.352 0.210351 3.65996 0
M  V30 6905 H 675 -2.09041 4.57505 0
M  V30 6906 H 674.7 -0.846652 5.81468 0
M  V30 6907 H 676.224 -1.7787 5.84119 0
M  V30 6908 H 677.638 0.489062 5.7121 0
M  V30 6909 H 676.035 1.26511 5.86613 0
M  V30 6910 H 677.105 1.72818 4.53059 0
M  V30 6911 N 678.448 -1.51871 0.421078 0
M  V30 6912 C 679.694 -2.02894 -0.143346 0
M  V30 6913 C 680.049 -1.30054 -1.41787 0
M  V30 6914 O 679.342 -0.401776 -1.8734 0
M  V30 6915 C 679.536 -3.54764 -0.433292 0
M  V30 6916 C 679.365 -4.42316 0.811584 0
M  V30 6917 C 678.135 -4.872 1.34033 0
M  V30 6918 C 680.333 -4.85631 1.69313 0
M  V30 6919 N 678.315 -5.58915 2.53944 0
M  V30 6920 C 679.686 -5.56248 2.7384 0
M  V30 6921 C 681.741 -4.67634 1.70947 0
M  V30 6922 C 680.444 -6.10777 3.79927 0
M  V30 6923 C 682.47 -5.23068 2.7596 0
M  V30 6924 C 681.832 -5.93617 3.79207 0
M  V30 6925 H 677.931 -0.78188 -0.0137104 0
M  V30 6926 H 680.515 -1.85919 0.578105 0
M  V30 6927 H 678.686 -3.71787 -1.12378 0
M  V30 6928 H 680.418 -3.92464 -0.987644 0
M  V30 6929 H 677.173 -4.65035 0.896606 0
M  V30 6930 H 677.597 -5.99408 3.14704 0
M  V30 6931 H 682.239 -4.12566 0.9246 0
M  V30 6932 H 679.957 -6.64909 4.59262 0
M  V30 6933 H 683.543 -5.11005 2.78147 0
M  V30 6934 H 682.423 -6.35743 4.5913 0
M  V30 6935 N 679.926 -0.151884 -1.56866 0
M  V30 6936 C 680.858 0.817008 -2.14144 0
M  V30 6937 C 681.871 1.20735 -1.0921 0
M  V30 6938 O 683.06 1.15058 -1.36469 0
M  V30 6939 C 680.16 2.10844 -2.65326 0
M  V30 6940 C 679.333 1.88471 -3.94712 0
M  V30 6941 C 678.392 3.01649 -4.31155 0
M  V30 6942 O 677.418 2.73127 -4.9939 0
M  V30 6943 N 678.62 4.28947 -3.91132 0
M  V30 6944 H 681.385 0.327448 -2.97906 0
M  V30 6945 H 678.946 0.0315313 -1.61869 0
M  V30 6946 H 680.938 2.85616 -2.86715 0
M  V30 6947 H 679.508 2.51049 -1.86262 0
M  V30 6948 H 678.728 0.977088 -3.81899 0
M  V30 6949 H 680.016 1.70866 -4.79252 0
M  V30 6950 H 679.414 4.54986 -3.36161 0
M  V30 6951 H 677.971 5.00484 -4.17563 0
M  V30 6952 N 681.404 1.57128 0.121893 0
M  V30 6953 C 682.314 2.03425 1.16857 0
M  V30 6954 C 683.33 0.954108 1.45509 0
M  V30 6955 O 684.506 1.26541 1.56682 0
M  V30 6956 C 681.571 2.42685 2.47599 0
M  V30 6957 C 680.632 3.64767 2.2637 0
M  V30 6958 C 679.865 4.02145 3.50878 0
M  V30 6959 O 680.088 3.39897 4.58068 0
M  V30 6960 O 679.022 4.95262 3.42051 0
M  V30 6961 H 682.848 2.92825 0.80544 0
M  V30 6962 H 680.433 1.45654 0.332477 0
M  V30 6963 H 682.315 2.68684 3.24634 0
M  V30 6964 H 680.99 1.56432 2.83392 0
M  V30 6965 H 679.897 3.43922 1.47203 0
M  V30 6966 H 681.23 4.51716 1.95482 0
M  V30 6967 N 682.882 -0.391992 1.52647 0
M  V30 6968 C 684.293 -0.970064 1.5952 0
M  V30 6969 C 684.644 -1.91059 0.446207 0
M  V30 6970 O 683.769 -2.12062 -0.431125 0
M  V30 6971 C 684.364 -1.76614 2.89125 0
M  V30 6972 C 682.923 -2.29396 2.9842 0
M  V30 6973 C 682.07 -1.09864 2.54608 0
M  V30 6974 H 685.021 -0.171638 1.57769 0
M  V30 6975 H 685.042 -2.62511 2.75442 0
M  V30 6976 H 684.554 -1.08135 3.72731 0
M  V30 6977 H 682.655 -3.01196 2.19344 0
M  V30 6978 H 682.768 -2.59088 4.03002 0
M  V30 6979 H 681.132 -1.45777 2.08857 0
M  V30 6980 H 681.915 -0.429249 3.40606 0
M  V30 6981 N 684.36 -1.4356 -0.65026 0
M  V30 6982 C 685.27 -1.514 -1.79207 0
M  V30 6983 C 686.286 -0.400895 -1.69319 0
M  V30 6984 O 687.462 -0.655458 -1.90436 0
M  V30 6985 C 684.527 -1.43737 -3.155 0
M  V30 6986 C 683.588 -2.65743 -3.37163 0
M  V30 6987 C 682.821 -2.58436 -4.66954 0
M  V30 6988 O 683.044 -1.63374 -5.46503 0
M  V30 6989 O 681.978 -3.48984 -4.90402 0
M  V30 6990 H 685.804 -2.47825 -1.75547 0
M  V30 6991 H 683.389 -1.25594 -0.809111 0
M  V30 6992 H 685.271 -1.41916 -3.96784 0
M  V30 6993 H 683.946 -0.504488 -3.19745 0
M  V30 6994 H 682.853 -2.73136 -2.55632 0
M  V30 6995 H 684.186 -3.58014 -3.37768 0
M  V30 6996 N 685.838 0.888903 -1.30139 0
M  V30 6997 C 686.77 1.99972 -1.11999 0
M  V30 6998 C 687.783 1.62673 -0.0643619 0
M  V30 6999 O 688.972 1.75788 -0.309983 0
M  V30 7000 C 686.072 3.31904 -0.685059 0
M  V30 7001 C 685.245 3.97665 -1.82158 0
M  V30 7002 C 684.304 5.07894 -1.37585 0
M  V30 7003 O 683.33 5.2974 -2.08241 0
M  V30 7004 N 684.532 5.7995 -0.252697 0
M  V30 7005 H 687.297 2.16085 -2.07671 0
M  V30 7006 H 684.858 1.06175 -1.22223 0
M  V30 7007 H 686.85 4.03005 -0.369964 0
M  V30 7008 H 685.42 3.12084 0.179507 0
M  V30 7009 H 684.64 3.19787 -2.305 0
M  V30 7010 H 685.928 4.3834 -2.58332 0
M  V30 7011 H 685.326 5.647 0.336141 0
M  V30 7012 H 683.883 6.518 0.00296813 0
M  V30 7013 N 687.317 1.12792 1.10072 0
M  V30 7014 C 688.728 0.899346 1.63611 0
M  V30 7015 C 689.079 -0.565547 1.87872 0
M  V30 7016 O 688.204 -1.43081 1.62348 0
M  V30 7017 C 688.799 1.62608 2.97227 0
M  V30 7018 C 687.358 1.44356 3.47618 0
M  V30 7019 C 686.505 1.65958 2.22156 0
M  V30 7020 H 689.456 1.28216 0.935223 0
M  V30 7021 H 689.477 1.0793 3.64872 0
M  V30 7022 H 688.989 2.69221 2.79538 0
M  V30 7023 H 687.09 0.400148 3.70445 0
M  V30 7024 H 687.203 2.20218 4.25489 0
M  V30 7025 H 685.567 1.08395 2.30484 0
M  V30 7026 H 686.35 2.73877 2.06993 0
M  V30 7027 N 688.795 -1.27931 0.920396 0
M  V30 7028 C 689.743 -2.29061 0.404191 0
M  V30 7029 C 690.737 -1.61615 -0.507634 0
M  V30 7030 O 691.943 -1.75765 -0.388144 0
M  V30 7031 H 688.318 -0.743594 0.112123 0
M  V30 7032 H 690.289 -2.70021 1.27008 0
M  V30 7033 C 689.038 -3.46088 -0.334466 0
M  V30 7034 H 688.361 -3.98194 0.35797 0
M  V30 7035 H 689.801 -4.18829 -0.660196 0
M  V30 7036 C 688.26 -2.99396 -1.54479 0
M  V30 7037 O 688.79 -3.02439 -2.64374 0
M  V30 7038 N 686.996 -2.54978 -1.39408 0
M  V30 7039 H 686.543 -2.52701 -0.500009 0
M  V30 7040 H 686.501 -2.24098 -2.20516 0
M  V30 7041 N 690.273 -0.685099 -1.4193 0
M  V30 7042 C 691.521 -0.21124 -2.00993 0
M  V30 7043 C 691.842 1.18985 -1.54491 0
M  V30 7044 O 691.112 1.8009 -0.771 0
M  V30 7045 H 689.692 -0.0751059 -0.743215 0
M  V30 7046 H 692.354 -0.883915 -1.73704 0
M  V30 7047 H 691.45 -0.220513 -3.1132 0
M  V30 7048 N 691.751 1.51645 -0.429126 0
M  V30 7049 C 693 2.01203 0.141538 0
M  V30 7050 C 693.313 1.31828 1.44502 0
M  V30 7051 O 694.519 1.7231 2.09813 0
M  V30 7052 C 692.975 3.58624 0.302786 0
M  V30 7053 C 692.583 4.3693 -0.989775 0
M  V30 7054 C 694.327 4.16353 0.827661 0
M  V30 7055 C 692.234 5.86037 -0.794619 0
M  V30 7056 H 691.164 0.751867 0.05667 0
M  V30 7057 H 693.815 1.74822 -0.557633 0
M  V30 7058 H 692.197 3.81417 1.06476 0
M  V30 7059 H 693.371 4.25887 -1.75945 0
M  V30 7060 H 691.686 3.90614 -1.44256 0
M  V30 7061 H 694.283 5.25455 0.990026 0
M  V30 7062 H 694.626 3.74995 1.80787 0
M  V30 7063 H 695.159 3.97606 0.124213 0
M  V30 7064 H 691.898 6.31792 -1.74697 0
M  V30 7065 H 691.418 5.99765 -0.0645968 0
M  V30 7066 H 693.097 6.45471 -0.444591 0
M  V30 7067 N 693.229 0.160201 1.56784 0
M  V30 7068 C 694.478 -0.487619 1.95717 0
M  V30 7069 C 694.791 -1.65136 1.0483 0
M  V30 7070 O 695.997 -2.36468 1.33398 0
M  V30 7071 C 694.453 -0.91888 3.47972 0
M  V30 7072 C 694.061 0.218655 4.47466 0
M  V30 7073 C 695.805 -1.53575 3.95746 0
M  V30 7074 C 693.712 -0.231614 5.90946 0
M  V30 7075 H 692.642 -0.185939 0.730714 0
M  V30 7076 H 695.293 0.246657 1.81835 0
M  V30 7077 H 693.675 -1.70881 3.57234 0
M  V30 7078 H 694.849 0.995825 4.49911 0
M  V30 7079 H 693.164 0.744767 4.09685 0
M  V30 7080 H 695.761 -1.88448 5.00391 0
M  V30 7081 H 696.104 -2.42959 3.38048 0
M  V30 7082 H 696.637 -0.810467 3.89456 0
M  V30 7083 H 693.376 0.62718 6.52493 0
M  V30 7084 H 692.896 -0.974379 5.91833 0
M  V30 7085 H 694.575 -0.67922 6.43425 0
M  V30 7086 N 694.707 -1.5719 -0.113559 0
M  V30 7087 C 695.637 -2.03772 -1.14013 0
M  V30 7088 C 696.618 -0.923176 -1.42869 0
M  V30 7089 O 697.803 -1.19325 -1.53216 0
M  V30 7090 C 694.933 -2.44663 -2.4649 0
M  V30 7091 C 693.887 -3.59612 -2.32085 0
M  V30 7092 C 693.213 -3.8642 -3.69573 0
M  V30 7093 C 694.513 -4.91149 -1.7768 0
M  V30 7094 H 696.207 -2.89785 -0.752665 0
M  V30 7095 H 693.753 -1.39412 -0.360609 0
M  V30 7096 H 695.706 -2.75857 -3.18561 0
M  V30 7097 H 694.43 -1.55628 -2.87137 0
M  V30 7098 H 693.089 -3.28636 -1.62461 0
M  V30 7099 H 692.737 -2.94581 -4.07715 0
M  V30 7100 H 692.437 -4.63797 -3.60786 0
M  V30 7101 H 693.961 -4.2007 -4.4314 0
M  V30 7102 H 695.375 -5.20843 -2.39574 0
M  V30 7103 H 693.772 -5.72562 -1.79701 0
M  V30 7104 H 694.842 -4.79301 -0.734776 0
M  V30 7105 N 696.185 0.383891 -1.52853 0
M  V30 7106 C 697.095 1.49343 -1.80925 0
M  V30 7107 C 698.111 1.59458 -0.696348 0
M  V30 7108 O 699.287 1.75698 -0.984481 0
M  V30 7109 C 696.352 2.84819 -1.97684 0
M  V30 7110 C 695.413 2.84382 -3.21598 0
M  V30 7111 C 694.646 4.13397 -3.37548 0
M  V30 7112 O 694.869 5.08619 -2.58192 0
M  V30 7113 O 693.803 4.20325 -4.30826 0
M  V30 7114 H 697.629 1.2855 -2.75152 0
M  V30 7115 H 695.214 0.572229 -1.38007 0
M  V30 7116 H 697.096 3.65125 -2.10385 0
M  V30 7117 H 695.771 3.05627 -1.06647 0
M  V30 7118 H 694.678 2.0284 -3.14336 0
M  V30 7119 H 696.011 2.68526 -4.12498 0
M  V30 7120 N 697.663 1.43903 0.642637 0
M  V30 7121 C 698.893 1.49323 1.4278 0
M  V30 7122 C 699.301 0.113058 1.88862 0
M  V30 7123 O 698.644 -0.889089 1.60751 0
M  V30 7124 C 698.706 2.3861 2.68897 0
M  V30 7125 C 698.37 3.85976 2.44687 0
M  V30 7126 C 699.367 4.7681 2.07239 0
M  V30 7127 C 697.052 4.30567 2.58683 0
M  V30 7128 C 699.046 6.10234 1.841 0
M  V30 7129 C 696.733 5.64042 2.35159 0
M  V30 7130 C 697.731 6.53693 1.97925 0
M  V30 7131 O 697.419 7.84698 1.74654 0
M  V30 7132 H 697.151 0.509109 0.444729 0
M  V30 7133 H 699.705 1.89425 0.794195 0
M  V30 7134 H 697.935 1.93415 3.34855 0
M  V30 7135 H 699.624 2.35112 3.30873 0
M  V30 7136 H 700.39 4.43635 1.95993 0
M  V30 7137 H 696.269 3.61054 2.86637 0
M  V30 7138 H 699.813 6.80171 1.54962 0
M  V30 7139 H 695.71 5.96782 2.46011 0
M  V30 7140 H 696.478 7.96382 1.88993 0
M  V30 7141 N 699.141 -0.881989 1.30609 0
M  V30 7142 C 700.051 -2.02076 1.19174 0
M  V30 7143 C 701.067 -1.73645 0.11102 0
M  V30 7144 O 702.243 -1.98735 0.326528 0
M  V30 7145 C 699.308 -3.3515 0.887438 0
M  V30 7146 C 698.369 -3.76983 2.05383 0
M  V30 7147 C 697.602 -5.03707 1.76395 0
M  V30 7148 O 697.825 -5.66171 0.693302 0
M  V30 7149 O 696.759 -5.42019 2.61723 0
M  V30 7150 H 700.585 -2.14652 2.14845 0
M  V30 7151 H 698.17 -1.00843 1.10232 0
M  V30 7152 H 700.052 -4.14975 0.73306 0
M  V30 7153 H 698.727 -3.23676 -0.0393354 0
M  V30 7154 H 697.634 -2.97849 2.26355 0
M  V30 7155 H 698.967 -3.93066 2.96243 0
M  V30 7156 N 700.619 -1.13374 -1.09472 0
M  V30 7157 C 701.868 -0.889844 -1.8101 0
M  V30 7158 C 702.181 0.585686 -1.86625 0
M  V30 7159 O 703.387 0.946497 -2.54467 0
M  V30 7160 C 701.843 -1.54241 -3.25174 0
M  V30 7161 C 701.451 -3.05343 -3.27826 0
M  V30 7162 C 703.195 -1.37919 -4.0147 0
M  V30 7163 C 701.102 -3.63486 -4.6651 0
M  V30 7164 H 700.032 -0.329256 -0.678311 0
M  V30 7165 H 702.683 -1.36139 -1.23038 0
M  V30 7166 H 701.065 -0.998525 -3.83204 0
M  V30 7167 H 702.239 -3.66307 -2.79563 0
M  V30 7168 H 700.554 -3.21175 -2.65019 0
M  V30 7169 H 703.151 -1.78771 -5.03929 0
M  V30 7170 H 703.494 -0.323987 -4.15037 0
M  V30 7171 H 704.027 -1.89284 -3.49881 0
M  V30 7172 H 700.766 -4.68811 -4.58145 0
M  V30 7173 H 700.286 -3.073 -5.15099 0
M  V30 7174 H 701.965 -3.63134 -5.35484 0
M  V30 7175 N 702.098 1.27442 -0.927168 0
M  V30 7176 C 703.045 2.26863 -0.424459 0
M  V30 7177 C 704.015 1.5813 0.508346 0
M  V30 7178 O 705.2 1.85946 0.42762 0
M  V30 7179 C 702.34 3.43639 0.31718 0
M  V30 7180 C 701.453 4.27087 -0.649675 0
M  V30 7181 C 700.588 5.31082 0.111753 0
M  V30 7182 C 699.627 6.062 -0.847843 0
M  V30 7183 N 698.764 7.01999 -0.119074 0
M  V30 7184 H 703.604 2.69239 -1.27728 0
M  V30 7185 H 701.141 1.32394 -0.641106 0
M  V30 7186 H 703.099 4.10155 0.763486 0
M  V30 7187 H 701.729 3.02217 1.13424 0
M  V30 7188 H 700.781 3.60491 -1.21451 0
M  V30 7189 H 702.093 4.79242 -1.38307 0
M  V30 7190 H 701.247 6.03544 0.618 0
M  V30 7191 H 699.986 4.7973 0.878114 0
M  V30 7192 H 698.991 5.32577 -1.36534 0
M  V30 7193 H 700.216 6.59642 -1.61398 0
M  V30 7194 H 698.162 6.52977 0.629051 0
M  V30 7195 H 698.079 7.5184 -0.792046 0
M  V30 7196 H 699.347 7.78638 0.366537 0
M  V30 7197 N 703.576 0.692616 1.41565 0
M  V30 7198 C 704.806 0.230943 2.05305 0
M  V30 7199 C 705.214 -1.12379 1.52209 0
M  V30 7200 O 704.557 -1.71281 0.663968 0
M  V30 7201 C 704.619 0.107894 3.59338 0
M  V30 7202 C 704.283 1.39419 4.35214 0
M  V30 7203 C 705.28 2.33143 4.64694 0
M  V30 7204 C 702.965 1.64674 4.74539 0
M  V30 7205 C 704.959 3.50385 5.32456 0
M  V30 7206 C 702.646 2.82202 5.42038 0
M  V30 7207 C 703.644 3.74881 5.70923 0
M  V30 7208 O 703.332 4.90351 6.37033 0
M  V30 7209 H 703.064 0.105708 0.667684 0
M  V30 7210 H 705.618 0.94488 1.82376 0
M  V30 7211 H 703.848 -0.661785 3.80995 0
M  V30 7212 H 705.537 -0.316213 4.04666 0
M  V30 7213 H 706.303 2.14887 4.34797 0
M  V30 7214 H 702.182 0.934007 4.51439 0
M  V30 7215 H 705.726 4.22743 5.54918 0
M  V30 7216 H 701.623 3.00376 5.71353 0
M  V30 7217 H 702.391 4.90128 6.55528 0
M  V30 7218 N 705.054 -1.51416 0.437162 0
M  V30 7219 C 706.284 -2.06204 -0.127859 0
M  V30 7220 C 706.692 -1.30463 -1.37026 0
M  V30 7221 O 706.035 -0.357516 -1.80187 0
M  V30 7222 C 706.097 -3.55783 -0.515632 0
M  V30 7223 C 705.761 -4.52776 0.619937 0
M  V30 7224 C 706.758 -4.98031 1.49201 0
M  V30 7225 C 704.443 -4.95878 0.800618 0
M  V30 7226 C 706.437 -5.85061 2.52947 0
M  V30 7227 C 704.124 -5.82699 1.84135 0
M  V30 7228 C 705.122 -6.27188 2.70416 0
M  V30 7229 O 704.81 -7.12284 3.72702 0
M  V30 7230 H 704.542 -0.675903 -0.011442 0
M  V30 7231 H 707.096 -1.95977 0.614986 0
M  V30 7232 H 705.326 -3.63793 -1.31118 0
M  V30 7233 H 707.015 -3.93087 -1.01179 0
M  V30 7234 H 707.781 -4.65426 1.36395 0
M  V30 7235 H 703.66 -4.60792 0.138617 0
M  V30 7236 H 707.204 -6.19708 3.20325 0
M  V30 7237 H 703.101 -6.14717 1.9696 0
M  V30 7238 H 703.869 -7.30462 3.69281 0
M  V30 7239 N 706.532 -0.168513 -1.56696 0
M  V30 7240 C 707.442 0.775435 -2.21414 0
M  V30 7241 C 708.458 1.25529 -1.20492 0
M  V30 7242 O 709.634 1.30801 -1.53144 0
M  V30 7243 C 706.699 1.9886 -2.83999 0
M  V30 7244 C 705.76 1.5559 -4.00113 0
M  V30 7245 C 704.993 2.71124 -4.59704 0
M  V30 7246 O 705.216 3.87917 -4.18182 0
M  V30 7247 O 704.15 2.4536 -5.4962 0
M  V30 7248 H 707.976 0.254416 -3.02632 0
M  V30 7249 H 705.561 0.0595507 -1.49281 0
M  V30 7250 H 707.443 2.69816 -3.23693 0
M  V30 7251 H 706.118 2.49874 -2.05779 0
M  V30 7252 H 705.025 0.815924 -3.65094 0
M  V30 7253 H 706.358 1.09271 -4.79917 0
M  V30 7254 N 708.01 1.57248 0.105221 0
M  V30 7255 C 708.957 2.01338 1.12835 0
M  V30 7256 C 709.927 0.887897 1.40377 0
M  V30 7257 O 711.112 1.15315 1.5201 0
M  V30 7258 C 708.252 2.43432 2.44611 0
M  V30 7259 C 707.365 3.69457 2.23888 0
M  V30 7260 C 706.5 4.00473 3.48991 0
M  V30 7261 C 705.539 5.19638 3.23485 0
M  V30 7262 N 704.676 5.46457 4.40828 0
M  V30 7263 H 709.516 2.88527 0.745386 0
M  V30 7264 H 707.053 1.42714 0.356535 0
M  V30 7265 H 709.011 2.65879 3.21503 0
M  V30 7266 H 707.641 1.59266 2.80774 0
M  V30 7267 H 706.693 3.54545 1.37847 0
M  V30 7268 H 708.005 4.56497 2.01026 0
M  V30 7269 H 707.159 4.23642 4.34295 0
M  V30 7270 H 705.898 3.11935 3.74897 0
M  V30 7271 H 704.903 4.96299 2.36574 0
M  V30 7272 H 706.128 6.09766 2.98935 0
M  V30 7273 H 704.074 4.60876 4.66829 0
M  V30 7274 H 703.991 6.27849 4.2112 0
M  V30 7275 H 705.259 5.74155 5.27225 0
M  V30 7276 N 709.488 -0.375779 1.53054 0
M  V30 7277 C 710.765 -1.13453 1.59336 0
M  V30 7278 C 711.145 -2.07379 0.394614 0
M  V30 7279 O 710.493 -2.2004 -0.616 0
M  V30 7280 C 710.703 -1.8826 2.93869 0
M  V30 7281 C 712.051 -2.43155 3.48081 0
M  V30 7282 O 713.075 -1.984 2.95831 0
M  V30 7283 O 711.934 -3.24944 4.39401 0
M  V30 7284 H 709.028 -0.519856 0.643179 0
M  V30 7285 H 711.574 -0.379865 1.65394 0
M  V30 7286 H 710.346 -1.19652 3.72558 0
M  V30 7287 H 709.969 -2.70658 2.91256 0
M  V30 7288 N 710.966 -1.44241 -0.634997 0
M  V30 7289 C 711.913 -1.5081 -1.74714 0
M  V30 7290 C 712.883 -0.356147 -1.62237 0
M  V30 7291 O 714.068 -0.565848 -1.82216 0
M  V30 7292 C 711.208 -1.45458 -3.12947 0
M  V30 7293 C 710.321 -2.70998 -3.36428 0
M  V30 7294 C 709.456 -2.57507 -4.64611 0
M  V30 7295 C 708.495 -3.78229 -4.81258 0
M  V30 7296 N 707.632 -3.63438 -6.00714 0
M  V30 7297 H 712.472 -2.45832 -1.68436 0
M  V30 7298 H 710.009 -1.2201 -0.821706 0
M  V30 7299 H 711.967 -1.40347 -3.92885 0
M  V30 7300 H 710.597 -0.540058 -3.1825 0
M  V30 7301 H 709.649 -2.86312 -2.50458 0
M  V30 7302 H 710.961 -3.60619 -3.44609 0
M  V30 7303 H 710.115 -2.50207 -5.52703 0
M  V30 7304 H 708.854 -1.65441 -4.58782 0
M  V30 7305 H 707.859 -3.85918 -3.91596 0
M  V30 7306 H 709.084 -4.71327 -4.88904 0
M  V30 7307 H 707.03 -2.7412 -5.95982 0
M  V30 7308 H 706.947 -4.46672 -6.09934 0
M  V30 7309 H 708.215 -3.60022 -6.91378 0
M  V30 7310 N 712.444 0.87505 -1.31075 0
M  V30 7311 C 713.354 2.01441 -1.20244 0
M  V30 7312 C 714.37 1.73584 -0.120227 0
M  V30 7313 O 715.546 1.98559 -0.337063 0
M  V30 7314 C 712.611 3.34675 -0.905199 0
M  V30 7315 C 711.672 3.75889 -2.0738 0
M  V30 7316 C 710.905 5.02764 -1.79064 0
M  V30 7317 O 711.128 5.65795 -0.723318 0
M  V30 7318 O 710.062 5.40623 -2.64594 0
M  V30 7319 H 713.888 2.13509 -2.1598 0
M  V30 7320 H 711.473 1.00257 -1.10765 0
M  V30 7321 H 713.355 4.1458 -0.755057 0
M  V30 7322 H 712.03 3.23692 0.0221695 0
M  V30 7323 H 710.937 2.96645 -2.27931 0
M  V30 7324 H 712.27 3.91489 -2.98324 0
M  V30 7325 N 713.922 1.13953 1.08869 0
M  V30 7326 C 714.855 0.765765 2.14968 0
M  V30 7327 C 715.833 -0.250689 1.60656 0
M  V30 7328 O 717.017 -0.140852 1.87973 0
M  V30 7329 C 714.144 0.136146 3.38426 0
M  V30 7330 C 713.19 1.12201 4.11477 0
M  V30 7331 S 714.023 2.65711 4.64928 0
M  V30 7332 C 715.179 2.04125 5.91679 0
M  V30 7333 H 715.412 1.66444 2.46341 0
M  V30 7334 H 712.945 0.960263 1.20906 0
M  V30 7335 H 714.903 -0.220712 4.09906 0
M  V30 7336 H 713.564 -0.739887 3.05261 0
M  V30 7337 H 712.757 0.629398 5.00055 0
M  V30 7338 H 712.359 1.42262 3.45886 0
M  V30 7339 H 714.651 1.39381 6.63008 0
M  V30 7340 H 715.594 2.90808 6.45629 0
M  V30 7341 H 716.002 1.4905 5.44467 0
M  V30 7342 N 715.4 -1.26948 0.933913 0
M  V30 7343 C 716.332 -2.25768 0.395137 0
M  V30 7344 C 717.345 -1.55637 -0.477585 0
M  V30 7345 O 718.534 -1.76142 -0.289204 0
M  V30 7346 C 715.634 -3.35874 -0.451882 0
M  V30 7347 C 714.807 -4.3554 0.40299 0
M  V30 7348 C 713.866 -5.24809 -0.3824 0
M  V30 7349 O 712.892 -5.68805 0.212057 0
M  V30 7350 N 714.094 -5.55636 -1.68072 0
M  V30 7351 H 716.859 -2.72634 1.24463 0
M  V30 7352 H 714.42 -1.40639 0.802008 0
M  V30 7353 H 716.412 -3.92542 -0.984516 0
M  V30 7354 H 714.982 -2.8856 -1.20215 0
M  V30 7355 H 714.202 -3.78047 1.11688 0
M  V30 7356 H 715.49 -4.99131 0.987201 0
M  V30 7357 H 714.888 -5.2176 -2.18592 0
M  V30 7358 H 713.445 -6.14978 -2.15975 0
M  V30 7359 N 716.879 -0.700114 -1.41195 0
M  V30 7360 C 718.104 -0.240704 -2.05998 0
M  V30 7361 C 718.529 1.10313 -1.52357 0
M  V30 7362 O 717.887 1.69154 -0.652424 0
M  V30 7363 C 717.935 -0.213783 -3.59966 0
M  V30 7364 O 717.039 0.809933 -4.04368 0
M  V30 7365 H 716.38 -0.116471 -0.653705 0
M  V30 7366 H 718.91 -0.956251 -1.80878 0
M  V30 7367 H 718.92 -0.0461852 -4.07974 0
M  V30 7368 H 717.595 -1.19454 -3.98376 0
M  V30 7369 H 716.172 0.611319 -3.67855 0
M  V30 7370 N 718.357 1.51182 -0.445186 0
M  V30 7371 C 719.587 2.06269 0.116922 0
M  V30 7372 C 719.995 1.31188 1.36332 0
M  V30 7373 O 719.338 0.367067 1.79995 0
M  V30 7374 C 719.4 3.56051 0.496757 0
M  V30 7375 C 719.064 4.52441 -0.64394 0
M  V30 7376 C 720.061 4.97233 -1.5184 0
M  V30 7377 C 717.746 4.95447 -0.826905 0
M  V30 7378 C 719.74 5.83712 -2.56046 0
M  V30 7379 C 717.427 5.81714 -1.87222 0
M  V30 7380 C 718.425 6.25745 -2.73738 0
M  V30 7381 O 718.113 7.10298 -3.76474 0
M  V30 7382 H 717.845 0.675954 0.00785733 0
M  V30 7383 H 720.399 1.95648 -0.625371 0
M  V30 7384 H 718.629 3.64483 1.29187 0
M  V30 7385 H 720.318 3.93618 0.990928 0
M  V30 7386 H 721.084 4.64696 -1.38862 0
M  V30 7387 H 716.963 4.60712 -0.163052 0
M  V30 7388 H 720.507 6.18 -3.23607 0
M  V30 7389 H 716.404 6.13664 -2.00218 0
M  V30 7390 H 717.172 7.28493 -3.73149 0
M  V30 7391 N 719.835 0.176821 1.56605 0
M  V30 7392 C 721.06 -0.47599 2.01864 0
M  V30 7393 C 721.485 -1.55645 1.05623 0
M  V30 7394 O 720.843 -1.81263 0.0366729 0
M  V30 7395 C 720.891 -1.02619 3.4569 0
M  V30 7396 O 719.995 -2.13996 3.52533 0
M  V30 7397 H 719.336 -0.113363 0.654251 0
M  V30 7398 H 721.866 0.28233 2.02643 0
M  V30 7399 H 721.876 -1.34742 3.85109 0
M  V30 7400 H 720.551 -0.235138 4.15235 0
M  V30 7401 H 719.128 -1.82876 3.24978 0
M  V30 7402 N 721.313 -1.57302 -0.09688 0
M  V30 7403 C 722.541 -1.90202 -0.814295 0
M  V30 7404 C 722.956 -0.770344 -1.72369 0
M  V30 7405 O 722.313 0.257764 -1.8067 0
M  V30 7406 C 722.364 -3.22708 -1.62916 0
M  V30 7407 O 722.085 -4.31522 -0.756343 0
M  V30 7408 C 723.586 -3.69459 -2.44979 0
M  V30 7409 H 720.806 -0.629275 -0.232925 0
M  V30 7410 H 723.35 -2.04364 -0.0746482 0
M  V30 7411 H 721.505 -3.1015 -2.32133 0
M  V30 7412 H 721.919 -5.07604 -1.32054 0
M  V30 7413 H 723.393 -4.64875 -2.9765 0
M  V30 7414 H 723.87 -2.97211 -3.23361 0
M  V30 7415 H 724.476 -3.84879 -1.80964 0
M  V30 7416 N 722.791 0.367657 -1.53252 0
M  V30 7417 C 723.721 1.45632 -1.8252 0
M  V30 7418 C 724.702 1.55979 -0.678568 0
M  V30 7419 O 725.887 1.70581 -0.928217 0
M  V30 7420 C 723.017 2.82994 -2.01325 0
M  V30 7421 C 721.971 2.87473 -3.17086 0
M  V30 7422 C 721.297 4.2749 -3.21179 0
M  V30 7423 C 722.597 2.55182 -4.55719 0
M  V30 7424 H 724.291 1.21387 -2.73689 0
M  V30 7425 H 721.837 0.58251 -1.31692 0
M  V30 7426 H 723.79 3.59179 -2.20383 0
M  V30 7427 H 722.514 3.08622 -1.06864 0
M  V30 7428 H 721.173 2.13739 -2.97844 0
M  V30 7429 H 720.821 4.5019 -2.24361 0
M  V30 7430 H 720.521 4.31403 -3.98955 0
M  V30 7431 H 722.045 5.0555 -3.42419 0
M  V30 7432 H 723.459 3.21081 -4.74953 0
M  V30 7433 H 721.856 2.70414 -5.3572 0
M  V30 7434 H 722.926 1.5044 -4.60973 0
M  V30 7435 N 724.269 1.44576 0.627338 0
M  V30 7436 C 725.216 1.51734 1.73912 0
M  V30 7437 C 726.186 0.364745 1.62046 0
M  V30 7438 O 727.371 0.575503 1.81914 0
M  V30 7439 C 724.511 1.47116 3.12171 0
M  V30 7440 C 723.624 2.72778 3.34986 0
M  V30 7441 C 722.759 2.59968 4.63239 0
M  V30 7442 C 721.798 3.80776 4.79245 0
M  V30 7443 N 720.935 3.66618 5.98778 0
M  V30 7444 H 725.775 2.46722 1.6713 0
M  V30 7445 H 723.312 1.22444 0.815224 0
M  V30 7446 H 725.27 1.42429 3.92135 0
M  V30 7447 H 723.9 0.556928 3.17959 0
M  V30 7448 H 722.952 2.87637 2.48936 0
M  V30 7449 H 724.264 3.62441 3.42692 0
M  V30 7450 H 723.418 2.53135 5.51369 0
M  V30 7451 H 722.157 1.67872 4.57898 0
M  V30 7452 H 721.162 3.87989 3.89544 0
M  V30 7453 H 722.387 4.73913 4.86398 0
M  V30 7454 H 720.333 2.77277 5.9452 0
M  V30 7455 H 720.25 4.499 6.07557 0
M  V30 7456 H 721.518 3.63684 6.89459 0
M  V30 7457 N 725.747 -0.868086 1.31537 0
M  V30 7458 C 726.71 -1.95703 1.19302 0
M  V30 7459 C 727.71 -1.60355 0.119612 0
M  V30 7460 O 728.9 -1.70247 0.36902 0
M  V30 7461 C 726.032 -3.30599 0.831684 0
M  V30 7462 H 727.225 -2.07982 2.16064 0
M  V30 7463 H 724.778 -1.05661 1.15176 0
M  V30 7464 H 725.513 -3.2402 -0.134694 0
M  V30 7465 H 725.298 -3.57629 1.60761 0
M  V30 7466 H 726.788 -4.10439 0.770026 0
M  V30 7467 N 727.225 -1.14528 -1.08264 0
M  V30 7468 C 728.471 -0.91576 -1.80947 0
M  V30 7469 C 728.804 0.55623 -1.86064 0
M  V30 7470 O 728.079 1.41207 -1.33756 0
M  V30 7471 C 728.362 -1.51917 -3.26486 0
M  V30 7472 C 728.215 -3.06111 -3.2957 0
M  V30 7473 C 729.534 -1.19724 -4.23502 0
M  V30 7474 H 726.653 -0.334113 -0.656915 0
M  V30 7475 H 729.295 -1.41547 -1.26746 0
M  V30 7476 H 727.445 -1.0942 -3.72773 0
M  V30 7477 H 729.117 -3.57448 -2.91597 0
M  V30 7478 H 727.36 -3.40483 -2.688 0
M  V30 7479 H 728.031 -3.43438 -4.32151 0
M  V30 7480 H 730.507 -1.56467 -3.85561 0
M  V30 7481 H 729.383 -1.64575 -5.23647 0
M  V30 7482 H 729.644 -0.112771 -4.41956 0
M  V30 7483 N 728.703 1.26451 -0.940633 0
M  V30 7484 C 729.931 1.97868 -0.604642 0
M  V30 7485 C 730.346 1.70051 0.820251 0
M  V30 7486 O 729.703 0.96843 1.54686 0
M  V30 7487 C 729.754 3.51684 -0.836689 0
M  V30 7488 O 729.475 3.78533 -2.20554 0
M  V30 7489 C 730.976 4.40343 -0.511169 0
M  V30 7490 H 728.196 0.631105 -0.227919 0
M  V30 7491 H 730.74 1.60979 -1.26119 0
M  V30 7492 H 728.895 3.86736 -0.226759 0
M  V30 7493 H 729.309 4.73065 -2.26517 0
M  V30 7494 H 730.783 5.47229 -0.724157 0
M  V30 7495 H 731.26 4.35694 0.553815 0
M  V30 7496 H 731.866 4.10834 -1.0998 0
M  V30 7497 N 730.181 0.707592 1.40822 0
M  V30 7498 C 731.409 0.253073 2.05346 0
M  V30 7499 C 731.824 -1.10218 1.53289 0
M  V30 7500 O 731.181 -1.69112 0.686105 0
M  V30 7501 C 731.232 0.215411 3.60858 0
M  V30 7502 O 730.953 1.51714 4.10992 0
M  V30 7503 C 732.454 -0.258636 4.42545 0
M  V30 7504 H 729.674 0.115256 0.661027 0
M  V30 7505 H 732.218 0.963555 1.80377 0
M  V30 7506 H 730.373 -0.445978 3.84824 0
M  V30 7507 H 730.787 1.41226 5.05129 0
M  V30 7508 H 732.261 -0.233849 5.51504 0
M  V30 7509 H 732.738 -1.2995 4.19535 0
M  V30 7510 H 733.344 0.372186 4.23668 0
M  V30 7511 N 731.66 -1.50943 0.453197 0
M  V30 7512 C 733.076 -1.59245 0.106342 0
M  V30 7513 C 733.276 -1.46287 -1.38572 0
M  V30 7514 O 732.332 -1.31219 -2.15726 0
M  V30 7515 C 733.645 -2.93797 0.640595 0
M  V30 7516 C 735.193 -3.07148 0.602435 0
M  V30 7517 C 735.668 -4.44247 1.11393 0
M  V30 7518 N 737.159 -4.50611 1.07258 0
M  V30 7519 C 737.894 -5.55049 1.43905 0
M  V30 7520 N 737.39 -6.66828 1.87914 0
M  V30 7521 N 739.183 -5.45494 1.35621 0
M  V30 7522 H 731.334 -1.5761 1.42382 0
M  V30 7523 H 733.597 -0.74384 0.587713 0
M  V30 7524 H 733.303 -3.087 1.68515 0
M  V30 7525 H 733.177 -3.77127 0.0742272 0
M  V30 7526 H 735.564 -2.91903 -0.433171 0
M  V30 7527 H 735.645 -2.25619 1.20539 0
M  V30 7528 H 735.289 -4.60239 2.14808 0
M  V30 7529 H 735.219 -5.2434 0.487353 0
M  V30 7530 H 737.71 -3.70391 0.749585 0
M  V30 7531 H 738.023 -7.42558 2.14072 0
M  V30 7532 H 736.368 -6.67995 1.91853 0
M  V30 7533 H 739.559 -4.57053 1.01093 0
M  V30 7534 H 739.732 -6.2677 1.64508 0
M  V30 7535 N 733.138 -0.185124 -1.56509 0
M  V30 7536 C 734.101 0.72591 -2.17401 0
M  V30 7537 C 735.101 1.14819 -1.12575 0
M  V30 7538 O 736.291 1.0629 -1.38015 0
M  V30 7539 C 733.423 1.98979 -2.76803 0
M  V30 7540 H 734.616 0.195588 -2.99262 0
M  V30 7541 H 732.169 0.0644772 -1.56167 0
M  V30 7542 H 732.904 2.56287 -1.98714 0
M  V30 7543 H 732.689 1.69583 -3.53531 0
M  V30 7544 H 734.179 2.63966 -3.23592 0
M  V30 7545 N 734.616 1.57351 0.0885366 0
M  V30 7546 C 735.844 1.90631 0.804196 0
M  V30 7547 C 736.259 0.779474 1.71958 0
M  V30 7548 O 735.616 -0.248179 1.80805 0
M  V30 7549 C 735.667 3.23568 1.61202 0
M  V30 7550 O 735.388 4.31917 0.733447 0
M  V30 7551 C 736.889 3.70753 2.43016 0
M  V30 7552 H 734.109 0.630501 0.229585 0
M  V30 7553 H 736.653 2.044 0.0638092 0
M  V30 7554 H 734.808 3.11377 2.30485 0
M  V30 7555 H 735.222 5.08297 1.29361 0
M  V30 7556 H 736.696 4.66447 2.9518 0
M  V30 7557 H 737.173 2.98922 3.2178 0
M  V30 7558 H 737.779 3.85834 1.7892 0
M  V30 7559 N 736.094 -0.359525 1.53444 0
M  V30 7560 C 737.34 -1.10315 1.70172 0
M  V30 7561 C 737.673 -1.88788 0.455287 0
M  V30 7562 O 736.948 -1.86635 -0.547514 0
M  V30 7563 C 737.231 -2.05744 2.95536 0
M  V30 7564 C 737.084 -1.3084 4.3035 0
M  V30 7565 C 738.403 -3.05784 3.16518 0
M  V30 7566 H 735.522 -0.399662 0.619225 0
M  V30 7567 H 738.164 -0.383338 1.86093 0
M  V30 7568 H 736.314 -2.67125 2.82093 0
M  V30 7569 H 737.986 -0.721959 4.55615 0
M  V30 7570 H 736.229 -0.610283 4.29486 0
M  V30 7571 H 736.9 -2.00718 5.14214 0
M  V30 7572 H 739.376 -2.5451 3.29187 0
M  V30 7573 H 738.252 -3.69772 4.05659 0
M  V30 7574 H 738.513 -3.76289 2.32076 0
M  V30 7575 N 737.572 -1.44907 -0.619662 0
M  V30 7576 C 738.797 -1.52021 -1.41083 0
M  V30 7577 C 739.222 -0.14976 -1.87503 0
M  V30 7578 O 738.58 0.863303 -1.59426 0
M  V30 7579 C 738.628 -2.49911 -2.59955 0
M  V30 7580 O 737.732 -2.00857 -3.60181 0
M  V30 7581 H 737.073 -0.512912 -0.421684 0
M  V30 7582 H 739.603 -1.90149 -0.755282 0
M  V30 7583 H 739.613 -2.68323 -3.07354 0
M  V30 7584 H 738.288 -3.4945 -2.25516 0
M  V30 7585 H 736.865 -1.92265 -3.19513 0
M  V30 7586 N 739.05 0.861098 -1.31996 0
M  V30 7587 C 740.298 1.61162 -1.21947 0
M  V30 7588 C 740.619 1.93751 0.220351 0
M  V30 7589 O 739.889 1.59069 1.14341 0
M  V30 7590 H 738.469 0.597485 -0.448353 0
M  V30 7591 H 741.131 1.03039 -1.65436 0
M  V30 7592 H 740.227 2.55138 -1.79752 0
M  V30 7593 N 740.528 1.15101 1.07655 0
M  V30 7594 C 741.458 0.867864 2.16773 0
M  V30 7595 C 742.439 -0.180283 1.69142 0
M  V30 7596 O 743.624 -0.0353152 1.94168 0
M  V30 7597 C 740.754 0.35299 3.45501 0
M  V30 7598 C 739.708 1.33746 4.06566 0
M  V30 7599 C 739.034 0.681562 5.30338 0
M  V30 7600 C 740.334 2.7024 4.46954 0
M  V30 7601 H 742.028 1.78034 2.40716 0
M  V30 7602 H 739.574 0.857435 1.15689 0
M  V30 7603 H 741.527 0.142465 4.21159 0
M  V30 7604 H 740.251 -0.594945 3.21135 0
M  V30 7605 H 738.91 1.53429 3.32949 0
M  V30 7606 H 738.558 -0.272422 5.02262 0
M  V30 7607 H 738.258 1.33853 5.72151 0
M  V30 7608 H 739.782 0.48074 6.08705 0
M  V30 7609 H 741.196 2.5442 5.13754 0
M  V30 7610 H 739.593 3.32282 4.99709 0
M  V30 7611 H 740.663 3.26537 3.58471 0
M  V30 7612 N 742.006 -1.2595 0.947325 0
M  V30 7613 C 742.953 -2.26159 0.460497 0
M  V30 7614 C 743.923 -1.58919 -0.483125 0
M  V30 7615 O 745.108 -1.86603 -0.397983 0
M  V30 7616 C 742.248 -3.441 -0.26247 0
M  V30 7617 C 741.361 -4.25999 0.717539 0
M  V30 7618 C 740.496 -5.31193 -0.0272486 0
M  V30 7619 C 739.535 -6.04774 0.944177 0
M  V30 7620 N 738.672 -7.01721 0.230741 0
M  V30 7621 H 743.512 -2.67173 1.31995 0
M  V30 7622 H 741.049 -1.31358 0.662088 0
M  V30 7623 H 743.007 -4.11317 -0.698137 0
M  V30 7624 H 741.637 -3.03983 -1.08602 0
M  V30 7625 H 740.689 -3.58513 1.27171 0
M  V30 7626 H 742.001 -4.76981 1.45913 0
M  V30 7627 H 741.155 -6.04451 -0.521903 0
M  V30 7628 H 739.894 -4.81066 -0.801682 0
M  V30 7629 H 738.899 -5.30338 1.4499 0
M  V30 7630 H 740.124 -6.56991 1.71872 0
M  V30 7631 H 738.07 -6.53895 -0.525088 0
M  V30 7632 H 737.987 -7.50484 0.911556 0
M  V30 7633 H 739.255 -7.79122 -0.242616 0
M  V30 7634 N 743.484 -0.715051 -1.40445 0
M  V30 7635 C 744.895 -0.326763 -1.83818 0
M  V30 7636 C 745.246 1.13851 -1.59789 0
M  V30 7637 O 744.371 1.87611 -1.07848 0
M  V30 7638 C 744.966 -0.586297 -3.33688 0
M  V30 7639 C 743.525 -0.251724 -3.75557 0
M  V30 7640 C 742.672 -0.858928 -2.63662 0
M  V30 7641 H 745.623 -0.914241 -1.2972 0
M  V30 7642 H 745.644 0.148636 -3.8021 0
M  V30 7643 H 745.156 -1.65281 -3.51146 0
M  V30 7644 H 743.257 0.809754 -3.63695 0
M  V30 7645 H 743.37 -0.720348 -4.73654 0
M  V30 7646 H 741.734 -0.287013 -2.53078 0
M  V30 7647 H 742.517 -1.9297 -2.83932 0
M  V30 7648 N 744.962 1.50701 -0.461195 0
M  V30 7649 C 746.21 2.01867 0.0970051 0
M  V30 7650 C 746.531 1.34591 1.41104 0
M  V30 7651 O 745.801 0.488041 1.89723 0
M  V30 7652 H 744.381 0.74599 0.0388392 0
M  V30 7653 H 747.043 1.85129 -0.609357 0
M  V30 7654 H 746.139 3.11051 0.255688 0
M  V30 7655 N 746.441 0.193421 1.56409 0
M  V30 7656 C 747.669 -0.451438 2.01915 0
M  V30 7657 C 748.084 -1.55306 1.07357 0
M  V30 7658 O 747.441 -1.82333 0.0781512 0
M  V30 7659 C 747.492 -1.00931 3.47124 0
M  V30 7660 O 747.213 0.0483623 4.38073 0
M  V30 7661 C 748.714 -1.73021 4.0814 0
M  V30 7662 H 745.934 -0.113495 0.661332 0
M  V30 7663 H 748.478 0.301636 2.02263 0
M  V30 7664 H 746.633 -1.71277 3.47481 0
M  V30 7665 H 747.047 -0.366644 5.23217 0
M  V30 7666 H 748.521 -2.07289 5.11601 0
M  V30 7667 H 748.998 -2.6333 3.51502 0
M  V30 7668 H 749.604 -1.07264 4.11551 0
M  V30 7669 N 747.919 -1.57396 -0.0801906 0
M  V30 7670 C 749.335 -1.53564 -0.434778 0
M  V30 7671 C 749.535 -0.912372 -1.79661 0
M  V30 7672 O 748.591 -0.511268 -2.4727 0
M  V30 7673 C 749.904 -2.98244 -0.383561 0
M  V30 7674 C 751.452 -3.09536 -0.46435 0
M  V30 7675 C 751.927 -4.55851 -0.443128 0
M  V30 7676 N 753.418 -4.60456 -0.503448 0
M  V30 7677 C 754.153 -5.71135 -0.509106 0
M  V30 7678 N 753.649 -6.91203 -0.47008 0
M  V30 7679 N 755.442 -5.59353 -0.555035 0
M  V30 7680 H 747.593 -1.96281 0.811635 0
M  V30 7681 H 749.856 -0.898041 0.303689 0
M  V30 7682 H 749.562 -3.47369 0.550236 0
M  V30 7683 H 749.436 -3.57705 -1.19694 0
M  V30 7684 H 751.823 -2.6039 -1.38857 0
M  V30 7685 H 751.904 -2.53 0.377445 0
M  V30 7686 H 751.548 -5.05653 0.477207 0
M  V30 7687 H 751.478 -5.10242 -1.30234 0
M  V30 7688 H 753.969 -3.74048 -0.538199 0
M  V30 7689 H 754.282 -7.7132 -0.478091 0
M  V30 7690 H 752.627 -6.93625 -0.436897 0
M  V30 7691 H 755.818 -4.64453 -0.583158 0
M  V30 7692 H 755.991 -6.4561 -0.555976 0
M  V30 7693 N 749.397 0.351382 -1.53633 0
M  V30 7694 C 750.627 1.11113 -1.74176 0
M  V30 7695 C 751.035 1.83084 -0.477154 0
M  V30 7696 O 750.378 1.74941 0.560483 0
M  V30 7697 C 750.44 2.17521 -2.86225 0
M  V30 7698 C 750.104 1.65193 -4.26099 0
M  V30 7699 C 751.101 1.10842 -5.07947 0
M  V30 7700 C 748.786 1.70277 -4.72558 0
M  V30 7701 C 750.78 0.622689 -6.34351 0
M  V30 7702 C 748.467 1.21316 -5.98937 0
M  V30 7703 C 749.465 0.674033 -6.79666 0
M  V30 7704 O 749.153 0.191696 -8.03671 0
M  V30 7705 H 748.885 0.33756 -0.585687 0
M  V30 7706 H 751.439 0.411786 -2.0123 0
M  V30 7707 H 749.669 2.90991 -2.54678 0
M  V30 7708 H 751.358 2.78999 -2.94812 0
M  V30 7709 H 752.124 1.06243 -4.7322 0
M  V30 7710 H 748.003 2.11181 -4.09785 0
M  V30 7711 H 751.547 0.201216 -6.9731 0
M  V30 7712 H 747.444 1.25613 -6.3316 0
M  V30 7713 H 748.212 0.309712 -8.17914 0
M  V30 7714 N 750.875 1.45233 0.611969 0
M  V30 7715 C 752.121 1.49242 1.37312 0
M  V30 7716 C 752.454 0.131963 1.93751 0
M  V30 7717 O 751.729 -0.852999 1.74798 0
M  V30 7718 C 752.012 2.56811 2.52428 0
M  V30 7719 C 751.865 4.02284 2.01215 0
M  V30 7720 C 753.184 2.60705 3.54572 0
M  V30 7721 H 750.303 0.54336 0.497925 0
M  V30 7722 H 752.945 1.77019 0.690242 0
M  V30 7723 H 751.095 2.33256 3.10683 0
M  V30 7724 H 752.767 4.37035 1.47643 0
M  V30 7725 H 751.01 4.1315 1.32248 0
M  V30 7726 H 751.681 4.7323 2.84178 0
M  V30 7727 H 754.157 2.81799 3.06151 0
M  V30 7728 H 753.033 3.37841 4.32614 0
M  V30 7729 H 753.294 1.65627 4.09903 0
M  V30 7730 N 752.353 -0.854086 1.3245 0
M  V30 7731 C 753.6 -1.60831 1.23043 0
M  V30 7732 C 753.928 -1.93389 -0.2076 0
M  V30 7733 O 753.183 -1.5756 -1.16075 0
M  V30 7734 C 753.482 -2.93746 2.03587 0
M  V30 7735 C 753.148 -2.80615 3.52939 0
M  V30 7736 C 751.81 -2.76742 3.93659 0
M  V30 7737 C 754.162 -2.66507 4.4791 0
M  V30 7738 C 751.49 -2.56638 5.27592 0
M  V30 7739 C 753.842 -2.47939 5.81987 0
M  V30 7740 C 752.506 -2.42458 6.21909 0
M  V30 7741 H 751.776 -0.588523 0.450247 0
M  V30 7742 H 754.423 -0.990699 1.63882 0
M  V30 7743 H 752.728 -3.5963 1.55478 0
M  V30 7744 H 754.425 -3.51127 1.93677 0
M  V30 7745 H 751.015 -2.84456 3.20598 0
M  V30 7746 H 755.199 -2.68544 4.1737 0
M  V30 7747 H 750.455 -2.50831 5.57579 0
M  V30 7748 H 754.629 -2.36002 6.55192 0
M  V30 7749 H 752.256 -2.2664 7.2563 0
M  V30 7750 N 753.831 -1.1567 -1.07043 0
M  V30 7751 C 754.763 -0.814095 -2.14255 0
M  V30 7752 C 755.776 0.175293 -1.61854 0
M  V30 7753 O 756.965 -0.0483984 -1.78434 0
M  V30 7754 C 754.065 -0.190082 -3.38367 0
M  V30 7755 C 753.238 -1.21768 -4.20109 0
M  V30 7756 C 752.297 -0.614863 -5.22595 0
M  V30 7757 O 751.323 -1.28167 -5.54583 0
M  V30 7758 N 752.525 0.601955 -5.77371 0
M  V30 7759 H 755.29 -1.73677 -2.44247 0
M  V30 7760 H 752.851 -1.05301 -1.22977 0
M  V30 7761 H 754.843 0.22604 -4.04068 0
M  V30 7762 H 753.413 0.635992 -3.06062 0
M  V30 7763 H 752.633 -1.81025 -3.50177 0
M  V30 7764 H 753.921 -1.9114 -4.71533 0
M  V30 7765 H 753.319 1.162 -5.53637 0
M  V30 7766 H 751.876 0.96039 -6.44686 0
M  V30 7767 N 755.309 1.25446 -0.953992 0
M  V30 7768 C 756.555 1.9343 -0.60933 0
M  V30 7769 C 756.888 1.74542 0.851388 0
M  V30 7770 O 756.163 1.09014 1.61078 0
M  V30 7771 C 756.446 3.46844 -0.968041 0
M  V30 7772 C 756.299 3.74961 -2.48444 0
M  V30 7773 C 757.618 4.37334 -0.492641 0
M  V30 7774 H 754.737 0.702502 -0.222844 0
M  V30 7775 H 757.379 1.48076 -1.19053 0
M  V30 7776 H 755.529 3.85604 -0.473465 0
M  V30 7777 H 757.201 3.45841 -3.05273 0
M  V30 7778 H 755.444 3.20589 -2.92241 0
M  V30 7779 H 756.115 4.82246 -2.68594 0
M  V30 7780 H 758.591 4.05873 -0.916878 0
M  V30 7781 H 757.467 5.43439 -0.772331 0
M  V30 7782 H 757.728 4.37908 0.607403 0
M  V30 7783 N 756.787 0.722489 1.40064 0
M  V30 7784 C 758.203 0.396758 1.5459 0
M  V30 7785 C 758.403 -1.09375 1.69232 0
M  V30 7786 O 757.459 -1.87984 1.68578 0
M  V30 7787 C 758.772 1.16885 2.77053 0
M  V30 7788 C 760.32 1.15583 2.90877 0
M  V30 7789 C 760.795 1.91023 4.16262 0
M  V30 7790 N 762.286 1.88126 4.23276 0
M  V30 7791 C 763.021 2.43315 5.19216 0
M  V30 7792 N 762.517 3.07089 6.21022 0
M  V30 7793 N 764.31 2.33418 5.11344 0
M  V30 7794 H 756.461 1.68887 1.28806 0
M  V30 7795 H 758.724 0.714231 0.62336 0
M  V30 7796 H 758.43 2.22301 2.72534 0
M  V30 7797 H 758.304 0.765011 3.69361 0
M  V30 7798 H 760.691 0.10984 2.94896 0
M  V30 7799 H 760.772 1.59895 1.99668 0
M  V30 7800 H 760.416 2.95616 4.13006 0
M  V30 7801 H 760.346 1.44126 5.06493 0
M  V30 7802 H 762.837 1.41654 3.50346 0
M  V30 7803 H 763.15 3.467 6.90666 0
M  V30 7804 H 761.495 3.11175 6.21446 0
M  V30 7805 H 764.686 1.83248 4.30741 0
M  V30 7806 H 764.859 2.7673 5.85939 0
M  V30 7807 N 758.265 -1.50454 0.469181 0
M  V30 7808 C 759.228 -2.2703 -0.314643 0
M  V30 7809 C 760.228 -1.31734 -0.922111 0
M  V30 7810 O 761.418 -1.55176 -0.791588 0
M  V30 7811 C 758.55 -3.08616 -1.44806 0
M  V30 7812 H 759.743 -2.97769 0.356892 0
M  V30 7813 H 757.296 -1.54698 0.223191 0
M  V30 7814 H 758.031 -2.42369 -2.1547 0
M  V30 7815 H 757.816 -3.78647 -1.01829 0
M  V30 7816 H 759.306 -3.66536 -2.00103 0
M  V30 7817 N 759.743 -0.201713 -1.56304 0
M  V30 7818 C 761.159 0.154025 -1.58855 0
M  V30 7819 C 761.359 1.60516 -1.21807 0
M  V30 7820 O 760.415 2.34193 -0.94393 0
M  V30 7821 C 761.728 -0.154319 -3.00304 0
M  V30 7822 C 763.276 -0.0949578 -3.12856 0
M  V30 7823 C 763.751 -0.376703 -4.56448 0
M  V30 7824 N 765.242 -0.325558 -4.62054 0
M  V30 7825 C 765.977 -0.51732 -5.71062 0
M  V30 7826 N 765.473 -0.769789 -6.8851 0
M  V30 7827 N 767.266 -0.45112 -5.60287 0
M  V30 7828 H 759.417 -1.14858 -1.78666 0
M  V30 7829 H 761.68 -0.458934 -0.829508 0
M  V30 7830 H 761.386 -1.16074 -3.31994 0
M  V30 7831 H 761.26 0.540014 -3.73314 0
M  V30 7832 H 763.647 0.902075 -2.80974 0
M  V30 7833 H 763.728 -0.822468 -2.42217 0
M  V30 7834 H 763.372 -1.37108 -4.89044 0
M  V30 7835 H 763.302 0.371772 -5.25286 0
M  V30 7836 H 765.793 -0.137308 -3.7765 0
M  V30 7837 H 766.106 -0.904744 -7.67486 0
M  V30 7838 H 764.451 -0.806758 -6.90302 0
M  V30 7839 H 767.642 -0.254253 -4.67409 0
M  V30 7840 H 767.815 -0.603982 -6.45179 0
M  V30 7841 N 761.222 1.57436 0.0718424 0
M  V30 7842 C 762.45 1.91474 0.783932 0
M  V30 7843 C 762.865 0.797669 1.71122 0
M  V30 7844 O 762.222 -0.228989 1.81058 0
M  V30 7845 C 762.273 3.25259 1.57761 0
M  V30 7846 O 761.994 4.3267 0.687596 0
M  V30 7847 C 763.495 3.7331 2.3907 0
M  V30 7848 H 760.715 0.632901 0.222885 0
M  V30 7849 H 763.259 2.04457 0.0421262 0
M  V30 7850 H 761.414 3.13804 2.27169 0
M  V30 7851 H 761.828 5.09641 1.23962 0
M  V30 7852 H 763.302 4.69551 2.90216 0
M  V30 7853 H 763.779 3.02318 3.18591 0
M  V30 7854 H 764.385 3.8771 1.74818 0
M  V30 7855 N 762.7 -0.34323 1.53817 0
M  V30 7856 C 763.925 -1.1079 1.75329 0
M  V30 7857 C 764.35 -1.81571 0.491293 0
M  V30 7858 O 763.708 -1.72561 -0.556089 0
M  V30 7859 C 763.756 -2.09681 2.9337 0
M  V30 7860 O 762.86 -3.17207 2.63541 0
M  V30 7861 H 762.201 -0.320402 0.581583 0
M  V30 7862 H 764.731 -0.393525 2.0078 0
M  V30 7863 H 764.741 -2.52897 3.20168 0
M  V30 7864 H 763.416 -1.5756 3.84899 0
M  V30 7865 H 761.993 -2.78806 2.47632 0
M  V30 7866 N 764.178 -1.45556 -0.604258 0
M  V30 7867 C 765.141 -1.54091 -1.69672 0
M  V30 7868 C 766.141 -0.420076 -1.55216 0
M  V30 7869 O 767.331 -0.683671 -1.60224 0
M  V30 7870 C 764.463 -1.44063 -3.08964 0
M  V30 7871 H 765.656 -2.51431 -1.6347 0
M  V30 7872 H 763.209 -1.33046 -0.820273 0
M  V30 7873 H 763.944 -0.479201 -3.2074 0
M  V30 7874 H 763.729 -2.25362 -3.20865 0
M  V30 7875 H 765.219 -1.53075 -3.88533 0
M  V30 7876 N 765.656 0.84705 -1.32902 0
M  V30 7877 C 766.904 1.5986 -1.2365 0
M  V30 7878 C 767.225 1.93974 0.199789 0
M  V30 7879 O 766.495 1.60273 1.12648 0
M  V30 7880 H 765.075 0.592696 -0.454665 0
M  V30 7881 H 767.737 1.01278 -1.66519 0
M  V30 7882 H 766.833 2.53218 -1.82448 0
M  V30 7883 N 767.134 1.16236 1.06428 0
M  V30 7884 C 768.374 0.95369 1.80787 0
M  V30 7885 C 768.738 -0.509495 1.85117 0
M  V30 7886 O 769.939 -0.836822 2.55442 0
M  V30 7887 C 768.21 1.56235 3.21443 0
M  V30 7888 S 769.769 1.49812 4.12434 0
M  V30 7889 H 766.587 0.343004 0.622792 0
M  V30 7890 H 769.189 1.47957 1.27785 0
M  V30 7891 H 767.893 2.62 3.15886 0
M  V30 7892 H 767.424 1.03574 3.79521 0
M  V30 7893 H 769.439 0.49745 4.937 0
M  V30 7894 N 768.612 -1.24939 0.960631 0
M  V30 7895 C 769.86 -1.92437 0.617441 0
M  V30 7896 C 770.181 -1.75543 -0.849101 0
M  V30 7897 O 769.451 -1.12269 -1.60538 0
M  V30 7898 H 768.031 -0.712192 0.225371 0
M  V30 7899 H 770.693 -1.5198 1.22017 0
M  V30 7900 H 769.789 -3.00247 0.851933 0
M  V30 7901 N 770.09 -0.729906 -1.39679 0
M  V30 7902 C 771.506 -0.404951 -1.54377 0
M  V30 7903 C 771.706 1.08476 -1.6981 0
M  V30 7904 O 770.762 1.87087 -1.69572 0
M  V30 7905 C 772.075 -1.18352 -2.76429 0
M  V30 7906 C 773.623 -1.17124 -2.9026 0
M  V30 7907 C 774.098 -1.93227 -4.15244 0
M  V30 7908 N 775.589 -1.90368 -4.22273 0
M  V30 7909 C 776.324 -2.46065 -5.17918 0
M  V30 7910 N 775.82 -3.10378 -6.19385 0
M  V30 7911 N 777.613 -2.36127 -5.10099 0
M  V30 7912 H 769.764 -1.69567 -1.27909 0
M  V30 7913 H 772.027 -0.717527 -0.619564 0
M  V30 7914 H 771.733 -2.23743 -2.71352 0
M  V30 7915 H 771.607 -0.784589 -3.6895 0
M  V30 7916 H 773.994 -0.125478 -2.94833 0
M  V30 7917 H 774.075 -1.60951 -1.98817 0
M  V30 7918 H 773.719 -2.97802 -4.11432 0
M  V30 7919 H 773.649 -1.4681 -5.05722 0
M  V30 7920 H 776.14 -1.4351 -3.4959 0
M  V30 7921 H 776.453 -3.50358 -6.88817 0
M  V30 7922 H 774.798 -3.14467 -6.19787 0
M  V30 7923 H 777.989 -1.85529 -4.29763 0
M  V30 7924 H 778.162 -2.79833 -5.84463 0
M  V30 7925 N 771.568 1.50203 -0.477153 0
M  V30 7926 C 772.815 2.02358 0.0757385 0
M  V30 7927 C 773.143 1.3587 1.39174 0
M  V30 7928 O 772.398 0.475415 1.89838 0
M  V30 7929 C 772.697 3.56127 0.301325 0
M  V30 7930 C 772.363 4.41126 -0.933725 0
M  V30 7931 C 771.025 4.64075 -1.27233 0
M  V30 7932 C 773.377 4.90737 -1.75576 0
M  V30 7933 C 770.705 5.33878 -2.43292 0
M  V30 7934 C 773.057 5.61816 -2.90768 0
M  V30 7935 C 771.721 5.83016 -3.25036 0
M  V30 7936 H 770.991 0.740482 0.0277147 0
M  V30 7937 H 773.638 1.80754 -0.632467 0
M  V30 7938 H 771.943 3.76279 1.09183 0
M  V30 7939 H 773.64 3.94053 0.743184 0
M  V30 7940 H 770.23 4.23489 -0.659935 0
M  V30 7941 H 774.414 4.72856 -1.50734 0
M  V30 7942 H 769.67 5.48499 -2.70109 0
M  V30 7943 H 773.844 5.99237 -3.54807 0
M  V30 7944 H 771.471 6.36881 -4.15074 0
M  V30 7945 N 773.046 0.209999 1.56195 0
M  V30 7946 C 774.271 -0.433064 2.02828 0
M  V30 7947 C 774.696 -1.5337 1.08901 0
M  V30 7948 O 774.054 -1.81144 0.0751132 0
M  V30 7949 C 774.102 -0.952635 3.47789 0
M  V30 7950 O 773.206 -2.0647 3.56993 0
M  V30 7951 H 772.547 -0.0994594 0.656509 0
M  V30 7952 H 775.077 0.32525 2.01998 0
M  V30 7953 H 775.087 -1.26542 3.8788 0
M  V30 7954 H 773.762 -0.147007 4.1564 0
M  V30 7955 H 772.339 -1.75942 3.28784 0
M  V30 7956 N 774.524 -1.57472 -0.0634922 0
M  V30 7957 C 775.456 -2.00999 -1.10145 0
M  V30 7958 C 776.469 -0.917219 -1.34503 0
M  V30 7959 O 777.658 -1.19501 -1.32596 0
M  V30 7960 C 774.758 -2.34089 -2.45063 0
M  V30 7961 C 773.931 -3.65317 -2.40546 0
M  V30 7962 C 772.99 -3.85982 -3.57637 0
M  V30 7963 O 772.016 -4.5747 -3.38689 0
M  V30 7964 N 773.218 -3.28971 -4.78287 0
M  V30 7965 H 775.983 -2.90656 -0.730714 0
M  V30 7966 H 773.544 -1.59926 -0.252017 0
M  V30 7967 H 775.536 -2.4508 -3.22053 0
M  V30 7968 H 774.106 -1.50279 -2.74107 0
M  V30 7969 H 773.326 -3.65003 -1.48885 0
M  V30 7970 H 774.614 -4.51468 -2.34636 0
M  V30 7971 H 774.012 -2.70962 -4.96584 0
M  V30 7972 H 772.569 -3.45398 -5.5276 0
M  V30 7973 N 776.003 0.335068 -1.53997 0
M  V30 7974 C 776.966 1.39481 -1.81872 0
M  V30 7975 C 777.966 1.4524 -0.690078 0
M  V30 7976 O 779.156 1.45467 -0.958377 0
M  V30 7977 C 776.288 2.78329 -1.9684 0
M  V30 7978 H 777.481 1.16024 -2.76547 0
M  V30 7979 H 775.034 0.569926 -1.45539 0
M  V30 7980 H 775.769 3.07058 -1.04337 0
M  V30 7981 H 775.554 2.75544 -2.78958 0
M  V30 7982 H 777.044 3.55016 -2.19894 0
M  V30 7983 N 777.481 1.45874 0.596531 0
M  V30 7984 C 778.414 1.49889 1.72071 0
M  V30 7985 C 779.392 0.354224 1.58695 0
M  V30 7986 O 780.576 0.556355 1.80103 0
M  V30 7987 C 777.703 1.3644 3.10003 0
M  V30 7988 C 776.749 2.54913 3.41938 0
M  V30 7989 S 777.582 4.17336 3.35545 0
M  V30 7990 C 778.738 4.06372 4.76039 0
M  V30 7991 H 778.971 2.45005 1.68404 0
M  V30 7992 H 776.504 1.33592 0.77412 0
M  V30 7993 H 778.462 1.29368 3.89582 0
M  V30 7994 H 777.123 0.427762 3.11174 0
M  V30 7995 H 776.316 2.41458 4.42396 0
M  V30 7996 H 775.918 2.58904 2.69898 0
M  V30 7997 H 778.21 3.72199 5.66105 0
M  V30 7998 H 779.153 5.0678 4.9455 0
M  V30 7999 H 779.561 3.37846 4.52239 0
M  V30 8000 N 778.959 -0.83999 1.33349 0
M  V30 8001 C 779.869 -1.98182 1.25543 0
M  V30 8002 C 780.885 -1.73204 0.166208 0
M  V30 8003 O 782.061 -1.97596 0.389589 0
M  V30 8004 C 779.126 -3.32157 0.993614 0
M  V30 8005 C 778.187 -3.70258 2.17273 0
M  V30 8006 C 777.42 -4.9784 1.92331 0
M  V30 8007 O 777.643 -5.63679 0.873074 0
M  V30 8008 O 776.577 -5.33418 2.78835 0
M  V30 8009 H 780.403 -2.07708 2.21565 0
M  V30 8010 H 777.988 -0.972852 1.13384 0
M  V30 8011 H 779.87 -4.12433 0.864711 0
M  V30 8012 H 778.545 -3.23637 0.0636596 0
M  V30 8013 H 777.452 -2.90497 2.35716 0
M  V30 8014 H 778.785 -3.83442 3.08598 0
M  V30 8015 N 780.437 -1.16799 -1.0581 0
M  V30 8016 C 781.683 -0.953935 -1.78963 0
M  V30 8017 C 782.016 0.516638 -1.87202 0
M  V30 8018 O 781.291 1.38338 -1.36721 0
M  V30 8019 C 781.574 -1.58808 -3.23191 0
M  V30 8020 C 781.427 -3.13032 -3.23003 0
M  V30 8021 C 782.746 -1.2868 -4.20867 0
M  V30 8022 H 779.865 -0.347972 -0.64968 0
M  V30 8023 H 782.507 -1.44204 -1.23715 0
M  V30 8024 H 780.657 -1.17303 -3.70368 0
M  V30 8025 H 782.329 -3.63553 -2.83949 0
M  V30 8026 H 780.572 -3.46108 -2.61518 0
M  V30 8027 H 781.243 -3.52527 -4.24769 0
M  V30 8028 H 783.719 -1.6461 -3.82155 0
M  V30 8029 H 782.595 -1.75645 -5.20038 0
M  V30 8030 H 782.856 -0.206491 -4.41618 0
M  V30 8031 N 781.915 1.24427 -0.967243 0
M  V30 8032 C 782.825 2.29109 -0.504592 0
M  V30 8033 C 783.841 1.68495 0.434224 0
M  V30 8034 O 785.017 1.99041 0.307379 0
M  V30 8035 C 782.082 3.46133 0.198273 0
M  V30 8036 C 781.143 4.22149 -0.780313 0
M  V30 8037 C 780.376 5.33585 -0.110896 0
M  V30 8038 O 780.599 5.59676 1.10088 0
M  V30 8039 O 779.533 5.96522 -0.802823 0
M  V30 8040 H 783.359 2.708 -1.37482 0
M  V30 8041 H 780.944 1.30111 -0.73426 0
M  V30 8042 H 782.826 4.17205 0.593124 0
M  V30 8043 H 781.501 3.0642 1.04347 0
M  V30 8044 H 780.408 3.53454 -1.22561 0
M  V30 8045 H 781.741 4.65677 -1.59392 0
M  V30 8046 N 783.393 0.737304 1.3929 0
M  V30 8047 C 784.621 0.296573 2.04763 0
M  V30 8048 C 785.036 -1.06941 1.55592 0
M  V30 8049 O 784.393 -1.67619 0.721822 0
M  V30 8050 C 784.444 0.291906 3.6032 0
M  V30 8051 O 784.165 1.60397 4.07682 0
M  V30 8052 C 785.666 -0.164708 4.42994 0
M  V30 8053 H 782.886 0.129251 0.658434 0
M  V30 8054 H 785.43 1.0016 1.78293 0
M  V30 8055 H 783.585 -0.364251 3.85684 0
M  V30 8056 H 783.999 1.51909 5.0202 0
M  V30 8057 H 785.473 -0.116814 5.51876 0
M  V30 8058 H 785.95 -1.21022 4.22197 0
M  V30 8059 H 786.556 0.461968 4.22784 0
M  V30 8060 N 784.871 -1.49948 0.485112 0
M  V30 8061 C 786.119 -2.01996 -0.0648775 0
M  V30 8062 C 786.44 -1.36819 -1.38945 0
M  V30 8063 O 785.71 -0.518163 -1.88923 0
M  V30 8064 H 784.29 -0.746513 -0.0269662 0
M  V30 8065 H 786.952 -1.84136 0.638733 0
M  V30 8066 H 786.048 -3.11418 -0.20617 0
M  V30 8067 N 786.349 -0.21828 -1.56081 0
M  V30 8068 C 787.296 0.693189 -2.20144 0
M  V30 8069 C 788.266 1.19274 -1.15598 0
M  V30 8070 O 789.451 1.25243 -1.4394 0
M  V30 8071 C 786.591 1.89715 -2.88275 0
M  V30 8072 C 785.704 1.4368 -4.07407 0
M  V30 8073 C 784.839 2.59807 -4.63329 0
M  V30 8074 C 783.878 2.10492 -5.74769 0
M  V30 8075 N 783.015 3.1988 -6.24997 0
M  V30 8076 H 787.855 0.14016 -2.9767 0
M  V30 8077 H 785.392 0.0574292 -1.46988 0
M  V30 8078 H 787.35 2.60398 -3.25958 0
M  V30 8079 H 785.98 2.42311 -2.13273 0
M  V30 8080 H 785.032 0.625007 -3.7523 0
M  V30 8081 H 786.344 1.03517 -4.8794 0
M  V30 8082 H 785.498 3.38577 -5.03438 0
M  V30 8083 H 784.237 3.03256 -3.81951 0
M  V30 8084 H 783.242 1.30182 -5.34165 0
M  V30 8085 H 784.467 1.68045 -6.5798 0
M  V30 8086 H 782.413 3.62817 -5.46534 0
M  V30 8087 H 782.33 2.83958 -7.00645 0
M  V30 8088 H 783.598 3.98796 -6.69763 0
M  V30 8089 N 787.827 1.57504 0.0551401 0
M  V30 8090 C 789.238 1.76626 0.604979 0
M  V30 8091 C 789.589 0.845978 1.77024 0
M  V30 8092 O 788.714 0.0341936 2.16373 0
M  V30 8093 C 789.309 3.203 1.10425 0
M  V30 8094 C 787.868 3.4071 1.59981 0
M  V30 8095 C 787.015 2.72258 0.526414 0
M  V30 8096 H 789.966 1.57775 -0.171072 0
M  V30 8097 H 789.987 3.25377 1.97256 0
M  V30 8098 H 789.499 3.87255 0.255939 0
M  V30 8099 H 787.6 2.78892 2.47083 0
M  V30 8100 H 787.713 4.49227 1.66528 0
M  V30 8101 H 786.077 2.35283 0.97539 0
M  V30 8102 H 786.86 3.41879 -0.311991 0
M  V30 8103 N 789.305 -0.326896 1.54172 0
M  V30 8104 C 790.721 -0.671034 1.44808 0
M  V30 8105 C 790.921 -1.91781 0.618258 0
M  V30 8106 O 789.977 -2.52235 0.115751 0
M  V30 8107 C 791.29 -0.848147 2.88491 0
M  V30 8108 C 792.838 -0.945702 2.98371 0
M  V30 8109 C 793.313 -1.15501 4.43197 0
M  V30 8110 N 794.804 -1.22183 4.46795 0
M  V30 8111 C 795.539 -1.4016 5.56006 0
M  V30 8112 N 795.035 -1.55202 6.75192 0
M  V30 8113 N 796.828 -1.42841 5.43648 0
M  V30 8114 H 788.979 0.49262 2.06608 0
M  V30 8115 H 791.242 0.158574 0.934643 0
M  V30 8116 H 790.948 -0.00329969 3.517 0
M  V30 8117 H 790.822 -1.74497 3.34411 0
M  V30 8118 H 793.209 -1.78106 2.35292 0
M  V30 8119 H 793.29 -0.0254215 2.55787 0
M  V30 8120 H 792.934 -0.324521 5.06862 0
M  V30 8121 H 792.864 -2.08911 4.83388 0
M  V30 8122 H 795.355 -1.12016 3.60917 0
M  V30 8123 H 795.668 -1.68601 7.54184 0
M  V30 8124 H 794.013 -1.52306 6.78106 0
M  V30 8125 H 797.204 -1.30683 4.49488 0
M  V30 8126 H 797.377 -1.56509 6.28816 0
M  V30 8127 N 790.784 -1.46188 -0.588786 0
M  V30 8128 C 792.195 -1.45421 -1.17088 0
M  V30 8129 C 792.546 -0.191801 -1.9526 0
M  V30 8130 O 791.671 0.705497 -2.04577 0
M  V30 8131 C 792.266 -2.63467 -2.13004 0
M  V30 8132 C 790.825 -2.6576 -2.6655 0
M  V30 8133 C 789.972 -2.38002 -1.42304 0
M  V30 8134 H 792.923 -1.54156 -0.377052 0
M  V30 8135 H 792.944 -2.38638 -2.96365 0
M  V30 8136 H 792.456 -3.55331 -1.56081 0
M  V30 8137 H 790.557 -1.77952 -3.27359 0
M  V30 8138 H 790.67 -3.65545 -3.09699 0
M  V30 8139 H 789.034 -1.87936 -1.71907 0
M  V30 8140 H 789.817 -3.32035 -0.872209 0
M  V30 8141 N 792.262 0.832906 -1.33792 0
M  V30 8142 C 793.678 1.1245 -1.13257 0
M  V30 8143 C 793.878 2.01369 0.0725832 0
M  V30 8144 O 792.934 2.41071 0.751082 0
M  V30 8145 C 794.247 1.78084 -2.42294 0
M  V30 8146 C 795.795 1.90624 -2.48257 0
M  V30 8147 C 796.27 2.59673 -3.77271 0
M  V30 8148 N 797.761 2.67181 -3.78376 0
M  V30 8149 C 798.496 3.21313 -4.74916 0
M  V30 8150 N 797.992 3.76086 -5.81835 0
M  V30 8151 N 799.785 3.19621 -4.62384 0
M  V30 8152 H 791.936 0.241244 -2.11026 0
M  V30 8153 H 794.199 0.169557 -0.932713 0
M  V30 8154 H 793.905 1.20209 -3.30519 0
M  V30 8155 H 793.779 2.78049 -2.5489 0
M  V30 8156 H 796.166 2.4765 -1.60478 0
M  V30 8157 H 796.247 0.89591 -2.39598 0
M  V30 8158 H 795.891 2.03304 -4.65435 0
M  V30 8159 H 795.821 3.61189 -3.8321 0
M  V30 8160 H 798.312 2.28346 -3.01108 0
M  V30 8161 H 798.625 4.15612 -6.51526 0
M  V30 8162 H 796.97 3.74357 -5.85561 0
M  V30 8163 H 800.161 2.76091 -3.7801 0
M  V30 8164 H 800.334 3.61504 -5.37791 0
M  V30 8165 N 793.74 1.17359 1.05189 0
M  V30 8166 C 794.97 0.985099 1.81602 0
M  V30 8167 C 795.378 -0.469872 1.83273 0
M  V30 8168 O 794.721 -1.33806 1.25864 0
M  V30 8169 C 794.783 1.44956 3.2898 0
M  V30 8170 C 794.447 2.92666 3.50993 0
M  V30 8171 C 795.444 3.906 3.43115 0
M  V30 8172 C 793.129 3.30841 3.77954 0
M  V30 8173 C 795.123 5.24709 3.61883 0
M  V30 8174 C 792.81 4.65116 3.96371 0
M  V30 8175 C 793.808 5.61859 3.88335 0
M  V30 8176 O 793.496 6.93704 4.06238 0
M  V30 8177 H 793.228 0.348731 0.579105 0
M  V30 8178 H 795.782 1.56066 1.33539 0
M  V30 8179 H 794.012 0.817559 3.77959 0
M  V30 8180 H 795.701 1.22674 3.86919 0
M  V30 8181 H 796.467 3.62453 3.22262 0
M  V30 8182 H 792.346 2.5611 3.83313 0
M  V30 8183 H 795.89 6.00205 3.55527 0
M  V30 8184 H 791.787 4.92969 4.16715 0
M  V30 8185 H 792.555 7.00443 4.23463 0
M  V30 8186 N 795.218 -1.23913 0.973828 0
M  V30 8187 C 796.495 -1.87539 0.555729 0
M  V30 8188 C 796.875 -1.87641 -0.967162 0
M  V30 8189 O 796.223 -1.35335 -1.84111 0
M  V30 8190 C 796.433 -3.29359 1.15427 0
M  V30 8191 C 797.781 -4.06 1.24294 0
M  V30 8192 O 798.805 -3.38554 1.10723 0
M  V30 8193 O 797.664 -5.26689 1.45813 0
M  V30 8194 H 794.758 -0.805769 0.186188 0
M  V30 8195 H 797.304 -1.31838 1.06849 0
M  V30 8196 H 796.076 -3.23817 2.19678 0
M  V30 8197 H 795.699 -3.92642 0.625925 0
M  V30 8198 N 796.696 -0.74468 -1.38897 0
M  V30 8199 C 797.924 -0.307428 -2.04603 0
M  V30 8200 C 798.339 1.06115 -1.56157 0
M  V30 8201 O 797.696 1.67233 -0.730701 0
M  V30 8202 C 797.747 -0.31101 -3.6016 0
M  V30 8203 O 797.468 -1.62557 -4.06825 0
M  V30 8204 C 798.969 0.141213 -4.43075 0
M  V30 8205 H 796.189 -0.132741 -0.657739 0
M  V30 8206 H 798.733 -1.01104 -1.77759 0
M  V30 8207 H 796.888 0.343792 -3.85872 0
M  V30 8208 H 797.302 -1.54569 -5.01207 0
M  V30 8209 H 798.776 0.0875449 -5.51931 0
M  V30 8210 H 799.253 1.18782 -4.22833 0
M  V30 8211 H 799.859 -0.484383 -4.22533 0
M  V30 8212 N 798.174 1.49689 -0.493057 0
M  V30 8213 C 799.59 1.58907 -0.148526 0
M  V30 8214 C 799.79 1.4991 1.34645 0
M  V30 8215 O 798.846 1.36893 2.12171 0
M  V30 8216 C 800.159 2.91996 -0.718265 0
M  V30 8217 C 801.707 3.05443 -0.683658 0
M  V30 8218 C 802.182 4.41138 -1.23132 0
M  V30 8219 N 803.673 4.47608 -1.19167 0
M  V30 8220 C 804.408 5.51038 -1.5857 0
M  V30 8221 N 803.904 6.61612 -2.05528 0
M  V30 8222 N 805.697 5.41706 -1.50036 0
M  V30 8223 H 797.848 1.5378 -1.46511 0
M  V30 8224 H 800.111 0.727996 -0.607228 0
M  V30 8225 H 799.817 3.04123 -1.7664 0
M  V30 8226 H 799.691 3.76798 -0.17419 0
M  V30 8227 H 802.078 2.92949 0.355626 0
M  V30 8228 H 802.159 2.22344 -1.26479 0
M  V30 8229 H 801.803 4.54382 -2.26935 0
M  V30 8230 H 801.733 5.22864 -0.626201 0
M  V30 8231 H 804.224 3.68274 -0.847524 0
M  V30 8232 H 804.537 7.36622 -2.33685 0
M  V30 8233 H 802.882 6.62674 -2.09497 0
M  V30 8234 H 806.073 4.54212 -1.13176 0
M  V30 8235 H 806.246 6.22188 -1.81068 0
M  V30 8236 N 799.652 0.226554 1.55963 0
M  V30 8237 C 800.88 -0.408507 2.02827 0
M  V30 8238 C 801.295 -1.52994 1.10627 0
M  V30 8239 O 800.652 -1.82126 0.116809 0
M  V30 8240 C 800.703 -0.93545 3.49187 0
M  V30 8241 O 800.424 0.141273 4.37872 0
M  V30 8242 C 801.925 -1.64325 4.11719 0
M  V30 8243 H 799.145 -0.099442 0.66359 0
M  V30 8244 H 801.689 0.344471 2.01578 0
M  V30 8245 H 799.844 -1.63868 3.51036 0
M  V30 8246 H 800.258 -0.25558 5.23877 0
M  V30 8247 H 801.732 -1.9639 5.15883 0
M  V30 8248 H 802.209 -2.55815 3.57009 0
M  V30 8249 H 802.815 -0.9851 4.13734 0
M  V30 8250 N 801.13 -1.57531 -0.0467866 0
M  V30 8251 C 802.379 -1.87632 -0.740069 0
M  V30 8252 C 802.692 -0.822691 -1.77457 0
M  V30 8253 O 803.898 -1.01235 -2.5192 0
M  V30 8254 C 802.354 -3.32917 -1.36727 0
M  V30 8255 C 801.962 -4.46469 -0.370035 0
M  V30 8256 C 803.706 -3.72189 -2.04146 0
M  V30 8257 C 801.613 -5.82806 -1.00457 0
M  V30 8258 H 800.543 -0.70002 -0.280158 0
M  V30 8259 H 803.194 -1.83499 0.00607151 0
M  V30 8260 H 801.576 -3.31739 -2.16252 0
M  V30 8261 H 802.75 -4.59085 0.397217 0
M  V30 8262 H 801.065 -4.15914 0.201079 0
M  V30 8263 H 803.662 -4.71357 -2.52441 0
M  V30 8264 H 804.005 -3.03268 -2.85192 0
M  V30 8265 H 804.538 -3.75465 -1.3142 0
M  V30 8266 H 801.277 -6.55083 -0.233907 0
M  V30 8267 H 800.797 -5.73944 -1.74209 0
M  V30 8268 H 802.476 -6.28961 -1.51713 0
M  V30 8269 N 802.608 0.318715 -1.54344 0
M  V30 8270 C 803.854 1.05765 -1.73037 0
M  V30 8271 C 804.187 1.87514 -0.505181 0
M  V30 8272 O 803.462 1.88021 0.497838 0
M  V30 8273 C 803.745 1.97836 -3.00887 0
M  V30 8274 C 803.598 1.19384 -4.33668 0
M  V30 8275 C 804.917 2.97285 -3.24514 0
M  V30 8276 H 802.036 0.383104 -0.629603 0
M  V30 8277 H 804.678 0.333864 -1.87044 0
M  V30 8278 H 802.828 2.59552 -2.89076 0
M  V30 8279 H 804.5 0.600906 -4.57369 0
M  V30 8280 H 802.743 0.496198 -4.30953 0
M  V30 8281 H 803.414 1.87014 -5.19355 0
M  V30 8282 H 805.89 2.45693 -3.35819 0
M  V30 8283 H 804.766 3.58887 -4.15321 0
M  V30 8284 H 805.027 3.70003 -2.41971 0
M  V30 8285 N 804.086 1.46499 0.581025 0
M  V30 8286 C 805.332 1.53108 1.33901 0
M  V30 8287 C 805.687 0.181007 1.91547 0
M  V30 8288 O 804.98 -0.810518 1.73612 0
M  V30 8289 C 805.174 2.56686 2.48691 0
M  V30 8290 C 805.003 4.01633 2.0229 0
M  V30 8291 C 803.773 4.69333 1.87228 0
M  V30 8292 C 805.971 4.89379 1.58154 0
M  V30 8293 N 803.953 5.98891 1.34917 0
M  V30 8294 C 805.324 6.08775 1.17445 0
M  V30 8295 C 807.379 4.76017 1.45987 0
M  V30 8296 C 806.082 7.16286 0.657805 0
M  V30 8297 C 808.108 5.83601 0.95726 0
M  V30 8298 C 807.47 7.02171 0.55996 0
M  V30 8299 H 803.569 0.61509 0.482896 0
M  V30 8300 H 806.153 1.83123 0.661361 0
M  V30 8301 H 804.324 2.28578 3.14017 0
M  V30 8302 H 806.056 2.5328 3.15644 0
M  V30 8303 H 802.811 4.24878 2.09226 0
M  V30 8304 H 803.235 6.67852 1.10917 0
M  V30 8305 H 807.877 3.84736 1.75322 0
M  V30 8306 H 805.595 8.07333 0.352047 0
M  V30 8307 H 809.181 5.75304 0.867007 0
M  V30 8308 H 808.061 7.84 0.177046 0
M  V30 8309 N 805.565 -0.825799 1.34232 0
M  V30 8310 C 806.814 -1.57686 1.2577 0
M  V30 8311 C 807.127 -1.94848 -0.171372 0
M  V30 8312 O 808.333 -2.68854 -0.378123 0
M  V30 8313 C 806.789 -2.84478 2.20454 0
M  V30 8314 C 806.397 -2.54629 3.68603 0
M  V30 8315 C 808.141 -3.625 2.20893 0
M  V30 8316 C 806.048 -3.77597 4.55164 0
M  V30 8317 H 804.978 -0.591809 0.467203 0
M  V30 8318 H 807.629 -0.909421 1.59379 0
M  V30 8319 H 806.011 -3.52832 1.79793 0
M  V30 8320 H 807.185 -1.94404 4.17784 0
M  V30 8321 H 805.5 -1.89888 3.70582 0
M  V30 8322 H 808.097 -4.538 2.82789 0
M  V30 8323 H 808.44 -3.98404 1.20746 0
M  V30 8324 H 808.973 -3.01086 2.59985 0
M  V30 8325 H 805.712 -3.46815 5.56237 0
M  V30 8326 H 805.232 -4.37116 4.10719 0
M  V30 8327 H 806.911 -4.45039 4.69627 0
M  V30 8328 N 807.043 -1.17915 -1.04565 0
M  V30 8329 C 808.283 -0.982331 -1.79247 0
M  V30 8330 C 808.647 0.47998 -1.85904 0
M  V30 8331 O 809.848 0.796078 -2.56741 0
M  V30 8332 C 808.119 -1.61329 -3.18916 0
M  V30 8333 S 809.678 -1.56355 -4.09998 0
M  V30 8334 H 806.496 -0.352869 -0.617256 0
M  V30 8335 H 809.098 -1.49971 -1.25415 0
M  V30 8336 H 807.802 -2.66993 -3.11678 0
M  V30 8337 H 807.333 -1.09599 -3.77825 0
M  V30 8338 H 809.348 -0.57593 -4.92846 0
M  V30 8339 N 808.521 1.23394 -0.980386 0
M  V30 8340 C 809.451 2.2717 -0.540024 0
M  V30 8341 C 810.432 1.64659 0.426787 0
M  V30 8342 O 811.617 1.91543 0.320153 0
M  V30 8343 C 808.747 3.46939 0.15836 0
M  V30 8344 C 807.701 4.21802 -0.725732 0
M  V30 8345 C 807.027 5.34597 0.104866 0
M  V30 8346 C 808.327 4.81802 -2.01654 0
M  V30 8347 H 810.021 2.64257 -1.40743 0
M  V30 8348 H 807.567 1.2703 -0.678193 0
M  V30 8349 H 809.52 4.18683 0.477737 0
M  V30 8350 H 808.244 3.08912 1.06022 0
M  V30 8351 H 806.903 3.51875 -1.02857 0
M  V30 8352 H 806.551 4.92812 1.00726 0
M  V30 8353 H 806.251 5.85607 -0.483557 0
M  V30 8354 H 807.775 6.09163 0.418624 0
M  V30 8355 H 809.189 5.45554 -1.76193 0
M  V30 8356 H 807.586 5.43098 -2.55273 0
M  V30 8357 H 808.656 4.02549 -2.70338 0
M  V30 8358 N 809.999 0.752036 1.385 0
M  V30 8359 C 811.227 0.318274 2.04437 0
M  V30 8360 C 811.642 -1.05285 1.56718 0
M  V30 8361 O 810.999 -1.66844 0.73956 0
M  V30 8362 C 811.05 0.330106 3.5999 0
M  V30 8363 O 810.771 1.64712 4.05957 0
M  V30 8364 C 812.272 -0.117713 4.43144 0
M  V30 8365 H 809.492 0.136228 0.657026 0
M  V30 8366 H 812.036 1.02045 1.7722 0
M  V30 8367 H 810.191 -0.323323 3.86048 0
M  V30 8368 H 810.605 1.57225 5.0038 0
M  V30 8369 H 812.079 -0.0582735 5.51969 0
M  V30 8370 H 812.556 -1.16538 4.23457 0
M  V30 8371 H 813.162 0.506784 4.2227 0
M  V30 8372 N 811.477 -1.49425 0.500989 0
M  V30 8373 C 812.407 -2.31971 -0.266775 0
M  V30 8374 C 813.388 -1.40245 -0.962563 0
M  V30 8375 O 814.573 -1.69154 -0.953968 0
M  V30 8376 C 811.703 -3.20757 -1.33163 0
M  V30 8377 C 810.657 -4.21275 -0.75572 0
M  V30 8378 C 809.983 -4.98997 -1.92109 0
M  V30 8379 C 811.283 -5.21686 0.253213 0
M  V30 8380 H 812.977 -2.96408 0.422237 0
M  V30 8381 H 810.523 -1.4254 0.204505 0
M  V30 8382 H 812.476 -3.77315 -1.87646 0
M  V30 8383 H 811.2 -2.54263 -2.04983 0
M  V30 8384 H 809.859 -3.65861 -0.232637 0
M  V30 8385 H 809.507 -4.28951 -2.62698 0
M  V30 8386 H 809.207 -5.67011 -1.54182 0
M  V30 8387 H 810.731 -5.584 -2.47026 0
M  V30 8388 H 812.145 -5.72939 -0.203483 0
M  V30 8389 H 810.542 -5.9759 0.548322 0
M  V30 8390 H 811.612 -4.70596 1.16909 0
M  V30 8391 N 812.955 -0.234822 -1.55841 0
M  V30 8392 C 814.204 0.393685 -1.97821 0
M  V30 8393 C 814.517 1.59947 -1.1259 0
M  V30 8394 O 815.723 2.29835 -1.44528 0
M  V30 8395 C 814.179 0.751811 -3.5196 0
M  V30 8396 C 813.787 -0.431898 -4.45913 0
M  V30 8397 C 815.531 1.34518 -4.02623 0
M  V30 8398 C 813.438 -0.0505976 -5.91378 0
M  V30 8399 H 812.368 0.150864 -0.738753 0
M  V30 8400 H 815.019 -0.333132 -1.80451 0
M  V30 8401 H 813.401 1.53642 -3.6498 0
M  V30 8402 H 814.575 -1.20935 -4.44647 0
M  V30 8403 H 812.89 -0.939385 -4.05666 0
M  V30 8404 H 815.487 1.64359 -5.08813 0
M  V30 8405 H 815.83 2.26554 -3.49255 0
M  V30 8406 H 816.363 0.623729 -3.9288 0
M  V30 8407 H 813.102 -0.937779 -6.48757 0
M  V30 8408 H 812.622 0.690898 -5.95808 0
M  V30 8409 H 814.301 0.37146 -6.45933 0
M  V30 8410 N 814.433 1.57553 0.0384317 0
M  V30 8411 C 815.661 1.93093 0.743141 0
M  V30 8412 C 816.076 0.833787 1.69391 0
M  V30 8413 O 815.433 -0.190532 1.81503 0
M  V30 8414 C 815.484 3.28533 1.50826 0
M  V30 8415 O 815.205 4.34032 0.595665 0
M  V30 8416 C 816.706 3.78297 2.31098 0
M  V30 8417 H 813.926 0.637486 0.20941 0
M  V30 8418 H 816.47 2.045 -0.00125154 0
M  V30 8419 H 814.625 3.18552 2.20462 0
M  V30 8420 H 815.039 5.12155 1.13124 0
M  V30 8421 H 816.513 4.75602 2.80191 0
M  V30 8422 H 816.99 3.09008 3.12107 0
M  V30 8423 H 817.596 3.91331 1.66555 0
M  V30 8424 N 815.911 -0.310526 1.54511 0
M  V30 8425 C 817.159 -1.04484 1.72996 0
M  V30 8426 C 817.48 -1.88118 0.513479 0
M  V30 8427 O 816.75 -1.90119 -0.472384 0
M  V30 8428 H 815.33 -0.388747 0.637875 0
M  V30 8429 H 817.992 -0.343811 1.91844 0
M  V30 8430 H 817.088 -1.70341 2.61515 0
M  V30 8431 N 817.389 -1.46805 -0.573248 0
M  V30 8432 C 818.319 -1.60951 -1.69165 0
M  V30 8433 C 819.3 -0.45948 -1.63777 0
M  V30 8434 O 820.485 -0.68688 -1.81647 0
M  V30 8435 C 817.615 -1.60844 -3.07809 0
M  V30 8436 C 816.569 -2.74913 -3.28035 0
M  V30 8437 C 815.895 -2.59871 -4.67302 0
M  V30 8438 C 817.195 -4.16654 -3.14955 0
M  V30 8439 H 818.889 -2.54574 -1.57582 0
M  V30 8440 H 816.435 -1.22516 -0.756686 0
M  V30 8441 H 818.388 -1.69334 -3.85881 0
M  V30 8442 H 817.112 -0.637714 -3.20314 0
M  V30 8443 H 815.771 -2.65908 -2.52366 0
M  V30 8444 H 815.419 -1.60861 -4.76585 0
M  V30 8445 H 815.119 -3.36386 -4.81786 0
M  V30 8446 H 816.643 -2.70265 -5.4753 0
M  V30 8447 H 818.057 -4.26721 -3.82861 0
M  V30 8448 H 816.454 -4.93831 -3.40956 0
M  V30 8449 H 817.524 -4.36146 -2.11908 0
M  V30 8450 N 818.867 0.818669 -1.34668 0
M  V30 8451 C 820.113 1.57746 -1.27453 0
M  V30 8452 C 820.446 1.93588 0.154077 0
M  V30 8453 O 819.721 1.60371 1.10051 0
M  V30 8454 C 820.004 2.87414 -2.16945 0
M  V30 8455 C 819.857 2.58125 -3.68363 0
M  V30 8456 C 821.176 3.89021 -2.05792 0
M  V30 8457 H 818.295 0.572339 -0.464324 0
M  V30 8458 H 820.937 0.942784 -1.64959 0
M  V30 8459 H 819.087 3.41576 -1.85089 0
M  V30 8460 H 820.759 2.10239 -4.10606 0
M  V30 8461 H 819.002 1.91503 -3.89242 0
M  V30 8462 H 819.673 3.5061 -4.26353 0
M  V30 8463 H 822.149 3.44224 -2.33771 0
M  V30 8464 H 821.025 4.77548 -2.70628 0
M  V30 8465 H 821.286 4.29786 -1.03618 0
M  V30 8466 N 820.346 1.18468 1.03938 0
M  V30 8467 C 821.592 0.982286 1.77423 0
M  V30 8468 C 821.925 -0.48679 1.88 0
M  V30 8469 O 821.2 -1.36146 1.38905 0
M  V30 8470 C 821.483 1.63929 3.20623 0
M  V30 8471 C 821.336 3.18132 3.17982 0
M  V30 8472 C 822.655 1.3536 4.18767 0
M  V30 8473 H 819.774 0.358264 0.644062 0
M  V30 8474 H 822.416 1.46154 1.21405 0
M  V30 8475 H 820.566 1.2318 3.68455 0
M  V30 8476 H 822.238 3.68024 2.78129 0
M  V30 8477 H 820.481 3.50225 2.55978 0
M  V30 8478 H 821.152 3.5924 4.19107 0
M  V30 8479 H 823.628 1.70669 3.79488 0
M  V30 8480 H 822.504 1.83896 5.17178 0
M  V30 8481 H 822.765 0.276722 4.41233 0
M  V30 8482 N 821.824 -1.22873 0.986916 0
M  V30 8483 C 822.754 -2.2688 0.552064 0
M  V30 8484 C 823.735 -1.64883 -0.418048 0
M  V30 8485 O 824.92 -1.9171 -0.30999 0
M  V30 8486 C 822.05 -3.47018 -0.139959 0
M  V30 8487 C 821.004 -4.21411 0.748091 0
M  V30 8488 C 820.33 -5.34645 -0.0765132 0
M  V30 8489 C 821.63 -4.80726 2.04206 0
M  V30 8490 H 823.324 -2.63507 1.42143 0
M  V30 8491 H 820.87 -1.26668 0.68492 0
M  V30 8492 H 822.823 -4.18931 -0.455527 0
M  V30 8493 H 821.547 -3.0947 -1.04382 0
M  V30 8494 H 820.206 -3.51325 1.04721 0
M  V30 8495 H 819.854 -4.93339 -0.981109 0
M  V30 8496 H 819.554 -5.85342 0.514606 0
M  V30 8497 H 821.078 -6.09377 -0.386313 0
M  V30 8498 H 822.492 -5.44612 1.79083 0
M  V30 8499 H 820.889 -5.41737 2.5815 0
M  V30 8500 H 821.959 -4.01109 2.72469 0
M  V30 8501 N 823.302 -0.75937 -1.38099 0
M  V30 8502 C 824.232 -0.151077 -2.33011 0
M  V30 8503 C 825.213 0.697099 -1.5516 0
M  V30 8504 O 826.398 0.637101 -1.83452 0
M  V30 8505 C 823.528 0.738423 -3.39359 0
M  V30 8506 C 822.482 -0.0074741 -4.27999 0
M  V30 8507 C 821.808 1.00066 -5.25253 0
M  V30 8508 C 823.108 -1.17926 -5.08813 0
M  V30 8509 H 824.802 -0.943933 -2.84131 0
M  V30 8510 H 822.348 -0.455362 -1.36611 0
M  V30 8511 H 824.301 1.17369 -4.04725 0
M  V30 8512 H 823.025 1.56366 -2.86735 0
M  V30 8513 H 821.684 -0.423379 -3.64147 0
M  V30 8514 H 821.332 1.82012 -4.68914 0
M  V30 8515 H 821.032 0.506199 -5.85416 0
M  V30 8516 H 822.556 1.43512 -5.93495 0
M  V30 8517 H 823.97 -0.821262 -5.67387 0
M  V30 8518 H 822.367 -1.60497 -5.78239 0
M  V30 8519 H 823.437 -1.98938 -4.42212 0
M  V30 8520 N 824.78 1.49157 -0.508906 0
M  V30 8521 C 825.71 2.32109 0.254469 0
M  V30 8522 C 826.691 1.40754 0.955111 0
M  V30 8523 O 827.876 1.69658 0.944983 0
M  V30 8524 C 825.006 3.21458 1.3146 0
M  V30 8525 C 823.96 4.2167 0.733368 0
M  V30 8526 C 823.286 5.00009 1.8946 0
M  V30 8527 C 824.586 5.21544 -0.280875 0
M  V30 8528 H 826.28 2.9618 -0.43795 0
M  V30 8529 H 823.826 1.4243 -0.212062 0
M  V30 8530 H 825.779 3.78305 1.85643 0
M  V30 8531 H 824.503 2.55346 2.03632 0
M  V30 8532 H 823.162 3.65979 0.213231 0
M  V30 8533 H 822.81 4.30338 2.60419 0
M  V30 8534 H 822.51 5.67821 1.51173 0
M  V30 8535 H 824.034 5.59702 2.44061 0
M  V30 8536 H 825.448 5.73039 0.173095 0
M  V30 8537 H 823.845 5.97291 -0.580006 0
M  V30 8538 H 824.915 4.69969 -1.19404 0
M  V30 8539 N 826.258 0.243083 1.55714 0
M  V30 8540 C 827.188 -0.652336 2.24203 0
M  V30 8541 C 828.169 -1.1843 1.221 0
M  V30 8542 O 829.354 -1.22435 1.50743 0
M  V30 8543 C 826.484 -1.85111 2.93856 0
M  V30 8544 C 825.438 -1.45208 4.02615 0
M  V30 8545 C 824.764 -2.73137 4.59674 0
M  V30 8546 C 826.064 -0.625988 5.18535 0
M  V30 8547 H 827.758 -0.0812504 2.9929 0
M  V30 8548 H 825.304 -0.0376388 1.43951 0
M  V30 8549 H 827.257 -2.48314 3.40468 0
M  V30 8550 H 825.981 -2.44751 2.16251 0
M  V30 8551 H 824.64 -0.843406 3.56766 0
M  V30 8552 H 824.288 -3.30967 3.78774 0
M  V30 8553 H 823.988 -2.47163 5.33089 0
M  V30 8554 H 825.512 -3.37245 5.09017 0
M  V30 8555 H 826.926 -1.16223 5.61396 0
M  V30 8556 H 825.323 -0.462465 5.98315 0
M  V30 8557 H 826.393 0.362652 4.83542 0
M  V30 8558 N 827.736 -1.57571 -0.0300757 0
M  V30 8559 C 828.666 -2.0953 -1.03051 0
M  V30 8560 C 829.647 -0.99761 -1.37774 0
M  V30 8561 O 830.832 -1.27279 -1.46676 0
M  V30 8562 C 827.962 -2.57385 -2.33174 0
M  V30 8563 C 826.916 -3.71409 -2.12696 0
M  V30 8564 C 826.242 -4.05467 -3.4857 0
M  V30 8565 C 827.542 -4.99877 -1.51396 0
M  V30 8566 H 829.236 -2.93367 -0.597999 0
M  V30 8567 H 826.782 -1.41127 -0.286203 0
M  V30 8568 H 828.735 -2.92355 -3.03491 0
M  V30 8569 H 827.459 -1.70629 -2.78484 0
M  V30 8570 H 826.118 -3.36786 -1.44813 0
M  V30 8571 H 825.766 -3.15779 -3.91526 0
M  V30 8572 H 825.466 -4.82269 -3.35694 0
M  V30 8573 H 826.99 -4.4297 -4.2025 0
M  V30 8574 H 828.404 -5.3281 -2.11629 0
M  V30 8575 H 826.801 -5.81283 -1.49098 0
M  V30 8576 H 827.871 -4.82522 -0.479676 0
M  V30 8577 N 829.214 0.302327 -1.54673 0
M  V30 8578 C 830.463 1.03533 -1.73101 0
M  V30 8579 C 830.776 1.88473 -0.523174 0
M  V30 8580 O 831.982 2.65029 -0.589229 0
M  V30 8581 C 830.438 1.89043 -3.06252 0
M  V30 8582 C 830.046 1.09112 -4.3451 0
M  V30 8583 C 831.79 2.61951 -3.34039 0
M  V30 8584 C 829.697 1.93891 -5.58713 0
M  V30 8585 H 828.627 0.390261 -0.645145 0
M  V30 8586 H 831.278 0.2924 -1.81155 0
M  V30 8587 H 829.66 2.67319 -2.92159 0
M  V30 8588 H 830.834 0.354596 -4.59434 0
M  V30 8589 H 829.149 0.477923 -4.13648 0
M  V30 8590 H 831.746 3.25729 -4.24033 0
M  V30 8591 H 832.089 3.30711 -2.52855 0
M  V30 8592 H 832.622 1.90725 -3.49097 0
M  V30 8593 H 829.361 1.29604 -6.4256 0
M  V30 8594 H 828.881 2.6522 -5.37976 0
M  V30 8595 H 830.56 2.51971 -5.95919 0
M  V30 8596 N 830.692 1.47107 0.565454 0
M  V30 8597 C 831.932 1.5488 1.33385 0
M  V30 8598 C 832.296 0.202804 1.90926 0
M  V30 8599 O 833.497 0.155345 2.68351 0
M  V30 8600 C 831.768 2.62969 2.42037 0
M  V30 8601 S 833.327 2.90269 3.29074 0
M  V30 8602 H 830.145 0.547008 0.454206 0
M  V30 8603 H 832.747 1.8444 0.648228 0
M  V30 8604 H 831.451 3.59376 1.98185 0
M  V30 8605 H 830.982 2.35197 3.15351 0
M  V30 8606 H 832.997 2.26854 4.41307 0
M  V30 8607 N 832.17 -0.811516 1.35101 0
M  V30 8608 C 833.117 -1.92308 1.27617 0
M  V30 8609 C 834.087 -1.6543 0.149091 0
M  V30 8610 O 835.272 -1.8789 0.331974 0
M  V30 8611 C 832.412 -3.28768 1.04908 0
M  V30 8612 C 831.525 -3.67865 2.26493 0
M  V30 8613 C 830.66 -4.9333 1.96974 0
M  V30 8614 C 829.699 -5.25041 3.1464 0
M  V30 8615 N 828.836 -6.41685 2.84929 0
M  V30 8616 H 833.676 -1.98041 2.22674 0
M  V30 8617 H 831.213 -0.968755 1.10696 0
M  V30 8618 H 833.171 -4.07426 0.897749 0
M  V30 8619 H 831.801 -3.22517 0.135151 0
M  V30 8620 H 830.853 -2.84507 2.52507 0
M  V30 8621 H 832.165 -3.87263 3.14371 0
M  V30 8622 H 831.319 -5.79803 1.78643 0
M  V30 8623 H 830.058 -4.75958 1.06374 0
M  V30 8624 H 829.063 -4.3706 3.33554 0
M  V30 8625 H 830.288 -5.44346 4.06035 0
M  V30 8626 H 828.234 -6.25747 1.96918 0
M  V30 8627 H 828.151 -6.6131 3.66341 0
M  V30 8628 H 829.419 -7.31198 2.70128 0
M  V30 8629 N 833.648 -1.19017 -1.03309 0
M  V30 8630 C 834.595 -0.924088 -2.11493 0
M  V30 8631 C 835.565 0.139464 -1.65513 0
M  V30 8632 O 836.75 -0.00178761 -1.908 0
M  V30 8633 C 833.89 -0.464255 -3.41963 0
M  V30 8634 C 833.003 -1.5941 -4.01513 0
M  V30 8635 C 832.138 -1.08622 -5.19976 0
M  V30 8636 C 831.177 -2.19024 -5.71572 0
M  V30 8637 N 830.314 -1.69575 -6.81314 0
M  V30 8638 H 835.154 -1.85039 -2.33591 0
M  V30 8639 H 832.691 -0.922593 -1.14572 0
M  V30 8640 H 834.649 -0.179078 -4.16815 0
M  V30 8641 H 833.279 0.425062 -3.19989 0
M  V30 8642 H 832.331 -1.99458 -3.23915 0
M  V30 8643 H 833.643 -2.42604 -4.35826 0
M  V30 8644 H 832.797 -0.756022 -6.01971 0
M  V30 8645 H 831.536 -0.223955 -4.87186 0
M  V30 8646 H 830.541 -2.5288 -4.88193 0
M  V30 8647 H 831.766 -3.05699 -6.06403 0
M  V30 8648 H 829.712 -0.856494 -6.50385 0
M  V30 8649 H 829.629 -2.46361 -7.14732 0
M  V30 8650 H 830.897 -1.39505 -7.66915 0
M  V30 8651 N 835.127 1.22348 -0.993418 0
M  V30 8652 C 836.543 1.43222 -0.704238 0
M  V30 8653 C 836.743 1.88009 0.724909 0
M  V30 8654 O 835.799 2.03429 1.49575 0
M  V30 8655 C 837.112 2.47328 -1.71025 0
M  V30 8656 C 838.66 2.61126 -1.72576 0
M  V30 8657 C 839.135 3.68453 -2.72041 0
M  V30 8658 N 840.626 3.75911 -2.70639 0
M  V30 8659 C 841.361 4.58551 -3.44266 0
M  V30 8660 N 840.857 5.45179 -4.27495 0
M  V30 8661 N 842.65 4.52866 -3.32969 0
M  V30 8662 H 834.801 0.915832 -1.91641 0
M  V30 8663 H 837.064 0.464283 -0.826526 0
M  V30 8664 H 836.77 2.21366 -2.73295 0
M  V30 8665 H 836.644 3.45939 -1.50353 0
M  V30 8666 H 839.031 2.86431 -0.710037 0
M  V30 8667 H 839.112 1.62787 -1.97317 0
M  V30 8668 H 838.756 3.43895 -3.73763 0
M  V30 8669 H 838.686 4.66362 -2.4457 0
M  V30 8670 H 841.177 3.14014 -2.10247 0
M  V30 8671 H 841.49 6.0526 -4.80499 0
M  V30 8672 H 839.835 5.44759 -4.31582 0
M  V30 8673 H 843.026 3.84215 -2.67389 0
M  V30 8674 H 843.199 5.17039 -3.90608 0
M  V30 8675 N 836.605 0.766683 1.37694 0
M  V30 8676 C 837.555 0.123173 2.27667 0
M  V30 8677 C 838.539 -0.679436 1.45851 0
M  V30 8678 O 839.731 -0.54324 1.68457 0
M  V30 8679 C 836.86 -0.759064 3.34803 0
M  V30 8680 C 835.946 0.0511009 4.24069 0
M  V30 8681 N 836.337 1.09418 4.93823 0
M  V30 8682 C 834.635 -0.173675 4.45662 0
M  V30 8683 C 835.336 1.58546 5.59677 0
M  V30 8684 N 834.312 0.898503 5.36123 0
M  V30 8685 H 838.114 0.921859 2.79068 0
M  V30 8686 H 835.628 0.603957 1.50752 0
M  V30 8687 H 837.625 -1.23581 3.98163 0
M  V30 8688 H 836.285 -1.55655 2.84959 0
M  V30 8689 H 837.296 1.47623 4.96415 0
M  V30 8690 H 833.973 -0.943473 4.067 0
M  V30 8691 H 835.363 2.45504 6.25442 0
M  V30 8692 N 838.083 -1.48885 0.516809 0
M  V30 8693 C 839.323 -2.0439 -0.0202232 0
M  V30 8694 C 839.687 -1.38652 -1.32814 0
M  V30 8695 O 840.888 -1.84968 -1.95039 0
M  V30 8696 C 839.159 -3.57071 -0.153257 0
M  V30 8697 S 840.718 -4.34074 -0.642256 0
M  V30 8698 H 837.536 -0.710977 0.00576322 0
M  V30 8699 H 840.138 -1.82753 0.694376 0
M  V30 8700 H 838.842 -4.02454 0.803695 0
M  V30 8701 H 838.373 -3.83139 -0.892627 0
M  V30 8702 H 840.388 -4.58011 -1.90893 0
M  V30 8703 N 839.561 -0.251338 -1.55583 0
M  V30 8704 C 840.809 0.371434 -1.98657 0
M  V30 8705 C 841.13 1.58143 -1.14087 0
M  V30 8706 O 840.4 1.94607 -0.224708 0
M  V30 8707 H 838.98 0.140225 -0.733721 0
M  V30 8708 H 841.642 -0.351157 -1.9171 0
M  V30 8709 H 840.738 0.677554 -3.04657 0
M  V30 8710 N 841.039 1.57585 0.0217189 0
M  V30 8711 C 842.269 1.9359 0.721572 0
M  V30 8712 C 842.677 0.850132 1.69025 0
M  V30 8713 O 842.02 -0.181539 1.82801 0
M  V30 8714 C 842.082 3.25445 1.52729 0
M  V30 8715 C 841.746 4.51251 0.722586 0
M  V30 8716 C 842.743 5.19896 0.0196598 0
M  V30 8717 C 840.428 4.97745 0.674959 0
M  V30 8718 C 842.422 6.33319 -0.720114 0
M  V30 8719 C 840.109 6.11062 -0.068555 0
M  V30 8720 C 841.107 6.78704 -0.764845 0
M  V30 8721 O 840.795 7.89852 -1.49627 0
M  V30 8722 H 840.527 0.643409 0.207366 0
M  V30 8723 H 843.081 2.05391 -0.0189346 0
M  V30 8724 H 841.311 3.0999 2.31178 0
M  V30 8725 H 843 3.46721 2.11044 0
M  V30 8726 H 843.766 4.84977 0.0474394 0
M  V30 8727 H 839.645 4.44934 1.20643 0
M  V30 8728 H 843.189 6.86051 -1.26413 0
M  V30 8729 H 839.086 6.45425 -0.0982318 0
M  V30 8730 H 839.854 8.06251 -1.41071 0
M  V30 8731 N 842.517 -0.29412 1.54831 0
M  V30 8732 C 843.742 -1.05156 1.78765 0
M  V30 8733 C 844.167 -1.79916 0.548809 0
M  V30 8734 O 843.525 -1.74243 -0.500909 0
M  V30 8735 C 843.573 -2.00242 2.99893 0
M  V30 8736 O 842.677 -3.08662 2.73499 0
M  V30 8737 H 842.018 -0.301737 0.591482 0
M  V30 8738 H 844.548 -0.329449 2.0193 0
M  V30 8739 H 844.558 -2.42583 3.28051 0
M  V30 8740 H 843.233 -1.45235 3.89717 0
M  V30 8741 H 841.81 -2.70786 2.56377 0
M  V30 8742 N 843.995 -1.47404 -0.557645 0
M  V30 8743 C 844.942 -1.59859 -1.66475 0
M  V30 8744 C 845.912 -0.441644 -1.60121 0
M  V30 8745 O 847.097 -0.661641 -1.78961 0
M  V30 8746 C 844.237 -1.61843 -3.04797 0
M  V30 8747 C 843.35 -2.8845 -3.2159 0
M  V30 8748 C 842.485 -2.81773 -4.50308 0
M  V30 8749 C 841.524 -4.03208 -4.60532 0
M  V30 8750 N 840.661 -3.94769 -5.80604 0
M  V30 8751 H 845.501 -2.54415 -1.55168 0
M  V30 8752 H 843.038 -1.26194 -0.755876 0
M  V30 8753 H 844.996 -1.60976 -3.84893 0
M  V30 8754 H 843.626 -0.707997 -3.1494 0
M  V30 8755 H 842.678 -2.99186 -2.34929 0
M  V30 8756 H 843.99 -3.78379 -3.25009 0
M  V30 8757 H 843.144 -2.79153 -5.38663 0
M  V30 8758 H 841.883 -1.89527 -4.49367 0
M  V30 8759 H 840.888 -4.06133 -3.70589 0
M  V30 8760 H 842.113 -4.9658 -4.63233 0
M  V30 8761 H 840.059 -3.05326 -5.80613 0
M  V30 8762 H 839.976 -4.78375 -5.854 0
M  V30 8763 H 841.244 -3.96165 -6.71322 0
M  V30 8764 N 845.473 0.80434 -1.35529 0
M  V30 8765 C 846.436 1.89788 -1.28503 0
M  V30 8766 C 847.436 1.59601 -0.195983 0
M  V30 8767 O 848.626 1.68292 -0.449827 0
M  V30 8768 C 845.758 3.26255 -0.98847 0
M  V30 8769 H 846.951 1.97436 -2.25741 0
M  V30 8770 H 844.504 1.00046 -1.20086 0
M  V30 8771 H 845.239 3.24294 -0.0200541 0
M  V30 8772 H 845.024 3.49551 -1.77641 0
M  V30 8773 H 846.514 4.06298 -0.964975 0
M  V30 8774 N 846.951 1.19563 1.02676 0
M  V30 8775 C 848.198 0.999568 1.7611 0
M  V30 8776 C 848.526 -0.469432 1.8875 0
M  V30 8777 O 847.781 -1.36481 1.40255 0
M  V30 8778 C 848.08 1.61619 3.18769 0
M  V30 8779 C 847.746 3.11366 3.26132 0
M  V30 8780 C 846.408 3.52234 3.27848 0
M  V30 8781 C 848.76 4.07374 3.25109 0
M  V30 8782 C 846.088 4.87658 3.26201 0
M  V30 8783 C 848.44 5.42731 3.25002 0
M  V30 8784 C 847.104 5.83027 3.25017 0
M  V30 8785 H 846.374 0.365768 0.644434 0
M  V30 8786 H 849.021 1.48838 1.20497 0
M  V30 8787 H 847.326 1.04974 3.77476 0
M  V30 8788 H 849.023 1.43975 3.74262 0
M  V30 8789 H 845.613 2.78804 3.25525 0
M  V30 8790 H 849.797 3.76842 3.22961 0
M  V30 8791 H 845.053 5.18156 3.24537 0
M  V30 8792 H 849.227 6.16879 3.23161 0
M  V30 8793 H 846.854 6.87936 3.23494 0
M  V30 8794 N 848.429 -1.21819 0.999893 0
M  V30 8795 C 849.361 -2.23356 0.514256 0
M  V30 8796 C 850.374 -1.5795 -0.394413 0
M  V30 8797 O 851.563 -1.77427 -0.195428 0
M  V30 8798 C 848.663 -3.37797 -0.273207 0
M  V30 8799 C 847.836 -4.32791 0.633293 0
M  V30 8800 C 846.895 -5.26098 -0.103673 0
M  V30 8801 O 845.921 -5.66881 0.513269 0
M  V30 8802 N 847.123 -5.63764 -1.38383 0
M  V30 8803 H 849.888 -2.65653 1.3874 0
M  V30 8804 H 847.449 -1.3619 0.875431 0
M  V30 8805 H 849.441 -3.97209 -0.775053 0
M  V30 8806 H 848.011 -2.94527 -1.0475 0
M  V30 8807 H 847.231 -3.71595 1.31571 0
M  V30 8808 H 848.519 -4.93196 1.25039 0
M  V30 8809 H 847.917 -5.32614 -1.90627 0
M  V30 8810 H 846.474 -6.25562 -1.83073 0
M  V30 8811 N 849.908 -0.773975 -1.37286 0
M  V30 8812 C 851.185 -0.263942 -1.93811 0
M  V30 8813 C 851.565 1.24138 -1.70743 0
M  V30 8814 O 850.913 2.02557 -1.05749 0
M  V30 8815 C 851.123 -0.639753 -3.43086 0
M  V30 8816 C 852.471 -0.610796 -4.20184 0
M  V30 8817 O 853.495 -0.579278 -3.51458 0
M  V30 8818 O 852.354 -0.639862 -5.42741 0
M  V30 8819 H 849.448 -0.0614331 -0.824715 0
M  V30 8820 H 851.994 -0.855477 -1.46559 0
M  V30 8821 H 850.766 -1.67856 -3.53469 0
M  V30 8822 H 850.389 -0.0212827 -3.97594 0
M  V30 8823 N 851.386 1.48609 -0.524698 0
M  V30 8824 C 852.611 2.07398 0.00952139 0
M  V30 8825 C 853.036 1.37939 1.27884 0
M  V30 8826 O 852.394 0.443633 1.75788 0
M  V30 8827 C 852.442 3.59916 0.221956 0
M  V30 8828 O 851.546 3.91647 1.29175 0
M  V30 8829 H 850.887 0.662981 -0.0367729 0
M  V30 8830 H 853.417 1.91092 -0.7311 0
M  V30 8831 H 853.427 4.05552 0.446236 0
M  V30 8832 H 852.102 4.09876 -0.705306 0
M  V30 8833 H 850.679 3.57796 1.05055 0
M  V30 8834 N 852.864 0.259585 1.55447 0
M  V30 8835 C 854.141 -0.412595 1.91199 0
M  V30 8836 C 854.521 -1.74909 1.18194 0
M  V30 8837 O 853.869 -2.26474 0.303603 0
M  V30 8838 C 854.079 -0.568195 3.44344 0
M  V30 8839 C 855.427 -0.858253 4.15836 0
M  V30 8840 O 856.451 -0.653588 3.50152 0
M  V30 8841 O 855.31 -1.24874 5.32042 0
M  V30 8842 H 852.404 -0.223403 0.796254 0
M  V30 8843 H 854.95 0.30459 1.66944 0
M  V30 8844 H 853.722 0.372989 3.89518 0
M  V30 8845 H 853.345 -1.33544 3.74502 0
M  V30 8846 N 854.342 -1.57594 -0.0133615 0
M  V30 8847 C 855.252 -2.10991 -1.02566 0
M  V30 8848 C 856.268 -1.05208 -1.3859 0
M  V30 8849 O 857.444 -1.37034 -1.47593 0
M  V30 8850 C 854.509 -2.59165 -2.30292 0
M  V30 8851 C 853.57 -3.79495 -2.00704 0
M  V30 8852 C 852.803 -4.25361 -3.22341 0
M  V30 8853 O 853.026 -3.70645 -4.33565 0
M  V30 8854 O 851.96 -5.17649 -3.07121 0
M  V30 8855 H 855.786 -2.97678 -0.601806 0
M  V30 8856 H 853.371 -1.47598 -0.23135 0
M  V30 8857 H 855.253 -2.90409 -3.05354 0
M  V30 8858 H 853.928 -1.75582 -2.71942 0
M  V30 8859 H 852.835 -3.53245 -1.23161 0
M  V30 8860 H 854.168 -4.64109 -1.639 0
M  V30 8861 N 855.82 0.285905 -1.54985 0
M  V30 8862 C 856.73 1.37534 -1.90057 0
M  V30 8863 C 857.746 1.54707 -0.796348 0
M  V30 8864 O 858.922 1.69082 -1.09423 0
M  V30 8865 C 855.987 2.7167 -2.15398 0
M  V30 8866 C 855.048 2.63354 -3.39033 0
M  V30 8867 C 854.281 3.91093 -3.63155 0
M  V30 8868 O 854.504 4.91169 -2.90015 0
M  V30 8869 O 853.438 3.92075 -4.56685 0
M  V30 8870 H 857.264 1.10791 -2.8277 0
M  V30 8871 H 854.849 0.483303 -1.41367 0
M  V30 8872 H 856.731 3.51006 -2.33179 0
M  V30 8873 H 855.406 2.98226 -1.25868 0
M  V30 8874 H 854.313 1.82438 -3.26599 0
M  V30 8875 H 855.646 2.41749 -4.2874 0
M  V30 8876 N 857.298 1.47698 0.54982 0
M  V30 8877 C 858.245 1.60739 1.65625 0
M  V30 8878 C 859.215 0.450129 1.59884 0
M  V30 8879 O 860.4 0.671123 1.78607 0
M  V30 8880 C 857.54 1.63457 3.03934 0
M  V30 8881 C 856.653 2.90152 3.20056 0
M  V30 8882 C 855.788 2.84157 4.48807 0
M  V30 8883 C 854.827 4.05644 4.58387 0
M  V30 8884 N 853.964 3.97843 5.78503 0
M  V30 8885 H 858.804 2.55234 1.53817 0
M  V30 8886 H 856.341 1.26593 0.749173 0
M  V30 8887 H 858.299 1.63015 3.84034 0
M  V30 8888 H 856.929 0.724689 3.1456 0
M  V30 8889 H 855.981 3.00428 2.33339 0
M  V30 8890 H 857.293 3.80097 3.22998 0
M  V30 8891 H 856.447 2.82006 5.37175 0
M  V30 8892 H 855.186 1.91908 4.48356 0
M  V30 8893 H 854.191 4.08092 3.6843 0
M  V30 8894 H 855.416 4.9903 4.60593 0
M  V30 8895 H 853.362 3.08401 5.78986 0
M  V30 8896 H 853.279 4.81473 5.82855 0
M  V30 8897 H 854.547 3.99719 6.69212 0
M  V30 8898 N 858.776 -0.797141 1.35954 0
M  V30 8899 C 859.709 -1.91567 1.24005 0
M  V30 8900 C 860.687 -1.62112 0.125868 0
M  V30 8901 O 861.871 -1.86167 0.295638 0
M  V30 8902 C 858.998 -3.26204 0.911535 0
M  V30 8903 C 858.044 -3.74598 2.03909 0
M  V30 8904 S 858.877 -3.91276 3.656 0
M  V30 8905 C 860.033 -5.288 3.34846 0
M  V30 8906 H 860.266 -2.0141 2.18681 0
M  V30 8907 H 857.799 -0.955542 1.2128 0
M  V30 8908 H 859.757 -4.03979 0.728805 0
M  V30 8909 H 858.418 -3.14095 -0.0173159 0
M  V30 8910 H 857.611 -4.72137 1.7636 0
M  V30 8911 H 857.213 -3.03849 2.18064 0
M  V30 8912 H 859.505 -6.13117 2.8826 0
M  V30 8913 H 860.448 -5.61347 4.31619 0
M  V30 8914 H 860.856 -4.95534 2.70382 0
M  V30 8915 N 860.254 -1.20106 -1.0204 0
M  V30 8916 C 861.204 -0.914145 -2.08872 0
M  V30 8917 C 862.188 0.124503 -1.60418 0
M  V30 8918 O 863.38 -0.0823521 -1.76808 0
M  V30 8919 C 860.509 -0.463897 -3.40151 0
M  V30 8920 C 859.595 -1.53576 -3.95317 0
M  V30 8921 N 859.986 -2.75726 -4.24038 0
M  V30 8922 C 858.284 -1.40103 -4.23423 0
M  V30 8923 C 858.985 -3.44838 -4.68468 0
M  V30 8924 N 857.961 -2.72245 -4.70514 0
M  V30 8925 H 861.763 -1.8424 -2.28982 0
M  V30 8926 H 859.277 -1.0945 -1.19977 0
M  V30 8927 H 861.274 -0.239766 -4.1621 0
M  V30 8928 H 859.934 0.457779 -3.21457 0
M  V30 8929 H 860.945 -3.12412 -4.13061 0
M  V30 8930 H 857.622 -0.543472 -4.13948 0
M  V30 8931 H 859.012 -4.49342 -4.99541 0
M  V30 8932 N 861.732 1.21287 -1.00634 0
M  V30 8933 C 862.962 1.94103 -0.70765 0
M  V30 8934 C 863.37 1.74382 0.733991 0
M  V30 8935 O 862.713 1.04843 1.50843 0
M  V30 8936 C 862.775 3.46705 -0.950581 0
M  V30 8937 C 862.439 3.90176 -2.37932 0
M  V30 8938 C 863.436 3.96769 -3.35961 0
M  V30 8939 C 861.121 4.22453 -2.71733 0
M  V30 8940 C 863.115 4.35034 -4.65858 0
M  V30 8941 C 860.802 4.60394 -4.01846 0
M  V30 8942 C 861.8 4.66656 -4.9872 0
M  V30 8943 O 861.488 5.03732 -6.26505 0
M  V30 8944 H 861.22 0.62405 -0.259881 0
M  V30 8945 H 863.774 1.55015 -1.34757 0
M  V30 8946 H 862.004 3.85868 -0.253492 0
M  V30 8947 H 863.693 4.00741 -0.645069 0
M  V30 8948 H 864.459 3.72009 -3.11182 0
M  V30 8949 H 860.338 4.16776 -1.97025 0
M  V30 8950 H 863.882 4.39836 -5.4147 0
M  V30 8951 H 859.779 4.84609 -4.26409 0
M  V30 8952 H 860.547 5.21761 -6.30641 0
M  V30 8953 N 863.21 0.781244 1.36873 0
M  V30 8954 C 864.142 0.132075 2.28819 0
M  V30 8955 C 865.155 -0.653925 1.49089 0
M  V30 8956 O 866.344 -0.490453 1.7163 0
M  V30 8957 C 863.444 -0.836297 3.28419 0
M  V30 8958 C 862.617 -0.102097 4.37281 0
M  V30 8959 C 861.676 -0.985217 5.16894 0
M  V30 8960 O 860.702 -0.445478 5.67454 0
M  V30 8961 N 861.904 -2.31043 5.3254 0
M  V30 8962 H 864.669 0.921838 2.85171 0
M  V30 8963 H 862.23 0.634427 1.48952 0
M  V30 8964 H 864.222 -1.43074 3.78566 0
M  V30 8965 H 862.792 -1.52698 2.72767 0
M  V30 8966 H 862.012 0.67335 3.88407 0
M  V30 8967 H 863.3 0.404862 5.07187 0
M  V30 8968 H 862.698 -2.77318 4.93063 0
M  V30 8969 H 861.255 -2.85472 5.8596 0
M  V30 8970 N 864.689 -1.48329 0.532571 0
M  V30 8971 C 865.637 -2.31336 -0.242133 0
M  V30 8972 C 866.631 -1.41391 -0.933006 0
M  V30 8973 O 867.837 -1.58284 -0.857096 0
M  V30 8974 H 864.212 -0.745724 -0.0969536 0
M  V30 8975 H 866.183 -2.94555 0.477504 0
M  V30 8976 C 864.932 -3.23501 -1.27446 0
M  V30 8977 H 864.255 -3.92659 -0.752261 0
M  V30 8978 H 865.695 -3.84461 -1.78789 0
M  V30 8979 C 864.154 -2.45288 -2.30944 0
M  V30 8980 O 864.684 -2.17955 -3.37429 0
M  V30 8981 N 862.89 -2.06737 -2.04226 0
M  V30 8982 H 862.437 -2.29166 -1.17647 0
M  V30 8983 H 862.395 -1.54719 -2.73696 0
M  V30 8984 N 866.167 -0.267825 -1.55308 0
M  V30 8985 C 867.415 0.350343 -1.9904 0
M  V30 8986 C 867.736 1.56924 -1.15758 0
M  V30 8987 O 867.006 1.94358 -0.245336 0
M  V30 8988 H 865.586 0.132435 -0.735167 0
M  V30 8989 H 868.248 -0.371471 -1.91327 0
M  V30 8990 H 867.344 0.645203 -3.05358 0
M  V30 8991 N 867.645 1.57599 0.00500368 0
M  V30 8992 C 868.577 2.04949 1.02609 0
M  V30 8993 C 869.59 0.966507 1.31006 0
M  V30 8994 O 870.779 1.2434 1.2807 0
M  V30 8995 C 867.879 2.43023 2.36206 0
M  V30 8996 C 867.052 3.73993 2.26821 0
M  V30 8997 C 866.111 3.9899 3.43065 0
M  V30 8998 O 865.137 4.69725 3.21477 0
M  V30 8999 N 866.339 3.46496 4.65748 0
M  V30 9000 H 869.104 2.93167 0.622336 0
M  V30 9001 H 866.665 1.60752 0.192488 0
M  V30 9002 H 868.657 2.56863 3.12735 0
M  V30 9003 H 867.227 1.60349 2.68341 0
M  V30 9004 H 866.447 3.70277 1.35235 0
M  V30 9005 H 867.735 4.59865 2.17719 0
M  V30 9006 H 867.133 2.89206 4.86186 0
M  V30 9007 H 865.69 3.65675 5.3956 0
M  V30 9008 N 869.123 -0.277682 1.55134 0
M  V30 9009 C 870.086 -1.32635 1.86924 0
M  V30 9010 C 871.086 -1.42578 0.743507 0
M  V30 9011 O 872.276 -1.4181 1.01171 0
M  V30 9012 C 869.408 -2.70832 2.07034 0
M  V30 9013 H 870.601 -1.0568 2.80663 0
M  V30 9014 H 868.154 -0.515517 1.47554 0
M  V30 9015 H 868.889 -3.02974 1.15661 0
M  V30 9016 H 868.674 -2.65001 2.88993 0
M  V30 9017 H 870.164 -3.46611 2.32918 0
M  V30 9018 N 870.601 -1.47988 -0.541979 0
M  V30 9019 C 872.012 -1.49073 -1.12402 0
M  V30 9020 C 872.363 -0.253825 -1.94551 0
M  V30 9021 O 871.488 0.640056 -2.06718 0
M  V30 9022 C 872.083 -2.7011 -2.04514 0
M  V30 9023 C 870.642 -2.74105 -2.5796 0
M  V30 9024 C 869.789 -2.42409 -1.3466 0
M  V30 9025 H 872.74 -1.55277 -0.327818 0
M  V30 9026 H 872.761 -2.47946 -2.88623 0
M  V30 9027 H 872.273 -3.60117 -1.44697 0
M  V30 9028 H 870.374 -1.88276 -3.21532 0
M  V30 9029 H 870.487 -3.75213 -2.97913 0
M  V30 9030 H 868.851 -1.9331 -1.65841 0
M  V30 9031 H 869.634 -3.34642 -0.766133 0
M  V30 9032 N 872.079 0.78992 -1.36375 0
M  V30 9033 C 873.49 1.36506 -1.2737 0
M  V30 9034 C 873.841 1.96008 0.086711 0
M  V30 9035 O 872.966 1.92521 0.988159 0
M  V30 9036 C 873.561 2.48175 -2.30639 0
M  V30 9037 C 872.12 3.01506 -2.25325 0
M  V30 9038 C 871.267 1.74581 -2.15445 0
M  V30 9039 H 874.218 0.591606 -1.47261 0
M  V30 9040 H 874.239 3.27179 -1.94253 0
M  V30 9041 H 873.751 2.04838 -3.2964 0
M  V30 9042 H 871.852 3.49265 -1.29788 0
M  V30 9043 H 871.965 3.58355 -3.17992 0
M  V30 9044 H 870.329 1.96794 -1.61692 0
M  V30 9045 H 871.112 1.33373 -3.16333 0
M  V30 9046 N 873.557 1.20646 1.01402 0
M  V30 9047 C 874.968 1.01823 1.56489 0
M  V30 9048 C 875.319 -0.42463 1.9155 0
M  V30 9049 O 874.444 -1.30644 1.72514 0
M  V30 9050 C 875.039 1.84208 2.84347 0
M  V30 9051 C 873.598 1.69743 3.35953 0
M  V30 9052 C 872.745 1.8198 2.09233 0
M  V30 9053 H 875.696 1.348 0.837539 0
M  V30 9054 H 875.717 1.34698 3.55861 0
M  V30 9055 H 875.229 2.89215 2.58798 0
M  V30 9056 H 873.33 0.673833 3.66456 0
M  V30 9057 H 873.443 2.51173 4.07981 0
M  V30 9058 H 871.807 1.25193 2.21808 0
M  V30 9059 H 872.59 2.88477 1.86107 0
M  V30 9060 N 875.035 -1.20752 1.01276 0
M  V30 9061 C 876.281 -1.90302 0.700924 0
M  V30 9062 C 876.614 -1.78406 -0.767142 0
M  V30 9063 O 875.889 -1.16575 -1.55694 0
M  V30 9064 C 876.172 -3.41831 1.13242 0
M  V30 9065 C 876.025 -3.6268 2.66051 0
M  V30 9066 C 877.344 -4.34486 0.700738 0
M  V30 9067 H 874.463 -0.69107 0.256107 0
M  V30 9068 H 877.105 -1.42227 1.25982 0
M  V30 9069 H 875.255 -3.82906 0.656902 0
M  V30 9070 H 876.927 -3.30882 3.21426 0
M  V30 9071 H 875.17 -3.06281 3.07204 0
M  V30 9072 H 875.841 -4.68882 2.91296 0
M  V30 9073 H 878.317 -4.01036 1.10948 0
M  V30 9074 H 877.193 -5.39136 1.03073 0
M  V30 9075 H 877.454 -4.40307 -0.39778 0
M  V30 9076 N 876.513 -0.788492 -1.36457 0
M  V30 9077 C 877.76 -0.360461 -1.99266 0
M  V30 9078 C 878.088 1.0676 -1.62581 0
M  V30 9079 O 877.343 1.75205 -0.871884 0
M  V30 9080 C 877.642 -0.470255 -3.54293 0
M  V30 9081 C 877.308 -1.85899 -4.10795 0
M  V30 9082 C 875.97 -2.23896 -4.25939 0
M  V30 9083 C 878.322 -2.76836 -4.41601 0
M  V30 9084 C 875.65 -3.52235 -4.69199 0
M  V30 9085 C 878.002 -4.04602 -4.86292 0
M  V30 9086 C 876.666 -4.42623 -4.99641 0
M  V30 9087 H 875.936 -0.131902 -0.729166 0
M  V30 9088 H 878.583 -1.00577 -1.62962 0
M  V30 9089 H 876.888 0.258559 -3.90946 0
M  V30 9090 H 878.585 -0.120119 -4.0082 0
M  V30 9091 H 875.175 -1.55372 -3.99447 0
M  V30 9092 H 879.359 -2.48735 -4.2947 0
M  V30 9093 H 874.615 -3.81565 -4.77722 0
M  V30 9094 H 878.789 -4.75182 -5.09092 0
M  V30 9095 H 876.416 -5.42125 -5.32921 0
M  V30 9096 N 877.991 1.48044 -0.54043 0
M  V30 9097 C 878.921 2.32597 0.205178 0
M  V30 9098 C 879.902 1.42748 0.925041 0
M  V30 9099 O 881.087 1.71624 0.908784 0
M  V30 9100 C 878.217 3.24175 1.24612 0
M  V30 9101 C 877.171 4.23131 0.64376 0
M  V30 9102 C 876.497 5.03915 1.78812 0
M  V30 9103 C 877.797 5.20831 -0.39144 0
M  V30 9104 H 879.491 2.95184 -0.500676 0
M  V30 9105 H 877.037 1.41948 -0.242225 0
M  V30 9106 H 878.99 3.82158 1.77576 0
M  V30 9107 H 877.714 2.59608 1.98169 0
M  V30 9108 H 876.373 3.66349 0.135554 0
M  V30 9109 H 876.021 4.35765 2.51232 0
M  V30 9110 H 875.721 5.709 1.39094 0
M  V30 9111 H 877.245 5.64753 2.32134 0
M  V30 9112 H 878.659 5.73277 0.0515064 0
M  V30 9113 H 877.056 5.95926 -0.706569 0
M  V30 9114 H 878.126 4.6733 -1.29345 0
M  V30 9115 N 879.47 0.276058 1.55163 0
M  V30 9116 C 880.881 -0.221516 1.85381 0
M  V30 9117 C 881.232 -1.55372 1.19808 0
M  V30 9118 O 880.357 -2.10855 0.486742 0
M  V30 9119 C 880.952 -0.408706 3.36326 0
M  V30 9120 C 879.511 -0.850512 3.66665 0
M  V30 9121 C 878.658 0.055656 2.77244 0
M  V30 9122 H 881.609 0.497819 1.5069 0
M  V30 9123 H 881.63 -1.24711 3.59482 0
M  V30 9124 H 881.142 0.561052 3.84023 0
M  V30 9125 H 879.243 -1.83171 3.24468 0
M  V30 9126 H 879.356 -0.687181 4.74146 0
M  V30 9127 H 877.72 -0.460819 2.50497 0
M  V30 9128 H 878.503 1.02131 3.27756 0
M  V30 9129 N 880.948 -1.576 0.00335426 0
M  V30 9130 C 881.878 -2.11668 -0.985839 0
M  V30 9131 C 882.859 -1.02661 -1.35627 0
M  V30 9132 O 884.044 -1.30361 -1.43943 0
M  V30 9133 C 881.174 -2.62273 -2.27662 0
M  V30 9134 C 880.128 -3.75837 -2.0477 0
M  V30 9135 C 879.454 -4.12769 -3.39891 0
M  V30 9136 C 880.754 -5.02975 -1.40759 0
M  V30 9137 H 882.448 -2.9457 -0.535637 0
M  V30 9138 H 879.994 -1.41702 -0.256204 0
M  V30 9139 H 881.947 -2.98727 -2.97221 0
M  V30 9140 H 880.671 -1.76498 -2.74802 0
M  V30 9141 H 879.33 -3.39782 -1.37636 0
M  V30 9142 H 878.978 -3.24013 -3.8474 0
M  V30 9143 H 878.678 -4.89281 -3.25389 0
M  V30 9144 H 880.202 -4.51784 -4.1076 0
M  V30 9145 H 881.616 -5.37179 -2.00279 0
M  V30 9146 H 880.013 -5.84315 -1.36734 0
M  V30 9147 H 881.083 -4.83431 -0.377218 0
M  V30 9148 N 882.426 0.269451 -1.5528 0
M  V30 9149 C 883.376 1.33553 -1.84791 0
M  V30 9150 C 884.36 1.44532 -0.707067 0
M  V30 9151 O 885.552 1.48153 -0.968493 0
M  V30 9152 C 882.681 2.69516 -2.12641 0
M  V30 9153 C 881.767 2.62633 -3.32993 0
M  V30 9154 N 882.158 2.25371 -4.52815 0
M  V30 9155 C 880.456 2.93688 -3.35654 0
M  V30 9156 C 881.157 2.28567 -5.34913 0
M  V30 9157 N 880.133 2.67181 -4.73408 0
M  V30 9158 H 883.935 1.03758 -2.74976 0
M  V30 9159 H 881.449 0.478087 -1.55203 0
M  V30 9160 H 883.446 3.46424 -2.3194 0
M  V30 9161 H 882.106 3.00197 -1.23742 0
M  V30 9162 H 883.117 1.9729 -4.7885 0
M  V30 9163 H 879.794 3.29057 -2.56958 0
M  V30 9164 H 881.184 2.02289 -6.40725 0
M  V30 9165 N 883.904 1.48273 0.534124 0
M  V30 9166 C 884.854 1.58889 1.63519 0
M  V30 9167 C 885.838 0.44626 1.54588 0
M  V30 9168 O 887.03 0.697474 1.62679 0
M  V30 9169 C 884.159 1.62787 3.0225 0
M  V30 9170 C 883.245 2.82515 3.16301 0
M  V30 9171 N 883.636 4.06977 3.00338 0
M  V30 9172 C 881.934 2.7976 3.47347 0
M  V30 9173 C 882.635 4.87283 3.17694 0
M  V30 9174 N 881.611 4.20024 3.45081 0
M  V30 9175 H 885.413 2.52869 1.49781 0
M  V30 9176 H 882.927 1.44587 0.739479 0
M  V30 9177 H 884.924 1.68486 3.81337 0
M  V30 9178 H 883.584 0.699201 3.17082 0
M  V30 9179 H 884.595 4.37479 2.77186 0
M  V30 9180 H 881.272 1.96132 3.68563 0
M  V30 9181 H 882.662 5.96047 3.10126 0
M  V30 9182 N 885.382 -0.782676 1.36792 0
M  V30 9183 C 886.793 -1.35828 1.28092 0
M  V30 9184 C 887.144 -1.96052 -0.076315 0
M  V30 9185 O 886.269 -1.93042 -0.977935 0
M  V30 9186 C 886.864 -2.46949 2.31952 0
M  V30 9187 C 885.423 -3.00307 2.2692 0
M  V30 9188 C 884.57 -1.73436 2.16368 0
M  V30 9189 H 887.521 -0.583788 1.47572 0
M  V30 9190 H 887.542 -3.26144 1.95986 0
M  V30 9191 H 887.054 -2.03087 3.30722 0
M  V30 9192 H 885.155 -3.48571 1.31639 0
M  V30 9193 H 885.268 -3.56663 3.19887 0
M  V30 9194 H 883.632 -1.95934 1.62733 0
M  V30 9195 H 884.415 -1.31693 3.17036 0
M  V30 9196 N 886.86 -1.21182 -1.00761 0
M  V30 9197 C 888.271 -1.02652 -1.55947 0
M  V30 9198 C 888.622 0.414466 -1.91772 0
M  V30 9199 O 887.747 1.29727 -1.73204 0
M  V30 9200 C 888.342 -1.85713 -2.83366 0
M  V30 9201 C 886.901 -1.71523 -3.35048 0
M  V30 9202 C 886.048 -1.83087 -2.08265 0
M  V30 9203 H 888.999 -1.35242 -0.830379 0
M  V30 9204 H 889.02 -1.36583 -3.55141 0
M  V30 9205 H 888.532 -2.90584 -2.5726 0
M  V30 9206 H 886.633 -0.693257 -3.66094 0
M  V30 9207 H 886.746 -2.53333 -4.06644 0
M  V30 9208 H 885.11 -1.26367 -2.21141 0
M  V30 9209 H 885.893 -2.8946 -1.84575 0
M  V30 9210 N 888.338 1.20213 -1.01915 0
M  V30 9211 C 889.586 1.89272 -0.708552 0
M  V30 9212 C 889.907 1.79394 0.76438 0
M  V30 9213 O 889.177 1.198 1.54999 0
M  V30 9214 H 887.757 0.700628 -0.259094 0
M  V30 9215 H 890.419 1.45985 -1.29129 0
M  V30 9216 H 889.515 2.95841 -0.994215 0
M  V30 9217 N 889.816 0.795718 1.36037 0
M  V30 9218 C 890.763 0.196548 2.29962 0
M  V30 9219 C 891.733 -0.663213 1.52285 0
M  V30 9220 O 892.918 -0.610574 1.80767 0
M  V30 9221 C 890.058 -0.657639 3.38776 0
M  V30 9222 C 889.171 0.221358 4.31433 0
M  V30 9223 C 888.306 -0.6398 5.27333 0
M  V30 9224 C 887.345 0.240265 6.11628 0
M  V30 9225 N 886.482 -0.580237 6.99698 0
M  V30 9226 H 891.322 1.00295 2.80615 0
M  V30 9227 H 888.859 0.506147 1.38118 0
M  V30 9228 H 890.817 -1.16793 4.00519 0
M  V30 9229 H 889.447 -1.42941 2.89426 0
M  V30 9230 H 888.499 0.84967 3.70789 0
M  V30 9231 H 889.811 0.899195 4.90628 0
M  V30 9232 H 888.965 -1.21566 5.94396 0
M  V30 9233 H 887.704 -1.35124 4.68607 0
M  V30 9234 H 886.709 0.828474 5.43522 0
M  V30 9235 H 887.934 0.949403 6.72431 0
M  V30 9236 H 885.88 -1.27585 6.43473 0
M  V30 9237 H 885.797 0.0397853 7.5599 0
M  V30 9238 H 887.065 -1.13972 7.71123 0
M  V30 9239 N 891.294 -1.47756 0.548274 0
M  V30 9240 C 892.224 -2.32702 -0.19284 0
M  V30 9241 C 893.205 -1.43237 -0.917457 0
M  V30 9242 O 894.39 -1.72103 -0.89967 0
M  V30 9243 C 891.52 -3.24831 -1.22891 0
M  V30 9244 C 890.474 -4.23466 -0.621312 0
M  V30 9245 C 889.8 -5.04856 -1.76137 0
M  V30 9246 C 891.1 -5.20616 0.419055 0
M  V30 9247 H 892.794 -2.94914 0.516323 0
M  V30 9248 H 890.34 -1.41818 0.24975 0
M  V30 9249 H 892.293 -3.83094 -1.75547 0
M  V30 9250 H 891.017 -2.60656 -1.9679 0
M  V30 9251 H 889.676 -3.66416 -0.116123 0
M  V30 9252 H 889.324 -4.37091 -2.48918 0
M  V30 9253 H 889.024 -5.71629 -1.36065 0
M  V30 9254 H 890.548 -5.65976 -2.29136 0
M  V30 9255 H 891.962 -5.73296 -0.0211034 0
M  V30 9256 H 890.359 -5.95543 0.738163 0
M  V30 9257 H 891.429 -4.66638 1.31822 0
M  V30 9258 N 892.772 -0.284283 -1.55015 0
M  V30 9259 C 894.183 0.211681 -1.85496 0
M  V30 9260 C 894.534 1.54735 -1.2063 0
M  V30 9261 O 893.659 2.10594 -0.497918 0
M  V30 9262 C 894.254 0.390864 -3.36538 0
M  V30 9263 C 892.813 0.831055 -3.67111 0
M  V30 9264 C 891.96 -0.0703581 -2.77211 0
M  V30 9265 H 894.911 -0.505803 -1.50424 0
M  V30 9266 H 894.932 1.22803 -3.60138 0
M  V30 9267 H 894.444 -0.581409 -3.8372 0
M  V30 9268 H 892.545 1.81447 -3.25434 0
M  V30 9269 H 892.658 0.662026 -4.74504 0
M  V30 9270 H 891.022 0.447528 -2.50737 0
M  V30 9271 H 891.805 -1.03868 -3.2721 0
M  V30 9272 N 894.251 1.57596 -0.0117121 0
M  V30 9273 C 895.161 2.12596 0.991964 0
M  V30 9274 C 896.177 1.07399 1.36899 0
M  V30 9275 O 897.353 1.39365 1.45394 0
M  V30 9276 C 894.418 2.62796 2.2614 0
M  V30 9277 C 893.479 3.8264 1.94642 0
M  V30 9278 C 892.712 4.30435 3.15533 0
M  V30 9279 O 892.935 3.77495 4.27614 0
M  V30 9280 O 891.869 5.22469 2.98847 0
M  V30 9281 H 895.695 2.98597 0.554371 0
M  V30 9282 H 893.28 1.47947 0.207839 0
M  V30 9283 H 895.162 2.9523 3.00695 0
M  V30 9284 H 893.837 1.79886 2.69114 0
M  V30 9285 H 892.744 3.5516 1.17526 0
M  V30 9286 H 894.077 4.66658 1.56496 0
M  V30 9287 N 895.729 -0.261212 1.5542 0
M  V30 9288 C 897.14 -0.83138 1.67167 0
M  V30 9289 C 897.491 -1.8659 0.606525 0
M  V30 9290 O 896.616 -2.14953 -0.24985 0
M  V30 9291 C 897.211 -1.51475 3.03052 0
M  V30 9292 C 895.77 -2.0328 3.16787 0
M  V30 9293 C 894.917 -0.878903 2.63003 0
M  V30 9294 H 897.868 -0.0373102 1.58656 0
M  V30 9295 H 897.889 -2.38222 2.96699 0
M  V30 9296 H 897.401 -0.76157 3.80554 0
M  V30 9297 H 895.502 -2.81523 2.44082 0
M  V30 9298 H 895.615 -2.24001 4.2351 0
M  V30 9299 H 893.979 -1.27551 2.2046 0
M  V30 9300 H 894.762 -0.13904 3.43018 0
M  V30 9301 N 897.207 -1.48554 -0.526253 0
M  V30 9302 C 898.139 -1.59446 -1.6465 0
M  V30 9303 C 899.152 -0.478525 -1.55608 0
M  V30 9304 O 900.341 -0.74953 -1.62001 0
M  V30 9305 C 897.441 -1.51164 -3.03319 0
M  V30 9306 C 896.614 -2.77861 -3.37805 0
M  V30 9307 C 895.673 -2.62982 -4.5577 0
M  V30 9308 O 894.699 -3.36876 -4.58806 0
M  V30 9309 N 895.901 -1.72847 -5.5417 0
M  V30 9310 H 898.666 -2.56055 -1.55743 0
M  V30 9311 H 896.227 -1.45325 -0.713606 0
M  V30 9312 H 898.219 -1.389 -3.80117 0
M  V30 9313 H 896.789 -0.625147 -3.06285 0
M  V30 9314 H 896.009 -3.04663 -2.50149 0
M  V30 9315 H 897.297 -3.61908 -3.57632 0
M  V30 9316 H 896.695 -1.12022 -5.54498 0
M  V30 9317 H 895.252 -1.6652 -6.3017 0
M  V30 9318 N 898.685 0.775411 -1.37205 0
M  V30 9319 C 899.932 1.53384 -1.32211 0
M  V30 9320 C 900.26 1.9427 0.0944958 0
M  V30 9321 O 899.515 1.64059 1.06692 0
M  V30 9322 C 899.814 2.81377 -2.20367 0
M  V30 9323 C 899.48 2.59561 -3.68699 0
M  V30 9324 C 898.142 2.53319 -4.09124 0
M  V30 9325 C 900.494 2.39939 -4.62686 0
M  V30 9326 C 897.822 2.25442 -5.41658 0
M  V30 9327 C 900.174 2.13586 -5.95453 0
M  V30 9328 C 898.838 2.05786 -6.34987 0
M  V30 9329 H 898.108 0.561271 -0.483793 0
M  V30 9330 H 900.755 0.893466 -1.6938 0
M  V30 9331 H 899.06 3.49954 -1.76181 0
M  V30 9332 H 900.757 3.39238 -2.13819 0
M  V30 9333 H 897.347 2.6528 -3.36637 0
M  V30 9334 H 901.531 2.43753 -4.32317 0
M  V30 9335 H 896.787 2.17896 -5.71254 0
M  V30 9336 H 900.961 1.97401 -6.67837 0
M  V30 9337 H 898.588 1.83948 -7.37609 0
M  V30 9338 N 900.163 1.21714 1.00117 0
M  V30 9339 C 901.393 1.06124 1.77261 0
M  V30 9340 C 901.801 -0.391717 1.85101 0
M  V30 9341 O 901.144 -1.28347 1.31426 0
M  V30 9342 C 901.206 1.58778 3.22536 0
M  V30 9343 C 900.87 3.07289 3.38264 0
M  V30 9344 C 901.867 4.04801 3.26239 0
M  V30 9345 C 899.552 3.46574 3.63582 0
M  V30 9346 C 901.546 5.39585 3.39303 0
M  V30 9347 C 899.233 4.81509 3.76288 0
M  V30 9348 C 900.231 5.77824 3.64155 0
M  V30 9349 O 899.919 7.1031 3.7645 0
M  V30 9350 H 899.651 0.372979 0.563793 0
M  V30 9351 H 902.205 1.61589 1.26799 0
M  V30 9352 H 900.435 0.977129 3.74151 0
M  V30 9353 H 902.124 1.38974 3.81367 0
M  V30 9354 H 902.89 3.75795 3.066 0
M  V30 9355 H 898.769 2.72137 3.72106 0
M  V30 9356 H 902.313 6.14744 3.2975 0
M  V30 9357 H 898.21 5.102 3.95432 0
M  V30 9358 H 898.978 7.17774 3.93374 0
M  V30 9359 N 901.641 -1.19671 1.02551 0
M  V30 9360 C 902.604 -2.20987 0.608055 0
M  V30 9361 C 903.604 -1.5745 -0.326534 0
M  V30 9362 O 904.794 -1.73827 -0.114003 0
M  V30 9363 C 901.926 -3.4072 -0.11074 0
M  V30 9364 H 903.119 -2.59434 1.50446 0
M  V30 9365 H 900.672 -1.3329 0.816307 0
M  V30 9366 H 901.407 -3.07787 -1.02165 0
M  V30 9367 H 901.192 -3.88069 0.560772 0
M  V30 9368 H 902.682 -4.15776 -0.389848 0
M  V30 9369 N 903.119 -0.802921 -1.35613 0
M  V30 9370 C 904.029 -0.212177 -2.33639 0
M  V30 9371 C 905.045 0.642871 -1.61689 0
M  V30 9372 O 906.221 0.555485 -1.93588 0
M  V30 9373 C 903.286 0.632406 -3.40883 0
M  V30 9374 C 902.347 -0.242708 -4.28613 0
M  V30 9375 C 901.58 0.56166 -5.30736 0
M  V30 9376 O 901.803 1.79664 -5.41366 0
M  V30 9377 O 900.737 -0.0455387 -6.01883 0
M  V30 9378 H 904.563 -1.023 -2.85952 0
M  V30 9379 H 902.148 -0.564636 -1.38319 0
M  V30 9380 H 904.03 1.11358 -4.0642 0
M  V30 9381 H 902.705 1.42089 -2.90848 0
M  V30 9382 H 901.612 -0.77094 -3.6607 0
M  V30 9383 H 902.945 -0.995046 -4.82037 0
M  V30 9384 N 904.597 1.47463 -0.556102 0
M  V30 9385 C 906.008 1.86298 -0.122429 0
M  V30 9386 C 906.359 1.46285 1.30749 0
M  V30 9387 O 905.484 0.865405 1.98342 0
M  V30 9388 C 906.079 3.38115 -0.215407 0
M  V30 9389 C 904.638 3.76046 0.163223 0
M  V30 9390 C 903.785 2.71515 -0.563466 0
M  V30 9391 H 906.736 1.38996 -0.765888 0
M  V30 9392 H 906.757 3.76263 0.566271 0
M  V30 9393 H 906.269 3.67207 -1.25622 0
M  V30 9394 H 904.37 3.5257 1.20519 0
M  V30 9395 H 904.483 4.78705 -0.194568 0
M  V30 9396 H 902.847 2.54699 -0.00667879 0
M  V30 9397 H 903.63 3.03449 -1.60542 0
M  V30 9398 N 906.075 0.2925 1.54862 0
M  V30 9399 C 907.025 -0.60226 2.19902 0
M  V30 9400 C 908.009 -1.10535 1.16923 0
M  V30 9401 O 909.201 -1.04753 1.42674 0
M  V30 9402 C 906.33 -1.77774 2.93686 0
M  V30 9403 C 905.416 -1.29101 4.03972 0
M  V30 9404 N 905.807 -0.521671 5.03103 0
M  V30 9405 C 904.105 -1.57248 4.17359 0
M  V30 9406 C 904.806 -0.263545 5.81103 0
M  V30 9407 N 903.782 -0.840937 5.37056 0
M  V30 9408 H 907.584 -0.00682274 2.93899 0
M  V30 9409 H 905.098 0.0968604 1.62111 0
M  V30 9410 H 907.095 -2.43021 3.38743 0
M  V30 9411 H 905.755 -2.37696 2.21203 0
M  V30 9412 H 906.766 -0.167364 5.1763 0
M  V30 9413 H 903.443 -2.1798 3.56077 0
M  V30 9414 H 904.833 0.353783 6.70968 0
M  V30 9415 N 907.553 -1.57587 0.0200696 0
M  V30 9416 C 908.781 -1.95718 -0.670964 0
M  V30 9417 C 909.196 -0.896081 -1.6618 0
M  V30 9418 O 908.553 0.123037 -1.82085 0
M  V30 9419 C 908.604 -3.33904 -1.38529 0
M  V30 9420 O 908.325 -4.35943 -0.434167 0
M  V30 9421 C 909.826 -3.86614 -2.16898 0
M  V30 9422 H 907.046 -0.644819 -0.185606 0
M  V30 9423 H 909.59 -2.04354 0.0771495 0
M  V30 9424 H 907.745 -3.26515 -2.08487 0
M  V30 9425 H 908.159 -5.16001 -0.940378 0
M  V30 9426 H 909.633 -4.85673 -2.62346 0
M  V30 9427 H 910.11 -3.20379 -3.00423 0
M  V30 9428 H 910.716 -3.97243 -1.51916 0
M  V30 9429 N 909.032 0.252966 -1.55557 0
M  V30 9430 C 910.262 0.998115 -1.8089 0
M  V30 9431 C 910.67 1.79679 -0.592623 0
M  V30 9432 O 910.013 1.78151 0.448093 0
M  V30 9433 C 910.075 1.98878 -2.99479 0
M  V30 9434 C 909.739 1.37761 -4.35742 0
M  V30 9435 C 910.736 0.783142 -5.13968 0
M  V30 9436 C 908.421 1.39879 -4.8243 0
M  V30 9437 C 910.415 0.218004 -6.37027 0
M  V30 9438 C 908.102 0.829801 -6.0544 0
M  V30 9439 C 909.1 0.240426 -6.82577 0
M  V30 9440 O 908.788 -0.319797 -8.03264 0
M  V30 9441 H 908.52 0.29963 -0.605969 0
M  V30 9442 H 911.074 0.282978 -2.03441 0
M  V30 9443 H 909.304 2.74206 -2.72669 0
M  V30 9444 H 910.993 2.59686 -3.11959 0
M  V30 9445 H 911.759 0.759326 -4.79019 0
M  V30 9446 H 907.638 1.84692 -4.22386 0
M  V30 9447 H 911.182 -0.242654 -6.97178 0
M  V30 9448 H 907.079 0.850924 -6.39867 0
M  V30 9449 H 907.847 -0.211078 -8.18228 0
M  V30 9450 N 910.51 1.48831 0.518367 0
M  V30 9451 C 911.42 1.6692 1.64848 0
M  V30 9452 C 912.436 0.551711 1.65022 0
M  V30 9453 O 913.612 0.824251 1.83761 0
M  V30 9454 C 910.677 1.71559 3.01278 0
M  V30 9455 C 909.738 2.9502 3.11868 0
M  V30 9456 C 908.971 2.99428 4.4179 0
M  V30 9457 O 909.194 2.11914 5.29574 0
M  V30 9458 O 908.128 3.91719 4.5699 0
M  V30 9459 H 911.954 2.62623 1.52521 0
M  V30 9460 H 909.539 1.32368 0.692749 0
M  V30 9461 H 911.421 1.77064 3.82396 0
M  V30 9462 H 910.096 0.790316 3.13904 0
M  V30 9463 H 909.003 2.95042 2.30003 0
M  V30 9464 H 910.336 3.8697 3.04163 0
M  V30 9465 N 911.988 -0.768124 1.37614 0
M  V30 9466 C 912.898 -1.91249 1.35871 0
M  V30 9467 C 913.914 -1.7208 0.257786 0
M  V30 9468 O 915.09 -1.95253 0.493782 0
M  V30 9469 C 912.155 -3.26423 1.16829 0
M  V30 9470 C 911.216 -3.5822 2.36594 0
M  V30 9471 C 910.449 -4.86945 2.1845 0
M  V30 9472 O 910.672 -5.58258 1.17064 0
M  V30 9473 O 909.606 -5.17888 3.06718 0
M  V30 9474 H 913.432 -1.95671 2.32264 0
M  V30 9475 H 911.017 -0.911382 1.18382 0
M  V30 9476 H 912.899 -4.07269 1.08212 0
M  V30 9477 H 911.574 -3.22845 0.235123 0
M  V30 9478 H 910.481 -2.77594 2.50783 0
M  V30 9479 H 911.814 -3.66545 3.2849 0
M  V30 9480 N 913.466 -1.22244 -0.994698 0
M  V30 9481 C 914.877 -1.043 -1.5485 0
M  V30 9482 C 915.228 0.394102 -1.92201 0
M  V30 9483 O 914.353 1.27883 -1.74571 0
M  V30 9484 C 914.948 -1.88708 -2.8138 0
M  V30 9485 C 913.507 -1.75067 -3.3321 0
M  V30 9486 C 912.654 -1.85286 -2.06312 0
M  V30 9487 H 915.605 -1.36115 -0.815988 0
M  V30 9488 H 915.626 -1.40342 -3.53673 0
M  V30 9489 H 915.138 -2.93296 -2.54164 0
M  V30 9490 H 913.239 -0.732047 -3.65338 0
M  V30 9491 H 913.352 -2.57632 -4.03934 0
M  V30 9492 H 911.716 -1.28706 -2.19788 0
M  V30 9493 H 912.499 -2.91401 -1.81494 0
M  V30 9494 N 914.944 1.19125 -1.03184 0
M  V30 9495 C 916.192 1.8851 -0.728587 0
M  V30 9496 C 916.513 1.80195 0.74531 0
M  V30 9497 O 915.783 1.21437 1.5372 0
M  V30 9498 H 914.363 0.69784 -0.266511 0
M  V30 9499 H 917.025 1.44607 -1.3067 0
M  V30 9500 H 916.121 2.9477 -1.02554 0
M  V30 9501 N 916.422 0.810101 1.35185 0
M  V30 9502 C 917.838 0.494269 1.51754 0
M  V30 9503 C 918.038 -0.983907 1.75845 0
M  V30 9504 O 917.094 -1.76882 1.80191 0
M  V30 9505 C 918.407 1.34268 2.69059 0
M  V30 9506 C 919.955 1.33848 2.82938 0
M  V30 9507 C 920.43 2.17109 4.03271 0
M  V30 9508 N 921.921 2.14664 4.10456 0
M  V30 9509 C 922.656 2.75843 5.02691 0
M  V30 9510 N 922.152 3.45962 6.00235 0
M  V30 9511 N 923.945 2.65465 4.95464 0
M  V30 9512 H 916.096 1.76736 1.17805 0
M  V30 9513 H 918.359 0.752429 0.576676 0
M  V30 9514 H 918.065 2.39183 2.57845 0
M  V30 9515 H 917.939 0.998362 3.63748 0
M  V30 9516 H 920.326 0.29716 2.936 0
M  V30 9517 H 920.407 1.72269 1.89095 0
M  V30 9518 H 920.051 3.21283 3.93369 0
M  V30 9519 H 919.981 1.76046 4.96302 0
M  V30 9520 H 922.472 1.63648 3.40628 0
M  V30 9521 H 922.785 3.89922 6.67219 0
M  V30 9522 H 921.13 3.50067 6.00398 0
M  V30 9523 H 924.321 2.1027 4.18215 0
M  V30 9524 H 924.494 3.13433 5.67154 0
M  V30 9525 N 917.9 -1.47166 0.563914 0
M  V30 9526 C 918.863 -2.28571 -0.169624 0
M  V30 9527 C 919.863 -1.37331 -0.836467 0
M  V30 9528 O 921.053 -1.59896 -0.6913 0
M  V30 9529 C 918.185 -3.17201 -1.24886 0
M  V30 9530 H 919.378 -2.94896 0.545539 0
M  V30 9531 H 916.931 -1.52966 0.321121 0
M  V30 9532 H 917.666 -2.55582 -1.99621 0
M  V30 9533 H 917.451 -3.84356 -0.775426 0
M  V30 9534 H 918.941 -3.7852 -1.76388 0
M  V30 9535 N 919.378 -0.300708 -1.54705 0
M  V30 9536 C 920.626 0.308044 -1.99739 0
M  V30 9537 C 920.947 1.54433 -1.19061 0
M  V30 9538 O 920.217 1.93794 -0.286507 0
M  V30 9539 H 918.797 0.116811 -0.73781 0
M  V30 9540 H 921.459 -0.41197 -1.90496 0
M  V30 9541 H 920.555 0.580287 -3.06658 0
M  V30 9542 N 920.856 1.57574 -0.0284266 0
M  V30 9543 C 922.272 1.56194 0.327958 0
M  V30 9544 C 922.472 1.03397 1.72949 0
M  V30 9545 O 921.528 0.680392 2.4316 0
M  V30 9546 C 922.841 3.00177 0.177196 0
M  V30 9547 C 924.389 3.12 0.250014 0
M  V30 9548 C 924.864 4.57821 0.128049 0
M  V30 9549 N 926.355 4.6283 0.185054 0
M  V30 9550 C 927.09 5.73286 0.114454 0
M  V30 9551 N 926.586 6.928 -0.00719225 0
M  V30 9552 N 928.379 5.61848 0.16839 0
M  V30 9553 H 920.53 1.90224 -0.944921 0
M  V30 9554 H 922.793 0.874987 -0.364832 0
M  V30 9555 H 922.499 3.42753 -0.788224 0
M  V30 9556 H 922.373 3.65101 0.94768 0
M  V30 9557 H 924.76 2.69337 1.20589 0
M  V30 9558 H 924.841 2.49799 -0.550835 0
M  V30 9559 H 924.485 5.01165 -0.824407 0
M  V30 9560 H 924.415 5.18001 0.947753 0
M  V30 9561 H 926.906 3.76867 0.279247 0
M  V30 9562 H 927.219 7.72781 -0.0543903 0
M  V30 9563 H 925.564 6.94987 -0.0419648 0
M  V30 9564 H 928.755 4.67367 0.261821 0
M  V30 9565 H 928.928 6.47907 0.109908 0
M  V30 9566 N 922.334 -0.244713 1.55689 0
M  V30 9567 C 923.559 -0.994157 1.8202 0
M  V30 9568 C 923.984 -1.78079 0.60577 0
M  V30 9569 O 923.342 -1.75748 -0.445221 0
M  V30 9570 C 923.39 -1.90599 3.06111 0
M  V30 9571 O 922.494 -2.99804 2.8318 0
M  V30 9572 H 921.835 -0.282767 0.600782 0
M  V30 9573 H 924.365 -0.26504 2.02876 0
M  V30 9574 H 924.375 -2.32023 3.35603 0
M  V30 9575 H 923.05 -1.32763 3.9414 0
M  V30 9576 H 921.627 -2.62493 2.64862 0
M  V30 9577 N 923.813 -1.49104 -0.510467 0
M  V30 9578 C 925.06 -1.58112 -1.26518 0
M  V30 9579 C 925.388 -0.263603 -1.92705 0
M  V30 9580 O 924.643 0.747743 -1.80852 0
M  V30 9581 C 924.942 -2.68259 -2.36161 0
M  V30 9582 C 924.608 -4.10069 -1.87495 0
M  V30 9583 C 923.27 -4.48662 -1.73942 0
M  V30 9584 C 925.622 -4.98859 -1.5096 0
M  V30 9585 C 922.95 -5.73829 -1.22217 0
M  V30 9586 C 925.302 -6.24535 -1.00691 0
M  V30 9587 C 923.966 -6.61967 -0.857691 0
M  V30 9588 H 923.236 -0.578574 -0.462962 0
M  V30 9589 H 925.883 -1.82899 -0.567475 0
M  V30 9590 H 924.188 -2.37407 -3.11681 0
M  V30 9591 H 925.885 -2.7244 -2.9424 0
M  V30 9592 H 922.475 -3.79601 -1.99001 0
M  V30 9593 H 926.659 -4.69706 -1.60282 0
M  V30 9594 H 921.915 -6.01539 -1.09368 0
M  V30 9595 H 926.089 -6.9272 -0.71498 0
M  V30 9596 H 923.716 -7.58839 -0.454702 0
M  V30 9597 N 925.291 0.760815 -1.38019 0
M  V30 9598 C 926.519 1.55001 -1.37048 0
M  V30 9599 C 926.934 1.88754 0.0415261 0
M  V30 9600 O 926.291 1.52254 1.00624 0
M  V30 9601 C 926.342 2.8536 -2.21928 0
M  V30 9602 O 926.063 2.53049 -3.57628 0
M  V30 9603 C 927.564 3.79536 -2.29057 0
M  V30 9604 H 924.784 0.479844 -0.469032 0
M  V30 9605 H 927.328 0.942148 -1.81504 0
M  V30 9606 H 925.483 3.42542 -1.80953 0
M  V30 9607 H 925.897 3.36604 -4.02241 0
M  V30 9608 H 927.371 4.67977 -2.92749 0
M  V30 9609 H 927.848 4.19453 -1.30213 0
M  V30 9610 H 928.454 3.28281 -2.70392 0
M  V30 9611 N 926.769 1.22769 0.988202 0
M  V30 9612 C 928.185 0.988665 1.2529 0
M  V30 9613 C 928.385 -0.314938 1.99024 0
M  V30 9614 O 927.441 -1.03637 2.30251 0
M  V30 9615 C 928.754 2.19046 2.06009 0
M  V30 9616 C 930.302 2.23452 2.19176 0
M  V30 9617 C 930.777 3.43196 3.03283 0
M  V30 9618 N 932.268 3.43387 3.10869 0
M  V30 9619 C 933.003 4.32693 3.7625 0
M  V30 9620 N 932.499 5.32224 4.43519 0
M  V30 9621 N 934.292 4.20457 3.73058 0
M  V30 9622 H 926.443 2.06575 0.494014 0
M  V30 9623 H 928.706 0.905452 0.28082 0
M  V30 9624 H 928.412 3.13607 1.59197 0
M  V30 9625 H 928.286 2.19492 3.06763 0
M  V30 9626 H 930.673 1.29436 2.65199 0
M  V30 9627 H 930.754 2.27042 1.17836 0
M  V30 9628 H 930.398 4.37515 2.57959 0
M  V30 9629 H 930.328 3.36847 4.04774 0
M  V30 9630 H 932.819 2.71368 2.62998 0
M  V30 9631 H 933.132 5.9664 4.91163 0
M  V30 9632 H 931.477 5.36133 4.42252 0
M  V30 9633 H 934.668 3.41949 3.19669 0
M  V30 9634 H 934.841 4.90261 4.23731 0
M  V30 9635 N 928.247 -1.18576 1.03814 0
M  V30 9636 C 929.157 -2.25778 0.637311 0
M  V30 9637 C 930.173 -1.7074 -0.335248 0
M  V30 9638 O 931.349 -2.00494 -0.19081 0
M  V30 9639 C 928.414 -3.467 0.00386953 0
M  V30 9640 C 927.475 -4.16881 1.02511 0
M  V30 9641 C 926.708 -5.32031 0.421802 0
M  V30 9642 O 926.931 -5.65142 -0.772699 0
M  V30 9643 O 925.865 -5.90826 1.14925 0
M  V30 9644 H 929.691 -2.62323 1.53037 0
M  V30 9645 H 927.276 -1.25609 0.80887 0
M  V30 9646 H 929.158 -4.19953 -0.348873 0
M  V30 9647 H 927.833 -3.11983 -0.863047 0
M  V30 9648 H 926.74 -3.45707 1.4296 0
M  V30 9649 H 928.073 -4.55592 1.86271 0
M  V30 9650 N 929.725 -0.817259 -1.34754 0
M  V30 9651 C 930.974 -0.39908 -1.97713 0
M  V30 9652 C 931.287 1.04203 -1.65533 0
M  V30 9653 O 932.493 1.56384 -2.21937 0
M  V30 9654 C 930.949 -0.662634 -3.53747 0
M  V30 9655 C 930.557 -2.11699 -3.94826 0
M  V30 9656 C 932.301 -0.31034 -4.23364 0
M  V30 9657 C 930.208 -2.32573 -5.4375 0
M  V30 9658 H 929.138 -0.145488 -0.739831 0
M  V30 9659 H 931.789 -1.00282 -1.53674 0
M  V30 9660 H 930.171 0.0111972 -3.95998 0
M  V30 9661 H 931.345 -2.82951 -3.63697 0
M  V30 9662 H 929.66 -2.43017 -3.3813 0
M  V30 9663 H 932.257 -0.44421 -5.32852 0
M  V30 9664 H 932.6 0.744594 -4.09587 0
M  V30 9665 H 933.133 -0.938518 -3.8657 0
M  V30 9666 H 929.872 -3.36551 -5.62507 0
M  V30 9667 H 929.392 -1.65858 -5.76412 0
M  V30 9668 H 931.071 -2.14651 -6.10356 0
M  V30 9669 N 931.203 1.46865 -0.571711 0
M  V30 9670 C 932.113 2.33979 0.170571 0
M  V30 9671 C 933.129 1.49083 0.897239 0
M  V30 9672 O 934.305 1.81979 0.862888 0
M  V30 9673 C 931.37 3.26063 1.17831 0
M  V30 9674 C 930.431 4.26855 0.457499 0
M  V30 9675 C 929.664 5.14539 1.41722 0
M  V30 9676 O 929.887 5.04945 2.65305 0
M  V30 9677 O 928.821 5.94612 0.9338 0
M  V30 9678 H 932.647 2.98781 -0.544396 0
M  V30 9679 H 930.232 1.4566 -0.332198 0
M  V30 9680 H 932.114 3.82903 1.75965 0
M  V30 9681 H 930.789 2.63871 1.87493 0
M  V30 9682 H 929.696 3.73734 -0.165406 0
M  V30 9683 H 931.029 4.91802 -0.197953 0
M  V30 9684 N 932.681 0.308908 1.54543 0
M  V30 9685 C 933.644 -0.550857 2.22482 0
M  V30 9686 C 934.644 -1.0551 1.21344 0
M  V30 9687 O 935.834 -0.949866 1.46025 0
M  V30 9688 C 932.966 -1.76354 2.9174 0
M  V30 9689 H 934.159 0.0428395 2.99869 0
M  V30 9690 H 931.712 0.059825 1.56185 0
M  V30 9691 H 932.447 -2.39686 2.18451 0
M  V30 9692 H 932.232 -1.40954 3.65889 0
M  V30 9693 H 933.722 -2.37417 3.43545 0
M  V30 9694 N 934.159 -1.57557 0.0367827 0
M  V30 9695 C 935.384 -1.96828 -0.653707 0
M  V30 9696 C 935.809 -0.913559 -1.64425 0
M  V30 9697 O 935.167 0.124749 -1.8087 0
M  V30 9698 C 935.215 -3.35189 -1.32969 0
M  V30 9699 O 934.319 -3.32095 -2.44513 0
M  V30 9700 H 933.66 -0.64157 -0.171124 0
M  V30 9701 H 936.19 -2.04351 0.100912 0
M  V30 9702 H 936.2 -3.71593 -1.68472 0
M  V30 9703 H 934.875 -4.11496 -0.603654 0
M  V30 9704 H 933.452 -3.07418 -2.11065 0
M  V30 9705 N 935.637 0.236453 -1.55816 0
M  V30 9706 C 937.053 0.585465 -1.48474 0
M  V30 9707 C 937.253 1.8785 -0.72902 0
M  V30 9708 O 936.309 2.51131 -0.262614 0
M  V30 9709 C 937.622 0.678506 -2.92945 0
M  V30 9710 C 939.17 0.770135 -3.03378 0
M  V30 9711 C 939.645 0.894649 -4.49177 0
M  V30 9712 N 941.136 0.959253 -4.53158 0
M  V30 9713 C 941.871 1.07505 -5.63232 0
M  V30 9714 N 941.367 1.15572 -6.83092 0
M  V30 9715 N 943.16 1.10902 -5.51051 0
M  V30 9716 H 935.311 -0.612241 -2.03385 0
M  V30 9717 H 937.574 -0.212796 -0.923808 0
M  V30 9718 H 937.28 -0.201757 -3.51121 0
M  V30 9719 H 937.154 1.54703 -3.44016 0
M  V30 9720 H 939.541 1.64085 -2.45276 0
M  V30 9721 H 939.622 -0.123753 -2.555 0
M  V30 9722 H 939.266 0.0284537 -5.07892 0
M  V30 9723 H 939.196 1.80373 -4.94745 0
M  V30 9724 H 941.687 0.907827 -3.66834 0
M  V30 9725 H 942 1.24343 -7.62731 0
M  V30 9726 H 940.345 1.12511 -6.85833 0
M  V30 9727 H 943.536 1.04255 -4.56343 0
M  V30 9728 H 943.709 1.19581 -6.36871 0
M  V30 9729 N 937.115 1.49373 0.502552 0
M  V30 9730 C 938.364 1.58028 1.25339 0
M  V30 9731 C 938.677 0.271494 1.93707 0
M  V30 9732 O 939.883 0.236584 2.70467 0
M  V30 9733 C 938.339 2.78817 2.27572 0
M  V30 9734 C 937.947 4.16448 1.65151 0
M  V30 9735 C 939.691 2.96802 3.03494 0
M  V30 9736 C 937.598 5.28461 2.65486 0
M  V30 9737 H 936.528 0.588396 0.471494 0
M  V30 9738 H 939.179 1.75756 0.52744 0
M  V30 9739 H 937.561 2.5458 3.03323 0
M  V30 9740 H 938.735 4.50816 0.954029 0
M  V30 9741 H 937.05 4.03809 1.01625 0
M  V30 9742 H 939.647 3.77656 3.78524 0
M  V30 9743 H 939.99 2.07303 3.61014 0
M  V30 9744 H 940.523 3.21071 2.34858 0
M  V30 9745 H 937.262 6.20015 2.12749 0
M  V30 9746 H 936.782 4.9855 3.33479 0
M  V30 9747 H 938.461 5.5773 3.27943 0
M  V30 9748 N 938.594 -0.753485 1.38421 0
M  V30 9749 C 939.544 -1.85788 1.32162 0
M  V30 9750 C 940.528 -1.59577 0.20588 0
M  V30 9751 O 941.72 -1.71396 0.44186 0
M  V30 9752 C 938.849 -3.23498 1.14909 0
M  V30 9753 C 937.935 -3.556 2.31105 0
M  V30 9754 N 938.326 -3.58759 3.56547 0
M  V30 9755 C 936.624 -3.85866 2.23659 0
M  V30 9756 C 937.325 -3.8813 4.33278 0
M  V30 9757 N 936.301 -4.04966 3.62635 0
M  V30 9758 H 940.103 -1.86509 2.27138 0
M  V30 9759 H 937.617 -0.950843 1.31654 0
M  V30 9760 H 939.614 -4.02531 1.08509 0
M  V30 9761 H 938.274 -3.24029 0.20866 0
M  V30 9762 H 939.285 -3.40517 3.90216 0
M  V30 9763 H 935.962 -3.94112 1.37776 0
M  V30 9764 H 937.352 -3.97197 5.41926 0
M  V30 9765 N 940.072 -1.23292 -0.981677 0
M  V30 9766 C 941.321 -1.05832 -1.71705 0
M  V30 9767 C 941.634 0.40514 -1.91358 0
M  V30 9768 O 942.84 0.699645 -2.6233 0
M  V30 9769 C 941.296 -1.84532 -3.08992 0
M  V30 9770 C 940.904 -3.35199 -2.9723 0
M  V30 9771 C 942.648 -1.75557 -3.86497 0
M  V30 9772 C 940.555 -4.06296 -4.29741 0
M  V30 9773 H 939.485 -0.39241 -0.64384 0
M  V30 9774 H 942.136 -1.47247 -1.09502 0
M  V30 9775 H 940.518 -1.35923 -3.71942 0
M  V30 9776 H 941.692 -3.91286 -2.43377 0
M  V30 9777 H 940.007 -3.44973 -2.332 0
M  V30 9778 H 942.604 -2.25989 -4.84596 0
M  V30 9779 H 942.947 -0.718101 -4.1006 0
M  V30 9780 H 943.48 -2.21771 -3.30246 0
M  V30 9781 H 940.219 -5.10344 -4.11375 0
M  V30 9782 H 939.739 -3.54997 -4.83464 0
M  V30 9783 H 941.418 -4.12519 -4.98434 0
M  V30 9784 N 941.55 1.18024 -1.04442 0
M  V30 9785 C 942.46 2.25436 -0.649276 0
M  V30 9786 C 943.476 1.70915 0.326189 0
M  V30 9787 O 944.652 2.00592 0.180174 0
M  V30 9788 C 941.717 3.46693 -0.0222558 0
M  V30 9789 C 940.778 4.16332 -1.0472 0
M  V30 9790 C 940.011 5.31799 -0.450011 0
M  V30 9791 O 940.234 5.65544 0.742717 0
M  V30 9792 O 939.168 5.90209 -1.18056 0
M  V30 9793 H 942.994 2.61508 -1.54426 0
M  V30 9794 H 940.579 1.25178 -0.81552 0
M  V30 9795 H 942.461 4.20132 0.326597 0
M  V30 9796 H 941.136 3.12436 0.84649 0
M  V30 9797 H 940.043 3.44944 -1.44792 0
M  V30 9798 H 941.376 4.54598 -1.88684 0
M  V30 9799 N 943.028 0.824394 1.34319 0
M  V30 9800 C 943.975 0.245282 2.29493 0
M  V30 9801 C 944.945 -0.630762 1.53657 0
M  V30 9802 O 946.13 -0.572094 1.82021 0
M  V30 9803 C 943.27 -0.585631 3.40095 0
M  V30 9804 C 942.383 0.312821 4.30866 0
M  V30 9805 C 941.518 -0.527801 5.28571 0
M  V30 9806 C 940.557 0.369946 6.10981 0
M  V30 9807 N 939.694 -0.43169 7.00772 0
M  V30 9808 H 944.534 1.06225 2.78425 0
M  V30 9809 H 942.071 0.53533 1.37013 0
M  V30 9810 H 944.029 -1.08271 4.02906 0
M  V30 9811 H 942.659 -1.3677 2.92393 0
M  V30 9812 H 941.711 0.928129 3.68904 0
M  V30 9813 H 943.023 1.00306 4.8861 0
M  V30 9814 H 942.177 -1.0893 5.96841 0
M  V30 9815 H 940.916 -1.25154 4.71368 0
M  V30 9816 H 939.921 0.943577 5.41643 0
M  V30 9817 H 941.146 1.09182 6.70266 0
M  V30 9818 H 939.092 -1.13908 6.46035 0
M  V30 9819 H 939.009 0.200133 7.55735 0
M  V30 9820 H 940.277 -0.975894 7.73367 0
M  V30 9821 N 944.506 -1.46559 0.579492 0
M  V30 9822 C 945.755 -2.01606 0.0615735 0
M  V30 9823 C 946.068 -1.45695 -1.30508 0
M  V30 9824 O 947.274 -1.92541 -1.91416 0
M  V30 9825 C 945.73 -3.59851 0.059496 0
M  V30 9826 C 945.338 -4.24757 1.42427 0
M  V30 9827 C 947.082 -4.22567 -0.404646 0
M  V30 9828 C 944.989 -5.75072 1.38009 0
M  V30 9829 H 943.919 -0.753754 0.0192491 0
M  V30 9830 H 946.57 -1.68326 0.73066 0
M  V30 9831 H 944.952 -3.90193 -0.675691 0
M  V30 9832 H 946.126 -4.06029 2.17893 0
M  V30 9833 H 944.441 -3.74121 1.82817 0
M  V30 9834 H 947.038 -5.32748 -0.456441 0
M  V30 9835 H 947.381 -3.91279 -1.42149 0
M  V30 9836 H 947.914 -3.96839 0.276376 0
M  V30 9837 H 944.653 -6.11014 2.37364 0
M  V30 9838 H 944.173 -5.96073 0.667583 0
M  V30 9839 H 945.852 -6.37724 1.09163 0
M  V30 9840 N 945.984 -0.3171 -1.54377 0
M  V30 9841 C 947.233 0.288271 -1.99629 0
M  V30 9842 C 947.546 1.53754 -1.2091 0
M  V30 9843 O 948.752 2.2185 -1.56508 0
M  V30 9844 C 947.208 0.564188 -3.5545 0
M  V30 9845 C 946.816 -0.667659 -4.42997 0
M  V30 9846 C 948.56 1.12987 -4.09187 0
M  V30 9847 C 946.467 -0.364003 -5.90279 0
M  V30 9848 H 945.397 0.111492 -0.745711 0
M  V30 9849 H 948.048 -0.428317 -1.78431 0
M  V30 9850 H 946.43 1.34079 -3.72611 0
M  V30 9851 H 947.604 -1.44335 -4.37612 0
M  V30 9852 H 945.919 -1.1531 -4.00116 0
M  V30 9853 H 948.516 1.37157 -5.1681 0
M  V30 9854 H 948.859 2.07722 -3.60773 0
M  V30 9855 H 949.392 0.414595 -3.95634 0
M  V30 9856 H 946.131 -1.28035 -6.42874 0
M  V30 9857 H 945.651 0.374102 -5.98632 0
M  V30 9858 H 947.33 0.0285433 -6.46994 0
M  V30 9859 N 947.462 1.57535 -0.0451378 0
M  V30 9860 C 948.71 1.92071 0.628743 0
M  V30 9861 C 949.031 0.923635 1.71738 0
M  V30 9862 O 948.301 -0.0324376 1.95873 0
M  V30 9863 H 946.881 0.708995 0.235233 0
M  V30 9864 H 949.543 1.9466 -0.0967177 0
M  V30 9865 H 948.639 2.9314 1.07123 0
M  V30 9866 N 948.94 -0.228186 1.55939 0
M  V30 9867 C 950.165 -0.974795 1.83064 0
M  V30 9868 C 950.59 -1.77426 0.624624 0
M  V30 9869 O 949.948 -1.76211 -0.426556 0
M  V30 9870 C 949.996 -1.87342 3.08116 0
M  V30 9871 O 949.1 -2.96784 2.86344 0
M  V30 9872 H 948.441 -0.276379 0.603747 0
M  V30 9873 H 950.971 -0.243507 2.03146 0
M  V30 9874 H 950.981 -2.28451 3.38045 0
M  V30 9875 H 949.656 -1.28575 3.95526 0
M  V30 9876 H 948.233 -2.59669 2.67631 0
M  V30 9877 N 950.418 -1.49637 -0.494624 0
M  V30 9878 C 951.666 -1.5913 -1.24587 0
M  V30 9879 C 951.987 -0.282828 -1.92938 0
M  V30 9880 O 951.257 0.69825 -1.83034 0
M  V30 9881 H 949.837 -0.586329 -0.462847 0
M  V30 9882 H 952.499 -1.86296 -0.572696 0
M  V30 9883 H 951.595 -2.3906 -2.00641 0
M  V30 9884 N 951.896 0.746133 -1.38819 0
M  V30 9885 C 953.173 1.49652 -1.25951 0
M  V30 9886 C 953.553 2.10663 0.135833 0
M  V30 9887 O 952.901 1.97682 1.14604 0
M  V30 9888 C 953.111 2.5569 -2.37537 0
M  V30 9889 C 954.459 3.22385 -2.76321 0
M  V30 9890 O 955.483 2.65998 -2.36904 0
M  V30 9891 O 954.342 4.2439 -3.44319 0
M  V30 9892 H 951.436 0.664019 -0.492958 0
M  V30 9893 H 953.982 0.780908 -1.50665 0
M  V30 9894 H 952.754 2.08908 -3.30867 0
M  V30 9895 H 952.377 3.34823 -2.14427 0
M  V30 9896 N 953.375 1.23811 0.975125 0
M  V30 9897 C 954.6 1.10109 1.75757 0
M  V30 9898 C 955.025 -0.342922 1.84948 0
M  V30 9899 O 954.383 -1.24814 1.31496 0
M  V30 9900 C 954.431 1.73724 3.15994 0
M  V30 9901 O 953.535 1.00297 4.00018 0
M  V30 9902 H 952.876 0.385627 0.540544 0
M  V30 9903 H 955.406 1.63971 1.22372 0
M  V30 9904 H 955.416 1.79178 3.6655 0
M  V30 9905 H 954.091 2.78794 3.0862 0
M  V30 9906 H 952.668 1.02575 3.58515 0
M  V30 9907 N 954.853 -1.17469 1.05066 0
M  V30 9908 C 956.101 -1.87327 0.758485 0
M  V30 9909 C 956.422 -1.81358 -0.716549 0
M  V30 9910 O 955.692 -1.23868 -1.51768 0
M  V30 9911 H 954.272 -0.693512 0.277579 0
M  V30 9912 H 956.934 -1.4251 1.32954 0
M  V30 9913 H 956.03 -2.93101 1.0723 0
M  V30 9914 N 956.331 -0.831506 -1.3388 0
M  V30 9915 C 957.241 -0.261688 -2.33136 0
M  V30 9916 C 958.257 0.608429 -1.63016 0
M  V30 9917 O 959.433 0.514297 -1.94723 0
M  V30 9918 C 956.498 0.559957 -3.42148 0
M  V30 9919 C 955.559 -0.333569 -4.28002 0
M  V30 9920 C 954.792 0.448956 -5.31808 0
M  V30 9921 O 955.015 1.6814 -5.45055 0
M  V30 9922 O 953.949 -0.173197 -6.01651 0
M  V30 9923 H 957.775 -1.08343 -2.83717 0
M  V30 9924 H 955.36 -0.593849 -1.3709 0
M  V30 9925 H 957.242 1.02712 -4.08691 0
M  V30 9926 H 955.917 1.35888 -2.93796 0
M  V30 9927 H 954.824 -0.848416 -3.64352 0
M  V30 9928 H 956.157 -1.09707 -4.79818 0
M  V30 9929 N 957.809 1.4625 -0.587256 0
M  V30 9930 C 959.055 2.02662 -0.0746851 0
M  V30 9931 C 959.388 1.45723 1.28368 0
M  V30 9932 O 958.663 0.624062 1.84216 0
M  V30 9933 C 958.946 3.60097 -0.0138109 0
M  V30 9934 C 958.799 4.27412 -1.4014 0
M  V30 9935 C 960.118 4.34744 0.684491 0
M  V30 9936 H 957.237 0.736444 -0.0286144 0
M  V30 9937 H 959.879 1.74341 -0.755328 0
M  V30 9938 H 958.029 3.84357 0.56583 0
M  V30 9939 H 959.701 4.14401 -2.02656 0
M  V30 9940 H 957.944 3.86598 -1.96785 0
M  V30 9941 H 958.615 5.362 -1.31124 0
M  V30 9942 H 961.091 4.15657 0.192023 0
M  V30 9943 H 959.967 5.44468 0.696127 0
M  V30 9944 H 960.228 4.06132 1.74669 0
M  V30 9945 N 959.287 0.325282 1.54207 0
M  V30 9946 C 960.527 -0.277347 2.0251 0
M  V30 9947 C 960.891 -1.49211 1.20831 0
M  V30 9948 O 962.092 -2.16771 1.58945 0
M  V30 9949 C 960.363 -0.601517 3.52302 0
M  V30 9950 S 961.922 -1.18356 4.22537 0
M  V30 9951 H 958.74 -0.08378 0.706047 0
M  V30 9952 H 961.342 0.458804 1.9004 0
M  V30 9953 H 960.046 0.290696 4.09369 0
M  V30 9954 H 959.577 -1.36782 3.68855 0
M  V30 9955 H 961.592 -2.47029 4.30338 0
M  V30 9956 N 960.765 -1.57509 0.0534917 0
M  V30 9957 C 961.995 -1.96812 -0.628386 0
M  V30 9958 C 962.403 -0.929808 -1.64776 0
M  V30 9959 O 961.746 0.0941155 -1.83459 0
M  V30 9960 C 961.808 -3.32361 -1.37027 0
M  V30 9961 C 961.472 -4.54185 -0.506465 0
M  V30 9962 C 962.469 -5.19398 0.228412 0
M  V30 9963 C 960.154 -5.00398 -0.43671 0
M  V30 9964 C 962.148 -6.29162 1.02146 0
M  V30 9965 C 959.835 -6.10039 0.360022 0
M  V30 9966 C 960.833 -6.74282 1.08779 0
M  V30 9967 O 960.521 -7.81814 1.87142 0
M  V30 9968 H 960.253 -0.65257 -0.176432 0
M  V30 9969 H 962.807 -2.05067 0.116908 0
M  V30 9970 H 961.037 -3.20667 -2.16125 0
M  V30 9971 H 962.726 -3.56395 -1.94261 0
M  V30 9972 H 963.492 -4.84651 0.184003 0
M  V30 9973 H 959.371 -4.50183 -0.992772 0
M  V30 9974 H 962.915 -6.79238 1.59002 0
M  V30 9975 H 958.812 -6.44222 0.406061 0
M  V30 9976 H 959.58 -7.98602 1.79378 0
M  V30 9977 N 962.243 0.219913 -1.56058 0
M  V30 9978 C 963.491 0.942199 -1.78793 0
M  V30 9979 C 963.812 1.84804 -0.622284 0
M  V30 9980 O 963.082 1.9255 0.360735 0
M  V30 9981 H 961.662 0.350895 -0.659455 0
M  V30 9982 H 964.324 0.231376 -1.93522 0
M  V30 9983 H 963.42 1.54804 -2.71002 0
M  V30 9984 N 963.721 1.49897 0.486681 0
M  V30 9985 C 965.137 1.36977 0.819109 0
M  V30 9986 C 965.337 0.41385 1.97204 0
M  V30 9987 O 964.393 -0.149249 2.52059 0
M  V30 9988 C 965.706 2.78013 1.14584 0
M  V30 9989 C 967.254 2.86816 1.25321 0
M  V30 9990 C 967.729 4.28651 1.61316 0
M  V30 9991 N 969.22 4.31528 1.68337 0
M  V30 9992 C 969.955 5.38254 1.97662 0
M  V30 9993 N 969.451 6.55207 2.25113 0
M  V30 9994 N 971.244 5.25683 1.99033 0
M  V30 9995 H 963.395 2.10634 -0.273364 0
M  V30 9996 H 965.658 0.946116 -0.0597418 0
M  V30 9997 H 965.364 3.49728 0.371892 0
M  V30 9998 H 965.238 3.1428 2.08585 0
M  V30 9999 H 967.625 2.15329 2.01785 0
M  V30 10000 H 967.706 2.54112 0.293368 0
M  V30 10001 H 967.35 5.00669 0.853968 0
M  V30 10002 H 967.28 4.5883 2.58424 0
M  V30 10003 H 969.771 3.47189 1.49226 0
M  V30 10004 H 970.084 7.32359 2.46717 0
M  V30 10005 H 968.429 6.58408 2.22538 0
M  V30 10006 H 971.62 4.33316 1.77074 0
M  V30 10007 H 971.793 6.08949 2.21552 0
M  V30 10008 N 965.199 -0.738761 1.39212 0
M  V30 10009 C 966.129 -1.86602 1.40364 0
M  V30 10010 C 967.11 -1.67984 0.267495 0
M  V30 10011 O 968.295 -1.88358 0.472765 0
M  V30 10012 C 965.425 -3.24308 1.24265 0
M  V30 10013 C 964.379 -3.57557 2.35239 0
M  V30 10014 C 963.705 -4.94159 2.04233 0
M  V30 10015 C 965.005 -3.60914 3.77543 0
M  V30 10016 H 966.699 -1.85896 2.34698 0
M  V30 10017 H 964.245 -0.892959 1.1297 0
M  V30 10018 H 966.198 -4.02838 1.23692 0
M  V30 10019 H 964.922 -3.25531 0.263974 0
M  V30 10020 H 963.581 -2.81354 2.35022 0
M  V30 10021 H 963.229 -4.91959 1.04813 0
M  V30 10022 H 962.929 -5.17373 2.78567 0
M  V30 10023 H 964.453 -5.7505 2.05303 0
M  V30 10024 H 965.867 -4.29528 3.79709 0
M  V30 10025 H 964.264 -3.95644 4.51205 0
M  V30 10026 H 965.334 -2.60803 4.08791 0
M  V30 10027 N 966.677 -1.24326 -0.968545 0
M  V30 10028 C 968.093 -1.00847 -1.23701 0
M  V30 10029 C 968.293 0.283235 -1.99499 0
M  V30 10030 O 967.349 0.999607 -2.31871 0
M  V30 10031 C 968.662 -2.22295 -2.02498 0
M  V30 10032 C 970.21 -2.26911 -2.15593 0
M  V30 10033 C 970.685 -3.47978 -2.97784 0
M  V30 10034 N 972.176 -3.48289 -3.05367 0
M  V30 10035 C 972.911 -4.38625 -3.69318 0
M  V30 10036 N 972.407 -5.39213 -4.34995 0
M  V30 10037 N 974.2 -4.26339 -3.66322 0
M  V30 10038 H 966.351 -2.07335 -0.461087 0
M  V30 10039 H 968.614 -0.909805 -0.26638 0
M  V30 10040 H 968.32 -3.161 -1.54188 0
M  V30 10041 H 968.194 -2.24344 -3.03232 0
M  V30 10042 H 970.581 -1.33639 -2.63106 0
M  V30 10043 H 970.662 -2.28888 -1.14209 0
M  V30 10044 H 970.306 -4.41564 -2.50965 0
M  V30 10045 H 970.236 -3.43244 -3.99364 0
M  V30 10046 H 972.727 -2.75517 -2.58648 0
M  V30 10047 H 973.04 -6.04378 -4.81608 0
M  V30 10048 H 971.385 -5.43101 -4.33667 0
M  V30 10049 H 974.576 -3.46991 -3.14189 0
M  V30 10050 H 974.749 -4.9694 -4.15878 0
M  V30 10051 N 968.156 1.1691 -1.05688 0
M  V30 10052 C 969.402 1.8757 -0.771071 0
M  V30 10053 C 969.735 1.8113 0.700399 0
M  V30 10054 O 969.01 1.22273 1.5126 0
M  V30 10055 C 969.293 3.37392 -1.25851 0
M  V30 10056 C 969.146 3.52556 -2.79329 0
M  V30 10057 C 970.465 4.31585 -0.861512 0
M  V30 10058 H 967.584 0.681089 -0.281579 0
M  V30 10059 H 970.226 1.37453 -1.31174 0
M  V30 10060 H 968.376 3.80204 -0.798563 0
M  V30 10061 H 970.048 3.18725 -3.33485 0
M  V30 10062 H 968.291 2.94668 -3.1836 0
M  V30 10063 H 968.962 4.57748 -3.08498 0
M  V30 10064 H 971.438 3.96642 -1.25756 0
M  V30 10065 H 970.314 5.34939 -1.23012 0
M  V30 10066 H 970.575 4.4148 0.234089 0
M  V30 10067 N 969.634 0.838594 1.33437 0
M  V30 10068 C 971.045 0.490934 1.8013 0
M  V30 10069 C 971.396 -0.990024 1.6939 0
M  V30 10070 O 970.521 -1.77139 1.24302 0
M  V30 10071 C 971.116 0.884347 3.27055 0
M  V30 10072 C 969.675 0.588829 3.71766 0
M  V30 10073 C 968.822 1.09282 2.54858 0
M  V30 10074 H 971.773 1.02732 1.20962 0
M  V30 10075 H 971.794 0.194283 3.80004 0
M  V30 10076 H 971.306 1.96225 3.34839 0
M  V30 10077 H 969.407 -0.479018 3.69508 0
M  V30 10078 H 969.52 1.14387 4.65245 0
M  V30 10079 H 967.884 0.513702 2.49466 0
M  V30 10080 H 968.667 2.1775 2.65405 0
M  V30 10081 N 971.112 -1.45937 0.595003 0
M  V30 10082 C 972.36 -2.01921 0.0851368 0
M  V30 10083 C 972.681 -1.46748 -1.28413 0
M  V30 10084 O 971.951 -0.656873 -1.84559 0
M  V30 10085 H 970.531 -0.746457 0.0284826 0
M  V30 10086 H 973.193 -1.78891 0.773561 0
M  V30 10087 H 972.289 -3.1209 0.0254002 0
M  V30 10088 N 972.59 -0.333456 -1.54032 0
M  V30 10089 C 973.522 0.562174 -2.22199 0
M  V30 10090 C 974.535 1.07202 -1.22522 0
M  V30 10091 O 975.724 0.983897 -1.48935 0
M  V30 10092 C 972.824 1.78525 -2.88066 0
M  V30 10093 C 971.997 1.41242 -4.13968 0
M  V30 10094 C 971.056 2.49408 -4.63338 0
M  V30 10095 O 970.082 2.13138 -5.27789 0
M  V30 10096 N 971.284 3.805 -4.38406 0
M  V30 10097 H 974.049 -0.0215629 -2.99692 0
M  V30 10098 H 971.61 -0.157111 -1.61136 0
M  V30 10099 H 973.602 2.50298 -3.18014 0
M  V30 10100 H 972.172 2.2766 -2.14219 0
M  V30 10101 H 971.392 0.525887 -3.90676 0
M  V30 10102 H 972.68 1.13916 -4.95884 0
M  V30 10103 H 972.078 4.12761 -3.86839 0
M  V30 10104 H 970.635 4.48474 -4.72984 0
M  V30 10105 N 974.068 1.57479 -0.061844 0
M  V30 10106 C 975.484 1.56855 0.294753 0
M  V30 10107 C 975.684 1.07042 1.70717 0
M  V30 10108 O 974.74 0.731817 2.41662 0
M  V30 10109 C 976.053 3.00486 0.113484 0
M  V30 10110 C 977.601 3.1246 0.183778 0
M  V30 10111 C 978.076 4.5799 0.0309092 0
M  V30 10112 N 979.567 4.63119 0.0868393 0
M  V30 10113 C 980.302 5.734 -0.00717446 0
M  V30 10114 N 979.798 6.92628 -0.154144 0
M  V30 10115 N 981.591 5.62078 0.0491763 0
M  V30 10116 H 973.742 1.88176 -0.985058 0
M  V30 10117 H 976.005 0.867051 -0.383309 0
M  V30 10118 H 975.711 3.41004 -0.86075 0
M  V30 10119 H 975.585 3.67029 0.870023 0
M  V30 10120 H 977.972 2.71834 1.14849 0
M  V30 10121 H 978.053 2.48574 -0.603697 0
M  V30 10122 H 977.697 4.99303 -0.930526 0
M  V30 10123 H 977.627 5.19895 0.837664 0
M  V30 10124 H 980.118 3.77374 0.199245 0
M  V30 10125 H 980.431 7.72492 -0.218296 0
M  V30 10126 H 978.776 6.94742 -0.189372 0
M  V30 10127 H 981.967 4.67817 0.162626 0
M  V30 10128 H 982.14 6.47994 -0.0275478 0
M  V30 10129 N 975.546 -0.211634 1.56173 0
M  V30 10130 C 976.823 -0.959467 1.70451 0
M  V30 10131 C 977.203 -2.02036 0.611942 0
M  V30 10132 O 976.551 -2.25325 -0.37959 0
M  V30 10133 C 976.761 -1.56092 3.12148 0
M  V30 10134 C 978.109 -2.04939 3.71867 0
M  V30 10135 O 979.133 -1.65966 3.15172 0
M  V30 10136 O 977.992 -2.766 4.71333 0
M  V30 10137 H 975.086 -0.448844 0.6946 0
M  V30 10138 H 977.632 -0.202633 1.68486 0
M  V30 10139 H 976.404 -0.79538 3.83131 0
M  V30 10140 H 976.027 -2.38303 3.18273 0
M  V30 10141 N 977.024 -1.50153 -0.478725 0
M  V30 10142 C 978.27 -1.60998 -1.23318 0
M  V30 10143 C 978.603 -0.305868 -1.91776 0
M  V30 10144 O 977.878 0.692158 -1.81767 0
M  V30 10145 C 978.161 -2.78495 -2.28282 0
M  V30 10146 C 978.014 -4.18767 -1.64178 0
M  V30 10147 C 979.333 -2.91569 -3.2966 0
M  V30 10148 H 976.452 -0.585983 -0.446982 0
M  V30 10149 H 979.094 -1.82514 -0.528063 0
M  V30 10150 H 977.244 -2.60281 -2.8842 0
M  V30 10151 H 978.916 -4.48552 -1.07696 0
M  V30 10152 H 977.159 -4.23379 -0.94514 0
M  V30 10153 H 977.83 -4.96894 -2.40417 0
M  V30 10154 H 980.306 -3.08219 -2.79536 0
M  V30 10155 H 979.182 -3.75419 -4.0044 0
M  V30 10156 H 979.443 -2.01859 -3.93326 0
M  V30 10157 N 978.502 0.731368 -1.39602 0
M  V30 10158 C 979.913 1.30981 -1.33045 0
M  V30 10159 C 980.264 1.962 0.00349918 0
M  V30 10160 O 979.389 1.96539 0.905615 0
M  V30 10161 C 979.984 2.3817 -2.40958 0
M  V30 10162 C 978.543 2.91678 -2.3791 0
M  V30 10163 C 977.69 1.65286 -2.22656 0
M  V30 10164 H 980.641 0.528615 -1.49637 0
M  V30 10165 H 980.662 3.18645 -2.07955 0
M  V30 10166 H 980.174 1.90673 -3.38032 0
M  V30 10167 H 978.275 3.43446 -1.44485 0
M  V30 10168 H 978.388 3.44545 -3.32904 0
M  V30 10169 H 976.752 1.89759 -1.69893 0
M  V30 10170 H 977.535 1.19836 -3.21705 0
M  V30 10171 N 979.98 1.24838 0.961938 0
M  V30 10172 C 981.226 1.09313 1.70817 0
M  V30 10173 C 981.559 -0.366244 1.90715 0
M  V30 10174 O 980.834 -1.27036 1.47282 0
M  V30 10175 C 981.117 1.83988 3.09549 0
M  V30 10176 C 980.97 3.3771 2.97106 0
M  V30 10177 C 982.289 1.61718 4.09311 0
M  V30 10178 H 979.408 0.398498 0.619974 0
M  V30 10179 H 982.05 1.53579 1.11864 0
M  V30 10180 H 980.2 1.46363 3.59875 0
M  V30 10181 H 981.872 3.84967 2.54161 0
M  V30 10182 H 980.115 3.65795 2.33187 0
M  V30 10183 H 980.786 3.85166 3.95412 0
M  V30 10184 H 983.262 1.94458 3.67866 0
M  V30 10185 H 982.138 2.16415 5.04436 0
M  V30 10186 H 982.399 0.55677 4.3858 0
M  V30 10187 N 981.458 -1.16348 1.06306 0
M  V30 10188 C 982.421 -2.18941 0.678053 0
M  V30 10189 C 983.421 -1.58409 -0.276277 0
M  V30 10190 O 984.611 -1.74101 -0.0586435 0
M  V30 10191 C 981.743 -3.409 -0.00228684 0
M  V30 10192 H 982.936 -2.54516 1.58624 0
M  V30 10193 H 980.489 -1.30625 0.858298 0
M  V30 10194 H 981.224 -3.10881 -0.923212 0
M  V30 10195 H 981.009 -3.86089 0.683949 0
M  V30 10196 H 982.499 -4.16806 -0.257374 0
M  V30 10197 N 982.937 -0.845659 -1.3299 0
M  V30 10198 C 984.186 -0.440928 -1.96822 0
M  V30 10199 C 984.499 1.00668 -1.67706 0
M  V30 10200 O 985.705 1.51641 -2.25205 0
M  V30 10201 C 984.161 -0.73752 -3.52262 0
M  V30 10202 C 983.769 -2.20026 -3.90247 0
M  V30 10203 C 985.513 -0.400072 -4.22611 0
M  V30 10204 C 983.42 -2.44054 -5.38694 0
M  V30 10205 H 982.35 -0.161148 -0.736578 0
M  V30 10206 H 985.001 -1.03519 -1.51513 0
M  V30 10207 H 983.383 -0.0728025 -3.95933 0
M  V30 10208 H 984.557 -2.90602 -3.57613 0
M  V30 10209 H 982.872 -2.50135 -3.32899 0
M  V30 10210 H 985.469 -0.557136 -5.3179 0
M  V30 10211 H 985.812 0.657547 -4.11074 0
M  V30 10212 H 986.345 -1.0203 -3.84493 0
M  V30 10213 H 983.084 -3.48407 -5.55241 0
M  V30 10214 H 982.604 -1.78047 -5.72765 0
M  V30 10215 H 984.283 -2.27549 -6.05665 0
M  V30 10216 N 984.415 1.45619 -0.602734 0
M  V30 10217 C 985.362 2.30493 0.118944 0
M  V30 10218 C 986.332 1.41816 0.864723 0
M  V30 10219 O 987.517 1.7075 0.851424 0
M  V30 10220 C 984.657 3.2664 1.11356 0
M  V30 10221 C 983.77 4.3042 0.369161 0
M  V30 10222 C 982.905 5.13678 1.35307 0
M  V30 10223 C 981.944 6.09189 0.596207 0
M  V30 10224 N 981.081 6.85245 1.52916 0
M  V30 10225 H 985.921 2.91672 -0.610836 0
M  V30 10226 H 983.458 1.43731 -0.313032 0
M  V30 10227 H 985.416 3.80846 1.7033 0
M  V30 10228 H 984.046 2.67225 1.81081 0
M  V30 10229 H 983.098 3.78913 -0.335994 0
M  V30 10230 H 984.41 4.98307 -0.221603 0
M  V30 10231 H 983.564 5.7226 2.01502 0
M  V30 10232 H 982.303 4.45798 1.97777 0
M  V30 10233 H 981.308 5.49743 -0.0793984 0
M  V30 10234 H 982.533 6.79096 -0.0233734 0
M  V30 10235 H 980.479 6.20058 2.14159 0
M  V30 10236 H 980.396 7.49467 0.991713 0
M  V30 10237 H 981.664 7.48371 2.18083 0
M  V30 10238 N 985.893 0.34162 1.53853 0
M  V30 10239 C 986.856 -0.503541 2.236 0
M  V30 10240 C 987.856 -1.02912 1.23554 0
M  V30 10241 O 989.046 -0.918678 1.48007 0
M  V30 10242 C 986.178 -1.70126 2.95415 0
M  V30 10243 H 987.371 0.106437 2.99711 0
M  V30 10244 H 984.924 0.0929408 1.56023 0
M  V30 10245 H 985.659 -2.34999 2.23486 0
M  V30 10246 H 985.444 -1.33161 3.68796 0
M  V30 10247 H 986.934 -2.30077 3.48503 0
M  V30 10248 N 987.371 -1.57444 0.0701946 0
M  V30 10249 C 988.301 -2.15659 -0.895176 0
M  V30 10250 C 989.282 -1.08321 -1.31151 0
M  V30 10251 O 990.467 -1.36349 -1.38284 0
M  V30 10252 C 987.597 -2.71693 -2.16334 0
M  V30 10253 C 986.551 -3.84183 -1.88645 0
M  V30 10254 C 985.877 -4.26814 -3.22078 0
M  V30 10255 C 987.177 -5.08493 -1.19299 0
M  V30 10256 H 988.871 -2.96576 -0.410217 0
M  V30 10257 H 986.417 -1.42662 -0.195872 0
M  V30 10258 H 988.37 -3.11064 -2.84284 0
M  V30 10259 H 987.094 -1.87994 -2.67069 0
M  V30 10260 H 985.753 -3.45314 -1.23101 0
M  V30 10261 H 985.401 -3.40039 -3.70651 0
M  V30 10262 H 985.101 -5.02642 -3.04344 0
M  V30 10263 H 986.625 -4.68799 -3.91228 0
M  V30 10264 H 988.039 -5.4519 -1.77316 0
M  V30 10265 H 986.436 -5.89588 -1.11828 0
M  V30 10266 H 987.506 -4.84595 -0.171839 0
M  V30 10267 N 988.849 0.203349 -1.56283 0
M  V30 10268 C 989.796 1.25205 -1.93888 0
M  V30 10269 C 990.766 1.45654 -0.798376 0
M  V30 10270 O 991.951 1.58924 -1.05583 0
M  V30 10271 C 989.091 2.59355 -2.27659 0
M  V30 10272 C 988.204 2.46553 -3.54733 0
M  V30 10273 C 987.339 3.73351 -3.77865 0
M  V30 10274 C 986.378 3.55347 -4.98392 0
M  V30 10275 N 985.515 4.74137 -5.17821 0
M  V30 10276 H 990.355 0.924356 -2.83301 0
M  V30 10277 H 987.892 0.445082 -1.40205 0
M  V30 10278 H 989.85 3.375 -2.45254 0
M  V30 10279 H 988.48 2.90184 -1.41396 0
M  V30 10280 H 987.532 1.59749 -3.45231 0
M  V30 10281 H 988.844 2.2918 -4.43033 0
M  V30 10282 H 987.998 4.59937 -3.95655 0
M  V30 10283 H 986.737 3.9367 -2.8788 0
M  V30 10284 H 985.742 2.67146 -4.80534 0
M  V30 10285 H 986.967 3.36482 -5.89879 0
M  V30 10286 H 984.913 4.94735 -4.30782 0
M  V30 10287 H 984.83 4.59558 -6.00285 0
M  V30 10288 H 986.098 5.62098 -5.40061 0
M  V30 10289 N 990.327 1.50405 0.470755 0
M  V30 10290 C 991.29 1.68741 1.5511 0
M  V30 10291 C 992.29 0.558116 1.50804 0
M  V30 10292 O 993.48 0.825149 1.53418 0
M  V30 10293 C 990.612 1.71295 2.94739 0
M  V30 10294 H 991.805 2.65127 1.40169 0
M  V30 10295 H 989.358 1.39891 0.697156 0
M  V30 10296 H 990.093 0.766029 3.15123 0
M  V30 10297 H 989.878 2.53336 2.99271 0
M  V30 10298 H 991.368 1.87434 3.73173 0
M  V30 10299 N 991.805 -0.723954 1.39988 0
M  V30 10300 C 993.053 -1.48078 1.3754 0
M  V30 10301 C 993.374 -1.94985 -0.0243358 0
M  V30 10302 O 992.644 -1.69764 -0.977602 0
M  V30 10303 H 991.224 -0.549354 0.506181 0
M  V30 10304 H 993.886 -0.858746 1.74962 0
M  V30 10305 H 992.982 -2.35763 2.04505 0
M  V30 10306 N 993.283 -1.25346 -0.955304 0
M  V30 10307 C 994.513 -1.12629 -1.732 0
M  V30 10308 C 994.921 0.322748 -1.86427 0
M  V30 10309 O 994.264 1.23381 -1.36099 0
M  V30 10310 C 994.326 -1.7064 -3.16421 0
M  V30 10311 C 993.99 -3.19632 -3.26626 0
M  V30 10312 C 994.987 -4.1663 -3.10991 0
M  V30 10313 C 992.672 -3.59829 -3.50468 0
M  V30 10314 C 994.666 -5.51806 -3.19043 0
M  V30 10315 C 992.353 -4.95143 -3.58157 0
M  V30 10316 C 993.351 -5.90941 -3.42459 0
M  V30 10317 O 993.039 -7.23792 -3.49828 0
M  V30 10318 H 992.771 -0.393646 -0.549562 0
M  V30 10319 H 995.325 -1.66184 -1.20715 0
M  V30 10320 H 993.555 -1.11532 -3.70267 0
M  V30 10321 H 995.244 -1.53032 -3.75947 0
M  V30 10322 H 996.01 -3.86915 -2.92441 0
M  V30 10323 H 991.889 -2.8576 -3.61749 0
M  V30 10324 H 995.433 -6.26559 -3.06707 0
M  V30 10325 H 991.33 -5.24525 -3.76224 0
M  V30 10326 H 992.098 -7.31879 -3.66463 0
M  V30 10327 N 994.761 1.15782 -1.06922 0
M  V30 10328 C 995.989 1.90355 -0.81072 0
M  V30 10329 C 996.404 1.77779 0.635614 0
M  V30 10330 O 995.761 1.12675 1.43564 0
M  V30 10331 C 995.812 3.4085 -1.2043 0
M  V30 10332 O 995.533 3.53057 -2.59388 0
M  V30 10333 C 997.034 4.32457 -0.974473 0
M  V30 10334 H 994.254 0.60343 -0.293451 0
M  V30 10335 H 996.798 1.46723 -1.42452 0
M  V30 10336 H 994.953 3.82162 -0.634909 0
M  V30 10337 H 995.367 4.46426 -2.75326 0
M  V30 10338 H 996.841 5.36488 -1.29942 0
M  V30 10339 H 997.318 4.39109 0.0894481 0
M  V30 10340 H 997.924 3.96882 -1.52856 0
M  V30 10341 N 996.239 0.8527 1.3254 0
M  V30 10342 C 997.149 0.298744 2.3269 0
M  V30 10343 C 998.165 -0.582418 1.63963 0
M  V30 10344 O 999.341 -0.483253 1.95516 0
M  V30 10345 C 996.406 -0.505453 3.42996 0
M  V30 10346 C 995.467 0.401618 4.27417 0
M  V30 10347 C 994.7 -0.364294 5.32455 0
M  V30 10348 O 994.923 -1.59448 5.47661 0
M  V30 10349 O 993.857 0.268892 6.01299 0
M  V30 10350 H 997.683 1.12843 2.81958 0
M  V30 10351 H 995.268 0.615584 1.36128 0
M  V30 10352 H 997.15 -0.961974 4.10273 0
M  V30 10353 H 995.825 -1.31197 2.95921 0
M  V30 10354 H 994.732 0.906274 3.62957 0
M  V30 10355 H 996.065 1.17327 4.78012 0
M  V30 10356 N 997.718 -1.45297 0.610449 0
M  V30 10357 C 999.134 -1.57225 0.274332 0
M  V30 10358 C 999.334 -1.60136 -1.22306 0
M  V30 10359 O 998.39 -1.5332 -2.00622 0
M  V30 10360 C 999.703 -2.85365 0.948028 0
M  V30 10361 C 1001.25 -2.99044 0.924216 0
M  V30 10362 C 1001.73 -4.29958 1.57798 0
M  V30 10363 N 1003.22 -4.36723 1.5436 0
M  V30 10364 C 1003.95 -5.36695 2.01857 0
M  V30 10365 N 1003.45 -6.43187 2.57453 0
M  V30 10366 N 1005.24 -5.28071 1.92608 0
M  V30 10367 H 997.392 -1.41651 1.58268 0
M  V30 10368 H 999.655 -0.67744 0.663158 0
M  V30 10369 H 999.361 -2.89125 2.00249 0
M  V30 10370 H 999.235 -3.74222 0.473062 0
M  V30 10371 H 1001.62 -2.94849 -0.121709 0
M  V30 10372 H 1001.7 -2.1159 1.43748 0
M  V30 10373 H 1001.35 -4.34912 2.62325 0
M  V30 10374 H 1001.28 -5.16234 1.03972 0
M  V30 10375 H 1003.77 -3.60374 1.13749 0
M  V30 10376 H 1004.08 -7.15722 2.91482 0
M  V30 10377 H 1002.43 -6.4393 2.61493 0
M  V30 10378 H 1005.62 -4.43783 1.48912 0
M  V30 10379 H 1005.79 -6.05832 2.29938 0
M  V30 10380 N 999.196 -0.349774 -1.5367 0
M  V30 10381 C 1000.13 0.538575 -2.22782 0
M  V30 10382 C 1001.14 1.05896 -1.23652 0
M  V30 10383 O 1002.33 0.968045 -1.4997 0
M  V30 10384 C 999.43 1.7546 -2.89943 0
M  V30 10385 C 998.603 1.36843 -4.15443 0
M  V30 10386 C 997.662 2.4448 -4.65957 0
M  V30 10387 O 996.688 2.07528 -5.3002 0
M  V30 10388 N 997.89 3.75829 -4.42417 0
M  V30 10389 H 1000.65 -0.053348 -2.99653 0
M  V30 10390 H 998.216 -0.174193 -1.6096 0
M  V30 10391 H 1000.21 2.46911 -3.20651 0
M  V30 10392 H 998.778 2.25375 -2.16622 0
M  V30 10393 H 997.998 0.484421 -3.91212 0
M  V30 10394 H 999.286 1.0865 -4.97064 0
M  V30 10395 H 998.684 4.08635 -3.91196 0
M  V30 10396 H 997.241 4.43432 -4.77714 0
M  V30 10397 N 1000.67 1.57404 -0.0785433 0
M  V30 10398 C 1002.09 1.57158 0.2781 0
M  V30 10399 C 1002.29 1.08847 1.69572 0
M  V30 10400 O 1001.35 0.757407 2.40873 0
M  V30 10401 C 1002.66 3.00589 0.0816067 0
M  V30 10402 C 1004.21 3.12637 0.150627 0
M  V30 10403 C 1004.68 4.57997 -0.0176685 0
M  V30 10404 N 1006.17 4.63185 0.0377145 0
M  V30 10405 C 1006.91 5.7336 -0.0679907 0
M  V30 10406 N 1006.4 6.92426 -0.227598 0
M  V30 10407 N 1008.2 5.62099 -0.0104424 0
M  V30 10408 H 1000.35 1.87121 -1.00496 0
M  V30 10409 H 1002.61 0.862937 -0.392484 0
M  V30 10410 H 1002.32 3.40072 -0.896869 0
M  V30 10411 H 1002.19 3.67931 0.831046 0
M  V30 10412 H 1004.58 2.73037 1.11959 0
M  V30 10413 H 1004.66 2.4792 -0.630028 0
M  V30 10414 H 1004.3 4.98288 -0.983431 0
M  V30 10415 H 1004.23 5.20754 0.782475 0
M  V30 10416 H 1006.72 3.77564 0.159208 0
M  V30 10417 H 1007.04 7.72217 -0.300217 0
M  V30 10418 H 1005.38 6.94502 -0.263049 0
M  V30 10419 H 1008.57 4.67964 0.112999 0
M  V30 10420 H 1008.75 6.47928 -0.0962747 0
M  V30 10421 N 1002.15 -0.195058 1.56388 0
M  V30 10422 C 1003.57 -0.545894 1.49974 0
M  V30 10423 C 1003.77 -1.85851 0.778568 0
M  V30 10424 O 1002.82 -2.50346 0.329105 0
M  V30 10425 C 1004.14 -0.600599 2.94641 0
M  V30 10426 C 1005.68 -0.689429 3.05313 0
M  V30 10427 C 1006.16 -0.775243 4.51391 0
M  V30 10428 N 1007.65 -0.838769 4.55542 0
M  V30 10429 C 1008.39 -0.925337 5.65884 0
M  V30 10430 N 1007.88 -0.974204 6.85916 0
M  V30 10431 N 1009.67 -0.962528 5.53798 0
M  V30 10432 H 1001.83 0.66595 2.0169 0
M  V30 10433 H 1004.09 0.237215 0.917842 0
M  V30 10434 H 1003.79 0.29478 3.50462 0
M  V30 10435 H 1003.67 -1.45528 3.47996 0
M  V30 10436 H 1006.06 -1.57524 2.4954 0
M  V30 10437 H 1006.14 0.191451 2.55083 0
M  V30 10438 H 1005.78 0.106215 5.07789 0
M  V30 10439 H 1005.71 -1.67193 4.99354 0
M  V30 10440 H 1008.2 -0.810249 3.69112 0
M  V30 10441 H 1008.51 -1.04077 7.6576 0
M  V30 10442 H 1006.86 -0.942881 6.88574 0
M  V30 10443 H 1010.05 -0.921188 4.58946 0
M  V30 10444 H 1010.22 -1.02653 6.39817 0
M  V30 10445 N 1003.63 -1.50653 -0.462772 0
M  V30 10446 C 1004.91 -1.5258 -1.22387 0
M  V30 10447 C 1005.29 -0.275263 -2.09298 0
M  V30 10448 O 1004.63 0.740943 -2.16153 0
M  V30 10449 C 1004.84 -2.82611 -2.04773 0
M  V30 10450 C 1006.19 -3.33592 -2.62681 0
M  V30 10451 O 1007.22 -2.83989 -2.15008 0
M  V30 10452 O 1006.08 -4.20081 -3.49563 0
M  V30 10453 H 1003.17 -0.612367 -0.55582 0
M  V30 10454 H 1005.72 -1.62948 -0.473914 0
M  V30 10455 H 1004.49 -3.65098 -1.40781 0
M  V30 10456 H 1004.11 -2.75286 -2.86886 0
M  V30 10457 N 1005.11 0.71652 -1.4037 0
M  V30 10458 C 1006.36 1.47638 -1.38597 0
M  V30 10459 C 1006.68 1.94496 0.0120141 0
M  V30 10460 O 1005.94 1.68437 0.996373 0
M  V30 10461 C 1006.24 2.71777 -2.32103 0
M  V30 10462 C 1005.9 2.43689 -3.79376 0
M  V30 10463 C 1004.57 2.35739 -4.195 0
M  V30 10464 C 1006.92 2.20099 -4.72447 0
M  V30 10465 C 1004.25 2.02265 -5.50732 0
M  V30 10466 C 1006.6 1.88138 -6.03976 0
M  V30 10467 C 1005.26 1.78669 -6.43143 0
M  V30 10468 H 1004.53 0.540246 -0.507163 0
M  V30 10469 H 1007.18 0.820822 -1.73017 0
M  V30 10470 H 1005.48 3.42166 -1.90865 0
M  V30 10471 H 1007.18 3.29864 -2.28015 0
M  V30 10472 H 1003.77 2.50763 -3.47585 0
M  V30 10473 H 1007.95 2.25198 -4.42266 0
M  V30 10474 H 1003.21 1.93471 -5.79982 0
M  V30 10475 H 1007.38 1.68898 -6.75608 0
M  V30 10476 H 1005.01 1.52498 -7.44747 0
M  V30 10477 N 1006.59 1.25851 0.948643 0
M  V30 10478 C 1007.52 1.09248 2.06367 0
M  V30 10479 C 1008.5 -0.000205168 1.701 0
M  V30 10480 O 1009.68 0.170442 1.93451 0
M  V30 10481 C 1006.81 0.716777 3.39823 0
M  V30 10482 C 1005.77 1.76036 3.90122 0
M  V30 10483 C 1005.09 1.23918 5.20143 0
M  V30 10484 C 1006.39 3.16039 4.15833 0
M  V30 10485 H 1008.09 2.02518 2.20515 0
M  V30 10486 H 1005.63 0.975093 1.05962 0
M  V30 10487 H 1007.59 0.587531 4.17284 0
M  V30 10488 H 1006.31 -0.251626 3.25629 0
M  V30 10489 H 1004.97 1.87815 3.14835 0
M  V30 10490 H 1004.62 0.260836 5.02323 0
M  V30 10491 H 1004.32 1.93673 5.54765 0
M  V30 10492 H 1005.84 1.12245 6.00194 0
M  V30 10493 H 1007.25 3.0738 4.83933 0
M  V30 10494 H 1005.65 3.83317 4.61723 0
M  V30 10495 H 1006.72 3.62652 3.21887 0
M  V30 10496 N 1008.06 -1.15214 1.07534 0
M  V30 10497 C 1009.29 -1.90463 0.820883 0
M  V30 10498 C 1009.71 -1.77578 -0.620305 0
M  V30 10499 O 1009.07 -1.10976 -1.43366 0
M  V30 10500 C 1009.12 -3.38746 1.23627 0
M  V30 10501 O 1008.22 -4.1062 0.382715 0
M  V30 10502 H 1007.57 -0.59292 0.298901 0
M  V30 10503 H 1010.1 -1.45893 1.43445 0
M  V30 10504 H 1010.11 -3.89543 1.21327 0
M  V30 10505 H 1008.78 -3.47443 2.28596 0
M  V30 10506 H 1007.36 -3.69947 0.468374 0
M  V30 10507 N 1009.54 -0.859717 -1.32086 0
M  V30 10508 C 1010.45 -0.31108 -2.32528 0
M  V30 10509 C 1011.47 0.573714 -1.6427 0
M  V30 10510 O 1012.64 0.472878 -1.9577 0
M  V30 10511 C 1009.71 0.487256 -3.43259 0
M  V30 10512 C 1008.77 -0.424279 -4.27198 0
M  V30 10513 C 1008 0.336051 -5.32641 0
M  V30 10514 O 1008.23 1.56541 -5.48499 0
M  V30 10515 O 1007.16 -0.300777 -6.01148 0
M  V30 10516 H 1010.99 -1.14336 -2.81355 0
M  V30 10517 H 1008.57 -0.622794 -1.358 0
M  V30 10518 H 1010.45 0.940203 -4.10777 0
M  V30 10519 H 1009.13 1.29626 -2.96612 0
M  V30 10520 H 1008.04 -0.925509 -3.62471 0
M  V30 10521 H 1009.37 -1.1986 -4.77383 0
M  V30 10522 N 1011.02 1.44971 -0.618145 0
M  V30 10523 C 1011.98 2.29044 0.0846739 0
M  V30 10524 C 1012.98 1.40341 0.784921 0
M  V30 10525 O 1014.17 1.62351 0.631479 0
M  V30 10526 C 1011.31 3.21617 1.13027 0
M  V30 10527 H 1012.5 2.92668 -0.654612 0
M  V30 10528 H 1010.05 1.51668 -0.377672 0
M  V30 10529 H 1010.79 2.62815 1.89997 0
M  V30 10530 H 1010.57 3.86969 0.63224 0
M  V30 10531 H 1012.06 3.84805 1.62218 0
M  V30 10532 N 1012.5 0.357919 1.53482 0
M  V30 10533 C 1013.72 -0.237769 2.06033 0
M  V30 10534 C 1014.15 -1.42292 1.23023 0
M  V30 10535 O 1013.51 -1.79604 0.247427 0
M  V30 10536 C 1013.55 -0.616806 3.55286 0
M  V30 10537 O 1012.66 -1.71503 3.75047 0
M  V30 10538 H 1012 -0.0364322 0.663 0
M  V30 10539 H 1014.53 0.516301 1.97979 0
M  V30 10540 H 1014.54 -0.88996 3.98175 0
M  V30 10541 H 1013.21 0.249825 4.15149 0
M  V30 10542 H 1011.79 -1.43803 3.44057 0
M  V30 10543 N 1013.98 -1.5736 0.0868897 0
M  V30 10544 C 1015.23 -1.93229 -0.578387 0
M  V30 10545 C 1015.54 -0.970127 -1.69847 0
M  V30 10546 O 1016.74 -1.22222 -2.42434 0
M  V30 10547 C 1015.2 -3.43307 -1.0802 0
M  V30 10548 C 1014.81 -4.47999 0.00968135 0
M  V30 10549 C 1016.55 -3.88151 -1.71868 0
M  V30 10550 C 1014.46 -5.89223 -0.507029 0
M  V30 10551 H 1013.39 -0.721245 -0.219823 0
M  V30 10552 H 1016.04 -1.82787 0.161566 0
M  V30 10553 H 1014.42 -3.48873 -1.87359 0
M  V30 10554 H 1015.6 -4.54067 0.784865 0
M  V30 10555 H 1013.91 -4.12714 0.552845 0
M  V30 10556 H 1016.51 -4.91056 -2.11585 0
M  V30 10557 H 1016.85 -3.26347 -2.58464 0
M  V30 10558 H 1017.38 -3.85252 -0.991259 0
M  V30 10559 H 1014.12 -6.54708 0.322121 0
M  V30 10560 H 1013.64 -5.86643 -1.2494 0
M  V30 10561 H 1015.32 -6.39556 -0.978628 0
M  V30 10562 N 1015.45 0.186762 -1.56489 0
M  V30 10563 C 1016.39 1.25971 -1.9028 0
M  V30 10564 C 1017.37 1.43543 -0.763822 0
M  V30 10565 O 1018.55 1.58799 -1.01564 0
M  V30 10566 C 1015.68 2.62507 -2.14028 0
M  V30 10567 C 1014.72 2.61758 -3.36727 0
M  V30 10568 S 1015.56 2.12366 -4.9159 0
M  V30 10569 C 1016.71 3.5071 -5.18414 0
M  V30 10570 H 1016.94 0.971203 -2.80989 0
M  V30 10571 H 1014.48 0.390636 -1.49377 0
M  V30 10572 H 1016.44 3.41098 -2.28391 0
M  V30 10573 H 1015.1 2.88564 -1.24054 0
M  V30 10574 H 1014.29 3.62173 -3.50495 0
M  V30 10575 H 1013.89 1.91254 -3.214 0
M  V30 10576 H 1016.18 4.46622 -5.09445 0
M  V30 10577 H 1017.13 3.41829 -6.20128 0
M  V30 10578 H 1017.53 3.46008 -4.46026 0
M  V30 10579 N 1016.93 1.50896 0.454776 0
M  V30 10580 C 1018.18 1.62378 1.20324 0
M  V30 10581 C 1018.5 0.333883 1.9212 0
M  V30 10582 O 1017.77 -0.649477 1.8482 0
M  V30 10583 H 1016.35 0.598395 0.447139 0
M  V30 10584 H 1019.01 1.87749 0.523102 0
M  V30 10585 H 1018.11 2.44296 1.94232 0
M  V30 10586 N 1018.41 -0.709066 1.40748 0
M  V30 10587 C 1019.34 -1.83412 1.37451 0
M  V30 10588 C 1020.36 -1.60394 0.27884 0
M  V30 10589 O 1021.54 -1.70147 0.539642 0
M  V30 10590 C 1018.64 -3.19935 1.1178 0
M  V30 10591 C 1017.82 -3.70095 2.33128 0
M  V30 10592 C 1016.88 -4.85249 2.03518 0
M  V30 10593 O 1015.9 -4.97563 2.76442 0
M  V30 10594 N 1017.1 -5.7152 1.01714 0
M  V30 10595 H 1019.87 -1.86736 2.34414 0
M  V30 10596 H 1017.43 -0.890863 1.35186 0
M  V30 10597 H 1019.42 -3.94578 0.899464 0
M  V30 10598 H 1017.99 -3.11718 0.234624 0
M  V30 10599 H 1017.21 -2.8651 2.70751 0
M  V30 10600 H 1018.5 -4.00344 3.1401 0
M  V30 10601 H 1017.9 -5.64188 0.413307 0
M  V30 10602 H 1016.46 -6.46119 0.858696 0
M  V30 10603 N 1019.89 -1.26353 -0.941956 0
M  V30 10604 C 1021.14 -1.11851 -1.68806 0
M  V30 10605 C 1021.46 0.33829 -1.91535 0
M  V30 10606 O 1020.72 1.26495 -1.49324 0
M  V30 10607 C 1021.02 -1.83195 -3.06879 0
M  V30 10608 C 1020.68 -3.33093 -3.03908 0
M  V30 10609 C 1019.35 -3.73982 -3.02805 0
M  V30 10610 C 1021.7 -4.28803 -2.96273 0
M  V30 10611 C 1019.03 -5.08971 -2.91832 0
M  V30 10612 C 1021.38 -5.6383 -2.86842 0
M  V30 10613 C 1020.04 -6.04032 -2.84081 0
M  V30 10614 H 1019.31 -0.409293 -0.617706 0
M  V30 10615 H 1021.96 -1.56785 -1.09957 0
M  V30 10616 H 1020.26 -1.30728 -3.69347 0
M  V30 10617 H 1021.96 -1.69416 -3.63455 0
M  V30 10618 H 1018.55 -3.00566 -3.05546 0
M  V30 10619 H 1022.74 -3.98195 -2.96234 0
M  V30 10620 H 1017.99 -5.39282 -2.88072 0
M  V30 10621 H 1022.17 -6.37676 -2.79898 0
M  V30 10622 H 1019.79 -7.08586 -2.75335 0
M  V30 10623 N 1021.37 1.14642 -1.08144 0
M  V30 10624 C 1022.64 1.81774 -0.72232 0
M  V30 10625 C 1023.02 1.95587 0.794294 0
M  V30 10626 O 1022.37 1.51361 1.71178 0
M  V30 10627 C 1022.58 3.1763 -1.44611 0
M  V30 10628 C 1023.93 3.93161 -1.60343 0
M  V30 10629 O 1024.95 3.2721 -1.40755 0
M  V30 10630 O 1023.81 5.11422 -1.9264 0
M  V30 10631 H 1020.91 0.785733 -0.257978 0
M  V30 10632 H 1023.45 1.21683 -1.18285 0
M  V30 10633 H 1022.23 3.02723 -2.4794 0
M  V30 10634 H 1021.85 3.85412 -0.976892 0
M  V30 10635 N 1022.85 0.866709 1.31628 0
M  V30 10636 C 1023.8 0.291712 2.26126 0
M  V30 10637 C 1024.78 -0.569375 1.50489 0
M  V30 10638 O 1025.97 -0.416786 1.72023 0
M  V30 10639 C 1023.1 -0.508624 3.39511 0
M  V30 10640 C 1022.19 0.365524 4.22522 0
M  V30 10641 N 1022.58 1.45747 4.84346 0
M  V30 10642 C 1020.88 0.157384 4.45722 0
M  V30 10643 C 1021.58 1.99625 5.46374 0
M  V30 10644 N 1020.55 1.29371 5.27981 0
M  V30 10645 H 1024.35 1.12633 2.71461 0
M  V30 10646 H 1021.87 0.714118 1.45857 0
M  V30 10647 H 1023.87 -0.937057 4.06233 0
M  V30 10648 H 1022.53 -1.34089 2.9572 0
M  V30 10649 H 1023.54 1.84039 4.84097 0
M  V30 10650 H 1020.21 -0.639193 4.12578 0
M  V30 10651 H 1021.6 2.91222 6.05508 0
M  V30 10652 N 1024.32 -1.44642 0.625825 0
M  V30 10653 C 1025.73 -1.85502 0.211175 0
M  V30 10654 C 1026.09 -1.52356 -1.2362 0
M  V30 10655 O 1025.21 -0.959051 -1.93988 0
M  V30 10656 C 1025.81 -3.36702 0.37648 0
M  V30 10657 C 1024.36 -3.76396 0.0163795 0
M  V30 10658 C 1023.51 -2.68517 0.692368 0
M  V30 10659 H 1026.46 -1.35183 0.831333 0
M  V30 10660 H 1026.48 -3.78536 -0.386106 0
M  V30 10661 H 1026 -3.60795 1.42999 0
M  V30 10662 H 1024.1 -3.57919 -1.0356 0
M  V30 10663 H 1024.21 -4.77231 0.422742 0
M  V30 10664 H 1022.57 -2.54377 0.128191 0
M  V30 10665 H 1023.36 -2.95444 1.74837 0
M  V30 10666 N 1025.8 -0.366053 -1.5329 0
M  V30 10667 C 1026.75 0.495319 -2.27265 0
M  V30 10668 C 1027.74 1.08298 -1.30261 0
M  V30 10669 O 1028.95 1.02613 -1.47887 0
M  V30 10670 H 1025.32 0.178454 -0.730519 0
M  V30 10671 H 1027.3 -0.150354 -2.98021 0
M  V30 10672 C 1026.04 1.62283 -3.07505 0
M  V30 10673 H 1025.37 1.17993 -3.81992 0
M  V30 10674 H 1026.81 2.20024 -3.62444 0
M  V30 10675 C 1025.27 2.56542 -2.18375 0
M  V30 10676 O 1025.8 3.59371 -1.79486 0
M  V30 10677 N 1024 2.25742 -1.82999 0
M  V30 10678 H 1023.55 1.42159 -2.14822 0
M  V30 10679 H 1023.51 2.89064 -1.2365 0
M  V30 10680 N 1027.28 1.57312 -0.0952337 0
M  V30 10681 C 1028.53 1.93533 0.568131 0
M  V30 10682 C 1028.84 0.979121 1.6933 0
M  V30 10683 O 1030.05 1.23506 2.41782 0
M  V30 10684 C 1028.5 3.43875 1.06198 0
M  V30 10685 C 1028.11 4.47988 -0.0334397 0
M  V30 10686 C 1029.86 3.89057 1.69807 0
M  V30 10687 C 1027.76 5.89483 0.475774 0
M  V30 10688 H 1026.69 0.7224 0.215995 0
M  V30 10689 H 1029.34 1.82699 -0.171257 0
M  V30 10690 H 1027.73 3.49862 1.85506 0
M  V30 10691 H 1028.9 4.53644 -0.808934 0
M  V30 10692 H 1027.21 4.12415 -0.574725 0
M  V30 10693 H 1029.81 4.92171 2.08978 0
M  V30 10694 H 1030.15 3.27713 2.5673 0
M  V30 10695 H 1030.69 3.85772 0.970815 0
M  V30 10696 H 1027.43 6.54528 -0.356837 0
M  V30 10697 H 1026.95 5.87297 1.21827 0
M  V30 10698 H 1028.63 6.40066 0.944697 0
M  V30 10699 N 1028.76 -0.17846 1.56586 0
M  V30 10700 C 1030.01 -0.894502 1.8078 0
M  V30 10701 C 1030.32 -1.8372 0.67129 0
M  V30 10702 O 1031.53 -2.59509 0.797971 0
M  V30 10703 C 1029.98 -1.64109 3.20306 0
M  V30 10704 C 1029.59 -0.742387 4.41806 0
M  V30 10705 C 1031.33 -2.34578 3.53798 0
M  V30 10706 C 1029.24 -1.4888 5.72354 0
M  V30 10707 H 1028.17 -0.33776 0.674117 0
M  V30 10708 H 1030.82 -0.14752 1.82906 0
M  V30 10709 H 1029.2 -2.43257 3.12477 0
M  V30 10710 H 1030.38 0.011615 4.60799 0
M  V30 10711 H 1028.69 -0.147705 4.16138 0
M  V30 10712 H 1031.29 -2.91004 4.48577 0
M  V30 10713 H 1031.63 -3.09572 2.78336 0
M  V30 10714 H 1032.17 -1.62381 3.63149 0
M  V30 10715 H 1028.9 -0.781325 6.50827 0
M  V30 10716 H 1028.42 -2.21631 5.57351 0
M  V30 10717 H 1030.1 -2.03819 6.14058 0
M  V30 10718 N 1030.24 -1.51135 -0.446768 0
M  V30 10719 C 1031.65 -1.39101 -0.782504 0
M  V30 10720 C 1031.85 -0.46599 -1.96038 0
M  V30 10721 O 1030.91 0.0823679 -2.52366 0
M  V30 10722 C 1032.22 -2.80953 -1.07173 0
M  V30 10723 C 1033.77 -2.90038 -1.17673 0
M  V30 10724 C 1034.24 -4.32777 -1.49894 0
M  V30 10725 N 1035.73 -4.3584 -1.56837 0
M  V30 10726 C 1036.47 -5.43305 -1.83322 0
M  V30 10727 N 1035.97 -6.60945 -2.07662 0
M  V30 10728 N 1037.76 -5.30775 -1.85026 0
M  V30 10729 H 1029.91 -2.09835 0.329114 0
M  V30 10730 H 1032.17 -0.944199 0.0848054 0
M  V30 10731 H 1031.88 -3.50591 -0.279037 0
M  V30 10732 H 1031.75 -3.197 -2.00179 0
M  V30 10733 H 1034.14 -2.20603 -1.96005 0
M  V30 10734 H 1034.22 -2.54801 -0.225892 0
M  V30 10735 H 1033.86 -5.02757 -0.720924 0
M  V30 10736 H 1033.79 -4.6552 -2.46168 0
M  V30 10737 H 1036.29 -3.51023 -1.39968 0
M  V30 10738 H 1036.6 -7.38643 -2.27214 0
M  V30 10739 H 1034.94 -6.64077 -2.05003 0
M  V30 10740 H 1038.13 -4.37858 -1.65523 0
M  V30 10741 H 1038.31 -6.14609 -2.05329 0
M  V30 10742 N 1031.71 0.701592 -1.41122 0
M  V30 10743 C 1032.64 1.82815 -1.45262 0
M  V30 10744 C 1033.62 1.67215 -0.311939 0
M  V30 10745 O 1034.81 1.87038 -0.522538 0
M  V30 10746 C 1031.94 3.20899 -1.32819 0
M  V30 10747 C 1030.89 3.51194 -2.44636 0
M  V30 10748 C 1030.22 4.8857 -2.17263 0
M  V30 10749 C 1031.52 3.50777 -3.86979 0
M  V30 10750 H 1033.21 1.79608 -2.39544 0
M  V30 10751 H 1030.76 0.862693 -1.15298 0
M  V30 10752 H 1032.71 3.99417 -1.34329 0
M  V30 10753 H 1031.44 3.24717 -0.350191 0
M  V30 10754 H 1030.1 2.75024 -2.42399 0
M  V30 10755 H 1029.74 4.89007 -1.17819 0
M  V30 10756 H 1029.44 5.09805 -2.92186 0
M  V30 10757 H 1030.97 5.69405 -2.20478 0
M  V30 10758 H 1032.38 4.19309 -3.90964 0
M  V30 10759 H 1030.78 3.83542 -4.61536 0
M  V30 10760 H 1031.85 2.49873 -4.15562 0
M  V30 10761 N 1033.19 1.2685 0.935242 0
M  V30 10762 C 1034.1 1.10716 2.06831 0
M  V30 10763 C 1035.12 0.0391222 1.73956 0
M  V30 10764 O 1036.29 0.244071 1.99916 0
M  V30 10765 C 1033.36 0.748093 3.38533 0
M  V30 10766 C 1032.42 1.89619 3.85153 0
M  V30 10767 C 1031.65 1.55416 5.1057 0
M  V30 10768 O 1031.88 0.458596 5.68553 0
M  V30 10769 O 1030.81 2.39087 5.52378 0
M  V30 10770 H 1034.64 2.05785 2.23352 0
M  V30 10771 H 1032.22 1.05967 1.05315 0
M  V30 10772 H 1034.1 0.560841 4.17651 0
M  V30 10773 H 1032.78 -0.173142 3.23237 0
M  V30 10774 H 1031.68 2.13845 3.06954 0
M  V30 10775 H 1033.02 2.79737 4.04979 0
M  V30 10776 N 1034.67 -1.14067 1.0875 0
M  V30 10777 C 1035.92 -1.84819 0.817698 0
M  V30 10778 C 1036.24 -1.83545 -0.658488 0
M  V30 10779 O 1035.51 -1.28633 -1.47751 0
M  V30 10780 H 1034.09 -0.68433 0.299502 0
M  V30 10781 H 1036.75 -1.38208 1.37421 0
M  V30 10782 H 1035.85 -2.89541 1.16501 0
M  V30 10783 N 1036.15 -0.873678 -1.31166 0
M  V30 10784 C 1037.39 -0.487178 -1.96861 0
M  V30 10785 C 1037.73 0.95887 -1.68877 0
M  V30 10786 O 1037 1.6758 -0.987279 0
M  V30 10787 C 1037.29 -0.74925 -3.52219 0
M  V30 10788 C 1037.14 -2.2451 -3.89763 0
M  V30 10789 C 1038.46 -0.218194 -4.39559 0
M  V30 10790 H 1035.58 -0.178477 -0.715063 0
M  V30 10791 H 1038.22 -1.0956 -1.55231 0
M  V30 10792 H 1036.37 -0.231403 -3.8781 0
M  V30 10793 H 1038.04 -2.83049 -3.64254 0
M  V30 10794 H 1036.28 -2.71621 -3.38237 0
M  V30 10795 H 1036.95 -2.37911 -4.98099 0
M  V30 10796 H 1039.43 -0.661274 -4.10812 0
M  V30 10797 H 1038.31 -0.430983 -5.47205 0
M  V30 10798 H 1038.57 0.880056 -4.33252 0
M  V30 10799 N 1037.63 1.44308 -0.633487 0
M  V30 10800 C 1038.87 2.02322 -0.139123 0
M  V30 10801 C 1039.21 1.49733 1.23667 0
M  V30 10802 O 1038.48 0.682353 1.82138 0
M  V30 10803 C 1038.76 3.59871 -0.128366 0
M  V30 10804 C 1038.62 4.22737 -1.53667 0
M  V30 10805 C 1039.94 4.36702 0.545834 0
M  V30 10806 H 1037.05 0.735161 -0.0520293 0
M  V30 10807 H 1039.7 1.7185 -0.810411 0
M  V30 10808 H 1037.85 3.85963 0.443263 0
M  V30 10809 H 1039.52 4.07744 -2.15737 0
M  V30 10810 H 1037.76 3.80142 -2.08985 0
M  V30 10811 H 1038.43 5.31757 -1.48116 0
M  V30 10812 H 1040.91 4.16057 0.0596879 0
M  V30 10813 H 1039.78 5.46407 0.522557 0
M  V30 10814 H 1040.05 4.11483 1.6166 0
M  V30 10815 N 1039.1 0.374177 1.53094 0
M  V30 10816 C 1040.33 -0.213325 2.05797 0
M  V30 10817 C 1040.75 -1.41753 1.24706 0
M  V30 10818 O 1040.1 -1.80183 0.289868 0
M  V30 10819 C 1040.16 -0.598367 3.56513 0
M  V30 10820 O 1039.88 0.557983 4.34532 0
M  V30 10821 C 1041.38 -1.24334 4.25507 0
M  V30 10822 H 1038.6 -0.0357398 0.670048 0
M  V30 10823 H 1041.14 0.535035 1.97377 0
M  V30 10824 H 1039.3 -1.29663 3.65056 0
M  V30 10825 H 1039.71 0.244911 5.23928 0
M  V30 10826 H 1041.18 -1.46325 5.32253 0
M  V30 10827 H 1041.66 -2.20622 3.79766 0
M  V30 10828 H 1042.27 -0.586269 4.2124 0
M  V30 10829 N 1040.58 -1.57259 0.103575 0
M  V30 10830 C 1042 -1.57581 -0.253062 0
M  V30 10831 C 1042.2 -1.11531 -1.67819 0
M  V30 10832 O 1041.25 -0.795632 -2.39637 0
M  V30 10833 C 1042.57 -3.00681 -0.0337753 0
M  V30 10834 C 1044.12 -3.12837 -0.10087 0
M  V30 10835 C 1044.59 -4.57911 0.0905295 0
M  V30 10836 N 1046.08 -4.63186 0.0359789 0
M  V30 10837 C 1046.82 -5.73179 0.159199 0
M  V30 10838 N 1046.31 -6.91976 0.337728 0
M  V30 10839 N 1048.11 -5.62011 0.0998662 0
M  V30 10840 H 1040.26 -1.85499 1.0346 0
M  V30 10841 H 1042.52 -0.856584 0.406163 0
M  V30 10842 H 1042.23 -3.38602 0.950858 0
M  V30 10843 H 1042.1 -3.69207 -0.772406 0
M  V30 10844 H 1044.49 -2.74783 -1.07601 0
M  V30 10845 H 1044.57 -2.46886 0.66939 0
M  V30 10846 H 1044.21 -4.9666 1.06258 0
M  V30 10847 H 1044.14 -5.21933 -0.699528 0
M  V30 10848 H 1046.63 -3.7777 -0.099121 0
M  V30 10849 H 1046.95 -7.71641 0.423032 0
M  V30 10850 H 1045.29 -6.93996 0.373504 0
M  V30 10851 H 1048.48 -4.68084 -0.0385356 0
M  V30 10852 H 1048.65 -6.47693 0.199342 0
M  V30 10853 N 1042.06 0.170153 -1.56679 0
M  V30 10854 C 1043.31 0.884841 -1.817 0
M  V30 10855 C 1043.63 1.82731 -0.680763 0
M  V30 10856 O 1042.9 1.936 0.299294 0
M  V30 10857 H 1041.48 0.329738 -0.670285 0
M  V30 10858 H 1044.14 0.169691 -1.9416 0
M  V30 10859 H 1043.24 1.46104 -2.7579 0
M  V30 10860 N 1043.54 1.5137 0.438746 0
M  V30 10861 C 1044.95 1.39514 0.775116 0
M  V30 10862 C 1045.15 0.47638 1.95788 0
M  V30 10863 O 1044.21 -0.0689832 2.52406 0
M  V30 10864 C 1045.52 2.81517 1.05681 0
M  V30 10865 C 1047.07 2.90658 1.16133 0
M  V30 10866 C 1047.55 4.33566 1.47597 0
M  V30 10867 N 1049.04 4.36665 1.54524 0
M  V30 10868 C 1049.77 5.4427 1.80438 0
M  V30 10869 N 1049.27 6.62037 2.04154 0
M  V30 10870 N 1051.06 5.31749 1.82208 0
M  V30 10871 H 1043.21 2.09657 -0.340237 0
M  V30 10872 H 1045.48 0.943736 -0.0898115 0
M  V30 10873 H 1045.18 3.50734 0.260441 0
M  V30 10874 H 1045.06 3.20757 1.98481 0
M  V30 10875 H 1047.44 2.2164 1.94833 0
M  V30 10876 H 1047.52 2.54917 0.212376 0
M  V30 10877 H 1047.17 5.03133 0.694251 0
M  V30 10878 H 1047.1 4.66819 2.43696 0
M  V30 10879 H 1049.59 3.51761 1.38105 0
M  V30 10880 H 1049.9 7.39838 2.23293 0
M  V30 10881 H 1048.25 6.65155 2.01479 0
M  V30 10882 H 1051.44 4.3873 1.63198 0
M  V30 10883 H 1051.61 6.15689 2.02067 0
M  V30 10884 N 1045.02 -0.694098 1.41492 0
M  V30 10885 C 1045.95 -1.82042 1.46229 0
M  V30 10886 C 1046.93 -1.67047 0.320803 0
M  V30 10887 O 1048.11 -1.86758 0.53245 0
M  V30 10888 C 1045.24 -3.2019 1.34519 0
M  V30 10889 C 1044.2 -3.49892 2.46495 0
M  V30 10890 C 1043.52 -4.87411 2.1985 0
M  V30 10891 C 1044.82 -3.4872 3.88834 0
M  V30 10892 H 1046.52 -1.78335 2.40493 0
M  V30 10893 H 1044.06 -0.856566 1.15754 0
M  V30 10894 H 1046.02 -3.98699 1.36445 0
M  V30 10895 H 1044.74 -3.24527 0.367406 0
M  V30 10896 H 1043.4 -2.73734 2.43854 0
M  V30 10897 H 1043.05 -4.88375 1.20411 0
M  V30 10898 H 1042.75 -5.08248 2.94885 0
M  V30 10899 H 1044.27 -5.68228 2.23494 0
M  V30 10900 H 1045.68 -4.1723 3.93182 0
M  V30 10901 H 1044.08 -3.81089 4.63564 0
M  V30 10902 H 1045.15 -2.47665 4.16881 0
M  V30 10903 N 1046.49 -1.27344 -0.928501 0
M  V30 10904 C 1047.46 -1.10043 -2.01055 0
M  V30 10905 C 1048.46 -0.0446793 -1.60738 0
M  V30 10906 O 1049.65 -0.289202 -1.71783 0
M  V30 10907 C 1046.78 -0.676559 -3.34119 0
M  V30 10908 H 1047.97 -2.06126 -2.17835 0
M  V30 10909 H 1045.53 -1.10121 -1.10919 0
M  V30 10910 H 1046.26 0.285697 -3.23039 0
M  V30 10911 H 1046.05 -1.43903 -3.64739 0
M  V30 10912 H 1047.54 -0.577725 -4.13584 0
M  V30 10913 N 1047.97 1.13488 -1.09353 0
M  V30 10914 C 1048.91 2.17951 -0.67622 0
M  V30 10915 C 1049.88 1.59482 0.316906 0
M  V30 10916 O 1051.07 1.8723 0.218459 0
M  V30 10917 C 1048.19 3.387 0.00391024 0
M  V30 10918 C 1047.24 4.15764 -0.950906 0
M  V30 10919 S 1048.07 4.75517 -2.46259 0
M  V30 10920 C 1049.23 5.99613 -1.79485 0
M  V30 10921 H 1049.46 2.53012 -1.56115 0
M  V30 10922 H 1047 1.24773 -0.909447 0
M  V30 10923 H 1048.95 4.08643 0.39002 0
M  V30 10924 H 1047.61 3.01941 0.86548 0
M  V30 10925 H 1046.81 5.02229 -0.422086 0
M  V30 10926 H 1046.41 3.51473 -1.27838 0
M  V30 10927 H 1048.7 6.68204 -1.11846 0
M  V30 10928 H 1049.64 6.57102 -2.63862 0
M  V30 10929 H 1050.05 5.50165 -1.26409 0
M  V30 10930 N 1049.45 0.880621 1.30701 0
M  V30 10931 C 1050.7 0.492957 1.95583 0
M  V30 10932 C 1051.01 -0.961863 1.70316 0
M  V30 10933 O 1052.22 -1.45617 2.29146 0
M  V30 10934 C 1050.68 0.830656 3.50183 0
M  V30 10935 C 1050.28 2.30295 3.84276 0
M  V30 10936 C 1052.03 0.511979 4.21401 0
M  V30 10937 C 1049.93 2.58251 5.32034 0
M  V30 10938 H 1048.86 0.18062 0.732047 0
M  V30 10939 H 1051.52 1.075 1.48715 0
M  V30 10940 H 1049.9 0.177752 3.95601 0
M  V30 10941 H 1051.07 2.99981 3.49783 0
M  V30 10942 H 1049.39 2.58873 3.2615 0
M  V30 10943 H 1051.98 0.697935 5.30125 0
M  V30 10944 H 1052.33 -0.548327 4.12673 0
M  V30 10945 H 1052.86 1.12189 3.81652 0
M  V30 10946 H 1049.6 3.63005 5.45809 0
M  V30 10947 H 1049.12 1.9317 5.67843 0
M  V30 10948 H 1050.8 2.43527 5.99419 0
M  V30 10949 N 1050.93 -1.4397 0.641131 0
M  V30 10950 C 1052.18 -2.02246 0.14985 0
M  V30 10951 C 1052.51 -1.50387 -1.22871 0
M  V30 10952 O 1051.78 -0.692003 -1.81773 0
M  V30 10953 C 1052.07 -3.59798 0.147449 0
M  V30 10954 C 1051.92 -4.21916 1.55907 0
M  V30 10955 C 1053.24 -4.36985 -0.522667 0
M  V30 10956 H 1050.36 -0.734875 0.0559274 0
M  V30 10957 H 1053 -1.71418 0.819513 0
M  V30 10958 H 1051.15 -3.86193 -0.422789 0
M  V30 10959 H 1052.82 -4.06594 2.17896 0
M  V30 10960 H 1051.06 -3.79028 2.10998 0
M  V30 10961 H 1051.74 -5.30964 1.50934 0
M  V30 10962 H 1054.21 -4.16083 -0.0376226 0
M  V30 10963 H 1053.09 -5.46676 -0.493572 0
M  V30 10964 H 1053.35 -4.12335 -1.59475 0
M  V30 10965 N 1052.41 -0.382291 -1.52893 0
M  V30 10966 C 1053.64 0.202408 -2.05908 0
M  V30 10967 C 1054.05 1.4109 -1.25456 0
M  V30 10968 O 1053.41 1.80027 -0.29942 0
M  V30 10969 C 1053.46 0.579452 -3.56826 0
M  V30 10970 O 1053.18 -0.58102 -4.3423 0
M  V30 10971 C 1054.68 1.22076 -4.2616 0
M  V30 10972 H 1051.9 0.0321859 -0.670228 0
M  V30 10973 H 1054.44 -0.545494 -1.9709 0
M  V30 10974 H 1052.6 1.27726 -3.65739 0
M  V30 10975 H 1053.01 -0.272693 -5.23791 0
M  V30 10976 H 1054.49 1.435 -5.33021 0
M  V30 10977 H 1054.96 2.18605 -3.80931 0
M  V30 10978 H 1055.57 0.563922 -4.21545 0
M  V30 10979 N 1053.89 1.57202 -0.111913 0
M  V30 10980 C 1054.8 2.18475 0.854753 0
M  V30 10981 C 1055.81 1.15888 1.29792 0
M  V30 10982 O 1056.99 1.48329 1.36237 0
M  V30 10983 C 1054.05 2.76645 2.0897 0
M  V30 10984 C 1053.11 3.94244 1.69913 0
M  V30 10985 C 1052.35 4.49631 2.8752 0
M  V30 10986 O 1052.57 4.03926 4.02741 0
M  V30 10987 O 1051.5 5.40417 2.65015 0
M  V30 10988 H 1055.33 3.01519 0.363352 0
M  V30 10989 H 1052.91 1.4897 0.113329 0
M  V30 10990 H 1054.8 3.13755 2.81311 0
M  V30 10991 H 1053.47 1.96637 2.5713 0
M  V30 10992 H 1052.38 3.61915 0.947013 0
M  V30 10993 H 1053.71 4.75666 1.26501 0
M  V30 10994 N 1055.36 -0.161842 1.56767 0
M  V30 10995 C 1056.59 -0.890953 1.86402 0
M  V30 10996 C 1057 -1.75918 0.696373 0
M  V30 10997 O 1056.34 -1.80461 -0.343463 0
M  V30 10998 C 1056.41 -1.81079 3.10565 0
M  V30 10999 C 1056.07 -1.12121 4.43032 0
M  V30 11000 C 1057.07 -0.482152 5.17659 0
M  V30 11001 C 1054.75 -1.11514 4.89765 0
M  V30 11002 C 1056.75 0.153772 6.37214 0
M  V30 11003 C 1054.43 -0.4754 6.09248 0
M  V30 11004 C 1055.43 0.157944 6.82817 0
M  V30 11005 O 1055.12 0.787579 8.00033 0
M  V30 11006 H 1054.85 -0.26379 0.622407 0
M  V30 11007 H 1057.41 -0.163884 2.04745 0
M  V30 11008 H 1055.64 -2.57842 2.88192 0
M  V30 11009 H 1057.32 -2.41056 3.26568 0
M  V30 11010 H 1058.09 -0.478752 4.82631 0
M  V30 11011 H 1053.97 -1.59752 4.32435 0
M  V30 11012 H 1057.51 0.648716 6.94577 0
M  V30 11013 H 1053.41 -0.476416 6.43739 0
M  V30 11014 H 1054.18 0.687769 8.15605 0
M  V30 11015 N 1056.84 -1.516 -0.430713 0
M  V30 11016 C 1057.77 -1.68084 -1.54347 0
M  V30 11017 C 1058.75 -0.528401 -1.53775 0
M  V30 11018 O 1059.94 -0.753072 -1.72804 0
M  V30 11019 C 1057.06 -1.70048 -2.92919 0
M  V30 11020 C 1056.11 -2.91336 -3.11489 0
M  V30 11021 S 1056.94 -4.52043 -2.87084 0
M  V30 11022 C 1058.1 -4.56761 -4.27926 0
M  V30 11023 H 1058.33 -2.62203 -1.40131 0
M  V30 11024 H 1055.86 -1.41368 -0.620853 0
M  V30 11025 H 1057.82 -1.71864 -3.72791 0
M  V30 11026 H 1056.48 -0.770946 -3.04492 0
M  V30 11027 H 1055.68 -2.8913 -4.1282 0
M  V30 11028 H 1055.28 -2.87296 -2.39451 0
M  V30 11029 H 1057.57 -4.32809 -5.21232 0
M  V30 11030 H 1058.51 -5.58604 -4.35163 0
M  V30 11031 H 1058.92 -3.86014 -4.1189 0
M  V30 11032 N 1058.32 0.686584 -1.41858 0
M  V30 11033 C 1059.23 1.83002 -1.46791 0
M  V30 11034 C 1060.25 1.70284 -0.357675 0
M  V30 11035 O 1061.42 1.92042 -0.606781 0
M  V30 11036 C 1058.49 3.19056 -1.35661 0
M  V30 11037 C 1057.55 3.43817 -2.57077 0
M  V30 11038 C 1056.78 4.7338 -2.46469 0
M  V30 11039 O 1057 5.50483 -1.49413 0
M  V30 11040 O 1055.94 4.99124 -3.36391 0
M  V30 11041 H 1059.76 1.81797 -2.43277 0
M  V30 11042 H 1057.35 0.840812 -1.23494 0
M  V30 11043 H 1059.23 4.00267 -1.31773 0
M  V30 11044 H 1057.91 3.20925 -0.422951 0
M  V30 11045 H 1056.81 2.625 -2.66541 0
M  V30 11046 H 1058.15 3.4677 -3.49302 0
M  V30 11047 N 1059.8 1.27835 0.921735 0
M  V30 11048 C 1060.75 1.1092 2.04449 0
M  V30 11049 C 1061.74 0.0306469 1.69372 0
M  V30 11050 O 1062.95 0.188818 1.79007 0
M  V30 11051 H 1059.32 0.341973 0.669745 0
M  V30 11052 H 1061.29 2.06026 2.1586 0
M  V30 11053 C 1060.04 0.779443 3.38851 0
M  V30 11054 H 1059.36 1.60131 3.66331 0
M  V30 11055 H 1060.8 0.700999 4.18165 0
M  V30 11056 C 1059.26 -0.51647 3.32918 0
M  V30 11057 O 1059.79 -1.54914 3.70627 0
M  V30 11058 N 1058 -0.514276 2.86013 0
M  V30 11059 H 1057.55 0.32651 2.55522 0
M  V30 11060 H 1057.5 -1.38141 2.82426 0
M  V30 11061 N 1061.28 -1.12907 1.09954 0
M  V30 11062 C 1062.52 -1.83941 0.837255 0
M  V30 11063 C 1062.84 -1.84234 -0.638984 0
M  V30 11064 O 1062.11 -1.30193 -1.46378 0
M  V30 11065 H 1060.69 -0.681115 0.306743 0
M  V30 11066 H 1063.36 -1.36743 1.38879 0
M  V30 11067 H 1062.45 -2.88289 1.19565 0
M  V30 11068 N 1062.75 -0.88754 -1.30232 0
M  V30 11069 C 1063.98 -0.521562 -2.00735 0
M  V30 11070 C 1064.4 0.883247 -1.66073 0
M  V30 11071 O 1063.76 1.58581 -0.878731 0
M  V30 11072 C 1063.81 -0.706521 -3.53611 0
M  V30 11073 O 1062.91 0.246447 -4.11663 0
M  V30 11074 H 1062.25 -0.205216 -0.631492 0
M  V30 11075 H 1064.78 -1.19579 -1.66018 0
M  V30 11076 H 1064.79 -0.606501 -4.03467 0
M  V30 11077 H 1063.47 -1.73076 -3.78177 0
M  V30 11078 H 1062.05 0.0999062 -3.72766 0
M  V30 11079 N 1064.23 1.43628 -0.648757 0
M  V30 11080 C 1065.16 2.33478 0.0320785 0
M  V30 11081 C 1066.14 1.49217 0.816605 0
M  V30 11082 O 1067.33 1.77892 0.778974 0
M  V30 11083 C 1064.46 3.32525 1.00222 0
M  V30 11084 C 1063.41 4.2674 0.328119 0
M  V30 11085 C 1062.74 5.15791 1.4094 0
M  V30 11086 C 1064.04 5.16493 -0.776701 0
M  V30 11087 H 1065.73 2.90657 -0.718257 0
M  V30 11088 H 1063.28 1.3976 -0.346852 0
M  V30 11089 H 1065.23 3.94277 1.4874 0
M  V30 11090 H 1063.96 2.73593 1.78366 0
M  V30 11091 H 1062.61 3.66346 -0.136569 0
M  V30 11092 H 1062.26 4.53201 2.18216 0
M  V30 11093 H 1061.96 5.79645 0.963631 0
M  V30 11094 H 1063.49 5.80416 1.89603 0
M  V30 11095 H 1064.9 5.7208 -0.373878 0
M  V30 11096 H 1063.3 5.89043 -1.14667 0
M  V30 11097 H 1064.37 4.56448 -1.63654 0
M  V30 11098 N 1065.71 0.390394 1.52688 0
M  V30 11099 C 1066.99 -0.249068 1.94008 0
M  V30 11100 C 1067.37 -1.64263 1.32593 0
M  V30 11101 O 1066.72 -2.23086 0.494448 0
M  V30 11102 C 1066.93 -0.274318 3.4792 0
M  V30 11103 C 1068.27 -0.502743 4.21613 0
M  V30 11104 O 1069.3 -0.35448 3.54432 0
M  V30 11105 O 1068.16 -0.79334 5.40711 0
M  V30 11106 H 1065.25 -0.155116 0.812323 0
M  V30 11107 H 1067.8 0.44498 1.63762 0
M  V30 11108 H 1066.57 0.701766 3.84956 0
M  V30 11109 H 1066.19 -1.01324 3.84473 0
M  V30 11110 N 1067.19 -1.57141 0.120249 0
M  V30 11111 C 1068.42 -1.99589 -0.545136 0
M  V30 11112 C 1068.83 -0.999951 -1.60145 0
M  V30 11113 O 1068.19 0.00698897 -1.82499 0
M  V30 11114 C 1068.24 -3.42038 -1.17014 0
M  V30 11115 O 1067.96 -4.37822 -0.156044 0
M  V30 11116 C 1069.46 -3.99625 -1.91872 0
M  V30 11117 H 1066.68 -0.655318 -0.144222 0
M  V30 11118 H 1069.23 -2.0345 0.206955 0
M  V30 11119 H 1067.38 -3.39113 -1.873 0
M  V30 11120 H 1067.79 -5.20937 -0.610317 0
M  V30 11121 H 1069.27 -5.01374 -2.30928 0
M  V30 11122 H 1069.75 -3.38836 -2.7944 0
M  V30 11123 H 1070.35 -4.061 -1.26345 0
M  V30 11124 N 1068.67 0.153526 -1.5685 0
M  V30 11125 C 1069.91 0.867232 -1.8299 0
M  V30 11126 C 1070.24 1.81462 -0.700125 0
M  V30 11127 O 1069.5 1.93207 0.311348 0
M  V30 11128 C 1069.8 1.68066 -3.15418 0
M  V30 11129 C 1069.46 0.880635 -4.42217 0
M  V30 11130 C 1068.12 0.659899 -4.76654 0
M  V30 11131 C 1070.48 0.320698 -5.20212 0
M  V30 11132 C 1067.8 -0.131588 -5.86552 0
M  V30 11133 C 1070.16 -0.457794 -6.30941 0
M  V30 11134 C 1068.82 -0.689168 -6.63933 0
M  V30 11135 H 1068.09 0.317343 -0.669608 0
M  V30 11136 H 1070.74 0.131208 -1.9105 0
M  V30 11137 H 1069.04 2.4866 -3.02779 0
M  V30 11138 H 1070.74 2.23623 -3.32857 0
M  V30 11139 H 1067.33 1.06274 -4.15215 0
M  V30 11140 H 1071.51 0.47853 -4.93988 0
M  V30 11141 H 1066.77 -0.320413 -6.1056 0
M  V30 11142 H 1070.94 -0.898839 -6.90575 0
M  V30 11143 H 1068.57 -1.30433 -7.48927 0
M  V30 11144 N 1070.14 1.51827 0.422667 0
M  V30 11145 C 1071.07 1.77152 1.52117 0
M  V30 11146 C 1072.06 0.621895 1.58324 0
M  V30 11147 O 1073.24 0.866118 1.73816 0
M  V30 11148 C 1070.37 1.90991 2.90068 0
M  V30 11149 C 1069.32 3.06516 2.98717 0
M  V30 11150 C 1068.65 3.05559 4.38791 0
M  V30 11151 C 1069.95 4.46223 2.71445 0
M  V30 11152 H 1071.64 2.69135 1.31175 0
M  V30 11153 H 1069.19 1.29507 0.629607 0
M  V30 11154 H 1071.14 2.07291 3.6689 0
M  V30 11155 H 1069.87 0.956688 3.12274 0
M  V30 11156 H 1068.53 2.89945 2.24338 0
M  V30 11157 H 1068.17 2.07985 4.57986 0
M  V30 11158 H 1067.87 3.83144 4.45505 0
M  V30 11159 H 1069.4 3.23971 5.17566 0
M  V30 11160 H 1070.81 4.63069 3.37994 0
M  V30 11161 H 1069.21 5.25623 2.89552 0
M  V30 11162 H 1070.28 4.5525 1.6696 0
M  V30 11163 N 1071.62 -0.679052 1.4222 0
M  V30 11164 C 1073.04 -0.991665 1.25053 0
M  V30 11165 C 1073.24 -2.00928 0.151665 0
M  V30 11166 O 1072.29 -2.47925 -0.478507 0
M  V30 11167 C 1073.61 -1.50053 2.60585 0
M  V30 11168 C 1075.16 -1.61852 2.67905 0
M  V30 11169 C 1075.63 -2.16135 4.03794 0
M  V30 11170 N 1077.12 -2.23474 4.05726 0
M  V30 11171 C 1077.86 -2.66541 5.07685 0
M  V30 11172 N 1077.35 -3.09092 6.20028 0
M  V30 11173 N 1079.15 -2.66252 4.95042 0
M  V30 11174 H 1071.3 -0.00521851 2.12399 0
M  V30 11175 H 1073.56 -0.0648465 0.94578 0
M  V30 11176 H 1073.27 -0.82731 3.41831 0
M  V30 11177 H 1073.14 -2.47998 2.84213 0
M  V30 11178 H 1075.53 -2.28281 1.87008 0
M  V30 11179 H 1075.61 -0.624074 2.4807 0
M  V30 11180 H 1075.25 -1.50316 4.85147 0
M  V30 11181 H 1075.18 -3.16363 4.20978 0
M  V30 11182 H 1077.67 -1.93467 3.24621 0
M  V30 11183 H 1077.99 -3.40627 6.93681 0
M  V30 11184 H 1076.33 -3.06959 6.23539 0
M  V30 11185 H 1079.52 -2.32369 4.06352 0
M  V30 11186 H 1079.69 -2.99496 5.74636 0
M  V30 11187 N 1073.1 -1.28322 -0.914942 0
M  V30 11188 C 1074.33 -1.18254 -1.69775 0
M  V30 11189 C 1074.74 0.258978 -1.87015 0
M  V30 11190 O 1074.1 1.17514 -1.3963 0
M  V30 11191 C 1074.15 -1.8753 -3.09054 0
M  V30 11192 O 1073.87 -3.26051 -2.92613 0
M  V30 11193 C 1075.37 -1.83749 -4.03424 0
M  V30 11194 H 1072.59 -0.41055 -0.530744 0
M  V30 11195 H 1075.14 -1.69425 -1.14523 0
M  V30 11196 H 1073.29 -1.40233 -3.61128 0
M  V30 11197 H 1073.71 -3.60729 -3.80756 0
M  V30 11198 H 1075.18 -2.36813 -4.98622 0
M  V30 11199 H 1075.66 -0.809601 -4.31674 0
M  V30 11200 H 1076.26 -2.3072 -3.57279 0
M  V30 11201 N 1074.58 1.12322 -1.10551 0
M  V30 11202 C 1075.53 2.16177 -0.724679 0
M  V30 11203 C 1076.51 1.58674 0.266739 0
M  V30 11204 O 1077.7 1.7684 0.0752872 0
M  V30 11205 C 1074.83 3.4293 -0.159413 0
M  V30 11206 C 1073.92 4.07413 -1.17794 0
M  V30 11207 N 1074.31 4.46889 -2.36905 0
M  V30 11208 C 1072.61 4.34209 -1.01874 0
M  V30 11209 C 1073.31 4.97291 -3.01789 0
M  V30 11210 N 1072.29 4.92871 -2.29302 0
M  V30 11211 H 1076.09 2.44466 -1.63136 0
M  V30 11212 H 1073.6 1.2924 -0.983407 0
M  V30 11213 H 1075.6 4.16693 0.131502 0
M  V30 11214 H 1074.26 3.16109 0.741975 0
M  V30 11215 H 1075.27 4.39219 -2.74422 0
M  V30 11216 H 1071.95 4.17141 -0.173013 0
M  V30 11217 H 1073.34 5.3754 -4.03114 0
M  V30 11218 N 1076.06 0.894434 1.2976 0
M  V30 11219 C 1077.33 0.437365 1.90648 0
M  V30 11220 C 1077.71 -1.08261 1.81226 0
M  V30 11221 O 1077.06 -1.92213 1.23557 0
M  V30 11222 C 1077.27 0.946047 3.35933 0
M  V30 11223 C 1078.62 0.986621 4.12978 0
M  V30 11224 O 1079.64 0.893356 3.44815 0
M  V30 11225 O 1078.5 1.12591 5.34776 0
M  V30 11226 H 1075.6 0.135436 0.815835 0
M  V30 11227 H 1078.14 0.983955 1.38262 0
M  V30 11228 H 1076.91 1.98998 3.3692 0
M  V30 11229 H 1076.54 0.379164 3.95788 0
M  V30 11230 N 1077.53 -1.43282 0.656365 0
M  V30 11231 C 1078.78 -2.01378 0.170702 0
M  V30 11232 C 1079.1 -1.52063 -1.22073 0
M  V30 11233 O 1078.37 -0.73456 -1.81607 0
M  V30 11234 H 1076.95 -0.744577 0.0601168 0
M  V30 11235 H 1079.62 -1.75449 0.848739 0
M  V30 11236 H 1078.71 -3.11701 0.157745 0
M  V30 11237 N 1079.01 -0.398486 -1.52479 0
M  V30 11238 C 1079.95 0.467426 -2.24383 0
M  V30 11239 C 1080.96 1.01908 -1.26959 0
M  V30 11240 O 1082.15 0.919843 -1.52974 0
M  V30 11241 C 1079.25 1.66146 -2.95379 0
M  V30 11242 C 1078.42 1.23557 -4.19586 0
M  V30 11243 C 1077.48 2.29532 -4.73499 0
M  V30 11244 O 1076.51 1.90561 -5.36354 0
M  V30 11245 N 1077.71 3.61564 -4.5415 0
M  V30 11246 H 1080.47 -0.148653 -2.99331 0
M  V30 11247 H 1078.03 -0.225313 -1.60325 0
M  V30 11248 H 1080.03 2.36585 -3.28344 0
M  V30 11249 H 1078.6 2.18369 -2.23682 0
M  V30 11250 H 1077.82 0.359715 -3.92555 0
M  V30 11251 H 1079.1 0.927812 -5.00269 0
M  V30 11252 H 1078.5 3.95983 -4.03998 0
M  V30 11253 H 1077.06 4.2801 -4.9158 0
M  V30 11254 N 1080.49 1.57075 -0.12858 0
M  V30 11255 C 1081.74 1.9552 0.527087 0
M  V30 11256 C 1082.07 1.01243 1.66072 0
M  V30 11257 O 1081.32 0.0381076 1.95663 0
M  V30 11258 C 1081.62 3.40329 1.09138 0
M  V30 11259 C 1081.29 4.50832 0.0781039 0
M  V30 11260 C 1079.95 4.80782 -0.200493 0
M  V30 11261 C 1082.3 5.17595 -0.61192 0
M  V30 11262 C 1079.63 5.74809 -1.17524 0
M  V30 11263 C 1081.98 6.12671 -1.57536 0
M  V30 11264 C 1080.64 6.41008 -1.86184 0
M  V30 11265 H 1079.91 0.715458 0.192875 0
M  V30 11266 H 1082.56 1.90328 -0.211515 0
M  V30 11267 H 1080.87 3.42262 1.90694 0
M  V30 11268 H 1082.56 3.67393 1.60696 0
M  V30 11269 H 1079.15 4.2751 0.30543 0
M  V30 11270 H 1083.34 4.94605 -0.40986 0
M  V30 11271 H 1078.59 5.95065 -1.40384 0
M  V30 11272 H 1082.77 6.63486 -2.11565 0
M  V30 11273 H 1080.39 7.13673 -2.61868 0
M  V30 11274 N 1081.97 -0.145205 1.5693 0
M  V30 11275 C 1083.2 -0.872398 1.87608 0
M  V30 11276 C 1083.61 -1.74657 0.716975 0
M  V30 11277 O 1082.97 -1.79792 -0.3132 0
M  V30 11278 C 1083.02 -1.72762 3.17546 0
M  V30 11279 O 1082.74 -0.888681 4.28992 0
M  V30 11280 C 1084.24 -2.56224 3.61751 0
M  V30 11281 H 1081.46 -0.252166 0.621815 0
M  V30 11282 H 1084.01 -0.137456 2.04038 0
M  V30 11283 H 1082.16 -2.41561 3.02865 0
M  V30 11284 H 1082.58 -1.47601 5.03303 0
M  V30 11285 H 1084.05 -3.11804 4.55502 0
M  V30 11286 H 1084.53 -3.32347 2.87127 0
M  V30 11287 H 1085.13 -1.92714 3.79133 0
M  V30 11288 N 1083.45 -1.52049 -0.414609 0
M  V30 11289 C 1084.7 -1.65067 -1.15912 0
M  V30 11290 C 1085.01 -0.383969 -1.91794 0
M  V30 11291 O 1086.22 -0.393872 -2.68628 0
M  V30 11292 C 1084.67 -2.91611 -2.1093 0
M  V30 11293 C 1084.28 -4.25369 -1.4059 0
M  V30 11294 C 1086.02 -3.13992 -2.85674 0
M  V30 11295 C 1083.93 -5.43041 -2.34223 0
M  V30 11296 H 1082.86 -0.614884 -0.436387 0
M  V30 11297 H 1085.51 -1.78533 -0.424072 0
M  V30 11298 H 1083.89 -2.71831 -2.87965 0
M  V30 11299 H 1085.07 -4.55611 -0.689568 0
M  V30 11300 H 1083.38 -4.09047 -0.779088 0
M  V30 11301 H 1085.98 -3.99082 -3.55861 0
M  V30 11302 H 1086.32 -2.27998 -3.48314 0
M  V30 11303 H 1086.86 -3.34217 -2.1574 0
M  V30 11304 H 1083.59 -6.31364 -1.76238 0
M  V30 11305 H 1083.11 -5.17144 -3.03845 0
M  V30 11306 H 1084.79 -5.75901 -2.94868 0
M  V30 11307 N 1084.93 0.6715 -1.42579 0
M  V30 11308 C 1085.86 1.79625 -1.40749 0
M  V30 11309 C 1086.84 1.6032 -0.271312 0
M  V30 11310 O 1088.02 1.82749 -0.46205 0
M  V30 11311 C 1085.15 3.16672 -1.20153 0
M  V30 11312 C 1084.19 3.54718 -2.36807 0
M  V30 11313 S 1085.03 3.56771 -3.99343 0
M  V30 11314 C 1086.18 4.96505 -3.81095 0
M  V30 11315 H 1086.42 1.80903 -2.35926 0
M  V30 11316 H 1083.95 0.842469 -1.2939 0
M  V30 11317 H 1085.91 3.95776 -1.08956 0
M  V30 11318 H 1084.57 3.12976 -0.265545 0
M  V30 11319 H 1083.76 4.54341 -2.18152 0
M  V30 11320 H 1083.36 2.82982 -2.44535 0
M  V30 11321 H 1085.65 5.84674 -3.4229 0
M  V30 11322 H 1086.6 5.20207 -4.80406 0
M  V30 11323 H 1087.01 4.69178 -3.13898 0
M  V30 11324 N 1086.4 1.28806 0.908124 0
M  V30 11325 C 1087.34 1.09018 2.01613 0
M  V30 11326 C 1088.35 0.0402059 1.6275 0
M  V30 11327 O 1089.54 0.283853 1.76229 0
M  V30 11328 C 1086.64 0.635712 3.32884 0
M  V30 11329 C 1085.81 1.76235 4.00325 0
M  V30 11330 C 1084.87 1.3003 5.09881 0
M  V30 11331 O 1083.9 2.00354 5.32773 0
M  V30 11332 N 1085.1 0.166575 5.80261 0
M  V30 11333 H 1087.86 2.0444 2.19144 0
M  V30 11334 H 1085.42 1.20633 1.07978 0
M  V30 11335 H 1087.42 0.310097 4.0351 0
M  V30 11336 H 1085.99 -0.225816 3.11783 0
M  V30 11337 H 1085.21 2.25727 3.23173 0
M  V30 11338 H 1086.49 2.51796 4.42127 0
M  V30 11339 H 1085.89 -0.419934 5.64139 0
M  V30 11340 H 1084.45 -0.0997281 6.51724 0
M  V30 11341 N 1087.88 -1.11734 1.11145 0
M  V30 11342 C 1088.81 -2.1976 0.789152 0
M  V30 11343 C 1089.79 -1.68382 -0.241143 0
M  V30 11344 O 1090.98 -1.93914 -0.105292 0
M  V30 11345 C 1088.11 -3.46549 0.228204 0
M  V30 11346 C 1087.06 -4.11123 1.19002 0
M  V30 11347 C 1086.39 -5.32451 0.489928 0
M  V30 11348 C 1087.69 -4.56406 2.53951 0
M  V30 11349 H 1089.38 -2.46978 1.69241 0
M  V30 11350 H 1086.93 -1.18705 0.81517 0
M  V30 11351 H 1088.88 -4.21399 -0.00945908 0
M  V30 11352 H 1087.6 -3.18782 -0.71033 0
M  V30 11353 H 1086.26 -3.38264 1.41326 0
M  V30 11354 H 1085.91 -5.00953 -0.453315 0
M  V30 11355 H 1085.61 -5.76605 1.1314 0
M  V30 11356 H 1087.14 -6.10042 0.260984 0
M  V30 11357 H 1088.55 -5.22592 2.35733 0
M  V30 11358 H 1086.95 -5.11363 3.14051 0
M  V30 11359 H 1088.02 -3.7001 3.13402 0
M  V30 11360 N 1089.36 -0.901303 -1.29284 0
M  V30 11361 C 1090.61 -0.528826 -1.95784 0
M  V30 11362 C 1090.94 0.922833 -1.70873 0
M  V30 11363 O 1090.21 1.65448 -1.0226 0
M  V30 11364 C 1090.5 -0.823793 -3.50551 0
M  V30 11365 C 1090.35 -2.32727 -3.84913 0
M  V30 11366 C 1091.67 -0.311382 -4.38997 0
M  V30 11367 H 1088.79 -0.193604 -0.711116 0
M  V30 11368 H 1091.43 -1.12828 -1.52872 0
M  V30 11369 H 1089.58 -0.313612 -3.87232 0
M  V30 11370 H 1091.25 -2.90712 -3.58168 0
M  V30 11371 H 1089.49 -2.78735 -3.32399 0
M  V30 11372 H 1090.17 -2.48423 -4.9294 0
M  V30 11373 H 1092.64 -0.748265 -4.09317 0
M  V30 11374 H 1091.52 -0.546957 -5.46168 0
M  V30 11375 H 1091.78 0.787959 -4.35021 0
M  V30 11376 N 1090.84 1.42931 -0.663954 0
M  V30 11377 C 1092.09 2.01284 -0.181379 0
M  V30 11378 C 1092.41 1.52708 1.21265 0
M  V30 11379 O 1091.68 0.744181 1.81215 0
M  V30 11380 H 1090.26 0.744248 -0.0640646 0
M  V30 11381 H 1092.92 1.74997 -0.858031 0
M  V30 11382 H 1092.01 3.11613 -0.174273 0
M  V30 11383 N 1092.32 0.406567 1.52266 0
M  V30 11384 C 1093.25 -0.464709 2.23418 0
M  V30 11385 C 1094.23 -1.05008 1.24146 0
M  V30 11386 O 1095.41 -1.09843 1.53188 0
M  V30 11387 C 1092.54 -1.64481 2.96081 0
M  V30 11388 C 1091.58 -1.18307 4.09763 0
M  V30 11389 S 1092.42 -0.150326 5.35289 0
M  V30 11390 C 1093.57 -1.3358 6.11479 0
M  V30 11391 H 1093.81 0.139455 2.96973 0
M  V30 11392 H 1091.34 0.19085 1.53216 0
M  V30 11393 H 1093.3 -2.3215 3.38551 0
M  V30 11394 H 1091.96 -2.22031 2.22174 0
M  V30 11395 H 1091.15 -2.06466 4.59769 0
M  V30 11396 H 1090.75 -0.58505 3.69396 0
M  V30 11397 H 1093.04 -2.25986 6.38699 0
M  V30 11398 H 1093.99 -0.876328 7.02656 0
M  V30 11399 H 1094.4 -1.56044 5.42504 0
M  V30 11400 N 1093.79 -1.57004 0.136909 0
M  V30 11401 C 1094.72 -2.19262 -0.802902 0
M  V30 11402 C 1095.71 -1.13786 -1.26439 0
M  V30 11403 O 1096.89 -1.42091 -1.32377 0
M  V30 11404 C 1094.02 -2.80624 -2.04615 0
M  V30 11405 C 1092.97 -3.91839 -1.72181 0
M  V30 11406 C 1092.3 -4.4009 -3.03686 0
M  V30 11407 C 1093.6 -5.13095 -0.976249 0
M  V30 11408 H 1095.29 -2.98049 -0.28406 0
M  V30 11409 H 1092.84 -1.43364 -0.135189 0
M  V30 11410 H 1094.79 -3.22842 -2.70834 0
M  V30 11411 H 1093.52 -1.99153 -2.58855 0
M  V30 11412 H 1092.18 -3.50224 -1.08344 0
M  V30 11413 H 1091.82 -3.55454 -3.55896 0
M  V30 11414 H 1091.52 -5.15098 -2.82751 0
M  V30 11415 H 1093.05 -4.84971 -3.70993 0
M  V30 11416 H 1094.46 -5.5222 -1.54033 0
M  V30 11417 H 1092.86 -5.93801 -0.867214 0
M  V30 11418 H 1093.93 -4.84888 0.0338488 0
M  V30 11419 N 1095.27 0.136881 -1.57004 0
M  V30 11420 C 1096.69 0.489856 -1.51897 0
M  V30 11421 C 1096.89 1.82833 -0.847009 0
M  V30 11422 O 1095.94 2.48952 -0.421792 0
M  V30 11423 C 1097.26 0.490831 -2.96667 0
M  V30 11424 C 1098.81 0.575639 -3.07661 0
M  V30 11425 C 1099.28 0.607178 -4.53957 0
M  V30 11426 N 1100.77 0.66912 -4.58342 0
M  V30 11427 C 1101.51 0.714675 -5.68929 0
M  V30 11428 N 1101 0.718959 -6.89059 0
M  V30 11429 N 1102.8 0.756326 -5.56988 0
M  V30 11430 H 1094.95 -0.740347 -1.99079 0
M  V30 11431 H 1097.21 -0.271116 -0.908405 0
M  V30 11432 H 1096.92 -0.424648 -3.49127 0
M  V30 11433 H 1096.79 1.32512 -3.53158 0
M  V30 11434 H 1099.18 1.48154 -2.55215 0
M  V30 11435 H 1099.26 -0.285991 -2.54196 0
M  V30 11436 H 1098.9 -0.294604 -5.07045 0
M  V30 11437 H 1098.83 1.48544 -5.05215 0
M  V30 11438 H 1101.32 0.672697 -3.71864 0
M  V30 11439 H 1101.64 0.755848 -7.69095 0
M  V30 11440 H 1099.98 0.686671 -6.91599 0
M  V30 11441 H 1103.17 0.750219 -4.62049 0
M  V30 11442 H 1103.34 0.788363 -6.43186 0
M  V30 11443 N 1096.75 1.52266 0.40654 0
M  V30 11444 C 1098 1.66123 1.15097 0
M  V30 11445 C 1098.32 0.394836 1.90961 0
M  V30 11446 O 1097.59 -0.590349 1.86793 0
M  V30 11447 H 1096.17 0.612317 0.427875 0
M  V30 11448 H 1098.83 1.89318 0.463106 0
M  V30 11449 H 1097.93 2.50351 1.86361 0
M  V30 11450 N 1098.23 -0.663929 1.42933 0
M  V30 11451 C 1099.47 -1.42603 1.44195 0
M  V30 11452 C 1099.81 -1.94101 0.0620284 0
M  V30 11453 O 1099.08 -1.71609 -0.91546 0
M  V30 11454 C 1099.37 -2.61522 2.47544 0
M  V30 11455 C 1099.22 -2.15587 3.94769 0
M  V30 11456 C 1100.54 -3.6374 2.47753 0
M  V30 11457 H 1097.66 -0.517189 0.525056 0
M  V30 11458 H 1100.3 -0.75361 1.74415 0
M  V30 11459 H 1098.45 -3.1889 2.21904 0
M  V30 11460 H 1100.12 -1.63303 4.31428 0
M  V30 11461 H 1098.36 -1.47057 4.08114 0
M  V30 11462 H 1099.03 -3.01053 4.62678 0
M  V30 11463 H 1101.51 -3.16111 2.70579 0
M  V30 11464 H 1100.39 -4.44512 3.22025 0
M  V30 11465 H 1100.65 -4.15607 1.50742 0
M  V30 11466 N 1099.71 -1.29285 -0.901281 0
M  V30 11467 C 1100.95 -1.16934 -1.64836 0
M  V30 11468 C 1101.28 0.279826 -1.92982 0
M  V30 11469 O 1100.55 1.19179 -1.55478 0
M  V30 11470 H 1099.13 -0.429768 -0.61099 0
M  V30 11471 H 1101.79 -1.62189 -1.08077 0
M  V30 11472 H 1100.88 -1.71821 -2.60545 0
M  V30 11473 N 1101.18 1.11143 -1.11736 0
M  V30 11474 C 1102.15 2.15456 -0.78174 0
M  V30 11475 C 1103.15 1.59547 0.200383 0
M  V30 11476 O 1104.34 1.74183 -0.0244893 0
M  V30 11477 C 1101.47 3.40523 -0.160364 0
M  V30 11478 H 1102.66 2.46658 -1.70586 0
M  V30 11479 H 1100.22 1.26381 -0.919644 0
M  V30 11480 H 1100.95 3.14932 0.773835 0
M  V30 11481 H 1100.74 3.82386 -0.867378 0
M  V30 11482 H 1102.23 4.17559 0.0582175 0
M  V30 11483 N 1102.66 0.908147 1.28804 0
M  V30 11484 C 1103.91 0.53734 1.94826 0
M  V30 11485 C 1104.23 -0.920962 1.71882 0
M  V30 11486 O 1103.5 -1.65043 1.05534 0
M  V30 11487 H 1102.08 0.195729 0.720902 0
M  V30 11488 H 1104.74 1.15628 1.56895 0
M  V30 11489 H 1103.84 0.727052 3.03513 0
M  V30 11490 N 1104.14 -1.42577 0.671525 0
M  V30 11491 C 1105.07 -2.28124 -0.0589347 0
M  V30 11492 C 1106.05 -1.40878 -0.811915 0
M  V30 11493 O 1107.24 -1.70318 -0.807717 0
M  V30 11494 C 1104.36 -3.20662 -1.09057 0
M  V30 11495 C 1103.41 -4.24291 -0.43355 0
M  V30 11496 S 1104.24 -5.29393 0.806442 0
M  V30 11497 C 1105.4 -6.25498 -0.224204 0
M  V30 11498 H 1105.63 -2.89728 0.666689 0
M  V30 11499 H 1103.16 -1.47359 0.460959 0
M  V30 11500 H 1105.12 -3.74516 -1.68071 0
M  V30 11501 H 1103.78 -2.582 -1.78862 0
M  V30 11502 H 1102.98 -4.89213 -1.21186 0
M  V30 11503 H 1102.58 -3.73908 0.0829136 0
M  V30 11504 H 1104.87 -6.68757 -1.08492 0
M  V30 11505 H 1105.81 -7.07023 0.390469 0
M  V30 11506 H 1106.22 -5.61633 -0.568214 0
M  V30 11507 N 1105.62 -0.414636 -1.52048 0
M  V30 11508 C 1107.03 -0.0657806 -1.59464 0
M  V30 11509 C 1107.23 1.4225 -1.42713 0
M  V30 11510 O 1106.29 2.18996 -1.25687 0
M  V30 11511 C 1107.6 -0.565618 -2.95332 0
M  V30 11512 C 1109.15 -0.524072 -3.08581 0
M  V30 11513 C 1109.63 -1.00051 -4.46938 0
M  V30 11514 N 1111.12 -0.957555 -4.53194 0
M  V30 11515 C 1111.85 -1.29733 -5.58531 0
M  V30 11516 N 1111.35 -1.70883 -6.71395 0
M  V30 11517 N 1113.14 -1.21694 -5.48769 0
M  V30 11518 H 1105.29 -1.38325 -1.61183 0
M  V30 11519 H 1107.56 -0.568593 -0.758556 0
M  V30 11520 H 1107.26 -1.60604 -3.12888 0
M  V30 11521 H 1107.14 0.0217735 -3.77194 0
M  V30 11522 H 1109.52 0.507319 -2.90707 0
M  V30 11523 H 1109.6 -1.14759 -2.28613 0
M  V30 11524 H 1109.25 -2.03025 -4.65557 0
M  V30 11525 H 1109.18 -0.353754 -5.2541 0
M  V30 11526 H 1111.67 -0.65508 -3.72179 0
M  V30 11527 H 1111.98 -1.95105 -7.47766 0
M  V30 11528 H 1110.33 -1.74791 -6.72661 0
M  V30 11529 H 1113.52 -0.894286 -4.59478 0
M  V30 11530 H 1113.69 -1.48504 -6.30754 0
M  V30 11531 N 1107.1 1.56929 -0.145233 0
M  V30 11532 C 1108.33 2.00141 0.51257 0
M  V30 11533 C 1108.73 1.0243 1.59075 0
M  V30 11534 O 1108.08 0.0130063 1.83695 0
M  V30 11535 C 1108.14 3.39785 1.17417 0
M  V30 11536 C 1107.8 4.56365 0.240801 0
M  V30 11537 C 1108.8 5.17183 -0.530847 0
M  V30 11538 C 1106.49 5.02093 0.144221 0
M  V30 11539 C 1108.48 6.22136 -1.38654 0
M  V30 11540 C 1106.17 6.06902 -0.71508 0
M  V30 11541 C 1107.16 6.66793 -1.47907 0
M  V30 11542 O 1106.85 7.69573 -2.32405 0
M  V30 11543 H 1106.58 0.661747 0.138085 0
M  V30 11544 H 1109.14 2.04037 -0.236269 0
M  V30 11545 H 1107.37 3.32722 1.97061 0
M  V30 11546 H 1109.06 3.67115 1.73152 0
M  V30 11547 H 1109.82 4.82754 -0.466256 0
M  V30 11548 H 1105.7 4.55206 0.728613 0
M  V30 11549 H 1109.25 6.68812 -1.98333 0
M  V30 11550 H 1105.14 6.40758 -0.78097 0
M  V30 11551 H 1105.91 7.86786 -2.25634 0
M  V30 11552 N 1108.58 -0.128553 1.57075 0
M  V30 11553 C 1109.51 -1.15953 2.02675 0
M  V30 11554 C 1110.49 -1.43743 0.909501 0
M  V30 11555 O 1111.67 -1.54348 1.17857 0
M  V30 11556 C 1108.8 -2.48813 2.423 0
M  V30 11557 C 1107.76 -2.35506 3.57381 0
M  V30 11558 C 1107.08 -3.73243 3.82875 0
M  V30 11559 C 1108.38 -1.82359 4.89431 0
M  V30 11560 H 1110.08 -0.780283 2.89054 0
M  V30 11561 H 1107.62 -0.373896 1.39061 0
M  V30 11562 H 1109.57 -3.21179 2.72804 0
M  V30 11563 H 1108.3 -2.88609 1.52881 0
M  V30 11564 H 1106.96 -1.6559 3.27071 0
M  V30 11565 H 1106.61 -4.10507 2.90677 0
M  V30 11566 H 1106.31 -3.65195 4.60333 0
M  V30 11567 H 1107.83 -4.47128 4.15823 0
M  V30 11568 H 1109.24 -2.44533 5.18533 0
M  V30 11569 H 1107.64 -1.85156 5.70822 0
M  V30 11570 H 1108.71 -0.780478 4.78578 0
M  V30 11571 N 1110.05 -1.5248 -0.398459 0
M  V30 11572 C 1111.28 -1.71221 -1.17039 0
M  V30 11573 C 1111.7 -0.425515 -1.83224 0
M  V30 11574 O 1111.06 0.617938 -1.70444 0
M  V30 11575 C 1111.11 -2.8562 -2.20121 0
M  V30 11576 O 1110.21 -2.51934 -3.26501 0
M  V30 11577 H 1109.55 -0.569654 -0.34116 0
M  V30 11578 H 1112.08 -1.99231 -0.465652 0
M  V30 11579 H 1112.09 -3.10842 -2.64275 0
M  V30 11580 H 1110.77 -3.78969 -1.71334 0
M  V30 11581 H 1109.35 -2.3742 -2.87552 0
M  V30 11582 N 1111.53 0.65634 -1.43283 0
M  V30 11583 C 1112.81 1.41339 -1.35213 0
M  V30 11584 C 1113.19 2.111 0.00158494 0
M  V30 11585 O 1112.54 2.0457 1.018 0
M  V30 11586 C 1112.75 2.40066 -2.53317 0
M  V30 11587 C 1114.09 3.04159 -2.96264 0
M  V30 11588 O 1115.12 2.50393 -2.53341 0
M  V30 11589 O 1113.98 4.01633 -3.70612 0
M  V30 11590 H 1111.07 0.631325 -0.534189 0
M  V30 11591 H 1113.62 0.68351 -1.55326 0
M  V30 11592 H 1112.39 1.87444 -3.43483 0
M  V30 11593 H 1112.01 3.20509 -2.35287 0
M  V30 11594 N 1113.01 1.29761 0.894412 0
M  V30 11595 C 1113.94 1.17902 2.01547 0
M  V30 11596 C 1114.92 0.0719402 1.69948 0
M  V30 11597 O 1116.11 0.252338 1.92554 0
M  V30 11598 C 1113.24 0.860262 3.36477 0
M  V30 11599 C 1112.19 1.92424 3.82305 0
M  V30 11600 C 1111.52 1.45868 5.14419 0
M  V30 11601 C 1112.82 3.33391 4.02054 0
M  V30 11602 H 1114.51 2.11688 2.11727 0
M  V30 11603 H 1112.06 1.01916 1.01731 0
M  V30 11604 H 1114.01 0.763987 4.14417 0
M  V30 11605 H 1112.73 -0.113289 3.26403 0
M  V30 11606 H 1111.39 2.00999 3.06586 0
M  V30 11607 H 1111.04 0.473654 5.00765 0
M  V30 11608 H 1110.74 2.17028 5.46052 0
M  V30 11609 H 1112.26 1.37601 5.94894 0
M  V30 11610 H 1113.68 3.27628 4.7046 0
M  V30 11611 H 1112.07 4.02555 4.4505 0
M  V30 11612 H 1113.14 3.75978 3.06216 0
M  V30 11613 N 1114.49 -1.10549 1.12324 0
M  V30 11614 C 1115.74 -1.82124 0.876083 0
M  V30 11615 C 1116.06 -1.85547 -0.599761 0
M  V30 11616 O 1115.33 -1.33269 -1.43584 0
M  V30 11617 H 1113.91 -0.674455 0.321122 0
M  V30 11618 H 1116.57 -1.33766 1.41748 0
M  V30 11619 H 1115.66 -2.85688 1.25653 0
M  V30 11620 N 1115.97 -0.914965 -1.28321 0
M  V30 11621 C 1117.2 -0.563835 -1.98757 0
M  V30 11622 C 1117.6 0.859528 -1.68549 0
M  V30 11623 O 1116.95 1.58105 -0.935336 0
M  V30 11624 C 1117.01 -0.694539 -3.52727 0
M  V30 11625 C 1116.67 -2.08767 -4.06528 0
M  V30 11626 C 1117.67 -3.06052 -4.20272 0
M  V30 11627 C 1115.35 -2.40118 -4.4119 0
M  V30 11628 C 1117.35 -4.32803 -4.67932 0
M  V30 11629 C 1115.04 -3.67108 -4.88544 0
M  V30 11630 C 1116.03 -4.63265 -5.01871 0
M  V30 11631 O 1115.72 -5.87997 -5.48192 0
M  V30 11632 H 1115.45 -0.213557 -0.641381 0
M  V30 11633 H 1118.01 -1.23062 -1.64453 0
M  V30 11634 H 1116.24 0.0293186 -3.86689 0
M  V30 11635 H 1117.93 -0.350335 -4.04385 0
M  V30 11636 H 1118.69 -2.8315 -3.93765 0
M  V30 11637 H 1114.57 -1.66025 -4.30066 0
M  V30 11638 H 1118.12 -5.07861 -4.78249 0
M  V30 11639 H 1114.01 -3.89834 -5.14489 0
M  V30 11640 H 1114.78 -5.90804 -5.66474 0
M  V30 11641 N 1117.44 1.42219 -0.679077 0
M  V30 11642 C 1118.69 2.01777 -0.20342 0
M  V30 11643 C 1119.02 1.53592 1.18841 0
M  V30 11644 O 1118.3 0.739954 1.79875 0
M  V30 11645 C 1118.58 3.59281 -0.242791 0
M  V30 11646 C 1118.43 4.17634 -1.67038 0
M  V30 11647 C 1119.75 4.38218 0.406624 0
M  V30 11648 H 1116.87 0.733134 -0.0753916 0
M  V30 11649 H 1119.51 1.69185 -0.864673 0
M  V30 11650 H 1117.66 3.87178 0.320248 0
M  V30 11651 H 1119.34 4.00674 -2.286 0
M  V30 11652 H 1117.58 3.73301 -2.20973 0
M  V30 11653 H 1118.25 5.26776 -1.64958 0
M  V30 11654 H 1120.73 4.16036 -0.0727077 0
M  V30 11655 H 1119.6 5.47793 0.348457 0
M  V30 11656 H 1119.86 4.16418 1.48487 0
M  V30 11657 N 1118.92 0.422693 1.51826 0
M  V30 11658 C 1119.87 -0.413725 2.24215 0
M  V30 11659 C 1120.86 -1.00228 1.2587 0
M  V30 11660 O 1122.05 -0.922845 1.51038 0
M  V30 11661 C 1119.18 -1.52244 3.07696 0
M  V30 11662 C 1118.26 -0.943999 4.1346 0
M  V30 11663 N 1118.65 -0.0934117 5.05714 0
M  V30 11664 C 1116.95 -1.21311 4.29185 0
M  V30 11665 C 1117.65 0.229891 5.81246 0
M  V30 11666 N 1116.63 -0.382753 5.42251 0
M  V30 11667 H 1120.43 0.242283 2.929 0
M  V30 11668 H 1117.94 0.233902 1.60707 0
M  V30 11669 H 1119.94 -2.13438 3.5812 0
M  V30 11670 H 1118.6 -2.18093 2.40552 0
M  V30 11671 H 1119.61 0.271932 5.17186 0
M  V30 11672 H 1116.29 -1.87018 3.7327 0
M  V30 11673 H 1117.68 0.921159 6.65556 0
M  V30 11674 N 1120.4 -1.5685 0.153553 0
M  V30 11675 C 1121.82 -1.58306 -0.202801 0
M  V30 11676 C 1122.02 -1.16813 -1.64186 0
M  V30 11677 O 1121.07 -0.871468 -2.36985 0
M  V30 11678 C 1122.38 -3.00636 0.0619012 0
M  V30 11679 C 1123.93 -3.13 -0.00129219 0
M  V30 11680 C 1124.41 -4.57391 0.236164 0
M  V30 11681 N 1125.9 -4.62837 0.18332 0
M  V30 11682 C 1126.63 -5.72382 0.341471 0
M  V30 11683 N 1126.13 -6.90552 0.557704 0
M  V30 11684 N 1127.92 -5.61409 0.278615 0
M  V30 11685 H 1120.07 -1.82113 1.09309 0
M  V30 11686 H 1122.34 -0.843228 0.433209 0
M  V30 11687 H 1122.04 -3.35406 1.0581 0
M  V30 11688 H 1121.92 -3.71477 -0.654555 0
M  V30 11689 H 1124.3 -2.78068 -0.98805 0
M  V30 11690 H 1124.38 -2.44632 0.747596 0
M  V30 11691 H 1124.03 -4.93029 1.22005 0
M  V30 11692 H 1123.96 -5.23894 -0.533125 0
M  V30 11693 H 1126.45 -3.77894 0.0211138 0
M  V30 11694 H 1126.76 -7.69905 0.66831 0
M  V30 11695 H 1125.11 -6.92456 0.594105 0
M  V30 11696 H 1128.3 -4.6797 0.110401 0
M  V30 11697 H 1128.47 -6.46731 0.4053 0
M  V30 11698 N 1121.88 0.120221 -1.57141 0
M  V30 11699 C 1123.15 0.858458 -1.75755 0
M  V30 11700 C 1123.53 1.98124 -0.728693 0
M  V30 11701 O 1122.88 2.27155 0.247573 0
M  V30 11702 C 1123.09 1.37627 -3.20718 0
M  V30 11703 C 1124.44 1.82909 -3.83183 0
M  V30 11704 O 1125.46 1.47309 -3.24312 0
M  V30 11705 O 1124.32 2.4865 -4.86657 0
M  V30 11706 H 1121.42 0.407583 -0.719587 0
M  V30 11707 H 1123.96 0.104057 -1.69381 0
M  V30 11708 H 1122.74 0.570651 -3.87117 0
M  V30 11709 H 1122.36 2.19341 -3.31625 0
M  V30 11710 N 1123.36 1.52689 0.390367 0
M  V30 11711 C 1124.29 1.80338 1.48325 0
M  V30 11712 C 1125.27 0.655338 1.56969 0
M  V30 11713 O 1126.45 0.902792 1.7194 0
M  V30 11714 C 1123.58 1.97101 2.85952 0
M  V30 11715 C 1122.54 3.12783 2.92148 0
M  V30 11716 C 1121.86 3.14798 4.32211 0
M  V30 11717 C 1123.16 4.5188 2.61919 0
M  V30 11718 H 1124.86 2.71857 1.25437 0
M  V30 11719 H 1122.4 1.30813 0.601995 0
M  V30 11720 H 1124.36 2.15027 3.62411 0
M  V30 11721 H 1123.08 1.02271 3.10174 0
M  V30 11722 H 1121.74 2.94638 2.18137 0
M  V30 11723 H 1121.39 2.17653 4.53471 0
M  V30 11724 H 1121.09 3.92507 4.37278 0
M  V30 11725 H 1122.61 3.34877 5.10578 0
M  V30 11726 H 1124.02 4.70134 3.28096 0
M  V30 11727 H 1122.42 5.31647 2.78337 0
M  V30 11728 H 1123.49 4.58689 1.57266 0
M  V30 11729 N 1124.83 -0.648732 1.43629 0
M  V30 11730 C 1125.8 -1.74331 1.488 0
M  V30 11731 C 1126.8 -1.56434 0.372147 0
M  V30 11732 O 1127.99 -1.6225 0.634078 0
M  V30 11733 C 1125.12 -3.13248 1.34494 0
M  V30 11734 H 1126.31 -1.71125 2.46285 0
M  V30 11735 H 1123.87 -0.860798 1.30461 0
M  V30 11736 H 1124.6 -3.22062 0.380345 0
M  V30 11737 H 1124.39 -3.27643 2.15389 0
M  V30 11738 H 1125.88 -3.93056 1.41055 0
M  V30 11739 N 1126.31 -1.30234 -0.887518 0
M  V30 11740 C 1127.28 -1.16384 -1.97452 0
M  V30 11741 C 1128.28 -0.0957942 -1.60514 0
M  V30 11742 O 1129.47 -0.343706 -1.70776 0
M  V30 11743 C 1126.6 -0.782514 -3.31797 0
M  V30 11744 H 1127.79 -2.12952 -2.11167 0
M  V30 11745 H 1125.34 -1.13594 -1.07359 0
M  V30 11746 H 1126.08 0.18278 -3.23785 0
M  V30 11747 H 1125.86 -1.55434 -3.59976 0
M  V30 11748 H 1127.35 -0.709011 -4.11537 0
M  V30 11749 N 1127.79 1.09952 -1.12909 0
M  V30 11750 C 1129.21 1.34051 -0.866172 0
M  V30 11751 C 1129.41 1.95169 0.501125 0
M  V30 11752 O 1128.46 2.19458 1.24878 0
M  V30 11753 C 1129.78 2.25738 -1.98653 0
M  V30 11754 C 1131.32 2.39261 -2.01799 0
M  V30 11755 C 1131.8 3.3428 -3.13083 0
M  V30 11756 N 1133.29 3.41851 -3.12558 0
M  V30 11757 C 1134.02 4.15358 -3.95304 0
M  V30 11758 N 1133.52 4.91709 -4.88051 0
M  V30 11759 N 1135.31 4.11027 -3.83423 0
M  V30 11760 H 1127.46 0.686521 -2.00999 0
M  V30 11761 H 1129.73 0.364913 -0.874953 0
M  V30 11762 H 1129.43 1.88048 -2.97205 0
M  V30 11763 H 1129.31 3.26085 -1.89601 0
M  V30 11764 H 1131.69 2.76218 -1.03864 0
M  V30 11765 H 1131.78 1.38712 -2.14925 0
M  V30 11766 H 1131.42 2.98048 -4.11254 0
M  V30 11767 H 1131.35 4.34721 -2.97195 0
M  V30 11768 H 1133.84 2.87405 -2.45371 0
M  V30 11769 H 1134.15 5.45212 -5.47689 0
M  V30 11770 H 1132.5 4.90816 -4.92061 0
M  V30 11771 H 1135.69 3.50477 -3.10296 0
M  V30 11772 H 1135.86 4.68054 -4.4814 0
M  V30 11773 N 1129.27 0.921757 1.27833 0
M  V30 11774 C 1130.22 0.406628 2.29018 0
M  V30 11775 C 1131.21 -0.505914 1.61669 0
M  V30 11776 O 1132.42 -0.386273 1.75807 0
M  V30 11777 H 1128.79 0.112914 0.743475 0
M  V30 11778 H 1130.76 1.27295 2.69886 0
M  V30 11779 C 1129.51 -0.330783 3.46123 0
M  V30 11780 H 1128.83 0.362207 3.98156 0
M  V30 11781 H 1130.27 -0.655738 4.18899 0
M  V30 11782 C 1128.73 -1.54161 2.9956 0
M  V30 11783 O 1129.26 -2.64052 3.0272 0
M  V30 11784 N 1127.47 -1.39137 2.55126 0
M  V30 11785 H 1127.02 -0.497319 2.52754 0
M  V30 11786 H 1126.97 -2.20278 2.24333 0
M  V30 11787 N 1130.75 -1.41857 0.686609 0
M  V30 11788 C 1131.99 -2.01666 0.214118 0
M  V30 11789 C 1132.33 -1.5422 -1.18025 0
M  V30 11790 O 1131.6 -0.749482 -1.7948 0
M  V30 11791 C 1131.88 -3.59147 0.261841 0
M  V30 11792 C 1131.74 -4.16742 1.69251 0
M  V30 11793 C 1133.06 -4.38427 -0.383378 0
M  V30 11794 H 1130.17 -0.732724 0.0792785 0
M  V30 11795 H 1132.82 -1.68724 0.873633 0
M  V30 11796 H 1130.97 -3.87342 -0.29971 0
M  V30 11797 H 1132.64 -3.99456 2.30722 0
M  V30 11798 H 1130.88 -3.72124 2.2295 0
M  V30 11799 H 1131.55 -5.25894 1.6775 0
M  V30 11800 H 1134.03 -4.15992 0.0947701 0
M  V30 11801 H 1132.9 -5.4797 -0.319401 0
M  V30 11802 H 1133.17 -4.172 -1.46276 0
M  V30 11803 N 1132.22 -0.430739 -1.51599 0
M  V30 11804 C 1133.15 0.374695 -2.30474 0
M  V30 11805 C 1134.14 1.02694 -1.35602 0
M  V30 11806 O 1135.32 1.03184 -1.6452 0
M  V30 11807 C 1132.45 1.47981 -3.14196 0
M  V30 11808 C 1131.4 0.951415 -4.17291 0
M  V30 11809 C 1130.73 2.15177 -4.89492 0
M  V30 11810 C 1132.03 -0.00957951 -5.22299 0
M  V30 11811 H 1133.72 -0.283508 -2.98055 0
M  V30 11812 H 1131.27 -0.13779 -1.43339 0
M  V30 11813 H 1133.22 2.05043 -3.68151 0
M  V30 11814 H 1131.95 2.16621 -2.44424 0
M  V30 11815 H 1130.61 0.403052 -3.64378 0
M  V30 11816 H 1130.25 2.82421 -4.1623 0
M  V30 11817 H 1129.95 1.80464 -5.59202 0
M  V30 11818 H 1131.48 2.72806 -5.46269 0
M  V30 11819 H 1132.89 0.470527 -5.71366 0
M  V30 11820 H 1131.29 -0.268959 -5.99497 0
M  V30 11821 H 1132.36 -0.948297 -4.75537 0
M  V30 11822 N 1133.7 1.56767 -0.161869 0
M  V30 11823 C 1134.95 1.96885 0.486215 0
M  V30 11824 C 1135.28 1.04745 1.6353 0
M  V30 11825 O 1134.56 0.0927156 1.94279 0
M  V30 11826 C 1134.84 3.46559 0.97822 0
M  V30 11827 C 1134.69 4.49477 -0.17039 0
M  V30 11828 C 1136.01 3.99093 1.85506 0
M  V30 11829 H 1133.13 0.715857 0.175265 0
M  V30 11830 H 1135.77 1.88399 -0.246098 0
M  V30 11831 H 1133.92 3.53921 1.60225 0
M  V30 11832 H 1135.59 4.54183 -0.807205 0
M  V30 11833 H 1133.84 4.25838 -0.827322 0
M  V30 11834 H 1134.51 5.51578 0.21583 0
M  V30 11835 H 1136.98 3.94303 1.32908 0
M  V30 11836 H 1135.86 5.04255 2.16837 0
M  V30 11837 H 1136.12 3.4234 2.79742 0
M  V30 11838 N 1135.18 -0.111886 1.57202 0
M  V30 11839 C 1136.46 -0.849125 1.76208 0
M  V30 11840 C 1136.84 -1.97735 0.73919 0
M  V30 11841 O 1136.19 -2.27283 -0.235523 0
M  V30 11842 C 1136.4 -1.35924 3.21443 0
M  V30 11843 C 1137.74 -1.80874 3.84148 0
M  V30 11844 O 1138.77 -1.45587 3.25089 0
M  V30 11845 O 1137.63 -2.46065 4.87969 0
M  V30 11846 H 1134.72 -0.403761 0.721738 0
M  V30 11847 H 1137.27 -0.0950726 1.69433 0
M  V30 11848 H 1136.04 -0.550113 3.87414 0
M  V30 11849 H 1135.66 -2.17579 3.32784 0
M  V30 11850 N 1136.66 -1.52894 -0.382264 0
M  V30 11851 C 1137.88 -1.72453 -1.15216 0
M  V30 11852 C 1138.31 -0.444925 -1.82762 0
M  V30 11853 O 1137.67 0.599825 -1.7109 0
M  V30 11854 C 1137.71 -2.87939 -2.17079 0
M  V30 11855 O 1136.82 -2.55383 -3.23811 0
M  V30 11856 H 1136.16 -0.57324 -0.335099 0
M  V30 11857 H 1138.69 -1.99713 -0.444495 0
M  V30 11858 H 1138.7 -3.13628 -2.60963 0
M  V30 11859 H 1137.37 -3.80765 -1.67305 0
M  V30 11860 H 1135.95 -2.40457 -2.85018 0
M  V30 11861 N 1138.14 0.641106 -1.43971 0
M  V30 11862 C 1139.09 1.77474 -1.50352 0
M  V30 11863 C 1140.08 1.65173 -0.376052 0
M  V30 11864 O 1141.29 1.71373 -0.550572 0
M  V30 11865 H 1137.66 0.585747 -0.471597 0
M  V30 11866 H 1139.63 1.69213 -2.45784 0
M  V30 11867 C 1138.38 3.15778 -1.45532 0
M  V30 11868 H 1137.7 3.25886 -2.316 0
M  V30 11869 H 1139.14 3.95022 -1.54058 0
M  V30 11870 C 1137.6 3.36447 -0.174624 0
M  V30 11871 O 1138.13 3.9446 0.759215 0
M  V30 11872 N 1136.34 2.90487 -0.0809383 0
M  V30 11873 H 1135.89 2.43461 -0.841691 0
M  V30 11874 H 1135.84 3.04693 0.775231 0
M  V30 11875 N 1139.62 1.30703 0.880598 0
M  V30 11876 C 1140.55 1.20033 2.00286 0
M  V30 11877 C 1141.53 0.0899614 1.69862 0
M  V30 11878 O 1142.71 0.272747 1.92275 0
M  V30 11879 C 1139.84 0.895902 3.35546 0
M  V30 11880 C 1138.8 1.96468 3.80242 0
M  V30 11881 C 1138.12 1.51316 5.12843 0
M  V30 11882 C 1139.42 3.37637 3.98496 0
M  V30 11883 H 1141.12 2.13922 2.0947 0
M  V30 11884 H 1138.66 1.02989 1.00644 0
M  V30 11885 H 1140.61 0.807899 4.13583 0
M  V30 11886 H 1139.34 -0.0786636 3.26505 0
M  V30 11887 H 1138 2.0424 3.04437 0
M  V30 11888 H 1137.65 0.52674 5.00234 0
M  V30 11889 H 1137.35 2.22807 5.43719 0
M  V30 11890 H 1138.87 1.43903 5.93401 0
M  V30 11891 H 1140.28 3.326 4.66959 0
M  V30 11892 H 1138.68 4.07253 4.40755 0
M  V30 11893 H 1139.75 3.79205 3.02211 0
M  V30 11894 N 1141.09 -1.09351 1.1349 0
M  V30 11895 C 1142.34 -1.81812 0.898452 0
M  V30 11896 C 1142.67 -1.85525 -0.573959 0
M  V30 11897 O 1141.95 -1.32403 -1.42477 0
M  V30 11898 C 1142.23 -3.27921 1.48794 0
M  V30 11899 C 1142.08 -3.32476 3.02952 0
M  V30 11900 C 1143.4 -4.24625 1.15678 0
M  V30 11901 H 1140.52 -0.660074 0.327829 0
M  V30 11902 H 1143.16 -1.28091 1.40331 0
M  V30 11903 H 1141.31 -3.738 1.05858 0
M  V30 11904 H 1142.99 -2.94994 3.54649 0
M  V30 11905 H 1141.23 -2.72037 3.37903 0
M  V30 11906 H 1141.9 -4.35409 3.39298 0
M  V30 11907 H 1144.38 -3.87036 1.52781 0
M  V30 11908 H 1143.25 -5.25194 1.59571 0
M  V30 11909 H 1143.51 -4.42044 0.0705933 0
M  V30 11910 N 1142.57 -0.928524 -1.27343 0
M  V30 11911 C 1143.81 -0.576696 -1.96096 0
M  V30 11912 C 1144.18 0.866074 -1.71357 0
M  V30 11913 O 1145.38 1.32621 -2.33805 0
M  V30 11914 C 1143.65 -0.894692 -3.4602 0
M  V30 11915 S 1145.21 -0.651503 -4.33936 0
M  V30 11916 H 1142.02 -0.212847 -0.678393 0
M  V30 11917 H 1144.63 -1.19714 -1.5456 0
M  V30 11918 H 1143.33 -1.94239 -3.61524 0
M  V30 11919 H 1142.86 -0.263478 -3.92517 0
M  V30 11920 H 1144.88 0.490314 -4.93772 0
M  V30 11921 N 1144.05 1.41491 -0.694123 0
M  V30 11922 C 1145 2.30783 -0.0278824 0
M  V30 11923 C 1145.97 1.47028 0.772783 0
M  V30 11924 O 1147.15 1.75819 0.74111 0
M  V30 11925 C 1144.29 3.33061 0.903579 0
M  V30 11926 C 1143.4 4.31896 0.0946823 0
M  V30 11927 C 1142.54 5.21243 1.02365 0
M  V30 11928 C 1141.58 6.11748 0.207578 0
M  V30 11929 N 1140.72 6.93583 1.09028 0
M  V30 11930 H 1145.56 2.87197 -0.795092 0
M  V30 11931 H 1143.09 1.41449 -0.403806 0
M  V30 11932 H 1145.05 3.90907 1.45765 0
M  V30 11933 H 1143.68 2.782 1.6372 0
M  V30 11934 H 1142.73 3.76009 -0.576289 0
M  V30 11935 H 1144.04 4.95889 -0.538059 0
M  V30 11936 H 1143.2 5.83917 1.647 0
M  V30 11937 H 1141.94 4.57473 1.69025 0
M  V30 11938 H 1140.94 5.48125 -0.428854 0
M  V30 11939 H 1142.17 6.77573 -0.455206 0
M  V30 11940 H 1140.11 6.32422 1.74292 0
M  V30 11941 H 1140.03 7.54257 0.513073 0
M  V30 11942 H 1141.3 7.60726 1.70048 0
M  V30 11943 N 1145.53 0.438773 1.51369 0
M  V30 11944 C 1146.77 -0.127401 2.02399 0
M  V30 11945 C 1147.11 -1.42235 1.32223 0
M  V30 11946 O 1146.38 -1.89513 0.437607 0
M  V30 11947 C 1146.66 -0.344673 3.58447 0
M  V30 11948 C 1146.52 0.969027 4.39238 0
M  V30 11949 C 1147.84 -1.11381 4.25773 0
M  V30 11950 H 1144.96 -0.0448281 0.735635 0
M  V30 11951 H 1147.6 0.57805 1.80993 0
M  V30 11952 H 1145.75 -0.945582 3.76817 0
M  V30 11953 H 1147.42 1.60403 4.32514 0
M  V30 11954 H 1145.66 1.57329 4.04265 0
M  V30 11955 H 1146.33 0.771029 5.46589 0
M  V30 11956 H 1148.81 -0.604785 4.11681 0
M  V30 11957 H 1147.69 -1.23459 5.34835 0
M  V30 11958 H 1147.95 -2.14225 3.8673 0
M  V30 11959 N 1147.01 -1.56678 0.170181 0
M  V30 11960 C 1148.23 -2.0166 -0.484543 0
M  V30 11961 C 1148.66 -1.04962 -1.56091 0
M  V30 11962 O 1148.01 -0.0289887 -1.81277 0
M  V30 11963 C 1148.06 -3.45252 -1.04084 0
M  V30 11964 O 1147.17 -3.51623 -2.15488 0
M  V30 11965 H 1146.51 -0.653765 -0.116135 0
M  V30 11966 H 1149.04 -2.02761 0.273737 0
M  V30 11967 H 1149.05 -3.84534 -1.36373 0
M  V30 11968 H 1147.72 -4.15131 -0.252738 0
M  V30 11969 H 1146.3 -3.242 -1.84252 0
M  V30 11970 N 1148.48 0.103547 -1.57259 0
M  V30 11971 C 1149.76 0.839768 -1.76656 0
M  V30 11972 C 1150.14 1.9734 -0.749666 0
M  V30 11973 O 1149.49 2.27405 0.223466 0
M  V30 11974 C 1149.7 1.34218 -3.22159 0
M  V30 11975 C 1151.05 1.78835 -3.85102 0
M  V30 11976 O 1152.07 1.43861 -3.25857 0
M  V30 11977 O 1150.93 2.43474 -4.89267 0
M  V30 11978 H 1148.02 0.399928 -0.723869 0
M  V30 11979 H 1150.57 0.0860857 -1.69482 0
M  V30 11980 H 1149.34 0.52956 -3.877 0
M  V30 11981 H 1148.96 2.15811 -3.33933 0
M  V30 11982 N 1149.96 1.53094 0.37415 0
M  V30 11983 C 1151.21 1.68861 1.11769 0
M  V30 11984 C 1151.54 0.436032 1.89549 0
M  V30 11985 O 1150.79 -0.581879 1.86849 0
M  V30 11986 C 1151.09 2.88432 2.11049 0
M  V30 11987 C 1150.76 4.25284 1.49814 0
M  V30 11988 C 1149.42 4.62501 1.32841 0
M  V30 11989 C 1151.77 5.10425 1.05433 0
M  V30 11990 C 1149.1 5.82502 0.700567 0
M  V30 11991 C 1151.45 6.31064 0.440525 0
M  V30 11992 C 1150.11 6.67 0.258216 0
M  V30 11993 H 1149.38 0.617906 0.40899 0
M  V30 11994 H 1152.03 1.87265 0.4005 0
M  V30 11995 H 1150.34 2.64505 2.8904 0
M  V30 11996 H 1152.03 2.97825 2.68517 0
M  V30 11997 H 1148.62 3.95976 1.64016 0
M  V30 11998 H 1152.81 4.82229 1.17342 0
M  V30 11999 H 1148.06 6.08942 0.547652 0
M  V30 12000 H 1152.24 6.96344 0.0883962 0
M  V30 12001 H 1149.86 7.59851 -0.230354 0
M  V30 12002 N 1151.44 -0.633461 1.44309 0
M  V30 12003 C 1152.69 -1.39031 1.46679 0
M  V30 12004 C 1153.01 -1.94745 0.0997165 0
M  V30 12005 O 1152.28 -1.75637 -0.867659 0
M  V30 12006 H 1150.86 -0.516051 0.540093 0
M  V30 12007 H 1153.52 -0.745739 1.80069 0
M  V30 12008 H 1152.62 -2.2228 2.19085 0
M  V30 12009 N 1152.92 -1.31168 -0.873655 0
M  V30 12010 C 1153.85 -1.21094 -1.99646 0
M  V30 12011 C 1154.83 -0.0989684 -1.69812 0
M  V30 12012 O 1156.01 -0.282939 -1.92128 0
M  V30 12013 C 1153.14 -0.913684 -3.35066 0
M  V30 12014 C 1152.1 -1.98482 -3.79195 0
M  V30 12015 C 1151.42 -1.54033 -5.12033 0
M  V30 12016 C 1152.72 -3.39745 -3.96699 0
M  V30 12017 H 1154.42 -2.1503 -2.08333 0
M  V30 12018 H 1151.96 -1.03521 -1.00097 0
M  V30 12019 H 1153.92 -0.829821 -4.13149 0
M  V30 12020 H 1152.64 0.0613471 -3.26542 0
M  V30 12021 H 1151.3 -2.05851 -3.03349 0
M  V30 12022 H 1150.95 -0.553261 -4.99948 0
M  V30 12023 H 1150.65 -2.25688 -5.4253 0
M  V30 12024 H 1152.17 -1.47047 -5.92629 0
M  V30 12025 H 1153.59 -3.35071 -4.65188 0
M  V30 12026 H 1151.98 -4.09585 -4.38589 0
M  V30 12027 H 1153.05 -3.80802 -3.00196 0
M  V30 12028 N 1154.4 1.08748 -1.14068 0
M  V30 12029 C 1155.62 1.85353 -0.930532 0
M  V30 12030 C 1156.05 1.80892 0.515717 0
M  V30 12031 O 1155.4 1.19146 1.36652 0
M  V30 12032 C 1155.45 3.30962 -1.43167 0
M  V30 12033 O 1154.56 4.0769 -0.621468 0
M  V30 12034 H 1153.9 0.574485 -0.332962 0
M  V30 12035 H 1156.43 1.37282 -1.51707 0
M  V30 12036 H 1156.44 3.81807 -1.43832 0
M  V30 12037 H 1155.11 3.33524 -2.48464 0
M  V30 12038 H 1153.69 3.66587 -0.683267 0
M  V30 12039 N 1155.87 0.935264 1.26849 0
M  V30 12040 C 1157.29 0.636661 1.46352 0
M  V30 12041 C 1157.49 -0.811823 1.84423 0
M  V30 12042 O 1156.55 -1.58902 1.9623 0
M  V30 12043 C 1157.86 1.59301 2.55036 0
M  V30 12044 C 1159.41 1.60207 2.68892 0
M  V30 12045 C 1159.88 2.54558 3.80742 0
M  V30 12046 N 1161.37 2.52809 3.88126 0
M  V30 12047 C 1162.11 3.225 4.74111 0
M  V30 12048 N 1161.6 4.01598 5.64527 0
M  V30 12049 N 1163.4 3.11481 4.67906 0
M  V30 12050 H 1155.55 1.8716 1.00423 0
M  V30 12051 H 1157.81 0.803968 0.502334 0
M  V30 12052 H 1157.52 2.62671 2.33874 0
M  V30 12053 H 1157.39 1.34052 3.52576 0
M  V30 12054 H 1159.78 0.575649 2.89431 0
M  V30 12055 H 1159.86 1.89508 1.71815 0
M  V30 12056 H 1159.5 3.57314 3.60956 0
M  V30 12057 H 1159.43 2.22549 4.77263 0
M  V30 12058 H 1161.92 1.9537 3.2348 0
M  V30 12059 H 1162.24 4.51742 6.27016 0
M  V30 12060 H 1160.58 4.057 5.64298 0
M  V30 12061 H 1163.77 2.49175 3.9627 0
M  V30 12062 H 1163.95 3.66064 5.34697 0
M  V30 12063 N 1157.35 -1.41121 0.701616 0
M  V30 12064 C 1158.6 -2.01428 0.235495 0
M  V30 12065 C 1158.93 -1.55463 -1.16382 0
M  V30 12066 O 1158.21 -0.768477 -1.78675 0
M  V30 12067 C 1158.49 -3.58849 0.299919 0
M  V30 12068 C 1158.34 -4.14924 1.73661 0
M  V30 12069 C 1159.66 -4.38809 -0.336856 0
M  V30 12070 H 1156.78 -0.731842 0.0870456 0
M  V30 12071 H 1159.42 -1.67787 0.891479 0
M  V30 12072 H 1157.57 -3.87638 -0.258611 0
M  V30 12073 H 1159.24 -3.96987 2.34945 0
M  V30 12074 H 1157.49 -3.69738 2.26884 0
M  V30 12075 H 1158.16 -5.24085 1.73318 0
M  V30 12076 H 1160.63 -4.15868 0.138886 0
M  V30 12077 H 1159.51 -5.48278 -0.261264 0
M  V30 12078 H 1159.77 -4.18728 -1.41843 0
M  V30 12079 N 1158.83 -0.446794 -1.51134 0
M  V30 12080 C 1159.76 0.350229 -2.30858 0
M  V30 12081 C 1160.74 1.0125 -1.36684 0
M  V30 12082 O 1161.93 1.01433 -1.65605 0
M  V30 12083 C 1159.06 1.4464 -3.15748 0
M  V30 12084 C 1158.01 0.907102 -4.18277 0
M  V30 12085 C 1157.34 2.09974 -4.91747 0
M  V30 12086 C 1158.64 -0.0649758 -5.2226 0
M  V30 12087 H 1160.33 -0.315105 -2.97737 0
M  V30 12088 H 1157.88 -0.152985 -1.43185 0
M  V30 12089 H 1159.83 2.01127 -3.70305 0
M  V30 12090 H 1158.55 2.14016 -2.46708 0
M  V30 12091 H 1157.21 0.364382 -3.64785 0
M  V30 12092 H 1156.86 2.77991 -4.19202 0
M  V30 12093 H 1156.56 1.74523 -5.61084 0
M  V30 12094 H 1158.08 2.66996 -5.49131 0
M  V30 12095 H 1159.5 0.4099 -5.71833 0
M  V30 12096 H 1157.9 -0.332529 -5.99178 0
M  V30 12097 H 1158.97 -0.998681 -4.74504 0
M  V30 12098 N 1160.31 1.56586 -0.178487 0
M  V30 12099 C 1161.22 2.21903 0.761321 0
M  V30 12100 C 1162.23 1.21289 1.2476 0
M  V30 12101 O 1163.41 1.53974 1.29823 0
M  V30 12102 C 1160.48 2.85259 1.97048 0
M  V30 12103 C 1159.54 4.01095 1.53039 0
M  V30 12104 C 1158.77 4.61421 2.68191 0
M  V30 12105 O 1158.99 4.20644 3.85247 0
M  V30 12106 O 1157.93 5.51171 2.41855 0
M  V30 12107 H 1161.75 3.02788 0.235141 0
M  V30 12108 H 1159.34 1.49316 0.0500442 0
M  V30 12109 H 1161.22 3.25404 2.6775 0
M  V30 12110 H 1159.89 2.07366 2.48558 0
M  V30 12111 H 1158.8 3.65606 0.792661 0
M  V30 12112 H 1160.13 4.80603 1.06213 0
M  V30 12113 N 1161.79 -0.095206 1.57312 0
M  V30 12114 C 1163.06 -0.830388 1.77099 0
M  V30 12115 C 1163.44 -1.9694 0.760121 0
M  V30 12116 O 1162.79 -2.2752 -0.211403 0
M  V30 12117 C 1163 -1.32507 3.22867 0
M  V30 12118 C 1164.35 -1.7679 3.86045 0
M  V30 12119 O 1165.37 -1.42131 3.26615 0
M  V30 12120 O 1164.23 -2.40876 4.90552 0
M  V30 12121 H 1161.33 -0.396083 0.72598 0
M  V30 12122 H 1163.87 -0.0770965 1.69525 0
M  V30 12123 H 1162.64 -0.508992 3.87975 0
M  V30 12124 H 1162.27 -2.14037 3.35073 0
M  V30 12125 N 1163.26 -1.53291 -0.366026 0
M  V30 12126 C 1164.54 -1.60055 -1.12436 0
M  V30 12127 C 1164.92 -0.407811 -2.07123 0
M  V30 12128 O 1164.27 0.601977 -2.20428 0
M  V30 12129 C 1164.48 -2.95062 -1.86385 0
M  V30 12130 C 1165.83 -3.49623 -2.40934 0
M  V30 12131 O 1166.85 -2.97088 -1.96512 0
M  V30 12132 O 1165.71 -4.41461 -3.2214 0
M  V30 12133 H 1162.8 -0.646476 -0.51575 0
M  V30 12134 H 1165.35 -1.65632 -0.369326 0
M  V30 12135 H 1164.12 -3.73312 -1.17277 0
M  V30 12136 H 1163.75 -2.92973 -2.68798 0
M  V30 12137 N 1164.74 0.6258 -1.44643 0
M  V30 12138 C 1166.15 1.20751 -1.42394 0
M  V30 12139 C 1166.5 1.95685 -0.142047 0
M  V30 12140 O 1165.63 2.02715 0.757332 0
M  V30 12141 C 1166.22 2.1964 -2.57961 0
M  V30 12142 C 1164.78 2.73227 -2.5889 0
M  V30 12143 C 1163.93 1.48315 -2.34303 0
M  V30 12144 H 1166.88 0.416162 -1.53146 0
M  V30 12145 H 1166.9 3.02342 -2.31019 0
M  V30 12146 H 1166.41 1.65073 -3.51244 0
M  V30 12147 H 1164.52 3.31782 -1.69563 0
M  V30 12148 H 1164.63 3.18902 -3.57545 0
M  V30 12149 H 1162.99 1.76634 -1.83501 0
M  V30 12150 H 1163.78 0.956427 -3.29708 0
M  V30 12151 N 1166.22 1.31629 0.866686 0
M  V30 12152 C 1167.5 1.12136 1.60265 0
M  V30 12153 C 1167.88 -0.322729 2.08618 0
M  V30 12154 O 1167.23 -1.31738 1.86701 0
M  V30 12155 C 1167.44 2.13845 2.7581 0
M  V30 12156 C 1168.78 2.46541 3.45692 0
M  V30 12157 O 1169.81 2.12298 2.86021 0
M  V30 12158 O 1168.67 3.05194 4.53342 0
M  V30 12159 H 1165.76 0.431923 0.705246 0
M  V30 12160 H 1168.31 1.43119 0.911863 0
M  V30 12161 H 1167.08 3.10967 2.37518 0
M  V30 12162 H 1166.7 1.83786 3.52574 0
M  V30 12163 N 1167.7 -1.08142 1.14644 0
M  V30 12164 C 1168.66 -2.13308 0.83859 0
M  V30 12165 C 1169.66 -1.60022 -0.158012 0
M  V30 12166 O 1170.85 -1.74057 0.0706621 0
M  V30 12167 C 1167.98 -3.39978 0.250591 0
M  V30 12168 H 1169.18 -2.42049 1.77066 0
M  V30 12169 H 1166.73 -1.23899 0.952828 0
M  V30 12170 H 1167.47 -3.16873 -0.690064 0
M  V30 12171 H 1167.25 -3.79952 0.968456 0
M  V30 12172 H 1168.74 -4.17567 0.0525115 0
M  V30 12173 N 1169.18 -0.941978 -1.26351 0
M  V30 12174 C 1170.14 -0.456768 -2.24602 0
M  V30 12175 C 1171.14 0.432574 -1.54872 0
M  V30 12176 O 1172.33 0.23164 -1.72653 0
M  V30 12177 C 1169.46 0.341583 -3.39184 0
M  V30 12178 H 1170.66 -1.32503 -2.69041 0
M  V30 12179 H 1168.21 -0.724021 -1.38519 0
M  V30 12180 H 1168.94 1.22806 -3.00149 0
M  V30 12181 H 1168.73 -0.296268 -3.90979 0
M  V30 12182 H 1170.22 0.670955 -4.12175 0
M  V30 12183 N 1170.66 1.40747 -0.709091 0
M  V30 12184 C 1171.89 2.05022 -0.254887 0
M  V30 12185 C 1172.29 1.5351 1.10595 0
M  V30 12186 O 1171.64 0.683912 1.70494 0
M  V30 12187 C 1171.7 3.59188 -0.149823 0
M  V30 12188 C 1171.36 4.33557 -1.44489 0
M  V30 12189 C 1172.36 4.61941 -2.3855 0
M  V30 12190 C 1170.04 4.72585 -1.70201 0
M  V30 12191 C 1172.04 5.2833 -3.56575 0
M  V30 12192 C 1169.73 5.38707 -2.88509 0
M  V30 12193 C 1170.72 5.66509 -3.81518 0
M  V30 12194 O 1170.41 6.31267 -4.97752 0
M  V30 12195 H 1170.14 0.666405 -0.113493 0
M  V30 12196 H 1172.7 1.81261 -0.966099 0
M  V30 12197 H 1170.93 3.81742 0.617276 0
M  V30 12198 H 1172.62 4.05008 0.268965 0
M  V30 12199 H 1173.38 4.32259 -2.19947 0
M  V30 12200 H 1169.26 4.50318 -0.986628 0
M  V30 12201 H 1172.81 5.49947 -4.2919 0
M  V30 12202 H 1168.7 5.67809 -3.07023 0
M  V30 12203 H 1169.47 6.49764 -4.97745 0
M  V30 12204 N 1172.13 0.454803 1.50895 0
M  V30 12205 C 1173.36 -0.103936 2.06639 0
M  V30 12206 C 1173.78 -1.34943 1.32044 0
M  V30 12207 O 1173.13 -1.78393 0.384972 0
M  V30 12208 C 1173.18 -0.408546 3.59184 0
M  V30 12209 O 1172.91 0.787535 4.30963 0
M  V30 12210 C 1174.41 -1.01605 4.31499 0
M  V30 12211 H 1171.63 -0.000171839 0.671 0
M  V30 12212 H 1174.17 0.638907 1.94263 0
M  V30 12213 H 1172.33 -1.1013 3.71416 0
M  V30 12214 H 1172.74 0.52229 5.21893 0
M  V30 12215 H 1174.21 -1.17906 5.39261 0
M  V30 12216 H 1174.69 -2.00182 3.90927 0
M  V30 12217 H 1175.3 -0.362155 4.23755 0
M  V30 12218 N 1173.61 -1.56489 0.186789 0
M  V30 12219 C 1174.84 -2.01722 -0.459993 0
M  V30 12220 C 1175.25 -1.06697 -1.5576 0
M  V30 12221 O 1174.61 -0.0704212 -1.82364 0
M  V30 12222 C 1174.66 -3.46693 -1.02401 0
M  V30 12223 O 1174.38 -4.3809 0.0297916 0
M  V30 12224 C 1175.88 -4.07403 -1.7475 0
M  V30 12225 H 1173.1 -0.660845 -0.116298 0
M  V30 12226 H 1175.65 -2.02389 0.293059 0
M  V30 12227 H 1173.8 -3.46752 -1.72749 0
M  V30 12228 H 1174.22 -5.23057 -0.388821 0
M  V30 12229 H 1175.69 -5.10718 -2.09455 0
M  V30 12230 H 1176.17 -3.50383 -2.64818 0
M  V30 12231 H 1176.77 -4.11093 -1.09007 0
M  V30 12232 N 1175.09 0.086862 -1.5736 0
M  V30 12233 C 1176.32 0.802167 -1.90717 0
M  V30 12234 C 1176.73 1.71875 -0.781304 0
M  V30 12235 O 1176.09 1.80831 0.246255 0
M  V30 12236 C 1176.14 1.60858 -3.23739 0
M  V30 12237 O 1175.86 0.728851 -4.31995 0
M  V30 12238 C 1177.36 2.42621 -3.71012 0
M  V30 12239 H 1174.58 0.228914 -0.630745 0
M  V30 12240 H 1177.13 0.061634 -2.04407 0
M  V30 12241 H 1175.28 2.30153 -3.11622 0
M  V30 12242 H 1175.7 1.2882 -5.08435 0
M  V30 12243 H 1177.17 2.94683 -4.66761 0
M  V30 12244 H 1177.65 3.21462 -2.99264 0
M  V30 12245 H 1178.25 1.78509 -3.86024 0
M  V30 12246 N 1176.57 1.53483 0.357892 0
M  V30 12247 C 1177.82 1.69701 1.09754 0
M  V30 12248 C 1178.14 0.455389 1.89608 0
M  V30 12249 O 1177.41 -0.530623 1.88577 0
M  V30 12250 H 1175.99 0.62562 0.408178 0
M  V30 12251 H 1178.65 1.90696 0.402641 0
M  V30 12252 H 1177.74 2.56154 1.78302 0
M  V30 12253 N 1178.05 -0.61812 1.44973 0
M  V30 12254 C 1179.29 -1.37468 1.48145 0
M  V30 12255 C 1179.61 -1.94628 0.120366 0
M  V30 12256 O 1178.88 -1.76548 -0.848982 0
M  V30 12257 H 1177.46 -0.510293 0.545536 0
M  V30 12258 H 1180.13 -0.726598 1.8085 0
M  V30 12259 H 1179.22 -2.19944 2.2143 0
M  V30 12260 N 1179.52 -1.32087 -0.859693 0
M  V30 12261 C 1180.47 -1.20601 -1.96784 0
M  V30 12262 C 1181.44 -0.089355 -1.65859 0
M  V30 12263 O 1182.63 -0.264022 -1.88964 0
M  V30 12264 C 1179.77 -0.929872 -3.32336 0
M  V30 12265 C 1178.88 -2.13084 -3.75791 0
M  V30 12266 C 1178.01 -1.79061 -5.00111 0
M  V30 12267 C 1177.05 -2.95507 -5.36043 0
M  V30 12268 N 1176.19 -2.61611 -6.5154 0
M  V30 12269 H 1181.03 -2.1539 -2.0594 0
M  V30 12270 H 1178.57 -1.07131 -1.00803 0
M  V30 12271 H 1180.52 -0.750285 -4.10398 0
M  V30 12272 H 1179.15 -0.0187929 -3.22795 0
M  V30 12273 H 1178.21 -2.42086 -2.93425 0
M  V30 12274 H 1179.52 -3.00205 -3.98344 0
M  V30 12275 H 1178.67 -1.57625 -5.85866 0
M  V30 12276 H 1177.41 -0.891459 -4.79483 0
M  V30 12277 H 1176.42 -3.17581 -4.48801 0
M  V30 12278 H 1177.64 -3.86147 -5.5863 0
M  V30 12279 H 1175.59 -1.74231 -6.32439 0
M  V30 12280 H 1175.5 -3.42262 -6.74087 0
M  V30 12281 H 1176.77 -2.43592 -7.40461 0
M  V30 12282 N 1181 1.07532 -1.15215 0
M  V30 12283 C 1182.25 1.79474 -0.920439 0
M  V30 12284 C 1182.56 1.87593 0.553926 0
M  V30 12285 O 1183.77 2.56037 0.903169 0
M  V30 12286 C 1182.23 3.22509 -1.59738 0
M  V30 12287 C 1181.83 3.22596 -3.10863 0
M  V30 12288 C 1183.58 3.99072 -1.44714 0
M  V30 12289 C 1181.48 4.60273 -3.71352 0
M  V30 12290 H 1180.41 0.672625 -0.340722 0
M  V30 12291 H 1183.07 1.2071 -1.38208 0
M  V30 12292 H 1181.45 3.81454 -1.06342 0
M  V30 12293 H 1182.62 2.73306 -3.70999 0
M  V30 12294 H 1180.94 2.5953 -3.25627 0
M  V30 12295 H 1183.53 5.00823 -1.87299 0
M  V30 12296 H 1183.88 4.14428 -0.394386 0
M  V30 12297 H 1184.41 3.46617 -1.95195 0
M  V30 12298 H 1181.15 4.50122 -4.76519 0
M  V30 12299 H 1180.67 5.09809 -3.15998 0
M  V30 12300 H 1182.35 5.29243 -3.7217 0
M  V30 12301 N 1182.48 0.948665 1.2585 0
M  V30 12302 C 1183.89 0.641829 1.75321 0
M  V30 12303 C 1184.24 -0.842903 1.77171 0
M  V30 12304 O 1183.37 -1.65967 1.38867 0
M  V30 12305 C 1183.96 1.15835 3.18383 0
M  V30 12306 C 1182.52 0.901784 3.65438 0
M  V30 12307 C 1181.67 1.30489 2.44679 0
M  V30 12308 H 1184.62 1.12614 1.1182 0
M  V30 12309 H 1184.64 0.515639 3.7699 0
M  V30 12310 H 1184.15 2.23897 3.17004 0
M  V30 12311 H 1182.25 -0.164135 3.72238 0
M  V30 12312 H 1182.37 1.53405 4.53876 0
M  V30 12313 H 1180.73 0.723278 2.44215 0
M  V30 12314 H 1181.51 2.3946 2.45996 0
M  V30 12315 N 1183.96 -1.40369 0.716545 0
M  V30 12316 C 1185.21 -2.00101 0.253452 0
M  V30 12317 C 1185.52 -1.57471 -1.16027 0
M  V30 12318 O 1186.73 -2.09909 -1.72193 0
M  V30 12319 C 1185.18 -3.57645 0.402213 0
M  V30 12320 C 1184.79 -4.09248 1.82264 0
M  V30 12321 C 1186.53 -4.245 -3.88526e-05 0
M  V30 12322 C 1184.44 -5.59299 1.92193 0
M  V30 12323 H 1183.37 -0.748488 0.0910047 0
M  V30 12324 H 1186.02 -1.60595 0.887772 0
M  V30 12325 H 1184.4 -3.94857 -0.300706 0
M  V30 12326 H 1185.58 -3.83412 2.55601 0
M  V30 12327 H 1183.89 -3.54993 2.17644 0
M  V30 12328 H 1186.49 -5.34673 0.0534202 0
M  V30 12329 H 1186.83 -4.03046 -1.04208 0
M  V30 12330 H 1187.37 -3.92398 0.65336 0
M  V30 12331 H 1184.11 -5.85608 2.94522 0
M  V30 12332 H 1183.63 -5.86997 1.23268 0
M  V30 12333 H 1185.3 -6.24416 1.6945 0
M  V30 12334 N 1185.44 -0.462799 -1.50652 0
M  V30 12335 C 1186.85 -0.11648 -1.59174 0
M  V30 12336 C 1187.05 1.37638 -1.47167 0
M  V30 12337 O 1186.11 2.14886 -1.3259 0
M  V30 12338 C 1187.42 -0.659289 -2.93383 0
M  V30 12339 C 1188.97 -0.62198 -3.06758 0
M  V30 12340 C 1189.44 -1.14219 -4.43529 0
M  V30 12341 N 1190.94 -1.10125 -4.49919 0
M  V30 12342 C 1191.67 -1.47436 -5.54121 0
M  V30 12343 N 1191.17 -1.92156 -6.65618 0
M  V30 12344 N 1192.96 -1.39091 -5.44619 0
M  V30 12345 H 1185.11 -1.43383 -1.56701 0
M  V30 12346 H 1187.37 -0.592438 -0.740082 0
M  V30 12347 H 1187.08 -1.70477 -3.07621 0
M  V30 12348 H 1186.95 -0.0982388 -3.77072 0
M  V30 12349 H 1189.34 0.414576 -2.92173 0
M  V30 12350 H 1189.42 -1.21974 -2.24847 0
M  V30 12351 H 1189.07 -2.17734 -4.58862 0
M  V30 12352 H 1189 -0.52073 -5.24019 0
M  V30 12353 H 1191.49 -0.773154 -3.69906 0
M  V30 12354 H 1191.8 -2.18796 -7.4118 0
M  V30 12355 H 1190.14 -1.96103 -6.6676 0
M  V30 12356 H 1193.34 -1.04001 -4.564 0
M  V30 12357 H 1193.51 -1.68496 -6.2571 0
M  V30 12358 N 1186.91 1.56388 -0.195085 0
M  V30 12359 C 1188.16 1.98634 0.437717 0
M  V30 12360 C 1188.52 1.07985 1.59239 0
M  V30 12361 O 1187.81 0.124261 1.91197 0
M  V30 12362 C 1188 3.44651 0.946051 0
M  V30 12363 C 1187.83 4.49423 -0.157828 0
M  V30 12364 C 1186.6 5.01538 -0.615457 0
M  V30 12365 C 1188.8 5.05132 -0.966773 0
M  V30 12366 N 1186.78 5.89974 -1.69716 0
M  V30 12367 C 1188.15 5.90238 -1.89788 0
M  V30 12368 C 1190.21 4.87565 -1.00919 0
M  V30 12369 C 1188.91 6.59655 -2.86788 0
M  V30 12370 C 1190.94 5.57722 -1.96724 0
M  V30 12371 C 1190.3 6.42574 -2.88579 0
M  V30 12372 H 1186.4 0.77152 0.127594 0
M  V30 12373 H 1188.98 1.92363 -0.300777 0
M  V30 12374 H 1187.15 3.51423 1.65399 0
M  V30 12375 H 1188.88 3.73863 1.54946 0
M  V30 12376 H 1185.64 4.73139 -0.208806 0
M  V30 12377 H 1186.06 6.38896 -2.23921 0
M  V30 12378 H 1190.71 4.2164 -0.313023 0
M  V30 12379 H 1188.42 7.24779 -3.57381 0
M  V30 12380 H 1192.01 5.46106 -2.00647 0
M  V30 12381 H 1190.89 6.95906 -3.61503 0
M  V30 12382 N 1188.39 -0.0785156 1.57404 0
M  V30 12383 C 1189.62 -0.792042 1.9114 0
M  V30 12384 C 1190.04 -1.71458 0.790408 0
M  V30 12385 O 1189.39 -1.80959 -0.236662 0
M  V30 12386 C 1189.44 -1.59138 3.24588 0
M  V30 12387 O 1189.16 -0.705931 4.32375 0
M  V30 12388 C 1190.67 -2.4065 3.72293 0
M  V30 12389 H 1187.89 -0.225566 0.63195 0
M  V30 12390 H 1190.43 -0.0507929 2.04437 0
M  V30 12391 H 1188.58 -2.28498 3.12838 0
M  V30 12392 H 1189 -1.26121 5.09111 0
M  V30 12393 H 1190.47 -2.92204 4.68317 0
M  V30 12394 H 1190.95 -3.1987 3.00965 0
M  V30 12395 H 1191.56 -1.7646 3.86965 0
M  V30 12396 N 1189.87 -1.5367 -0.349747 0
M  V30 12397 C 1190.83 -1.80533 -1.41211 0
M  V30 12398 C 1191.83 -0.676188 -1.45892 0
M  V30 12399 O 1193.02 -0.944453 -1.46375 0
M  V30 12400 C 1190.16 -1.94175 -2.80195 0
M  V30 12401 H 1191.35 -2.75428 -1.18658 0
M  V30 12402 H 1188.9 -1.44988 -0.583787 0
M  V30 12403 H 1189.64 -1.01402 -3.08039 0
M  V30 12404 H 1189.42 -2.76316 -2.78194 0
M  V30 12405 H 1190.91 -2.16496 -3.57098 0
M  V30 12406 N 1191.35 0.610423 -1.45298 0
M  V30 12407 C 1192.76 1.19234 -1.43667 0
M  V30 12408 C 1193.11 1.95523 -0.162794 0
M  V30 12409 O 1192.24 2.03507 0.735789 0
M  V30 12410 C 1192.83 2.16892 -2.60276 0
M  V30 12411 C 1191.39 2.70465 -2.61774 0
M  V30 12412 C 1190.54 1.45821 -2.35863 0
M  V30 12413 H 1193.49 0.399895 -1.53579 0
M  V30 12414 H 1193.51 2.99875 -2.34212 0
M  V30 12415 H 1193.02 1.61339 -3.52975 0
M  V30 12416 H 1191.12 3.29965 -1.73072 0
M  V30 12417 H 1191.23 3.15092 -3.60907 0
M  V30 12418 H 1189.6 1.74678 -1.85364 0
M  V30 12419 H 1190.38 0.921403 -3.30704 0
M  V30 12420 N 1192.83 1.32541 0.852676 0
M  V30 12421 C 1193.74 1.23646 1.99371 0
M  V30 12422 C 1194.75 0.149673 1.73355 0
M  V30 12423 O 1195.93 0.370716 1.97959 0
M  V30 12424 C 1192.99 0.961873 3.3309 0
M  V30 12425 C 1192.05 2.1373 3.72315 0
M  V30 12426 C 1191.29 1.87572 4.99652 0
M  V30 12427 O 1191.51 0.819247 5.64486 0
M  V30 12428 O 1190.44 2.73732 5.36054 0
M  V30 12429 H 1194.27 2.19573 2.09813 0
M  V30 12430 H 1191.86 1.12451 0.983627 0
M  V30 12431 H 1193.74 0.825316 4.13239 0
M  V30 12432 H 1192.41 0.0327745 3.23683 0
M  V30 12433 H 1191.32 2.32933 2.92733 0
M  V30 12434 H 1192.65 3.04925 3.86369 0
M  V30 12435 N 1194.3 -1.0692 1.15784 0
M  V30 12436 C 1195.27 -2.12407 0.861167 0
M  V30 12437 C 1196.27 -1.6018 -0.141031 0
M  V30 12438 O 1197.46 -1.73972 0.0891192 0
M  V30 12439 C 1194.59 -3.39693 0.286636 0
M  V30 12440 H 1195.78 -2.40157 1.79623 0
M  V30 12441 H 1193.34 -1.22881 0.965916 0
M  V30 12442 H 1194.07 -3.17587 -0.656417 0
M  V30 12443 H 1193.86 -3.78903 1.0087 0
M  V30 12444 H 1195.35 -4.17488 0.0967971 0
M  V30 12445 N 1195.78 -0.955326 -1.25345 0
M  V30 12446 C 1197.03 -0.606149 -1.92377 0
M  V30 12447 C 1197.34 0.860927 -1.75634 0
M  V30 12448 O 1198.55 1.3201 -2.37246 0
M  V30 12449 C 1197.01 -1.03341 -3.44744 0
M  V30 12450 C 1196.61 -2.52308 -3.70196 0
M  V30 12451 C 1198.36 -0.756797 -4.17699 0
M  V30 12452 C 1196.27 -2.88831 -5.16072 0
M  V30 12453 H 1195.2 -0.222994 -0.720271 0
M  V30 12454 H 1197.85 -1.15987 -1.42194 0
M  V30 12455 H 1196.23 -0.408096 -3.93892 0
M  V30 12456 H 1197.4 -3.19864 -3.31698 0
M  V30 12457 H 1195.72 -2.77448 -3.10502 0
M  V30 12458 H 1198.31 -1.00583 -5.25154 0
M  V30 12459 H 1198.66 0.306794 -4.15168 0
M  V30 12460 H 1199.19 -1.34249 -3.74462 0
M  V30 12461 H 1195.93 -3.9421 -5.23716 0
M  V30 12462 H 1195.45 -2.25948 -5.55614 0
M  V30 12463 H 1197.13 -2.78061 -5.84201 0
M  V30 12464 N 1197.26 1.39987 -0.723979 0
M  V30 12465 C 1198.22 2.29041 -0.0854583 0
M  V30 12466 C 1199.22 1.45777 0.678657 0
M  V30 12467 O 1200.41 1.66588 0.509311 0
M  V30 12468 C 1197.55 3.29115 0.88859 0
M  V30 12469 H 1198.74 2.87006 -0.869903 0
M  V30 12470 H 1196.29 1.48449 -0.489136 0
M  V30 12471 H 1197.03 2.76184 1.69979 0
M  V30 12472 H 1196.81 3.90593 0.343454 0
M  V30 12473 H 1198.3 3.95778 1.33227 0
M  V30 12474 N 1198.74 0.470782 1.50404 0
M  V30 12475 C 1199.99 -0.084316 2.02324 0
M  V30 12476 C 1200.31 -1.39749 1.35279 0
M  V30 12477 O 1199.57 -1.90037 0.467364 0
M  V30 12478 C 1199.87 -0.316419 3.55997 0
M  V30 12479 C 1199.53 0.915017 4.41518 0
M  V30 12480 C 1198.2 1.25265 4.6461 0
M  V30 12481 C 1200.55 1.73494 4.91477 0
M  V30 12482 C 1197.88 2.41027 5.34905 0
M  V30 12483 C 1200.23 2.88384 5.63043 0
M  V30 12484 C 1198.89 3.22562 5.84389 0
M  V30 12485 H 1198.16 -0.0308534 0.740357 0
M  V30 12486 H 1200.81 0.624799 1.81021 0
M  V30 12487 H 1199.11 -1.10778 3.75813 0
M  V30 12488 H 1200.81 -0.759882 3.93734 0
M  V30 12489 H 1197.4 0.641977 4.23765 0
M  V30 12490 H 1201.59 1.48728 4.73491 0
M  V30 12491 H 1196.84 2.67781 5.49639 0
M  V30 12492 H 1201.02 3.52264 6.00735 0
M  V30 12493 H 1198.64 4.1237 6.38635 0
M  V30 12494 N 1200.22 -1.56282 0.203376 0
M  V30 12495 C 1201.63 -1.58871 -0.152335 0
M  V30 12496 C 1201.83 -1.21978 -1.60386 0
M  V30 12497 O 1200.89 -0.946422 -2.34092 0
M  V30 12498 C 1202.2 -3.00287 0.157515 0
M  V30 12499 C 1203.75 -3.12846 0.098287 0
M  V30 12500 C 1204.23 -4.56408 0.38156 0
M  V30 12501 N 1205.72 -4.6202 0.330475 0
M  V30 12502 C 1206.45 -5.71006 0.523397 0
M  V30 12503 N 1205.95 -6.88428 0.777115 0
M  V30 12504 N 1207.74 -5.60238 0.457082 0
M  V30 12505 H 1199.89 -1.78543 1.15048 0
M  V30 12506 H 1202.15 -0.829019 0.459816 0
M  V30 12507 H 1201.86 -3.3187 1.16427 0
M  V30 12508 H 1201.73 -3.73372 -0.536041 0
M  V30 12509 H 1204.12 -2.8107 -0.899085 0
M  V30 12510 H 1204.2 -2.42129 0.825045 0
M  V30 12511 H 1203.85 -4.88897 1.37629 0
M  V30 12512 H 1203.78 -5.25325 -0.366182 0
M  V30 12513 H 1206.27 -3.77636 0.141327 0
M  V30 12514 H 1206.58 -7.67389 0.912911 0
M  V30 12515 H 1204.93 -6.90215 0.814104 0
M  V30 12516 H 1208.12 -4.67382 0.259226 0
M  V30 12517 H 1208.29 -6.45114 0.610848 0
M  V30 12518 N 1201.7 0.070167 -1.57444 0
M  V30 12519 C 1202.92 0.781894 -1.91557 0
M  V30 12520 C 1203.34 1.71037 -0.799489 0
M  V30 12521 O 1202.7 1.81082 0.227062 0
M  V30 12522 C 1202.75 1.57415 -3.25427 0
M  V30 12523 O 1202.47 0.682991 -4.32743 0
M  V30 12524 C 1203.97 2.38673 -3.73564 0
M  V30 12525 H 1201.19 0.222211 -0.633138 0
M  V30 12526 H 1203.73 0.0399504 -2.04461 0
M  V30 12527 H 1201.89 2.26835 -3.14045 0
M  V30 12528 H 1202.3 1.2342 -5.09772 0
M  V30 12529 H 1203.78 2.89716 -4.6986 0
M  V30 12530 H 1204.25 3.18269 -3.02657 0
M  V30 12531 H 1204.86 1.74405 -3.87896 0
M  V30 12532 N 1203.17 1.53854 0.341593 0
M  V30 12533 C 1204.42 1.71194 1.08162 0
M  V30 12534 C 1204.75 0.47614 1.88582 0
M  V30 12535 O 1204 -0.542115 1.88041 0
M  V30 12536 C 1204.3 2.92844 2.04884 0
M  V30 12537 C 1203.97 4.28366 1.40759 0
M  V30 12538 C 1202.63 4.65214 1.23 0
M  V30 12539 C 1204.98 5.12546 0.945819 0
M  V30 12540 C 1202.31 5.83857 0.576852 0
M  V30 12541 C 1204.66 6.31857 0.306568 0
M  V30 12542 C 1203.33 6.67398 0.116677 0
M  V30 12543 H 1202.6 0.626442 0.395792 0
M  V30 12544 H 1205.24 1.88073 0.360688 0
M  V30 12545 H 1203.55 2.70576 2.83365 0
M  V30 12546 H 1205.25 3.03454 2.62139 0
M  V30 12547 H 1201.84 3.99366 1.5558 0
M  V30 12548 H 1206.02 4.84609 1.07087 0
M  V30 12549 H 1201.28 6.09967 0.418363 0
M  V30 12550 H 1205.45 6.96375 -0.0593285 0
M  V30 12551 H 1203.08 7.59191 -0.391477 0
M  V30 12552 N 1204.65 -0.602709 1.4562 0
M  V30 12553 C 1205.88 -1.39299 1.53657 0
M  V30 12554 C 1206.3 -1.87315 0.171632 0
M  V30 12555 O 1205.66 -1.60423 -0.844639 0
M  V30 12556 C 1205.71 -2.57021 2.52928 0
M  V30 12557 O 1204.81 -3.57812 2.05047 0
M  V30 12558 H 1204.15 -0.41567 0.517798 0
M  V30 12559 H 1206.68 -0.73304 1.91018 0
M  V30 12560 H 1206.69 -3.04202 2.71892 0
M  V30 12561 H 1205.37 -2.21422 3.52058 0
M  V30 12562 H 1203.94 -3.17247 1.95981 0
M  V30 12563 N 1206.13 -1.32992 -0.845635 0
M  V30 12564 C 1207.35 -1.27231 -1.6379 0
M  V30 12565 C 1207.78 0.155141 -1.87459 0
M  V30 12566 O 1207.14 1.10953 -1.43384 0
M  V30 12567 C 1207.19 -2.04629 -2.96916 0
M  V30 12568 O 1206.29 -1.40027 -3.879 0
M  V30 12569 H 1205.63 -0.438045 -0.499011 0
M  V30 12570 H 1208.16 -1.75448 -1.05257 0
M  V30 12571 H 1208.17 -2.15141 -3.46667 0
M  V30 12572 H 1206.85 -3.08425 -2.79011 0
M  V30 12573 H 1205.42 -1.38118 -3.46378 0
M  V30 12574 N 1207.61 1.06304 -1.1635 0
M  V30 12575 C 1208.57 2.11947 -0.872419 0
M  V30 12576 C 1209.57 1.60253 0.132534 0
M  V30 12577 O 1210.76 1.73922 -0.0983441 0
M  V30 12578 C 1207.89 3.39536 -0.304646 0
M  V30 12579 H 1209.09 2.39201 -1.80894 0
M  V30 12580 H 1206.64 1.22367 -0.972419 0
M  V30 12581 H 1207.37 3.17931 0.639565 0
M  V30 12582 H 1207.16 3.78363 -1.02878 0
M  V30 12583 H 1208.65 4.17431 -0.118936 0
M  V30 12584 N 1209.09 0.96196 1.24836 0
M  V30 12585 C 1210.31 0.637709 1.97353 0
M  V30 12586 C 1210.74 -0.784919 1.7094 0
M  V30 12587 O 1210.09 -1.53188 0.969694 0
M  V30 12588 C 1210.14 0.911485 3.4889 0
M  V30 12589 O 1209.25 -0.00601668 4.124 0
M  V30 12590 H 1208.59 0.241685 0.618453 0
M  V30 12591 H 1211.12 1.29055 1.58764 0
M  V30 12592 H 1211.13 0.840702 3.99245 0
M  V30 12593 H 1209.8 1.9483 3.67442 0
M  V30 12594 H 1208.38 0.117597 3.72715 0
M  V30 12595 N 1210.56 -1.39601 0.731392 0
M  V30 12596 C 1211.84 -1.94531 0.20422 0
M  V30 12597 C 1212.22 -1.66845 -1.29329 0
M  V30 12598 O 1211.57 -0.994706 -2.05713 0
M  V30 12599 C 1211.78 -3.44891 0.53395 0
M  V30 12600 C 1213.13 -4.21863 0.481298 0
M  V30 12601 O 1214.15 -3.53073 0.470929 0
M  V30 12602 O 1213.01 -5.44452 0.472663 0
M  V30 12603 H 1210.1 -0.826214 0.0360436 0
M  V30 12604 H 1212.65 -1.49121 0.810005 0
M  V30 12605 H 1211.42 -3.58463 1.56907 0
M  V30 12606 H 1211.04 -3.97472 -0.10099 0
M  V30 12607 N 1212.04 -0.478751 -1.50152 0
M  V30 12608 C 1213.29 0.073694 -2.02666 0
M  V30 12609 C 1213.62 1.38679 -1.35947 0
M  V30 12610 O 1212.9 1.88286 -0.4877 0
M  V30 12611 C 1213.18 0.249516 -3.59235 0
M  V30 12612 C 1213.03 -1.08514 -4.36514 0
M  V30 12613 C 1214.35 1.00053 -4.28576 0
M  V30 12614 H 1211.47 0.0253082 -0.736565 0
M  V30 12615 H 1214.11 -0.625834 -1.79397 0
M  V30 12616 H 1212.26 0.845343 -3.79192 0
M  V30 12617 H 1213.93 -1.71814 -4.28109 0
M  V30 12618 H 1212.18 -1.67992 -3.99952 0
M  V30 12619 H 1212.85 -0.915676 -5.44352 0
M  V30 12620 H 1215.32 0.495422 -4.1314 0
M  V30 12621 H 1214.2 1.09236 -5.37921 0
M  V30 12622 H 1214.46 2.03896 -3.92274 0
M  V30 12623 N 1213.52 1.56172 -0.211661 0
M  V30 12624 C 1214.77 1.99087 0.416624 0
M  V30 12625 C 1215.12 1.09668 1.58084 0
M  V30 12626 O 1214.41 0.144533 1.91054 0
M  V30 12627 C 1214.61 3.45636 0.909442 0
M  V30 12628 C 1214.44 4.4923 -0.205486 0
M  V30 12629 C 1213.21 5.00857 -0.668617 0
M  V30 12630 C 1215.41 5.04078 -1.02029 0
M  V30 12631 N 1213.39 5.88141 -1.75964 0
M  V30 12632 C 1214.76 5.88192 -1.96037 0
M  V30 12633 C 1216.81 4.86467 -1.06085 0
M  V30 12634 C 1215.52 6.56576 -2.93768 0
M  V30 12635 C 1217.54 5.55604 -2.02629 0
M  V30 12636 C 1216.9 6.39477 -2.95378 0
M  V30 12637 H 1213 0.77283 0.119404 0
M  V30 12638 H 1215.59 1.92033 -0.321163 0
M  V30 12639 H 1213.76 3.53157 1.61662 0
M  V30 12640 H 1215.49 3.75486 1.50972 0
M  V30 12641 H 1212.25 4.72891 -0.258977 0
M  V30 12642 H 1212.67 6.36485 -2.30685 0
M  V30 12643 H 1217.31 4.21284 -0.357726 0
M  V30 12644 H 1215.03 7.20948 -3.65048 0
M  V30 12645 H 1218.62 5.43947 -2.06428 0
M  V30 12646 H 1217.5 6.92032 -3.68864 0
M  V30 12647 N 1215 -0.0618163 1.57479 0
M  V30 12648 C 1216.22 -0.775513 1.92355 0
M  V30 12649 C 1216.65 -1.69816 0.808949 0
M  V30 12650 O 1216.01 -1.79736 -0.23761 0
M  V30 12651 C 1216.05 -1.5367 3.26218 0
M  V30 12652 O 1215.16 -2.64802 3.16155 0
M  V30 12653 H 1214.5 -0.210909 0.629614 0
M  V30 12654 H 1217.03 -0.0270752 2.04582 0
M  V30 12655 H 1217.04 -1.91379 3.6033 0
M  V30 12656 H 1215.71 -0.859798 4.06916 0
M  V30 12657 H 1214.29 -2.29876 2.93618 0
M  V30 12658 N 1216.48 -1.54033 -0.333429 0
M  V30 12659 C 1217.72 -1.71765 -1.07252 0
M  V30 12660 C 1218.05 -0.486135 -1.88327 0
M  V30 12661 O 1217.31 0.532135 -1.88326 0
M  V30 12662 C 1217.61 -2.93926 -2.03328 0
M  V30 12663 C 1217.27 -4.29107 -1.38486 0
M  V30 12664 C 1215.93 -4.6586 -1.20532 0
M  V30 12665 C 1218.29 -5.13041 -0.918624 0
M  V30 12666 C 1215.61 -5.84155 -0.545881 0
M  V30 12667 C 1217.97 -6.3201 -0.273055 0
M  V30 12668 C 1216.63 -6.67451 -0.0812815 0
M  V30 12669 H 1215.9 -0.628532 -0.392464 0
M  V30 12670 H 1218.55 -1.88261 -0.350709 0
M  V30 12671 H 1216.85 -2.72075 -2.81926 0
M  V30 12672 H 1218.55 -3.0484 -2.60526 0
M  V30 12673 H 1215.14 -4.00185 -1.5346 0
M  V30 12674 H 1219.32 -4.8517 -1.04515 0
M  V30 12675 H 1214.58 -6.1018 -0.386009 0
M  V30 12676 H 1218.75 -6.96333 0.0962582 0
M  V30 12677 H 1216.38 -7.58973 0.431734 0
M  V30 12678 N 1217.95 0.594978 -1.45938 0
M  V30 12679 C 1219.2 1.35093 -1.50314 0
M  V30 12680 C 1219.52 1.94412 -0.151315 0
M  V30 12681 O 1218.79 1.77876 0.820787 0
M  V30 12682 H 1217.37 0.501549 -0.553586 0
M  V30 12683 H 1220.04 0.697735 -1.81983 0
M  V30 12684 H 1219.13 2.16393 -2.24901 0
M  V30 12685 N 1219.43 1.33438 0.838571 0
M  V30 12686 C 1220.68 1.25097 1.5962 0
M  V30 12687 C 1221.01 -0.182798 1.93338 0
M  V30 12688 O 1220.29 -1.1242 1.5872 0
M  V30 12689 C 1220.57 2.12655 2.90603 0
M  V30 12690 C 1220.42 3.64491 2.63565 0
M  V30 12691 C 1221.74 1.99994 3.92033 0
M  V30 12692 H 1218.86 0.455776 0.579169 0
M  V30 12693 H 1221.5 1.63542 0.967169 0
M  V30 12694 H 1219.65 1.79998 3.44286 0
M  V30 12695 H 1221.32 4.0744 2.16312 0
M  V30 12696 H 1219.57 3.86356 1.9726 0
M  V30 12697 H 1220.24 4.21101 3.569 0
M  V30 12698 H 1222.71 2.28635 3.47657 0
M  V30 12699 H 1221.59 2.63509 4.81512 0
M  V30 12700 H 1221.85 0.972263 4.31277 0
M  V30 12701 N 1220.91 -1.05686 1.16912 0
M  V30 12702 C 1222.16 -1.78862 0.955839 0
M  V30 12703 C 1222.49 -1.87257 -0.514645 0
M  V30 12704 O 1221.76 -1.36869 -1.38193 0
M  V30 12705 C 1222.05 -3.23021 1.59152 0
M  V30 12706 C 1221.9 -3.22669 3.13376 0
M  V30 12707 C 1223.22 -4.2073 1.29128 0
M  V30 12708 H 1220.34 -0.64931 0.348663 0
M  V30 12709 H 1222.98 -1.23561 1.44335 0
M  V30 12710 H 1221.13 -3.70243 1.17697 0
M  V30 12711 H 1222.8 -2.83562 3.63855 0
M  V30 12712 H 1221.05 -2.61149 3.46386 0
M  V30 12713 H 1221.72 -4.24394 3.52979 0
M  V30 12714 H 1224.19 -3.8198 1.65017 0
M  V30 12715 H 1223.07 -5.19851 1.76198 0
M  V30 12716 H 1223.33 -4.41595 0.21119 0
M  V30 12717 N 1222.39 -0.968567 -1.24324 0
M  V30 12718 C 1223.32 -0.444065 -2.23838 0
M  V30 12719 C 1224.3 0.482311 -1.55282 0
M  V30 12720 O 1225.48 0.413489 -1.83909 0
M  V30 12721 C 1222.61 0.358874 -3.36793 0
M  V30 12722 C 1221.66 -0.509913 -4.23441 0
M  V30 12723 S 1222.49 -1.95064 -4.98708 0
M  V30 12724 C 1223.65 -1.15652 -6.15122 0
M  V30 12725 H 1223.88 -1.28738 -2.67981 0
M  V30 12726 H 1221.41 -0.773665 -1.33618 0
M  V30 12727 H 1223.37 0.816164 -4.02305 0
M  V30 12728 H 1222.03 1.17717 -2.91207 0
M  V30 12729 H 1221.22 0.106617 -5.03887 0
M  V30 12730 H 1220.83 -0.902967 -3.62936 0
M  V30 12731 H 1223.12 -0.411966 -6.76246 0
M  V30 12732 H 1224.06 -1.93539 -6.81137 0
M  V30 12733 H 1224.47 -0.680507 -5.60383 0
M  V30 12734 N 1223.87 1.39211 -0.738786 0
M  V30 12735 C 1225.11 2.01209 -0.297722 0
M  V30 12736 C 1225.47 1.57579 1.10393 0
M  V30 12737 O 1224.76 0.796454 1.74262 0
M  V30 12738 C 1224.95 3.55758 -0.342224 0
M  V30 12739 C 1224.78 4.14393 -1.74666 0
M  V30 12740 C 1223.55 4.46814 -2.35978 0
M  V30 12741 C 1225.75 4.37672 -2.70089 0
M  V30 12742 N 1223.73 4.90973 -3.68536 0
M  V30 12743 C 1225.1 4.84077 -3.87388 0
M  V30 12744 C 1227.16 4.19746 -2.67802 0
M  V30 12745 C 1225.86 5.14436 -5.02741 0
M  V30 12746 C 1227.89 4.51221 -3.82301 0
M  V30 12747 C 1227.25 4.97836 -4.98336 0
M  V30 12748 H 1223.35 0.766427 -0.155283 0
M  V30 12749 H 1225.93 1.69071 -0.965568 0
M  V30 12750 H 1224.1 3.87276 0.295285 0
M  V30 12751 H 1225.84 4.04529 0.117748 0
M  V30 12752 H 1222.59 4.34744 -1.87869 0
M  V30 12753 H 1223.02 5.17405 -4.36602 0
M  V30 12754 H 1227.66 3.82906 -1.79284 0
M  V30 12755 H 1225.38 5.50179 -5.91886 0
M  V30 12756 H 1228.96 4.3897 -3.81834 0
M  V30 12757 H 1227.84 5.21728 -5.85465 0
M  V30 12758 N 1225.34 0.486708 1.49896 0
M  V30 12759 C 1226.25 -0.304222 2.32619 0
M  V30 12760 C 1227.27 -0.981103 1.43702 0
M  V30 12761 O 1228.45 -0.965639 1.76741 0
M  V30 12762 C 1225.51 -1.36301 3.18783 0
M  V30 12763 C 1224.57 -0.701082 4.23537 0
M  V30 12764 C 1223.81 -1.70943 5.05583 0
M  V30 12765 O 1224.03 -2.93773 4.88931 0
M  V30 12766 O 1222.96 -1.27263 5.88292 0
M  V30 12767 H 1226.79 0.37248 3.01407 0
M  V30 12768 H 1224.37 0.248277 1.47323 0
M  V30 12769 H 1226.26 -1.97594 3.72202 0
M  V30 12770 H 1224.93 -2.0229 2.52706 0
M  V30 12771 H 1223.84 -0.0487926 3.74068 0
M  V30 12772 H 1225.17 -0.0838817 4.92129 0
M  V30 12773 N 1226.82 -1.56058 0.219941 0
M  V30 12774 C 1228.07 -1.98554 -0.412808 0
M  V30 12775 C 1228.4 -1.10742 -1.5953 0
M  V30 12776 O 1227.68 -0.164757 -1.93801 0
M  V30 12777 C 1227.96 -3.4995 -0.848923 0
M  V30 12778 C 1227.81 -4.48535 0.337094 0
M  V30 12779 C 1229.13 -4.05703 -1.70567 0
M  V30 12780 H 1226.25 -0.721869 -0.148576 0
M  V30 12781 H 1228.89 -1.87356 0.315852 0
M  V30 12782 H 1227.04 -3.59624 -1.46979 0
M  V30 12783 H 1228.72 -4.50874 0.975216 0
M  V30 12784 H 1226.96 -4.22474 0.984798 0
M  V30 12785 H 1227.63 -5.51999 -0.0109665 0
M  V30 12786 H 1230.11 -3.98964 -1.18182 0
M  V30 12787 H 1228.98 -5.11955 -1.97972 0
M  V30 12788 H 1229.24 -3.52487 -2.66844 0
M  V30 12789 N 1228.3 0.053464 -1.57509 0
M  V30 12790 C 1229.23 1.06151 -2.07977 0
M  V30 12791 C 1230.21 1.3924 -0.977047 0
M  V30 12792 O 1231.4 1.48549 -1.25087 0
M  V30 12793 C 1228.53 2.36969 -2.53895 0
M  V30 12794 C 1227.48 2.18186 -3.6821 0
M  V30 12795 C 1226.81 3.54551 -4.00247 0
M  V30 12796 C 1228.11 1.588 -4.97574 0
M  V30 12797 H 1229.8 0.641483 -2.92447 0
M  V30 12798 H 1227.35 0.307122 -1.40687 0
M  V30 12799 H 1229.3 3.07797 -2.87817 0
M  V30 12800 H 1228.02 2.80986 -1.66476 0
M  V30 12801 H 1226.68 1.49796 -3.34599 0
M  V30 12802 H 1226.33 3.96171 -3.09932 0
M  V30 12803 H 1226.03 3.42816 -4.77232 0
M  V30 12804 H 1227.56 4.2678 -4.36682 0
M  V30 12805 H 1228.97 2.19515 -5.29609 0
M  V30 12806 H 1227.37 1.57711 -5.79006 0
M  V30 12807 H 1228.44 0.551254 -4.81756 0
M  V30 12808 N 1229.78 1.54207 0.325255 0
M  V30 12809 C 1230.74 1.82757 1.38321 0
M  V30 12810 C 1231.74 0.699312 1.44797 0
M  V30 12811 O 1232.93 0.96762 1.44854 0
M  V30 12812 C 1230.06 1.98608 2.7707 0
M  V30 12813 H 1231.26 2.7728 1.14261 0
M  V30 12814 H 1228.81 1.45899 0.560647 0
M  V30 12815 H 1229.55 1.0629 3.06387 0
M  V30 12816 H 1229.33 2.80707 2.73763 0
M  V30 12817 H 1230.82 2.2215 3.53609 0
M  V30 12818 N 1231.26 -0.58723 1.46251 0
M  V30 12819 C 1232.49 -1.36976 1.54665 0
M  V30 12820 C 1232.9 -1.88293 0.185079 0
M  V30 12821 O 1232.24 -1.64028 -0.82707 0
M  V30 12822 C 1232.3 -2.59591 2.48702 0
M  V30 12823 C 1231.96 -2.29773 3.95036 0
M  V30 12824 C 1232.96 -1.88885 4.84374 0
M  V30 12825 C 1230.65 -2.42057 4.40129 0
M  V30 12826 C 1232.64 -1.60669 6.16818 0
M  V30 12827 C 1230.33 -2.13454 5.72609 0
M  V30 12828 C 1231.33 -1.72824 6.60773 0
M  V30 12829 O 1231.01 -1.44569 7.90794 0
M  V30 12830 H 1230.75 -0.424968 0.525717 0
M  V30 12831 H 1233.3 -0.721298 1.92319 0
M  V30 12832 H 1231.53 -3.27226 2.06058 0
M  V30 12833 H 1233.22 -3.21656 2.47573 0
M  V30 12834 H 1233.98 -1.78913 4.50794 0
M  V30 12835 H 1229.86 -2.72644 3.71734 0
M  V30 12836 H 1233.41 -1.28882 6.85591 0
M  V30 12837 H 1229.3 -2.23048 6.05739 0
M  V30 12838 H 1230.07 -1.58452 8.03016 0
M  V30 12839 N 1232.74 -1.33881 -0.831482 0
M  V30 12840 C 1233.98 -1.25507 -1.58406 0
M  V30 12841 C 1234.3 0.177137 -1.94194 0
M  V30 12842 O 1233.57 1.10769 -1.61576 0
M  V30 12843 H 1232.15 -0.461551 -0.587349 0
M  V30 12844 H 1234.82 -1.6769 -0.99328 0
M  V30 12845 H 1233.91 -1.85391 -2.51071 0
M  V30 12846 N 1234.21 1.05064 -1.1747 0
M  V30 12847 C 1235.12 2.16346 -0.907286 0
M  V30 12848 C 1236.14 1.7355 0.125013 0
M  V30 12849 O 1237.32 2.01326 -0.0545551 0
M  V30 12850 C 1234.38 3.44077 -0.425681 0
M  V30 12851 C 1233.44 4.01311 -1.52473 0
M  V30 12852 C 1232.67 5.22946 -1.06601 0
M  V30 12853 O 1232.9 5.70345 0.0793329 0
M  V30 12854 O 1231.83 5.72454 -1.85958 0
M  V30 12855 H 1235.66 2.41754 -1.83817 0
M  V30 12856 H 1233.24 1.14834 -0.955693 0
M  V30 12857 H 1235.12 4.21078 -0.164689 0
M  V30 12858 H 1233.8 3.20166 0.477037 0
M  V30 12859 H 1232.71 3.25744 -1.83961 0
M  V30 12860 H 1234.04 4.29543 -2.4032 0
M  V30 12861 N 1235.69 0.975146 1.23809 0
M  V30 12862 C 1237.11 0.682899 1.44252 0
M  V30 12863 C 1237.31 -0.752739 1.86912 0
M  V30 12864 O 1236.36 -1.52579 2.01186 0
M  V30 12865 C 1237.68 1.67335 2.49839 0
M  V30 12866 C 1239.22 1.6868 2.63659 0
M  V30 12867 C 1239.7 2.66542 3.72451 0
M  V30 12868 N 1241.19 2.65028 3.79887 0
M  V30 12869 C 1241.93 3.37421 4.63611 0
M  V30 12870 N 1241.42 4.19355 5.51465 0
M  V30 12871 N 1243.21 3.2621 4.57759 0
M  V30 12872 H 1235.37 1.9026 0.94418 0
M  V30 12873 H 1237.63 0.819543 0.476502 0
M  V30 12874 H 1237.33 2.69978 2.25399 0
M  V30 12875 H 1237.21 1.45201 3.48133 0
M  V30 12876 H 1239.6 0.667438 2.87453 0
M  V30 12877 H 1239.68 1.94878 1.65699 0
M  V30 12878 H 1239.32 3.68617 3.49405 0
M  V30 12879 H 1239.25 2.3762 4.69941 0
M  V30 12880 H 1241.74 2.05562 3.171 0
M  V30 12881 H 1242.05 4.71461 6.12327 0
M  V30 12882 H 1240.4 4.23447 5.51106 0
M  V30 12883 H 1243.59 2.61656 3.88142 0
M  V30 12884 H 1243.76 3.82889 5.22781 0
M  V30 12885 N 1237.17 -1.38817 0.746158 0
M  V30 12886 C 1238.58 -1.83045 0.367629 0
M  V30 12887 C 1238.93 -1.62285 -1.10263 0
M  V30 12888 O 1238.06 -1.12001 -1.85162 0
M  V30 12889 C 1238.65 -3.323 0.660482 0
M  V30 12890 C 1237.21 -3.74903 0.335318 0
M  V30 12891 C 1236.36 -2.61683 0.917446 0
M  V30 12892 H 1239.31 -1.27651 0.94291 0
M  V30 12893 H 1239.33 -3.80446 -0.0639061 0
M  V30 12894 H 1238.84 -3.47377 1.73062 0
M  V30 12895 H 1236.94 -3.65408 -0.728538 0
M  V30 12896 H 1237.06 -4.71932 0.825677 0
M  V30 12897 H 1235.42 -2.52376 0.343316 0
M  V30 12898 H 1236.2 -2.79563 1.99247 0
M  V30 12899 N 1238.65 -0.49465 -1.49636 0
M  V30 12900 C 1239.88 0.0490417 -2.06542 0
M  V30 12901 C 1240.29 1.31945 -1.35599 0
M  V30 12902 O 1239.63 1.78691 -0.426047 0
M  V30 12903 C 1239.69 0.379426 -3.57492 0
M  V30 12904 C 1239.35 -0.792345 -4.50079 0
M  V30 12905 C 1240.35 -1.68106 -4.91972 0
M  V30 12906 C 1238.04 -0.98935 -4.9246 0
M  V30 12907 C 1240.03 -2.75099 -5.74978 0
M  V30 12908 C 1237.72 -2.06247 -5.75244 0
M  V30 12909 C 1238.72 -2.94163 -6.16407 0
M  V30 12910 O 1238.4 -3.99623 -6.97536 0
M  V30 12911 H 1238.14 -0.0143708 -0.675847 0
M  V30 12912 H 1240.69 -0.689358 -1.93486 0
M  V30 12913 H 1238.92 1.17133 -3.68533 0
M  V30 12914 H 1240.61 0.860979 -3.96664 0
M  V30 12915 H 1241.37 -1.54065 -4.59879 0
M  V30 12916 H 1237.25 -0.314435 -4.59926 0
M  V30 12917 H 1240.8 -3.4375 -6.07027 0
M  V30 12918 H 1236.69 -2.20285 -6.06749 0
M  V30 12919 H 1237.46 -3.96899 -7.15831 0
M  V30 12920 N 1240.13 1.55939 -0.228214 0
M  V30 12921 C 1241.37 1.99518 0.395485 0
M  V30 12922 C 1241.73 1.11339 1.56912 0
M  V30 12923 O 1241.02 0.164788 1.9089 0
M  V30 12924 C 1241.21 3.46581 0.872732 0
M  V30 12925 C 1241.04 4.48987 -0.253122 0
M  V30 12926 C 1239.81 5.0012 -0.721702 0
M  V30 12927 C 1242.01 5.02967 -1.0737 0
M  V30 12928 N 1239.99 5.86242 -1.82192 0
M  V30 12929 C 1241.36 5.86079 -2.02265 0
M  V30 12930 C 1243.42 4.85315 -1.11238 0
M  V30 12931 C 1242.12 6.53424 -3.00716 0
M  V30 12932 C 1244.15 5.53423 -2.0851 0
M  V30 12933 C 1243.51 6.36308 -3.02144 0
M  V30 12934 H 1239.61 0.774053 0.1112 0
M  V30 12935 H 1242.19 1.91681 -0.341512 0
M  V30 12936 H 1240.36 3.54852 1.57907 0
M  V30 12937 H 1242.1 3.77066 1.46981 0
M  V30 12938 H 1238.85 4.7259 -0.309119 0
M  V30 12939 H 1239.27 6.34003 -2.37423 0
M  V30 12940 H 1243.92 4.20881 -0.402389 0
M  V30 12941 H 1241.63 7.17035 -3.72674 0
M  V30 12942 H 1245.22 5.41727 -2.12186 0
M  V30 12943 H 1244.1 6.88081 -3.76183 0
M  V30 12944 N 1241.6 -0.0451101 1.57535 0
M  V30 12945 C 1242.55 -1.0692 2.06569 0
M  V30 12946 C 1243.55 -1.38443 0.976218 0
M  V30 12947 O 1244.75 -1.37536 1.1612 0
M  V30 12948 H 1241.13 -0.36226 0.658993 0
M  V30 12949 H 1243.1 -0.629709 2.9168 0
M  V30 12950 C 1241.85 -2.36656 2.54733 0
M  V30 12951 H 1241.17 -2.13257 3.38174 0
M  V30 12952 H 1242.61 -3.06696 2.92769 0
M  V30 12953 C 1241.07 -3.04499 1.4416 0
M  V30 12954 O 1241.6 -3.93679 0.798721 0
M  V30 12955 N 1239.81 -2.6556 1.18009 0
M  V30 12956 H 1239.35 -1.93126 1.7047 0
M  V30 12957 H 1239.31 -3.11272 0.442363 0
M  V30 12958 N 1243.08 -1.54377 -0.317073 0
M  V30 12959 C 1244.02 -1.7907 -1.41453 0
M  V30 12960 C 1244.99 -0.641012 -1.49432 0
M  V30 12961 O 1246.18 -0.879179 -1.66741 0
M  V30 12962 C 1243.3 -1.91307 -2.79498 0
M  V30 12963 C 1242.35 -3.13639 -2.8902 0
M  V30 12964 S 1243.18 -4.72093 -2.52762 0
M  V30 12965 C 1244.34 -4.87245 -3.92866 0
M  V30 12966 H 1244.57 -2.71875 -1.20296 0
M  V30 12967 H 1242.11 -1.45583 -0.514279 0
M  V30 12968 H 1244.06 -1.99043 -3.59015 0
M  V30 12969 H 1242.72 -0.994687 -2.97934 0
M  V30 12970 H 1241.92 -3.18955 -3.90235 0
M  V30 12971 H 1241.52 -3.04266 -2.17481 0
M  V30 12972 H 1243.81 -4.7028 -4.87691 0
M  V30 12973 H 1244.75 -5.89344 -3.92529 0
M  V30 12974 H 1245.16 -4.15504 -3.82122 0
M  V30 12975 N 1244.56 0.579466 -1.4656 0
M  V30 12976 C 1245.79 1.36351 -1.55615 0
M  V30 12977 C 1246.2 1.87755 -0.198405 0
M  V30 12978 O 1245.56 1.63795 0.804834 0
M  V30 12979 C 1245.61 2.54881 -2.56355 0
M  V30 12980 O 1245.33 2.05607 -3.86856 0
M  V30 12981 C 1246.83 3.47391 -2.75381 0
M  V30 12982 H 1244.05 0.416426 -0.526147 0
M  V30 12983 H 1246.6 0.704134 -1.91995 0
M  V30 12984 H 1244.75 3.16802 -2.2297 0
M  V30 12985 H 1245.17 2.82823 -4.41714 0
M  V30 12986 H 1246.64 4.27031 -3.49783 0
M  V30 12987 H 1247.12 3.99532 -1.82403 0
M  V30 12988 H 1247.72 2.91303 -3.09875 0
M  V30 12989 N 1246.04 1.3432 0.824371 0
M  V30 12990 C 1246.99 1.2578 1.95658 0
M  V30 12991 C 1247.98 0.156199 1.68678 0
M  V30 12992 O 1249.19 0.321081 1.77113 0
M  V30 12993 H 1245.56 0.390711 0.642533 0
M  V30 12994 H 1247.53 2.21471 1.99983 0
M  V30 12995 C 1246.28 1.02865 3.32136 0
M  V30 12996 H 1245.6 1.86863 3.53443 0
M  V30 12997 H 1247.04 1.00925 4.11813 0
M  V30 12998 C 1245.5 -0.268097 3.35832 0
M  V30 12999 O 1246.03 -1.26995 3.81097 0
M  V30 13000 N 1244.24 -0.300702 2.8904 0
M  V30 13001 H 1243.79 0.51515 2.52396 0
M  V30 13002 H 1243.74 -1.16811 2.91895 0
M  V30 13003 N 1247.52 -1.0444 1.18026 0
M  V30 13004 C 1248.93 -1.29766 0.929143 0
M  V30 13005 C 1249.13 -1.97338 -0.407436 0
M  V30 13006 O 1248.19 -2.25166 -1.14265 0
M  V30 13007 C 1249.5 -2.16002 2.09197 0
M  V30 13008 C 1251.05 -2.29361 2.12985 0
M  V30 13009 C 1251.52 -3.18962 3.28675 0
M  V30 13010 N 1253.02 -3.26549 3.28512 0
M  V30 13011 C 1253.75 -3.96025 4.14671 0
M  V30 13012 N 1253.25 -4.67863 5.10956 0
M  V30 13013 N 1255.04 -3.92266 4.02597 0
M  V30 13014 H 1247.19 -0.58984 2.04046 0
M  V30 13015 H 1249.45 -0.322752 0.891367 0
M  V30 13016 H 1249.16 -1.73653 3.05839 0
M  V30 13017 H 1249.03 -3.16667 2.04943 0
M  V30 13018 H 1251.42 -2.70948 1.16924 0
M  V30 13019 H 1251.5 -1.28299 2.21298 0
M  V30 13020 H 1251.15 -2.78087 4.25006 0
M  V30 13021 H 1251.08 -4.20047 3.17598 0
M  V30 13022 H 1253.57 -2.75371 2.58804 0
M  V30 13023 H 1253.88 -5.1846 5.73079 0
M  V30 13024 H 1252.22 -4.6678 5.14919 0
M  V30 13025 H 1255.42 -3.35273 3.26665 0
M  V30 13026 H 1255.59 -4.4614 4.69961 0
M  V30 13027 N 1248.99 -0.981699 -1.2329 0
M  V30 13028 C 1250.27 -0.567659 -1.87182 0
M  V30 13029 C 1250.65 0.955194 -1.88253 0
M  V30 13030 O 1250 1.83245 -1.36504 0
M  V30 13031 C 1250.21 -1.17522 -3.28618 0
M  V30 13032 C 1251.56 -1.26877 -4.052 0
M  V30 13033 O 1252.58 -1.12877 -3.37842 0
M  V30 13034 O 1251.44 -1.49163 -5.2575 0
M  V30 13035 H 1248.53 -0.191315 -0.804567 0
M  V30 13036 H 1251.08 -1.07686 -1.31155 0
M  V30 13037 H 1249.85 -2.21735 -3.22411 0
M  V30 13038 H 1249.48 -0.650913 -3.92236 0
M  V30 13039 N 1250.47 1.3842 -0.753509 0
M  V30 13040 C 1251.72 2.00415 -0.310091 0
M  V30 13041 C 1252.05 1.59675 1.10532 0
M  V30 13042 O 1251.33 0.834261 1.757 0
M  V30 13043 C 1251.61 3.57488 -0.432897 0
M  V30 13044 C 1251.46 4.08193 -1.88941 0
M  V30 13045 C 1252.78 4.39757 0.173763 0
M  V30 13046 H 1249.9 0.728107 -0.114147 0
M  V30 13047 H 1252.54 1.64363 -0.953138 0
M  V30 13048 H 1250.69 3.88331 0.114563 0
M  V30 13049 H 1252.36 3.87993 -2.49517 0
M  V30 13050 H 1250.61 3.61063 -2.4045 0
M  V30 13051 H 1251.28 5.17291 -1.9265 0
M  V30 13052 H 1253.75 4.15066 -0.293137 0
M  V30 13053 H 1252.63 5.4887 0.057594 0
M  V30 13054 H 1252.89 4.23704 1.26205 0
M  V30 13055 N 1251.95 0.502579 1.49372 0
M  V30 13056 C 1253.2 -0.0432341 2.01654 0
M  V30 13057 C 1253.51 -1.379 1.38719 0
M  V30 13058 O 1254.72 -2.01159 1.82338 0
M  V30 13059 C 1253.17 -0.127509 3.59674 0
M  V30 13060 C 1252.78 1.20171 4.31582 0
M  V30 13061 C 1254.53 -0.623603 4.19895 0
M  V30 13062 C 1252.43 1.07951 5.81464 0
M  V30 13063 H 1251.36 -0.0199308 0.753737 0
M  V30 13064 H 1254.01 0.642237 1.71894 0
M  V30 13065 H 1252.4 -0.877465 3.86156 0
M  V30 13066 H 1253.57 1.96508 4.16799 0
M  V30 13067 H 1251.89 1.63136 3.83113 0
M  V30 13068 H 1254.48 -0.732562 5.29658 0
M  V30 13069 H 1254.83 -1.62282 3.83367 0
M  V30 13070 H 1255.36 0.0698641 3.97739 0
M  V30 13071 H 1252.1 2.05304 6.22519 0
M  V30 13072 H 1251.62 0.357051 5.98736 0
M  V30 13073 H 1253.3 0.758885 6.42534 0
M  V30 13074 N 1253.43 -1.55816 0.23648 0
M  V30 13075 C 1254.65 -2.03534 -0.398575 0
M  V30 13076 C 1255.08 -1.11488 -1.51499 0
M  V30 13077 O 1254.44 -0.105848 -1.80991 0
M  V30 13078 C 1254.48 -3.49356 -0.893467 0
M  V30 13079 O 1253.59 -3.60446 -2.00381 0
M  V30 13080 H 1252.93 -0.658102 -0.0883021 0
M  V30 13081 H 1255.46 -2.01417 0.359488 0
M  V30 13082 H 1255.47 -3.89972 -1.19941 0
M  V30 13083 H 1254.14 -4.1583 -0.0764388 0
M  V30 13084 H 1252.72 -3.31723 -1.70336 0
M  V30 13085 N 1254.91 0.036755 -1.57557 0
M  V30 13086 C 1256.13 0.744813 -1.93565 0
M  V30 13087 C 1256.56 1.68508 -0.835863 0
M  V30 13088 O 1255.91 1.80091 0.208986 0
M  V30 13089 C 1255.96 1.48461 -3.28621 0
M  V30 13090 O 1255.07 2.59739 -3.20327 0
M  V30 13091 H 1254.41 0.200866 -0.632889 0
M  V30 13092 H 1256.94 -0.00547543 -2.04599 0
M  V30 13093 H 1256.95 1.85622 -3.63329 0
M  V30 13094 H 1255.62 0.794953 -4.08232 0
M  V30 13095 H 1254.2 2.25176 -2.97237 0
M  V30 13096 N 1256.39 1.54543 0.308881 0
M  V30 13097 C 1257.63 1.73706 1.04661 0
M  V30 13098 C 1257.96 0.517111 1.87189 0
M  V30 13099 O 1257.24 -0.485856 1.88334 0
M  V30 13100 C 1257.52 3.02141 1.95916 0
M  V30 13101 C 1257.38 4.34419 1.1662 0
M  V30 13102 C 1258.69 3.26401 2.95213 0
M  V30 13103 H 1255.81 0.63203 0.379087 0
M  V30 13104 H 1258.46 1.87253 0.321947 0
M  V30 13105 H 1256.61 2.90723 2.57706 0
M  V30 13106 H 1258.28 4.57743 0.571772 0
M  V30 13107 H 1256.52 4.3126 0.468747 0
M  V30 13108 H 1257.19 5.20535 1.83704 0
M  V30 13109 H 1259.67 3.37377 2.43549 0
M  V30 13110 H 1258.54 4.17597 3.56235 0
M  V30 13111 H 1258.8 2.44322 3.68455 0
M  V30 13112 N 1257.86 -0.571685 1.46866 0
M  V30 13113 C 1258.77 -1.70758 1.60869 0
M  V30 13114 C 1259.79 -1.66903 0.49186 0
M  V30 13115 O 1260.97 -1.86613 0.757468 0
M  V30 13116 C 1258.03 -3.07267 1.60586 0
M  V30 13117 C 1257.09 -3.22301 2.83585 0
M  V30 13118 C 1256.32 -4.52298 2.83306 0
M  V30 13119 O 1256.55 -5.36869 1.92685 0
M  V30 13120 O 1255.48 -4.70814 3.7499 0
M  V30 13121 H 1259.31 -1.6189 2.56954 0
M  V30 13122 H 1256.89 -0.740018 1.29785 0
M  V30 13123 H 1258.77 -3.8853 1.63163 0
M  V30 13124 H 1257.45 -3.16549 0.676637 0
M  V30 13125 H 1256.36 -2.4049 2.86558 0
M  V30 13126 H 1257.69 -3.17916 3.75753 0
M  V30 13127 N 1259.34 -1.34755 -0.817236 0
M  V30 13128 C 1260.25 -1.28888 -1.96023 0
M  V30 13129 C 1261.27 -0.195582 -1.72897 0
M  V30 13130 O 1262.44 -0.423071 -1.96906 0
M  V30 13131 C 1259.51 -1.04985 -3.30423 0
M  V30 13132 C 1258.57 -2.23526 -3.66517 0
M  V30 13133 C 1257.8 -2.00753 -4.94504 0
M  V30 13134 O 1258.03 -0.968622 -5.62116 0
M  V30 13135 O 1256.96 -2.87848 -5.28608 0
M  V30 13136 H 1260.79 -2.25059 -2.03917 0
M  V30 13137 H 1258.37 -1.15019 -0.953467 0
M  V30 13138 H 1260.25 -0.934589 -4.10906 0
M  V30 13139 H 1258.93 -0.118582 -3.23483 0
M  V30 13140 H 1257.83 -2.40613 -2.86455 0
M  V30 13141 H 1259.17 -3.15062 -3.78149 0
M  V30 13142 N 1260.82 1.03812 -1.18578 0
M  V30 13143 C 1262.07 1.76706 -0.980776 0
M  V30 13144 C 1262.39 1.88729 0.490562 0
M  V30 13145 O 1261.66 1.41413 1.35569 0
M  V30 13146 H 1260.24 0.654586 -0.359898 0
M  V30 13147 H 1262.9 1.25274 -1.49306 0
M  V30 13148 H 1262 2.77876 -1.42096 0
M  V30 13149 N 1262.3 0.988223 1.22768 0
M  V30 13150 C 1263.53 0.678757 1.95132 0
M  V30 13151 C 1263.94 -0.759797 1.73274 0
M  V30 13152 O 1263.28 -1.52383 1.02592 0
M  V30 13153 C 1263.34 0.899007 3.48078 0
M  V30 13154 C 1263 2.32114 3.93665 0
M  V30 13155 C 1264 3.30034 4.01713 0
M  V30 13156 C 1261.69 2.65432 4.2644 0
M  V30 13157 C 1263.68 4.59349 4.41902 0
M  V30 13158 C 1261.37 3.94967 4.66309 0
M  V30 13159 C 1262.37 4.91737 4.74008 0
M  V30 13160 O 1262.05 6.18958 5.12977 0
M  V30 13161 H 1261.79 0.250588 0.627839 0
M  V30 13162 H 1264.34 1.32441 1.56999 0
M  V30 13163 H 1262.57 0.196182 3.86202 0
M  V30 13164 H 1264.26 0.585507 4.01655 0
M  V30 13165 H 1265.02 3.05626 3.76587 0
M  V30 13166 H 1260.9 1.90816 4.19655 0
M  V30 13167 H 1264.45 5.34881 4.47826 0
M  V30 13168 H 1260.34 4.19168 4.90886 0
M  V30 13169 H 1261.11 6.22826 5.31065 0
M  V30 13170 N 1263.78 -1.38018 0.760839 0
M  V30 13171 C 1265.19 -1.53437 0.439239 0
M  V30 13172 C 1265.39 -1.72184 -1.04666 0
M  V30 13173 O 1264.45 -1.73698 -1.83263 0
M  V30 13174 C 1265.76 -2.73724 1.24481 0
M  V30 13175 C 1267.31 -2.87579 1.23561 0
M  V30 13176 C 1267.78 -4.10836 2.02429 0
M  V30 13177 N 1269.27 -4.17928 1.99727 0
M  V30 13178 C 1270.01 -5.12309 2.57541 0
M  V30 13179 N 1269.51 -6.12317 3.24098 0
M  V30 13180 N 1271.3 -5.04712 2.47431 0
M  V30 13181 H 1263.45 -1.241 1.72375 0
M  V30 13182 H 1265.71 -0.603427 0.73115 0
M  V30 13183 H 1265.42 -2.663 2.29732 0
M  V30 13184 H 1265.29 -3.67111 0.866579 0
M  V30 13185 H 1267.68 -2.9448 0.191122 0
M  V30 13186 H 1267.76 -1.95183 1.6534 0
M  V30 13187 H 1267.4 -4.04696 3.06893 0
M  V30 13188 H 1267.33 -5.02326 1.58039 0
M  V30 13189 H 1269.83 -3.46307 1.51262 0
M  V30 13190 H 1270.14 -6.80842 3.65615 0
M  V30 13191 H 1268.48 -6.12628 3.28195 0
M  V30 13192 H 1271.67 -4.25524 1.95057 0
M  V30 13193 H 1271.85 -5.78085 2.92783 0
M  V30 13194 N 1265.25 -0.510493 -1.49103 0
M  V30 13195 C 1266.18 0.251999 -2.32136 0
M  V30 13196 C 1267.16 0.953613 -1.40855 0
M  V30 13197 O 1268.35 0.943178 -1.69758 0
M  V30 13198 C 1265.48 1.31118 -3.21598 0
M  V30 13199 C 1264.43 0.72888 -4.21748 0
M  V30 13200 C 1263.76 1.88928 -5.0021 0
M  V30 13201 C 1265.06 -0.286425 -5.21514 0
M  V30 13202 H 1266.75 -0.441102 -2.96133 0
M  V30 13203 H 1264.3 -0.213577 -1.42407 0
M  V30 13204 H 1266.25 1.8524 -3.78503 0
M  V30 13205 H 1264.98 2.0336 -2.55563 0
M  V30 13206 H 1263.64 0.209336 -3.66002 0
M  V30 13207 H 1263.28 2.59961 -4.30615 0
M  V30 13208 H 1262.98 1.50568 -5.67981 0
M  V30 13209 H 1264.51 2.43465 -5.59962 0
M  V30 13210 H 1265.92 0.166997 -5.73057 0
M  V30 13211 H 1264.32 -0.586361 -5.97228 0
M  V30 13212 H 1265.39 -1.19904 -4.69842 0
M  V30 13213 N 1266.73 1.55688 -0.24474 0
M  V30 13214 C 1268.14 1.84897 0.25882 0
M  V30 13215 C 1268.49 1.16653 1.57755 0
M  V30 13216 O 1267.62 0.444162 2.11793 0
M  V30 13217 C 1268.21 3.35434 0.476385 0
M  V30 13218 C 1266.77 3.64877 0.924213 0
M  V30 13219 C 1265.92 2.773 0.00021322 0
M  V30 13220 H 1268.87 1.51662 -0.467358 0
M  V30 13221 H 1268.89 3.56896 1.31929 0
M  V30 13222 H 1268.4 3.85076 -0.483567 0
M  V30 13223 H 1266.5 3.20711 1.89671 0
M  V30 13224 H 1266.62 4.72665 0.78257 0
M  V30 13225 H 1264.98 2.49517 0.511194 0
M  V30 13226 H 1265.76 3.29747 -0.955072 0
M  V30 13227 N 1268.21 -0.0283989 1.57574 0
M  V30 13228 C 1269.17 -1.01346 2.05576 0
M  V30 13229 C 1270.17 -1.28999 0.960001 0
M  V30 13230 O 1271.36 -1.23991 1.2236 0
M  V30 13231 C 1268.49 -2.34611 2.47327 0
M  V30 13232 H 1269.69 -0.598809 2.93861 0
M  V30 13233 H 1267.24 -0.27524 1.53857 0
M  V30 13234 H 1267.98 -2.80823 1.622 0
M  V30 13235 H 1267.76 -2.1587 3.27326 0
M  V30 13236 H 1269.25 -3.05332 2.84889 0
M  V30 13237 N 1269.69 -1.54705 -0.300681 0
M  V30 13238 C 1271.1 -1.64998 -0.873654 0
M  V30 13239 C 1271.45 -0.558842 -1.88073 0
M  V30 13240 O 1270.57 0.304474 -2.14247 0
M  V30 13241 C 1271.17 -2.99099 -1.59138 0
M  V30 13242 C 1269.73 -3.11512 -2.11276 0
M  V30 13243 C 1268.88 -2.60681 -0.945551 0
M  V30 13244 H 1271.83 -1.5851 -0.0776752 0
M  V30 13245 H 1271.85 -2.9054 -2.45696 0
M  V30 13246 H 1271.36 -3.78493 -0.858172 0
M  V30 13247 H 1269.46 -2.36838 -2.87643 0
M  V30 13248 H 1269.57 -4.17672 -2.34707 0
M  V30 13249 H 1267.94 -2.17143 -1.33121 0
M  V30 13250 H 1268.72 -3.42553 -0.226291 0
M  V30 13251 N 1271.17 0.563888 -1.47167 0
M  V30 13252 C 1272.1 1.68689 -1.53685 0
M  V30 13253 C 1273.08 1.57866 -0.389486 0
M  V30 13254 O 1274.26 1.78819 -0.596336 0
M  V30 13255 C 1271.39 3.06887 -1.43311 0
M  V30 13256 C 1270.43 3.36175 -2.62466 0
M  V30 13257 S 1271.27 3.26166 -4.24707 0
M  V30 13258 C 1272.42 4.66868 -4.16875 0
M  V30 13259 H 1272.66 1.62905 -2.48695 0
M  V30 13260 H 1270.19 0.74417 -1.35283 0
M  V30 13261 H 1272.15 3.86604 -1.38014 0
M  V30 13262 H 1270.81 3.10144 -0.496971 0
M  V30 13263 H 1270 4.36907 -2.51253 0
M  V30 13264 H 1269.6 2.64064 -2.64852 0
M  V30 13265 H 1271.9 5.57673 -3.84717 0
M  V30 13266 H 1272.84 4.83139 -5.1767 0
M  V30 13267 H 1273.25 4.44601 -3.47836 0
M  V30 13268 N 1272.64 1.35187 0.810078 0
M  V30 13269 C 1273.89 1.28011 1.56389 0
M  V30 13270 C 1274.21 -0.14622 1.94451 0
M  V30 13271 O 1273.48 -1.08185 1.63318 0
M  V30 13272 H 1272.06 0.470837 0.579932 0
M  V30 13273 H 1274.73 1.69249 0.966476 0
M  V30 13274 H 1273.82 1.89362 2.4809 0
M  V30 13275 N 1274.12 -1.03182 1.19127 0
M  V30 13276 C 1275.36 -1.78089 1.00318 0
M  V30 13277 C 1275.73 -1.86451 -0.458252 0
M  V30 13278 O 1276.93 -2.57653 -0.766061 0
M  V30 13279 C 1275.2 -3.17012 1.6504 0
M  V30 13280 S 1276.76 -4.08146 1.61129 0
M  V30 13281 H 1273.58 -0.613096 0.360048 0
M  V30 13282 H 1276.18 -1.23657 1.51424 0
M  V30 13283 H 1274.88 -3.08541 2.70612 0
M  V30 13284 H 1274.41 -3.7652 1.14001 0
M  V30 13285 H 1276.43 -4.92141 0.633408 0
M  V30 13286 N 1275.6 -0.99472 -1.22242 0
M  V30 13287 C 1277.01 -0.706456 -1.72818 0
M  V30 13288 C 1277.36 0.776566 -1.80177 0
M  V30 13289 O 1276.49 1.60698 -1.44931 0
M  V30 13290 C 1277.08 -1.27571 -3.13865 0
M  V30 13291 C 1275.64 -1.03679 -3.61839 0
M  V30 13292 C 1274.79 -1.3948 -2.39668 0
M  V30 13293 H 1277.74 -1.16687 -1.07564 0
M  V30 13294 H 1277.76 -0.655202 -3.74816 0
M  V30 13295 H 1277.27 -2.35508 -3.08476 0
M  V30 13296 H 1275.37 0.0258679 -3.72591 0
M  V30 13297 H 1275.49 -1.70145 -4.4787 0
M  V30 13298 H 1273.85 -0.813418 -2.41362 0
M  V30 13299 H 1274.63 -2.48425 -2.36939 0
M  V30 13300 N 1277.08 1.37613 -0.768148 0
M  V30 13301 C 1278.03 2.27654 -0.125596 0
M  V30 13302 C 1279.01 1.45923 0.677883 0
M  V30 13303 O 1280.2 1.68515 0.541448 0
M  V30 13304 C 1277.33 3.34884 0.7555 0
M  V30 13305 C 1276.42 4.24064 -0.0556137 0
M  V30 13306 N 1276.81 4.93707 -1.09943 0
M  V30 13307 C 1275.11 4.4568 0.168932 0
M  V30 13308 C 1275.81 5.59508 -1.59142 0
M  V30 13309 N 1274.79 5.36027 -0.904208 0
M  V30 13310 H 1278.59 2.7897 -0.924828 0
M  V30 13311 H 1276.1 1.50687 -0.605561 0
M  V30 13312 H 1278.1 3.98294 1.23157 0
M  V30 13313 H 1276.76 2.85124 1.55352 0
M  V30 13314 H 1277.77 4.96258 -1.48151 0
M  V30 13315 H 1274.45 4.068 0.939144 0
M  V30 13316 H 1275.84 6.2518 -2.4617 0
M  V30 13317 N 1278.56 0.518393 1.4883 0
M  V30 13318 C 1279.52 -0.23983 2.27942 0
M  V30 13319 C 1280.52 -0.878302 1.34694 0
M  V30 13320 O 1281.71 -0.740142 1.57694 0
M  V30 13321 C 1278.84 -1.34581 3.1321 0
M  V30 13322 H 1280.03 0.454599 2.96434 0
M  V30 13323 H 1277.59 0.273932 1.53881 0
M  V30 13324 H 1278.32 -2.07385 2.49323 0
M  V30 13325 H 1278.11 -0.893251 3.8179 0
M  V30 13326 H 1279.6 -1.87944 3.72917 0
M  V30 13327 N 1280.03 -1.55556 0.252993 0
M  V30 13328 C 1280.96 -2.24613 -0.638047 0
M  V30 13329 C 1281.95 -1.22852 -1.1765 0
M  V30 13330 O 1283.13 -1.51519 -1.21472 0
M  V30 13331 C 1280.26 -2.95029 -1.83236 0
M  V30 13332 C 1279.21 -4.03531 -1.42641 0
M  V30 13333 C 1278.54 -4.61404 -2.70204 0
M  V30 13334 C 1279.84 -5.18923 -0.592958 0
M  V30 13335 H 1281.53 -2.99335 -0.0621918 0
M  V30 13336 H 1279.08 -1.43972 -0.0284722 0
M  V30 13337 H 1281.03 -3.42042 -2.46141 0
M  V30 13338 H 1279.76 -2.17805 -2.43369 0
M  V30 13339 H 1278.42 -3.57296 -0.820672 0
M  V30 13340 H 1278.06 -3.80874 -3.28548 0
M  V30 13341 H 1277.76 -5.34652 -2.43764 0
M  V30 13342 H 1279.29 -5.11154 -3.33997 0
M  V30 13343 H 1280.7 -5.62124 -1.12646 0
M  V30 13344 H 1279.1 -5.98598 -0.424358 0
M  V30 13345 H 1280.17 -4.83301 0.393434 0
M  V30 13346 N 1281.51 0.0200419 -1.57587 0
M  V30 13347 C 1282.46 1.0259 -2.03615 0
M  V30 13348 C 1283.45 1.31504 -0.927116 0
M  V30 13349 O 1284.64 1.30938 -1.19098 0
M  V30 13350 C 1281.77 2.32424 -2.52654 0
M  V30 13351 C 1280.85 2.06561 -3.70396 0
M  V30 13352 N 1281.24 1.50787 -4.82801 0
M  V30 13353 C 1279.54 2.36802 -3.77943 0
M  V30 13354 C 1280.24 1.40935 -5.64369 0
M  V30 13355 N 1279.22 1.88806 -5.09758 0
M  V30 13356 H 1283.02 0.588835 -2.87941 0
M  V30 13357 H 1280.54 0.226163 -1.60817 0
M  V30 13358 H 1282.53 3.05303 -2.83894 0
M  V30 13359 H 1281.19 2.76801 -1.69738 0
M  V30 13360 H 1282.2 1.18935 -5.04058 0
M  V30 13361 H 1278.88 2.84192 -3.05845 0
M  V30 13362 H 1280.27 0.982261 -6.64681 0
M  V30 13363 N 1282.99 1.54862 0.292472 0
M  V30 13364 C 1283.92 1.82786 1.38282 0
M  V30 13365 C 1284.94 0.711253 1.46441 0
M  V30 13366 O 1286.12 0.988851 1.48607 0
M  V30 13367 C 1283.22 1.95845 2.76582 0
M  V30 13368 C 1282.4 3.2633 2.91252 0
M  V30 13369 C 1281.46 3.29697 4.10105 0
M  V30 13370 O 1280.48 4.03184 4.01785 0
M  V30 13371 N 1281.68 2.557 5.21151 0
M  V30 13372 H 1284.45 2.76891 1.1468 0
M  V30 13373 H 1282.01 1.54541 0.482561 0
M  V30 13374 H 1284 1.95491 3.54352 0
M  V30 13375 H 1282.57 1.08696 2.93094 0
M  V30 13376 H 1281.79 3.39387 2.00525 0
M  V30 13377 H 1283.08 4.12421 2.9797 0
M  V30 13378 H 1282.48 1.95642 5.30792 0
M  V30 13379 H 1281.04 2.61089 5.97223 0
M  V30 13380 N 1284.47 -0.556076 1.47464 0
M  V30 13381 C 1285.4 -1.67275 1.62915 0
M  V30 13382 C 1286.38 -1.63229 0.478562 0
M  V30 13383 O 1287.56 -1.80833 0.708032 0
M  V30 13384 C 1284.69 -3.05911 1.64426 0
M  V30 13385 C 1283.65 -3.24804 2.78722 0
M  V30 13386 C 1282.97 -4.64238 2.65307 0
M  V30 13387 C 1284.27 -3.10071 4.20302 0
M  V30 13388 H 1285.97 -1.54601 2.56396 0
M  V30 13389 H 1283.51 -0.742337 1.23391 0
M  V30 13390 H 1285.47 -3.83878 1.73826 0
M  V30 13391 H 1284.19 -3.19547 0.675053 0
M  V30 13392 H 1282.85 -2.49246 2.68835 0
M  V30 13393 H 1282.5 -4.74675 1.66412 0
M  V30 13394 H 1282.2 -4.77828 3.41986 0
M  V30 13395 H 1283.72 -5.44339 2.76637 0
M  V30 13396 H 1285.14 -3.77855 4.3116 0
M  V30 13397 H 1283.53 -3.3517 4.97776 0
M  V30 13398 H 1284.6 -2.06803 4.38589 0
M  V30 13399 N 1285.95 -1.35615 -0.802897 0
M  V30 13400 C 1286.88 -1.23192 -1.92091 0
M  V30 13401 C 1287.86 -0.118995 -1.62164 0
M  V30 13402 O 1289.04 -0.287743 -1.86291 0
M  V30 13403 C 1286.17 -0.897699 -3.26587 0
M  V30 13404 C 1285.22 -2.02319 -3.75459 0
M  V30 13405 S 1286.05 -3.63938 -3.92822 0
M  V30 13406 C 1287.2 -3.32601 -5.30215 0
M  V30 13407 H 1287.44 -2.17825 -2.02335 0
M  V30 13408 H 1284.97 -1.20873 -0.960675 0
M  V30 13409 H 1286.93 -0.711674 -4.04284 0
M  V30 13410 H 1285.59 0.0306305 -3.14085 0
M  V30 13411 H 1284.78 -1.74357 -4.7288 0
M  V30 13412 H 1284.38 -2.16774 -3.04771 0
M  V30 13413 H 1286.68 -2.85658 -6.14334 0
M  V30 13414 H 1287.62 -4.29236 -5.63172 0
M  V30 13415 H 1288.03 -2.68279 -4.96676 0
M  V30 13416 N 1287.43 1.02549 -1.19673 0
M  V30 13417 C 1288.36 2.12794 -0.961289 0
M  V30 13418 C 1289.34 1.69766 0.106575 0
M  V30 13419 O 1290.52 1.94138 -0.0491358 0
M  V30 13420 C 1287.65 3.4364 -0.502868 0
M  V30 13421 C 1286.61 4.00367 -1.51296 0
M  V30 13422 C 1285.93 5.26874 -0.911491 0
M  V30 13423 C 1287.23 4.34782 -2.89416 0
M  V30 13424 H 1288.93 2.32748 -1.88331 0
M  V30 13425 H 1286.47 1.11852 -0.906922 0
M  V30 13426 H 1288.42 4.20141 -0.325436 0
M  V30 13427 H 1287.15 3.23418 0.454764 0
M  V30 13428 H 1285.81 3.25964 -1.67759 0
M  V30 13429 H 1285.46 5.02971 0.0537982 0
M  V30 13430 H 1285.16 5.65791 -1.58602 0
M  V30 13431 H 1286.68 6.06039 -0.74493 0
M  V30 13432 H 1288.09 5.02207 -2.76516 0
M  V30 13433 H 1286.49 4.8479 -3.53693 0
M  V30 13434 H 1287.56 3.43935 -3.41814 0
M  V30 13435 N 1288.9 1.00119 1.21713 0
M  V30 13436 C 1290.18 0.597366 1.86255 0
M  V30 13437 C 1290.56 -0.925124 1.89749 0
M  V30 13438 O 1289.91 -1.8105 1.39402 0
M  V30 13439 C 1290.12 1.22735 3.26707 0
M  V30 13440 C 1291.47 1.33307 4.03131 0
M  V30 13441 O 1292.49 1.18237 3.36003 0
M  V30 13442 O 1291.35 1.57509 5.2331 0
M  V30 13443 H 1288.44 0.204091 0.801421 0
M  V30 13444 H 1290.99 1.09759 1.29426 0
M  V30 13445 H 1289.76 2.26837 3.18843 0
M  V30 13446 H 1289.38 0.713232 3.91151 0
M  V30 13447 N 1290.38 -1.37203 0.775435 0
M  V30 13448 C 1291.62 -2.01439 0.346649 0
M  V30 13449 C 1291.99 -1.60223 -1.05795 0
M  V30 13450 O 1293.19 -2.16947 -1.58706 0
M  V30 13451 C 1291.46 -3.54031 0.489584 0
M  V30 13452 S 1293.02 -4.38555 0.146606 0
M  V30 13453 H 1289.83 -0.698417 0.133173 0
M  V30 13454 H 1292.44 -1.67338 1.01086 0
M  V30 13455 H 1291.14 -3.81516 1.51241 0
M  V30 13456 H 1290.67 -3.92936 -0.19105 0
M  V30 13457 H 1292.69 -4.8482 -1.05661 0
M  V30 13458 N 1291.86 -0.526279 -1.48553 0
M  V30 13459 C 1293.11 0.00107127 -2.034 0
M  V30 13460 C 1293.46 1.32343 -1.39654 0
M  V30 13461 O 1292.75 1.84071 -0.531835 0
M  V30 13462 C 1292.95 0.184075 -3.56926 0
M  V30 13463 C 1292.78 -1.11899 -4.35556 0
M  V30 13464 C 1291.55 -1.67784 -4.76631 0
M  V30 13465 C 1293.74 -2.02868 -4.72598 0
M  V30 13466 N 1291.73 -2.92418 -5.39783 0
M  V30 13467 C 1293.1 -3.12078 -5.35731 0
M  V30 13468 C 1295.15 -2.03239 -4.54531 0
M  V30 13469 C 1293.86 -4.21719 -5.82705 0
M  V30 13470 C 1295.88 -3.11872 -5.02484 0
M  V30 13471 C 1295.24 -4.19801 -5.65638 0
M  V30 13472 H 1291.34 -0.0410153 -0.780924 0
M  V30 13473 H 1293.93 -0.706739 -1.8142 0
M  V30 13474 H 1292.1 0.860966 -3.78737 0
M  V30 13475 H 1293.83 0.710699 -3.98411 0
M  V30 13476 H 1290.58 -1.2197 -4.57625 0
M  V30 13477 H 1291.01 -3.55862 -5.75927 0
M  V30 13478 H 1295.65 -1.21092 -4.05088 0
M  V30 13479 H 1293.37 -5.04647 -6.31155 0
M  V30 13480 H 1296.95 -3.1321 -4.90297 0
M  V30 13481 H 1295.83 -5.02475 -6.0207 0
M  V30 13482 N 1293.34 1.5542 -0.261239 0
M  V30 13483 C 1294.29 2.18644 0.646442 0
M  V30 13484 C 1295.27 1.14672 1.12868 0
M  V30 13485 O 1296.46 1.40534 1.07606 0
M  V30 13486 C 1293.59 2.90045 1.83655 0
M  V30 13487 C 1292.68 4.01289 1.37214 0
M  V30 13488 N 1293.07 5.01949 0.622927 0
M  V30 13489 C 1291.37 4.14107 1.65625 0
M  V30 13490 C 1292.07 5.80454 0.380569 0
M  V30 13491 N 1291.04 5.35253 0.94897 0
M  V30 13492 H 1294.85 2.93826 0.0660348 0
M  V30 13493 H 1292.36 1.62273 -0.0641794 0
M  V30 13494 H 1294.36 3.33778 2.49796 0
M  V30 13495 H 1293.02 2.16369 2.42104 0
M  V30 13496 H 1294.03 5.17187 0.271619 0
M  V30 13497 H 1290.71 3.51613 2.2511 0
M  V30 13498 H 1292.1 6.71545 -0.218528 0
M  V30 13499 N 1294.82 -0.0116844 1.57596 0
M  V30 13500 C 1295.76 -1.00684 2.07681 0
M  V30 13501 C 1296.73 -1.34858 0.969666 0
M  V30 13502 O 1297.92 -1.44896 1.24136 0
M  V30 13503 C 1295.06 -2.29729 2.57524 0
M  V30 13504 C 1294.17 -2.0156 3.82096 0
M  V30 13505 C 1293.31 -3.24601 4.20485 0
M  V30 13506 C 1292.34 -2.92066 5.37925 0
M  V30 13507 N 1291.48 -4.0761 5.71663 0
M  V30 13508 H 1296.32 -0.572787 2.92443 0
M  V30 13509 H 1293.86 -0.271184 1.44579 0
M  V30 13510 H 1295.82 -3.05152 2.84496 0
M  V30 13511 H 1294.45 -2.70824 1.75653 0
M  V30 13512 H 1293.5 -1.16556 3.62103 0
M  V30 13513 H 1294.81 -1.73572 4.67626 0
M  V30 13514 H 1293.96 -4.08379 4.48677 0
M  V30 13515 H 1292.7 -3.55718 3.3364 0
M  V30 13516 H 1291.71 -2.06693 5.09468 0
M  V30 13517 H 1292.93 -2.62209 6.26437 0
M  V30 13518 H 1290.88 -4.38645 4.87777 0
M  V30 13519 H 1290.8 -3.83105 6.51741 0
M  V30 13520 H 1292.06 -4.92211 6.04441 0
M  V30 13521 N 1296.29 -1.55015 -0.284256 0
M  V30 13522 C 1297.57 -1.6579 -1.03794 0
M  V30 13523 C 1297.95 -0.517029 -2.04671 0
M  V30 13524 O 1297.3 0.484287 -2.23309 0
M  V30 13525 C 1297.51 -3.04527 -1.70483 0
M  V30 13526 C 1298.86 -3.61903 -2.22062 0
M  V30 13527 O 1299.88 -3.07087 -1.80488 0
M  V30 13528 O 1298.74 -4.57917 -2.98286 0
M  V30 13529 H 1295.83 -0.672906 -0.480757 0
M  V30 13530 H 1298.38 -1.67357 -0.281009 0
M  V30 13531 H 1297.15 -3.79004 -0.973238 0
M  V30 13532 H 1296.77 -3.0681 -2.5289 0
M  V30 13533 N 1297.77 0.548248 -1.47757 0
M  V30 13534 C 1299.19 0.875048 -1.33473 0
M  V30 13535 C 1299.39 1.98747 -0.331952 0
M  V30 13536 O 1298.44 2.51226 0.253348 0
M  V30 13537 C 1299.76 1.25982 -2.73037 0
M  V30 13538 C 1301.3 1.37074 -2.81389 0
M  V30 13539 C 1301.78 1.78902 -4.21613 0
M  V30 13540 N 1303.27 1.86037 -4.24198 0
M  V30 13541 C 1304.01 2.1975 -5.2962 0
M  V30 13542 N 1303.5 2.52013 -6.45338 0
M  V30 13543 N 1305.29 2.206 -5.17003 0
M  V30 13544 H 1297.45 -0.186033 -2.11584 0
M  V30 13545 H 1299.71 -0.0205687 -0.947777 0
M  V30 13546 H 1299.41 0.516188 -3.47891 0
M  V30 13547 H 1299.29 2.21402 -3.05387 0
M  V30 13548 H 1301.68 2.10517 -2.06801 0
M  V30 13549 H 1301.76 0.398193 -2.52682 0
M  V30 13550 H 1301.4 1.06026 -4.9671 0
M  V30 13551 H 1301.33 2.77176 -4.47751 0
M  V30 13552 H 1303.82 1.63455 -3.40721 0
M  V30 13553 H 1304.13 2.7679 -7.21531 0
M  V30 13554 H 1302.48 2.49573 -6.48643 0
M  V30 13555 H 1305.67 1.9484 -4.25623 0
M  V30 13556 H 1305.84 2.46543 -5.99267 0
M  V30 13557 N 1299.25 1.36039 0.795694 0
M  V30 13558 C 1300.21 1.29709 1.88966 0
M  V30 13559 C 1301.21 0.206142 1.59473 0
M  V30 13560 O 1302.4 0.460534 1.68002 0
M  V30 13561 C 1299.53 1.00922 3.25619 0
M  V30 13562 H 1300.73 2.26993 1.95995 0
M  V30 13563 H 1298.28 1.2072 0.992791 0
M  V30 13564 H 1299.02 0.0407027 3.24274 0
M  V30 13565 H 1298.8 1.79863 3.48413 0
M  V30 13566 H 1300.29 0.990826 4.05675 0
M  V30 13567 N 1300.73 -1.01913 1.20215 0
M  V30 13568 C 1301.66 -2.10513 0.906476 0
M  V30 13569 C 1302.67 -1.62463 -0.104758 0
M  V30 13570 O 1303.86 -1.78055 0.12593 0
M  V30 13571 C 1300.96 -3.3722 0.337012 0
M  V30 13572 C 1300.14 -4.14417 1.39917 0
M  V30 13573 C 1299.19 -5.19428 0.841489 0
M  V30 13574 O 1298.22 -5.48486 1.52157 0
M  V30 13575 N 1299.42 -5.79442 -0.350365 0
M  V30 13576 H 1302.19 -2.36465 1.84132 0
M  V30 13577 H 1299.75 -1.18283 1.10548 0
M  V30 13578 H 1301.74 -4.04669 -0.0501507 0
M  V30 13579 H 1300.31 -3.08538 -0.502325 0
M  V30 13580 H 1299.53 -3.41975 1.96078 0
M  V30 13581 H 1300.82 -4.62777 2.1146 0
M  V30 13582 H 1300.22 -5.58166 -0.920204 0
M  V30 13583 H 1298.77 -6.48252 -0.679194 0
M  V30 13584 N 1302.21 -1.00763 -1.2118 0
M  V30 13585 C 1303.62 -0.720905 -1.42391 0
M  V30 13586 C 1303.82 0.702918 -1.88842 0
M  V30 13587 O 1302.88 1.47191 -2.05161 0
M  V30 13588 C 1304.19 -1.739 -2.45315 0
M  V30 13589 C 1305.74 -1.75611 -2.59094 0
M  V30 13590 C 1306.21 -2.76323 -3.65253 0
M  V30 13591 N 1307.71 -2.75007 -3.72727 0
M  V30 13592 C 1308.44 -3.49594 -4.54502 0
M  V30 13593 N 1307.94 -4.33828 -5.40153 0
M  V30 13594 N 1309.73 -3.38232 -4.4895 0
M  V30 13595 H 1301.88 -1.92697 -0.893404 0
M  V30 13596 H 1304.14 -0.831888 -0.454606 0
M  V30 13597 H 1303.85 -2.75859 -2.18162 0
M  V30 13598 H 1303.72 -1.5438 -3.44161 0
M  V30 13599 H 1306.11 -0.743416 -2.85582 0
M  V30 13600 H 1306.19 -1.99203 -1.60474 0
M  V30 13601 H 1305.84 -3.77751 -3.39509 0
M  V30 13602 H 1305.77 -2.49996 -4.63476 0
M  V30 13603 H 1308.26 -2.13897 -3.11539 0
M  V30 13604 H 1308.57 -4.8753 -5.99612 0
M  V30 13605 H 1306.91 -4.3791 -5.39685 0
M  V30 13606 H 1310.11 -2.71855 -3.81068 0
M  V30 13607 H 1310.28 -3.96615 -5.12445 0
M  V30 13608 N 1303.68 1.3679 -0.7827 0
M  V30 13609 C 1305.1 1.82006 -0.41603 0
M  V30 13610 C 1305.45 1.65151 1.05922 0
M  V30 13611 O 1304.57 1.1687 1.82127 0
M  V30 13612 C 1305.17 3.30432 -0.748353 0
M  V30 13613 C 1303.73 3.73883 -0.4346 0
M  V30 13614 C 1302.87 2.59159 -0.986505 0
M  V30 13615 H 1305.82 1.25107 -0.976423 0
M  V30 13616 H 1305.84 3.80482 -0.036985 0
M  V30 13617 H 1305.36 3.42667 -1.82212 0
M  V30 13618 H 1303.46 3.67211 0.631401 0
M  V30 13619 H 1303.57 4.69577 -0.950511 0
M  V30 13620 H 1301.93 2.51377 -0.410108 0
M  V30 13621 H 1302.72 2.74182 -2.06589 0
M  V30 13622 N 1305.16 0.53415 1.48272 0
M  V30 13623 C 1306.58 0.192291 1.58437 0
M  V30 13624 C 1306.78 -1.3046 1.53566 0
M  V30 13625 O 1305.83 -2.08316 1.42692 0
M  V30 13626 C 1307.15 0.798515 2.89904 0
M  V30 13627 C 1308.7 0.76763 3.03441 0
M  V30 13628 C 1309.17 1.3525 4.37574 0
M  V30 13629 N 1310.66 1.31466 4.44152 0
M  V30 13630 C 1311.4 1.73706 5.46456 0
M  V30 13631 N 1310.89 2.23695 6.55692 0
M  V30 13632 N 1312.69 1.64918 5.37363 0
M  V30 13633 H 1304.84 1.50696 1.49681 0
M  V30 13634 H 1307.1 0.627073 0.710973 0
M  V30 13635 H 1306.81 1.8496 2.99136 0
M  V30 13636 H 1306.68 0.278033 3.76174 0
M  V30 13637 H 1309.07 -0.274704 2.93819 0
M  V30 13638 H 1309.15 1.32562 2.18771 0
M  V30 13639 H 1308.79 2.39379 4.47951 0
M  V30 13640 H 1308.72 0.770153 5.20938 0
M  V30 13641 H 1311.21 0.948761 3.65796 0
M  V30 13642 H 1311.53 2.5391 7.29897 0
M  V30 13643 H 1309.87 2.27691 6.56644 0
M  V30 13644 H 1313.06 1.25658 4.50919 0
M  V30 13645 H 1313.23 1.98157 6.16958 0
M  V30 13646 N 1306.64 -1.55279 0.269478 0
M  V30 13647 C 1307.89 -1.99471 -0.348913 0
M  V30 13648 C 1308.22 -1.15784 -1.56283 0
M  V30 13649 O 1307.47 -0.214115 -1.94525 0
M  V30 13650 C 1307.77 -3.48773 -0.780535 0
M  V30 13651 C 1307.44 -4.49705 0.328113 0
M  V30 13652 C 1306.1 -4.77024 0.632544 0
M  V30 13653 C 1308.45 -5.09984 1.07544 0
M  V30 13654 C 1305.78 -5.61893 1.68798 0
M  V30 13655 C 1308.13 -5.95999 2.12057 0
M  V30 13656 C 1306.79 -6.21642 2.4314 0
M  V30 13657 H 1306.06 -0.729918 -0.127676 0
M  V30 13658 H 1308.71 -1.87651 0.382015 0
M  V30 13659 H 1307.02 -3.5804 -1.59105 0
M  V30 13660 H 1308.71 -3.80369 -1.26966 0
M  V30 13661 H 1305.3 -4.28524 0.0807131 0
M  V30 13662 H 1309.49 -4.88906 0.853506 0
M  V30 13663 H 1304.74 -5.80009 1.93389 0
M  V30 13664 H 1308.92 -6.41743 2.70442 0
M  V30 13665 H 1306.54 -6.87198 3.25059 0
M  V30 13666 N 1308.12 0.00332656 -1.576 0
M  V30 13667 C 1309.34 0.703587 -1.95101 0
M  V30 13668 C 1309.77 1.66697 -0.871418 0
M  V30 13669 O 1309.13 1.80494 0.170739 0
M  V30 13670 C 1309.17 1.41457 -3.31696 0
M  V30 13671 O 1308.28 2.52885 -3.25765 0
M  V30 13672 H 1307.62 0.187396 -0.637008 0
M  V30 13673 H 1310.15 -0.0488727 -2.04542 0
M  V30 13674 H 1310.16 1.77874 -3.67185 0
M  V30 13675 H 1308.83 0.708182 -4.09826 0
M  V30 13676 H 1307.41 2.18821 -3.01947 0
M  V30 13677 N 1309.6 1.55164 0.276031 0
M  V30 13678 C 1310.53 1.84243 1.36335 0
M  V30 13679 C 1311.54 0.726745 1.45679 0
M  V30 13680 O 1312.73 1.00456 1.4755 0
M  V30 13681 C 1309.83 1.98768 2.7449 0
M  V30 13682 C 1309 3.294 2.87775 0
M  V30 13683 C 1308.06 3.34029 4.06585 0
M  V30 13684 O 1307.09 4.07423 3.97486 0
M  V30 13685 N 1308.29 2.61213 5.18409 0
M  V30 13686 H 1311.06 2.78092 1.11736 0
M  V30 13687 H 1308.62 1.55044 0.466143 0
M  V30 13688 H 1310.61 1.99238 3.52259 0
M  V30 13689 H 1309.18 1.11799 2.91924 0
M  V30 13690 H 1308.4 3.41494 1.96914 0
M  V30 13691 H 1309.69 4.15558 2.93579 0
M  V30 13692 H 1309.08 2.01261 5.28687 0
M  V30 13693 H 1307.64 2.67409 5.9442 0
M  V30 13694 N 1311.07 -0.540404 1.48045 0
M  V30 13695 C 1312.32 -1.2932 1.54787 0
M  V30 13696 C 1312.64 -1.94335 0.222109 0
M  V30 13697 O 1313.84 -2.70982 0.167675 0
M  V30 13698 C 1312.3 -2.34594 2.72935 0
M  V30 13699 C 1311.91 -1.75696 4.1211 0
M  V30 13700 C 1313.65 -3.10949 2.88982 0
M  V30 13701 C 1311.56 -2.78849 5.21534 0
M  V30 13702 H 1310.49 -0.486315 0.576206 0
M  V30 13703 H 1313.14 -0.571998 1.74357 0
M  V30 13704 H 1311.52 -3.09704 2.46778 0
M  V30 13705 H 1312.69 -1.06845 4.48242 0
M  V30 13706 H 1311.01 -1.11869 4.01091 0
M  V30 13707 H 1313.61 -3.88012 3.679 0
M  V30 13708 H 1313.95 -3.66173 1.98048 0
M  V30 13709 H 1314.48 -2.42953 3.1499 0
M  V30 13710 H 1311.22 -2.28459 6.144 0
M  V30 13711 H 1310.74 -3.46059 4.89901 0
M  V30 13712 H 1312.42 -3.4203 5.49203 0
M  V30 13713 N 1312.55 -1.36459 -0.788468 0
M  V30 13714 C 1313.8 -1.30935 -1.54867 0
M  V30 13715 C 1314.13 0.110916 -1.93883 0
M  V30 13716 O 1313.41 1.06452 -1.62783 0
M  V30 13717 C 1313.69 -2.23294 -2.8251 0
M  V30 13718 C 1313.54 -3.74022 -2.49856 0
M  V30 13719 C 1314.86 -2.14407 -3.84341 0
M  V30 13720 H 1311.98 -0.476958 -0.561854 0
M  V30 13721 H 1314.62 -1.67018 -0.905805 0
M  V30 13722 H 1312.77 -1.92652 -3.37369 0
M  V30 13723 H 1314.44 -4.15187 -2.01041 0
M  V30 13724 H 1312.69 -3.93411 -1.82785 0
M  V30 13725 H 1313.36 -4.34057 -3.41026 0
M  V30 13726 H 1315.83 -2.41381 -3.38932 0
M  V30 13727 H 1314.71 -2.81199 -4.71401 0
M  V30 13728 H 1314.97 -1.13166 -4.27371 0
M  V30 13729 N 1314.03 1.01274 -1.20754 0
M  V30 13730 C 1315.26 1.7906 -1.04653 0
M  V30 13731 C 1315.68 1.83806 0.399632 0
M  V30 13732 O 1315.04 1.27596 1.28798 0
M  V30 13733 C 1315.09 3.21187 -1.63925 0
M  V30 13734 O 1314.19 4.02913 -0.879486 0
M  V30 13735 H 1313.53 0.552147 -0.368823 0
M  V30 13736 H 1316.06 1.27356 -1.6013 0
M  V30 13737 H 1316.07 3.71887 -1.67822 0
M  V30 13738 H 1314.75 3.17048 -2.69172 0
M  V30 13739 H 1313.32 3.61499 -0.915019 0
M  V30 13740 N 1315.51 1.01404 1.20644 0
M  V30 13741 C 1316.76 0.702949 1.90227 0
M  V30 13742 C 1317.09 -0.765243 1.78487 0
M  V30 13743 O 1316.36 -1.55569 1.16741 0
M  V30 13744 C 1316.65 1.13606 3.4171 0
M  V30 13745 C 1316.5 2.66437 3.62397 0
M  V30 13746 C 1317.82 0.705361 4.34411 0
M  V30 13747 H 1314.94 0.256842 0.690797 0
M  V30 13748 H 1317.58 1.26133 1.42093 0
M  V30 13749 H 1315.73 0.660977 3.82836 0
M  V30 13750 H 1317.4 3.21778 3.3054 0
M  V30 13751 H 1315.64 3.0753 3.05954 0
M  V30 13752 H 1316.32 2.91795 4.68572 0
M  V30 13753 H 1318.79 1.11375 4.00918 0
M  V30 13754 H 1317.67 1.03647 5.39026 0
M  V30 13755 H 1317.93 -0.393094 4.40349 0
M  V30 13756 N 1316.99 -1.36373 0.789944 0
M  V30 13757 C 1317.92 -2.32616 0.202944 0
M  V30 13758 C 1318.9 -1.56674 -0.662364 0
M  V30 13759 O 1320.08 -1.84826 -0.596078 0
M  V30 13760 C 1317.21 -3.4092 -0.662646 0
M  V30 13761 C 1316.17 -4.27877 0.102811 0
M  V30 13762 C 1315.49 -5.27352 -0.883407 0
M  V30 13763 C 1316.79 -5.0606 1.29231 0
M  V30 13764 H 1318.49 -2.81958 1.00699 0
M  V30 13765 H 1316.03 -1.35562 0.48568 0
M  V30 13766 H 1317.99 -4.07239 -1.08324 0
M  V30 13767 H 1316.71 -2.90147 -1.4994 0
M  V30 13768 H 1315.37 -3.63114 0.504389 0
M  V30 13769 H 1315.02 -4.72853 -1.71521 0
M  V30 13770 H 1314.72 -5.86398 -0.375669 0
M  V30 13771 H 1316.24 -5.96545 -1.30256 0
M  V30 13772 H 1317.66 -5.65417 0.947446 0
M  V30 13773 H 1316.05 -5.74521 1.73338 0
M  V30 13774 H 1317.12 -4.37671 2.08739 0
M  V30 13775 N 1318.47 -0.542005 -1.47987 0
M  V30 13776 C 1319.74 0.0526494 -1.95529 0
M  V30 13777 C 1320.12 1.50092 -1.48444 0
M  V30 13778 O 1319.47 2.16981 -0.716347 0
M  V30 13779 C 1319.68 -0.0770524 -3.48915 0
M  V30 13780 C 1321.03 0.0760849 -4.24532 0
M  V30 13781 O 1322.05 -0.00384644 -3.562 0
M  V30 13782 O 1320.91 0.245406 -5.45949 0
M  V30 13783 H 1318.01 0.0726163 -0.823806 0
M  V30 13784 H 1320.55 -0.607454 -1.58455 0
M  V30 13785 H 1319.32 -1.08544 -3.75944 0
M  V30 13786 H 1318.95 0.621357 -3.92715 0
M  V30 13787 N 1319.94 1.55134 -0.277709 0
M  V30 13788 C 1320.91 2.21327 0.595569 0
M  V30 13789 C 1321.91 1.19193 1.07933 0
M  V30 13790 O 1323.1 1.44081 0.979093 0
M  V30 13791 C 1320.23 2.88127 1.82196 0
M  V30 13792 H 1321.42 2.99895 0.0175855 0
M  V30 13793 H 1318.97 1.56274 -0.0283453 0
M  V30 13794 H 1319.71 2.13578 2.44039 0
M  V30 13795 H 1319.49 3.62974 1.48297 0
M  V30 13796 H 1320.98 3.38691 2.44291 0
M  V30 13797 N 1321.42 0.00503138 1.57599 0
M  V30 13798 C 1322.35 -0.983586 2.11773 0
M  V30 13799 C 1323.33 -1.35518 1.02805 0
M  V30 13800 O 1324.52 -1.43804 1.30514 0
M  V30 13801 C 1321.65 -2.27383 2.62515 0
M  V30 13802 C 1320.6 -2.0437 3.76054 0
M  V30 13803 C 1319.93 -3.39451 4.1313 0
M  V30 13804 C 1321.23 -1.40223 5.03125 0
M  V30 13805 H 1322.92 -0.532501 2.94627 0
M  V30 13806 H 1320.47 -0.254696 1.4173 0
M  V30 13807 H 1322.42 -2.96903 2.99043 0
M  V30 13808 H 1321.14 -2.74614 1.7679 0
M  V30 13809 H 1319.8 -1.37275 3.39928 0
M  V30 13810 H 1319.45 -3.84395 3.24422 0
M  V30 13811 H 1319.15 -3.24868 4.89627 0
M  V30 13812 H 1320.68 -4.10279 4.52221 0
M  V30 13813 H 1322.09 -1.99708 5.37392 0
M  V30 13814 H 1320.49 -1.36112 5.8446 0
M  V30 13815 H 1321.56 -0.372073 4.8347 0
M  V30 13816 N 1322.9 -1.55308 -0.267798 0
M  V30 13817 C 1324.15 -1.75364 -0.996515 0
M  V30 13818 C 1324.46 -0.565028 -1.87261 0
M  V30 13819 O 1325.67 -0.648119 -2.63651 0
M  V30 13820 C 1324.12 -3.10388 -1.82175 0
M  V30 13821 C 1323.73 -4.36832 -0.994062 0
M  V30 13822 C 1325.48 -3.39791 -2.54445 0
M  V30 13823 C 1323.38 -5.62893 -1.81398 0
M  V30 13824 H 1322.31 -0.653679 -0.375793 0
M  V30 13825 H 1324.96 -1.81762 -0.251975 0
M  V30 13826 H 1323.35 -2.98041 -2.60744 0
M  V30 13827 H 1324.52 -4.6011 -0.252167 0
M  V30 13828 H 1322.83 -4.1461 -0.385662 0
M  V30 13829 H 1325.43 -4.31184 -3.16203 0
M  V30 13830 H 1325.77 -2.60159 -3.24997 0
M  V30 13831 H 1326.31 -3.53259 -1.82902 0
M  V30 13832 H 1323.05 -6.45287 -1.15258 0
M  V30 13833 H 1322.57 -5.43751 -2.5317 0
M  V30 13834 H 1324.25 -6.01384 -2.38634 0
M  V30 13835 N 1324.38 0.532545 -1.4833 0
M  V30 13836 C 1325.79 0.860843 -1.34394 0
M  V30 13837 C 1325.99 1.98384 -0.353013 0
M  V30 13838 O 1325.05 2.5148 0.226688 0
M  V30 13839 C 1326.36 1.23079 -2.74358 0
M  V30 13840 C 1327.91 1.34082 -2.82827 0
M  V30 13841 C 1328.39 1.74421 -4.23487 0
M  V30 13842 N 1329.88 1.81528 -4.26148 0
M  V30 13843 C 1330.61 2.1412 -5.31921 0
M  V30 13844 N 1330.11 2.45154 -6.47975 0
M  V30 13845 N 1331.9 2.15104 -5.19314 0
M  V30 13846 H 1324.05 -0.208464 -2.11375 0
M  V30 13847 H 1326.31 -0.03062 -0.947505 0
M  V30 13848 H 1326.02 0.47926 -3.48419 0
M  V30 13849 H 1325.89 2.18151 -3.07718 0
M  V30 13850 H 1328.28 2.08311 -2.09022 0
M  V30 13851 H 1328.36 0.37137 -2.5309 0
M  V30 13852 H 1328.01 1.00752 -4.97807 0
M  V30 13853 H 1327.94 2.72411 -4.50666 0
M  V30 13854 H 1330.43 1.59832 -3.42436 0
M  V30 13855 H 1330.74 2.69121 -7.24426 0
M  V30 13856 H 1329.09 2.42679 -6.51254 0
M  V30 13857 H 1332.28 1.90315 -4.27666 0
M  V30 13858 H 1332.45 2.40173 -6.01848 0
M  V30 13859 N 1325.86 1.36875 0.78122 0
M  V30 13860 C 1327.08 1.349 1.57533 0
M  V30 13861 C 1327.51 -0.0655249 1.87986 0
M  V30 13862 O 1326.86 -1.03986 1.48515 0
M  V30 13863 C 1326.91 2.18562 2.86815 0
M  V30 13864 O 1326.02 1.58374 3.80777 0
M  V30 13865 H 1325.36 0.461355 0.477543 0
M  V30 13866 H 1327.89 1.80271 0.96766 0
M  V30 13867 H 1327.9 2.31436 3.36008 0
M  V30 13868 H 1326.57 3.21385 2.63978 0
M  V30 13869 H 1325.15 1.54487 3.39394 0
M  V30 13870 N 1327.33 -1.00632 1.21289 0
M  V30 13871 C 1328.74 -1.55838 1.02817 0
M  V30 13872 C 1329.1 -1.91816 -0.412425 0
M  V30 13873 O 1328.22 -1.73342 -1.29543 0
M  V30 13874 C 1328.82 -2.83168 1.86014 0
M  V30 13875 C 1327.37 -3.34865 1.71879 0
M  V30 13876 C 1326.52 -2.0807 1.83309 0
M  V30 13877 H 1329.47 -0.828939 1.3533 0
M  V30 13878 H 1329.49 -3.54996 1.36961 0
M  V30 13879 H 1329.01 -2.56951 2.90857 0
M  V30 13880 H 1327.11 -3.6602 0.697153 0
M  V30 13881 H 1327.22 -4.06374 2.53766 0
M  V30 13882 H 1325.58 -2.21006 1.26603 0
M  V30 13883 H 1326.37 -1.84267 2.89656 0
M  V30 13884 N 1328.81 -1.02043 -1.20104 0
M  V30 13885 C 1329.72 -0.603724 -2.26699 0
M  V30 13886 C 1330.74 0.360558 -1.70223 0
M  V30 13887 O 1331.91 0.220552 -2.00189 0
M  V30 13888 C 1328.98 0.0475988 -3.46667 0
M  V30 13889 C 1328.04 -0.963111 -4.18357 0
M  V30 13890 C 1327.27 -0.342775 -5.32598 0
M  V30 13891 O 1327.5 0.856509 -5.63933 0
M  V30 13892 O 1326.43 -1.06141 -5.92467 0
M  V30 13893 H 1330.26 -1.49125 -2.64566 0
M  V30 13894 H 1327.84 -0.790134 -1.26796 0
M  V30 13895 H 1329.72 0.411177 -4.19389 0
M  V30 13896 H 1328.4 0.909266 -3.10667 0
M  V30 13897 H 1327.3 -1.37813 -3.47791 0
M  V30 13898 H 1328.64 -1.79487 -4.58307 0
M  V30 13899 N 1330.29 1.35952 -0.797165 0
M  V30 13900 C 1331.52 2.0381 -0.38421 0
M  V30 13901 C 1331.94 1.597 0.993854 0
M  V30 13902 O 1331.3 0.769148 1.64176 0
M  V30 13903 C 1331.35 3.57589 -0.465054 0
M  V30 13904 O 1330.45 4.09043 0.525095 0
M  V30 13905 H 1329.79 0.643957 -0.161912 0
M  V30 13906 H 1332.32 1.73746 -1.08043 0
M  V30 13907 H 1332.33 4.06651 -0.331448 0
M  V30 13908 H 1331.01 3.89045 -1.47027 0
M  V30 13909 H 1329.58 3.7123 0.352509 0
M  V30 13910 N 1331.77 0.549846 1.47697 0
M  V30 13911 C 1332.7 -0.190364 2.32723 0
M  V30 13912 C 1333.68 -0.915933 1.43334 0
M  V30 13913 O 1334.86 -0.897838 1.72199 0
M  V30 13914 C 1331.99 -1.22545 3.24961 0
M  V30 13915 C 1330.95 -0.616805 4.23532 0
M  V30 13916 C 1330.27 -1.75599 5.05044 0
M  V30 13917 C 1331.57 0.424595 5.20571 0
M  V30 13918 H 1333.27 0.519461 2.94859 0
M  V30 13919 H 1330.81 0.251259 1.41791 0
M  V30 13920 H 1332.77 -1.75139 3.83281 0
M  V30 13921 H 1331.49 -1.96512 2.60865 0
M  V30 13922 H 1330.15 -0.112224 3.66428 0
M  V30 13923 H 1329.8 -2.48453 4.37356 0
M  V30 13924 H 1329.5 -1.35456 5.71774 0
M  V30 13925 H 1331.02 -2.28533 5.6622 0
M  V30 13926 H 1332.44 -0.0150025 5.73298 0
M  V30 13927 H 1330.83 0.7445 5.95464 0
M  V30 13928 H 1331.9 1.32318 4.66497 0
M  V30 13929 N 1333.25 -1.54984 0.285932 0
M  V30 13930 C 1334.66 -1.59455 -0.0679061 0
M  V30 13931 C 1334.86 -1.30308 -1.53695 0
M  V30 13932 O 1333.92 -1.06918 -2.28746 0
M  V30 13933 C 1335.23 -2.9903 0.316469 0
M  V30 13934 C 1336.78 -3.11885 0.263982 0
M  V30 13935 C 1337.25 -4.53744 0.622956 0
M  V30 13936 N 1338.75 -4.59618 0.574917 0
M  V30 13937 C 1339.48 -5.67429 0.825339 0
M  V30 13938 N 1338.98 -6.83341 1.14094 0
M  V30 13939 N 1340.77 -5.57028 0.75341 0
M  V30 13940 H 1332.92 -1.72194 1.2435 0
M  V30 13941 H 1335.18 -0.80348 0.503114 0
M  V30 13942 H 1334.89 -3.25232 1.33855 0
M  V30 13943 H 1334.76 -3.75688 -0.337371 0
M  V30 13944 H 1337.15 -2.85441 -0.748832 0
M  V30 13945 H 1337.23 -2.37416 0.952233 0
M  V30 13946 H 1336.88 -4.80915 1.63351 0
M  V30 13947 H 1336.81 -5.26528 -0.0872039 0
M  V30 13948 H 1339.3 -3.76356 0.341305 0
M  V30 13949 H 1339.61 -7.61471 1.3184 0
M  V30 13950 H 1337.95 -6.8493 1.17883 0
M  V30 13951 H 1341.15 -4.6535 0.506611 0
M  V30 13952 H 1341.32 -6.4097 0.95195 0
M  V30 13953 N 1334.72 -0.0133892 -1.57594 0
M  V30 13954 C 1335.69 0.958601 -2.08191 0
M  V30 13955 C 1336.69 1.26408 -0.993865 0
M  V30 13956 O 1337.88 1.20703 -1.25604 0
M  V30 13957 C 1335.01 2.27971 -2.5346 0
M  V30 13958 H 1336.2 0.520686 -2.95345 0
M  V30 13959 H 1333.76 0.234351 -1.54533 0
M  V30 13960 H 1334.49 2.76424 -1.69588 0
M  V30 13961 H 1334.28 2.07116 -3.32935 0
M  V30 13962 H 1335.77 2.97672 -2.92884 0
M  V30 13963 N 1336.2 1.55448 0.259558 0
M  V30 13964 C 1337.43 1.80727 1.00723 0
M  V30 13965 C 1337.85 0.587354 1.79431 0
M  V30 13966 O 1337.2 -0.443819 1.77021 0
M  V30 13967 C 1337.25 3.04064 1.95517 0
M  V30 13968 O 1336.97 4.21346 1.19996 0
M  V30 13969 C 1338.48 3.42049 2.81988 0
M  V30 13970 H 1335.7 0.601713 0.296956 0
M  V30 13971 H 1338.24 2.02486 0.286273 0
M  V30 13972 H 1336.39 2.84392 2.63058 0
M  V30 13973 H 1336.81 4.91164 1.84006 0
M  V30 13974 H 1338.28 4.31485 3.44274 0
M  V30 13975 H 1338.76 2.62059 3.52451 0
M  V30 13976 H 1339.37 3.64027 2.19918 0
M  V30 13977 N 1337.68 -0.524672 1.4861 0
M  V30 13978 C 1338.64 -1.61092 1.63039 0
M  V30 13979 C 1339.64 -1.52718 0.503387 0
M  V30 13980 O 1340.83 -1.56293 0.769304 0
M  V30 13981 C 1337.97 -3.00722 1.60558 0
M  V30 13982 H 1339.16 -1.49636 2.59902 0
M  V30 13983 H 1336.71 -0.747135 1.37287 0
M  V30 13984 H 1337.45 -3.1768 0.651926 0
M  V30 13985 H 1337.23 -3.0821 2.42382 0
M  V30 13986 H 1338.72 -3.79688 1.73859 0
M  V30 13987 N 1339.16 -1.37287 -0.77395 0
M  V30 13988 C 1340.39 -1.35563 -1.56302 0
M  V30 13989 C 1340.8 0.0595356 -1.88706 0
M  V30 13990 O 1340.16 1.02072 -1.51286 0
M  V30 13991 C 1340.21 -2.19195 -2.87464 0
M  V30 13992 O 1339.93 -3.55197 -2.5645 0
M  V30 13993 C 1341.43 -2.25425 -3.81704 0
M  V30 13994 H 1338.65 -0.464431 -0.484298 0
M  V30 13995 H 1341.2 -1.80597 -0.959425 0
M  V30 13996 H 1339.35 -1.77676 -3.44253 0
M  V30 13997 H 1339.76 -3.99011 -3.40427 0
M  V30 13998 H 1341.24 -2.8827 -4.70749 0
M  V30 13999 H 1341.72 -1.26205 -4.20677 0
M  V30 14000 H 1342.32 -2.67247 -3.30846 0
M  V30 14001 N 1340.64 0.999871 -1.21821 0
M  V30 14002 C 1341.88 1.74098 -1.04009 0
M  V30 14003 C 1342.22 1.89499 0.424716 0
M  V30 14004 O 1341.49 1.43306 1.31505 0
M  V30 14005 C 1341.77 3.1506 -1.74382 0
M  V30 14006 C 1341.63 3.0735 -3.28414 0
M  V30 14007 C 1342.95 4.1409 -1.49055 0
M  V30 14008 H 1340.06 0.631935 -0.379245 0
M  V30 14009 H 1342.71 1.16534 -1.50066 0
M  V30 14010 H 1340.86 3.64206 -1.35227 0
M  V30 14011 H 1342.53 2.65879 -3.76969 0
M  V30 14012 H 1340.77 2.44325 -3.58452 0
M  V30 14013 H 1341.44 4.07069 -3.72825 0
M  V30 14014 H 1343.92 3.73672 -1.83054 0
M  V30 14015 H 1342.79 5.10853 -2.008 0
M  V30 14016 H 1343.06 4.40085 -0.421641 0
M  V30 14017 N 1342.11 1.02678 1.19562 0
M  V30 14018 C 1343.34 0.741424 1.93695 0
M  V30 14019 C 1343.76 -0.693203 1.74861 0
M  V30 14020 O 1343.12 -1.47833 1.04953 0
M  V30 14021 C 1343.17 1.09514 3.43568 0
M  V30 14022 O 1342.27 0.212596 4.11852 0
M  V30 14023 H 1341.62 0.274128 0.604773 0
M  V30 14024 H 1344.15 1.37289 1.517 0
M  V30 14025 H 1344.16 1.05115 3.94227 0
M  V30 14026 H 1342.83 2.14034 3.56598 0
M  V30 14027 H 1341.41 0.315 3.71567 0
M  V30 14028 N 1343.59 -1.35528 0.804364 0
M  V30 14029 C 1345.01 -1.51962 0.487831 0
M  V30 14030 C 1345.21 -1.75426 -0.991353 0
M  V30 14031 O 1344.26 -1.7944 -1.77644 0
M  V30 14032 C 1345.58 -2.69626 1.33126 0
M  V30 14033 C 1347.13 -2.83502 1.32648 0
M  V30 14034 C 1347.6 -4.04188 2.15397 0
M  V30 14035 N 1349.09 -4.11362 2.12922 0
M  V30 14036 C 1349.83 -5.03856 2.73709 0
M  V30 14037 N 1349.32 -6.01696 3.43415 0
M  V30 14038 N 1351.12 -4.96585 2.63363 0
M  V30 14039 H 1343.27 -1.18553 1.76235 0
M  V30 14040 H 1345.53 -0.57986 0.749977 0
M  V30 14041 H 1345.24 -2.58857 2.38088 0
M  V30 14042 H 1345.11 -3.64168 0.982934 0
M  V30 14043 H 1347.5 -2.93723 0.284712 0
M  V30 14044 H 1347.58 -1.89824 1.71466 0
M  V30 14045 H 1347.22 -3.94728 3.19613 0
M  V30 14046 H 1347.15 -4.97044 1.7394 0
M  V30 14047 H 1349.64 -3.41319 1.62203 0
M  V30 14048 H 1349.96 -6.68866 3.8709 0
M  V30 14049 H 1348.3 -6.01877 3.47519 0
M  V30 14050 H 1351.49 -4.19103 2.08496 0
M  V30 14051 H 1351.66 -5.68478 3.11026 0
M  V30 14052 N 1345.07 -0.557671 -1.47404 0
M  V30 14053 C 1346.31 -0.0361491 -2.04368 0
M  V30 14054 C 1346.68 1.2894 -1.42262 0
M  V30 14055 O 1347.88 1.89864 -1.90276 0
M  V30 14056 C 1346.15 0.0547287 -3.57358 0
M  V30 14057 S 1347.71 0.522307 -4.3568 0
M  V30 14058 H 1344.52 -0.0253676 -0.710547 0
M  V30 14059 H 1347.13 -0.744509 -1.80769 0
M  V30 14060 H 1345.83 -0.914374 -4.00084 0
M  V30 14061 H 1345.36 0.786629 -3.85455 0
M  V30 14062 H 1347.38 1.7819 -4.63101 0
M  V30 14063 N 1346.55 1.54831 -0.294147 0
M  V30 14064 C 1347.96 1.85627 0.199866 0
M  V30 14065 C 1348.31 1.21613 1.53964 0
M  V30 14066 O 1347.44 0.511317 2.10272 0
M  V30 14067 C 1348.03 3.3678 0.369428 0
M  V30 14068 C 1346.59 3.67633 0.807663 0
M  V30 14069 C 1345.74 2.7716 -0.0880078 0
M  V30 14070 H 1348.69 1.50099 -0.515371 0
M  V30 14071 H 1348.71 3.60913 1.20508 0
M  V30 14072 H 1348.22 3.83342 -0.605831 0
M  V30 14073 H 1346.32 3.26583 1.79372 0
M  V30 14074 H 1346.44 4.74916 0.631799 0
M  V30 14075 H 1344.8 2.51017 0.431553 0
M  V30 14076 H 1345.58 3.26542 -1.0595 0
M  V30 14077 N 1348.03 0.0217466 1.57585 0
M  V30 14078 C 1349.44 -0.51811 1.79367 0
M  V30 14079 C 1349.79 -1.72688 0.931313 0
M  V30 14080 O 1348.91 -2.15949 0.139687 0
M  V30 14081 C 1349.51 -0.946711 3.25304 0
M  V30 14082 C 1348.07 -1.43173 3.48107 0
M  V30 14083 C 1347.22 -0.392996 2.74501 0
M  V30 14084 H 1350.17 0.247822 1.56753 0
M  V30 14085 H 1350.19 -1.81152 3.34611 0
M  V30 14086 H 1349.7 -0.0667536 3.88043 0
M  V30 14087 H 1347.8 -2.33186 2.90612 0
M  V30 14088 H 1347.91 -1.44419 4.56815 0
M  V30 14089 H 1346.28 -0.859471 2.39761 0
M  V30 14090 H 1347.06 0.478368 3.39951 0
M  V30 14091 N 1349.51 -1.55583 -0.251311 0
M  V30 14092 C 1350.92 -1.67693 -0.820719 0
M  V30 14093 C 1351.27 -0.618393 -1.862 0
M  V30 14094 O 1350.39 0.236158 -2.15108 0
M  V30 14095 C 1350.99 -3.04011 -1.49542 0
M  V30 14096 C 1349.55 -3.18075 -2.01259 0
M  V30 14097 C 1348.69 -2.63557 -0.862138 0
M  V30 14098 H 1351.64 -1.58677 -0.0272072 0
M  V30 14099 H 1351.67 -2.9821 -2.36328 0
M  V30 14100 H 1351.18 -3.81032 -0.737323 0
M  V30 14101 H 1349.28 -2.45869 -2.79963 0
M  V30 14102 H 1349.39 -4.24927 -2.213 0
M  V30 14103 H 1347.76 -2.21268 -1.26145 0
M  V30 14104 H 1348.54 -3.431 -0.117196 0
M  V30 14105 N 1350.98 0.516783 -1.48886 0
M  V30 14106 C 1351.95 1.60226 -1.63891 0
M  V30 14107 C 1352.95 1.52448 -0.511479 0
M  V30 14108 O 1354.14 1.55882 -0.777582 0
M  V30 14109 C 1351.27 2.99867 -1.62151 0
M  V30 14110 H 1352.46 1.48256 -2.60692 0
M  V30 14111 H 1350.01 0.739844 -1.37681 0
M  V30 14112 H 1350.75 3.1733 -0.668764 0
M  V30 14113 H 1350.53 3.0692 -2.44013 0
M  V30 14114 H 1352.02 3.7876 -1.7587 0
M  V30 14115 N 1352.46 1.37696 0.766659 0
M  V30 14116 C 1353.71 1.33185 1.52539 0
M  V30 14117 C 1354.04 -0.0821239 1.94327 0
M  V30 14118 O 1353.29 -1.05645 1.64735 0
M  V30 14119 C 1353.59 2.22154 2.79968 0
M  V30 14120 C 1353.26 3.70344 2.57208 0
M  V30 14121 C 1351.92 4.10729 2.50709 0
M  V30 14122 C 1354.27 4.64205 2.36988 0
M  V30 14123 C 1351.6 5.43082 2.21988 0
M  V30 14124 C 1353.95 5.96801 2.0979 0
M  V30 14125 C 1352.61 6.36284 2.01739 0
M  V30 14126 H 1351.88 0.487357 0.558179 0
M  V30 14127 H 1354.53 1.69945 0.882662 0
M  V30 14128 H 1352.84 1.78406 3.48825 0
M  V30 14129 H 1354.53 2.15975 3.37869 0
M  V30 14130 H 1351.12 3.38319 2.63131 0
M  V30 14131 H 1355.31 4.3386 2.40996 0
M  V30 14132 H 1350.56 5.7263 2.14254 0
M  V30 14133 H 1354.74 6.6908 1.93145 0
M  V30 14134 H 1352.36 7.38765 1.79248 0
M  V30 14135 N 1353.94 -0.993397 1.22349 0
M  V30 14136 C 1355.19 -1.73544 1.04931 0
M  V30 14137 C 1355.52 -1.89721 -0.414661 0
M  V30 14138 O 1354.79 -1.44001 -1.30743 0
M  V30 14139 C 1355.08 -3.14131 1.7605 0
M  V30 14140 C 1354.93 -3.05604 3.30039 0
M  V30 14141 C 1356.25 -4.13294 1.51249 0
M  V30 14142 H 1353.37 -0.629915 0.382591 0
M  V30 14143 H 1356.01 -1.15737 1.50682 0
M  V30 14144 H 1354.16 -3.63483 1.37157 0
M  V30 14145 H 1355.83 -2.63876 3.78374 0
M  V30 14146 H 1354.07 -2.42421 3.59742 0
M  V30 14147 H 1354.75 -4.05086 3.74979 0
M  V30 14148 H 1357.22 -3.72696 1.85033 0
M  V30 14149 H 1356.1 -5.09781 2.03507 0
M  V30 14150 H 1356.36 -4.39855 0.444973 0
M  V30 14151 N 1355.42 -1.03311 -1.19015 0
M  V30 14152 C 1356.83 -0.750946 -1.4083 0
M  V30 14153 C 1357.03 0.662704 -1.90291 0
M  V30 14154 O 1356.09 1.42806 -2.08237 0
M  V30 14155 C 1357.4 -1.79064 -2.41571 0
M  V30 14156 C 1358.95 -1.81068 -2.55311 0
M  V30 14157 C 1359.43 -2.84008 -3.59309 0
M  V30 14158 N 1360.92 -2.82852 -3.6681 0
M  V30 14159 C 1361.65 -3.59156 -4.46984 0
M  V30 14160 N 1361.15 -4.45188 -5.30829 0
M  V30 14161 N 1362.94 -3.47679 -4.41674 0
M  V30 14162 H 1355.09 -1.94548 -0.852329 0
M  V30 14163 H 1357.35 -0.841344 -0.436858 0
M  V30 14164 H 1357.06 -2.80425 -2.12261 0
M  V30 14165 H 1356.93 -1.61646 -3.40809 0
M  V30 14166 H 1359.32 -0.803825 -2.83941 0
M  V30 14167 H 1359.4 -2.02562 -1.56212 0
M  V30 14168 H 1359.05 -3.84867 -3.3142 0
M  V30 14169 H 1358.98 -2.59771 -4.58069 0
M  V30 14170 H 1361.47 -2.20457 -3.06932 0
M  V30 14171 H 1361.78 -5.00139 -5.89135 0
M  V30 14172 H 1360.13 -4.49259 -5.30275 0
M  V30 14173 H 1363.32 -2.79876 -3.75216 0
M  V30 14174 H 1363.49 -4.07396 -5.03917 0
M  V30 14175 N 1356.9 1.35099 -0.81154 0
M  V30 14176 C 1358.12 2.03391 -0.405805 0
M  V30 14177 C 1358.55 1.60745 0.97686 0
M  V30 14178 O 1357.9 0.786518 1.63351 0
M  V30 14179 C 1357.95 3.57075 -0.502954 0
M  V30 14180 O 1357.06 4.09577 0.481681 0
M  V30 14181 H 1356.4 0.642203 -0.168733 0
M  V30 14182 H 1358.93 1.72591 -1.0988 0
M  V30 14183 H 1358.94 4.06277 -0.37456 0
M  V30 14184 H 1357.61 3.87463 -1.51145 0
M  V30 14185 H 1356.19 3.71583 0.313115 0
M  V30 14186 N 1358.37 0.56548 1.47106 0
M  V30 14187 C 1359.61 0.0469867 2.04346 0
M  V30 14188 C 1359.98 -1.28183 1.42944 0
M  V30 14189 O 1361.18 -1.88852 1.91281 0
M  V30 14190 C 1359.45 -0.0357764 3.57382 0
M  V30 14191 S 1361.01 -0.499194 4.35951 0
M  V30 14192 H 1357.83 0.0291355 0.710403 0
M  V30 14193 H 1360.43 0.754085 1.80371 0
M  V30 14194 H 1359.13 0.935578 3.99594 0
M  V30 14195 H 1358.66 -0.766177 3.85867 0
M  V30 14196 H 1360.68 -1.75732 4.6404 0
M  V30 14197 N 1359.85 -1.54672 0.302354 0
M  V30 14198 C 1361.1 -2.00167 -0.306524 0
M  V30 14199 C 1361.43 -1.19073 -1.53791 0
M  V30 14200 O 1360.68 -0.255328 -1.94027 0
M  V30 14201 C 1360.98 -3.5035 -0.70638 0
M  V30 14202 C 1360.65 -4.48907 0.423429 0
M  V30 14203 C 1359.31 -4.75575 0.733586 0
M  V30 14204 C 1361.66 -5.07588 1.18338 0
M  V30 14205 C 1358.99 -5.58186 1.80679 0
M  V30 14206 C 1361.34 -5.91367 2.24651 0
M  V30 14207 C 1360.01 -6.16345 2.56272 0
M  V30 14208 H 1359.28 -0.732462 -0.112165 0
M  V30 14209 H 1361.92 -1.86798 0.421732 0
M  V30 14210 H 1360.23 -3.61335 -1.51474 0
M  V30 14211 H 1361.92 -3.82977 -1.18869 0
M  V30 14212 H 1358.51 -4.28256 0.171591 0
M  V30 14213 H 1362.7 -4.86985 0.957018 0
M  V30 14214 H 1357.95 -5.75776 2.05649 0
M  V30 14215 H 1362.13 -6.35862 2.83994 0
M  V30 14216 H 1359.76 -6.80148 3.39563 0
M  V30 14217 N 1361.33 -0.0301034 -1.57571 0
M  V30 14218 C 1362.61 0.68703 -1.83137 0
M  V30 14219 C 1362.99 1.90277 -0.914216 0
M  V30 14220 O 1362.34 2.2848 0.0299358 0
M  V30 14221 C 1362.55 1.06431 -3.32375 0
M  V30 14222 C 1363.89 1.45554 -3.98873 0
M  V30 14223 O 1364.92 1.15727 -3.36877 0
M  V30 14224 O 1363.78 2.01133 -5.08142 0
M  V30 14225 H 1360.87 0.337141 -0.755159 0
M  V30 14226 H 1363.42 -0.0578604 -1.69601 0
M  V30 14227 H 1362.19 0.199077 -3.90793 0
M  V30 14228 H 1361.81 1.86734 -3.51022 0
M  V30 14229 N 1362.81 1.55714 0.243056 0
M  V30 14230 C 1363.74 1.93655 1.30461 0
M  V30 14231 C 1364.72 0.801968 1.50008 0
M  V30 14232 O 1365.9 1.06256 1.62552 0
M  V30 14233 C 1363.03 2.23459 2.65863 0
M  V30 14234 C 1361.99 3.39205 2.61006 0
M  V30 14235 C 1361.31 3.5456 4.00239 0
M  V30 14236 C 1362.61 4.74787 2.17656 0
M  V30 14237 H 1364.31 2.82575 0.98954 0
M  V30 14238 H 1361.85 1.35955 0.474572 0
M  V30 14239 H 1363.81 2.48591 3.40266 0
M  V30 14240 H 1362.53 1.31369 2.99014 0
M  V30 14241 H 1361.19 3.14088 1.89061 0
M  V30 14242 H 1360.84 2.59884 4.30661 0
M  V30 14243 H 1360.54 4.32399 3.97876 0
M  V30 14244 H 1362.06 3.82017 4.76335 0
M  V30 14245 H 1363.48 4.99266 2.81792 0
M  V30 14246 H 1361.87 5.55756 2.26397 0
M  V30 14247 H 1362.94 4.7159 1.12831 0
M  V30 14248 N 1364.29 -0.50888 1.49158 0
M  V30 14249 C 1365.7 -0.839353 1.35746 0
M  V30 14250 C 1365.9 -1.97797 0.38453 0
M  V30 14251 O 1364.96 -2.51809 -0.186651 0
M  V30 14252 C 1366.27 -1.18698 2.76281 0
M  V30 14253 C 1367.82 -1.29565 2.84924 0
M  V30 14254 C 1368.29 -1.67661 4.26209 0
M  V30 14255 N 1369.79 -1.74725 4.28982 0
M  V30 14256 C 1370.52 -2.05631 5.3526 0
M  V30 14257 N 1370.02 -2.34814 6.51793 0
M  V30 14258 N 1371.81 -2.06815 5.2267 0
M  V30 14259 H 1363.96 0.242065 2.11016 0
M  V30 14260 H 1366.22 0.0456901 0.946898 0
M  V30 14261 H 1365.93 -0.423769 3.49138 0
M  V30 14262 H 1365.8 -2.13227 3.11149 0
M  V30 14263 H 1368.19 -2.0496 2.1231 0
M  V30 14264 H 1368.27 -0.331059 2.53649 0
M  V30 14265 H 1367.92 -0.928198 4.99346 0
M  V30 14266 H 1367.85 -2.65207 4.54943 0
M  V30 14267 H 1370.34 -1.54364 3.44935 0
M  V30 14268 H 1370.65 -2.57562 7.28616 0
M  V30 14269 H 1368.99 -2.32288 6.55032 0
M  V30 14270 H 1372.19 -1.83487 4.30639 0
M  V30 14271 H 1372.36 -2.30568 6.05593 0
M  V30 14272 N 1365.76 -1.381 -0.759346 0
M  V30 14273 C 1367.01 -1.33727 -1.5153 0
M  V30 14274 C 1367.33 0.0739504 -1.9486 0
M  V30 14275 O 1366.6 1.02049 -1.67221 0
M  V30 14276 H 1365.18 -0.492037 -0.562058 0
M  V30 14277 H 1367.85 -1.72719 -0.902995 0
M  V30 14278 H 1366.94 -1.98439 -2.40891 0
M  V30 14279 N 1367.24 0.986894 -1.22875 0
M  V30 14280 C 1368.49 1.72388 -1.05484 0
M  V30 14281 C 1368.81 1.90639 0.410074 0
M  V30 14282 O 1368.08 1.47036 1.2945 0
M  V30 14283 H 1366.66 0.638732 -0.387337 0
M  V30 14284 H 1369.32 1.18829 -1.54485 0
M  V30 14285 H 1368.42 2.71599 -1.53754 0
M  V30 14286 N 1368.72 1.0394 1.18466 0
M  V30 14287 C 1369.95 0.761926 1.92897 0
M  V30 14288 C 1370.37 -0.674618 1.75586 0
M  V30 14289 O 1369.73 -1.46711 1.06515 0
M  V30 14290 C 1369.78 1.13152 3.42387 0
M  V30 14291 O 1368.88 0.256266 4.11603 0
M  V30 14292 H 1368.22 0.280527 0.601831 0
M  V30 14293 H 1370.75 1.3889 1.50235 0
M  V30 14294 H 1370.76 1.0929 3.9309 0
M  V30 14295 H 1369.44 2.17804 3.54308 0
M  V30 14296 H 1368.01 0.354392 3.71212 0
M  V30 14297 N 1370.2 -1.34667 0.818693 0
M  V30 14298 C 1371.45 -1.98022 0.40396 0
M  V30 14299 C 1371.77 -1.65239 -1.03542 0
M  V30 14300 O 1371.04 -0.94097 -1.71821 0
M  V30 14301 H 1369.62 -0.732517 0.146382 0
M  V30 14302 H 1372.28 -1.64377 1.0472 0
M  V30 14303 H 1371.38 -3.07746 0.519516 0
M  V30 14304 N 1371.68 -0.573274 -1.46804 0
M  V30 14305 C 1372.92 -0.0551522 -2.02025 0
M  V30 14306 C 1373.25 1.30577 -1.44826 0
M  V30 14307 O 1372.52 1.85514 -0.629403 0
M  V30 14308 H 1371.1 -0.0173982 -0.746797 0
M  V30 14309 H 1373.76 -0.746919 -1.8002 0
M  V30 14310 H 1372.85 0.0209326 -3.12093 0
M  V30 14311 N 1373.15 1.5451 -0.310553 0
M  V30 14312 C 1374.4 1.99931 0.29532 0
M  V30 14313 C 1374.72 1.20042 1.53672 0
M  V30 14314 O 1373.99 0.298841 1.93607 0
M  V30 14315 H 1372.57 0.738539 0.112111 0
M  V30 14316 H 1375.24 1.9023 -0.424092 0
M  V30 14317 H 1374.33 3.07021 0.560749 0
M  V30 14318 N 1374.63 0.0384594 1.57553 0
M  V30 14319 C 1375.88 -0.636879 1.91803 0
M  V30 14320 C 1376.2 -1.72128 0.916347 0
M  V30 14321 O 1375.47 -1.95858 -0.0407405 0
M  V30 14322 H 1374.05 -0.238237 0.707992 0
M  V30 14323 H 1376.71 0.0884651 1.94699 0
M  V30 14324 H 1375.81 -1.08364 2.92683 0
M  V30 14325 N 1376.11 -1.55841 -0.234795 0
M  V30 14326 C 1377.36 -1.77886 -0.959217 0
M  V30 14327 C 1377.68 -0.604621 -1.8539 0
M  V30 14328 O 1376.95 0.379092 -1.92197 0
M  V30 14329 H 1375.53 -0.656077 -0.357172 0
M  V30 14330 H 1378.19 -1.93292 -0.249831 0
M  V30 14331 H 1377.29 -2.69512 -1.57383 0
M  V30 14332 N 1377.59 0.500963 -1.49426 0
M  V30 14333 C 1378.52 1.61114 -1.69011 0
M  V30 14334 C 1379.5 1.61341 -0.538813 0
M  V30 14335 O 1380.69 1.78081 -0.77466 0
M  V30 14336 C 1377.82 2.99598 -1.75666 0
M  V30 14337 C 1376.77 3.14236 -2.90585 0
M  V30 14338 C 1376.1 4.54071 -2.82354 0
M  V30 14339 C 1377.4 2.94258 -4.3152 0
M  V30 14340 H 1379.09 1.44978 -2.61957 0
M  V30 14341 H 1376.64 0.69603 -1.26061 0
M  V30 14342 H 1378.59 3.77163 -1.87953 0
M  V30 14343 H 1377.31 3.16822 -0.793186 0
M  V30 14344 H 1375.97 2.39096 -2.779 0
M  V30 14345 H 1375.62 4.68172 -1.83914 0
M  V30 14346 H 1375.32 4.64806 -3.59485 0
M  V30 14347 H 1376.84 5.33696 -2.96649 0
M  V30 14348 H 1378.26 3.61592 -4.44886 0
M  V30 14349 H 1376.65 3.16464 -5.09873 0
M  V30 14350 H 1377.72 1.90383 -4.45962 0
M  V30 14351 N 1379.07 1.38501 0.752011 0
M  V30 14352 C 1380.3 1.38032 1.54125 0
M  V30 14353 C 1380.71 -0.0295066 1.88777 0
M  V30 14354 O 1380.07 -0.996522 1.52891 0
M  V30 14355 C 1380.12 2.23741 2.83941 0
M  V30 14356 O 1379.84 3.59232 2.50767 0
M  V30 14357 C 1381.34 2.31469 3.7807 0
M  V30 14358 H 1378.56 0.472077 0.476848 0
M  V30 14359 H 1381.1 1.82101 0.930572 0
M  V30 14360 H 1379.26 1.8313 3.41383 0
M  V30 14361 H 1379.67 4.04376 3.34036 0
M  V30 14362 H 1381.15 2.95722 4.66103 0
M  V30 14363 H 1381.62 1.32882 4.18616 0
M  V30 14364 H 1382.23 2.72477 3.26552 0
M  V30 14365 N 1380.55 -0.980364 1.23396 0
M  V30 14366 C 1381.79 -1.72421 1.06765 0
M  V30 14367 C 1382.12 -1.90151 -0.394515 0
M  V30 14368 O 1381.4 -1.4538 -1.29209 0
M  V30 14369 C 1381.68 -3.12246 1.79372 0
M  V30 14370 C 1381.54 -3.02087 3.33262 0
M  V30 14371 C 1382.85 -4.11667 1.55624 0
M  V30 14372 H 1379.97 -0.625822 0.389251 0
M  V30 14373 H 1382.62 -1.14132 1.51901 0
M  V30 14374 H 1380.77 -3.62008 1.41004 0
M  V30 14375 H 1382.44 -2.59848 3.81152 0
M  V30 14376 H 1380.68 -2.38592 3.62293 0
M  V30 14377 H 1381.35 -4.01087 3.79254 0
M  V30 14378 H 1383.83 -3.70712 1.88975 0
M  V30 14379 H 1382.7 -5.07593 2.08902 0
M  V30 14380 H 1382.96 -4.39358 0.491601 0
M  V30 14381 N 1382.02 -1.04567 -1.17913 0
M  V30 14382 C 1383.27 -0.750538 -1.87647 0
M  V30 14383 C 1383.59 0.72423 -1.81052 0
M  V30 14384 O 1382.86 1.52292 -1.23223 0
M  V30 14385 H 1381.44 -0.274636 -0.694683 0
M  V30 14386 H 1384.1 -1.32349 -1.43072 0
M  V30 14387 H 1383.2 -1.05987 -2.93553 0
M  V30 14388 N 1383.5 1.34231 -0.825823 0
M  V30 14389 C 1384.78 1.92662 -0.337743 0
M  V30 14390 C 1385.16 1.75358 1.17529 0
M  V30 14391 O 1384.51 1.13405 1.98372 0
M  V30 14392 C 1384.72 3.40394 -0.770269 0
M  V30 14393 C 1386.06 4.17546 -0.770767 0
M  V30 14394 O 1387.09 3.4899 -0.713035 0
M  V30 14395 O 1385.95 5.39903 -0.846602 0
M  V30 14396 H 1383.04 0.821768 -0.0928741 0
M  V30 14397 H 1385.59 1.43187 -0.910807 0
M  V30 14398 H 1384.36 3.46802 -1.81228 0
M  V30 14399 H 1383.98 3.97223 -0.17306 0
M  V30 14400 N 1384.98 0.581051 1.46498 0
M  V30 14401 C 1386.23 0.07442 2.03264 0
M  V30 14402 C 1386.58 -1.27069 1.44469 0
M  V30 14403 O 1385.87 -1.8197 0.599785 0
M  V30 14404 C 1386.07 -0.0514774 3.57363 0
M  V30 14405 C 1385.9 1.27988 4.31102 0
M  V30 14406 C 1384.67 1.85358 4.70075 0
M  V30 14407 C 1386.86 2.20268 4.64743 0
M  V30 14408 N 1384.85 3.1225 5.28558 0
M  V30 14409 C 1386.22 3.31746 5.23779 0
M  V30 14410 C 1388.27 2.19969 4.46675 0
M  V30 14411 C 1386.98 4.43056 5.66652 0
M  V30 14412 C 1389 3.30307 4.90562 0
M  V30 14413 C 1388.36 4.40505 5.49667 0
M  V30 14414 H 1384.46 0.0699705 0.778863 0
M  V30 14415 H 1387.05 0.773585 1.78672 0
M  V30 14416 H 1385.22 -0.719807 3.81672 0
M  V30 14417 H 1386.95 -0.562342 4.00774 0
M  V30 14418 H 1383.7 1.3887 4.52782 0
M  V30 14419 H 1384.13 3.76992 5.62322 0
M  V30 14420 H 1388.77 1.36044 4.00315 0
M  V30 14421 H 1386.49 5.27724 6.11991 0
M  V30 14422 H 1390.07 3.31191 4.78334 0
M  V30 14423 H 1388.95 5.24475 5.83006 0
M  V30 14424 N 1386.46 -1.54343 0.318742 0
M  V30 14425 C 1387.39 -2.27118 -0.542206 0
M  V30 14426 C 1388.37 -1.27731 -1.12334 0
M  V30 14427 O 1389.55 -1.56535 -1.14937 0
M  V30 14428 C 1386.68 -3.02535 -1.70558 0
M  V30 14429 C 1385.64 -4.09218 -1.25398 0
M  V30 14430 C 1384.96 -4.72449 -2.50391 0
M  V30 14431 C 1386.26 -5.20971 -0.372332 0
M  V30 14432 H 1387.96 -2.9933 0.0648226 0
M  V30 14433 H 1385.5 -1.43963 0.0326168 0
M  V30 14434 H 1387.46 -3.52174 -2.31412 0
M  V30 14435 H 1386.18 -2.27931 -2.33912 0
M  V30 14436 H 1384.84 -3.60455 -0.668392 0
M  V30 14437 H 1384.49 -3.94466 -3.12099 0
M  V30 14438 H 1384.19 -5.4451 -2.20868 0
M  V30 14439 H 1385.71 -5.2486 -3.12016 0
M  V30 14440 H 1387.13 -5.66396 -0.887029 0
M  V30 14441 H 1385.52 -5.99859 -0.17009 0
M  V30 14442 H 1386.59 -4.81198 0.598064 0
M  V30 14443 N 1387.94 -0.0468143 -1.5753 0
M  V30 14444 C 1389.21 0.667567 -1.83856 0
M  V30 14445 C 1389.59 1.89297 -0.934346 0
M  V30 14446 O 1388.94 2.28499 0.00570067 0
M  V30 14447 C 1389.15 1.029 -3.33485 0
M  V30 14448 C 1390.5 1.41315 -4.00394 0
M  V30 14449 O 1391.52 1.12147 -3.38085 0
M  V30 14450 O 1390.38 1.95732 -5.10246 0
M  V30 14451 H 1387.48 0.329112 -0.758692 0
M  V30 14452 H 1390.02 -0.0758456 -1.6953 0
M  V30 14453 H 1388.79 0.157617 -3.90982 0
M  V30 14454 H 1388.42 1.83 -3.52982 0
M  V30 14455 N 1389.41 1.55964 0.226527 0
M  V30 14456 C 1390.64 1.83168 0.972846 0
M  V30 14457 C 1391.06 0.626512 1.7736 0
M  V30 14458 O 1390.42 -0.42468 1.76256 0
M  V30 14459 C 1390.47 3.08315 1.87014 0
M  V30 14460 O 1389.57 2.8666 2.96479 0
M  V30 14461 H 1388.92 0.604041 0.275736 0
M  V30 14462 H 1391.45 2.03172 0.241345 0
M  V30 14463 H 1391.46 3.38288 2.28091 0
M  V30 14464 H 1390.13 3.95663 1.28154 0
M  V30 14465 H 1388.71 2.67907 2.59384 0
M  V30 14466 N 1390.89 -0.493031 1.4969 0
M  V30 14467 C 1392.14 -1.2433 1.58823 0
M  V30 14468 C 1392.45 -1.9353 0.283823 0
M  V30 14469 O 1393.66 -2.70311 0.253801 0
M  V30 14470 C 1392.12 -2.25792 2.8026 0
M  V30 14471 C 1391.72 -1.62496 4.17491 0
M  V30 14472 C 1393.47 -3.01598 2.98729 0
M  V30 14473 C 1391.38 -2.62115 5.30141 0
M  V30 14474 H 1390.31 -0.467738 0.591386 0
M  V30 14475 H 1392.96 -0.516238 1.76089 0
M  V30 14476 H 1391.34 -3.01696 2.56506 0
M  V30 14477 H 1392.51 -0.925305 4.51414 0
M  V30 14478 H 1390.83 -0.990516 4.04447 0
M  V30 14479 H 1393.42 -3.76111 3.80058 0
M  V30 14480 H 1393.77 -3.59687 2.09597 0
M  V30 14481 H 1394.3 -2.32809 3.2256 0
M  V30 14482 H 1391.04 -2.08797 6.21357 0
M  V30 14483 H 1390.56 -3.30298 5.00663 0
M  V30 14484 H 1392.24 -3.24385 5.59807 0
M  V30 14485 N 1392.37 -1.38898 -0.744656 0
M  V30 14486 C 1393.79 -1.20291 -1.04892 0
M  V30 14487 C 1393.99 -0.0577705 -2.01417 0
M  V30 14488 O 1393.04 0.593638 -2.45422 0
M  V30 14489 C 1394.36 -2.53302 -1.62045 0
M  V30 14490 C 1395.9 -2.60063 -1.74173 0
M  V30 14491 C 1396.38 -3.93272 -2.34736 0
M  V30 14492 N 1397.87 -3.9486 -2.42157 0
M  V30 14493 C 1398.6 -4.94698 -2.89933 0
M  V30 14494 N 1398.1 -6.04934 -3.37678 0
M  V30 14495 N 1399.89 -4.82083 -2.89055 0
M  V30 14496 H 1392.04 -2.12144 -0.104294 0
M  V30 14497 H 1394.31 -0.941725 -0.108895 0
M  V30 14498 H 1394.01 -3.376 -0.985868 0
M  V30 14499 H 1393.89 -2.72335 -2.60986 0
M  V30 14500 H 1396.27 -1.76155 -2.36756 0
M  V30 14501 H 1396.36 -2.44889 -0.739115 0
M  V30 14502 H 1396 -4.77607 -1.72784 0
M  V30 14503 H 1395.93 -4.05762 -3.35656 0
M  V30 14504 H 1398.42 -3.15243 -2.08399 0
M  V30 14505 H 1398.73 -6.77036 -3.72616 0
M  V30 14506 H 1397.08 -6.08541 -3.35712 0
M  V30 14507 H 1400.27 -3.9507 -2.51072 0
M  V30 14508 H 1400.44 -5.60039 -3.25975 0
M  V30 14509 N 1393.85 0.973806 -1.23914 0
M  V30 14510 C 1394.78 2.06588 -0.969372 0
M  V30 14511 C 1395.76 1.62324 0.0946926 0
M  V30 14512 O 1396.94 1.88455 -0.0409587 0
M  V30 14513 C 1394.07 3.35539 -0.461665 0
M  V30 14514 C 1393.12 3.98748 -1.51334 0
M  V30 14515 S 1393.95 4.37156 -3.09281 0
M  V30 14516 C 1395.11 5.69252 -2.60197 0
M  V30 14517 H 1395.34 2.29153 -1.8941 0
M  V30 14518 H 1392.87 1.11089 -1.07231 0
M  V30 14519 H 1394.83 4.10125 -0.175355 0
M  V30 14520 H 1393.49 3.10971 0.442253 0
M  V30 14521 H 1392.68 4.91661 -1.10839 0
M  V30 14522 H 1392.29 3.30566 -1.74934 0
M  V30 14523 H 1394.58 6.46489 -2.02628 0
M  V30 14524 H 1395.52 6.14598 -3.51675 0
M  V30 14525 H 1395.93 5.27568 -2.00828 0
M  V30 14526 N 1395.33 1.05191 1.17357 0
M  V30 14527 C 1396.57 0.760479 1.87246 0
M  V30 14528 C 1396.9 -0.714618 1.81434 0
M  V30 14529 O 1396.17 -1.51636 1.24029 0
M  V30 14530 H 1394.75 0.278317 0.693216 0
M  V30 14531 H 1397.41 1.33106 1.42369 0
M  V30 14532 H 1396.5 1.07542 2.92987 0
M  V30 14533 N 1396.8 -1.33791 0.83293 0
M  V30 14534 C 1398.22 -1.50893 0.519955 0
M  V30 14535 C 1398.42 -1.7749 -0.953919 0
M  V30 14536 O 1397.48 -1.83168 -1.73798 0
M  V30 14537 C 1398.79 -2.66741 1.38815 0
M  V30 14538 C 1400.34 -2.80625 1.38631 0
M  V30 14539 C 1400.81 -3.99528 2.23922 0
M  V30 14540 N 1402.3 -4.06753 2.21599 0
M  V30 14541 C 1403.04 -4.97937 2.84335 0
M  V30 14542 N 1402.53 -5.94276 3.561 0
M  V30 14543 N 1404.33 -4.90887 2.73837 0
M  V30 14544 H 1396.48 -1.14788 1.7871 0
M  V30 14545 H 1398.74 -0.563822 0.762108 0
M  V30 14546 H 1398.45 -2.53748 2.43525 0
M  V30 14547 H 1398.32 -3.62001 1.05996 0
M  V30 14548 H 1400.71 -2.93053 0.346951 0
M  V30 14549 H 1400.79 -1.86144 1.75454 0
M  V30 14550 H 1400.43 -3.8786 3.27914 0
M  V30 14551 H 1400.36 -4.93242 1.84444 0
M  V30 14552 H 1402.85 -3.37802 1.69406 0
M  V30 14553 H 1403.17 -6.60504 4.01191 0
M  V30 14554 H 1401.51 -5.9437 3.60207 0
M  V30 14555 H 1404.7 -4.14586 2.17338 0
M  V30 14556 H 1404.88 -5.61752 3.23014 0
M  V30 14557 N 1398.28 -0.588812 -1.46187 0
M  V30 14558 C 1399.51 -0.0824104 -2.06436 0
M  V30 14559 C 1399.92 1.23054 -1.43716 0
M  V30 14560 O 1399.26 1.7562 -0.538825 0
M  V30 14561 C 1399.33 0.151307 -3.59181 0
M  V30 14562 C 1398.99 -1.07697 -4.44129 0
M  V30 14563 C 1399.99 -1.99053 -4.80285 0
M  V30 14564 C 1397.67 -1.30053 -4.85172 0
M  V30 14565 C 1399.67 -3.11108 -5.56319 0
M  V30 14566 C 1397.35 -2.42412 -5.60963 0
M  V30 14567 C 1398.35 -3.32769 -5.96451 0
M  V30 14568 O 1398.04 -4.43175 -6.70709 0
M  V30 14569 H 1397.77 -0.0573231 -0.673565 0
M  V30 14570 H 1400.32 -0.811012 -1.88711 0
M  V30 14571 H 1398.55 0.934591 -3.75236 0
M  V30 14572 H 1400.24 0.606973 -4.01336 0
M  V30 14573 H 1401.01 -1.83 -4.4915 0
M  V30 14574 H 1396.89 -0.606295 -4.56996 0
M  V30 14575 H 1400.43 -3.81659 -5.83937 0
M  V30 14576 H 1396.33 -2.58426 -5.91512 0
M  V30 14577 H 1397.1 -4.4162 -6.8914 0
M  V30 14578 N 1399.76 1.54172 -0.326923 0
M  V30 14579 C 1401.18 1.59579 0.0256055 0
M  V30 14580 C 1401.38 1.34337 1.50186 0
M  V30 14581 O 1400.43 1.12945 2.25831 0
M  V30 14582 C 1401.75 2.98086 -0.395641 0
M  V30 14583 C 1403.29 3.11075 -0.346579 0
M  V30 14584 C 1403.77 4.51932 -0.743039 0
M  V30 14585 N 1405.26 4.57932 -0.696575 0
M  V30 14586 C 1405.99 5.65041 -0.975493 0
M  V30 14587 N 1405.49 6.80075 -1.32172 0
M  V30 14588 N 1407.28 5.54835 -0.900831 0
M  V30 14589 H 1399.43 1.68836 -1.28872 0
M  V30 14590 H 1401.7 0.789858 -0.52424 0
M  V30 14591 H 1401.4 3.21568 -1.42431 0
M  V30 14592 H 1401.28 3.76451 0.237645 0
M  V30 14593 H 1403.66 2.87326 0.672889 0
M  V30 14594 H 1403.75 2.34807 -1.01484 0
M  V30 14595 H 1403.39 4.76415 -1.76044 0
M  V30 14596 H 1403.32 5.26574 -0.0524263 0
M  V30 14597 H 1405.81 3.75318 -0.440969 0
M  V30 14598 H 1406.12 7.57708 -1.51983 0
M  V30 14599 H 1404.47 6.81563 -1.36001 0
M  V30 14600 H 1407.66 4.63844 -0.629812 0
M  V30 14601 H 1407.83 6.3822 -1.12156 0
M  V30 14602 N 1401.24 0.0551678 1.57503 0
M  V30 14603 C 1402.52 -0.657808 1.84207 0
M  V30 14604 C 1402.9 -1.88798 0.944372 0
M  V30 14605 O 1402.24 -2.28499 0.00641728 0
M  V30 14606 C 1402.45 -1.0113 3.34026 0
M  V30 14607 C 1403.8 -1.39189 4.01138 0
M  V30 14608 O 1404.83 -1.10353 3.38675 0
M  V30 14609 O 1403.68 -1.93023 5.11277 0
M  V30 14610 H 1400.78 -0.325084 0.760427 0
M  V30 14611 H 1403.32 0.0848352 1.69488 0
M  V30 14612 H 1402.1 -0.13688 3.91061 0
M  V30 14613 H 1401.72 -1.81126 3.53948 0
M  V30 14614 N 1402.72 -1.56081 -0.218252 0
M  V30 14615 C 1403.67 -1.89082 -1.27405 0
M  V30 14616 C 1404.65 -0.754204 -1.42129 0
M  V30 14617 O 1405.84 -1.01668 -1.44888 0
M  V30 14618 C 1402.97 -2.21387 -2.62379 0
M  V30 14619 C 1402.06 -3.41448 -2.51543 0
M  V30 14620 N 1402.45 -4.5998 -2.10362 0
M  V30 14621 C 1400.75 -3.45128 -2.82494 0
M  V30 14622 C 1401.45 -5.42139 -2.10857 0
M  V30 14623 N 1400.42 -4.81936 -2.51472 0
M  V30 14624 H 1404.23 -2.78238 -0.946609 0
M  V30 14625 H 1401.74 -1.56691 -0.426801 0
M  V30 14626 H 1403.74 -2.43205 -3.38611 0
M  V30 14627 H 1402.4 -1.33545 -2.95966 0
M  V30 14628 H 1403.41 -4.85077 -1.8144 0
M  V30 14629 H 1400.08 -2.67638 -3.20431 0
M  V30 14630 H 1401.47 -6.47029 -1.81114 0
M  V30 14631 N 1404.2 0.485086 -1.49949 0
M  V30 14632 C 1405.44 1.23816 -1.60237 0
M  V30 14633 C 1405.77 1.9223 -0.296274 0
M  V30 14634 O 1405.03 1.82095 0.716939 0
M  V30 14635 C 1405.32 2.31573 -2.72229 0
M  V30 14636 C 1404.99 1.80508 -4.13192 0
M  V30 14637 C 1403.65 1.66301 -4.5155 0
M  V30 14638 C 1406 1.42471 -5.0135 0
M  V30 14639 C 1403.33 1.1246 -5.75821 0
M  V30 14640 C 1405.68 0.900757 -6.26154 0
M  V30 14641 C 1404.35 0.74521 -6.63327 0
M  V30 14642 H 1403.62 0.453075 -0.586348 0
M  V30 14643 H 1406.27 0.536349 -1.83836 0
M  V30 14644 H 1404.57 3.07606 -2.42663 0
M  V30 14645 H 1406.27 2.89574 -2.77395 0
M  V30 14646 H 1402.86 1.92529 -3.82924 0
M  V30 14647 H 1407.04 1.52287 -4.72358 0
M  V30 14648 H 1402.3 0.991422 -6.03308 0
M  V30 14649 H 1406.47 0.5973 -6.93834 0
M  V30 14650 H 1404.1 0.325838 -7.59501 0
M  V30 14651 N 1405.67 1.39291 0.737279 0
M  V30 14652 C 1406.64 1.37607 1.83294 0
M  V30 14653 C 1407.64 0.273594 1.58455 0
M  V30 14654 O 1408.83 0.531375 1.65898 0
M  V30 14655 C 1405.96 1.14642 3.21045 0
M  V30 14656 H 1407.15 2.35102 1.86191 0
M  V30 14657 H 1404.7 1.24822 0.940696 0
M  V30 14658 H 1405.44 0.178202 3.2381 0
M  V30 14659 H 1405.22 1.94479 3.40471 0
M  V30 14660 H 1406.71 1.162 4.01108 0
M  V30 14661 N 1407.15 -0.967221 1.24429 0
M  V30 14662 C 1408.11 -2.04344 1.03808 0
M  V30 14663 C 1409.11 -1.60799 -0.00476972 0
M  V30 14664 O 1410.3 -1.72591 0.236241 0
M  V30 14665 C 1407.44 -3.36041 0.573496 0
M  V30 14666 H 1408.63 -2.2407 1.9933 0
M  V30 14667 H 1406.18 -1.14253 1.06658 0
M  V30 14668 H 1406.92 -3.22008 -0.384898 0
M  V30 14669 H 1406.7 -3.68991 1.32619 0
M  V30 14670 H 1408.19 -4.15165 0.450272 0
M  V30 14671 N 1408.63 -1.05812 -1.16797 0
M  V30 14672 C 1409.88 -0.770398 -1.8684 0
M  V30 14673 C 1410.2 0.704986 -1.8181 0
M  V30 14674 O 1409.47 1.50977 -1.24832 0
M  V30 14675 H 1408.05 -0.281989 -0.691731 0
M  V30 14676 H 1410.71 -1.33859 -1.41661 0
M  V30 14677 H 1409.81 -1.09094 -2.92412 0
M  V30 14678 N 1410.11 1.33347 -0.840014 0
M  V30 14679 C 1411.36 1.97354 -0.435412 0
M  V30 14680 C 1411.68 1.66866 1.009 0
M  V30 14681 O 1410.95 0.968186 1.70303 0
M  V30 14682 H 1409.53 0.730096 -0.158017 0
M  V30 14683 H 1412.19 1.6269 -1.07322 0
M  V30 14684 H 1411.28 3.0688 -0.56841 0
M  V30 14685 N 1411.59 0.596556 1.45873 0
M  V30 14686 C 1412.82 0.093357 2.06389 0
M  V30 14687 C 1413.22 -1.2229 1.44367 0
M  V30 14688 O 1412.57 -1.75332 0.548131 0
M  V30 14689 C 1412.63 -0.132256 3.59257 0
M  V30 14690 C 1412.29 1.10051 4.43551 0
M  V30 14691 C 1413.29 2.01598 4.79223 0
M  V30 14692 C 1410.97 1.32625 4.84475 0
M  V30 14693 C 1412.97 3.14054 5.54661 0
M  V30 14694 C 1410.66 2.45384 5.5967 0
M  V30 14695 C 1411.65 3.35927 5.94678 0
M  V30 14696 O 1411.34 4.46726 6.6835 0
M  V30 14697 H 1411.07 0.0608944 0.673252 0
M  V30 14698 H 1413.63 0.821009 1.88278 0
M  V30 14699 H 1411.86 -0.914678 3.75727 0
M  V30 14700 H 1413.55 -0.585681 4.01652 0
M  V30 14701 H 1414.31 1.85379 4.48174 0
M  V30 14702 H 1410.19 0.630522 4.56668 0
M  V30 14703 H 1413.74 3.8475 5.81904 0
M  V30 14704 H 1409.63 2.6156 5.90133 0
M  V30 14705 H 1410.4 4.45268 6.86789 0
M  V30 14706 N 1413.06 -1.53996 0.335095 0
M  V30 14707 C 1414.29 -2.05657 -0.268328 0
M  V30 14708 C 1414.71 -1.20897 -1.44102 0
M  V30 14709 O 1414.07 -0.220737 -1.79951 0
M  V30 14710 C 1414.12 -3.54331 -0.669481 0
M  V30 14711 O 1413.22 -3.7246 -1.77052 0
M  V30 14712 H 1412.56 -0.662386 -0.0462705 0
M  V30 14713 H 1415.09 -1.98723 0.486854 0
M  V30 14714 H 1415.1 -3.9681 -0.948971 0
M  V30 14715 H 1413.78 -4.15474 0.188168 0
M  V30 14716 H 1412.36 -3.41884 -1.48895 0
M  V30 14717 N 1414.54 -0.0635198 -1.57472 0
M  V30 14718 C 1415.77 0.620205 -1.9791 0
M  V30 14719 C 1416.19 1.62851 -0.941335 0
M  V30 14720 O 1415.55 1.81056 0.0940313 0
M  V30 14721 C 1415.6 1.27261 -3.37397 0
M  V30 14722 O 1414.7 2.38841 -3.36197 0
M  V30 14723 H 1414.04 0.16021 -0.644382 0
M  V30 14724 H 1416.57 -0.135582 -2.0415 0
M  V30 14725 H 1416.58 1.6214 -3.74399 0
M  V30 14726 H 1415.26 0.533723 -4.12461 0
M  V30 14727 H 1413.83 2.05817 -3.10956 0
M  V30 14728 N 1416.02 1.56195 0.209972 0
M  V30 14729 C 1416.95 1.96378 1.26324 0
M  V30 14730 C 1417.93 0.833606 1.48273 0
M  V30 14731 O 1419.12 1.0968 1.60262 0
M  V30 14732 C 1416.25 2.29048 2.61064 0
M  V30 14733 C 1415.2 3.44665 2.53752 0
M  V30 14734 C 1414.53 3.6297 3.92628 0
M  V30 14735 C 1415.83 4.79297 2.07536 0
M  V30 14736 H 1417.52 2.8461 0.929379 0
M  V30 14737 H 1415.07 1.36931 0.445627 0
M  V30 14738 H 1417.02 2.55752 3.34916 0
M  V30 14739 H 1415.74 1.37682 2.96161 0
M  V30 14740 H 1414.4 3.18028 1.82356 0
M  V30 14741 H 1414.05 2.68961 4.25052 0
M  V30 14742 H 1413.75 4.40741 3.88614 0
M  V30 14743 H 1415.27 3.92035 4.68125 0
M  V30 14744 H 1416.69 5.05131 2.71138 0
M  V30 14745 H 1415.08 5.60433 2.14557 0
M  V30 14746 H 1416.15 4.73877 1.02802 0
M  V30 14747 N 1417.5 -0.477127 1.50204 0
M  V30 14748 C 1418.75 -1.22722 1.60573 0
M  V30 14749 C 1419.07 -1.92595 0.305326 0
M  V30 14750 O 1418.34 -1.83836 -0.676842 0
M  V30 14751 H 1416.92 -0.455973 0.591691 0
M  V30 14752 H 1419.58 -0.550915 1.86952 0
M  V30 14753 H 1418.67 -1.97837 2.41385 0
M  V30 14754 N 1418.98 -1.3968 -0.729882 0
M  V30 14755 C 1419.91 -1.33201 -1.85291 0
M  V30 14756 C 1420.89 -0.204787 -1.61305 0
M  V30 14757 O 1422.07 -0.386087 -1.84504 0
M  V30 14758 C 1419.2 -1.06955 -3.21369 0
M  V30 14759 C 1418.24 -2.21937 -3.64207 0
M  V30 14760 S 1419.08 -3.84249 -3.72979 0
M  V30 14761 C 1420.23 -3.60239 -5.11839 0
M  V30 14762 H 1420.47 -2.28244 -1.90504 0
M  V30 14763 H 1418 -1.25796 -0.895252 0
M  V30 14764 H 1419.96 -0.924975 -3.99943 0
M  V30 14765 H 1418.62 -0.135902 -3.13806 0
M  V30 14766 H 1417.81 -1.99179 -4.62973 0
M  V30 14767 H 1417.41 -2.32624 -2.92852 0
M  V30 14768 H 1419.71 -3.17821 -5.98328 0
M  V30 14769 H 1420.65 -4.58485 -5.39627 0
M  V30 14770 H 1421.06 -2.94229 -4.81757 0
M  V30 14771 N 1420.45 0.960609 -1.2494 0
M  V30 14772 C 1421.7 1.70701 -1.09495 0
M  V30 14773 C 1422.03 1.90754 0.364214 0
M  V30 14774 O 1421.31 1.47417 1.26879 0
M  V30 14775 C 1421.59 3.09353 -1.84317 0
M  V30 14776 C 1421.44 2.96747 -3.38026 0
M  V30 14777 C 1422.76 4.09139 -1.62153 0
M  V30 14778 H 1419.88 0.61955 -0.399158 0
M  V30 14779 H 1422.52 1.11701 -1.53698 0
M  V30 14780 H 1420.67 3.59719 -1.46746 0
M  V30 14781 H 1422.35 2.53752 -3.85237 0
M  V30 14782 H 1420.59 2.32798 -3.66043 0
M  V30 14783 H 1421.26 3.95002 -3.85587 0
M  V30 14784 H 1423.74 3.67659 -1.94849 0
M  V30 14785 H 1422.61 5.04206 -2.16951 0
M  V30 14786 H 1422.87 4.38521 -0.561437 0
M  V30 14787 N 1421.93 1.0643 1.16234 0
M  V30 14788 C 1422.86 0.697605 2.22836 0
M  V30 14789 C 1423.84 -0.310563 1.67241 0
M  V30 14790 O 1425.03 -0.185385 1.93313 0
M  V30 14791 C 1422.16 0.0847097 3.47197 0
M  V30 14792 C 1421.11 1.019 4.15693 0
M  V30 14793 C 1420.44 0.269339 5.34021 0
M  V30 14794 C 1421.74 2.34861 4.66516 0
M  V30 14795 H 1423.43 1.58883 2.53765 0
M  V30 14796 H 1420.98 0.765388 1.21975 0
M  V30 14797 H 1422.93 -0.1837 4.20999 0
M  V30 14798 H 1421.66 -0.84154 3.15572 0
M  V30 14799 H 1420.31 1.27218 3.43818 0
M  V30 14800 H 1419.96 -0.660072 4.9865 0
M  V30 14801 H 1419.66 0.892001 5.8079 0
M  V30 14802 H 1421.19 0.00850775 6.10599 0
M  V30 14803 H 1422.6 2.13922 5.31893 0
M  V30 14804 H 1421 2.92637 5.23912 0
M  V30 14805 H 1422.07 2.97834 3.82653 0
M  V30 14806 N 1423.41 -1.329 0.847073 0
M  V30 14807 C 1424.83 -1.50333 0.53593 0
M  V30 14808 C 1425.03 -1.78492 -0.93504 0
M  V30 14809 O 1424.08 -1.85001 -1.71846 0
M  V30 14810 C 1425.4 -2.65254 1.41636 0
M  V30 14811 C 1426.94 -2.79139 1.416 0
M  V30 14812 C 1427.42 -3.97131 2.28147 0
M  V30 14813 N 1428.91 -4.0438 2.25901 0
M  V30 14814 C 1429.64 -4.94893 2.89601 0
M  V30 14815 N 1429.14 -5.90466 3.62383 0
M  V30 14816 N 1430.93 -4.87955 2.79028 0
M  V30 14817 H 1423.08 -1.12886 1.79918 0
M  V30 14818 H 1425.35 -0.555707 0.768045 0
M  V30 14819 H 1425.05 -2.51151 2.46203 0
M  V30 14820 H 1424.93 -3.60856 1.09829 0
M  V30 14821 H 1427.31 -2.92669 0.378013 0
M  V30 14822 H 1427.4 -1.84273 1.77418 0
M  V30 14823 H 1427.04 -3.8436 3.32009 0
M  V30 14824 H 1426.97 -4.91258 1.89665 0
M  V30 14825 H 1429.46 -3.35986 1.72979 0
M  V30 14826 H 1429.77 -6.56212 4.08174 0
M  V30 14827 H 1428.12 -5.90516 3.66491 0
M  V30 14828 H 1431.31 -4.12258 2.21723 0
M  V30 14829 H 1431.48 -5.58295 3.28954 0
M  V30 14830 N 1424.89 -0.604284 -1.45555 0
M  V30 14831 C 1425.82 0.165286 -2.27601 0
M  V30 14832 C 1426.8 0.876749 -1.36937 0
M  V30 14833 O 1427.98 0.886288 -1.66365 0
M  V30 14834 C 1425.11 1.23897 -3.15226 0
M  V30 14835 C 1424.16 0.631002 -4.21806 0
M  V30 14836 S 1424.99 -0.558612 -5.32578 0
M  V30 14837 C 1426.15 0.515745 -6.23772 0
M  V30 14838 H 1426.38 -0.53081 -2.92523 0
M  V30 14839 H 1423.91 -0.391717 -1.49348 0
M  V30 14840 H 1425.87 1.85358 -3.66268 0
M  V30 14841 H 1424.53 1.90712 -2.49575 0
M  V30 14842 H 1423.72 1.43876 -4.83028 0
M  V30 14843 H 1423.33 0.0915984 -3.73888 0
M  V30 14844 H 1425.62 1.39571 -6.62968 0
M  V30 14845 H 1426.56 -0.0602302 -7.08074 0
M  V30 14846 H 1426.97 0.829588 -5.58371 0
M  V30 14847 N 1426.37 1.53816 -0.343257 0
M  V30 14848 C 1427.31 2.26505 0.529002 0
M  V30 14849 C 1428.31 1.28639 1.1022 0
M  V30 14850 O 1429.51 1.46348 1.04797 0
M  V30 14851 H 1425.89 0.727789 0.189279 0
M  V30 14852 H 1427.86 2.98211 -0.106096 0
M  V30 14853 C 1426.61 3.05062 1.6683 0
M  V30 14854 H 1425.93 3.80198 1.23651 0
M  V30 14855 H 1427.37 3.59138 2.2538 0
M  V30 14856 C 1425.83 2.14543 2.59756 0
M  V30 14857 O 1426.36 1.74132 3.61996 0
M  V30 14858 N 1424.57 1.79628 2.28434 0
M  V30 14859 H 1424.11 2.12688 1.45332 0
M  V30 14860 H 1424.07 1.19345 2.90868 0
M  V30 14861 N 1427.84 0.0718701 1.57436 0
M  V30 14862 C 1428.81 -0.880671 2.11605 0
M  V30 14863 C 1429.81 -1.22632 1.0401 0
M  V30 14864 O 1431 -1.15958 1.29997 0
M  V30 14865 C 1428.13 -2.18407 2.61746 0
M  V30 14866 H 1429.32 -0.410712 2.97074 0
M  V30 14867 H 1426.88 -0.176836 1.55296 0
M  V30 14868 H 1427.61 -2.6994 1.79731 0
M  V30 14869 H 1427.4 -1.94616 3.40392 0
M  V30 14870 H 1428.89 -2.86596 3.03731 0
M  V30 14871 N 1429.32 -1.56304 -0.201686 0
M  V30 14872 C 1430.25 -1.90538 -1.27389 0
M  V30 14873 C 1431.27 -0.795422 -1.42045 0
M  V30 14874 O 1432.46 -1.07381 -1.42589 0
M  V30 14875 C 1429.56 -2.11638 -2.64694 0
M  V30 14876 C 1428.73 -3.42755 -2.71731 0
M  V30 14877 C 1427.79 -3.53047 -3.90185 0
M  V30 14878 O 1426.81 -4.25923 -3.77595 0
M  V30 14879 N 1428.02 -2.85649 -5.05356 0
M  V30 14880 H 1430.78 -2.83106 -0.983411 0
M  V30 14881 H 1428.34 -1.57092 -0.391638 0
M  V30 14882 H 1430.33 -2.15818 -3.42352 0
M  V30 14883 H 1428.9 -1.256 -2.86258 0
M  V30 14884 H 1428.12 -3.50501 -1.80397 0
M  V30 14885 H 1429.41 -4.29092 -2.73418 0
M  V30 14886 H 1428.81 -2.26256 -5.18483 0
M  V30 14887 H 1427.37 -2.95465 -5.80985 0
M  V30 14888 N 1430.8 0.469154 -1.50455 0
M  V30 14889 C 1432.08 1.23033 -1.5206 0
M  V30 14890 C 1432.46 2.09412 -0.266388 0
M  V30 14891 O 1431.81 2.15837 0.750099 0
M  V30 14892 C 1432.02 2.05969 -2.81741 0
M  V30 14893 C 1433.36 2.64093 -3.32476 0
M  V30 14894 O 1434.39 2.1621 -2.83075 0
M  V30 14895 O 1433.25 3.51341 -4.18595 0
M  V30 14896 H 1430.34 0.55841 -0.610006 0
M  V30 14897 H 1432.89 0.480818 -1.62746 0
M  V30 14898 H 1431.66 1.42327 -3.64498 0
M  V30 14899 H 1431.28 2.8805 -2.74067 0
M  V30 14900 N 1432.28 1.40065 0.722464 0
M  V30 14901 C 1433.52 1.38175 1.48444 0
M  V30 14902 C 1433.86 -0.0182857 1.94191 0
M  V30 14903 O 1433.13 -0.985638 1.67677 0
M  V30 14904 C 1433.42 2.36518 2.71535 0
M  V30 14905 C 1433.27 3.85517 2.31726 0
M  V30 14906 C 1434.59 2.325 3.73673 0
M  V30 14907 H 1431.71 0.503221 0.538458 0
M  V30 14908 H 1434.35 1.7115 0.825087 0
M  V30 14909 H 1432.5 2.08529 3.27793 0
M  V30 14910 H 1434.17 4.24306 1.81003 0
M  V30 14911 H 1432.41 4.01684 1.63807 0
M  V30 14912 H 1433.08 4.49834 3.19928 0
M  V30 14913 H 1435.56 2.57277 3.27029 0
M  V30 14914 H 1434.44 3.03369 4.57447 0
M  V30 14915 H 1434.7 1.33427 4.21485 0
M  V30 14916 N 1433.76 -0.95397 1.25448 0
M  V30 14917 C 1435.17 -1.22516 1.02284 0
M  V30 14918 C 1435.37 -1.99816 -0.259933 0
M  V30 14919 O 1434.43 -2.33022 -0.972479 0
M  V30 14920 C 1435.74 -1.9989 2.24643 0
M  V30 14921 C 1437.29 -2.1293 2.29412 0
M  V30 14922 C 1437.77 -2.93703 3.51429 0
M  V30 14923 N 1439.26 -3.01281 3.51829 0
M  V30 14924 C 1439.99 -3.64174 4.42905 0
M  V30 14925 N 1439.49 -4.28673 5.44253 0
M  V30 14926 N 1441.28 -3.61321 4.30585 0
M  V30 14927 H 1433.43 -0.436859 2.07859 0
M  V30 14928 H 1435.69 -0.255744 0.912852 0
M  V30 14929 H 1435.4 -1.50489 3.17877 0
M  V30 14930 H 1435.27 -3.00593 2.27868 0
M  V30 14931 H 1437.66 -2.61528 1.367 0
M  V30 14932 H 1437.74 -1.1153 2.30206 0
M  V30 14933 H 1437.39 -2.45795 4.44463 0
M  V30 14934 H 1437.32 -3.95331 3.47881 0
M  V30 14935 H 1439.81 -2.55414 2.78517 0
M  V30 14936 H 1440.12 -4.74522 6.09958 0
M  V30 14937 H 1438.47 -4.27299 5.48125 0
M  V30 14938 H 1441.66 -3.10118 3.50634 0
M  V30 14939 H 1441.83 -4.1005 5.0176 0
M  V30 14940 N 1435.24 -1.07045 -1.15668 0
M  V30 14941 C 1436.2 -0.69198 -2.18505 0
M  V30 14942 C 1437.2 0.266185 -1.58582 0
M  V30 14943 O 1438.39 0.0475566 -1.74135 0
M  V30 14944 C 1435.52 -0.0194196 -3.40894 0
M  V30 14945 H 1436.71 -1.60241 -2.53501 0
M  V30 14946 H 1434.27 -0.866598 -1.30076 0
M  V30 14947 H 1435 0.903398 -3.11463 0
M  V30 14948 H 1434.79 -0.708519 -3.85645 0
M  V30 14949 H 1436.28 0.230829 -4.16962 0
M  V30 14950 N 1436.71 1.32449 -0.85411 0
M  V30 14951 C 1437.64 2.31383 -0.313697 0
M  V30 14952 C 1438.62 1.59656 0.586858 0
M  V30 14953 O 1439.81 1.87459 0.507216 0
M  V30 14954 C 1436.94 3.43693 0.499235 0
M  V30 14955 C 1435.89 4.26899 -0.306839 0
M  V30 14956 C 1435.22 5.30966 0.630795 0
M  V30 14957 C 1436.52 4.99318 -1.53229 0
M  V30 14958 H 1438.21 2.76832 -1.14037 0
M  V30 14959 H 1435.76 1.33091 -0.549805 0
M  V30 14960 H 1437.71 4.11944 0.887709 0
M  V30 14961 H 1436.44 2.96971 1.35926 0
M  V30 14962 H 1435.1 3.60294 -0.677061 0
M  V30 14963 H 1434.74 4.80498 1.48765 0
M  V30 14964 H 1434.44 5.87522 0.0954635 0
M  V30 14965 H 1435.97 6.0208 1.01646 0
M  V30 14966 H 1437.38 5.60253 -1.21614 0
M  V30 14967 H 1435.78 5.65596 -2.00552 0
M  V30 14968 H 1436.85 4.27213 -2.29383 0
M  V30 14969 N 1438.19 0.611994 1.45232 0
M  V30 14970 C 1439.44 0.108696 2.01807 0
M  V30 14971 C 1439.76 -1.26692 1.48237 0
M  V30 14972 O 1439.03 -1.8378 0.678368 0
M  V30 14973 H 1437.61 0.0371921 0.746074 0
M  V30 14974 H 1440.27 0.794386 1.77976 0
M  V30 14975 H 1439.37 0.0618207 3.12039 0
M  V30 14976 N 1439.67 -1.53632 0.351409 0
M  V30 14977 C 1440.92 -2.00222 -0.243731 0
M  V30 14978 C 1441.23 -1.24305 -1.51022 0
M  V30 14979 O 1442.44 -1.61411 -2.18309 0
M  V30 14980 C 1440.89 -3.56619 -0.48487 0
M  V30 14981 C 1440.5 -4.414 0.766173 0
M  V30 14982 C 1442.25 -4.11603 -1.03844 0
M  V30 14983 C 1440.15 -5.89321 0.4954 0
M  V30 14984 H 1439.08 -0.74801 -0.0948534 0
M  V30 14985 H 1441.73 -1.77433 0.467957 0
M  V30 14986 H 1440.12 -3.75505 -1.25746 0
M  V30 14987 H 1441.29 -4.34288 1.54047 0
M  V30 14988 H 1439.6 -3.97448 1.24194 0
M  V30 14989 H 1442.2 -5.19736 -1.25611 0
M  V30 14990 H 1442.54 -3.65311 -1.99634 0
M  V30 14991 H 1443.08 -3.96459 -0.326363 0
M  V30 14992 H 1439.82 -6.39863 1.42324 0
M  V30 14993 H 1439.34 -5.99317 -0.240662 0
M  V30 14994 H 1441.02 -6.46897 0.115584 0
M  V30 14995 N 1441.15 -0.0802183 -1.57396 0
M  V30 14996 C 1442.38 0.595754 -1.98137 0
M  V30 14997 C 1442.79 1.62638 -0.958871 0
M  V30 14998 O 1442.15 1.82422 0.0534316 0
M  V30 14999 C 1442.2 1.2568 -3.38949 0
M  V30 15000 O 1441.92 0.267417 -4.37283 0
M  V30 15001 C 1443.42 2.0198 -3.94612 0
M  V30 15002 H 1440.64 0.160853 -0.651435 0
M  V30 15003 H 1443.18 -0.155111 -2.03911 0
M  V30 15004 H 1441.34 1.9587 -3.34236 0
M  V30 15005 H 1441.75 0.742695 -5.19215 0
M  V30 15006 H 1443.23 2.43613 -4.95335 0
M  V30 15007 H 1443.7 2.87973 -3.31614 0
M  V30 15008 H 1444.31 1.36639 -4.02753 0
M  V30 15009 N 1442.63 1.56409 0.193394 0
M  V30 15010 C 1443.56 1.97707 1.24234 0
M  V30 15011 C 1444.54 0.849286 1.47381 0
M  V30 15012 O 1445.72 1.11374 1.59089 0
M  V30 15013 C 1442.85 2.31804 2.5862 0
M  V30 15014 C 1441.81 3.47337 2.50082 0
M  V30 15015 C 1441.13 3.67114 3.88756 0
M  V30 15016 C 1442.43 4.81472 2.02441 0
M  V30 15017 H 1444.13 2.8558 0.89914 0
M  V30 15018 H 1441.67 1.37396 0.431078 0
M  V30 15019 H 1443.62 2.5929 3.32185 0
M  V30 15020 H 1442.35 1.40816 2.94684 0
M  V30 15021 H 1441.01 3.19944 1.78973 0
M  V30 15022 H 1440.66 2.73454 4.22175 0
M  V30 15023 H 1440.36 4.44838 3.83918 0
M  V30 15024 H 1441.88 3.96978 4.6394 0
M  V30 15025 H 1443.29 5.07978 2.65766 0
M  V30 15026 H 1441.69 5.62677 2.08601 0
M  V30 15027 H 1442.76 4.74941 0.977704 0
M  V30 15028 N 1444.1 -0.461169 1.50702 0
M  V30 15029 C 1445.04 -1.57702 1.64941 0
M  V30 15030 C 1446.01 -1.54808 0.497312 0
M  V30 15031 O 1447.2 -1.74286 0.718104 0
M  V30 15032 C 1444.33 -2.96285 1.64112 0
M  V30 15033 C 1443.37 -3.17296 2.85001 0
M  V30 15034 S 1444.2 -2.96134 4.46167 0
M  V30 15035 C 1445.36 -4.37042 4.48046 0
M  V30 15036 H 1445.59 -1.45386 2.59327 0
M  V30 15037 H 1443.13 -0.649209 1.40088 0
M  V30 15038 H 1445.08 -3.76178 1.64318 0
M  V30 15039 H 1443.75 -3.05983 0.709442 0
M  V30 15040 H 1442.94 -4.18561 2.80754 0
M  V30 15041 H 1442.54 -2.45191 2.82413 0
M  V30 15042 H 1444.83 -5.29846 4.2222 0
M  V30 15043 H 1445.78 -4.4633 5.49723 0
M  V30 15044 H 1446.18 -4.19584 3.77637 0
M  V30 15045 N 1445.58 -1.40446 -0.715026 0
M  V30 15046 C 1446.83 -1.3848 -1.47199 0
M  V30 15047 C 1447.15 0.0119198 -1.94996 0
M  V30 15048 O 1446.42 0.966772 -1.70383 0
M  V30 15049 H 1445 -0.509669 -0.54612 0
M  V30 15050 H 1447.66 -1.75505 -0.847588 0
M  V30 15051 H 1446.76 -2.06002 -2.34456 0
M  V30 15052 N 1447.06 0.947303 -1.25952 0
M  V30 15053 C 1448.01 2.03076 -1.03653 0
M  V30 15054 C 1448.99 1.60874 0.0290512 0
M  V30 15055 O 1450.19 1.76008 -0.187169 0
M  V30 15056 C 1447.31 3.36797 -0.66501 0
M  V30 15057 C 1446.4 3.85502 -1.76773 0
M  V30 15058 N 1446.79 4.06922 -3.00413 0
M  V30 15059 C 1445.09 4.14359 -1.64993 0
M  V30 15060 C 1445.79 4.4717 -3.7204 0
M  V30 15061 N 1444.77 4.53523 -2.99697 0
M  V30 15062 H 1448.57 2.17641 -1.97509 0
M  V30 15063 H 1446.08 1.13268 -1.16379 0
M  V30 15064 H 1448.08 4.14053 -0.486427 0
M  V30 15065 H 1446.74 3.23607 0.266138 0
M  V30 15066 H 1447.75 3.93786 -3.36383 0
M  V30 15067 H 1444.43 4.09991 -0.788254 0
M  V30 15068 H 1445.82 4.71985 -4.78205 0
M  V30 15069 N 1448.54 1.07657 1.15099 0
M  V30 15070 C 1449.47 0.657598 2.19564 0
M  V30 15071 C 1450.48 -0.29146 1.6017 0
M  V30 15072 O 1451.67 -0.0802981 1.78319 0
M  V30 15073 C 1448.77 -0.0542221 3.38857 0
M  V30 15074 C 1447.95 0.911803 4.27791 0
M  V30 15075 C 1447 0.236709 5.25667 0
M  V30 15076 O 1446.03 0.878731 5.62376 0
M  V30 15077 N 1447.23 -1.01641 5.71532 0
M  V30 15078 H 1450 1.55626 2.56126 0
M  V30 15079 H 1447.56 0.961657 1.30245 0
M  V30 15080 H 1449.55 -0.516603 4.01389 0
M  V30 15081 H 1448.12 -0.854871 3.00684 0
M  V30 15082 H 1447.34 1.55322 3.6231 0
M  V30 15083 H 1448.63 1.56667 4.8408 0
M  V30 15084 H 1448.03 -1.55791 5.43825 0
M  V30 15085 H 1446.58 -1.42242 6.3609 0
M  V30 15086 N 1450.02 -1.31994 0.861122 0
M  V30 15087 C 1450.96 -2.28729 0.308476 0
M  V30 15088 C 1451.93 -1.55338 -0.588148 0
M  V30 15089 O 1453.12 -1.8353 -0.52168 0
M  V30 15090 C 1450.26 -3.4158 -0.491621 0
M  V30 15091 C 1449.37 -4.29839 0.431522 0
M  V30 15092 C 1448.51 -5.29826 -0.381836 0
M  V30 15093 C 1447.55 -6.09728 0.538296 0
M  V30 15094 N 1446.68 -7.01696 -0.238274 0
M  V30 15095 H 1451.52 -2.75389 1.13863 0
M  V30 15096 H 1449.06 -1.35485 0.572911 0
M  V30 15097 H 1451.02 -4.05738 -0.971193 0
M  V30 15098 H 1449.65 -2.96054 -1.28654 0
M  V30 15099 H 1448.7 -3.66204 1.02951 0
M  V30 15100 H 1450.01 -4.85658 1.13742 0
M  V30 15101 H 1449.17 -5.99618 -0.924297 0
M  V30 15102 H 1447.9 -4.7464 -1.12107 0
M  V30 15103 H 1446.91 -5.38834 1.09259 0
M  V30 15104 H 1448.13 -6.67 1.27625 0
M  V30 15105 H 1446.08 -6.4893 -0.960486 0
M  V30 15106 H 1446 -7.54896 0.408466 0
M  V30 15107 H 1447.27 -7.75764 -0.762252 0
M  V30 15108 N 1451.49 -0.619688 -1.44906 0
M  V30 15109 C 1452.44 0.0920359 -2.30616 0
M  V30 15110 C 1453.41 0.848114 -1.42815 0
M  V30 15111 O 1454.6 0.831439 -1.71732 0
M  V30 15112 C 1451.74 1.07537 -3.27917 0
M  V30 15113 C 1450.85 0.318904 -4.30821 0
M  V30 15114 C 1449.98 1.29303 -5.15222 0
M  V30 15115 C 1449.02 0.525071 -6.09844 0
M  V30 15116 N 1448.16 1.44909 -6.86983 0
M  V30 15117 H 1453 -0.644834 -2.9094 0
M  V30 15118 H 1450.54 -0.329785 -1.43356 0
M  V30 15119 H 1452.5 1.65874 -3.82808 0
M  V30 15120 H 1451.13 1.7795 -2.6932 0
M  V30 15121 H 1450.18 -0.380192 -3.78495 0
M  V30 15122 H 1451.49 -0.279742 -4.98015 0
M  V30 15123 H 1450.64 1.94809 -5.74573 0
M  V30 15124 H 1449.38 1.92561 -4.48076 0
M  V30 15125 H 1448.39 -0.14355 -5.49613 0
M  V30 15126 H 1449.61 -0.102625 -6.79022 0
M  V30 15127 H 1447.56 2.06908 -6.22515 0
M  V30 15128 H 1447.48 0.90418 -7.50574 0
M  V30 15129 H 1448.74 2.09335 -7.50866 0
M  V30 15130 N 1452.97 1.53444 -0.359552 0
M  V30 15131 C 1454.22 2.00348 0.233109 0
M  V30 15132 C 1454.53 1.25104 1.50361 0
M  V30 15133 O 1455.74 1.62566 2.1745 0
M  V30 15134 C 1454.2 3.56871 0.465951 0
M  V30 15135 C 1453.8 4.40987 -0.789571 0
M  V30 15136 C 1455.55 4.12148 1.0166 0
M  V30 15137 C 1453.46 5.8905 -0.526646 0
M  V30 15138 H 1452.39 0.748502 0.0908851 0
M  V30 15139 H 1455.04 1.77182 -0.47736 0
M  V30 15140 H 1453.42 3.76167 1.23753 0
M  V30 15141 H 1454.59 4.33465 -1.56348 0
M  V30 15142 H 1452.91 3.96784 -1.263 0
M  V30 15143 H 1455.5 5.20395 1.22853 0
M  V30 15144 H 1455.85 3.66364 1.97694 0
M  V30 15145 H 1456.38 3.96626 0.305334 0
M  V30 15146 H 1453.12 6.39099 -1.45715 0
M  V30 15147 H 1452.64 5.99436 0.208875 0
M  V30 15148 H 1454.32 6.46826 -0.149889 0
M  V30 15149 N 1454.45 0.0885642 1.57351 0
M  V30 15150 C 1455.38 -0.869946 2.16689 0
M  V30 15151 C 1456.36 -1.29878 1.09844 0
M  V30 15152 O 1457.55 -1.36684 1.37954 0
M  V30 15153 C 1454.68 -2.13148 2.74199 0
M  V30 15154 C 1453.63 -1.84149 3.86359 0
M  V30 15155 C 1452.96 -3.17075 4.30543 0
M  V30 15156 C 1454.26 -1.13357 5.09851 0
M  V30 15157 H 1455.95 -0.375578 2.97035 0
M  V30 15158 H 1453.5 -0.17921 1.42881 0
M  V30 15159 H 1455.45 -2.80634 3.14361 0
M  V30 15160 H 1454.17 -2.64856 1.91098 0
M  V30 15161 H 1452.83 -1.19063 3.46727 0
M  V30 15162 H 1452.48 -3.66658 3.44342 0
M  V30 15163 H 1452.18 -2.98457 5.06159 0
M  V30 15164 H 1453.7 -3.85731 4.73333 0
M  V30 15165 H 1455.12 -1.70941 5.47222 0
M  V30 15166 H 1453.52 -1.0494 5.90853 0
M  V30 15167 H 1454.59 -0.115273 4.84763 0
M  V30 15168 N 1455.93 -1.56509 -0.185096 0
M  V30 15169 C 1457.18 -1.80848 -0.902139 0
M  V30 15170 C 1457.5 -0.663295 -1.83372 0
M  V30 15171 O 1456.77 0.317754 -1.93306 0
M  V30 15172 H 1455.35 -0.667108 -0.336119 0
M  V30 15173 H 1458.01 -1.93989 -0.188211 0
M  V30 15174 H 1457.11 -2.74383 -1.48729 0
M  V30 15175 N 1457.41 0.45317 -1.50944 0
M  V30 15176 C 1458.63 1.23136 -1.6689 0
M  V30 15177 C 1459.06 1.84639 -0.359185 0
M  V30 15178 O 1458.41 1.68106 0.678983 0
M  V30 15179 C 1458.46 2.30275 -2.77499 0
M  V30 15180 O 1457.57 3.35371 -2.39999 0
M  V30 15181 H 1456.91 0.361475 -0.556984 0
M  V30 15182 H 1459.44 0.537174 -1.97422 0
M  V30 15183 H 1459.45 2.75309 -3.01113 0
M  V30 15184 H 1458.12 1.84885 -3.72546 0
M  V30 15185 H 1456.7 2.95924 -2.26899 0
M  V30 15186 N 1458.88 1.40823 0.707568 0
M  V30 15187 C 1460.13 1.38837 1.46312 0
M  V30 15188 C 1460.45 -0.00353939 1.956 0
M  V30 15189 O 1461.65 -0.146022 2.71107 0
M  V30 15190 C 1460.11 2.44052 2.64512 0
M  V30 15191 C 1459.72 3.89093 2.2206 0
M  V30 15192 C 1461.46 2.51185 3.42208 0
M  V30 15193 C 1459.37 4.85887 3.37147 0
M  V30 15194 H 1458.3 0.516263 0.549535 0
M  V30 15195 H 1460.95 1.66595 0.769302 0
M  V30 15196 H 1459.33 2.09406 3.36103 0
M  V30 15197 H 1460.5 4.32925 1.57837 0
M  V30 15198 H 1458.82 3.8551 1.57388 0
M  V30 15199 H 1461.42 3.20687 4.2786 0
M  V30 15200 H 1461.76 1.54488 3.86574 0
M  V30 15201 H 1462.29 2.84862 2.77666 0
M  V30 15202 H 1459.03 5.83946 2.97805 0
M  V30 15203 H 1458.55 4.46713 4.00259 0
M  V30 15204 H 1460.23 5.06084 4.03098 0
M  V30 15205 N 1460.36 -0.94061 1.26453 0
M  V30 15206 C 1461.29 -2.04322 1.03852 0
M  V30 15207 C 1462.31 -1.628 -0.00122618 0
M  V30 15208 O 1463.5 -1.76894 0.238911 0
M  V30 15209 C 1460.6 -3.34394 0.550789 0
M  V30 15210 C 1459.77 -4.0468 1.6599 0
M  V30 15211 C 1458.83 -5.13025 1.17012 0
M  V30 15212 O 1457.85 -5.37699 1.8673 0
M  V30 15213 N 1459.06 -5.80497 0.0188478 0
M  V30 15214 H 1461.82 -2.24276 1.98797 0
M  V30 15215 H 1459.38 -1.11013 1.17846 0
M  V30 15216 H 1461.37 -4.04169 0.207305 0
M  V30 15217 H 1459.94 -3.11108 -0.30509 0
M  V30 15218 H 1459.16 -3.28813 2.17429 0
M  V30 15219 H 1460.45 -4.48392 2.40463 0
M  V30 15220 H 1459.85 -5.62888 -0.563368 0
M  V30 15221 H 1458.41 -6.51259 -0.265556 0
M  V30 15222 N 1461.84 -1.08266 -1.14527 0
M  V30 15223 C 1463.07 -0.83288 -1.89396 0
M  V30 15224 C 1463.48 0.614823 -1.78509 0
M  V30 15225 O 1462.84 1.42239 -1.14343 0
M  V30 15226 C 1462.89 -1.244 -3.39421 0
M  V30 15227 O 1462.61 -2.63491 -3.50006 0
M  V30 15228 C 1464.11 -1.02488 -4.3129 0
M  V30 15229 H 1461.33 -0.300474 -0.599964 0
M  V30 15230 H 1463.88 -1.44155 -1.4505 0
M  V30 15231 H 1462.03 -0.679466 -3.81395 0
M  V30 15232 H 1462.45 -2.80517 -4.43182 0
M  V30 15233 H 1463.92 -1.36194 -5.34935 0
M  V30 15234 H 1464.4 0.0381961 -4.39183 0
M  V30 15235 H 1465 -1.57477 -3.95071 0
M  V30 15236 N 1463.32 1.31536 -0.86811 0
M  V30 15237 C 1464.25 2.2663 -0.2672 0
M  V30 15238 C 1465.23 1.51023 0.602574 0
M  V30 15239 O 1466.41 1.80101 0.556408 0
M  V30 15240 C 1463.54 3.32943 0.62183 0
M  V30 15241 C 1462.59 4.26135 -0.176348 0
M  V30 15242 S 1463.42 5.12467 -1.55363 0
M  V30 15243 C 1464.58 6.22296 -0.670673 0
M  V30 15244 H 1464.81 2.7725 -1.07331 0
M  V30 15245 H 1462.34 1.39273 -0.666521 0
M  V30 15246 H 1464.3 3.94667 1.12908 0
M  V30 15247 H 1462.96 2.81081 1.40187 0
M  V30 15248 H 1462.15 5.015 0.501358 0
M  V30 15249 H 1461.76 3.68898 -0.61563 0
M  V30 15250 H 1464.05 6.77395 0.119508 0
M  V30 15251 H 1464.99 6.94215 -1.39539 0
M  V30 15252 H 1465.4 5.63994 -0.239048 0
M  V30 15253 N 1464.8 0.627364 1.44575 0
M  V30 15254 C 1466.21 0.292662 1.56894 0
M  V30 15255 C 1466.41 -1.20429 1.61552 0
M  V30 15256 O 1465.47 -1.98819 1.55651 0
M  V30 15257 C 1466.78 0.981267 2.84239 0
M  V30 15258 C 1468.33 0.959053 2.97945 0
M  V30 15259 C 1468.81 1.62805 4.28087 0
M  V30 15260 N 1470.3 1.59446 4.34892 0
M  V30 15261 C 1471.03 2.08107 5.34302 0
M  V30 15262 N 1470.53 2.64942 6.40139 0
M  V30 15263 N 1472.32 1.98758 5.25787 0
M  V30 15264 H 1464.47 1.5991 1.39795 0
M  V30 15265 H 1466.73 0.671019 0.669655 0
M  V30 15266 H 1466.44 2.0361 2.86768 0
M  V30 15267 H 1466.31 0.516703 3.73644 0
M  V30 15268 H 1468.7 -0.0872902 2.94971 0
M  V30 15269 H 1468.78 1.46207 2.09898 0
M  V30 15270 H 1468.43 2.67382 4.31821 0
M  V30 15271 H 1468.36 1.09989 5.14985 0
M  V30 15272 H 1470.85 1.17947 3.59022 0
M  V30 15273 H 1471.16 2.99814 7.12272 0
M  V30 15274 H 1469.51 2.68991 6.40835 0
M  V30 15275 H 1472.7 1.54081 4.42014 0
M  V30 15276 H 1472.87 2.36992 6.03107 0
M  V30 15277 N 1466.28 -1.53251 0.367684 0
M  V30 15278 C 1467.24 -2.24423 -0.465516 0
M  V30 15279 C 1468.24 -1.25283 -1.00801 0
M  V30 15280 O 1469.43 -1.49545 -0.893424 0
M  V30 15281 C 1466.56 -2.9826 -1.65087 0
M  V30 15282 H 1467.75 -2.99487 0.157292 0
M  V30 15283 H 1465.31 -1.55843 0.119409 0
M  V30 15284 H 1466.04 -2.27443 -2.31171 0
M  V30 15285 H 1465.83 -3.71003 -1.26882 0
M  V30 15286 H 1467.32 -3.52358 -2.24128 0
M  V30 15287 N 1467.75 -0.0969077 -1.57302 0
M  V30 15288 C 1468.69 0.891431 -2.11154 0
M  V30 15289 C 1469.7 1.24482 -1.04919 0
M  V30 15290 O 1470.89 1.19762 -1.3236 0
M  V30 15291 C 1467.99 2.19998 -2.57787 0
M  V30 15292 C 1467.16 2.02165 -3.87876 0
M  V30 15293 C 1466.22 3.16549 -4.20337 0
M  V30 15294 O 1465.25 2.90432 -4.89528 0
M  V30 15295 N 1466.45 4.42369 -3.75885 0
M  V30 15296 H 1469.21 0.431477 -2.96578 0
M  V30 15297 H 1466.77 0.0881458 -1.6166 0
M  V30 15298 H 1468.77 2.95472 -2.76547 0
M  V30 15299 H 1467.34 2.57412 -1.77364 0
M  V30 15300 H 1466.56 1.11011 -3.78246 0
M  V30 15301 H 1467.84 1.87529 -4.7298 0
M  V30 15302 H 1467.24 4.66469 -3.20036 0
M  V30 15303 H 1465.8 5.14787 -3.99797 0
M  V30 15304 N 1469.23 1.56605 0.176793 0
M  V30 15305 C 1470.16 1.99014 1.2213 0
M  V30 15306 C 1471.14 0.86487 1.46472 0
M  V30 15307 O 1472.33 1.13055 1.57899 0
M  V30 15308 C 1469.46 2.34534 2.56146 0
M  V30 15309 C 1468.41 3.4997 2.46384 0
M  V30 15310 C 1467.74 3.71217 3.8484 0
M  V30 15311 C 1469.04 4.83592 1.97323 0
M  V30 15312 H 1470.73 2.86517 0.8688 0
M  V30 15313 H 1468.28 1.37846 0.416481 0
M  V30 15314 H 1470.23 2.62799 3.29416 0
M  V30 15315 H 1468.95 1.43933 2.93174 0
M  V30 15316 H 1467.61 3.21824 1.75569 0
M  V30 15317 H 1467.26 2.77916 4.19251 0
M  V30 15318 H 1466.96 4.48885 3.79178 0
M  V30 15319 H 1468.49 4.01877 4.59704 0
M  V30 15320 H 1469.9 5.10768 2.60363 0
M  V30 15321 H 1468.3 5.64858 2.02622 0
M  V30 15322 H 1469.37 4.75951 0.927275 0
M  V30 15323 N 1470.71 -0.445159 1.51182 0
M  V30 15324 C 1471.94 -1.21787 1.67259 0
M  V30 15325 C 1472.35 -1.85206 0.366641 0
M  V30 15326 O 1471.71 -1.70376 -0.654095 0
M  V30 15327 C 1471.76 -2.30765 2.78262 0
M  V30 15328 O 1471.48 -1.69942 4.03796 0
M  V30 15329 C 1472.98 -3.21186 3.05539 0
M  V30 15330 H 1470.2 -0.367364 0.561502 0
M  V30 15331 H 1472.75 -0.528415 1.97555 0
M  V30 15332 H 1470.9 -2.9544 2.50587 0
M  V30 15333 H 1471.32 -2.41905 4.65384 0
M  V30 15334 H 1472.79 -3.93805 3.8681 0
M  V30 15335 H 1473.27 -3.81487 2.17634 0
M  V30 15336 H 1473.87 -2.62221 3.34844 0
M  V30 15337 N 1472.19 -1.41197 -0.700089 0
M  V30 15338 C 1473.41 -1.43856 -1.494 0
M  V30 15339 C 1473.84 -0.0441877 -1.88048 0
M  V30 15340 O 1473.2 0.951503 -1.54325 0
M  V30 15341 C 1473.24 -2.34913 -2.73584 0
M  V30 15342 O 1472.35 -1.80305 -3.70896 0
M  V30 15343 H 1471.69 -0.488412 -0.449833 0
M  V30 15344 H 1474.22 -1.85606 -0.860911 0
M  V30 15345 H 1474.23 -2.50633 -3.21943 0
M  V30 15346 H 1472.9 -3.36229 -2.44791 0
M  V30 15347 H 1471.48 -1.74012 -3.29809 0
M  V30 15348 N 1473.67 0.933891 -1.2695 0
M  V30 15349 C 1474.89 1.71512 -1.15721 0
M  V30 15350 C 1475.31 1.8661 0.286712 0
M  V30 15351 O 1474.67 1.3787 1.19574 0
M  V30 15352 C 1474.72 3.11804 -1.82922 0
M  V30 15353 O 1474.44 2.97421 -3.21672 0
M  V30 15354 C 1475.94 4.06108 -1.7774 0
M  V30 15355 H 1473.16 0.53678 -0.402626 0
M  V30 15356 H 1475.7 1.17025 -1.67706 0
M  V30 15357 H 1473.86 3.6317 -1.34856 0
M  V30 15358 H 1474.27 3.86069 -3.55037 0
M  V30 15359 H 1475.75 5.02082 -2.29385 0
M  V30 15360 H 1476.22 4.32828 -0.74543 0
M  V30 15361 H 1476.83 3.60665 -2.25391 0
M  V30 15362 N 1475.14 1.08871 1.13951 0
M  V30 15363 C 1476.08 0.680849 2.18854 0
M  V30 15364 C 1477.09 -0.274456 1.6047 0
M  V30 15365 O 1478.28 -0.0613804 1.78394 0
M  V30 15366 C 1475.38 -0.0182788 3.38895 0
M  V30 15367 C 1474.55 0.957125 4.268 0
M  V30 15368 C 1473.61 0.29245 5.25387 0
M  V30 15369 O 1472.64 0.938329 5.61413 0
M  V30 15370 N 1473.84 -0.955738 5.72578 0
M  V30 15371 H 1476.6 1.58334 2.54461 0
M  V30 15372 H 1474.16 0.975417 1.29218 0
M  V30 15373 H 1476.16 -0.474001 4.01915 0
M  V30 15374 H 1474.73 -0.822932 3.01574 0
M  V30 15375 H 1473.95 1.59156 3.60642 0
M  V30 15376 H 1475.23 1.61792 4.82391 0
M  V30 15377 H 1474.63 -1.50014 5.45447 0
M  V30 15378 H 1473.19 -1.35488 6.37563 0
M  V30 15379 N 1476.62 -1.31073 0.875073 0
M  V30 15380 C 1477.87 -1.9613 0.487584 0
M  V30 15381 C 1478.19 -1.69482 -0.964407 0
M  V30 15382 O 1477.46 -1.013 -1.67676 0
M  V30 15383 H 1476.04 -0.725649 0.177319 0
M  V30 15384 H 1478.7 -1.59787 1.11598 0
M  V30 15385 H 1477.8 -3.05265 0.649574 0
M  V30 15386 N 1478.1 -0.635022 -1.4424 0
M  V30 15387 C 1479.51 -0.222982 -1.85364 0
M  V30 15388 C 1479.86 1.22648 -1.5314 0
M  V30 15389 O 1478.99 1.93373 -0.971384 0
M  V30 15390 C 1479.58 -0.397912 -3.36455 0
M  V30 15391 C 1478.14 -0.0403458 -3.76378 0
M  V30 15392 C 1477.29 -0.709451 -2.68071 0
M  V30 15393 H 1480.24 -0.839923 -1.34651 0
M  V30 15394 H 1480.26 0.361996 -3.78774 0
M  V30 15395 H 1479.77 -1.45294 -3.59877 0
M  V30 15396 H 1477.87 1.01279 -3.58571 0
M  V30 15397 H 1477.99 -0.453121 -4.76952 0
M  V30 15398 H 1476.35 -0.144386 -2.5429 0
M  V30 15399 H 1477.13 -1.76715 -2.94324 0
M  V30 15400 N 1479.58 1.53054 -0.375806 0
M  V30 15401 C 1480.99 1.5958 -0.0251765 0
M  V30 15402 C 1481.19 1.39047 1.45836 0
M  V30 15403 O 1480.25 1.20073 2.22123 0
M  V30 15404 C 1481.56 2.96676 -0.490274 0
M  V30 15405 C 1483.11 3.09815 -0.44537 0
M  V30 15406 C 1483.59 4.4934 -0.886442 0
M  V30 15407 N 1485.08 4.55484 -0.84191 0
M  V30 15408 C 1485.81 5.61652 -1.15476 0
M  V30 15409 N 1485.31 6.75526 -1.53741 0
M  V30 15410 N 1487.1 5.51688 -1.07689 0
M  V30 15411 H 1479.25 1.64651 -1.34178 0
M  V30 15412 H 1481.52 0.77278 -0.549104 0
M  V30 15413 H 1481.22 3.16874 -1.52589 0
M  V30 15414 H 1481.1 3.77016 0.11776 0
M  V30 15415 H 1483.48 2.89321 0.581138 0
M  V30 15416 H 1483.56 2.3146 -1.08903 0
M  V30 15417 H 1483.21 4.70573 -1.91111 0
M  V30 15418 H 1483.14 5.26141 -0.219925 0
M  V30 15419 H 1485.63 3.73725 -0.56015 0
M  V30 15420 H 1485.94 7.52489 -1.76012 0
M  V30 15421 H 1484.29 6.76892 -1.57616 0
M  V30 15422 H 1487.48 4.61605 -0.777062 0
M  V30 15423 H 1487.65 6.34329 -1.32403 0
M  V30 15424 N 1481.06 0.105248 1.57248 0
M  V30 15425 C 1482.47 -0.251385 1.57608 0
M  V30 15426 C 1482.67 -1.677 1.11709 0
M  V30 15427 O 1481.73 -2.39552 0.798182 0
M  V30 15428 C 1483.04 -0.0305755 3.00684 0
M  V30 15429 C 1484.59 -0.0975409 3.12848 0
M  V30 15430 C 1485.06 0.0954024 4.57901 0
M  V30 15431 N 1486.56 0.040908 4.63182 0
M  V30 15432 C 1487.29 0.165298 5.73162 0
M  V30 15433 N 1486.79 0.345091 6.9194 0
M  V30 15434 N 1488.58 0.105847 5.62 0
M  V30 15435 H 1480.73 1.03658 1.85388 0
M  V30 15436 H 1482.99 0.407074 0.856151 0
M  V30 15437 H 1482.7 0.954461 3.38501 0
M  V30 15438 H 1482.57 -0.768477 3.69289 0
M  V30 15439 H 1484.96 -1.07309 2.74898 0
M  V30 15440 H 1485.04 0.672017 2.46815 0
M  V30 15441 H 1484.69 1.06786 4.96547 0
M  V30 15442 H 1484.62 -0.693974 5.22007 0
M  V30 15443 H 1487.11 -0.0951009 3.7778 0
M  V30 15444 H 1487.42 0.431243 7.71596 0
M  V30 15445 H 1485.76 0.38089 6.93955 0
M  V30 15446 H 1488.96 -0.0335544 4.68088 0
M  V30 15447 H 1489.13 0.206235 6.47672 0
M  V30 15448 N 1482.53 -1.56697 -0.168486 0
M  V30 15449 C 1483.48 -1.93039 -1.21325 0
M  V30 15450 C 1484.47 -0.799039 -1.39657 0
M  V30 15451 O 1485.66 -1.06226 -1.41581 0
M  V30 15452 C 1482.79 -2.29622 -2.55203 0
M  V30 15453 C 1481.88 -3.49278 -2.40553 0
M  V30 15454 N 1482.27 -4.6644 -1.95622 0
M  V30 15455 C 1480.56 -3.53941 -2.71371 0
M  V30 15456 C 1481.27 -5.48572 -1.93502 0
M  V30 15457 N 1480.24 -4.89693 -2.36012 0
M  V30 15458 H 1484.04 -2.81109 -0.857611 0
M  V30 15459 H 1481.56 -1.5797 -0.376734 0
M  V30 15460 H 1483.55 -2.53854 -3.30702 0
M  V30 15461 H 1482.21 -1.42893 -2.91568 0
M  V30 15462 H 1483.23 -4.90604 -1.65916 0
M  V30 15463 H 1479.9 -2.77697 -3.11754 0
M  V30 15464 H 1481.29 -6.52464 -1.60438 0
M  V30 15465 N 1484.01 0.437135 -1.51416 0
M  V30 15466 C 1484.94 1.538 -1.75692 0
M  V30 15467 C 1485.92 1.5891 -0.606759 0
M  V30 15468 O 1487.11 1.74635 -0.849492 0
M  V30 15469 C 1484.24 2.91877 -1.88215 0
M  V30 15470 C 1483.19 3.01628 -3.03652 0
M  V30 15471 C 1482.52 4.41687 -3.01358 0
M  V30 15472 C 1483.82 2.75691 -4.43612 0
M  V30 15473 H 1485.51 1.33737 -2.67871 0
M  V30 15474 H 1483.06 0.641936 -1.289 0
M  V30 15475 H 1485.01 3.68851 -2.03781 0
M  V30 15476 H 1483.74 3.13173 -0.926847 0
M  V30 15477 H 1482.39 2.27094 -2.87791 0
M  V30 15478 H 1482.04 4.5995 -2.03605 0
M  V30 15479 H 1481.74 4.49141 -3.78875 0
M  V30 15480 H 1483.27 5.20634 -3.19018 0
M  V30 15481 H 1484.68 3.42398 -4.59822 0
M  V30 15482 H 1483.08 2.94554 -5.22836 0
M  V30 15483 H 1484.15 1.71297 -4.53636 0
M  V30 15484 O 1485.53 1.50614 0.582893 0
M  V30 15485 H 1486.22 1.48988 1.23784 0
M  V30 END ATOM
M  V30 BEGIN BOND
M  V30 END BOND
M  V30 END CTAB
M  END
$$$$
