drugbank_target|P29395 50S ribosomal protein L11 (DB02566; DB02940)
 OpenBabel12092120513D

  0  0  0     0  0            999 V3000
M  V30 BEGIN CTAB
M  V30 COUNTS 2193 2209 0 0 0
M  V30 BEGIN ATOM
M  V30 1 H -0.908 1.98254 -0.117106 0
M  V30 2 N 0 1.576 0 0
M  V30 3 C 0.933 2.03868 1.02534 0
M  V30 4 C 1.911 0.928543 1.3348 0
M  V30 5 O 3.095 1.19667 1.45644 0
M  V30 6 C 0.222 2.43627 2.35294 0
M  V30 7 C -0.732 3.65373 2.2001 0
M  V30 8 S 0.101 5.13292 1.52614 0
M  V30 9 C 1.257 5.56322 2.86805 0
M  V30 10 H 1.49 2.90518 0.631377 0
M  V30 11 H -0.977 1.52953 0.210867 0
M  V30 12 H 0.981 2.67203 3.11629 0
M  V30 13 H -0.358 1.57376 2.7183 0
M  V30 14 H -1.165 3.90944 3.18086 0
M  V30 15 H -1.563 3.418 1.51819 0
M  V30 16 H 0.729 5.58782 3.83104 0
M  V30 17 H 1.672 6.56266 2.65933 0
M  V30 18 H 2.08 4.83886 2.90714 0
M  V30 19 N 1.4781 -0.272755 1.55222 0
M  V30 20 C 2.4411 -1.32041 1.87344 0
M  V30 21 C 3.4411 -1.42342 0.74803 0
M  V30 22 O 4.6311 -1.41488 1.0162 0
M  V30 23 C 1.7631 -2.70173 2.07893 0
M  V30 24 H 2.9561 -1.04789 2.80997 0
M  V30 25 H 0.5091 -0.51083 1.47717 0
M  V30 26 H 1.2441 -3.02605 1.16622 0
M  V30 27 H 1.0291 -2.64082 2.89833 0
M  V30 28 H 2.5191 -3.45869 2.34017 0
M  V30 29 N 2.9562 -1.48159 -0.537278 0
M  V30 30 C 3.9032 -1.62138 -1.64256 0
M  V30 31 C 4.8732 -0.463668 -1.59497 0
M  V30 32 O 6.0582 -0.686241 -1.78032 0
M  V30 33 C 3.1982 -1.66028 -3.02537 0
M  V30 34 C 2.3112 -2.92855 -3.17585 0
M  V30 35 C 1.4462 -2.87952 -4.46382 0
M  V30 36 C 0.4852 -4.09516 -4.54932 0
M  V30 37 N -0.3778 -4.02733 -5.75109 0
M  V30 38 H 4.4622 -2.56529 -1.51647 0
M  V30 39 H 1.9992 -1.27224 -0.738414 0
M  V30 40 H 3.9572 -1.66265 -3.82638 0
M  V30 41 H 2.5872 -0.751331 -3.13934 0
M  V30 42 H 1.6392 -3.02395 -2.30784 0
M  V30 43 H 2.9512 -3.82822 -3.19764 0
M  V30 44 H 2.1052 -2.8655 -5.34765 0
M  V30 45 H 0.8442 -1.95702 -4.46712 0
M  V30 46 H -0.1508 -4.11201 -3.64957 0
M  V30 47 H 1.0742 -5.02917 -4.56346 0
M  V30 48 H -0.9798 -3.13299 -5.76351 0
M  V30 49 H -1.0628 -4.86397 -5.78752 0
M  V30 50 H 0.2052 -4.05379 -6.65799 0
M  V30 51 N 4.4343 0.785586 -1.36625 0
M  V30 52 C 5.3813 1.89838 -1.31264 0
M  V30 53 C 6.3513 1.65115 -0.180633 0
M  V30 54 O 7.5363 1.87222 -0.36777 0
M  V30 55 C 4.6763 3.26706 -1.11163 0
M  V30 56 C 3.7893 3.63476 -2.33472 0
M  V30 57 C 2.9243 4.89481 -2.06353 0
M  V30 58 C 1.9633 5.18941 -3.24602 0
M  V30 59 N 1.1003 6.36131 -2.97123 0
M  V30 60 H 5.9403 1.93756 -2.26413 0
M  V30 61 H 3.4773 0.947454 -1.12524 0
M  V30 62 H 5.4353 4.05639 -0.975337 0
M  V30 63 H 4.0653 3.222 -0.196674 0
M  V30 64 H 3.1173 2.79636 -2.57891 0
M  V30 65 H 4.4293 3.81193 -3.21704 0
M  V30 66 H 3.5833 5.76288 -1.89675 0
M  V30 67 H 2.3223 4.73841 -1.15437 0
M  V30 68 H 1.3273 4.30615 -3.41834 0
M  V30 69 H 2.5523 5.36498 -4.16349 0
M  V30 70 H 0.4983 6.21875 -2.08823 0
M  V30 71 H 0.4153 6.54198 -3.78894 0
M  V30 72 H 1.6833 7.2591 -2.84033 0
M  V30 73 N 5.9124 1.20967 1.01018 0
M  V30 74 C 7.1584 1.02526 1.74975 0
M  V30 75 C 7.4914 -0.4408 1.89131 0
M  V30 76 O 6.7664 -1.32718 1.42184 0
M  V30 77 C 7.0494 1.71699 3.1653 0
M  V30 78 C 6.9024 3.25791 3.10129 0
M  V30 79 C 8.2214 1.45531 4.15342 0
M  V30 80 H 5.3404 0.373863 0.635134 0
M  V30 81 H 7.9824 1.49071 1.17805 0
M  V30 82 H 6.1324 1.32128 3.65341 0
M  V30 83 H 7.8044 3.74697 2.69072 0
M  V30 84 H 6.0474 3.56363 2.47362 0
M  V30 85 H 6.7184 3.69353 4.10222 0
M  V30 86 H 9.1944 1.79872 3.75213 0
M  V30 87 H 8.0704 1.96453 5.1254 0
M  V30 88 H 8.3314 0.384237 4.40427 0
M  V30 89 N 7.3905 -1.2043 1.01659 0
M  V30 90 C 8.3535 -2.21433 0.591616 0
M  V30 91 C 9.3535 -1.57203 -0.338226 0
M  V30 92 O 10.5435 -1.73737 -0.126918 0
M  V30 93 C 7.6755 -3.40628 -0.136058 0
M  V30 94 H 8.8685 -2.60545 1.48514 0
M  V30 95 H 6.4215 -1.33893 0.806379 0
M  V30 96 H 7.1565 -3.07019 -1.04449 0
M  V30 97 H 6.9415 -3.88475 0.531917 0
M  V30 98 H 8.4315 -4.15475 -0.420735 0
M  V30 99 N 8.8686 -0.792821 -1.36206 0
M  V30 100 C 9.8316 -0.199459 -2.2833 0
M  V30 101 C 10.8316 0.605189 -1.48977 0
M  V30 102 O 12.0216 0.425685 -1.68919 0
M  V30 103 C 9.1536 0.723523 -3.33134 0
M  V30 104 H 10.3466 -1.01181 -2.82316 0
M  V30 105 H 7.8996 -0.562485 -1.45828 0
M  V30 106 H 8.6346 1.56008 -2.84309 0
M  V30 107 H 8.4196 0.148436 -3.91819 0
M  V30 108 H 9.9096 1.13344 -4.01924 0
M  V30 109 N 10.3467 1.47872 -0.545128 0
M  V30 110 C 11.2787 2.27869 0.246621 0
M  V30 111 C 12.2917 1.36282 0.890561 0
M  V30 112 O 13.4807 1.61207 0.766449 0
M  V30 113 C 10.5807 3.10159 1.36582 0
M  V30 114 C 9.7537 4.29627 0.820954 0
M  V30 115 C 8.8127 4.93607 1.82314 0
M  V30 116 O 7.8387 5.52366 1.37406 0
M  V30 117 N 9.0407 4.87211 3.15603 0
M  V30 118 H 11.8057 2.96459 -0.439539 0
M  V30 119 H 9.3667 1.57367 -0.380421 0
M  V30 120 H 11.3587 3.49829 2.03474 0
M  V30 121 H 9.9287 2.43891 1.9554 0
M  V30 122 H 9.1487 3.94192 -0.0244032 0
M  V30 123 H 10.4367 5.06928 0.436063 0
M  V30 124 H 9.8347 4.40651 3.54744 0
M  V30 125 H 8.3917 5.30937 3.78087 0
M  V30 126 N 11.8248 0.280983 1.55075 0
M  V30 127 C 13.0738 -0.334784 1.98902 0
M  V30 128 C 13.3868 -1.56534 1.17288 0
M  V30 129 O 14.5928 -2.25443 1.51287 0
M  V30 130 C 13.0488 -0.646994 3.54037 0
M  V30 131 C 12.6568 0.564085 4.44435 0
M  V30 132 C 14.4008 -1.22506 4.06439 0
M  V30 133 C 12.3078 0.226137 5.90967 0
M  V30 134 H 11.2378 -0.128866 0.742906 0
M  V30 135 H 13.8888 0.386556 1.79382 0
M  V30 136 H 12.2708 -1.42739 3.6938 0
M  V30 137 H 13.4448 1.34082 4.40861 0
M  V30 138 H 11.7598 1.0594 4.02698 0
M  V30 139 H 14.3568 -1.49182 5.13468 0
M  V30 140 H 14.6998 -2.16085 3.55827 0
M  V30 141 H 15.2328 -0.50682 3.94558 0
M  V30 142 H 11.9718 1.12996 6.45687 0
M  V30 143 H 11.4918 -0.513717 5.97596 0
M  V30 144 H 13.1708 -0.179539 6.46751 0
M  V30 145 N 13.3029 -1.57598 0.00835791 0
M  V30 146 C 14.2499 -2.08945 -0.980346 0
M  V30 147 C 15.2199 -0.986738 -1.33614 0
M  V30 148 O 16.4049 -1.25968 -1.43306 0
M  V30 149 C 13.5449 -2.60425 -2.26435 0
M  V30 150 C 12.6579 -3.84628 -1.96685 0
M  V30 151 C 11.7929 -4.24579 -3.19228 0
M  V30 152 C 10.8319 -5.41596 -2.85202 0
M  V30 153 N 9.9689 -5.768 -4.00307 0
M  V30 154 H 14.8089 -2.93148 -0.535551 0
M  V30 155 H 12.3459 -1.44912 -0.252776 0
M  V30 156 H 14.3039 -2.88354 -3.01509 0
M  V30 157 H 12.9339 -1.79083 -2.68568 0
M  V30 158 H 11.9859 -3.63556 -1.11942 0
M  V30 159 H 13.2979 -4.69796 -1.67611 0
M  V30 160 H 12.4519 -4.53834 -4.02641 0
M  V30 161 H 11.1909 -3.38137 -3.51447 0
M  V30 162 H 10.1959 -5.12056 -2.00198 0
M  V30 163 H 11.4209 -6.29721 -2.54222 0
M  V30 164 H 9.3669 -4.93316 -4.32407 0
M  V30 165 H 9.2839 -6.5656 -3.74786 0
M  V30 166 H 10.5519 -6.10652 -4.84484 0
M  V30 167 N 14.781 0.264519 -1.55364 0
M  V30 168 C 15.711 1.33121 -1.91836 0
M  V30 169 C 16.692 1.51101 -0.781192 0
M  V30 170 O 17.877 1.64003 -1.04003 0
M  V30 171 C 15.007 2.68921 -2.19769 0
M  V30 172 C 13.961 2.65661 -3.35571 0
M  V30 173 C 13.287 4.05093 -3.49004 0
M  V30 174 C 14.587 2.24187 -4.71739 0
M  V30 175 H 16.281 1.02844 -2.81182 0
M  V30 176 H 13.827 0.493286 -1.35287 0
M  V30 177 H 15.78 3.43663 -2.43872 0
M  V30 178 H 14.504 3.00799 -1.27231 0
M  V30 179 H 13.163 1.93377 -3.1145 0
M  V30 180 H 12.811 4.34206 -2.53917 0
M  V30 181 H 12.511 4.03804 -4.26868 0
M  V30 182 H 14.035 4.81561 -3.75408 0
M  V30 183 H 15.449 2.88654 -4.9533 0
M  V30 184 H 13.846 2.34044 -5.52579 0
M  V30 185 H 14.916 1.19327 -4.69988 0
M  V30 186 N 16.2591 1.48442 0.529413 0
M  V30 187 C 17.1911 1.59095 1.64989 0
M  V30 188 C 18.2041 0.475212 1.5571 0
M  V30 189 O 19.3931 0.746081 1.6216 0
M  V30 190 C 16.4931 1.50518 3.0364 0
M  V30 191 C 15.6661 2.77142 3.38395 0
M  V30 192 C 14.7251 2.62012 4.56329 0
M  V30 193 O 13.7511 3.35898 4.59522 0
M  V30 194 N 14.9531 1.71667 5.54536 0
M  V30 195 H 17.7181 2.55723 1.56287 0
M  V30 196 H 15.2791 1.45173 0.716697 0
M  V30 197 H 17.2711 1.38091 3.80412 0
M  V30 198 H 15.8411 0.618627 3.06418 0
M  V30 199 H 15.0611 3.0413 2.50796 0
M  V30 200 H 16.3491 3.61146 3.58401 0
M  V30 201 H 15.7471 1.10841 5.54735 0
M  V30 202 H 14.3041 1.65178 6.30523 0
M  V30 203 N 17.7372 -0.778329 1.37039 0
M  V30 204 C 18.6672 -1.90546 1.34962 0
M  V30 205 C 19.6482 -1.68681 0.219274 0
M  V30 206 O 20.8332 -1.89634 0.418624 0
M  V30 207 C 17.9632 -3.27734 1.14925 0
M  V30 208 C 16.9172 -3.64147 2.24902 0
M  V30 209 C 16.2432 -4.99806 1.89996 0
M  V30 210 C 17.5432 -3.71579 3.67051 0
M  V30 211 H 19.2372 -1.92541 2.29277 0
M  V30 212 H 16.7832 -0.924948 1.10366 0
M  V30 213 H 18.7362 -4.06215 1.12104 0
M  V30 214 H 17.4602 -3.26154 0.170631 0
M  V30 215 H 16.1192 -2.8797 2.26868 0
M  V30 216 H 15.7672 -4.94759 0.906796 0
M  V30 217 H 15.4672 -5.25139 2.63634 0
M  V30 218 H 16.9912 -5.80694 1.88749 0
M  V30 219 H 18.4052 -4.40227 3.67251 0
M  V30 220 H 16.8022 -4.08405 4.39688 0
M  V30 221 H 17.8722 -2.72404 4.01154 0
M  V30 222 N 19.2153 -1.21501 -1.00376 0
M  V30 223 C 20.6263 -1.03146 -1.55621 0
M  V30 224 C 20.9773 0.408375 -1.91903 0
M  V30 225 O 20.1023 1.29177 -1.73616 0
M  V30 226 C 20.6973 -1.86612 -2.82775 0
M  V30 227 C 19.2563 -1.72586 -3.34501 0
M  V30 228 C 18.4033 -1.83747 -2.07683 0
M  V30 229 H 21.3543 -1.35505 -0.826081 0
M  V30 230 H 21.3753 -1.3771 -3.54706 0
M  V30 231 H 20.8873 -2.91399 -2.56336 0
M  V30 232 H 18.9883 -0.704877 -3.65872 0
M  V30 233 H 19.1013 -2.54623 -4.05837 0
M  V30 234 H 17.4653 -1.27069 -2.20739 0
M  V30 235 H 18.2483 -2.90044 -1.83655 0
M  V30 236 N 20.6934 1.19889 -1.02296 0
M  V30 237 C 21.6564 2.21116 -0.603351 0
M  V30 238 C 22.6564 1.5738 0.329884 0
M  V30 239 O 23.8464 1.73802 0.117702 0
M  V30 240 C 20.9784 3.40696 0.117992 0
M  V30 241 H 22.1714 2.59754 -1.49893 0
M  V30 242 H 19.7244 1.33463 -0.813468 0
M  V30 243 H 20.4594 3.07569 1.0282 0
M  V30 244 H 20.2444 3.88188 -0.552511 0
M  V30 245 H 21.7344 4.15692 0.398696 0
M  V30 246 N 22.1715 0.800033 1.35784 0
M  V30 247 C 23.4195 0.376597 1.9856 0
M  V30 248 C 23.7405 -1.05812 1.63795 0
M  V30 249 O 23.0105 -1.73103 0.917171 0
M  V30 250 H 21.5905 0.136261 0.734467 0
M  V30 251 H 24.2525 1.02442 1.65806 0
M  V30 252 H 23.3485 0.477002 3.08433 0
M  V30 253 N 23.6496 -1.47581 0.552962 0
M  V30 254 C 24.5966 -2.29957 -0.197108 0
M  V30 255 C 25.5666 -1.38799 -0.912359 0
M  V30 256 O 26.7516 -1.67761 -0.908888 0
M  V30 257 C 23.8916 -3.22672 -1.22379 0
M  V30 258 C 23.0046 -4.28919 -0.515038 0
M  V30 259 C 22.1396 -5.0879 -1.52664 0
M  V30 260 C 21.1786 -6.06815 -0.802631 0
M  V30 261 N 20.3156 -6.7966 -1.76086 0
M  V30 262 H 25.1556 -2.93578 0.511486 0
M  V30 263 H 22.6926 -1.4471 0.264067 0
M  V30 264 H 24.6506 -3.74845 -1.83159 0
M  V30 265 H 23.2806 -2.60925 -1.90047 0
M  V30 266 H 22.3326 -3.79835 0.207192 0
M  V30 267 H 23.6446 -4.98773 0.0523425 0
M  V30 268 H 22.7986 -5.65091 -2.20809 0
M  V30 269 H 21.5376 -4.38828 -2.12794 0
M  V30 270 H 20.5426 -5.49695 -0.107238 0
M  V30 271 H 21.7676 -6.78784 -0.207135 0
M  V30 272 H 19.7136 -6.12432 -2.35081 0
M  V30 273 H 19.6306 -7.45669 -1.24552 0
M  V30 274 H 20.8986 -7.40538 -2.43359 0
M  V30 275 N 25.1277 -0.289203 -1.54924 0
M  V30 276 C 26.0907 0.579144 -2.21762 0
M  V30 277 C 27.0907 1.07047 -1.1999 0
M  V30 278 O 28.2807 0.968384 -1.44803 0
M  V30 279 C 25.4127 1.80055 -2.8947 0
M  V30 280 H 26.6057 -0.00464908 -2.999 0
M  V30 281 H 24.1587 -0.0399306 -1.56249 0
M  V30 282 H 24.8937 2.42449 -2.15381 0
M  V30 283 H 24.6787 1.45602 -3.64064 0
M  V30 284 H 26.1687 2.41773 -3.40493 0
M  V30 285 N 26.6058 1.57591 -0.0167156 0
M  V30 286 C 27.8338 1.95575 0.675128 0
M  V30 287 C 28.2488 0.892542 1.6637 0
M  V30 288 O 27.6058 -0.126912 1.82058 0
M  V30 289 C 27.6568 3.33608 1.39239 0
M  V30 290 O 27.3778 4.3585 0.443444 0
M  V30 291 C 28.8788 3.86151 2.17721 0
M  V30 292 H 26.0988 0.644423 0.186978 0
M  V30 293 H 28.6428 2.0437 -0.0728 0
M  V30 294 H 26.7978 3.2607 2.09182 0
M  V30 295 H 27.2118 5.158 0.951358 0
M  V30 296 H 28.6858 4.85114 2.63379 0
M  V30 297 H 29.1628 3.19738 3.01105 0
M  V30 298 H 29.7688 3.96918 1.52761 0
M  V30 299 N 28.0839 -0.256276 1.55502 0
M  V30 300 C 29.4949 -0.826068 1.67431 0
M  V30 301 C 29.8459 -1.86396 0.612446 0
M  V30 302 O 28.9709 -2.15031 -0.243025 0
M  V30 303 C 29.5659 -1.50512 3.03532 0
M  V30 304 C 28.1249 -2.02273 3.17431 0
M  V30 305 C 27.2719 -0.870548 2.63281 0
M  V30 306 H 30.2229 -0.0322728 1.58667 0
M  V30 307 H 30.2439 -2.37279 2.97454 0
M  V30 308 H 29.7559 -0.749484 3.80794 0
M  V30 309 H 27.8569 -2.80746 2.44974 0
M  V30 310 H 27.9699 -2.22655 4.24219 0
M  V30 311 H 26.3339 -1.26851 2.20864 0
M  V30 312 H 27.1169 -0.128149 3.43061 0
M  V30 313 N 29.562 -1.4872 -0.521534 0
M  V30 314 C 30.525 -1.63379 -1.60748 0
M  V30 315 C 31.525 -0.50661 -1.52611 0
M  V30 316 O 32.715 -0.772601 -1.5613 0
M  V30 317 C 29.847 -1.61192 -3.00383 0
M  V30 318 H 31.04 -2.60217 -1.49087 0
M  V30 319 H 28.593 -1.37444 -0.744235 0
M  V30 320 H 29.328 -0.65863 -3.17541 0
M  V30 321 H 29.113 -2.43032 -3.07698 0
M  V30 322 H 30.603 -1.7466 -3.7932 0
M  V30 323 N 31.0401 0.771051 -1.3745 0
M  V30 324 C 32.4511 1.34737 -1.29239 0
M  V30 325 C 32.8021 1.96109 0.0596908 0
M  V30 326 O 31.9271 1.93865 0.961534 0
M  V30 327 C 32.5221 2.44973 -2.34037 0
M  V30 328 C 31.0811 2.98372 -2.29458 0
M  V30 329 C 30.2281 1.71595 -2.17831 0
M  V30 330 H 33.1791 0.571256 -1.48062 0
M  V30 331 H 33.2001 3.24471 -1.98744 0
M  V30 332 H 32.7121 2.00276 -3.32432 0
M  V30 333 H 30.8131 3.47443 -1.34589 0
M  V30 334 H 30.9261 3.53939 -3.229 0
M  V30 335 H 29.2901 1.94547 -1.64388 0
M  V30 336 H 30.0731 1.29001 -3.18141 0
M  V30 337 N 32.5182 1.22032 0.997298 0
M  V30 338 C 33.9292 1.0397 1.55071 0
M  V30 339 C 34.2802 -0.398192 1.92117 0
M  V30 340 O 33.4052 -1.28254 1.74298 0
M  V30 341 C 34.0002 1.88109 2.81781 0
M  V30 342 C 32.5592 1.74357 3.33581 0
M  V30 343 C 31.7062 1.84846 2.06706 0
M  V30 344 H 34.6572 1.35941 0.818883 0
M  V30 345 H 34.6782 1.39589 3.53971 0
M  V30 346 H 34.1902 2.92754 2.54787 0
M  V30 347 H 32.2912 0.72427 3.65493 0
M  V30 348 H 32.4042 2.56772 4.04481 0
M  V30 349 H 30.7682 1.28238 2.20062 0
M  V30 350 H 31.5512 2.91014 1.82114 0
M  V30 351 N 33.9963 -1.19345 1.0293 0
M  V30 352 C 35.2423 -1.89318 0.727083 0
M  V30 353 C 35.5753 -1.79446 -0.742483 0
M  V30 354 O 34.8503 -1.1871 -1.54072 0
M  V30 355 C 35.1333 -3.40238 1.17942 0
M  V30 356 C 34.9863 -3.58979 2.71024 0
M  V30 357 C 36.3053 -4.33479 0.760548 0
M  V30 358 H 33.4243 -0.687475 0.265606 0
M  V30 359 H 36.0663 -1.40477 1.2793 0
M  V30 360 H 34.2163 -3.81964 0.709608 0
M  V30 361 H 35.8883 -3.26421 3.25955 0
M  V30 362 H 34.1313 -3.02018 3.11396 0
M  V30 363 H 34.8023 -4.64823 2.9773 0
M  V30 364 H 37.2783 -3.99469 1.16464 0
M  V30 365 H 36.1543 -5.37664 1.10493 0
M  V30 366 H 36.4153 -4.40813 -0.337063 0
M  V30 367 N 35.4744 -0.807222 -1.35358 0
M  V30 368 C 36.7224 -0.387122 -1.98358 0
M  V30 369 C 37.0434 1.04942 -1.64354 0
M  V30 370 O 36.3134 1.72615 -0.926339 0
M  V30 371 H 34.8934 -0.140154 -0.733734 0
M  V30 372 H 37.5554 -1.0332 -1.6526 0
M  V30 373 H 36.6514 -0.493352 -3.08176 0
M  V30 374 N 36.9525 1.47285 -0.560781 0
M  V30 375 C 38.3635 1.86258 -0.128343 0
M  V30 376 C 38.7145 1.46699 1.30284 0
M  V30 377 O 37.8395 0.871698 1.98067 0
M  V30 378 C 38.4345 3.38044 -0.22614 0
M  V30 379 C 36.9935 3.76096 0.151283 0
M  V30 380 C 36.1405 2.71335 -0.572084 0
M  V30 381 H 39.0915 1.38752 -0.770297 0
M  V30 382 H 39.1125 3.76441 0.554322 0
M  V30 383 H 38.6245 3.66806 -1.26788 0
M  V30 384 H 36.7255 3.52951 1.19399 0
M  V30 385 H 36.8385 4.78641 -0.209765 0
M  V30 386 H 35.2025 2.54696 -0.0147653 0
M  V30 387 H 35.9855 3.02938 -1.61504 0
M  V30 388 N 38.4306 0.297415 1.54768 0
M  V30 389 C 39.3936 -0.567375 2.22066 0
M  V30 390 C 40.3936 -1.06409 1.20556 0
M  V30 391 O 41.5836 -0.960691 1.45315 0
M  V30 392 C 38.7156 -1.78517 2.90421 0
M  V30 393 H 39.9086 0.0205534 2.99893 0
M  V30 394 H 37.4616 0.0482163 1.56226 0
M  V30 395 H 38.1966 -2.41303 2.16664 0
M  V30 396 H 37.9816 -1.43669 3.64831 0
M  V30 397 H 39.4716 -2.39964 3.41771 0
M  V30 398 N 39.9087 -1.5758 0.0250728 0
M  V30 399 C 40.8387 -2.13007 -0.956575 0
M  V30 400 C 41.8197 -1.0452 -1.342 0
M  V30 401 O 43.0047 -1.32332 -1.42133 0
M  V30 402 C 40.1347 -2.65386 -2.24026 0
M  V30 403 C 39.0887 -3.78623 -1.99571 0
M  V30 404 C 38.4147 -4.17414 -3.3417 0
M  V30 405 C 39.7147 -5.04867 -1.33814 0
M  V30 406 H 41.4087 -2.9528 -0.494991 0
M  V30 407 H 38.9547 -1.42042 -0.236651 0
M  V30 408 H 40.9077 -3.02794 -2.93076 0
M  V30 409 H 39.6317 -1.80268 -2.72343 0
M  V30 410 H 38.2907 -3.41646 -1.32941 0
M  V30 411 H 37.9387 -3.29284 -3.80238 0
M  V30 412 H 37.6387 -4.93719 -3.18615 0
M  V30 413 H 39.1627 -4.57402 -4.04495 0
M  V30 414 H 40.5767 -5.39888 -1.92857 0
M  V30 415 H 38.9737 -5.86144 -1.28669 0
M  V30 416 H 40.0437 -4.83904 -0.310561 0
M  V30 417 N 41.3868 0.248026 -1.55636 0
M  V30 418 C 42.6348 0.974295 -1.77065 0
M  V30 419 C 42.9558 1.85897 -0.588849 0
M  V30 420 O 42.2258 1.91868 0.395407 0
M  V30 421 H 40.8058 0.362733 -0.653019 0
M  V30 422 H 43.4678 0.266244 -1.93073 0
M  V30 423 H 42.5638 1.59667 -2.68166 0
M  V30 424 N 42.8649 1.48995 0.513639 0
M  V30 425 C 43.7969 1.60836 1.63293 0
M  V30 426 C 44.8099 0.491701 1.55197 0
M  V30 427 O 45.9989 0.763238 1.6136 0
M  V30 428 C 43.0989 1.53731 3.02027 0
M  V30 429 C 42.2719 2.80715 3.35437 0
M  V30 430 C 41.3309 2.66837 4.53525 0
M  V30 431 O 40.3569 3.40753 4.55934 0
M  V30 432 N 41.5589 1.77539 5.52684 0
M  V30 433 H 44.3239 2.57366 1.53566 0
M  V30 434 H 41.8849 1.45925 0.701259 0
M  V30 435 H 43.8769 1.42118 3.78926 0
M  V30 436 H 42.4469 0.651092 3.05744 0
M  V30 437 H 41.6669 3.06772 2.47557 0
M  V30 438 H 42.9549 3.64927 3.54551 0
M  V30 439 H 42.3529 1.16719 5.53528 0
M  V30 440 H 40.9099 1.71856 6.28736 0
M  V30 441 N 44.343 -0.763751 1.37857 0
M  V30 442 C 45.293 -1.86765 1.30777 0
M  V30 443 C 46.277 -1.59726 0.194015 0
M  V30 444 O 47.469 -1.7172 0.42911 0
M  V30 445 C 44.598 -3.24343 1.12502 0
M  V30 446 C 43.684 -3.57307 2.28456 0
M  V30 447 N 44.075 -3.61398 3.53871 0
M  V30 448 C 42.373 -3.87517 2.20786 0
M  V30 449 C 43.074 -3.91339 4.30382 0
M  V30 450 N 42.05 -4.07649 3.59615 0
M  V30 451 H 45.852 -1.88191 2.25746 0
M  V30 452 H 43.366 -0.9606 1.30944 0
M  V30 453 H 45.363 -4.03327 1.05514 0
M  V30 454 H 44.023 -3.24175 0.184574 0
M  V30 455 H 45.034 -3.43407 3.87675 0
M  V30 456 H 41.711 -3.95125 1.34844 0
M  V30 457 H 43.101 -4.01213 5.3896 0
M  V30 458 N 45.8211 -1.22559 -0.990812 0
M  V30 459 C 47.0691 -1.04933 -1.72724 0
M  V30 460 C 47.3901 0.416158 -1.90508 0
M  V30 461 O 46.6601 1.29918 -1.46622 0
M  V30 462 H 45.2401 -0.385296 -0.639965 0
M  V30 463 H 47.9021 -1.54105 -1.19322 0
M  V30 464 H 46.9981 -1.52886 -2.72089 0
M  V30 465 N 47.2992 1.18797 -1.03562 0
M  V30 466 C 48.5452 1.8893 -0.737113 0
M  V30 467 C 48.8782 1.79837 0.732956 0
M  V30 468 O 48.1532 1.19525 1.5344 0
M  V30 469 C 48.4362 3.39607 -1.19745 0
M  V30 470 C 48.2892 3.57537 -2.72924 0
M  V30 471 C 49.6082 4.33069 -0.783526 0
M  V30 472 H 46.7272 0.686057 -0.269249 0
M  V30 473 H 49.3692 1.39797 -1.28673 0
M  V30 474 H 47.5192 3.81583 -0.729855 0
M  V30 475 H 49.1912 3.24688 -3.27682 0
M  V30 476 H 47.4342 3.00363 -3.12993 0
M  V30 477 H 48.1052 4.63238 -3.00191 0
M  V30 478 H 50.5812 3.98846 -1.18581 0
M  V30 479 H 49.4572 5.3707 -1.13343 0
M  V30 480 H 49.7182 4.40986 0.313681 0
M  V30 481 N 48.7773 0.814389 1.34928 0
M  V30 482 C 49.7253 0.218424 2.31572 0
M  V30 483 C 50.7193 -0.636128 1.57002 0
M  V30 484 O 51.9253 -0.52842 1.72069 0
M  V30 485 H 48.3003 0.0518799 0.750208 0
M  V30 486 H 50.2713 1.04852 2.79372 0
M  V30 487 C 49.0203 -0.61207 3.4227 0
M  V30 488 H 48.3433 0.0361578 3.99784 0
M  V30 489 H 49.7833 -0.995317 4.12152 0
M  V30 490 C 48.2423 -1.78087 2.85984 0
M  V30 491 O 48.7723 -2.8787 2.80168 0
M  V30 492 N 46.9783 -1.59488 2.42924 0
M  V30 493 H 46.5253 -0.701874 2.47854 0
M  V30 494 H 46.4833 -2.37846 2.05613 0
M  V30 495 N 50.2554 -1.46986 0.568584 0
M  V30 496 C 51.5044 -2.01646 0.0465894 0
M  V30 497 C 51.8174 -1.44721 -1.31587 0
M  V30 498 O 53.0234 -1.91113 -1.92842 0
M  V30 499 C 51.4794 -3.59885 0.032752 0
M  V30 500 C 51.0874 -4.25804 1.39266 0
M  V30 501 C 52.8314 -4.22255 -0.436038 0
M  V30 502 C 50.7384 -5.76081 1.33732 0
M  V30 503 H 49.6684 -0.753876 0.013647 0
M  V30 504 H 52.3194 -1.68864 0.718131 0
M  V30 505 H 50.7014 -3.8968 -0.704669 0
M  V30 506 H 51.8754 -4.07637 2.1487 0
M  V30 507 H 50.1904 -3.7547 1.80032 0
M  V30 508 H 52.7874 -5.32394 -0.49602 0
M  V30 509 H 53.1304 -3.90212 -1.45053 0
M  V30 510 H 53.6634 -3.97033 0.246877 0
M  V30 511 H 50.4024 -6.12761 2.32817 0
M  V30 512 H 49.9224 -5.96553 0.623267 0
M  V30 513 H 51.6014 -6.38518 1.0442 0
M  V30 514 N 51.7335 -0.305618 -1.54608 0
M  V30 515 C 52.6665 0.610536 -2.19881 0
M  V30 516 C 53.6445 1.1294 -1.16976 0
M  V30 517 O 54.8285 1.19673 -1.45638 0
M  V30 518 C 51.9555 1.83583 -2.84631 0
M  V30 519 C 51.0015 1.4498 -4.01102 0
M  V30 520 S 51.8345 0.501793 -5.33144 0
M  V30 521 C 52.9905 1.73478 -6.01379 0
M  V30 522 H 53.2235 0.0560177 -2.97247 0
M  V30 523 H 50.7565 -0.0897434 -1.54139 0
M  V30 524 H 52.7145 2.53898 -3.22562 0
M  V30 525 H 51.3755 2.36152 -2.07102 0
M  V30 526 H 50.5685 2.36236 -4.45206 0
M  V30 527 H 50.1705 0.826553 -3.64752 0
M  V30 528 H 52.4625 2.67473 -6.22467 0
M  V30 529 H 53.4055 1.33622 -6.95378 0
M  V30 530 H 53.8135 1.9136 -5.31076 0
M  V30 531 N 53.2116 1.57565 -0.0334293 0
M  V30 532 C 54.1216 2.13943 0.962572 0
M  V30 533 C 55.1376 1.09276 1.35406 0
M  V30 534 O 56.3136 1.41355 1.4346 0
M  V30 535 C 53.3786 2.65887 2.22497 0
M  V30 536 C 52.4396 3.85286 1.8935 0
M  V30 537 C 51.6726 4.34743 3.09571 0
M  V30 538 O 51.8956 3.83352 4.22371 0
M  V30 539 O 50.8296 5.26538 2.91618 0
M  V30 540 H 54.6556 2.99333 0.513169 0
M  V30 541 H 52.2406 1.4822 0.18743 0
M  V30 542 H 54.1226 2.99346 2.96598 0
M  V30 543 H 52.7976 1.83578 2.6661 0
M  V30 544 H 51.7046 3.56746 1.1262 0
M  V30 545 H 53.0376 4.68771 1.5005 0
M  V30 546 N 54.6897 -0.239769 1.55765 0
M  V30 547 C 55.9367 -0.966801 1.7793 0
M  V30 548 C 56.2647 -1.85046 0.599015 0
M  V30 549 O 55.5197 -1.91197 -0.417395 0
M  V30 550 C 55.8187 -1.852 3.05672 0
M  V30 551 C 55.4847 -1.1231 4.36689 0
M  V30 552 C 54.1467 -0.921689 4.72291 0
M  V30 553 C 56.4987 -0.607019 5.17653 0
M  V30 554 C 53.8267 -0.191996 5.86386 0
M  V30 555 C 56.1787 0.109241 6.32506 0
M  V30 556 C 54.8427 0.322073 6.66723 0
M  V30 557 H 54.1127 -0.353778 0.651093 0
M  V30 558 H 56.7597 -0.23634 1.90036 0
M  V30 559 H 55.0647 -2.64975 2.8861 0
M  V30 560 H 56.7617 -2.41635 3.20021 0
M  V30 561 H 53.3517 -1.29004 4.08725 0
M  V30 562 H 57.5357 -0.750153 4.90598 0
M  V30 563 H 52.7917 -0.0166949 6.11398 0
M  V30 564 H 56.9657 0.516737 6.9448 0
M  V30 565 H 54.5927 0.88944 7.54979 0
M  V30 566 N 56.1678 -1.49265 -0.50573 0
M  V30 567 C 57.4078 -1.60128 -1.27038 0
M  V30 568 C 57.7718 -0.279557 -1.89954 0
M  V30 569 O 58.9728 -0.263329 -2.67507 0
M  V30 570 C 57.2438 -2.72507 -2.31246 0
M  V30 571 S 58.8028 -3.0329 -3.17113 0
M  V30 572 H 55.6208 -0.564863 -0.4318 0
M  V30 573 H 58.2228 -1.86902 -0.573397 0
M  V30 574 H 56.9268 -3.67068 -1.83546 0
M  V30 575 H 56.4578 -2.4771 -3.05619 0
M  V30 576 H 58.4728 -2.44448 -4.31809 0
M  V30 577 N 57.6459 0.756429 -1.3826 0
M  V30 578 C 58.5929 1.87011 -1.35261 0
M  V30 579 C 59.5629 1.64695 -0.215616 0
M  V30 580 O 60.7479 1.864 -0.407399 0
M  V30 581 C 57.8879 3.24275 -1.18068 0
M  V30 582 C 57.0009 3.58442 -2.41129 0
M  V30 583 C 56.1359 4.84994 -2.16689 0
M  V30 584 C 55.1749 5.11939 -3.35537 0
M  V30 585 N 54.3119 6.29685 -3.10549 0
M  V30 586 H 59.1519 1.8891 -2.30472 0
M  V30 587 H 56.6889 0.923373 -1.14509 0
M  V30 588 H 58.6469 4.03479 -1.06116 0
M  V30 589 H 57.2769 3.21711 -0.264973 0
M  V30 590 H 56.3289 2.74103 -2.63764 0
M  V30 591 H 57.6409 3.74283 -3.29717 0
M  V30 592 H 56.7949 5.72135 -2.01857 0
M  V30 593 H 55.5339 4.71286 -1.25462 0
M  V30 594 H 54.5389 4.23268 -3.50891 0
M  V30 595 H 55.7639 5.27546 -4.27635 0
M  V30 596 H 53.7099 6.17306 -2.21967 0
M  V30 597 H 53.6269 6.46014 -3.92686 0
M  V30 598 H 54.8949 7.19722 -2.99367 0
M  V30 599 N 59.124 1.23083 0.984299 0
M  V30 600 C 60.54 0.992637 1.24975 0
M  V30 601 C 60.74 -0.308618 1.99123 0
M  V30 602 O 59.796 -1.02905 2.30579 0
M  V30 603 C 61.109 2.19698 2.05312 0
M  V30 604 C 62.657 2.24147 2.18465 0
M  V30 605 C 63.132 3.44157 3.02192 0
M  V30 606 N 64.623 3.44372 3.09777 0
M  V30 607 C 65.358 4.33886 3.74874 0
M  V30 608 N 64.854 5.3363 4.41827 0
M  V30 609 N 66.647 4.21639 3.71721 0
M  V30 610 H 58.798 2.06731 0.487453 0
M  V30 611 H 61.061 0.906339 0.277944 0
M  V30 612 H 60.767 3.1411 1.58201 0
M  V30 613 H 60.641 2.20465 3.06064 0
M  V30 614 H 63.028 1.30277 2.64786 0
M  V30 615 H 63.109 2.27415 1.17115 0
M  V30 616 H 62.753 4.38332 2.56568 0
M  V30 617 H 62.683 3.3813 4.03702 0
M  V30 618 H 65.174 2.72201 2.62135 0
M  V30 619 H 65.487 5.98196 4.89266 0
M  V30 620 H 63.832 5.37534 4.40548 0
M  V30 621 H 67.023 3.42962 3.18582 0
M  V30 622 H 67.196 4.91604 4.22173 0
M  V30 623 N 60.6021 -1.18246 1.0419 0
M  V30 624 C 61.8491 -1.88257 0.746017 0
M  V30 625 C 62.1771 -1.80429 -0.726331 0
M  V30 626 O 61.4321 -1.2 -1.54591 0
M  V30 627 C 61.7311 -3.38082 1.15911 0
M  V30 628 C 61.3971 -3.66114 2.63195 0
M  V30 629 C 60.0591 -3.73474 3.03432 0
M  V30 630 C 62.4111 -3.78398 3.5842 0
M  V30 631 C 59.7391 -3.90599 4.37778 0
M  V30 632 C 62.0911 -3.97039 4.92487 0
M  V30 633 C 60.7551 -4.02635 5.32392 0
M  V30 634 H 60.0251 -0.688883 0.272987 0
M  V30 635 H 62.6721 -1.3995 1.30715 0
M  V30 636 H 60.9771 -3.88377 0.516806 0
M  V30 637 H 62.6741 -3.90596 0.907516 0
M  V30 638 H 59.2641 -3.61003 2.3103 0
M  V30 639 H 63.4481 -3.72042 3.28479 0
M  V30 640 H 58.7041 -3.93175 4.68213 0
M  V30 641 H 62.8781 -4.05486 5.66175 0
M  V30 642 H 60.5051 -4.15657 6.36501 0
M  V30 643 N 62.0802 -0.821533 -1.34494 0
M  V30 644 C 63.0282 -0.230702 -2.31453 0
M  V30 645 C 64.0222 0.627793 -1.57338 0
M  V30 646 O 65.2282 0.519288 -1.72347 0
M  V30 647 H 61.6032 -0.0558577 -0.749923 0
M  V30 648 H 63.5742 -1.06332 -2.78812 0
M  V30 649 C 62.3232 0.59391 -3.4259 0
M  V30 650 H 61.6462 -0.0573588 -3.99759 0
M  V30 651 H 63.0862 0.973446 -4.12674 0
M  V30 652 C 61.5452 1.76568 -2.86924 0
M  V30 653 O 62.0752 2.8638 -2.81691 0
M  V30 654 N 60.2812 1.58198 -2.43766 0
M  V30 655 H 59.8282 0.68872 -2.48222 0
M  V30 656 H 59.7862 2.36752 -2.06871 0
M  V30 657 N 63.5583 1.46682 -0.576371 0
M  V30 658 C 64.5213 2.28707 0.150239 0
M  V30 659 C 65.5213 1.38035 0.824794 0
M  V30 660 O 66.7113 1.60476 0.677719 0
M  V30 661 C 63.8433 3.18248 1.22192 0
M  V30 662 H 65.0363 2.94423 -0.570521 0
M  V30 663 H 62.5893 1.52688 -0.334078 0
M  V30 664 H 63.3243 2.57265 1.97447 0
M  V30 665 H 63.1093 3.85 0.742812 0
M  V30 666 H 64.5993 3.80001 1.73172 0
M  V30 667 N 65.0364 0.313813 1.54444 0
M  V30 668 C 65.9464 -0.565714 2.27677 0
M  V30 669 C 66.9624 -1.13754 1.31666 0
M  V30 670 O 68.1384 -1.15959 1.64668 0
M  V30 671 C 65.2034 -1.71528 3.01296 0
M  V30 672 C 64.2644 -1.17624 4.12872 0
M  V30 673 C 63.4974 -2.27102 4.8297 0
M  V30 674 O 63.7204 -3.47256 4.52514 0
M  V30 675 O 62.6544 -1.9307 5.70094 0
M  V30 676 H 66.4804 0.0287296 3.03686 0
M  V30 677 H 64.0654 0.0798312 1.49187 0
M  V30 678 H 65.9474 -2.38476 3.4743 0
M  V30 679 H 64.6224 -2.29608 2.2817 0
M  V30 680 H 63.5294 -0.472124 3.71109 0
M  V30 681 H 64.8624 -0.640695 4.88012 0
M  V30 682 N 66.5145 -1.57545 0.0417849 0
M  V30 683 C 67.7425 -1.96624 -0.643928 0
M  V30 684 C 68.1575 -0.918897 -1.64929 0
M  V30 685 O 67.5145 0.0979323 -1.82237 0
M  V30 686 C 67.5655 -3.35781 -1.33914 0
M  V30 687 O 67.2865 -4.365 -0.374048 0
M  V30 688 C 68.7875 -3.89566 -2.1155 0
M  V30 689 H 66.0075 -0.647316 -0.176702 0
M  V30 690 H 68.5515 -2.04229 0.105304 0
M  V30 691 H 66.7065 -3.29357 -2.03968 0
M  V30 692 H 67.1205 -5.17248 -0.869179 0
M  V30 693 H 68.5945 -4.89242 -2.55628 0
M  V30 694 H 69.0715 -3.24488 -2.9598 0
M  V30 695 H 69.6775 -3.99298 -1.46427 0
M  V30 696 N 67.9926 0.231505 -1.5589 0
M  V30 697 C 68.9556 1.27028 -1.90779 0
M  V30 698 C 69.9556 1.40308 -0.785507 0
M  V30 699 O 71.1456 1.38744 -1.05336 0
M  V30 700 C 68.2776 2.64566 -2.14983 0
M  V30 701 H 69.4706 0.973017 -2.83677 0
M  V30 702 H 67.0236 0.471486 -1.49019 0
M  V30 703 H 67.7586 2.99406 -1.24604 0
M  V30 704 H 67.5436 2.56305 -2.96732 0
M  V30 705 H 69.0336 3.39543 -2.43105 0
M  V30 706 N 69.4707 1.49531 0.497807 0
M  V30 707 C 70.7477 1.49682 1.25915 0
M  V30 708 C 71.1277 0.226339 2.09883 0
M  V30 709 O 70.4757 -0.791189 2.14365 0
M  V30 710 C 70.6857 2.77755 2.11313 0
M  V30 711 C 72.0337 3.27371 2.70395 0
M  V30 712 O 73.0577 2.78894 2.21578 0
M  V30 713 O 71.9167 4.11808 3.59272 0
M  V30 714 H 69.0107 0.599228 0.56996 0
M  V30 715 H 71.5567 1.61798 0.511816 0
M  V30 716 H 70.3287 3.61713 1.49264 0
M  V30 717 H 69.9517 2.68515 2.93233 0
M  V30 718 N 70.9488 -0.749086 1.3866 0
M  V30 719 C 71.8958 -1.86291 1.36251 0
M  V30 720 C 72.8658 -1.64578 0.224347 0
M  V30 721 O 74.0508 -1.86181 0.417279 0
M  V30 722 C 71.1908 -3.23644 1.19786 0
M  V30 723 C 70.3038 -3.57158 2.43027 0
M  V30 724 C 69.4388 -4.83838 2.19258 0
M  V30 725 C 68.4778 -5.10152 3.38247 0
M  V30 726 N 67.6148 -6.28029 3.13884 0
M  V30 727 H 72.4548 -1.87685 2.3147 0
M  V30 728 H 69.9918 -0.917287 1.14997 0
M  V30 729 H 71.9498 -4.0291 1.08254 0
M  V30 730 H 70.5798 -3.21566 0.282031 0
M  V30 731 H 69.6318 -2.72701 2.65214 0
M  V30 732 H 70.9438 -3.7253 3.31697 0
M  V30 733 H 70.0978 -5.71057 2.04888 0
M  V30 734 H 68.8368 -4.70614 1.2796 0
M  V30 735 H 67.8418 -4.21401 3.53131 0
M  V30 736 H 69.0668 -5.25271 4.30427 0
M  V30 737 H 67.0128 -6.1612 2.25238 0
M  V30 738 H 66.9298 -6.43922 3.96106 0
M  V30 739 H 68.1978 -7.18124 3.03179 0
M  V30 740 N 72.4269 -1.23603 -0.977757 0
M  V30 741 C 73.3899 -1.02069 -2.05218 0
M  V30 742 C 74.3899 0.0184305 -1.60789 0
M  V30 743 O 75.5799 -0.221569 -1.72785 0
M  V30 744 C 72.7119 -0.544926 -3.36517 0
M  V30 745 H 73.9049 -1.9742 -2.25755 0
M  V30 746 H 71.4579 -1.05684 -1.15155 0
M  V30 747 H 72.1929 0.412241 -3.21669 0
M  V30 748 H 71.9779 -1.2948 -3.70105 0
M  V30 749 H 73.4679 -0.414985 -4.15533 0
M  V30 750 N 73.905 1.17692 -1.04816 0
M  V30 751 C 75.153 1.87488 -0.754497 0
M  V30 752 C 75.474 1.81205 0.720407 0
M  V30 753 O 74.744 1.23544 1.52032 0
M  V30 754 H 73.324 0.694101 -0.276102 0
M  V30 755 H 75.986 1.42793 -1.32651 0
M  V30 756 H 75.082 2.93328 -1.06606 0
M  V30 757 N 75.3831 0.828654 1.34056 0
M  V30 758 C 76.3161 0.199763 2.27324 0
M  V30 759 C 77.2941 -0.647168 1.49166 0
M  V30 760 O 78.4781 -0.609661 1.78369 0
M  V30 761 C 75.6051 -0.720455 3.30949 0
M  V30 762 C 74.6511 0.0496888 4.26471 0
M  V30 763 S 75.4841 1.40072 5.16856 0
M  V30 764 C 76.6401 0.485527 6.24014 0
M  V30 765 H 76.8731 0.990478 2.80316 0
M  V30 766 H 74.4061 0.624857 1.41191 0
M  V30 767 H 76.3641 -1.24581 3.91139 0
M  V30 768 H 75.0251 -1.48474 2.76793 0
M  V30 769 H 74.2181 -0.650104 4.9979 0
M  V30 770 H 73.8201 0.505779 3.70564 0
M  V30 771 H 76.1121 -0.320672 6.76741 0
M  V30 772 H 77.0551 1.18856 6.98054 0
M  V30 773 H 77.4631 0.0714109 5.64455 0
M  V30 774 N 76.8612 -1.46375 0.584142 0
M  V30 775 C 78.1102 -2.01585 0.0679741 0
M  V30 776 C 78.4232 -1.46109 -1.30045 0
M  V30 777 O 79.6292 -1.93148 -1.90804 0
M  V30 778 C 78.0852 -3.5983 0.0709207 0
M  V30 779 C 77.6932 -4.24303 1.43775 0
M  V30 780 C 79.4372 -4.22693 -0.391228 0
M  V30 781 C 77.3442 -5.74631 1.39834 0
M  V30 782 H 76.2742 -0.753689 0.0216421 0
M  V30 783 H 78.9252 -1.68093 0.736001 0
M  V30 784 H 77.3072 -3.90405 -0.663299 0
M  V30 785 H 78.4812 -4.05335 2.19181 0
M  V30 786 H 76.7962 -3.73539 1.84004 0
M  V30 787 H 79.3932 -5.3289 -0.439524 0
M  V30 788 H 79.7362 -3.91728 -1.40906 0
M  V30 789 H 80.2692 -3.96749 0.288974 0
M  V30 790 H 77.0082 -6.10258 2.39303 0
M  V30 791 H 76.5282 -5.95858 0.686505 0
M  V30 792 H 78.2072 -6.37375 1.11187 0
M  V30 793 N 78.3393 -0.321999 -1.54275 0
M  V30 794 C 79.2693 0.537411 -2.27231 0
M  V30 795 C 80.2503 1.12064 -1.27968 0
M  V30 796 O 81.4353 1.14606 -1.56777 0
M  V30 797 C 78.5653 1.69919 -3.02894 0
M  V30 798 C 77.5193 1.24534 -4.09482 0
M  V30 799 C 76.8453 2.49394 -4.72977 0
M  V30 800 C 78.1453 0.361335 -5.21049 0
M  V30 801 H 79.8393 -0.0711406 -2.99315 0
M  V30 802 H 77.3853 -0.0356555 -1.43956 0
M  V30 803 H 79.3383 2.30668 -3.52662 0
M  V30 804 H 78.0623 2.33431 -2.28424 0
M  V30 805 H 76.7213 0.660782 -3.60596 0
M  V30 806 H 76.3693 3.11265 -3.95124 0
M  V30 807 H 76.0693 2.19718 -5.44975 0
M  V30 808 H 77.5933 3.10908 -5.25517 0
M  V30 809 H 79.0073 0.875072 -5.66582 0
M  V30 810 H 77.4043 0.157428 -5.99893 0
M  V30 811 H 78.4743 -0.60822 -4.8107 0
M  V30 812 N 79.8174 1.5752 -0.0501392 0
M  V30 813 C 81.2284 1.80271 0.485705 0
M  V30 814 C 81.5794 0.96228 1.70981 0
M  V30 815 O 80.7044 0.178578 2.15662 0
M  V30 816 C 81.2994 3.26957 0.887938 0
M  V30 817 C 79.8584 3.5063 1.36877 0
M  V30 818 C 79.0054 2.75165 0.343468 0
M  V30 819 H 81.9564 1.56281 -0.276028 0
M  V30 820 H 81.9774 3.37821 1.75093 0
M  V30 821 H 81.4894 3.881 -0.0031809 0
M  V30 822 H 79.5904 2.94766 2.27911 0
M  V30 823 H 79.7034 4.59343 1.36164 0
M  V30 824 H 78.0674 2.4127 0.816128 0
M  V30 825 H 78.8504 3.39034 -0.539548 0
M  V30 826 N 81.2955 -0.223234 1.56011 0
M  V30 827 C 82.5415 -0.949279 1.79211 0
M  V30 828 C 82.8745 -1.84054 0.619494 0
M  V30 829 O 82.1495 -1.90726 -0.381317 0
M  V30 830 C 82.4325 -1.78965 3.12479 0
M  V30 831 C 82.2855 -0.924997 4.40186 0
M  V30 832 C 83.6045 -2.76774 3.42175 0
M  V30 833 H 80.7235 -0.343676 0.651963 0
M  V30 834 H 83.3655 -0.218253 1.88742 0
M  V30 835 H 81.5155 -2.41291 3.04485 0
M  V30 836 H 83.1875 -0.318615 4.60198 0
M  V30 837 H 81.4305 -0.230344 4.33188 0
M  V30 838 H 82.1015 -1.54735 5.29869 0
M  V30 839 H 84.5775 -2.24584 3.50287 0
M  V30 840 H 83.4535 -3.32678 4.36597 0
M  V30 841 H 83.7145 -3.54429 2.64258 0
M  V30 842 N 82.7736 -1.49793 -0.48987 0
M  V30 843 C 84.0196 -1.60078 -1.24511 0
M  V30 844 C 84.3526 -0.291608 -1.91998 0
M  V30 845 O 83.6276 0.705647 -1.81248 0
M  V30 846 C 83.9106 -2.76791 -2.30345 0
M  V30 847 C 83.7636 -4.17535 -1.67286 0
M  V30 848 C 85.0826 -2.89111 -3.31817 0
M  V30 849 H 82.2016 -0.582645 -0.451324 0
M  V30 850 H 84.8436 -1.82117 -0.541612 0
M  V30 851 H 82.9936 -2.5813 -2.90346 0
M  V30 852 H 84.6656 -4.4774 -1.11026 0
M  V30 853 H 82.9086 -4.22665 -0.976577 0
M  V30 854 H 83.5796 -4.95094 -2.44103 0
M  V30 855 H 86.0556 -3.06133 -2.81819 0
M  V30 856 H 84.9316 -3.72433 -4.03219 0
M  V30 857 H 85.1926 -1.9893 -3.94815 0
M  V30 858 N 84.2517 0.741722 -1.39055 0
M  V30 859 C 85.5007 1.49656 -1.35225 0
M  V30 860 C 85.8137 1.95533 0.0512708 0
M  V30 861 O 87.0197 2.7067 0.212138 0
M  V30 862 C 85.4757 2.70389 -2.37525 0
M  V30 863 C 85.0837 2.31489 -3.83558 0
M  V30 864 C 86.8277 3.48236 -2.42759 0
M  V30 865 C 84.7347 3.48903 -4.77515 0
M  V30 866 H 83.6647 0.56197 -0.502699 0
M  V30 867 H 86.3157 0.809727 -1.64668 0
M  V30 868 H 84.6977 3.41113 -2.01142 0
M  V30 869 H 85.8717 1.68354 -4.28945 0
M  V30 870 H 84.1867 1.66749 -3.81554 0
M  V30 871 H 86.7837 4.35558 -3.1015 0
M  V30 872 H 87.1267 3.90229 -1.45008 0
M  V30 873 H 87.6597 2.84535 -2.78002 0
M  V30 874 H 84.3987 3.11966 -5.76504 0
M  V30 875 H 83.9187 4.11041 -4.36813 0
M  V30 876 H 85.5977 4.15328 -4.96096 0
M  V30 877 N 85.7298 1.2412 0.971189 0
M  V30 878 C 86.9578 1.10575 1.74874 0
M  V30 879 C 87.3728 -0.342017 1.85676 0
M  V30 880 O 86.7298 -1.23617 1.34258 0
M  V30 881 C 86.7808 1.73579 3.171 0
M  V30 882 O 86.5018 3.12695 3.06844 0
M  V30 883 C 88.0028 1.65598 4.11208 0
M  V30 884 H 85.2228 0.386504 0.548503 0
M  V30 885 H 87.7668 1.64156 1.21955 0
M  V30 886 H 85.9218 1.24009 3.67016 0
M  V30 887 H 86.3358 3.43412 3.96445 0
M  V30 888 H 87.8098 2.1437 5.08674 0
M  V30 889 H 88.2868 0.616532 4.34851 0
M  V30 890 H 88.8928 2.14578 3.67201 0
M  V30 891 N 87.2079 -1.17134 1.05439 0
M  V30 892 C 88.4539 -1.87733 0.767077 0
M  V30 893 C 88.7869 -1.8098 -0.704253 0
M  V30 894 O 88.0619 -1.21951 -1.5152 0
M  V30 895 C 88.3449 -3.37659 1.25133 0
M  V30 896 C 88.1979 -3.53149 2.78578 0
M  V30 897 C 89.5169 -4.31768 0.852324 0
M  V30 898 H 86.6359 -0.681687 0.280129 0
M  V30 899 H 89.2779 -1.37732 1.30881 0
M  V30 900 H 87.4279 -3.80373 0.790469 0
M  V30 901 H 89.0999 -3.19434 3.32806 0
M  V30 902 H 87.3429 -2.95345 3.17732 0
M  V30 903 H 88.0139 -4.58403 3.07523 0
M  V30 904 H 90.4899 -3.96909 1.24911 0
M  V30 905 H 89.3659 -5.35199 1.21873 0
M  V30 906 H 89.6269 -4.41429 -0.243485 0
M  V30 907 N 88.686 -0.835752 -1.33615 0
M  V30 908 C 89.916 -0.442701 -2.01801 0
M  V30 909 C 90.324 0.959807 -1.63047 0
M  V30 910 O 89.667 1.63468 -0.838088 0
M  V30 911 C 89.729 -0.480125 -3.56279 0
M  V30 912 C 89.393 -1.8382 -4.18401 0
M  V30 913 C 90.39 -2.80097 -4.37998 0
M  V30 914 C 88.075 -2.13019 -4.54894 0
M  V30 915 C 90.069 -4.03736 -4.9323 0
M  V30 916 C 87.756 -3.36916 -5.09834 0
M  V30 917 C 88.754 -4.32091 -5.28948 0
M  V30 918 O 88.442 -5.53797 -5.82721 0
M  V30 919 H 88.174 -0.17441 -0.653114 0
M  V30 920 H 90.728 -1.129 -1.71589 0
M  V30 921 H 88.958 0.262931 -3.85805 0
M  V30 922 H 90.647 -0.105335 -4.05763 0
M  V30 923 H 91.413 -2.58838 -4.10156 0
M  V30 924 H 87.292 -1.39733 -4.39313 0
M  V30 925 H 90.836 -4.78034 -5.08064 0
M  V30 926 H 86.733 -3.58033 -5.37106 0
M  V30 927 H 87.501 -5.55494 -6.0114 0
M  V30 928 N 90.1641 1.46063 -0.591896 0
M  V30 929 C 91.0741 2.34192 0.13831 0
M  V30 930 C 92.0901 1.50305 0.876608 0
M  V30 931 O 93.2661 1.8315 0.837728 0
M  V30 932 C 90.3311 3.27656 1.13326 0
M  V30 933 C 89.3921 4.27445 0.39863 0
M  V30 934 C 88.6251 5.16443 1.34618 0
M  V30 935 O 88.8481 5.08553 2.58321 0
M  V30 936 O 87.7821 5.95843 0.851768 0
M  V30 937 H 91.6081 2.98002 -0.58552 0
M  V30 938 H 89.1931 1.45188 -0.352239 0
M  V30 939 H 91.0751 3.85291 1.70671 0
M  V30 940 H 89.7501 2.6643 1.83839 0
M  V30 941 H 88.6571 3.73471 -0.216895 0
M  V30 942 H 89.9901 4.91482 -0.265709 0
M  V30 943 N 91.6422 0.330177 1.54103 0
M  V30 944 C 92.9192 -0.325007 1.92881 0
M  V30 945 C 93.2992 -1.6934 1.26045 0
M  V30 946 O 92.6472 -2.24855 0.406526 0
M  V30 947 C 92.8572 -0.410634 3.46576 0
M  V30 948 C 94.2052 -0.667801 4.19316 0
M  V30 949 O 95.2292 -0.49329 3.52768 0
M  V30 950 O 94.0882 -1.00491 5.37181 0
M  V30 951 H 91.1822 -0.186873 0.80561 0
M  V30 952 H 93.7282 0.380376 1.65382 0
M  V30 953 H 92.5002 0.550164 3.87413 0
M  V30 954 H 92.1232 -1.16333 3.802 0
M  V30 955 N 93.1203 -1.57491 0.0584922 0
M  V30 956 C 94.0673 -2.11958 -0.913376 0
M  V30 957 C 95.0373 -1.02875 -1.30407 0
M  V30 958 O 96.2223 -1.30464 -1.39226 0
M  V30 959 C 93.3623 -2.67497 -2.18035 0
M  V30 960 C 92.4753 -3.90691 -1.84349 0
M  V30 961 C 91.6103 -4.3452 -3.05559 0
M  V30 962 C 90.6493 -5.50395 -2.67827 0
M  V30 963 N 89.7863 -5.89244 -3.81754 0
M  V30 964 H 94.6263 -2.94704 -0.442017 0
M  V30 965 H 92.1633 -1.45643 -0.206545 0
M  V30 966 H 94.1213 -2.978 -2.92183 0
M  V30 967 H 92.7513 -1.87537 -2.62735 0
M  V30 968 H 91.8033 -3.66934 -1.00319 0
M  V30 969 H 93.1153 -4.7489 -1.5258 0
M  V30 970 H 92.2693 -4.66414 -3.87998 0
M  V30 971 H 91.0083 -3.49147 -3.40511 0
M  V30 972 H 90.0133 -5.18165 -1.83806 0
M  V30 973 H 91.2383 -6.3749 -2.34059 0
M  V30 974 H 89.1843 -5.06823 -4.16493 0
M  V30 975 H 89.1013 -6.68151 -3.53708 0
M  V30 976 H 90.3693 -6.25756 -4.64811 0
M  V30 977 N 94.5984 0.214957 -1.56127 0
M  V30 978 C 95.8234 0.95924 -1.83884 0
M  V30 979 C 96.2484 1.7689 -0.639644 0
M  V30 980 O 95.6064 1.76566 0.411601 0
M  V30 981 C 95.6544 1.84723 -3.09693 0
M  V30 982 O 94.7584 2.94346 -2.8885 0
M  V30 983 H 94.0994 0.27125 -0.606069 0
M  V30 984 H 96.6294 0.226276 -2.03345 0
M  V30 985 H 96.6394 2.25576 -3.39969 0
M  V30 986 H 95.3144 1.25218 -3.96602 0
M  V30 987 H 93.8914 2.57391 -2.69823 0
M  V30 988 N 96.0765 1.50051 0.48192 0
M  V30 989 C 97.3235 1.60498 1.23477 0
M  V30 990 C 97.6515 0.300331 1.92167 0
M  V30 991 O 96.9065 -0.713094 1.82246 0
M  V30 992 C 97.2055 2.72717 2.30998 0
M  V30 993 C 96.8715 4.13572 1.79636 0
M  V30 994 C 95.5335 4.519 1.65348 0
M  V30 995 C 97.8855 5.01649 1.41412 0
M  V30 996 C 95.2135 5.76057 1.11244 0
M  V30 997 C 97.5655 6.26343 0.887538 0
M  V30 998 C 96.2295 6.63483 0.731207 0
M  V30 999 H 95.4995 0.587303 0.451836 0
M  V30 1000 H 98.1465 1.83948 0.532468 0
M  V30 1001 H 96.4515 2.43312 3.07094 0
M  V30 1002 H 98.1485 2.78006 2.88988 0
M  V30 1003 H 94.7385 3.83329 1.91721 0
M  V30 1004 H 98.9225 4.72679 1.51289 0
M  V30 1005 H 94.1785 6.03516 0.978686 0
M  V30 1006 H 98.3525 6.93958 0.582654 0
M  V30 1007 H 95.9795 7.59568 0.309806 0
M  V30 1008 N 97.5546 -0.734337 1.39446 0
M  V30 1009 C 98.7826 -1.52358 1.39981 0
M  V30 1010 C 99.1976 -1.88799 -0.0054975 0
M  V30 1011 O 98.5546 -1.54146 -0.976998 0
M  V30 1012 C 98.6056 -2.81072 2.27333 0
M  V30 1013 O 98.3266 -2.46178 3.62392 0
M  V30 1014 C 99.8276 -3.75096 2.36259 0
M  V30 1015 H 97.0476 -0.470806 0.478103 0
M  V30 1016 H 99.5916 -0.907339 1.83269 0
M  V30 1017 H 97.7466 -3.39026 1.87457 0
M  V30 1018 H 98.1606 -3.28866 4.08592 0
M  V30 1019 H 99.6346 -4.62305 3.01626 0
M  V30 1020 H 100.112 -4.16892 1.38194 0
M  V30 1021 H 100.718 -3.23061 2.76608 0
M  V30 1022 N 99.0327 -1.24633 -0.964593 0
M  V30 1023 C 100.28 -1.08788 -1.70796 0
M  V30 1024 C 100.608 0.372783 -1.90894 0
M  V30 1025 O 99.8627 1.29167 -1.47018 0
M  V30 1026 C 100.162 -1.7763 -3.10133 0
M  V30 1027 C 99.8277 -3.27557 -3.09866 0
M  V30 1028 C 98.4897 -3.6846 -3.09501 0
M  V30 1029 C 100.842 -4.23389 -3.03959 0
M  V30 1030 C 98.1697 -5.03624 -3.00965 0
M  V30 1031 C 100.522 -5.58565 -2.96965 0
M  V30 1032 C 99.1857 -5.98809 -2.9493 0
M  V30 1033 H 98.4557 -0.398084 -0.624988 0
M  V30 1034 H 101.103 -1.54777 -1.12767 0
M  V30 1035 H 99.4077 -1.24044 -3.71645 0
M  V30 1036 H 101.105 -1.62832 -3.66451 0
M  V30 1037 H 97.6947 -2.95006 -3.10917 0
M  V30 1038 H 101.879 -3.92787 -3.03368 0
M  V30 1039 H 97.1347 -5.33998 -2.97752 0
M  V30 1040 H 101.309 -6.32523 -2.91354 0
M  V30 1041 H 98.9357 -7.03505 -2.88071 0
M  V30 1042 N 100.511 1.16574 -1.06058 0
M  V30 1043 C 101.76 1.86385 -0.770944 0
M  V30 1044 C 102.073 1.82448 0.705129 0
M  V30 1045 O 103.279 2.47815 1.10905 0
M  V30 1046 C 101.735 3.34466 -1.32893 0
M  V30 1047 C 101.343 3.46883 -2.83507 0
M  V30 1048 C 103.087 4.09548 -1.11672 0
M  V30 1049 C 100.994 4.89036 -3.32562 0
M  V30 1050 H 99.9238 0.698181 -0.284709 0
M  V30 1051 H 102.575 1.31583 -1.27899 0
M  V30 1052 H 100.957 3.88859 -0.748662 0
M  V30 1053 H 102.131 3.02663 -3.47465 0
M  V30 1054 H 100.446 2.85232 -3.03368 0
M  V30 1055 H 103.043 5.14434 -1.45814 0
M  V30 1056 H 103.386 4.16264 -0.0549535 0
M  V30 1057 H 103.919 3.61387 -1.66265 0
M  V30 1058 H 100.658 4.87499 -4.38207 0
M  V30 1059 H 100.178 5.3389 -2.73351 0
M  V30 1060 H 101.857 5.57843 -3.2775 0
M  V30 1061 N 101.989 0.842826 1.3317 0
M  V30 1062 C 103.238 0.436738 1.96915 0
M  V30 1063 C 103.551 -1.01025 1.67491 0
M  V30 1064 O 104.757 -1.5212 2.24881 0
M  V30 1065 C 103.213 0.730021 3.52418 0
M  V30 1066 C 102.821 2.19195 3.90714 0
M  V30 1067 C 104.565 0.391076 4.22695 0
M  V30 1068 C 102.472 2.42907 5.39212 0
M  V30 1069 H 101.402 0.15958 0.736919 0
M  V30 1070 H 104.053 1.03196 1.51733 0
M  V30 1071 H 102.435 0.0643755 3.95948 0
M  V30 1072 H 103.609 2.8984 3.58231 0
M  V30 1073 H 101.924 2.49425 3.33431 0
M  V30 1074 H 104.521 0.545817 5.31907 0
M  V30 1075 H 104.864 -0.666294 4.10933 0
M  V30 1076 H 105.397 1.01212 3.84709 0
M  V30 1077 H 102.136 3.47224 5.55982 0
M  V30 1078 H 101.656 1.76827 5.73142 0
M  V30 1079 H 103.335 2.2626 6.06148 0
M  V30 1080 N 103.467 -1.45747 0.599634 0
M  V30 1081 C 104.414 -2.30467 -0.123849 0
M  V30 1082 C 105.384 -1.41632 -0.86774 0
M  V30 1083 O 106.569 -1.70568 -0.855056 0
M  V30 1084 C 103.709 -3.26402 -1.12051 0
M  V30 1085 C 102.822 -4.3034 -0.37832 0
M  V30 1086 C 101.957 -5.13389 -1.364 0
M  V30 1087 C 100.996 -6.09061 -0.609171 0
M  V30 1088 N 100.133 -6.84918 -1.54374 0
M  V30 1089 H 104.973 -2.91802 0.604627 0
M  V30 1090 H 102.51 -1.43797 0.309972 0
M  V30 1091 H 104.468 -3.80482 -1.7114 0
M  V30 1092 H 103.098 -2.66839 -1.8165 0
M  V30 1093 H 102.15 -3.78984 0.327929 0
M  V30 1094 H 103.462 -4.98354 0.210997 0
M  V30 1095 H 102.616 -5.7183 -2.02719 0
M  V30 1096 H 101.355 -4.45376 -1.98725 0
M  V30 1097 H 100.36 -5.49758 0.0676979 0
M  V30 1098 H 101.585 -6.79099 0.00891991 0
M  V30 1099 H 99.531 -6.19601 -2.15478 0
M  V30 1100 H 99.448 -7.49254 -1.00766 0
M  V30 1101 H 100.716 -7.47906 -2.19676 0
M  V30 1102 N 104.945 -0.338344 -1.53925 0
M  V30 1103 C 106.173 0.261298 -2.05243 0
M  V30 1104 C 106.588 1.44625 -1.21363 0
M  V30 1105 O 105.945 1.80811 -0.247736 0
M  V30 1106 C 105.996 0.681412 -3.5502 0
M  V30 1107 O 105.717 -0.456414 -4.35716 0
M  V30 1108 C 107.218 1.34232 -4.22489 0
M  V30 1109 H 104.438 0.0513685 -0.669031 0
M  V30 1110 H 106.982 -0.488822 -1.98572 0
M  V30 1111 H 105.137 1.38148 -3.61931 0
M  V30 1112 H 105.551 -0.122564 -5.24357 0
M  V30 1113 H 107.025 1.58708 -5.28693 0
M  V30 1114 H 107.502 2.29426 -3.74514 0
M  V30 1115 H 108.108 0.684424 -4.19757 0
M  V30 1116 N 106.423 1.57458 -0.0668435 0
M  V30 1117 C 107.834 1.80776 0.466558 0
M  V30 1118 C 108.185 0.980361 1.69951 0
M  V30 1119 O 107.31 0.201441 2.1546 0
M  V30 1120 C 107.905 3.27881 0.85321 0
M  V30 1121 C 106.464 3.52062 1.3315 0
M  V30 1122 C 105.611 2.75513 0.314264 0
M  V30 1123 H 108.562 1.5598 -0.292588 0
M  V30 1124 H 108.583 3.39659 1.715 0
M  V30 1125 H 108.095 3.88075 -0.0443439 0
M  V30 1126 H 106.196 2.97167 2.24772 0
M  V30 1127 H 106.309 4.60762 1.31285 0
M  V30 1128 H 104.673 2.42123 0.790492 0
M  V30 1129 H 105.456 3.38442 -0.575477 0
M  V30 1130 N 107.901 -0.206675 1.56239 0
M  V30 1131 C 109.312 -0.772383 1.69974 0
M  V30 1132 C 109.663 -1.84353 0.671436 0
M  V30 1133 O 108.788 -2.15695 -0.174491 0
M  V30 1134 C 109.383 -1.40779 3.08167 0
M  V30 1135 C 107.942 -1.92072 3.23706 0
M  V30 1136 C 107.089 -0.786347 2.65917 0
M  V30 1137 H 110.04 0.0182223 1.5869 0
M  V30 1138 H 110.061 -2.27696 3.04852 0
M  V30 1139 H 109.573 -0.627958 3.82986 0
M  V30 1140 H 107.674 -2.7281 2.53782 0
M  V30 1141 H 107.787 -2.09046 4.31087 0
M  V30 1142 H 106.151 -1.1976 2.24788 0
M  V30 1143 H 106.934 -0.0189416 3.43295 0
M  V30 1144 N 109.379 -1.50304 -0.473955 0
M  V30 1145 C 110.342 -1.6841 -1.55469 0
M  V30 1146 C 111.342 -0.554905 -1.50922 0
M  V30 1147 O 112.532 -0.821882 -1.53593 0
M  V30 1148 C 109.664 -1.70667 -2.95102 0
M  V30 1149 H 110.857 -2.64828 -1.40733 0
M  V30 1150 H 108.41 -1.39742 -0.700132 0
M  V30 1151 H 109.145 -0.75932 -3.15285 0
M  V30 1152 H 108.93 -2.52698 -2.9981 0
M  V30 1153 H 110.42 -1.8664 -3.73571 0
M  V30 1154 N 110.857 0.726932 -1.39834 0
M  V30 1155 C 112.082 1.52121 -1.40976 0
M  V30 1156 C 112.507 1.88098 -0.00826029 0
M  V30 1157 O 111.865 1.52479 0.980807 0
M  V30 1158 C 111.913 2.78021 -2.29644 0
M  V30 1159 O 111.017 3.74272 -1.73188 0
M  V30 1160 H 110.358 0.45908 -0.479731 0
M  V30 1161 H 112.888 0.896207 -1.83927 0
M  V30 1162 H 112.898 3.26671 -2.44438 0
M  V30 1163 H 111.573 2.51169 -3.31492 0
M  V30 1164 H 110.15 3.33073 -1.6768 0
M  V30 1165 N 112.336 1.25143 0.95797 0
M  V30 1166 C 113.583 1.09692 1.70217 0
M  V30 1167 C 113.911 -0.362654 1.91089 0
M  V30 1168 O 113.166 -1.28386 1.47701 0
M  V30 1169 C 113.465 1.79272 3.09187 0
M  V30 1170 C 113.131 3.29196 3.08125 0
M  V30 1171 C 111.793 3.70096 3.07543 0
M  V30 1172 C 114.145 4.24995 3.0171 0
M  V30 1173 C 111.473 5.05213 2.9829 0
M  V30 1174 C 113.825 5.60132 2.93999 0
M  V30 1175 C 112.489 6.00365 2.9175 0
M  V30 1176 H 111.759 0.401393 0.622868 0
M  V30 1177 H 114.406 1.55372 1.11945 0
M  V30 1178 H 112.711 1.26014 3.70982 0
M  V30 1179 H 114.408 1.64773 3.65583 0
M  V30 1180 H 110.998 2.96651 3.09348 0
M  V30 1181 H 115.182 3.9439 3.01281 0
M  V30 1182 H 110.438 5.35569 2.94916 0
M  V30 1183 H 114.612 6.3406 2.87996 0
M  V30 1184 H 112.239 7.05023 2.84336 0
M  V30 1185 N 113.814 -1.1601 1.06675 0
M  V30 1186 C 114.744 -2.22688 0.702307 0
M  V30 1187 C 115.725 -1.67306 -0.307032 0
M  V30 1188 O 116.91 -1.93352 -0.181305 0
M  V30 1189 C 114.04 -3.47178 0.092038 0
M  V30 1190 C 112.994 -4.15477 1.02777 0
M  V30 1191 C 112.32 -5.33963 0.28061 0
M  V30 1192 C 113.62 -4.66019 2.35846 0
M  V30 1193 H 115.314 -2.53429 1.59419 0
M  V30 1194 H 112.86 -1.21813 0.767961 0
M  V30 1195 H 114.813 -4.21037 -0.174814 0
M  V30 1196 H 113.537 -3.15749 -0.834877 0
M  V30 1197 H 112.196 -3.43549 1.27944 0
M  V30 1198 H 111.844 -4.98788 -0.649545 0
M  V30 1199 H 111.544 -5.806 0.904258 0
M  V30 1200 H 113.068 -6.10596 0.021396 0
M  V30 1201 H 114.482 -5.3144 2.15045 0
M  V30 1202 H 112.879 -5.23293 2.93743 0
M  V30 1203 H 113.949 -3.82023 2.98641 0
M  V30 1204 N 115.292 -0.849877 -1.32721 0
M  V30 1205 C 116.222 -0.306308 -2.31482 0
M  V30 1206 C 117.203 0.591952 -1.59468 0
M  V30 1207 O 118.388 0.513199 -1.87296 0
M  V30 1208 C 115.518 0.510204 -3.43532 0
M  V30 1209 C 114.472 -0.293209 -4.26994 0
M  V30 1210 C 113.798 0.647743 -5.30762 0
M  V30 1211 C 115.098 -1.51634 -4.99804 0
M  V30 1212 H 116.792 -1.13153 -2.77195 0
M  V30 1213 H 114.338 -0.545553 -1.33266 0
M  V30 1214 H 116.291 0.900856 -4.11658 0
M  V30 1215 H 115.015 1.36874 -2.96535 0
M  V30 1216 H 113.674 -0.665555 -3.60508 0
M  V30 1217 H 113.322 1.50299 -4.8002 0
M  V30 1218 H 113.022 0.11422 -5.87489 0
M  V30 1219 H 114.546 1.03567 -6.01753 0
M  V30 1220 H 115.96 -1.19824 -5.60638 0
M  V30 1221 H 114.357 -1.98745 -5.66234 0
M  V30 1222 H 115.427 -2.28018 -4.27943 0
M  V30 1223 N 116.77 1.45427 -0.607355 0
M  V30 1224 C 117.717 2.3053 0.111625 0
M  V30 1225 C 118.687 1.4209 0.860216 0
M  V30 1226 O 119.872 1.71019 0.845998 0
M  V30 1227 C 117.012 3.26992 1.10319 0
M  V30 1228 C 116.125 4.30535 0.355493 0
M  V30 1229 C 115.26 5.14105 1.33676 0
M  V30 1230 C 114.299 6.09376 0.576862 0
M  V30 1231 N 113.436 6.85727 1.5074 0
M  V30 1232 H 118.276 2.91477 -0.620093 0
M  V30 1233 H 115.813 1.43631 -0.317594 0
M  V30 1234 H 117.771 3.81385 1.6912 0
M  V30 1235 H 116.401 2.67799 1.80232 0
M  V30 1236 H 115.453 3.78805 -0.348023 0
M  V30 1237 H 116.765 4.98235 -0.237423 0
M  V30 1238 H 115.919 5.72897 1.99684 0
M  V30 1239 H 114.658 4.46423 1.9636 0
M  V30 1240 H 113.663 5.49715 -0.0968519 0
M  V30 1241 H 114.888 6.79085 -0.0449341 0
M  V30 1242 H 112.834 6.20735 2.12189 0
M  V30 1243 H 112.751 7.49778 0.967913 0
M  V30 1244 H 114.019 7.4906 2.15706 0
M  V30 1245 N 118.248 0.346503 1.53744 0
M  V30 1246 C 119.195 -0.508914 2.25119 0
M  V30 1247 C 120.165 -1.09315 1.25058 0
M  V30 1248 O 121.35 -1.12921 1.53797 0
M  V30 1249 C 118.49 -1.65246 3.02965 0
M  V30 1250 C 117.603 -1.09525 4.17886 0
M  V30 1251 C 116.738 -2.20634 4.83212 0
M  V30 1252 C 115.777 -1.62279 5.90196 0
M  V30 1253 N 114.914 -2.67143 6.49291 0
M  V30 1254 H 119.754 0.106283 2.9781 0
M  V30 1255 H 117.291 0.0642227 1.4696 0
M  V30 1256 H 119.249 -2.32574 3.4636 0
M  V30 1257 H 117.879 -2.2386 2.32565 0
M  V30 1258 H 116.931 -0.312818 3.79112 0
M  V30 1259 H 118.243 -0.628444 4.94825 0
M  V30 1260 H 117.397 -2.95821 5.29693 0
M  V30 1261 H 116.136 -2.70659 4.05703 0
M  V30 1262 H 115.141 -0.855989 5.43096 0
M  V30 1263 H 116.366 -1.13102 6.69615 0
M  V30 1264 H 114.312 -3.16417 5.74645 0
M  V30 1265 H 114.229 -2.25093 7.21713 0
M  V30 1266 H 115.497 -3.4209 7.00425 0
M  V30 1267 N 119.726 -1.57421 0.075193 0
M  V30 1268 C 120.689 -2.11791 -0.876203 0
M  V30 1269 C 121.689 -1.04268 -1.22412 0
M  V30 1270 O 122.879 -1.30242 -1.15684 0
M  V30 1271 C 120.011 -2.62207 -2.17854 0
M  V30 1272 H 121.204 -2.9716 -0.40444 0
M  V30 1273 H 118.757 -1.55333 -0.173557 0
M  V30 1274 H 119.492 -1.803 -2.6956 0
M  V30 1275 H 119.277 -3.40802 -1.93897 0
M  V30 1276 H 120.767 -3.04335 -2.85955 0
M  V30 1277 N 121.204 0.198386 -1.56346 0
M  V30 1278 C 122.167 1.22952 -1.93431 0
M  V30 1279 C 123.167 1.38611 -0.815092 0
M  V30 1280 O 124.357 1.36479 -1.08255 0
M  V30 1281 C 121.489 2.59946 -2.20546 0
M  V30 1282 H 122.682 0.912626 -2.85677 0
M  V30 1283 H 120.235 0.43977 -1.49986 0
M  V30 1284 H 120.97 2.96696 -1.30927 0
M  V30 1285 H 120.755 2.49953 -3.02102 0
M  V30 1286 H 122.245 3.3431 -2.50253 0
M  V30 1287 N 122.682 1.50554 0.465978 0
M  V30 1288 C 123.93 1.61479 1.21528 0
M  V30 1289 C 124.251 0.319596 1.92363 0
M  V30 1290 O 123.521 -0.663194 1.84333 0
M  V30 1291 H 122.101 0.595055 0.451573 0
M  V30 1292 H 124.763 1.87355 0.53704 0
M  V30 1293 H 123.859 2.42846 1.96042 0
M  V30 1294 N 124.16 -0.719506 1.40217 0
M  V30 1295 C 125.409 -1.47486 1.37589 0
M  V30 1296 C 125.722 -1.9559 -0.0201568 0
M  V30 1297 O 126.928 -2.70973 -0.169049 0
M  V30 1298 C 125.384 -2.66575 2.41796 0
M  V30 1299 C 124.992 -2.25358 3.87192 0
M  V30 1300 C 126.736 -3.4433 2.48269 0
M  V30 1301 C 124.643 -3.41262 4.83005 0
M  V30 1302 H 123.573 -0.553901 0.511576 0
M  V30 1303 H 126.224 -0.783427 1.65936 0
M  V30 1304 H 124.606 -3.3787 2.06543 0
M  V30 1305 H 125.78 -1.61509 4.31569 0
M  V30 1306 H 124.095 -1.60657 3.84159 0
M  V30 1307 H 126.692 -4.30569 3.17041 0
M  V30 1308 H 127.035 -3.87872 1.51198 0
M  V30 1309 H 127.568 -2.80076 2.82493 0
M  V30 1310 H 124.307 -3.02755 5.81394 0
M  V30 1311 H 123.827 -4.0404 4.43297 0
M  V30 1312 H 125.506 -4.07383 5.02641 0
M  V30 1313 N 125.638 -1.25649 -0.95132 0
M  V30 1314 C 126.548 -1.08073 -2.08224 0
M  V30 1315 C 127.564 -0.0169666 -1.73992 0
M  V30 1316 O 128.74 -0.218593 -2.0021 0
M  V30 1317 C 125.805 -0.704922 -3.39458 0
M  V30 1318 C 124.866 -1.84699 -3.87537 0
M  V30 1319 C 124.099 -1.48902 -5.12508 0
M  V30 1320 O 124.322 -0.386156 -5.69091 0
M  V30 1321 O 123.256 -2.32033 -5.55378 0
M  V30 1322 H 127.082 -2.02924 -2.25954 0
M  V30 1323 H 124.667 -1.04618 -1.06656 0
M  V30 1324 H 126.549 -0.507609 -4.18332 0
M  V30 1325 H 125.224 0.214291 -3.2299 0
M  V30 1326 H 124.131 -2.09919 -3.09653 0
M  V30 1327 H 125.464 -2.74557 -4.08509 0
M  V30 1328 N 127.117 1.15442 -1.07289 0
M  V30 1329 C 128.064 2.20161 -0.692653 0
M  V30 1330 C 129.034 1.63073 0.31564 0
M  V30 1331 O 130.219 1.89725 0.202235 0
M  V30 1332 C 127.359 3.44967 -0.0959509 0
M  V30 1333 C 126.472 4.16256 -1.15564 0
M  V30 1334 C 125.607 5.28609 -0.524011 0
M  V30 1335 C 124.646 5.91715 -1.56653 0
M  V30 1336 N 123.783 6.9554 -0.957531 0
M  V30 1337 H 128.623 2.52037 -1.59002 0
M  V30 1338 H 126.16 1.2378 -0.794798 0
M  V30 1339 H 128.118 4.16341 0.267628 0
M  V30 1340 H 126.748 3.1361 0.764772 0
M  V30 1341 H 125.8 3.43385 -1.6368 0
M  V30 1342 H 127.112 4.59268 -1.94613 0
M  V30 1343 H 126.266 6.06604 -0.108032 0
M  V30 1344 H 125.005 4.86787 0.29825 0
M  V30 1345 H 124.01 5.12433 -1.9923 0
M  V30 1346 H 125.235 6.35614 -2.39107 0
M  V30 1347 H 123.181 6.55814 -0.156162 0
M  V30 1348 H 123.098 7.36977 -1.68526 0
M  V30 1349 H 124.366 7.77435 -0.567032 0
M  V30 1350 N 128.595 0.856903 1.32268 0
M  V30 1351 C 129.843 0.460474 1.96784 0
M  V30 1352 C 130.164 -0.987701 1.68135 0
M  V30 1353 O 129.434 -1.69058 0.989765 0
M  V30 1354 H 128.014 0.167289 0.728027 0
M  V30 1355 H 130.676 1.09383 1.61312 0
M  V30 1356 H 129.772 0.60739 3.06133 0
M  V30 1357 N 130.073 -1.45103 0.615059 0
M  V30 1358 C 131.298 -2.07064 0.117988 0
M  V30 1359 C 131.723 -1.4554 -1.19163 0
M  V30 1360 O 131.081 -0.550855 -1.72729 0
M  V30 1361 C 131.129 -3.606 -0.000288387 0
M  V30 1362 O 130.233 -3.98847 -1.04856 0
M  V30 1363 H 129.574 -0.659467 0.0774581 0
M  V30 1364 H 132.104 -1.86236 0.847186 0
M  V30 1365 H 132.114 -4.07529 -0.196091 0
M  V30 1366 H 130.789 -4.04765 0.955932 0
M  V30 1367 H 129.366 -3.63577 -0.828619 0
M  V30 1368 N 131.551 -0.354651 -1.53558 0
M  V30 1369 C 132.776 0.242153 -2.05981 0
M  V30 1370 C 133.201 1.42553 -1.2272 0
M  V30 1371 O 132.559 1.79656 -0.243604 0
M  V30 1372 C 132.607 0.624367 -3.55154 0
M  V30 1373 O 131.711 1.72301 -3.74681 0
M  V30 1374 H 131.052 0.0378432 -0.662921 0
M  V30 1375 H 133.582 -0.512087 -1.98088 0
M  V30 1376 H 133.592 0.898433 -3.97985 0
M  V30 1377 H 132.267 -0.240989 -4.15201 0
M  V30 1378 H 130.844 1.44535 -3.4375 0
M  V30 1379 N 133.029 1.57378 -0.0835403 0
M  V30 1380 C 133.939 2.16897 0.894021 0
M  V30 1381 C 134.955 1.13528 1.31861 0
M  V30 1382 O 136.131 1.45848 1.3889 0
M  V30 1383 C 133.196 2.72831 2.13925 0
M  V30 1384 C 132.257 3.91115 1.76997 0
M  V30 1385 C 131.49 4.44371 2.95584 0
M  V30 1386 O 131.713 3.96596 4.09961 0
M  V30 1387 O 130.647 5.35549 2.74719 0
M  V30 1388 H 134.473 3.00814 0.417679 0
M  V30 1389 H 132.058 1.48741 0.140181 0
M  V30 1390 H 133.94 3.0863 2.86924 0
M  V30 1391 H 132.615 1.91967 2.60635 0
M  V30 1392 H 131.522 3.60148 1.01214 0
M  V30 1393 H 132.855 4.73307 1.3506 0
M  V30 1394 N 134.507 -0.190092 1.56449 0
M  V30 1395 C 135.918 -0.754312 1.70784 0
M  V30 1396 C 136.269 -1.83631 0.690951 0
M  V30 1397 O 135.394 -2.15868 -0.151604 0
M  V30 1398 C 135.989 -1.37503 3.09642 0
M  V30 1399 C 134.548 -1.88628 3.25725 0
M  V30 1400 C 133.695 -0.758098 2.66736 0
M  V30 1401 H 136.646 0.0350524 1.58661 0
M  V30 1402 H 136.667 -2.2445 3.0725 0
M  V30 1403 H 136.179 -0.587302 3.83631 0
M  V30 1404 H 134.28 -2.70103 2.56661 0
M  V30 1405 H 134.393 -2.04462 4.3328 0
M  V30 1406 H 132.757 -1.17369 2.26046 0
M  V30 1407 H 133.54 0.0174705 3.43296 0
M  V30 1408 N 135.985 -1.50799 -0.457987 0
M  V30 1409 C 136.932 -1.70617 -1.5543 0
M  V30 1410 C 137.902 -0.547562 -1.56815 0
M  V30 1411 O 139.087 -0.779647 -1.74144 0
M  V30 1412 C 136.227 -1.81831 -2.93311 0
M  V30 1413 C 135.34 -3.09278 -3.01615 0
M  V30 1414 C 134.475 -3.11209 -4.30491 0
M  V30 1415 C 133.514 -4.33055 -4.32585 0
M  V30 1416 N 132.651 -4.32652 -5.52952 0
M  V30 1417 H 137.491 -2.64207 -1.37836 0
M  V30 1418 H 135.028 -1.30959 -0.669937 0
M  V30 1419 H 136.986 -1.86314 -3.73287 0
M  V30 1420 H 135.616 -0.916685 -3.0951 0
M  V30 1421 H 134.668 -3.14203 -2.1443 0
M  V30 1422 H 135.98 -3.99233 -2.99022 0
M  V30 1423 H 135.134 -3.14494 -5.18824 0
M  V30 1424 H 133.873 -2.19106 -4.35711 0
M  V30 1425 H 132.878 -4.29969 -3.42647 0
M  V30 1426 H 134.103 -5.264 -4.29046 0
M  V30 1427 H 132.049 -3.43409 -5.58933 0
M  V30 1428 H 131.966 -5.16392 -5.52155 0
M  V30 1429 H 133.234 -4.40101 -6.43375 0
M  V30 1430 N 137.463 0.71206 -1.40597 0
M  V30 1431 C 138.879 1.02058 -1.22704 0
M  V30 1432 C 139.079 2.01228 -0.104729 0
M  V30 1433 O 138.135 2.4674 0.53624 0
M  V30 1434 C 139.448 1.56094 -2.57012 0
M  V30 1435 C 140.996 1.6806 -2.64054 0
M  V30 1436 C 141.471 2.25501 -3.9864 0
M  V30 1437 N 142.962 2.32882 -4.004 0
M  V30 1438 C 143.697 2.78317 -5.01325 0
M  V30 1439 N 143.193 3.23478 -6.12645 0
M  V30 1440 N 144.986 2.77733 -4.88693 0
M  V30 1441 H 137.137 0.0547896 -2.12329 0
M  V30 1442 H 139.4 0.0869027 -0.944008 0
M  V30 1443 H 139.106 0.906865 -3.39807 0
M  V30 1444 H 138.98 2.54564 -2.78347 0
M  V30 1445 H 141.367 2.32583 -1.81629 0
M  V30 1446 H 141.448 0.681802 -2.46546 0
M  V30 1447 H 141.092 1.61598 -4.81506 0
M  V30 1448 H 141.022 3.26102 -4.13479 0
M  V30 1449 H 143.513 2.00991 -3.20017 0
M  V30 1450 H 143.826 3.56725 -6.85542 0
M  V30 1451 H 142.171 3.21429 -6.16205 0
M  V30 1452 H 145.362 2.4179 -4.00818 0
M  V30 1453 H 145.535 3.12826 -5.67489 0
M  V30 1454 N 138.941 1.26152 0.944643 0
M  V30 1455 C 139.888 1.07408 2.04285 0
M  V30 1456 C 140.858 -0.0198413 1.66088 0
M  V30 1457 O 142.043 0.139264 1.90291 0
M  V30 1458 C 139.183 0.70945 3.37729 0
M  V30 1459 C 138.296 1.87926 3.88983 0
M  V30 1460 C 137.431 1.45807 5.10797 0
M  V30 1461 C 136.47 2.5964 5.54305 0
M  V30 1462 N 135.607 2.18226 6.67324 0
M  V30 1463 H 140.447 2.01389 2.1965 0
M  V30 1464 H 137.984 1.00275 1.07626 0
M  V30 1465 H 139.942 0.478948 4.14442 0
M  V30 1466 H 138.572 -0.193389 3.2222 0
M  V30 1467 H 137.624 2.22279 3.08701 0
M  V30 1468 H 138.936 2.73377 4.17213 0
M  V30 1469 H 138.09 1.18781 5.94959 0
M  V30 1470 H 136.829 0.574414 4.84305 0
M  V30 1471 H 135.834 2.87399 4.68702 0
M  V30 1472 H 137.059 3.48599 5.828 0
M  V30 1473 H 135.005 1.3229 6.42523 0
M  V30 1474 H 134.922 2.97221 6.95123 0
M  V30 1475 H 136.19 1.94403 7.54869 0
M  V30 1476 N 140.419 -1.14872 1.07899 0
M  V30 1477 C 141.668 -1.85135 0.800499 0
M  V30 1478 C 141.981 -1.83547 -0.676014 0
M  V30 1479 O 143.187 -2.49548 -1.06948 0
M  V30 1480 C 141.643 -3.3231 1.38197 0
M  V30 1481 C 141.251 -3.42329 2.8899 0
M  V30 1482 C 142.995 -4.0772 1.18174 0
M  V30 1483 C 140.902 -4.83684 3.403 0
M  V30 1484 H 139.832 -0.693563 0.29578 0
M  V30 1485 H 142.483 -1.29532 1.29976 0
M  V30 1486 H 140.865 -3.87618 0.810431 0
M  V30 1487 H 142.039 -2.97097 3.52236 0
M  V30 1488 H 140.354 -2.80369 3.07867 0
M  V30 1489 H 142.951 -5.12049 1.5398 0
M  V30 1490 H 143.294 -4.16124 0.12117 0
M  V30 1491 H 143.827 -3.58696 1.71994 0
M  V30 1492 H 140.566 -4.80465 4.45907 0
M  V30 1493 H 140.086 -5.29474 2.81811 0
M  V30 1494 H 141.765 -5.52558 3.36584 0
M  V30 1495 N 141.898 -0.863906 -1.31812 0
M  V30 1496 C 143.144 -0.472535 -1.97218 0
M  V30 1497 C 143.477 0.971394 -1.68159 0
M  V30 1498 O 142.752 1.68309 -0.974798 0
M  V30 1499 C 143.035 -0.723054 -3.52766 0
M  V30 1500 C 142.888 -2.21608 -3.91421 0
M  V30 1501 C 144.207 -0.185522 -4.39709 0
M  V30 1502 H 141.326 -0.173158 -0.71637 0
M  V30 1503 H 143.968 -1.08403 -1.56041 0
M  V30 1504 H 142.118 -0.202577 -3.87971 0
M  V30 1505 H 143.79 -2.80334 -3.66347 0
M  V30 1506 H 142.033 -2.691 -3.40246 0
M  V30 1507 H 142.704 -2.34203 -4.99853 0
M  V30 1508 H 145.18 -0.630726 -4.11292 0
M  V30 1509 H 144.056 -0.390306 -5.47511 0
M  V30 1510 H 144.317 0.912229 -4.32586 0
M  V30 1511 N 143.376 1.44774 -0.622745 0
M  V30 1512 C 144.624 2.01721 -0.123655 0
M  V30 1513 C 144.945 1.49172 1.25589 0
M  V30 1514 O 144.215 0.691974 1.83272 0
M  V30 1515 H 142.795 0.745777 -0.0427225 0
M  V30 1516 H 145.457 1.77382 -0.807559 0
M  V30 1517 H 144.553 3.11984 -0.0849534 0
M  V30 1518 N 144.854 0.36279 1.53368 0
M  V30 1519 C 145.801 -0.485008 2.25646 0
M  V30 1520 C 146.771 -1.07982 1.2621 0
M  V30 1521 O 147.956 -1.11284 1.54986 0
M  V30 1522 C 145.096 -1.62023 3.04701 0
M  V30 1523 C 144.209 -1.05086 4.19024 0
M  V30 1524 C 143.344 -2.15496 4.85525 0
M  V30 1525 C 142.383 -1.5601 5.91884 0
M  V30 1526 N 141.52 -2.60241 6.52088 0
M  V30 1527 H 146.36 0.137864 2.97681 0
M  V30 1528 H 143.897 0.0798061 1.46883 0
M  V30 1529 H 145.855 -2.28887 3.48807 0
M  V30 1530 H 144.485 -2.2138 2.34927 0
M  V30 1531 H 143.537 -0.27259 3.79422 0
M  V30 1532 H 144.849 -0.575926 4.95464 0
M  V30 1533 H 144.003 -2.90186 5.32801 0
M  V30 1534 H 142.742 -2.66341 4.08551 0
M  V30 1535 H 141.747 -0.798338 5.43973 0
M  V30 1536 H 142.972 -1.05994 6.70777 0
M  V30 1537 H 140.918 -3.10304 5.77968 0
M  V30 1538 H 140.835 -2.17426 7.24059 0
M  V30 1539 H 142.103 -3.34641 7.04014 0
M  V30 1540 N 146.332 -1.57332 0.0918853 0
M  V30 1541 C 147.578 -1.94524 -0.573425 0
M  V30 1542 C 147.911 -0.973578 -1.68033 0
M  V30 1543 O 147.186 -0.00609226 -1.94499 0
M  V30 1544 C 147.469 -3.41858 -1.13161 0
M  V30 1545 C 147.322 -4.4979 -0.0299747 0
M  V30 1546 C 148.641 -3.90435 -2.03098 0
M  V30 1547 H 145.76 -0.70734 -0.206975 0
M  V30 1548 H 148.402 -1.89309 0.161942 0
M  V30 1549 H 146.552 -3.46433 -1.7583 0
M  V30 1550 H 148.224 -4.57327 0.604112 0
M  V30 1551 H 146.467 -4.291 0.636833 0
M  V30 1552 H 147.138 -5.50069 -0.461287 0
M  V30 1553 H 149.614 -3.87992 -1.50338 0
M  V30 1554 H 148.49 -4.94097 -2.39081 0
M  V30 1555 H 148.751 -3.29541 -2.94712 0
M  V30 1556 N 147.81 0.181792 -1.56548 0
M  V30 1557 C 149.038 0.915947 -1.85521 0
M  V30 1558 C 149.453 1.76282 -0.676016 0
M  V30 1559 O 148.81 1.79012 0.355077 0
M  V30 1560 C 148.861 1.80126 -3.13427 0
M  V30 1561 O 148.582 0.988562 -4.26801 0
M  V30 1562 C 150.083 2.64597 -3.55673 0
M  V30 1563 H 147.303 0.26661 -0.61576 0
M  V30 1564 H 149.847 0.185039 -2.03661 0
M  V30 1565 H 148.002 2.48563 -2.97145 0
M  V30 1566 H 148.416 1.59308 -4.99721 0
M  V30 1567 H 149.89 3.2235 -4.48101 0
M  V30 1568 H 150.367 3.38958 -2.79292 0
M  V30 1569 H 150.973 2.0151 -3.74532 0
M  V30 1570 N 149.288 1.51039 0.449983 0
M  V30 1571 C 150.704 1.38934 0.785462 0
M  V30 1572 C 150.904 0.461817 1.96136 0
M  V30 1573 O 149.96 -0.0877389 2.52348 0
M  V30 1574 C 151.273 2.80724 1.0777 0
M  V30 1575 C 152.821 2.89787 1.1829 0
M  V30 1576 C 153.296 4.32457 1.50815 0
M  V30 1577 N 154.787 4.35505 1.57764 0
M  V30 1578 C 155.522 5.42914 1.84477 0
M  V30 1579 N 155.018 6.60502 2.09068 0
M  V30 1580 N 156.811 5.3038 1.86155 0
M  V30 1581 H 148.962 2.09904 -0.324647 0
M  V30 1582 H 151.225 0.944378 -0.0827957 0
M  V30 1583 H 150.931 3.50531 0.286498 0
M  V30 1584 H 150.805 3.19273 2.00859 0
M  V30 1585 H 153.192 2.20186 1.96474 0
M  V30 1586 H 153.273 2.54752 0.231314 0
M  V30 1587 H 152.917 5.02603 0.731622 0
M  V30 1588 H 152.847 4.64995 2.47158 0
M  V30 1589 H 155.338 3.50724 1.40715 0
M  V30 1590 H 155.651 7.38158 2.28785 0
M  V30 1591 H 153.996 6.63639 2.06416 0
M  V30 1592 H 157.187 4.37505 1.66454 0
M  V30 1593 H 157.36 6.1417 2.06637 0
M  V30 1594 N 150.766 -0.704594 1.40972 0
M  V30 1595 C 151.713 -1.81862 1.42109 0
M  V30 1596 C 152.683 -1.63781 0.276593 0
M  V30 1597 O 153.868 -1.84759 0.4763 0
M  V30 1598 C 151.008 -3.19669 1.30022 0
M  V30 1599 C 150.121 -3.49246 2.54267 0
M  V30 1600 C 149.256 -4.76618 2.3454 0
M  V30 1601 C 148.295 -4.99133 3.54306 0
M  V30 1602 N 147.432 -6.17726 3.33706 0
M  V30 1603 H 152.272 -1.80226 2.37324 0
M  V30 1604 H 149.809 -0.880238 1.17857 0
M  V30 1605 H 151.767 -3.99263 1.21018 0
M  V30 1606 H 150.397 -3.20506 0.384192 0
M  V30 1607 H 149.449 -2.64125 2.73756 0
M  V30 1608 H 150.761 -3.61788 3.43381 0
M  V30 1609 H 149.915 -5.64249 2.22952 0
M  V30 1610 H 148.654 -4.66305 1.42867 0
M  V30 1611 H 147.659 -4.09953 3.66359 0
M  V30 1612 H 148.884 -5.11311 4.4692 0
M  V30 1613 H 146.83 -6.08642 2.44725 0
M  V30 1614 H 146.747 -6.30995 4.16391 0
M  V30 1615 H 148.015 -7.08115 3.25873 0
M  V30 1616 N 152.244 -1.26651 -0.937939 0
M  V30 1617 C 153.176 -1.04283 -2.04102 0
M  V30 1618 C 154.189 -0.00221014 -1.628 0
M  V30 1619 O 155.378 -0.242645 -1.76843 0
M  V30 1620 C 152.478 -0.557846 -3.34277 0
M  V30 1621 C 151.651 -1.66843 -4.04329 0
M  V30 1622 C 150.71 -1.18095 -5.12777 0
M  V30 1623 O 149.736 -1.87865 -5.37304 0
M  V30 1624 N 150.938 -0.0311006 -5.80492 0
M  V30 1625 H 153.703 -1.9927 -2.23856 0
M  V30 1626 H 151.264 -1.1808 -1.10764 0
M  V30 1627 H 153.256 -0.215836 -4.04124 0
M  V30 1628 H 151.826 0.298523 -3.11171 0
M  V30 1629 H 151.046 -2.18123 -3.28353 0
M  V30 1630 H 152.334 -2.41408 -4.47883 0
M  V30 1631 H 151.732 0.551486 -5.63005 0
M  V30 1632 H 150.289 0.251809 -6.51313 0
M  V30 1633 N 153.722 1.14298 -1.08507 0
M  V30 1634 C 154.971 1.84708 -0.810305 0
M  V30 1635 C 155.284 1.83903 0.666271 0
M  V30 1636 O 156.49 2.50112 1.05624 0
M  V30 1637 C 154.946 3.31572 -1.39957 0
M  V30 1638 C 154.554 3.40791 -2.90801 0
M  V30 1639 C 156.298 4.07087 -1.20334 0
M  V30 1640 C 154.205 4.81872 -3.4286 0
M  V30 1641 H 153.135 0.691985 -0.299454 0
M  V30 1642 H 155.786 1.28841 -1.30661 0
M  V30 1643 H 154.168 3.87183 -0.830976 0
M  V30 1644 H 155.342 2.95225 -3.53806 0
M  V30 1645 H 153.657 2.78732 -3.0935 0
M  V30 1646 H 156.254 5.11225 -1.56693 0
M  V30 1647 H 156.597 4.16054 -0.143237 0
M  V30 1648 H 157.13 3.57779 -1.73893 0
M  V30 1649 H 153.869 4.78094 -4.48449 0
M  V30 1650 H 153.389 5.27972 -2.84615 0
M  V30 1651 H 155.068 5.50765 -3.39509 0
M  V30 1652 N 155.201 0.870884 1.31352 0
M  V30 1653 C 156.111 0.330783 2.32256 0
M  V30 1654 C 157.127 -0.559767 1.6475 0
M  V30 1655 O 158.303 -0.456263 1.96164 0
M  V30 1656 C 155.368 -0.458137 3.4366 0
M  V30 1657 C 154.429 0.460482 4.26823 0
M  V30 1658 C 153.662 -0.290881 5.32907 0
M  V30 1659 O 153.885 -1.51885 5.49806 0
M  V30 1660 O 152.819 0.351732 6.00871 0
M  V30 1661 H 156.645 1.16718 2.80376 0
M  V30 1662 H 154.23 0.634285 1.35267 0
M  V30 1663 H 156.112 -0.905343 4.1156 0
M  V30 1664 H 154.787 -1.27106 2.97701 0
M  V30 1665 H 153.694 0.956207 3.61673 0
M  V30 1666 H 155.027 1.23903 4.7635 0
M  V30 1667 N 156.679 -1.44442 0.630414 0
M  V30 1668 C 157.589 -2.34476 -0.0761693 0
M  V30 1669 C 158.605 -1.52576 -0.836449 0
M  V30 1670 O 159.781 -1.85307 -0.788874 0
M  V30 1671 C 156.846 -3.30545 -1.04599 0
M  V30 1672 C 155.907 -4.28352 -0.28516 0
M  V30 1673 C 155.14 -5.19831 -1.20878 0
M  V30 1674 O 155.363 -5.15223 -2.44747 0
M  V30 1675 O 154.297 -5.97892 -0.693491 0
M  V30 1676 H 158.123 -2.96345 0.664324 0
M  V30 1677 H 155.708 -1.44203 0.39061 0
M  V30 1678 H 157.59 -3.89681 -1.60396 0
M  V30 1679 H 156.265 -2.7121 -1.76711 0
M  V30 1680 H 155.172 -3.72764 0.315837 0
M  V30 1681 H 156.505 -4.90605 0.395924 0
M  V30 1682 N 158.157 -0.370918 -1.53173 0
M  V30 1683 C 159.406 0.218249 -2.00516 0
M  V30 1684 C 159.719 1.49429 -1.26215 0
M  V30 1685 O 160.925 2.16239 -1.64174 0
M  V30 1686 C 159.381 0.43948 -3.57207 0
M  V30 1687 C 158.989 -0.822244 -4.4039 0
M  V30 1688 C 160.733 0.986012 -4.1289 0
M  V30 1689 C 158.64 -0.570304 -5.88644 0
M  V30 1690 H 157.57 0.0853333 -0.749156 0
M  V30 1691 H 160.221 -0.490483 -1.76823 0
M  V30 1692 H 158.603 1.20961 -3.77074 0
M  V30 1693 H 159.777 -1.59557 -4.32294 0
M  V30 1694 H 158.092 -1.29238 -3.95836 0
M  V30 1695 H 160.689 1.18991 -5.21292 0
M  V30 1696 H 161.032 1.94972 -3.6782 0
M  V30 1697 H 161.565 0.27592 -3.96842 0
M  V30 1698 H 158.304 -1.50449 -6.38001 0
M  V30 1699 H 157.824 0.164427 -5.99575 0
M  V30 1700 H 159.503 -0.19784 -6.46697 0
M  V30 1701 N 159.635 1.57281 -0.100228 0
M  V30 1702 C 160.598 2.13158 0.842398 0
M  V30 1703 C 161.598 1.06202 1.20738 0
M  V30 1704 O 162.788 1.32066 1.13597 0
M  V30 1705 C 159.92 2.65639 2.13655 0
M  V30 1706 H 161.113 2.97766 0.357114 0
M  V30 1707 H 158.666 1.5559 0.148823 0
M  V30 1708 H 159.401 1.84566 2.66657 0
M  V30 1709 H 159.186 3.43844 1.88451 0
M  V30 1710 H 160.676 3.08846 2.81077 0
M  V30 1711 N 161.113 -0.173488 1.56642 0
M  V30 1712 C 162.06 -1.21482 1.96242 0
M  V30 1713 C 163.03 -1.44104 0.826027 0
M  V30 1714 O 164.215 -1.5688 1.08597 0
M  V30 1715 C 161.355 -2.54964 2.32567 0
M  V30 1716 C 160.468 -2.39739 3.59373 0
M  V30 1717 C 159.603 -3.66072 3.84921 0
M  V30 1718 C 158.642 -3.45771 5.05083 0
M  V30 1719 N 157.779 -4.64169 5.26775 0
M  V30 1720 H 162.619 -0.870123 2.85014 0
M  V30 1721 H 160.156 -0.418245 1.41029 0
M  V30 1722 H 162.114 -3.32758 2.5165 0
M  V30 1723 H 160.744 -2.87433 1.46908 0
M  V30 1724 H 159.796 -1.53131 3.48217 0
M  V30 1725 H 161.108 -2.20683 4.47326 0
M  V30 1726 H 160.262 -4.52303 4.0436 0
M  V30 1727 H 159.001 -3.88105 2.9534 0
M  V30 1728 H 158.006 -2.57927 4.85545 0
M  V30 1729 H 159.231 -3.25163 5.96193 0
M  V30 1730 H 157.177 -4.86425 4.40144 0
M  V30 1731 H 157.094 -4.48019 6.08946 0
M  V30 1732 H 158.362 -5.51689 5.5069 0
M  V30 1733 N 162.591 -1.51276 -0.441967 0
M  V30 1734 C 163.819 -1.67516 -1.21434 0
M  V30 1735 C 164.234 -0.37055 -1.85128 0
M  V30 1736 O 163.591 0.650498 -1.70513 0
M  V30 1737 C 163.642 -2.78748 -2.30177 0
M  V30 1738 O 163.363 -4.04154 -1.69089 0
M  V30 1739 C 164.864 -3.06217 -3.20541 0
M  V30 1740 H 162.084 -0.562276 -0.366178 0
M  V30 1741 H 164.628 -1.97666 -0.524244 0
M  V30 1742 H 162.783 -2.5121 -2.94911 0
M  V30 1743 H 163.197 -4.65894 -2.40922 0
M  V30 1744 H 164.671 -3.8764 -3.92987 0
M  V30 1745 H 165.148 -2.18439 -3.81026 0
M  V30 1746 H 165.754 -3.35397 -2.61513 0
M  V30 1747 N 164.069 0.697108 -1.41344 0
M  V30 1748 C 165.016 1.81106 -1.43071 0
M  V30 1749 C 165.986 1.63632 -0.285275 0
M  V30 1750 O 167.171 1.84504 -0.486091 0
M  V30 1751 C 164.311 3.18975 -1.31715 0
M  V30 1752 C 163.424 3.47892 -2.56115 0
M  V30 1753 C 162.559 4.75367 -2.37064 0
M  V30 1754 C 161.598 4.97247 -3.56948 0
M  V30 1755 N 160.735 6.15947 -3.36977 0
M  V30 1756 H 165.575 1.78965 -2.38276 0
M  V30 1757 H 163.112 0.873975 -1.18322 0
M  V30 1758 H 165.07 3.98615 -1.23133 0
M  V30 1759 H 163.7 3.20297 -0.401183 0
M  V30 1760 H 162.752 2.62669 -2.75153 0
M  V30 1761 H 164.064 3.59962 -3.45295 0
M  V30 1762 H 163.218 5.63059 -2.25941 0
M  V30 1763 H 161.957 4.65541 -1.45338 0
M  V30 1764 H 160.962 4.08004 -3.68527 0
M  V30 1765 H 162.187 5.08934 -4.49626 0
M  V30 1766 H 160.133 6.07336 -2.47949 0
M  V30 1767 H 160.05 6.28777 -4.19732 0
M  V30 1768 H 161.318 7.06377 -3.29623 0
M  V30 1769 N 165.547 1.27147 0.931209 0
M  V30 1770 C 166.48 1.0389 2.0318 0
M  V30 1771 C 167.458 -0.0395716 1.62552 0
M  V30 1772 O 168.642 0.104867 1.88208 0
M  V30 1773 C 165.769 0.575227 3.3378 0
M  V30 1774 C 164.815 1.64774 3.93385 0
M  V30 1775 S 165.648 3.23933 4.26413 0
M  V30 1776 C 166.804 2.79358 5.60098 0
M  V30 1777 H 167.037 1.97075 2.22596 0
M  V30 1778 H 164.57 1.10938 1.07387 0
M  V30 1779 H 166.528 0.314385 4.09294 0
M  V30 1780 H 165.189 -0.336505 3.12292 0
M  V30 1781 H 164.382 1.27454 4.87618 0
M  V30 1782 H 163.984 1.86048 3.24441 0
M  V30 1783 H 166.276 2.24443 6.39243 0
M  V30 1784 H 167.219 3.72322 6.02314 0
M  V30 1785 H 167.627 2.1861 5.20452 0
M  V30 1786 N 167.025 -1.13721 1.09112 0
M  V30 1787 C 168.436 -1.6648 0.845068 0
M  V30 1788 C 168.787 -1.85911 -0.62701 0
M  V30 1789 O 167.912 -1.57556 -1.48341 0
M  V30 1790 C 168.507 -3.02413 1.52748 0
M  V30 1791 C 167.066 -3.52176 1.32849 0
M  V30 1792 C 166.213 -2.27492 1.58564 0
M  V30 1793 H 169.164 -0.976872 1.25072 0
M  V30 1794 H 169.185 -3.68223 0.958752 0
M  V30 1795 H 168.697 -2.88238 2.59885 0
M  V30 1796 H 166.798 -3.7156 0.278137 0
M  V30 1797 H 166.911 -4.32499 2.0611 0
M  V30 1798 H 165.275 -2.33923 1.00758 0
M  V30 1799 H 166.058 -2.15886 2.66924 0
M  V30 1800 N 168.503 -0.877838 -1.30888 0
M  V30 1801 C 169.78 -0.413052 -1.91189 0
M  V30 1802 C 170.16 1.1056 -1.79832 0
M  V30 1803 O 169.508 1.93771 -1.21099 0
M  V30 1804 C 169.718 -0.903191 -3.3711 0
M  V30 1805 C 171.066 -0.93395 -4.14201 0
M  V30 1806 O 172.09 -0.849373 -3.45925 0
M  V30 1807 O 170.949 -1.05772 -5.36167 0
M  V30 1808 H 168.043 -0.125035 -0.817493 0
M  V30 1809 H 170.589 -0.966269 -1.39504 0
M  V30 1810 H 169.361 -1.94692 -3.39427 0
M  V30 1811 H 168.984 -0.328732 -3.96239 0
M  V30 1812 N 169.982 1.44106 -0.638065 0
M  V30 1813 C 170.912 2.33448 0.0494287 0
M  V30 1814 C 171.893 1.48606 0.827672 0
M  V30 1815 O 173.078 1.77308 0.792173 0
M  V30 1816 C 170.208 3.31771 1.02691 0
M  V30 1817 C 169.162 4.26485 0.359823 0
M  V30 1818 C 168.488 5.14729 1.44769 0
M  V30 1819 C 169.788 5.17056 -0.738296 0
M  V30 1820 H 171.482 2.91183 -0.696636 0
M  V30 1821 H 169.028 1.40014 -0.336456 0
M  V30 1822 H 170.981 3.93161 1.51666 0
M  V30 1823 H 169.705 2.7226 1.80395 0
M  V30 1824 H 168.364 3.66437 -0.10934 0
M  V30 1825 H 168.012 4.51566 2.21578 0
M  V30 1826 H 167.712 5.78913 1.00668 0
M  V30 1827 H 169.236 5.78991 1.93911 0
M  V30 1828 H 170.65 5.72342 -0.331354 0
M  V30 1829 H 169.047 5.89879 -1.10286 0
M  V30 1830 H 170.117 4.57652 -1.60258 0
M  V30 1831 N 171.46 0.379036 1.52974 0
M  V30 1832 C 172.408 -0.476033 2.27677 0
M  V30 1833 C 173.402 -1.0719 1.31174 0
M  V30 1834 O 174.608 -1.01355 1.48752 0
M  V30 1835 H 170.983 -0.172255 0.732006 0
M  V30 1836 H 172.954 0.175615 2.97883 0
M  V30 1837 C 171.703 -1.5967 3.0887 0
M  V30 1838 H 171.026 -1.1475 3.82978 0
M  V30 1839 H 172.466 -2.16943 3.64296 0
M  V30 1840 C 170.925 -2.54682 2.20542 0
M  V30 1841 O 171.455 -3.57836 1.82527 0
M  V30 1842 N 169.661 -2.24183 1.84907 0
M  V30 1843 H 169.208 -1.40333 2.1602 0
M  V30 1844 H 169.166 -2.88006 1.26096 0
M  V30 1845 N 172.938 -1.57226 0.108567 0
M  V30 1846 C 173.901 -2.13602 -0.831082 0
M  V30 1847 C 174.901 -1.06841 -1.20173 0
M  V30 1848 O 176.091 -1.32666 -1.12895 0
M  V30 1849 C 173.223 -2.66769 -2.12243 0
M  V30 1850 H 174.416 -2.97951 -0.341317 0
M  V30 1851 H 171.969 -1.55667 -0.14057 0
M  V30 1852 H 172.704 -1.85977 -2.65675 0
M  V30 1853 H 172.489 -3.44839 -1.86625 0
M  V30 1854 H 173.979 -3.10332 -2.79435 0
M  V30 1855 N 174.416 0.165178 -1.56732 0
M  V30 1856 C 175.364 1.22369 -1.97809 0
M  V30 1857 C 176.358 1.45488 -0.867741 0
M  V30 1858 O 177.564 1.45995 -1.05288 0
M  V30 1859 H 173.939 0.411486 -0.629431 0
M  V30 1860 H 175.91 0.850425 -2.86025 0
M  V30 1861 C 174.659 2.55403 -2.35934 0
M  V30 1862 H 173.982 2.38438 -3.20916 0
M  V30 1863 H 175.422 3.2814 -2.68514 0
M  V30 1864 C 173.881 3.14611 -1.20506 0
M  V30 1865 O 174.411 3.98626 -0.496016 0
M  V30 1866 N 172.617 2.7379 -0.97403 0
M  V30 1867 H 172.164 2.0557 -1.55238 0
M  V30 1868 H 172.122 3.1374 -0.203573 0
M  V30 1869 N 175.894 1.51508 0.433938 0
M  V30 1870 C 177.119 1.68443 1.21003 0
M  V30 1871 C 177.544 0.382636 1.84167 0
M  V30 1872 O 176.902 -0.65755 1.68956 0
M  V30 1873 C 176.95 2.80405 2.26727 0
M  V30 1874 O 176.054 2.44245 3.32292 0
M  V30 1875 H 175.395 0.561536 0.354363 0
M  V30 1876 H 177.925 1.9809 0.512024 0
M  V30 1877 H 177.935 3.0459 2.71457 0
M  V30 1878 H 176.61 3.74867 1.80132 0
M  V30 1879 H 175.187 2.30644 2.93015 0
M  V30 1880 N 177.372 -0.689602 1.41712 0
M  V30 1881 C 178.302 -1.81577 1.46806 0
M  V30 1882 C 179.283 -1.66945 0.326105 0
M  V30 1883 O 180.468 -1.86588 0.538377 0
M  V30 1884 C 177.598 -3.19762 1.35535 0
M  V30 1885 C 176.552 -3.49107 2.47605 0
M  V30 1886 C 175.878 -4.86711 2.21397 0
M  V30 1887 C 177.178 -3.47483 3.89939 0
M  V30 1888 H 178.872 -1.7757 2.41058 0
M  V30 1889 H 176.418 -0.852887 1.16025 0
M  V30 1890 H 178.371 -3.98263 1.3771 0
M  V30 1891 H 177.095 -3.24409 0.377708 0
M  V30 1892 H 175.754 -2.72959 2.44722 0
M  V30 1893 H 175.402 -4.8799 1.21961 0
M  V30 1894 H 175.102 -5.0731 2.96497 0
M  V30 1895 H 176.626 -5.67515 2.25297 0
M  V30 1896 H 178.04 -4.1598 3.94505 0
M  V30 1897 H 176.437 -3.79615 4.64771 0
M  V30 1898 H 177.507 -2.46341 4.17665 0
M  V30 1899 N 178.85 -1.27639 -0.924453 0
M  V30 1900 C 179.76 -1.12466 -2.05885 0
M  V30 1901 C 180.776 -0.053869 -1.73917 0
M  V30 1902 O 181.952 -0.261012 -1.99702 0
M  V30 1903 C 179.017 -0.776768 -3.37886 0
M  V30 1904 C 178.078 -1.92878 -3.83532 0
M  V30 1905 C 177.311 -1.59739 -5.09234 0
M  V30 1906 O 177.534 -0.506782 -5.68144 0
M  V30 1907 O 176.468 -2.43761 -5.50331 0
M  V30 1908 H 180.294 -2.07671 -2.21599 0
M  V30 1909 H 177.879 -1.06857 -1.04413 0
M  V30 1910 H 179.761 -0.596229 -4.17161 0
M  V30 1911 H 178.436 0.145732 -3.23372 0
M  V30 1912 H 177.343 -2.1644 -3.0513 0
M  V30 1913 H 178.676 -2.8316 -4.02593 0
M  V30 1914 N 180.328 1.1314 -1.09713 0
M  V30 1915 C 181.291 2.16831 -0.742751 0
M  V30 1916 C 182.291 1.59159 0.229129 0
M  V30 1917 O 183.481 1.74199 0.00693237 0
M  V30 1918 C 180.613 3.40756 -0.0989168 0
M  V30 1919 H 181.806 2.49695 -1.66109 0
M  V30 1920 H 179.359 1.2802 -0.896699 0
M  V30 1921 H 180.094 3.13485 0.830514 0
M  V30 1922 H 179.879 3.83888 -0.798265 0
M  V30 1923 H 181.369 4.17386 0.133524 0
M  V30 1924 N 181.806 0.884767 1.30421 0
M  V30 1925 C 182.769 0.356277 2.26414 0
M  V30 1926 C 183.769 -0.501124 1.52792 0
M  V30 1927 O 184.959 -0.30831 1.7145 0
M  V30 1928 C 182.091 -0.492316 3.37326 0
M  V30 1929 H 183.284 1.20389 2.74675 0
M  V30 1930 H 180.837 0.661607 1.41607 0
M  V30 1931 H 181.572 -1.36052 2.94381 0
M  V30 1932 H 181.357 0.121832 3.91911 0
M  V30 1933 H 182.847 -0.853871 4.08777 0
M  V30 1934 N 183.284 -1.43765 0.645699 0
M  V30 1935 C 184.217 -2.2798 -0.100072 0
M  V30 1936 C 185.195 -1.39391 -0.837194 0
M  V30 1937 O 186.379 -1.68833 -0.838306 0
M  V30 1938 C 183.506 -3.18643 -1.14823 0
M  V30 1939 C 182.552 -4.2344 -0.510009 0
M  V30 1940 S 183.385 -5.30761 0.710824 0
M  V30 1941 C 184.541 -6.24992 -0.33699 0
M  V30 1942 H 184.774 -2.90884 0.614322 0
M  V30 1943 H 182.307 -1.48166 0.434304 0
M  V30 1944 H 184.265 -3.71424 -1.74799 0
M  V30 1945 H 182.926 -2.54932 -1.8349 0
M  V30 1946 H 182.119 -4.86948 -1.29991 0
M  V30 1947 H 181.721 -3.73997 0.0154577 0
M  V30 1948 H 184.013 -6.66691 -1.20537 0
M  V30 1949 H 184.956 -7.07612 0.262879 0
M  V30 1950 H 185.364 -5.60517 -0.669425 0
M  V30 1951 N 184.763 -0.387143 -1.52771 0
M  V30 1952 C 185.71 0.449048 -2.26389 0
M  V30 1953 C 186.68 1.05961 -1.27912 0
M  V30 1954 O 187.865 1.08804 -1.56737 0
M  V30 1955 C 185.005 1.57155 -3.0724 0
M  V30 1956 C 184.118 0.984066 -4.20643 0
M  V30 1957 C 183.253 2.07745 -4.88892 0
M  V30 1958 C 182.292 1.46574 -5.94292 0
M  V30 1959 N 181.429 2.49834 -6.56146 0
M  V30 1960 H 186.269 -0.185205 -2.97424 0
M  V30 1961 H 183.806 -0.103164 -1.46738 0
M  V30 1962 H 185.764 2.23309 -3.52405 0
M  V30 1963 H 184.394 2.17615 -2.38419 0
M  V30 1964 H 183.446 0.212193 -3.79808 0
M  V30 1965 H 184.758 0.497029 -4.96318 0
M  V30 1966 H 183.912 2.81673 -5.3735 0
M  V30 1967 H 182.651 2.59807 -4.12737 0
M  V30 1968 H 181.656 0.711696 -5.45174 0
M  V30 1969 H 182.881 0.953088 -6.72379 0
M  V30 1970 H 180.827 3.0107 -5.82832 0
M  V30 1971 H 180.744 2.05879 -7.27427 0
M  V30 1972 H 182.012 3.23399 -7.09249 0
M  V30 1973 N 186.241 1.57166 -0.116904 0
M  V30 1974 C 187.49 1.94298 0.541407 0
M  V30 1975 C 187.803 1.00236 1.67964 0
M  V30 1976 O 189.009 1.26826 2.40057 0
M  V30 1977 C 187.465 3.45306 1.01449 0
M  V30 1978 C 187.073 4.47899 -0.0951738 0
M  V30 1979 C 188.817 3.91361 1.6443 0
M  V30 1980 C 186.724 5.90083 0.394491 0
M  V30 1981 H 185.654 0.725308 0.206019 0
M  V30 1982 H 188.305 1.82446 -0.196419 0
M  V30 1983 H 186.687 3.52385 1.80667 0
M  V30 1984 H 187.861 4.52486 -0.871374 0
M  V30 1985 H 186.176 4.11583 -0.631505 0
M  V30 1986 H 188.773 4.95004 2.02176 0
M  V30 1987 H 189.116 3.3122 2.52189 0
M  V30 1988 H 189.649 3.87073 0.917559 0
M  V30 1989 H 186.388 6.53974 -0.447004 0
M  V30 1990 H 185.908 5.88921 1.13722 0
M  V30 1991 H 187.587 6.41307 0.856399 0
M  V30 1992 N 187.719 -0.156864 1.56817 0
M  V30 1993 C 188.968 -0.869504 1.81996 0
M  V30 1994 C 189.281 -1.82777 0.696545 0
M  V30 1995 O 190.487 -2.58384 0.833658 0
M  V30 1996 C 188.943 -1.59679 3.22538 0
M  V30 1997 C 188.551 -0.681431 4.42787 0
M  V30 1998 C 190.295 -2.2968 3.56997 0
M  V30 1999 C 188.202 -1.40978 5.74351 0
M  V30 2000 H 187.132 -0.328438 0.678708 0
M  V30 2001 H 189.783 -0.1223 1.83092 0
M  V30 2002 H 188.165 -2.38927 3.158 0
M  V30 2003 H 189.339 0.0751166 4.60739 0
M  V30 2004 H 187.654 -0.0903431 4.16302 0
M  V30 2005 H 190.251 -2.84794 4.52544 0
M  V30 2006 H 190.594 -3.05707 2.82576 0
M  V30 2007 H 191.127 -1.57361 3.65352 0
M  V30 2008 H 187.866 -0.691561 6.51842 0
M  V30 2009 H 187.386 -2.13929 5.60352 0
M  V30 2010 H 189.065 -1.95337 6.16808 0
M  V30 2011 N 189.197 -1.51736 -0.425897 0
M  V30 2012 C 190.107 -1.76738 -1.54275 0
M  V30 2013 C 191.123 -0.65211 -1.61318 0
M  V30 2014 O 192.299 -0.935654 -1.78346 0
M  V30 2015 C 189.364 -1.89755 -2.90162 0
M  V30 2016 C 188.425 -3.13633 -2.93143 0
M  V30 2017 C 187.658 -3.2602 -4.22548 0
M  V30 2018 O 187.881 -2.44067 -5.15546 0
M  V30 2019 O 186.815 -4.19071 -4.32046 0
M  V30 2020 H 190.641 -2.71502 -1.36089 0
M  V30 2021 H 188.226 -1.36376 -0.610069 0
M  V30 2022 H 190.108 -2.00236 -3.70788 0
M  V30 2023 H 188.783 -0.981785 -3.08452 0
M  V30 2024 H 187.69 -3.08622 -2.11431 0
M  V30 2025 H 189.023 -4.04936 -2.798 0
M  V30 2026 N 190.675 0.682077 -1.42076 0
M  V30 2027 C 191.923 1.4393 -1.41876 0
M  V30 2028 C 192.244 1.94971 -0.0335599 0
M  V30 2029 O 191.514 1.72591 0.926773 0
M  V30 2030 H 190.094 0.534085 -0.522267 0
M  V30 2031 H 192.756 0.806427 -1.77434 0
M  V30 2032 H 191.852 2.29588 -2.11414 0
M  V30 2033 N 192.153 1.28127 0.917671 0
M  V30 2034 C 193.381 1.17892 1.70026 0
M  V30 2035 C 193.796 -0.262958 1.8696 0
M  V30 2036 O 193.153 -1.17811 1.3938 0
M  V30 2037 C 193.204 1.86872 3.09453 0
M  V30 2038 O 192.925 3.25428 2.93306 0
M  V30 2039 C 194.426 1.8289 4.03815 0
M  V30 2040 H 191.646 0.40942 0.531617 0
M  V30 2041 H 194.19 1.69181 1.14883 0
M  V30 2042 H 192.345 1.39464 3.61426 0
M  V30 2043 H 192.759 3.59918 3.81523 0
M  V30 2044 H 194.233 2.35751 4.99125 0
M  V30 2045 H 194.71 0.800412 4.31845 0
M  V30 2046 H 195.316 2.29959 3.57769 0
M  V30 2047 N 193.631 -1.12557 1.10312 0
M  V30 2048 C 194.594 -2.16434 0.75424 0
M  V30 2049 C 195.594 -1.59278 -0.220685 0
M  V30 2050 O 196.784 -1.742 0.00230591 0
M  V30 2051 C 193.916 -3.40699 0.116987 0
M  V30 2052 H 195.109 -2.48811 1.67431 0
M  V30 2053 H 192.662 -1.27542 0.903475 0
M  V30 2054 H 193.397 -3.13921 -0.813877 0
M  V30 2055 H 193.182 -3.83459 0.818613 0
M  V30 2056 H 194.672 -4.17451 -0.111387 0
M  V30 2057 N 195.109 -0.891671 -1.2995 0
M  V30 2058 C 196.056 -0.361736 -2.27948 0
M  V30 2059 C 197.026 0.551761 -1.56668 0
M  V30 2060 O 198.211 0.478736 -1.84696 0
M  V30 2061 C 195.351 0.411825 -3.42634 0
M  V30 2062 C 194.464 -0.531651 -4.28716 0
M  V30 2063 C 193.599 0.258167 -5.30572 0
M  V30 2064 C 192.638 -0.680349 -6.08307 0
M  V30 2065 N 191.775 0.0745613 -7.0206 0
M  V30 2066 H 196.615 -1.20254 -2.72659 0
M  V30 2067 H 194.152 -0.604352 -1.34112 0
M  V30 2068 H 196.11 0.876304 -4.07893 0
M  V30 2069 H 194.74 1.21715 -2.98974 0
M  V30 2070 H 193.792 -1.11463 -3.63703 0
M  V30 2071 H 195.104 -1.25038 -4.82874 0
M  V30 2072 H 194.258 0.784204 -6.0161 0
M  V30 2073 H 192.997 1.01008 -4.77126 0
M  V30 2074 H 192.002 -1.21796 -5.3614 0
M  V30 2075 H 193.227 -1.43145 -6.63842 0
M  V30 2076 H 191.173 0.808883 -6.50994 0
M  V30 2077 H 191.09 -0.584409 -7.53738 0
M  V30 2078 H 192.358 0.581123 -7.77331 0
M  V30 2079 N 196.587 1.43421 -0.653314 0
M  V30 2080 C 197.812 2.06678 -0.172846 0
M  V30 2081 C 198.237 1.48648 1.15262 0
M  V30 2082 O 197.595 0.596457 1.71208 0
M  V30 2083 C 197.643 3.60474 -0.0953184 0
M  V30 2084 O 196.747 4.01487 0.942442 0
M  V30 2085 H 196.088 0.657181 -0.0949155 0
M  V30 2086 H 198.618 1.83925 -0.896265 0
M  V30 2087 H 198.628 4.07905 0.0879728 0
M  V30 2088 H 197.303 4.02088 -1.06291 0
M  V30 2089 H 195.88 3.65646 0.731932 0
M  V30 2090 N 198.065 0.39524 1.52563 0
M  V30 2091 C 198.998 -0.4813 2.23067 0
M  V30 2092 C 199.976 -1.05927 1.23362 0
M  V30 2093 O 201.16 -1.10979 1.52368 0
M  V30 2094 C 198.287 -1.66676 2.9485 0
M  V30 2095 C 197.333 -1.21348 4.08873 0
M  V30 2096 S 198.166 -0.190102 5.35162 0
M  V30 2097 C 199.322 -1.38121 6.1047 0
M  V30 2098 H 199.555 0.117381 2.97068 0
M  V30 2099 H 197.088 0.179458 1.53354 0
M  V30 2100 H 199.046 -2.3466 3.36816 0
M  V30 2101 H 197.707 -2.23676 2.20518 0
M  V30 2102 H 196.9 -2.09877 4.58222 0
M  V30 2103 H 196.502 -0.612486 3.68951 0
M  V30 2104 H 198.794 -2.30726 6.37002 0
M  V30 2105 H 199.737 -0.928521 7.01986 0
M  V30 2106 H 200.145 -1.60071 5.41329 0
M  V30 2107 N 199.544 -1.57102 0.125237 0
M  V30 2108 C 200.792 -1.95021 -0.530198 0
M  V30 2109 C 201.113 -1.00982 -1.66816 0
M  V30 2110 O 200.383 -0.0672693 -1.95784 0
M  V30 2111 H 198.963 -0.720046 -0.198853 0
M  V30 2112 H 201.625 -1.93916 0.19564 0
M  V30 2113 H 200.721 -2.98211 -0.920681 0
M  V30 2114 N 201.022 0.148545 -1.56898 0
M  V30 2115 C 202.271 0.85984 -1.82454 0
M  V30 2116 C 202.584 1.82406 -0.706229 0
M  V30 2117 O 203.79 2.57938 -0.847349 0
M  V30 2118 C 202.246 1.57967 -3.2338 0
M  V30 2119 C 201.854 0.65794 -4.43142 0
M  V30 2120 C 203.598 2.27784 -3.58211 0
M  V30 2121 C 201.505 1.3793 -5.75091 0
M  V30 2122 H 200.435 0.324834 -0.68044 0
M  V30 2123 H 203.086 0.112588 -1.83154 0
M  V30 2124 H 201.468 2.37249 -3.17063 0
M  V30 2125 H 202.642 -0.0995497 -4.60692 0
M  V30 2126 H 200.957 0.0682643 -4.16344 0
M  V30 2127 H 203.554 2.8239 -4.54048 0
M  V30 2128 H 203.897 3.04204 -2.84193 0
M  V30 2129 H 204.43 1.55421 -3.66182 0
M  V30 2130 H 201.169 0.656982 -6.52199 0
M  V30 2131 H 200.689 2.10954 -5.61479 0
M  V30 2132 H 202.368 1.92063 -6.17835 0
M  V30 2133 N 202.5 1.5196 0.417844 0
M  V30 2134 C 203.41 1.77554 1.53336 0
M  V30 2135 C 204.426 0.660655 1.6097 0
M  V30 2136 O 205.602 0.945099 1.77848 0
M  V30 2137 C 202.667 1.91291 2.89152 0
M  V30 2138 C 201.728 3.15183 2.91475 0
M  V30 2139 C 200.961 3.28256 4.20813 0
M  V30 2140 O 201.184 2.46798 5.14244 0
M  V30 2141 O 200.118 4.21356 4.29817 0
M  V30 2142 H 203.944 2.7222 1.34647 0
M  V30 2143 H 201.529 1.36698 0.602828 0
M  V30 2144 H 203.411 2.02199 3.69721 0
M  V30 2145 H 202.086 0.998129 3.07927 0
M  V30 2146 H 200.993 3.09739 2.09791 0
M  V30 2147 H 202.326 4.06414 2.77648 0
M  V30 2148 N 203.978 -0.674533 1.42435 0
M  V30 2149 C 205.224 -1.43671 1.43131 0
M  V30 2150 C 205.557 -1.94142 0.0476021 0
M  V30 2151 O 204.832 -1.70924 -0.928188 0
M  V30 2152 C 205.115 -2.63355 2.45594 0
M  V30 2153 C 204.968 -2.18514 3.93156 0
M  V30 2154 C 206.287 -3.65571 2.45043 0
M  V30 2155 H 203.406 -0.521077 0.521198 0
M  V30 2156 H 206.048 -0.766551 1.7385 0
M  V30 2157 H 204.198 -3.2053 2.19528 0
M  V30 2158 H 205.87 -1.66504 4.30202 0
M  V30 2159 H 204.113 -1.50086 4.07009 0
M  V30 2160 H 204.784 -3.04484 4.60428 0
M  V30 2161 H 207.26 -3.18113 2.68223 0
M  V30 2162 H 206.136 -4.46893 3.18713 0
M  V30 2163 H 206.397 -4.16716 1.47649 0
M  V30 2164 N 205.456 -1.28612 -0.910864 0
M  V30 2165 C 206.702 -1.16106 -1.66274 0
M  V30 2166 C 207.035 0.289113 -1.92036 0
M  V30 2167 O 206.31 1.21 -1.52281 0
M  V30 2168 C 206.593 -1.96309 -3.01885 0
M  V30 2169 C 206.446 -3.49405 -2.8326 0
M  V30 2170 C 207.765 -1.78076 -4.02463 0
M  V30 2171 H 204.884 -0.423152 -0.603417 0
M  V30 2172 H 207.526 -1.57961 -1.05586 0
M  V30 2173 H 205.676 -1.60742 -3.53687 0
M  V30 2174 H 207.348 -3.94894 -2.38446 0
M  V30 2175 H 205.591 -3.74893 -2.18261 0
M  V30 2176 H 206.262 -4.00784 -3.79574 0
M  V30 2177 H 208.738 -2.0912 -3.59733 0
M  V30 2178 H 207.614 -2.36561 -4.95308 0
M  V30 2179 H 207.875 -0.733008 -4.35981 0
M  V30 2180 N 206.934 1.1197 -1.10907 0
M  V30 2181 C 208.211 1.79959 -0.766432 0
M  V30 2182 C 208.591 1.97466 0.746363 0
M  V30 2183 O 207.939 1.55491 1.67436 0
M  V30 2184 C 208.149 3.14009 -1.52314 0
M  V30 2185 C 209.497 3.89134 -1.69883 0
M  V30 2186 O 210.521 3.2368 -1.48692 0
M  V30 2187 O 209.38 5.06572 -2.05054 0
M  V30 2188 H 206.474 0.779208 -0.277062 0
M  V30 2189 H 209.02 1.18762 -1.21217 0
M  V30 2190 H 207.792 2.96587 -2.55249 0
M  V30 2191 H 207.415 3.82915 -1.07059 0
M  V30 2192 O 208.451 1.03102 1.24307 0
M  V30 2193 H 209.142 0.697601 1.80702 0
M  V30 END ATOM
M  V30 BEGIN BOND
M  V30 END BOND
M  V30 END CTAB
M  END
$$$$
