drugbank_target|P29377 Protein S100-G (DB04464)
 OpenBabel12092120463D

  0  0  0     0  0            999 V3000
M  V30 BEGIN CTAB
M  V30 COUNTS 1276 1285 0 0 0
M  V30 BEGIN ATOM
M  V30 1 H -0.908 1.98254 -0.117106 0
M  V30 2 N 0 1.576 0 0
M  V30 3 C 0.933 2.03868 1.02534 0
M  V30 4 C 1.911 0.928543 1.3348 0
M  V30 5 O 3.095 1.19667 1.45644 0
M  V30 6 C 0.222 2.43627 2.35294 0
M  V30 7 C -0.732 3.65373 2.2001 0
M  V30 8 S 0.101 5.13292 1.52614 0
M  V30 9 C 1.257 5.56322 2.86805 0
M  V30 10 H 1.49 2.90518 0.631377 0
M  V30 11 H -0.977 1.52953 0.210867 0
M  V30 12 H 0.981 2.67203 3.11629 0
M  V30 13 H -0.358 1.57376 2.7183 0
M  V30 14 H -1.165 3.90944 3.18086 0
M  V30 15 H -1.563 3.418 1.51819 0
M  V30 16 H 0.729 5.58782 3.83104 0
M  V30 17 H 1.672 6.56266 2.65933 0
M  V30 18 H 2.08 4.83886 2.90714 0
M  V30 19 N 1.4781 -0.272755 1.55222 0
M  V30 20 C 2.7031 -1.02683 1.80197 0
M  V30 21 C 3.1281 -1.79142 0.573551 0
M  V30 22 O 2.4861 -1.74917 -0.476849 0
M  V30 23 C 2.5341 -1.9609 3.02624 0
M  V30 24 O 1.6381 -3.04863 2.77727 0
M  V30 25 H 0.9791 -0.293557 0.595584 0
M  V30 26 H 3.5091 -0.30159 2.02365 0
M  V30 27 H 3.5191 -2.38039 3.31363 0
M  V30 28 H 2.1941 -1.39851 3.91682 0
M  V30 29 H 0.7711 -2.67228 2.60084 0
M  V30 30 N 2.9562 -1.48159 -0.537278 0
M  V30 31 C 4.1842 -1.59454 -1.31841 0
M  V30 32 C 4.5992 -0.252065 -1.8711 0
M  V30 33 O 3.9562 0.757621 -1.66031 0
M  V30 34 C 4.0072 -2.63546 -2.47439 0
M  V30 35 O 3.7282 -3.92583 -1.94449 0
M  V30 36 C 5.2292 -2.85212 -3.39366 0
M  V30 37 H 2.4492 -0.53785 -0.401196 0
M  V30 38 H 4.9932 -1.93932 -0.648891 0
M  V30 39 H 3.1482 -2.31946 -3.1029 0
M  V30 40 H 3.5622 -4.49629 -2.70063 0
M  V30 41 H 5.0362 -3.61863 -4.16844 0
M  V30 42 H 5.5132 -1.93765 -3.94147 0
M  V30 43 H 6.1192 -3.18086 -2.82314 0
M  V30 44 N 4.4343 0.785586 -1.36625 0
M  V30 45 C 5.3813 1.89838 -1.31264 0
M  V30 46 C 6.3513 1.65115 -0.180633 0
M  V30 47 O 7.5363 1.87222 -0.36777 0
M  V30 48 C 4.6763 3.26706 -1.11163 0
M  V30 49 C 3.7893 3.63476 -2.33472 0
M  V30 50 C 2.9243 4.89481 -2.06353 0
M  V30 51 C 1.9633 5.18941 -3.24602 0
M  V30 52 N 1.1003 6.36131 -2.97123 0
M  V30 53 H 5.9403 1.93756 -2.26413 0
M  V30 54 H 3.4773 0.947454 -1.12524 0
M  V30 55 H 5.4353 4.05639 -0.975337 0
M  V30 56 H 4.0653 3.222 -0.196674 0
M  V30 57 H 3.1173 2.79636 -2.57891 0
M  V30 58 H 4.4293 3.81193 -3.21704 0
M  V30 59 H 3.5833 5.76288 -1.89675 0
M  V30 60 H 2.3223 4.73841 -1.15437 0
M  V30 61 H 1.3273 4.30615 -3.41834 0
M  V30 62 H 2.5523 5.36498 -4.16349 0
M  V30 63 H 0.4983 6.21875 -2.08823 0
M  V30 64 H 0.4153 6.54198 -3.78894 0
M  V30 65 H 1.6833 7.2591 -2.84033 0
M  V30 66 N 5.9124 1.20967 1.01018 0
M  V30 67 C 6.8594 0.964281 2.09691 0
M  V30 68 C 7.8294 -0.107853 1.65749 0
M  V30 69 O 9.0144 0.0381987 1.90762 0
M  V30 70 C 6.1544 0.52943 3.41015 0
M  V30 71 C 5.2674 1.67043 3.98398 0
M  V30 72 C 4.4024 1.18525 5.17808 0
M  V30 73 C 3.4414 2.29892 5.67288 0
M  V30 74 N 2.5784 1.82546 6.77954 0
M  V30 75 H 7.4184 1.89463 2.30017 0
M  V30 76 H 4.9554 0.944289 1.1279 0
M  V30 77 H 6.9134 0.258588 4.16398 0
M  V30 78 H 5.5434 -0.363919 3.20742 0
M  V30 79 H 4.5954 2.05603 3.20049 0
M  V30 80 H 5.9074 2.50877 4.31117 0
M  V30 81 H 5.0614 0.870762 6.00419 0
M  V30 82 H 3.8004 0.316887 4.86669 0
M  V30 83 H 2.8054 2.6215 4.83278 0
M  V30 84 H 4.0304 3.17216 6.00459 0
M  V30 85 H 1.9764 0.980454 6.48632 0
M  V30 86 H 1.8934 2.59956 7.09901 0
M  V30 87 H 3.1614 1.54115 7.64113 0
M  V30 88 N 7.3905 -1.2043 1.01659 0
M  V30 89 C 8.6155 -1.94318 0.724942 0
M  V30 90 C 9.0405 -1.74266 -0.708034 0
M  V30 91 O 8.3985 -1.03694 -1.48719 0
M  V30 92 C 8.4465 -3.44486 1.06591 0
M  V30 93 O 7.5505 -4.12017 0.177599 0
M  V30 94 H 6.8915 -0.60708 0.26898 0
M  V30 95 H 9.4215 -1.52861 1.35995 0
M  V30 96 H 9.4315 -3.95106 1.01762 0
M  V30 97 H 8.1065 -3.58404 2.10997 0
M  V30 98 H 6.6835 -3.71821 0.283421 0
M  V30 99 N 8.8686 -0.792821 -1.36206 0
M  V30 100 C 10.2796 -0.429513 -1.81692 0
M  V30 101 C 10.6306 1.04695 -1.65932 0
M  V30 102 O 9.7556 1.81256 -1.18218 0
M  V30 103 C 10.3506 -0.772831 -3.29868 0
M  V30 104 C 8.9096 -0.462307 -3.7355 0
M  V30 105 C 8.0566 -1.00569 -2.5842 0
M  V30 106 H 11.0076 -0.985672 -1.24379 0
M  V30 107 H 11.0286 -0.0651928 -3.80444 0
M  V30 108 H 10.5406 -1.84747 -3.41307 0
M  V30 109 H 8.6416 0.604158 -3.67669 0
M  V30 110 H 8.7546 -0.985299 -4.68859 0
M  V30 111 H 7.1186 -0.428734 -2.51066 0
M  V30 112 H 7.9016 -2.08616 -2.72643 0
M  V30 113 N 10.3467 1.47872 -0.545128 0
M  V30 114 C 11.2567 2.33633 0.212746 0
M  V30 115 C 12.2727 1.4744 0.923983 0
M  V30 116 O 13.4487 1.80393 0.895572 0
M  V30 117 C 10.5137 3.23884 1.23693 0
M  V30 118 C 9.5747 4.25961 0.534417 0
M  V30 119 C 8.8077 5.11899 1.5098 0
M  V30 120 O 9.0307 5.00077 2.7437 0
M  V30 121 O 7.9647 5.92831 1.0409 0
M  V30 122 H 11.7907 2.99714 -0.490416 0
M  V30 123 H 9.3757 1.46235 -0.305871 0
M  V30 124 H 11.2577 3.79666 1.82843 0
M  V30 125 H 9.9327 2.60446 1.92222 0
M  V30 126 H 8.8397 3.73972 -0.0979679 0
M  V30 127 H 10.1727 4.92079 -0.109213 0
M  V30 128 N 11.8248 0.280983 1.55075 0
M  V30 129 C 12.7348 -0.61388 2.26426 0
M  V30 130 C 13.7508 -1.16521 1.29224 0
M  V30 131 O 14.9268 -1.19426 1.62171 0
M  V30 132 C 11.9918 -1.7788 2.9759 0
M  V30 133 C 11.0528 -1.26355 4.10284 0
M  V30 134 C 10.2858 -2.37295 4.78045 0
M  V30 135 O 10.5088 -3.56777 4.45047 0
M  V30 136 O 9.4428 -2.05119 5.65871 0
M  V30 137 H 13.2688 -0.0356932 3.03679 0
M  V30 138 H 10.8538 0.0481686 1.49322 0
M  V30 139 H 12.7358 -2.45791 3.42293 0
M  V30 140 H 11.4108 -2.34397 2.23249 0
M  V30 141 H 10.3178 -0.550735 3.70024 0
M  V30 142 H 11.6508 -0.744065 4.86543 0
M  V30 143 N 13.3029 -1.57598 0.00835791 0
M  V30 144 C 14.2329 -2.1198 -0.979113 0
M  V30 145 C 15.2139 -1.03091 -1.35301 0
M  V30 146 O 16.3989 -1.30818 -1.43528 0
M  V30 147 C 13.5289 -2.62995 -2.26828 0
M  V30 148 C 12.4829 -3.76485 -2.03576 0
M  V30 149 C 11.8089 -4.13846 -3.38579 0
M  V30 150 C 13.1089 -5.0342 -1.39161 0
M  V30 151 H 14.8029 -2.94738 -0.526281 0
M  V30 152 H 12.3489 -1.41783 -0.251704 0
M  V30 153 H 14.3019 -2.99669 -2.96271 0
M  V30 154 H 13.0259 -1.7737 -2.7424 0
M  V30 155 H 11.6849 -3.40217 -1.36557 0
M  V30 156 H 11.3329 -3.25232 -3.83709 0
M  V30 157 H 11.0329 -4.90312 -3.23834 0
M  V30 158 H 12.5569 -4.53086 -4.09323 0
M  V30 159 H 13.9709 -5.37812 -1.98573 0
M  V30 160 H 12.3679 -5.84746 -1.34878 0
M  V30 161 H 13.4379 -4.83548 -0.361868 0
M  V30 162 N 14.781 0.264519 -1.55364 0
M  V30 163 C 15.728 1.32717 -1.88825 0
M  V30 164 C 16.698 1.48675 -0.740605 0
M  V30 165 O 17.883 1.62945 -0.992657 0
M  V30 166 C 15.023 2.68089 -2.17307 0
M  V30 167 C 14.136 2.60284 -3.44785 0
M  V30 168 C 13.271 3.87892 -3.62924 0
M  V30 169 C 12.31 3.74631 -4.84064 0
M  V30 170 N 11.447 4.94092 -4.98816 0
M  V30 171 H 16.287 1.03481 -2.79456 0
M  V30 172 H 13.824 0.499757 -1.3835 0
M  V30 173 H 15.782 3.46864 -2.31821 0
M  V30 174 H 14.412 2.95509 -1.299 0
M  V30 175 H 13.464 1.73173 -3.38697 0
M  V30 176 H 14.776 2.46388 -4.33698 0
M  V30 177 H 13.93 4.75109 -3.77302 0
M  V30 178 H 12.669 4.04664 -2.7221 0
M  V30 179 H 11.674 2.85797 -4.69681 0
M  V30 180 H 12.899 3.5937 -5.76221 0
M  V30 181 H 10.845 5.11259 -4.11036 0
M  V30 182 H 10.762 4.8276 -5.81789 0
M  V30 183 H 12.03 5.82857 -5.17588 0
M  V30 184 N 16.2591 1.48442 0.529413 0
M  V30 185 C 17.6751 1.34575 0.858004 0
M  V30 186 C 17.8751 0.3572 1.98309 0
M  V30 187 O 16.9311 -0.221379 2.51528 0
M  V30 188 C 18.2441 2.74617 1.22499 0
M  V30 189 C 19.7921 2.83109 1.33484 0
M  V30 190 C 20.2671 4.23854 1.73526 0
M  V30 191 N 21.7581 4.2653 1.80628 0
M  V30 192 C 22.4931 5.32372 2.12997 0
M  V30 193 N 21.9891 6.48491 2.43786 0
M  V30 194 N 23.7821 5.19766 2.14008 0
M  V30 195 H 15.9331 2.1133 -0.212925 0
M  V30 196 H 18.1961 0.947439 -0.0326199 0
M  V30 197 H 17.9021 3.4852 0.471905 0
M  V30 198 H 17.7761 3.08177 2.17501 0
M  V30 199 H 20.1631 2.09462 2.0787 0
M  V30 200 H 20.2441 2.53168 0.366027 0
M  V30 201 H 19.8881 4.98018 0.997013 0
M  V30 202 H 19.8181 4.5124 2.71459 0
M  V30 203 H 22.3091 3.42772 1.59108 0
M  V30 204 H 22.6221 7.24993 2.67592 0
M  V30 205 H 20.9671 6.51765 2.41304 0
M  V30 206 H 24.1581 4.28066 1.89412 0
M  V30 207 H 24.3311 6.02354 2.38902 0
M  V30 208 N 17.7372 -0.778329 1.37039 0
M  V30 209 C 18.9862 -1.53189 1.3121 0
M  V30 210 C 19.2992 -1.95328 -0.103095 0
M  V30 211 O 20.5052 -2.70012 -0.283826 0
M  V30 212 C 18.9612 -2.76591 2.30272 0
M  V30 213 C 18.5692 -2.41577 3.77286 0
M  V30 214 C 20.3132 -3.5455 2.33441 0
M  V30 215 C 18.2202 -3.61441 4.68096 0
M  V30 216 H 17.1502 -0.5751 0.487622 0
M  V30 217 H 19.8012 -0.853101 1.62464 0
M  V30 218 H 18.1832 -3.46326 1.92027 0
M  V30 219 H 19.3572 -1.79668 4.2433 0
M  V30 220 H 17.6722 -1.76806 3.76999 0
M  V30 221 H 20.2692 -4.43628 2.98493 0
M  V30 222 H 20.6122 -3.93936 1.34611 0
M  V30 223 H 21.1452 -2.91805 2.7036 0
M  V30 224 H 17.8842 -3.27142 5.6803 0
M  V30 225 H 17.4042 -4.22478 4.25761 0
M  V30 226 H 19.0832 -4.28335 4.8491 0
M  V30 227 N 19.2153 -1.21501 -1.00376 0
M  V30 228 C 20.4623 -1.03299 -1.74171 0
M  V30 229 C 20.7903 0.433326 -1.89612 0
M  V30 230 O 20.0453 1.33779 -1.42834 0
M  V30 231 C 20.3443 -1.67673 -3.15627 0
M  V30 232 C 20.0103 -3.17533 -3.2013 0
M  V30 233 C 18.6723 -3.58427 -3.21067 0
M  V30 234 C 21.0243 -4.13504 -3.17275 0
M  V30 235 C 18.3523 -4.93794 -3.16835 0
M  V30 236 C 20.7043 -5.48834 -3.14585 0
M  V30 237 C 19.3683 -5.89123 -3.13831 0
M  V30 238 H 18.6383 -0.377999 -0.637336 0
M  V30 239 H 21.2853 -1.51111 -1.17634 0
M  V30 240 H 19.5903 -1.12158 -3.75404 0
M  V30 241 H 21.2873 -1.51091 -3.71446 0
M  V30 242 H 17.8773 -2.84965 -3.20145 0
M  V30 243 H 22.0613 -3.82936 -3.15711 0
M  V30 244 H 17.3173 -5.24255 -3.1459 0
M  V30 245 H 21.4913 -6.22934 -3.1133 0
M  V30 246 H 19.1183 -6.93984 -3.10307 0
M  V30 247 N 20.6934 1.19889 -1.02296 0
M  V30 248 C 21.6034 2.26571 -0.608508 0
M  V30 249 C 22.6194 1.70299 0.356964 0
M  V30 250 O 23.7954 2.00235 0.216326 0
M  V30 251 C 20.8604 3.46677 0.0402814 0
M  V30 252 C 19.9214 4.18153 -0.97194 0
M  V30 253 C 19.1544 5.32525 -0.354016 0
M  V30 254 O 19.3774 5.64112 0.844604 0
M  V30 255 O 18.3114 5.92242 -1.07391 0
M  V30 256 H 22.1374 2.64251 -1.49684 0
M  V30 257 H 19.7224 1.26629 -0.792809 0
M  V30 258 H 21.6044 4.19475 0.402324 0
M  V30 259 H 20.2794 3.10858 0.902707 0
M  V30 260 H 19.1864 3.47499 -1.38546 0
M  V30 261 H 20.5194 4.57927 -1.80454 0
M  V30 262 N 22.1715 0.800033 1.35784 0
M  V30 263 C 23.1185 0.203848 2.29898 0
M  V30 264 C 24.0885 -0.658375 1.52495 0
M  V30 265 O 25.2735 -0.604832 1.8096 0
M  V30 266 C 22.4135 -0.64688 3.38983 0
M  V30 267 C 21.5265 0.235054 4.3136 0
M  V30 268 C 20.6615 -0.623054 5.27533 0
M  V30 269 C 19.7005 0.259682 6.11549 0
M  V30 270 N 18.8375 -0.558019 6.99879 0
M  V30 271 H 23.6775 1.01186 2.80295 0
M  V30 272 H 21.2145 0.51053 1.37957 0
M  V30 273 H 23.1725 -1.15521 4.00887 0
M  V30 274 H 21.8025 -1.42021 2.89879 0
M  V30 275 H 20.8545 0.861438 3.70518 0
M  V30 276 H 22.1665 0.914768 4.9034 0
M  V30 277 H 21.3205 -1.19678 5.94779 0
M  V30 278 H 20.0595 -1.33636 4.69034 0
M  V30 279 H 19.0645 0.845726 5.43256 0
M  V30 280 H 20.2895 0.970748 6.72126 0
M  V30 281 H 18.2355 -1.25542 6.43875 0
M  V30 282 H 18.1525 0.0637872 7.55973 0
M  V30 283 H 19.4205 -1.11523 7.71481 0
M  V30 284 N 23.6496 -1.47581 0.552962 0
M  V30 285 C 24.8796 -2.06575 0.0320091 0
M  V30 286 C 25.2876 -1.4067 -1.26525 0
M  V30 287 O 24.6306 -0.495808 -1.76883 0
M  V30 288 C 24.6926 -3.58705 -0.238913 0
M  V30 289 C 24.3566 -4.46625 0.968272 0
M  V30 290 C 25.3536 -4.85 1.87274 0
M  V30 291 C 23.0386 -4.88201 1.18175 0
M  V30 292 C 25.0326 -5.63745 2.9744 0
M  V30 293 C 22.7196 -5.66712 2.28651 0
M  V30 294 C 23.7176 -6.04394 3.18114 0
M  V30 295 O 23.4056 -6.81324 4.26676 0
M  V30 296 H 23.1376 -0.674763 0.0408689 0
M  V30 297 H 25.6916 -1.90634 0.764719 0
M  V30 298 H 23.9216 -3.72844 -1.02588 0
M  V30 299 H 25.6106 -3.99735 -0.704731 0
M  V30 300 H 26.3766 -4.53482 1.71984 0
M  V30 301 H 22.2556 -4.58339 0.494593 0
M  V30 302 H 25.7996 -5.93077 3.67296 0
M  V30 303 H 21.6966 -5.97642 2.43915 0
M  V30 304 H 22.4646 -6.99712 4.24671 0
M  V30 305 N 25.1277 -0.289203 -1.54924 0
M  V30 306 C 26.0907 0.579144 -2.21762 0
M  V30 307 C 27.0907 1.07047 -1.1999 0
M  V30 308 O 28.2807 0.968384 -1.44803 0
M  V30 309 C 25.4127 1.80055 -2.8947 0
M  V30 310 H 26.6057 -0.00464908 -2.999 0
M  V30 311 H 24.1587 -0.0399306 -1.56249 0
M  V30 312 H 24.8937 2.42449 -2.15381 0
M  V30 313 H 24.6787 1.45602 -3.64064 0
M  V30 314 H 26.1687 2.41773 -3.40493 0
M  V30 315 N 26.6058 1.57591 -0.0167156 0
M  V30 316 C 27.5688 2.08393 0.954204 0
M  V30 317 C 28.5688 0.996531 1.26198 0
M  V30 318 O 29.7588 1.25858 1.20438 0
M  V30 319 C 26.8908 2.5394 2.27436 0
M  V30 320 H 28.0838 2.95455 0.514451 0
M  V30 321 H 25.6368 1.54582 0.231089 0
M  V30 322 H 26.3718 1.70171 2.76066 0
M  V30 323 H 26.1568 3.33371 2.06412 0
M  V30 324 H 27.6468 2.93512 2.97053 0
M  V30 325 N 28.0839 -0.256276 1.55502 0
M  V30 326 C 29.0309 -1.31714 1.89526 0
M  V30 327 C 30.0009 -1.4828 0.748479 0
M  V30 328 O 31.1859 -1.62416 1.00128 0
M  V30 329 C 28.3259 -2.66933 2.18725 0
M  V30 330 C 27.4389 -2.58452 3.4616 0
M  V30 331 C 26.5739 -3.85961 3.64976 0
M  V30 332 C 25.6129 -3.72059 4.86044 0
M  V30 333 N 24.7499 -4.9144 5.01429 0
M  V30 334 H 29.5899 -1.01998 2.80001 0
M  V30 335 H 27.1269 -0.492413 1.38613 0
M  V30 336 H 29.0849 -3.4563 2.33657 0
M  V30 337 H 27.7149 -2.94816 1.31466 0
M  V30 338 H 26.7669 -1.71374 3.3961 0
M  V30 339 H 28.0789 -2.44085 4.34999 0
M  V30 340 H 27.2329 -4.73101 3.79816 0
M  V30 341 H 25.9719 -4.03215 2.74353 0
M  V30 342 H 24.9769 -2.83302 4.7119 0
M  V30 343 H 26.2019 -3.56309 5.78118 0
M  V30 344 H 24.1479 -5.09072 4.13741 0
M  V30 345 H 24.0649 -4.79668 5.84341 0
M  V30 346 H 25.3329 -5.80104 5.20672 0
M  V30 347 N 29.562 -1.4872 -0.521534 0
M  V30 348 C 30.472 -1.66569 -1.65203 0
M  V30 349 C 31.488 -0.548197 -1.65139 0
M  V30 350 O 32.664 -0.820339 -1.83936 0
M  V30 351 C 29.729 -1.70917 -3.01642 0
M  V30 352 C 28.79 -2.94356 -3.12495 0
M  V30 353 C 28.023 -2.98487 -4.42426 0
M  V30 354 O 28.246 -2.10786 -5.30024 0
M  V30 355 O 27.18 -3.90746 -4.57822 0
M  V30 356 H 31.006 -2.62298 -1.5308 0
M  V30 357 H 28.591 -1.3222 -0.695565 0
M  V30 358 H 30.473 -1.7625 -3.82771 0
M  V30 359 H 29.148 -0.783633 -3.14071 0
M  V30 360 H 28.055 -2.94552 -2.3063 0
M  V30 361 H 29.388 -3.86322 -3.04986 0
M  V30 362 N 31.0401 0.771051 -1.3745 0
M  V30 363 C 32.2881 1.52661 -1.32435 0
M  V30 364 C 32.6091 1.9479 0.0905024 0
M  V30 365 O 31.8791 1.66348 1.03466 0
M  V30 366 H 30.4591 0.566218 -0.487244 0
M  V30 367 H 33.1211 0.917636 -1.71946 0
M  V30 368 H 32.2171 2.42568 -1.96385 0
M  V30 369 N 32.5182 1.22032 0.997298 0
M  V30 370 C 33.7952 0.950823 1.70935 0
M  V30 371 C 34.1752 -0.535292 2.042 0
M  V30 372 O 33.5232 -1.50217 1.72183 0
M  V30 373 C 33.7332 1.84386 2.96315 0
M  V30 374 C 35.0812 2.09732 3.69185 0
M  V30 375 O 36.1052 1.81798 3.06314 0
M  V30 376 O 34.9642 2.57018 4.82291 0
M  V30 377 H 32.0582 0.357204 0.745878 0
M  V30 378 H 34.6042 1.32997 1.05404 0
M  V30 379 H 33.3762 2.84928 2.68201 0
M  V30 380 H 32.9992 1.46602 3.69586 0
M  V30 381 N 33.9963 -1.19345 1.0293 0
M  V30 382 C 35.4073 -1.70725 0.755633 0
M  V30 383 C 35.7583 -1.82326 -0.724676 0
M  V30 384 O 34.8833 -1.49471 -1.56484 0
M  V30 385 C 35.4783 -3.10084 1.36503 0
M  V30 386 C 34.0373 -3.58723 1.13994 0
M  V30 387 C 33.1843 -2.35577 1.46283 0
M  V30 388 H 36.1353 -1.0418 1.19718 0
M  V30 389 H 36.1563 -3.72787 0.762217 0
M  V30 390 H 35.6683 -3.01609 2.44241 0
M  V30 391 H 33.7693 -3.72512 0.0807901 0
M  V30 392 H 33.8823 -4.42816 1.82894 0
M  V30 393 H 32.2463 -2.38935 0.88217 0
M  V30 394 H 33.0293 -2.29731 2.55105 0
M  V30 395 N 35.4744 -0.807222 -1.35358 0
M  V30 396 C 36.7514 -0.311126 -1.9311 0
M  V30 397 C 37.1314 1.19937 -1.73719 0
M  V30 398 O 36.4794 1.99918 -1.10657 0
M  V30 399 C 36.6894 -0.723226 -3.41424 0
M  V30 400 C 38.0374 -0.713078 -4.18569 0
M  V30 401 O 39.0614 -0.664811 -3.49941 0
M  V30 402 O 37.9204 -0.772022 -5.41019 0
M  V30 403 H 35.0144 -0.081526 -0.822972 0
M  V30 404 H 37.5604 -0.890962 -1.4443 0
M  V30 405 H 36.3324 -1.76426 -3.4927 0
M  V30 406 H 35.9554 -0.118232 -3.97424 0
M  V30 407 N 36.9525 1.47285 -0.560781 0
M  V30 408 C 37.8845 2.28118 0.222438 0
M  V30 409 C 38.8975 1.37219 0.876056 0
M  V30 410 O 40.0865 1.62011 0.749307 0
M  V30 411 C 37.1865 3.1159 1.33285 0
M  V30 412 C 36.3595 4.30473 0.77534 0
M  V30 413 C 35.4185 4.95513 1.77069 0
M  V30 414 O 34.4445 5.53792 1.31539 0
M  V30 415 N 35.6465 4.90531 3.10418 0
M  V30 416 H 38.4115 2.95976 -0.470958 0
M  V30 417 H 35.9725 1.56955 -0.39709 0
M  V30 418 H 37.9645 3.51967 1.99752 0
M  V30 419 H 36.5345 2.45951 1.92943 0
M  V30 420 H 35.7545 3.94144 -0.0662113 0
M  V30 421 H 37.0425 5.07362 0.382272 0
M  V30 422 H 36.4405 4.44389 3.5005 0
M  V30 423 H 34.9975 5.34917 3.72434 0
M  V30 424 N 38.4306 0.297415 1.54768 0
M  V30 425 C 39.3606 -0.573494 2.26348 0
M  V30 426 C 40.3416 -1.14085 1.26169 0
M  V30 427 O 41.5266 -1.17086 1.54934 0
M  V30 428 C 38.6566 -1.74716 3.00153 0
M  V30 429 C 37.6106 -1.31032 4.07449 0
M  V30 430 C 36.9366 -2.56887 4.68949 0
M  V30 431 C 38.2366 -0.444183 5.20408 0
M  V30 432 H 39.9306 0.0235131 2.99391 0
M  V30 433 H 37.4766 0.0127488 1.43994 0
M  V30 434 H 39.4296 -2.3625 3.48947 0
M  V30 435 H 38.1536 -2.37035 2.24682 0
M  V30 436 H 36.8126 -0.718066 3.59499 0
M  V30 437 H 36.4606 -3.17512 3.90122 0
M  V30 438 H 36.1606 -2.2836 5.41411 0
M  V30 439 H 37.6846 -3.19229 5.20505 0
M  V30 440 H 39.0986 -0.9651 5.65118 0
M  V30 441 H 37.4956 -0.252846 5.99567 0
M  V30 442 H 38.5656 0.531609 4.81977 0
M  V30 443 N 39.9087 -1.5758 0.0250728 0
M  V30 444 C 41.1337 -1.96337 -0.668317 0
M  V30 445 C 41.5587 -0.901314 -1.651 0
M  V30 446 O 40.9167 0.138187 -1.80773 0
M  V30 447 C 40.9647 -3.34191 -1.35457 0
M  V30 448 O 40.0687 -3.30269 -2.46974 0
M  V30 449 H 39.4097 -0.640281 -0.175887 0
M  V30 450 H 41.9397 -2.0442 0.0857224 0
M  V30 451 H 41.9497 -3.70331 -1.71228 0
M  V30 452 H 40.6247 -4.11036 -0.634218 0
M  V30 453 H 39.2017 -3.05841 -2.13344 0
M  V30 454 N 41.3868 0.248026 -1.55636 0
M  V30 455 C 42.3338 1.30707 -1.90222 0
M  V30 456 C 43.3038 1.47881 -0.756332 0
M  V30 457 O 44.4888 1.61883 -1.00988 0
M  V30 458 C 41.6288 2.65769 -2.20138 0
M  V30 459 C 40.7418 2.56612 -3.47526 0
M  V30 460 C 39.8768 3.8402 -3.67017 0
M  V30 461 C 38.9158 3.69476 -4.8801 0
M  V30 462 N 38.0528 4.88774 -5.04029 0
M  V30 463 H 42.8928 1.00512 -2.80538 0
M  V30 464 H 40.4298 0.485055 -1.38873 0
M  V30 465 H 42.3878 3.44386 -2.35487 0
M  V30 466 H 41.0178 2.94115 -1.33027 0
M  V30 467 H 40.0698 1.69571 -3.40514 0
M  V30 468 H 41.3818 2.41774 -4.36287 0
M  V30 469 H 40.5358 4.7108 -3.8232 0
M  V30 470 H 39.2748 4.01754 -2.76487 0
M  V30 471 H 38.2798 2.80799 -4.72686 0
M  V30 472 H 39.5048 3.53238 -5.8 0
M  V30 473 H 37.4508 5.0687 -4.16435 0
M  V30 474 H 37.3678 4.76562 -5.86877 0
M  V30 475 H 38.6358 5.77335 -5.23741 0
M  V30 476 N 42.8649 1.48995 0.513639 0
M  V30 477 C 44.1419 1.48338 1.27495 0
M  V30 478 C 44.5219 0.204065 2.10111 0
M  V30 479 O 43.8699 -0.813881 2.13514 0
M  V30 480 C 44.0799 2.75498 2.14247 0
M  V30 481 C 45.4279 3.24484 2.73852 0
M  V30 482 O 46.4519 2.76528 2.24523 0
M  V30 483 O 45.3109 4.07974 3.6362 0
M  V30 484 H 42.4049 0.593149 0.576284 0
M  V30 485 H 44.9509 1.61246 0.528948 0
M  V30 486 H 43.7229 3.60109 1.53092 0
M  V30 487 H 43.3459 2.6539 2.96064 0
M  V30 488 N 44.343 -0.763751 1.37857 0
M  V30 489 C 45.253 -1.90817 1.36478 0
M  V30 490 C 46.269 -1.71997 0.263248 0
M  V30 491 O 47.445 -1.95095 0.499979 0
M  V30 492 C 44.51 -3.2605 1.17864 0
M  V30 493 C 43.571 -3.57467 2.3773 0
M  V30 494 C 42.804 -4.86249 2.19995 0
M  V30 495 O 43.027 -5.57884 1.18836 0
M  V30 496 O 41.961 -5.16911 3.08361 0
M  V30 497 H 45.787 -1.94933 2.32884 0
M  V30 498 H 43.372 -0.907619 1.1867 0
M  V30 499 H 45.254 -4.06924 1.09504 0
M  V30 500 H 43.929 -3.22769 0.245372 0
M  V30 501 H 42.836 -2.76796 2.51664 0
M  V30 502 H 44.169 -3.655 3.29652 0
M  V30 503 N 45.8211 -1.22559 -0.990812 0
M  V30 504 C 46.7511 -1.0218 -2.09956 0
M  V30 505 C 47.7321 0.0579394 -1.70001 0
M  V30 506 O 48.9171 -0.104684 -1.93918 0
M  V30 507 C 46.0471 -0.601023 -3.4206 0
M  V30 508 C 45.0011 -1.62694 -3.95872 0
M  V30 509 C 44.3271 -1.06193 -5.24049 0
M  V30 510 C 45.6271 -3.01743 -4.2632 0
M  V30 511 H 47.3211 -1.94916 -2.27262 0
M  V30 512 H 44.8671 -0.938566 -1.09211 0
M  V30 513 H 46.8201 -0.445561 -4.19038 0
M  V30 514 H 45.5441 0.362005 -3.24588 0
M  V30 515 H 44.2031 -1.77021 -3.21028 0
M  V30 516 H 43.8511 -0.0901903 -5.02919 0
M  V30 517 H 43.5511 -1.74732 -5.61019 0
M  V30 518 H 45.0751 -0.918092 -6.03658 0
M  V30 519 H 46.4891 -2.90777 -4.94087 0
M  V30 520 H 44.8861 -3.67425 -4.74467 0
M  V30 521 H 45.9561 -3.51518 -3.34011 0
M  V30 522 N 47.2992 1.18797 -1.03562 0
M  V30 523 C 48.2462 2.22253 -0.622259 0
M  V30 524 C 49.2162 1.61987 0.36736 0
M  V30 525 O 50.4012 1.88986 0.262492 0
M  V30 526 C 47.5412 3.45097 0.0138462 0
M  V30 527 C 46.6542 4.19722 -1.02263 0
M  V30 528 C 45.7892 5.30009 -0.355573 0
M  V30 529 C 44.8282 5.96399 -1.37749 0
M  V30 530 N 43.9652 6.98234 -0.735766 0
M  V30 531 H 48.8052 2.56968 -1.50903 0
M  V30 532 H 46.3422 1.26245 -0.755017 0
M  V30 533 H 48.3002 4.15279 0.399948 0
M  V30 534 H 46.9302 3.11018 0.864158 0
M  V30 535 H 45.9822 3.48418 -1.52673 0
M  V30 536 H 47.2942 4.65227 -1.79903 0
M  V30 537 H 46.4482 6.0664 0.0850095 0
M  V30 538 H 45.1872 4.85592 0.452967 0
M  V30 539 H 44.1922 5.18512 -1.82826 0
M  V30 540 H 45.4172 6.42899 -2.18764 0
M  V30 541 H 43.3632 6.55979 0.0525597 0
M  V30 542 H 43.2802 7.41965 -1.44995 0
M  V30 543 H 44.5482 7.78845 -0.31941 0
M  V30 544 N 48.7773 0.814389 1.34928 0
M  V30 545 C 49.7073 0.244827 2.32213 0
M  V30 546 C 50.6883 -0.634024 1.57842 0
M  V30 547 O 51.8733 -0.562676 1.8587 0
M  V30 548 C 49.0033 -0.601106 3.42058 0
M  V30 549 C 47.9573 0.179896 4.27622 0
M  V30 550 C 47.2833 -0.788237 5.28858 0
M  V30 551 C 48.5833 1.38329 5.03649 0
M  V30 552 H 50.2773 1.05763 2.80097 0
M  V30 553 H 47.8233 0.510029 1.34665 0
M  V30 554 H 49.7763 -1.00968 4.09125 0
M  V30 555 H 48.5003 -1.44688 2.92802 0
M  V30 556 H 47.1593 0.569739 3.62146 0
M  V30 557 H 46.8073 -1.62973 4.75866 0
M  V30 558 H 46.5073 -0.269942 5.8698 0
M  V30 559 H 48.0313 -1.19485 5.98795 0
M  V30 560 H 49.4453 1.04918 5.63618 0
M  V30 561 H 47.8423 1.83662 5.71304 0
M  V30 562 H 48.9123 2.16592 4.33839 0
M  V30 563 N 50.2554 -1.46986 0.568584 0
M  V30 564 C 51.1854 -2.32946 -0.160753 0
M  V30 565 C 52.1664 -1.44487 -0.897631 0
M  V30 566 O 53.3514 -1.73327 -0.875867 0
M  V30 567 C 50.4814 -3.26494 -1.18403 0
M  V30 568 C 49.4354 -4.24282 -0.562895 0
M  V30 569 C 48.7614 -5.07236 -1.69163 0
M  V30 570 C 50.0614 -5.19989 0.490761 0
M  V30 571 H 51.7554 -2.94175 0.556916 0
M  V30 572 H 49.3014 -1.4146 0.26927 0
M  V30 573 H 51.2544 -3.85477 -1.70251 0
M  V30 574 H 49.9784 -2.63343 -1.93179 0
M  V30 575 H 48.6374 -3.66541 -0.0656164 0
M  V30 576 H 48.2854 -4.4048 -2.42871 0
M  V30 577 H 47.9854 -5.7345 -1.28174 0
M  V30 578 H 49.5094 -5.6908 -2.21314 0
M  V30 579 H 50.9234 -5.73271 0.0579047 0
M  V30 580 H 49.3204 -5.94469 0.820165 0
M  V30 581 H 50.3904 -4.64777 1.3824 0
M  V30 582 N 51.7335 -0.305618 -1.54608 0
M  V30 583 C 52.9825 0.303098 -1.9941 0
M  V30 584 C 53.2955 1.54648 -1.19764 0
M  V30 585 O 54.5015 2.23007 -1.54855 0
M  V30 586 C 52.9575 0.590588 -3.55021 0
M  V30 587 C 52.5655 -0.634719 -4.43481 0
M  V30 588 C 54.3095 1.16025 -4.08336 0
M  V30 589 C 52.2165 -0.320126 -5.90533 0
M  V30 590 H 51.1465 0.117031 -0.744862 0
M  V30 591 H 53.7975 -0.415045 -1.78745 0
M  V30 592 H 52.1795 1.36845 -3.71604 0
M  V30 593 H 53.3535 -1.41079 -4.38672 0
M  V30 594 H 51.6685 -1.12333 -4.00962 0
M  V30 595 H 54.2655 1.40994 -5.15776 0
M  V30 596 H 54.6085 2.10397 -3.5922 0
M  V30 597 H 55.1415 0.443985 -3.95315 0
M  V30 598 H 51.8805 -1.23254 -6.43808 0
M  V30 599 H 51.4005 0.418579 -5.98338 0
M  V30 600 H 53.0795 0.0766241 -6.46955 0
M  V30 601 N 53.2116 1.57565 -0.0334293 0
M  V30 602 C 54.1436 2.0739 0.975811 0
M  V30 603 C 55.1566 0.998166 1.2861 0
M  V30 604 O 56.3456 1.27426 1.25 0
M  V30 605 C 53.4456 2.4871 2.30209 0
M  V30 606 C 52.6186 3.79413 2.17634 0
M  V30 607 C 51.6776 4.07237 3.33233 0
M  V30 608 O 50.7036 4.77425 3.09927 0
M  V30 609 N 51.9056 3.5775 4.5716 0
M  V30 610 H 54.6706 2.94598 0.55066 0
M  V30 611 H 52.2316 1.61173 0.15323 0
M  V30 612 H 54.2236 2.64413 3.06378 0
M  V30 613 H 52.7936 1.66845 2.64351 0
M  V30 614 H 52.0136 3.73465 1.26165 0
M  V30 615 H 53.3016 4.65038 2.0644 0
M  V30 616 H 52.6996 3.00976 4.78989 0
M  V30 617 H 51.2566 3.78724 5.30482 0
M  V30 618 N 54.6897 -0.239769 1.55765 0
M  V30 619 C 55.6527 -1.28038 1.90103 0
M  V30 620 C 56.6527 -1.40723 0.778055 0
M  V30 621 O 57.8427 -1.39301 1.04599 0
M  V30 622 C 54.9747 -2.65702 2.13577 0
M  V30 623 H 56.1677 -0.988048 2.83157 0
M  V30 624 H 53.7207 -0.479382 1.48767 0
M  V30 625 H 54.4557 -3.00063 1.23015 0
M  V30 626 H 54.2407 -2.57875 2.95369 0
M  V30 627 H 55.7307 -3.40828 2.41301 0
M  V30 628 N 56.1678 -1.49265 -0.50573 0
M  V30 629 C 57.0778 -1.68312 -1.63427 0
M  V30 630 C 58.0938 -0.565682 -1.64548 0
M  V30 631 O 59.2698 -0.839801 -1.83055 0
M  V30 632 C 56.3348 -1.74107 -2.99813 0
M  V30 633 C 55.3958 -2.97653 -3.09356 0
M  V30 634 C 54.6288 -3.03163 -4.39236 0
M  V30 635 O 54.8518 -2.16396 -5.27758 0
M  V30 636 O 53.7858 -3.9558 -4.53652 0
M  V30 637 H 57.6118 -2.63907 -1.50289 0
M  V30 638 H 55.1968 -1.32951 -0.681502 0
M  V30 639 H 57.0788 -1.803 -3.80881 0
M  V30 640 H 55.7538 -0.816901 -3.13223 0
M  V30 641 H 54.6608 -2.96981 -2.27493 0
M  V30 642 H 55.9938 -3.89535 -3.00871 0
M  V30 643 N 57.6459 0.756429 -1.3826 0
M  V30 644 C 58.8929 1.51547 -1.34312 0
M  V30 645 C 59.2209 1.94382 0.0677144 0
M  V30 646 O 58.4759 1.65514 1.04421 0
M  V30 647 C 58.7749 2.78313 -2.24224 0
M  V30 648 C 58.4409 2.54455 -3.72241 0
M  V30 649 C 57.1029 2.47657 -4.12576 0
M  V30 650 C 59.4549 2.3354 -4.65949 0
M  V30 651 C 56.7829 2.17956 -5.44713 0
M  V30 652 C 59.1349 2.05359 -5.9834 0
M  V30 653 C 57.7989 1.97016 -6.37762 0
M  V30 654 H 57.0689 0.55455 -0.491482 0
M  V30 655 H 59.7159 0.870039 -1.70595 0
M  V30 656 H 58.0209 3.47492 -1.80987 0
M  V30 657 H 59.7179 3.36259 -2.18474 0
M  V30 658 H 56.3079 2.60616 -3.40261 0
M  V30 659 H 60.4919 2.37772 -4.35635 0
M  V30 660 H 55.7479 2.10003 -5.74203 0
M  V30 661 H 59.9219 1.88179 -6.70494 0
M  V30 662 H 57.5489 1.73766 -7.40074 0
M  V30 663 N 59.124 1.23083 0.984299 0
M  V30 664 C 60.535 1.05609 1.5396 0
M  V30 665 C 60.886 -0.377793 1.92528 0
M  V30 666 O 60.011 -1.26398 1.75649 0
M  V30 667 C 60.606 1.91087 2.7977 0
M  V30 668 C 59.165 1.77885 3.31713 0
M  V30 669 C 58.312 1.87028 2.04733 0
M  V30 670 H 61.263 1.36802 0.804419 0
M  V30 671 H 61.284 1.43336 3.5247 0
M  V30 672 H 60.796 2.9544 2.51668 0
M  V30 673 H 58.897 0.762995 3.64704 0
M  V30 674 H 59.01 2.61047 4.01735 0
M  V30 675 H 57.374 1.30565 2.18689 0
M  V30 676 H 58.157 2.92929 1.79017 0
M  V30 677 N 60.6021 -1.18246 1.0419 0
M  V30 678 C 61.8271 -1.92736 0.765996 0
M  V30 679 C 62.2521 -1.75728 -0.67091 0
M  V30 680 O 61.6101 -1.06825 -1.46486 0
M  V30 681 C 61.6581 -3.42148 1.13875 0
M  V30 682 O 60.7621 -4.11548 0.264954 0
M  V30 683 H 60.1031 -0.601238 0.281797 0
M  V30 684 H 62.6331 -1.49942 1.39207 0
M  V30 685 H 62.6431 -3.92858 1.1012 0
M  V30 686 H 61.3181 -3.53848 2.18551 0
M  V30 687 H 59.8951 -3.71137 0.362226 0
M  V30 688 N 62.0802 -0.821533 -1.34494 0
M  V30 689 C 63.0102 -0.257138 -2.3208 0
M  V30 690 C 63.9912 0.625645 -1.58176 0
M  V30 691 O 65.1762 0.552811 -1.86166 0
M  V30 692 C 62.3062 0.582958 -3.42372 0
M  V30 693 C 61.2602 -0.202571 -4.2752 0
M  V30 694 C 60.5862 0.760179 -5.29269 0
M  V30 695 C 61.8862 -1.40998 -5.02908 0
M  V30 696 H 63.5802 -1.07247 -2.79532 0
M  V30 697 H 61.1262 -0.517163 -1.34393 0
M  V30 698 H 63.0792 0.987972 -4.09655 0
M  V30 699 H 61.8032 1.43133 -2.93565 0
M  V30 700 H 60.4622 -0.588936 -3.61838 0
M  V30 701 H 60.1102 1.60447 -4.76724 0
M  V30 702 H 59.8102 0.238809 -5.87115 0
M  V30 703 H 61.3342 1.16308 -5.9942 0
M  V30 704 H 62.7482 -1.07905 -5.63054 0
M  V30 705 H 61.1452 -1.86689 -5.70322 0
M  V30 706 H 62.2152 -2.1889 -4.32684 0
M  V30 707 N 63.5583 1.46682 -0.576371 0
M  V30 708 C 64.4883 2.33028 0.148397 0
M  V30 709 C 65.4693 1.44961 0.889956 0
M  V30 710 O 66.6543 1.73789 0.866662 0
M  V30 711 C 63.7843 3.27117 1.1667 0
M  V30 712 C 62.7383 4.24575 0.540386 0
M  V30 713 C 62.0643 5.08126 1.6647 0
M  V30 714 C 63.3643 5.19722 -0.518331 0
M  V30 715 H 65.0583 2.93875 -0.572509 0
M  V30 716 H 62.6043 1.41315 -0.276768 0
M  V30 717 H 64.5573 3.86374 1.68204 0
M  V30 718 H 63.2813 2.64364 1.9178 0
M  V30 719 H 61.9403 3.66571 0.0461769 0
M  V30 720 H 61.5883 4.41762 2.40531 0
M  V30 721 H 61.2883 5.74122 1.25131 0
M  V30 722 H 62.8123 5.70246 2.18293 0
M  V30 723 H 64.2263 5.73232 -0.0883058 0
M  V30 724 H 62.6233 5.94026 -0.851679 0
M  V30 725 H 63.6933 4.64037 -1.40703 0
M  V30 726 N 65.0364 0.313813 1.54444 0
M  V30 727 C 65.9834 -0.55655 2.23989 0
M  V30 728 C 66.9534 -1.11943 1.22711 0
M  V30 729 O 68.1384 -1.16158 1.51367 0
M  V30 730 C 65.2784 -1.71635 2.99392 0
M  V30 731 C 64.3914 -1.18364 4.15468 0
M  V30 732 C 63.5264 -2.30834 4.78424 0
M  V30 733 C 62.5654 -1.74762 5.86622 0
M  V30 734 N 61.7024 -2.80855 6.43479 0
M  V30 735 H 66.5424 0.0430893 2.97969 0
M  V30 736 H 64.0794 0.0330359 1.47063 0
M  V30 737 H 66.0374 -2.39868 3.41349 0
M  V30 738 H 64.6674 -2.28742 2.27765 0
M  V30 739 H 63.7194 -0.393163 3.78363 0
M  V30 740 H 65.0314 -0.733262 4.93381 0
M  V30 741 H 64.1854 -3.0699 5.23299 0
M  V30 742 H 62.9244 -2.79204 3.99871 0
M  V30 743 H 61.9294 -0.970995 5.41158 0
M  V30 744 H 63.1544 -1.2728 6.67066 0
M  V30 745 H 61.1004 -3.28535 5.67804 0
M  V30 746 H 61.0174 -2.40351 7.16776 0
M  V30 747 H 62.2854 -3.5687 6.93011 0
M  V30 748 N 66.5145 -1.57545 0.0417849 0
M  V30 749 C 67.7625 -1.91937 -0.632829 0
M  V30 750 C 68.0835 -0.919978 -1.71934 0
M  V30 751 O 67.3535 0.0366064 -1.95866 0
M  V30 752 H 65.9335 -0.708493 -0.236742 0
M  V30 753 H 68.5955 -1.9468 0.0925745 0
M  V30 754 H 67.6915 -2.92912 -1.07746 0
M  V30 755 N 67.9926 0.231505 -1.5589 0
M  V30 756 C 69.4036 0.799327 -1.68724 0
M  V30 757 C 69.7546 1.85398 -0.642022 0
M  V30 758 O 68.8796 2.1539 0.208784 0
M  V30 759 C 69.4746 1.45664 -3.05888 0
M  V30 760 C 68.0336 1.97197 -3.20609 0
M  V30 761 C 67.1806 0.828552 -2.64632 0
M  V30 762 H 70.1316 0.00702616 -1.58698 0
M  V30 763 H 70.1526 2.32517 -3.01191 0
M  V30 764 H 69.6646 0.688808 -3.81939 0
M  V30 765 H 67.7656 2.76813 -2.4941 0
M  V30 766 H 67.8786 2.15878 -4.27707 0
M  V30 767 H 66.2426 1.23321 -2.22854 0
M  V30 768 H 67.0256 0.0735544 -3.43221 0
M  V30 769 N 69.4707 1.49531 0.497807 0
M  V30 770 C 70.4187 1.66926 1.61983 0
M  V30 771 C 71.4127 0.535167 1.60724 0
M  V30 772 O 72.6187 0.714896 1.65195 0
M  V30 773 H 68.9937 0.526415 0.537021 0
M  V30 774 H 70.9647 2.61098 1.44465 0
M  V30 775 C 69.7137 1.75602 3.00099 0
M  V30 776 H 69.0367 2.62244 3.01775 0
M  V30 777 H 70.4767 1.91807 3.78135 0
M  V30 778 C 68.9357 0.501543 3.33146 0
M  V30 779 O 69.4657 -0.371342 3.9998 0
M  V30 780 N 67.6717 0.363531 2.88317 0
M  V30 781 H 67.2187 1.07485 2.34104 0
M  V30 782 H 67.1767 -0.474728 3.10795 0
M  V30 783 N 70.9488 -0.749086 1.3866 0
M  V30 784 C 72.1768 -1.53834 1.38358 0
M  V30 785 C 72.5918 -1.88783 -0.0255219 0
M  V30 786 O 71.9488 -1.53101 -0.993292 0
M  V30 787 C 71.9998 -2.83468 2.2434 0
M  V30 788 O 71.7208 -2.50008 3.5976 0
M  V30 789 C 73.2218 -3.7758 2.32267 0
M  V30 790 H 70.4418 -0.47585 0.473083 0
M  V30 791 H 72.9858 -0.926726 1.82297 0
M  V30 792 H 71.1408 -3.40995 1.83851 0
M  V30 793 H 71.5548 -3.33182 4.05081 0
M  V30 794 H 73.0288 -4.65478 2.96706 0
M  V30 795 H 73.5058 -4.18334 1.33765 0
M  V30 796 H 74.1118 -3.25976 2.73166 0
M  V30 797 N 72.4269 -1.23603 -0.977757 0
M  V30 798 C 73.3569 -1.04401 -2.0886 0
M  V30 799 C 74.3379 0.0399052 -1.70053 0
M  V30 800 O 75.5229 -0.125246 -1.93796 0
M  V30 801 C 72.6529 -0.637269 -3.41403 0
M  V30 802 C 71.6069 -1.66883 -3.94124 0
M  V30 803 C 70.9329 -1.11745 -5.22893 0
M  V30 804 C 72.2329 -3.06247 -4.23096 0
M  V30 805 H 73.9269 -1.97316 -2.25182 0
M  V30 806 H 71.4729 -0.950096 -1.08209 0
M  V30 807 H 73.4259 -0.48998 -4.18542 0
M  V30 808 H 72.1499 0.327557 -3.24953 0
M  V30 809 H 70.8089 -1.80416 -3.19133 0
M  V30 810 H 70.4569 -0.143527 -5.02795 0
M  V30 811 H 70.1569 -1.80672 -5.59134 0
M  V30 812 H 71.6809 -0.982067 -6.02651 0
M  V30 813 H 73.0949 -2.96001 -4.90975 0
M  V30 814 H 71.4919 -3.72436 -4.70544 0
M  V30 815 H 72.5619 -3.55041 -3.30263 0
M  V30 816 N 73.905 1.17692 -1.04816 0
M  V30 817 C 75.182 1.83768 -0.669963 0
M  V30 818 C 75.562 1.93232 0.849986 0
M  V30 819 O 74.91 1.46397 1.75443 0
M  V30 820 C 75.12 3.21641 -1.35455 0
M  V30 821 C 76.468 3.97592 -1.49017 0
M  V30 822 O 77.492 3.31107 -1.31326 0
M  V30 823 O 76.351 5.16729 -1.77914 0
M  V30 824 H 73.445 0.792799 -0.235368 0
M  V30 825 H 75.991 1.25021 -1.14751 0
M  V30 826 H 74.763 3.097 -2.39168 0
M  V30 827 H 74.386 3.88052 -0.866107 0
M  V30 828 N 75.3831 0.828654 1.34056 0
M  V30 829 C 76.6601 0.341809 1.9259 0
M  V30 830 C 77.0401 -1.17158 1.75605 0
M  V30 831 O 76.3881 -1.98132 1.13824 0
M  V30 832 C 76.5981 0.777453 3.4023 0
M  V30 833 C 77.9461 0.779579 4.17382 0
M  V30 834 O 78.9701 0.7204 3.48839 0
M  V30 835 O 77.8291 0.857996 5.39723 0
M  V30 836 H 74.9231 0.0946085 0.821571 0
M  V30 837 H 77.4691 0.913827 1.42994 0
M  V30 838 H 76.2411 1.8196 3.46419 0
M  V30 839 H 75.8641 0.181444 3.97186 0
M  V30 840 N 76.8612 -1.46375 0.584142 0
M  V30 841 C 77.7912 -2.33103 -0.136037 0
M  V30 842 C 78.7722 -1.45431 -0.882255 0
M  V30 843 O 79.9572 -1.74246 -0.857434 0
M  V30 844 C 77.0872 -3.27731 -1.14933 0
M  V30 845 C 76.0412 -4.24855 -0.517862 0
M  V30 846 C 75.3672 -5.09001 -1.63773 0
M  V30 847 C 76.6672 -5.19439 0.545886 0
M  V30 848 H 78.3612 -2.93568 0.588086 0
M  V30 849 H 75.9072 -1.41166 0.284259 0
M  V30 850 H 77.8602 -3.87261 -1.66153 0
M  V30 851 H 76.5842 -2.65377 -1.90375 0
M  V30 852 H 75.2432 -3.6659 -0.0267361 0
M  V30 853 H 74.8912 -4.43031 -2.38185 0
M  V30 854 H 74.5912 -5.74777 -1.22085 0
M  V30 855 H 76.1152 -5.71396 -2.15266 0
M  V30 856 H 77.5292 -5.73177 0.118704 0
M  V30 857 H 75.9262 -5.93566 0.88317 0
M  V30 858 H 76.9962 -4.63285 1.43162 0
M  V30 859 N 78.3393 -0.321999 -1.54275 0
M  V30 860 C 79.5863 0.281044 -2.0054 0
M  V30 861 C 79.9143 1.52265 -1.21019 0
M  V30 862 O 79.1693 1.93687 -0.279982 0
M  V30 863 C 79.4683 0.661769 -3.5122 0
M  V30 864 C 79.1343 -0.480482 -4.48333 0
M  V30 865 C 77.7963 -0.794005 -4.74604 0
M  V30 866 C 80.1483 -1.24783 -5.06042 0
M  V30 867 C 77.4763 -1.87763 -5.55844 0
M  V30 868 C 79.8283 -2.32153 -5.88462 0
M  V30 869 C 78.4923 -2.64089 -6.13036 0
M  V30 870 H 77.7623 0.102841 -0.733829 0
M  V30 871 H 80.4093 -0.445453 -1.86247 0
M  V30 872 H 78.7143 1.46867 -3.63232 0
M  V30 873 H 80.4113 1.13989 -3.84457 0
M  V30 874 H 77.0013 -0.226039 -4.28004 0
M  V30 875 H 81.1853 -1.01887 -4.85729 0
M  V30 876 H 76.4413 -2.12954 -5.73115 0
M  V30 877 H 80.6153 -2.92057 -6.32199 0
M  V30 878 H 78.2423 -3.48185 -6.75775 0
M  V30 879 N 79.8174 1.5752 -0.0501392 0
M  V30 880 C 80.7494 2.08413 0.95376 0
M  V30 881 C 81.7624 1.01175 1.27544 0
M  V30 882 O 82.9514 1.28744 1.23641 0
M  V30 883 C 80.0514 2.51138 2.27559 0
M  V30 884 C 79.2244 3.817 2.13598 0
M  V30 885 C 78.2834 4.10749 3.28895 0
M  V30 886 O 77.3094 4.80685 3.04845 0
M  V30 887 N 78.5114 3.62579 4.5334 0
M  V30 888 H 81.2764 2.95165 0.519383 0
M  V30 889 H 78.8374 1.61327 0.136127 0
M  V30 890 H 80.8294 2.67648 3.03557 0
M  V30 891 H 79.3994 1.6964 2.62567 0
M  V30 892 H 78.6194 3.74782 1.22197 0
M  V30 893 H 79.9074 4.67201 2.01496 0
M  V30 894 H 79.3054 3.06039 4.75769 0
M  V30 895 H 77.8624 3.84329 5.26436 0
M  V30 896 N 81.2955 -0.223234 1.56011 0
M  V30 897 C 82.2055 -1.29766 1.95443 0
M  V30 898 C 83.2215 -1.51373 0.858028 0
M  V30 899 O 84.3975 -1.64536 1.16146 0
M  V30 900 C 81.4625 -2.62772 2.26167 0
M  V30 901 C 80.5235 -2.49482 3.49367 0
M  V30 902 C 79.7565 -3.76145 3.78616 0
M  V30 903 O 79.9795 -4.79087 3.09568 0
M  V30 904 O 78.9135 -3.73358 4.72109 0
M  V30 905 H 82.7395 -0.99309 2.87004 0
M  V30 906 H 80.3245 -0.425958 1.43199 0
M  V30 907 H 82.2065 -3.41327 2.47131 0
M  V30 908 H 80.8815 -2.92913 1.37781 0
M  V30 909 H 79.7885 -1.69133 3.33684 0
M  V30 910 H 81.1215 -2.2428 4.38131 0
M  V30 911 N 82.7736 -1.49793 -0.48987 0
M  V30 912 C 83.7036 -1.70201 -1.59856 0
M  V30 913 C 84.6846 -0.55076 -1.60937 0
M  V30 914 O 85.8696 -0.787841 -1.77501 0
M  V30 915 C 82.9996 -1.77882 -2.98287 0
M  V30 916 C 81.9536 -2.92907 -3.12073 0
M  V30 917 C 81.2796 -2.85712 -4.51965 0
M  V30 918 C 82.5796 -4.3369 -2.91051 0
M  V30 919 H 84.2736 -2.63025 -1.43032 0
M  V30 920 H 81.8196 -1.26574 -0.686664 0
M  V30 921 H 83.7726 -1.90744 -3.75759 0
M  V30 922 H 82.4966 -0.816653 -3.16225 0
M  V30 923 H 81.1556 -2.79665 -2.37029 0
M  V30 924 H 80.8036 -1.8738 -4.66795 0
M  V30 925 H 80.5036 -3.62921 -4.62128 0
M  V30 926 H 82.0276 -3.00598 -5.31482 0
M  V30 927 H 83.4416 -4.47555 -3.58284 0
M  V30 928 H 81.8386 -5.12205 -3.12675 0
M  V30 929 H 82.9086 -4.47362 -1.87071 0
M  V30 930 N 84.2517 0.741722 -1.39055 0
M  V30 931 C 85.5287 1.49252 -1.26425 0
M  V30 932 C 85.9087 2.10705 0.129144 0
M  V30 933 O 85.2567 1.98045 1.13976 0
M  V30 934 C 85.4667 2.54934 -2.38347 0
M  V30 935 C 86.8147 3.21506 -2.77343 0
M  V30 936 O 87.8387 2.65245 -2.37747 0
M  V30 937 O 86.6977 4.23294 -3.45665 0
M  V30 938 H 83.7917 0.662451 -0.495064 0
M  V30 939 H 86.3377 0.776121 -1.50912 0
M  V30 940 H 85.1097 2.07857 -3.31529 0
M  V30 941 H 84.7327 3.34141 -2.15489 0
M  V30 942 N 85.7298 1.2412 0.971189 0
M  V30 943 C 86.6768 1.0305 2.06517 0
M  V30 944 C 87.6468 -0.0550666 1.66009 0
M  V30 945 O 88.8318 0.0988688 1.90544 0
M  V30 946 C 85.9718 0.637653 3.39158 0
M  V30 947 C 85.0848 1.79633 3.92882 0
M  V30 948 C 84.2198 1.34939 5.13775 0
M  V30 949 C 83.2588 2.47823 5.59687 0
M  V30 950 N 82.3958 2.04022 6.71803 0
M  V30 951 H 87.2358 1.96685 2.23873 0
M  V30 952 H 84.7728 0.979694 1.09729 0
M  V30 953 H 86.7308 0.390931 4.15364 0
M  V30 954 H 85.3608 -0.261693 3.21737 0
M  V30 955 H 84.4128 2.15681 3.13346 0
M  V30 956 H 85.7248 2.64466 4.22918 0
M  V30 957 H 84.8788 1.06134 5.97345 0
M  V30 958 H 83.6178 0.471557 4.85415 0
M  V30 959 H 82.6228 2.77392 4.74693 0
M  V30 960 H 83.8478 3.36158 5.90063 0
M  V30 961 H 81.7938 1.18632 6.45184 0
M  V30 962 H 81.7108 2.82409 7.01271 0
M  V30 963 H 82.9788 1.78347 7.58823 0
M  V30 964 N 87.2079 -1.17134 1.05439 0
M  V30 965 C 88.1559 -2.23289 0.651511 0
M  V30 966 C 89.1499 -1.66186 -0.328411 0
M  V30 967 O 90.3559 -1.78949 -0.194206 0
M  V30 968 H 86.7309 -0.726938 0.192523 0
M  V30 969 H 88.7019 -2.54565 1.55689 0
M  V30 970 C 87.4509 -3.47671 0.0448436 0
M  V30 971 H 86.7739 -3.91918 0.78996 0
M  V30 972 H 88.2139 -4.2353 -0.19964 0
M  V30 973 C 86.6729 -3.14453 -1.20918 0
M  V30 974 O 87.2029 -3.29459 -2.29825 0
M  V30 975 N 85.4089 -2.68657 -1.10779 0
M  V30 976 H 84.9559 -2.56646 -0.221526 0
M  V30 977 H 84.9139 -2.46804 -1.9477 0
M  V30 978 N 88.686 -0.835752 -1.33615 0
M  V30 979 C 89.934 -0.429109 -1.97492 0
M  V30 980 C 90.255 1.01433 -1.66543 0
M  V30 981 O 89.525 1.70611 -0.962744 0
M  V30 982 H 88.105 -0.155686 -0.730596 0
M  V30 983 H 90.767 -1.06802 -1.63031 0
M  V30 984 H 89.863 -0.55861 -3.0706 0
M  V30 985 N 90.1641 1.46063 -0.591896 0
M  V30 986 C 91.4411 1.95595 -0.0137119 0
M  V30 987 C 91.8211 1.5345 1.4497 0
M  V30 988 O 91.1691 0.789543 2.14426 0
M  V30 989 C 91.3791 3.48453 -0.195373 0
M  V30 990 C 92.7271 4.24546 -0.0679765 0
M  V30 991 O 93.7511 3.55982 -0.124681 0
M  V30 992 O 92.6101 5.46467 0.0600579 0
M  V30 993 H 89.7041 0.825795 0.0446279 0
M  V30 994 H 92.2501 1.56303 -0.660859 0
M  V30 995 H 91.0221 3.72045 -1.21235 0
M  V30 996 H 90.6451 3.94597 0.487775 0
M  V30 997 N 91.6422 0.330177 1.54103 0
M  V30 998 C 92.8902 -0.269871 2.0029 0
M  V30 999 C 93.2112 -1.52133 1.21986 0
M  V30 1000 O 92.4812 -1.93212 0.323438 0
M  V30 1001 H 91.0612 -0.10271 0.739905 0
M  V30 1002 H 93.7232 0.448249 1.89675 0
M  V30 1003 H 92.8192 -0.52166 3.07709 0
M  V30 1004 N 93.1203 -1.57491 0.0584922 0
M  V30 1005 C 94.0303 -2.15448 -0.928414 0
M  V30 1006 C 95.0463 -1.11416 -1.3365 0
M  V30 1007 O 96.2223 -1.4362 -1.41193 0
M  V30 1008 C 93.2873 -2.69393 -2.18239 0
M  V30 1009 C 92.3483 -3.88249 -1.83196 0
M  V30 1010 C 91.5813 -4.39613 -3.02616 0
M  V30 1011 O 91.8043 -3.90023 -4.16219 0
M  V30 1012 O 90.7383 -5.31111 -2.83204 0
M  V30 1013 H 94.5643 -3.00112 -0.465483 0
M  V30 1014 H 92.1493 -1.48499 -0.163826 0
M  V30 1015 H 94.0313 -3.04026 -2.91798 0
M  V30 1016 H 92.7063 -1.87796 -2.63656 0
M  V30 1017 H 91.6133 -3.58492 -1.06931 0
M  V30 1018 H 92.9463 -4.71098 -1.42573 0
M  V30 1019 N 94.5984 0.214957 -1.56127 0
M  V30 1020 C 95.8444 0.939762 -1.79712 0
M  V30 1021 C 96.1774 1.83723 -0.629247 0
M  V30 1022 O 95.4524 1.90925 0.371197 0
M  V30 1023 C 95.7354 1.77306 -3.13424 0
M  V30 1024 C 95.5884 0.90164 -4.40671 0
M  V30 1025 C 96.9074 2.74956 -3.43638 0
M  V30 1026 H 94.0264 0.340214 -0.653776 0
M  V30 1027 H 96.6684 0.20824 -1.88855 0
M  V30 1028 H 94.8184 2.39673 -3.0576 0
M  V30 1029 H 96.4904 0.294206 -4.60361 0
M  V30 1030 H 94.7334 0.207368 -4.33304 0
M  V30 1031 H 95.4044 1.51923 -5.30682 0
M  V30 1032 H 97.8804 2.22724 -3.51473 0
M  V30 1033 H 96.7564 3.30358 -4.38355 0
M  V30 1034 H 97.0174 3.53023 -2.66134 0
M  V30 1035 N 96.0765 1.50051 0.48192 0
M  V30 1036 C 97.3015 1.64508 1.26301 0
M  V30 1037 C 97.7265 0.323851 1.85291 0
M  V30 1038 O 97.0845 -0.710969 1.66778 0
M  V30 1039 C 97.1325 2.7305 2.35533 0
M  V30 1040 O 96.2365 2.3355 3.39895 0
M  V30 1041 H 95.5775 0.549978 0.372048 0
M  V30 1042 H 98.1075 1.9636 0.574786 0
M  V30 1043 H 98.1175 2.95799 2.8101 0
M  V30 1044 H 96.7925 3.68946 1.91967 0
M  V30 1045 H 95.3695 2.21205 3.00204 0
M  V30 1046 N 97.5546 -0.734337 1.39446 0
M  V30 1047 C 98.8016 -1.49391 1.36706 0
M  V30 1048 C 99.1296 -1.94465 -0.0367813 0
M  V30 1049 O 98.3846 -1.67154 -1.01774 0
M  V30 1050 C 98.6836 -2.74711 2.28623 0
M  V30 1051 C 98.3496 -2.48501 3.76242 0
M  V30 1052 C 97.0116 -2.41062 4.16464 0
M  V30 1053 C 99.3636 -2.26098 4.69606 0
M  V30 1054 C 96.6916 -2.09262 5.48112 0
M  V30 1055 C 99.0436 -1.95814 6.01531 0
M  V30 1056 C 97.7076 -1.86845 6.40816 0
M  V30 1057 H 96.9776 -0.546661 0.500243 0
M  V30 1058 H 99.6246 -0.842788 1.71957 0
M  V30 1059 H 97.9296 -3.44569 1.86492 0
M  V30 1060 H 99.6266 -3.32741 2.23796 0
M  V30 1061 H 96.2166 -2.55169 3.44364 0
M  V30 1062 H 100.401 -2.30812 4.39363 0
M  V30 1063 H 95.6566 -2.00841 5.77471 0
M  V30 1064 H 99.8306 -1.77488 6.73403 0
M  V30 1065 H 97.4576 -1.6197 7.42745 0
M  V30 1066 N 99.0327 -1.24633 -0.964593 0
M  V30 1067 C 99.9427 -1.05859 -2.09359 0
M  V30 1068 C 100.959 0.00148855 -1.74 0
M  V30 1069 O 102.135 -0.197346 -2.00431 0
M  V30 1070 C 99.1997 -0.668879 -3.40187 0
M  V30 1071 C 98.2607 -1.80578 -3.89474 0
M  V30 1072 C 97.4937 -1.43457 -5.14058 0
M  V30 1073 O 97.7167 -0.325775 -5.69469 0
M  V30 1074 O 96.6507 -2.2613 -5.57807 0
M  V30 1075 H 100.477 -2.00516 -2.28094 0
M  V30 1076 H 98.0617 -1.03481 -1.0776 0
M  V30 1077 H 99.9437 -0.463211 -4.18846 0
M  V30 1078 H 98.6187 0.248536 -3.22744 0
M  V30 1079 H 97.5257 -2.06623 -3.11862 0
M  V30 1080 H 98.8587 -2.70208 -4.11398 0
M  V30 1081 N 100.511 1.16574 -1.06058 0
M  V30 1082 C 101.421 2.2452 -0.680282 0
M  V30 1083 C 102.437 1.71348 0.302604 0
M  V30 1084 O 103.613 2.00822 0.152513 0
M  V30 1085 C 100.678 3.46629 -0.0700315 0
M  V30 1086 C 99.7388 4.14849 -1.10448 0
M  V30 1087 C 98.9718 5.31129 -0.523256 0
M  V30 1088 O 99.1948 5.66514 0.664709 0
M  V30 1089 O 98.1288 5.88526 -1.26179 0
M  V30 1090 H 101.955 2.59355 -1.58015 0
M  V30 1091 H 99.5398 1.24043 -0.832694 0
M  V30 1092 H 101.422 4.20543 0.268667 0
M  V30 1093 H 100.097 3.13573 0.803353 0
M  V30 1094 H 99.0038 3.42916 -1.49532 0
M  V30 1095 H 100.337 4.51954 -1.94931 0
M  V30 1096 N 101.989 0.842826 1.3317 0
M  V30 1097 C 103.236 0.440447 1.97652 0
M  V30 1098 C 103.564 -1.00123 1.6675 0
M  V30 1099 O 102.819 -1.7155 0.941761 0
M  V30 1100 C 103.118 0.612607 3.52111 0
M  V30 1101 C 102.784 2.02297 4.02972 0
M  V30 1102 C 101.446 2.40874 4.16573 0
M  V30 1103 C 103.798 2.94402 4.30089 0
M  V30 1104 C 101.126 3.70852 4.54627 0
M  V30 1105 C 103.478 4.23865 4.69597 0
M  V30 1106 C 102.142 4.62392 4.81404 0
M  V30 1107 H 101.412 0.161171 0.72326 0
M  V30 1108 H 104.059 1.07061 1.58777 0
M  V30 1109 H 102.364 -0.100849 3.9167 0
M  V30 1110 H 104.061 0.2815 4.00011 0
M  V30 1111 H 100.651 1.71338 3.92863 0
M  V30 1112 H 104.835 2.65835 4.19101 0
M  V30 1113 H 100.091 4.00501 4.61962 0
M  V30 1114 H 104.265 4.95306 4.89536 0
M  V30 1115 H 101.892 5.63154 5.10648 0
M  V30 1116 N 103.467 -1.45747 0.599634 0
M  V30 1117 C 104.399 -2.28628 -0.161879 0
M  V30 1118 C 105.412 -1.39494 -0.839367 0
M  V30 1119 O 106.601 -1.63941 -0.706089 0
M  V30 1120 C 103.701 -3.15014 -1.24976 0
M  V30 1121 C 102.874 -4.32378 -0.660935 0
M  V30 1122 C 101.933 -5.00033 -1.63869 0
M  V30 1123 O 100.959 -5.57085 -1.1681 0
M  V30 1124 N 102.161 -4.98589 -2.97303 0
M  V30 1125 H 104.926 -2.94624 0.549265 0
M  V30 1126 H 102.487 -1.55847 0.438565 0
M  V30 1127 H 104.479 -3.5714 -1.9035 0
M  V30 1128 H 103.049 -2.5098 -1.86354 0
M  V30 1129 H 102.269 -3.9383 0.170688 0
M  V30 1130 H 103.557 -5.08197 -0.247619 0
M  V30 1131 H 102.955 -4.53514 -3.38145 0
M  V30 1132 H 101.512 -5.44603 -3.58121 0
M  V30 1133 N 104.945 -0.338344 -1.53925 0
M  V30 1134 C 106.191 0.260143 -2.01125 0
M  V30 1135 C 106.524 1.50617 -1.22589 0
M  V30 1136 O 105.799 1.91979 -0.312113 0
M  V30 1137 C 106.082 0.579499 -3.55407 0
M  V30 1138 C 105.935 -0.678264 -4.44657 0
M  V30 1139 C 107.254 1.39122 -4.17532 0
M  V30 1140 H 104.373 0.0930772 -0.731099 0
M  V30 1141 H 107.015 -0.457852 -1.84401 0
M  V30 1142 H 105.165 1.19118 -3.69788 0
M  V30 1143 H 106.837 -1.31631 -4.42121 0
M  V30 1144 H 105.08 -1.3042 -4.13731 0
M  V30 1145 H 105.751 -0.410143 -5.50474 0
M  V30 1146 H 108.227 0.874035 -4.06817 0
M  V30 1147 H 107.103 1.58342 -5.25565 0
M  V30 1148 H 107.364 2.39178 -3.71815 0
M  V30 1149 N 106.423 1.57458 -0.0668435 0
M  V30 1150 C 107.353 2.15468 0.899764 0
M  V30 1151 C 108.334 1.08042 1.31381 0
M  V30 1152 O 109.519 1.36054 1.38574 0
M  V30 1153 C 106.649 2.71232 2.16911 0
M  V30 1154 C 105.603 3.83781 1.89463 0
M  V30 1155 C 104.929 4.26127 3.22986 0
M  V30 1156 C 106.229 5.08238 1.20381 0
M  V30 1157 H 107.923 2.96488 0.416529 0
M  V30 1158 H 105.469 1.4262 0.198908 0
M  V30 1159 H 107.422 3.10458 2.84945 0
M  V30 1160 H 106.146 1.87426 2.67468 0
M  V30 1161 H 104.805 3.45051 1.23836 0
M  V30 1162 H 104.453 3.39249 3.71374 0
M  V30 1163 H 104.153 5.01993 3.05413 0
M  V30 1164 H 105.677 4.67966 3.92225 0
M  V30 1165 H 107.091 5.44811 1.78475 0
M  V30 1166 H 105.488 5.89349 1.13083 0
M  V30 1167 H 106.558 4.84558 0.182153 0
M  V30 1168 N 107.901 -0.206675 1.56239 0
M  V30 1169 C 109.147 -0.930218 1.80208 0
M  V30 1170 C 109.48 -1.83387 0.638981 0
M  V30 1171 O 108.755 -1.91119 -0.361066 0
M  V30 1172 C 109.038 -1.75641 3.1436 0
M  V30 1173 C 108.891 -0.878257 4.41142 0
M  V30 1174 C 110.21 -2.73129 3.45092 0
M  V30 1175 H 107.329 -0.336742 0.655571 0
M  V30 1176 H 109.971 -0.198222 1.88963 0
M  V30 1177 H 108.121 -2.38048 3.07027 0
M  V30 1178 H 109.793 -0.269787 4.6051 0
M  V30 1179 H 108.036 -0.184385 4.33408 0
M  V30 1180 H 108.707 -1.49106 5.3148 0
M  V30 1181 H 111.183 -2.20856 3.52649 0
M  V30 1182 H 110.059 -3.28028 4.40101 0
M  V30 1183 H 110.32 -3.51606 2.68003 0
M  V30 1184 N 109.379 -1.50304 -0.473955 0
M  V30 1185 C 110.326 -1.68959 -1.57231 0
M  V30 1186 C 111.296 -0.530899 -1.57387 0
M  V30 1187 O 112.481 -0.761133 -1.74961 0
M  V30 1188 C 109.621 -1.7871 -2.95223 0
M  V30 1189 C 108.734 -3.06061 -3.04878 0
M  V30 1190 C 107.869 -3.06626 -4.33767 0
M  V30 1191 C 106.908 -4.28443 -4.37154 0
M  V30 1192 N 106.045 -4.26763 -5.5751 0
M  V30 1193 H 110.885 -2.6273 -1.40631 0
M  V30 1194 H 108.422 -1.30241 -0.683789 0
M  V30 1195 H 110.38 -1.82344 -3.75242 0
M  V30 1196 H 109.01 -0.883806 -3.10465 0
M  V30 1197 H 108.062 -3.11911 -2.17751 0
M  V30 1198 H 109.374 -3.96039 -3.0324 0
M  V30 1199 H 108.528 -3.08973 -5.22131 0
M  V30 1200 H 107.267 -2.14473 -4.3801 0
M  V30 1201 H 106.272 -4.2631 -3.47188 0
M  V30 1202 H 107.497 -5.2182 -4.34605 0
M  V30 1203 H 105.443 -3.37462 -5.62544 0
M  V30 1204 H 105.36 -5.10507 -5.57601 0
M  V30 1205 H 106.628 -4.33253 -6.48006 0
M  V30 1206 N 110.857 0.726932 -1.39834 0
M  V30 1207 C 111.804 1.841 -1.39197 0
M  V30 1208 C 112.774 1.642 -0.250502 0
M  V30 1209 O 113.959 1.85494 -0.446846 0
M  V30 1210 C 111.099 3.21697 -1.24919 0
M  V30 1211 C 110.212 3.53247 -2.48678 0
M  V30 1212 C 109.347 4.80289 -2.26928 0
M  V30 1213 C 108.386 5.04707 -3.4632 0
M  V30 1214 N 107.523 6.22956 -3.23836 0
M  V30 1215 H 112.363 1.83979 -2.34427 0
M  V30 1216 H 109.9 0.898876 -1.16442 0
M  V30 1217 H 111.858 4.01137 -1.1465 0
M  V30 1218 H 110.488 3.21076 -0.333153 0
M  V30 1219 H 109.54 2.68447 -2.69519 0
M  V30 1220 H 110.852 3.67205 -3.37582 0
M  V30 1221 H 110.006 5.67725 -2.13947 0
M  V30 1222 H 108.745 4.68519 -1.35431 0
M  V30 1223 H 107.75 4.1573 -3.5979 0
M  V30 1224 H 108.975 5.18357 -4.38729 0
M  V30 1225 H 106.921 6.12459 -2.35011 0
M  V30 1226 H 106.838 6.37539 -4.063 0
M  V30 1227 H 108.106 7.1321 -3.14566 0
M  V30 1228 N 112.336 1.25143 0.95797 0
M  V30 1229 C 113.585 1.0909 1.69654 0
M  V30 1230 C 113.898 -0.368548 1.92097 0
M  V30 1231 O 115.104 -0.649455 2.63618 0
M  V30 1232 C 113.56 1.90395 3.05414 0
M  V30 1233 C 113.168 3.4081 2.90779 0
M  V30 1234 C 114.912 1.82901 3.83076 0
M  V30 1235 C 112.819 4.14423 4.21909 0
M  V30 1236 H 111.749 0.404625 0.636235 0
M  V30 1237 H 114.4 1.4931 1.06672 0
M  V30 1238 H 112.782 1.42996 3.69281 0
M  V30 1239 H 113.956 3.95859 2.35865 0
M  V30 1240 H 112.271 3.49361 2.26575 0
M  V30 1241 H 114.868 2.35196 4.80195 0
M  V30 1242 H 115.211 0.796224 4.08615 0
M  V30 1243 H 115.744 2.28033 3.25954 0
M  V30 1244 H 112.483 5.18102 4.01561 0
M  V30 1245 H 112.003 3.64159 4.76601 0
M  V30 1246 H 113.682 4.21956 4.90471 0
M  V30 1247 N 113.814 -1.1601 1.06675 0
M  V30 1248 C 115.039 -1.91068 0.806706 0
M  V30 1249 C 115.464 -1.77112 -0.633485 0
M  V30 1250 O 114.822 -1.09908 -1.44187 0
M  V30 1251 C 114.87 -3.39655 1.21106 0
M  V30 1252 O 113.974 -4.10893 0.352189 0
M  V30 1253 H 113.315 -0.595125 0.294486 0
M  V30 1254 H 115.845 -1.46955 1.42356 0
M  V30 1255 H 115.855 -3.90434 1.18428 0
M  V30 1256 H 114.53 -3.49132 2.26008 0
M  V30 1257 H 113.107 -3.70285 0.440868 0
M  V30 1258 N 115.292 -0.849877 -1.32721 0
M  V30 1259 C 116.224 -0.248332 -2.27851 0
M  V30 1260 C 117.237 0.577218 -1.52224 0
M  V30 1261 O 118.426 0.402489 -1.73903 0
M  V30 1262 C 115.526 0.668107 -3.32249 0
M  V30 1263 C 114.699 -0.120534 -4.37234 0
M  V30 1264 C 113.758 0.720932 -5.21238 0
M  V30 1265 O 112.784 0.156166 -5.68986 0
M  V30 1266 N 113.986 2.03647 -5.43607 0
M  V30 1267 H 116.751 -1.06575 -2.80111 0
M  V30 1268 H 114.312 -0.709395 -1.45531 0
M  V30 1269 H 116.304 1.23627 -3.85355 0
M  V30 1270 H 114.874 1.38621 -2.80184 0
M  V30 1271 H 114.094 -0.870108 -3.84477 0
M  V30 1272 H 115.382 -0.662406 -5.0447 0
M  V30 1273 H 114.78 2.51871 -5.06535 0
M  V30 1274 H 113.337 2.55287 -5.99727 0
M  V30 1275 O 116.809 1.43148 -0.747716 0
M  V30 1276 H 117.5 1.91307 -0.303544 0
M  V30 END ATOM
M  V30 BEGIN BOND
M  V30 END BOND
M  V30 END CTAB
M  END
$$$$
