drugbank_target|P29372 DNA-3-methyladenine glycosylase (DB00515; DB01593; DB14487; DB14533; DB14548)
 OpenBabel12092121053D

  0  0  0     0  0            999 V3000
M  V30 BEGIN CTAB
M  V30 COUNTS 12460 13393 0 0 0
M  V30 BEGIN ATOM
M  V30 1 H -1.547 9.37743 -1.21644 0
M  V30 2 O -1.44 8.89599 -0.40059 0
M  V30 3 P 0 8.91 0 0
M  V30 4 O 0.22 10.1746 0.733838 0
M  V30 5 O 0.79 8.73346 -1.23964 0
M  V30 6 O 0.25 7.66872 0.971405 0
M  V30 7 C -0.69 7.42405 2.04668 0
M  V30 8 C 0.04 6.86059 3.24661 0
M  V30 9 O 0.25 5.42934 3.03695 0
M  V30 10 C 1.44 7.41287 3.50796 0
M  V30 11 O 1.83 7.27073 4.86816 0
M  V30 12 C 2.32 6.5273 2.63741 0
M  V30 13 C 1.61 5.1842 2.73198 0
M  V30 14 N 1.66 4.38762 1.4784 0
M  V30 15 H -1.178 8.36899 2.3252 0
M  V30 16 H -1.45 6.70391 1.71179 0
M  V30 17 H -0.582 7.03638 4.13219 0
M  V30 18 H 2.073 4.59931 3.54016 0
M  V30 19 H 2.353 6.88995 1.59871 0
M  V30 20 H 3.344 6.4684 3.0373 0
M  V30 21 H 1.51 8.47002 3.20749 0
M  V30 22 P 3.37998 7.20834 5.23717 0
M  V30 23 O 3.59998 7.79853 6.57286 0
M  V30 24 O 4.16998 7.79239 4.12957 0
M  V30 25 O 3.62998 5.63315 5.29344 0
M  V30 26 C 2.68998 4.80255 6.01876 0
M  V30 27 C 3.41998 3.64202 6.65911 0
M  V30 28 O 3.62998 2.60694 5.64732 0
M  V30 29 C 4.81998 3.93473 7.1943 0
M  V30 30 O 5.20998 3.02071 8.21205 0
M  V30 31 C 5.69998 3.73047 5.97036 0
M  V30 32 C 4.98998 2.58828 5.25741 0
M  V30 33 N 5.03998 2.68068 3.77503 0
M  V30 34 H 2.20098 5.40332 6.79951 0
M  V30 35 H 1.93098 4.41613 5.32378 0
M  V30 36 H 2.79798 3.26331 7.47797 0
M  V30 37 P 6.75996 2.75334 8.47391 0
M  V30 38 O 6.97996 2.44595 9.90239 0
M  V30 39 O 7.54996 3.87732 7.92204 0
M  V30 40 O 7.00996 1.4459 7.59357 0
M  V30 41 C 6.06996 0.347563 7.69115 0
M  V30 42 C 6.79996 -0.96767 7.52806 0
M  V30 43 O 7.00996 -1.21036 6.1011 0
M  V30 44 C 8.19996 -1.04544 8.13308 0
M  V30 45 O 8.58996 -2.38311 8.41922 0
M  V30 46 C 9.07996 -0.491279 7.02284 0
M  V30 47 C 8.36996 -0.996264 5.77469 0
M  V30 48 N 8.41996 -0.0501808 4.62873 0
M  V30 49 C 8.56996 -0.588177 3.36904 0
M  V30 50 O 8.65996 -1.78598 3.17173 0
M  V30 51 N 8.60996 0.329694 2.33686 0
M  V30 52 C 8.51996 1.6953 2.45079 0
M  V30 53 O 8.56996 2.41926 1.44899 0
M  V30 54 C 8.36996 2.16933 3.80505 0
M  V30 55 C 8.25996 3.65373 3.97621 0
M  V30 56 C 8.31996 1.30326 4.83752 0
M  V30 57 H 5.57996 0.374722 8.67691 0
M  V30 58 H 5.31096 0.443421 6.90177 0
M  V30 59 H 6.17796 -1.75537 7.96793 0
M  V30 60 H 8.83296 -1.94496 5.46629 0
M  V30 61 H 9.11196 0.608651 7.04676 0
M  V30 62 H 10.104 -0.889672 7.08939 0
M  V30 63 H 8.26996 -0.43308 9.04564 0
M  V30 64 H 8.19896 1.68366 5.8516 0
M  V30 65 H 9.22896 4.05985 4.30448 0
M  V30 66 H 7.49196 3.88028 4.72875 0
M  V30 67 H 7.97996 4.11381 3.01609 0
M  V30 68 H 8.71596 -0.0393617 1.41345 0
M  V30 69 P 10.1399 -2.75334 8.47391 0
M  V30 70 O 10.3599 -3.84128 9.44797 0
M  V30 71 O 10.9299 -1.51947 8.68712 0
M  V30 72 O 10.3899 -3.29363 6.99321 0
M  V30 73 C 9.44994 -4.24011 6.4274 0
M  V30 74 C 10.1799 -5.20775 5.52155 0
M  V30 75 O 10.3899 -4.56534 4.22446 0
M  V30 76 C 11.5799 -5.62629 5.96531 0
M  V30 77 O 11.9699 -6.87667 5.41053 0
M  V30 78 C 12.4599 -4.52537 5.39283 0
M  V30 79 C 11.7499 -4.20027 4.08623 0
M  V30 80 N 11.7999 -2.76189 3.71603 0
M  V30 81 H 8.96094 -4.797 7.24003 0
M  V30 82 H 8.69094 -3.69856 5.84513 0
M  V30 83 H 9.55794 -6.10356 5.41441 0
M  V30 84 P 13.5199 -7.20834 5.23717 0
M  V30 85 O 13.7399 -8.66274 5.38678 0
M  V30 86 O 14.3099 -6.33687 6.13629 0
M  V30 87 O 13.7699 -6.7751 3.72168 0
M  V30 88 C 12.8299 -7.20919 2.70795 0
M  V30 89 C 13.5599 -7.45864 1.40599 0
M  V30 90 O 13.7699 -6.17751 0.734343 0
M  V30 91 C 14.9599 -8.05906 1.51917 0
M  V30 92 O 15.3499 -8.74358 0.335205 0
M  V30 93 C 15.8399 -6.83093 1.70294 0
M  V30 94 C 15.1299 -5.79992 0.836974 0
M  V30 95 N 15.1799 -4.41864 1.38293 0
M  V30 96 C 15.0999 -4.02089 2.69407 0
M  V30 97 N 15.1699 -2.73403 2.85089 0
M  V30 98 C 15.3199 -2.25086 1.5642 0
M  V30 99 C 15.4499 -0.942887 1.04836 0
M  V30 100 N 15.4599 0.150999 1.80369 0
M  V30 101 N 15.5699 -0.812565 -0.28167 0
M  V30 102 C 15.5599 -1.90572 -1.03784 0
M  V30 103 N 15.4399 -3.167 -0.683905 0
M  V30 104 C 15.3199 -3.26538 0.652815 0
M  V30 105 H 12.3419 -8.13738 3.03804 0
M  V30 106 H 12.0699 -6.42974 2.55559 0
M  V30 107 H 12.9379 -8.12139 0.792866 0
M  V30 108 H 15.5929 -5.80178 -0.160643 0
M  V30 109 H 15.8729 -6.51379 2.75643 0
M  V30 110 H 16.8639 -7.01832 1.3448 0
M  V30 111 H 15.0299 -8.73771 2.38364 0
M  V30 112 H 14.9889 -4.7189 3.52311 0
M  V30 113 H 15.3699 0.0721434 2.82608 0
M  V30 114 H 15.5589 1.0785 1.36544 0
M  V30 115 H 15.6669 -1.73207 -2.10241 0
M  V30 116 P 16.8999 -8.91 1.09116e-15 0
M  V30 117 O 17.1199 -10.1726 -0.733694 0
M  V30 118 O 17.6899 -8.73148 1.23936 0
M  V30 119 O 17.1499 -7.66872 -0.971405 0
M  V30 120 C 16.2099 -7.42309 -2.04641 0
M  V30 121 C 16.9399 -6.86059 -3.24661 0
M  V30 122 O 17.1499 -5.42847 -3.03646 0
M  V30 123 C 18.3399 -7.41196 -3.50753 0
M  V30 124 O 18.7299 -7.27073 -4.86816 0
M  V30 125 C 19.2199 -6.5273 -2.63741 0
M  V30 126 C 18.5099 -5.1842 -2.73198 0
M  V30 127 N 18.5599 -4.38762 -1.4784 0
M  V30 128 H 15.7209 -8.36803 -2.32493 0
M  V30 129 H 15.4509 -6.70197 -1.71129 0
M  V30 130 H 16.3179 -7.03551 -4.13168 0
M  V30 131 P 20.2799 -7.20834 -5.23717 0
M  V30 132 O 20.4999 -7.79853 -6.57286 0
M  V30 133 O 21.0699 -7.79239 -4.12957 0
M  V30 134 O 20.5299 -5.63315 -5.29344 0
M  V30 135 C 19.5899 -4.80255 -6.01876 0
M  V30 136 C 20.3199 -3.64202 -6.65911 0
M  V30 137 O 20.5299 -2.60694 -5.64732 0
M  V30 138 C 21.7199 -3.93473 -7.1943 0
M  V30 139 O 22.1099 -3.02071 -8.21205 0
M  V30 140 C 22.5999 -3.73047 -5.97036 0
M  V30 141 C 21.8899 -2.58828 -5.25741 0
M  V30 142 N 21.9399 -2.68068 -3.77503 0
M  V30 143 H 19.1009 -5.40332 -6.79951 0
M  V30 144 H 18.8309 -4.41613 -5.32378 0
M  V30 145 H 19.6979 -3.26331 -7.47797 0
M  V30 146 P 23.6599 -2.75334 -8.47391 0
M  V30 147 O 23.8799 -2.44619 -9.90336 0
M  V30 148 O 24.4499 -3.87776 -7.92294 0
M  V30 149 O 23.9099 -1.4459 -7.59357 0
M  V30 150 C 22.9699 -0.347653 -7.69315 0
M  V30 151 C 23.6999 0.96767 -7.52806 0
M  V30 152 O 23.9099 1.21055 -6.10208 0
M  V30 153 C 25.0999 1.04557 -8.13408 0
M  V30 154 O 25.4899 2.38311 -8.41922 0
M  V30 155 C 25.9799 0.491279 -7.02284 0
M  V30 156 C 25.2699 0.996264 -5.77469 0
M  V30 157 N 25.3199 0.0501916 -4.62973 0
M  V30 158 H 22.4819 -0.374765 -8.67791 0
M  V30 159 H 22.2099 -0.443613 -6.90476 0
M  V30 160 H 23.0779 1.75559 -7.96891 0
M  V30 161 H 25.7329 1.94563 -5.46818 0
M  V30 162 H 26.0129 -0.608651 -7.04676 0
M  V30 163 H 27.0039 0.889796 -7.09039 0
M  V30 164 H 25.1699 0.433128 -9.04664 0
M  V30 165 P 27.0398 2.75334 -8.47391 0
M  V30 166 O 27.2598 3.84128 -9.44797 0
M  V30 167 O 27.8298 1.51947 -8.68712 0
M  V30 168 O 27.2898 3.29363 -6.99321 0
M  V30 169 C 26.3498 4.24011 -6.4274 0
M  V30 170 C 27.0798 5.20775 -5.52155 0
M  V30 171 O 27.2898 4.56534 -4.22446 0
M  V30 172 C 28.4798 5.62629 -5.96531 0
M  V30 173 O 28.8698 6.87667 -5.41053 0
M  V30 174 C 29.3598 4.52537 -5.39283 0
M  V30 175 C 28.6498 4.20027 -4.08623 0
M  V30 176 N 28.6998 2.76189 -3.71603 0
M  V30 177 H 25.8608 4.797 -7.24003 0
M  V30 178 H 25.5908 3.69856 -5.84513 0
M  V30 179 H 26.4578 6.10356 -5.41441 0
M  V30 180 P 30.4198 7.20834 -5.23717 0
M  V30 181 O 30.6398 8.66104 -5.38572 0
M  V30 182 O 31.2098 6.33544 -6.1349 0
M  V30 183 O 30.6698 6.7751 -3.72168 0
M  V30 184 C 29.7298 7.20825 -2.7076 0
M  V30 185 C 30.4598 7.45864 -1.40599 0
M  V30 186 O 30.6698 6.17651 -0.734225 0
M  V30 187 C 31.8598 8.05808 -1.51899 0
M  V30 188 O 32.2498 8.74358 -0.335205 0
M  V30 189 C 32.7398 6.83093 -1.70294 0
M  V30 190 C 32.0298 5.79992 -0.836974 0
M  V30 191 N 32.0798 4.41864 -1.38293 0
M  V30 192 H 29.2408 8.13644 -3.0377 0
M  V30 193 H 28.9708 6.42788 -2.55485 0
M  V30 194 H 29.8378 8.12039 -0.792769 0
M  V30 195 P 33.7998 8.91 -2.18232e-15 0
M  V30 196 O 34.0198 10.1726 0.733694 0
M  V30 197 O 34.5898 8.73148 -1.23936 0
M  V30 198 O 34.0498 7.66872 0.971405 0
M  V30 199 C 33.1098 7.42309 2.04641 0
M  V30 200 C 33.8398 6.86059 3.24661 0
M  V30 201 O 34.0498 5.42847 3.03646 0
M  V30 202 C 35.2398 7.41196 3.50753 0
M  V30 203 O 35.6298 7.27073 4.86816 0
M  V30 204 C 36.1198 6.5273 2.63741 0
M  V30 205 C 35.4098 5.1842 2.73198 0
M  V30 206 N 35.4598 4.38762 1.4784 0
M  V30 207 H 32.6208 8.36803 2.32493 0
M  V30 208 H 32.3508 6.70197 1.71129 0
M  V30 209 H 33.2178 7.03551 4.13168 0
M  V30 210 P 37.1798 7.20834 5.23717 0
M  V30 211 O 37.3998 7.79853 6.57286 0
M  V30 212 O 37.9698 7.79239 4.12957 0
M  V30 213 O 37.4298 5.63315 5.29344 0
M  V30 214 C 36.4898 4.80255 6.01876 0
M  V30 215 C 37.2198 3.64202 6.65911 0
M  V30 216 O 37.4298 2.60694 5.64732 0
M  V30 217 C 38.6198 3.93473 7.1943 0
M  V30 218 O 39.0098 3.02071 8.21205 0
M  V30 219 C 39.4998 3.73047 5.97036 0
M  V30 220 C 38.7898 2.58828 5.25741 0
M  V30 221 N 38.8398 2.68068 3.77503 0
M  V30 222 H 36.0008 5.40332 6.79951 0
M  V30 223 H 35.7308 4.41613 5.32378 0
M  V30 224 H 36.5978 3.26331 7.47797 0
M  V30 225 P 40.5598 2.75334 8.47391 0
M  V30 226 O 40.7798 2.44571 9.90142 0
M  V30 227 O 41.3498 3.87688 7.92115 0
M  V30 228 O 40.8098 1.4459 7.59357 0
M  V30 229 C 39.8698 0.347608 7.69215 0
M  V30 230 C 40.5998 -0.96767 7.52806 0
M  V30 231 O 40.8098 -1.21036 6.1011 0
M  V30 232 C 41.9998 -1.04544 8.13308 0
M  V30 233 O 42.3898 -2.38311 8.41922 0
M  V30 234 C 42.8798 -0.491279 7.02284 0
M  V30 235 C 42.1698 -0.996264 5.77469 0
M  V30 236 N 42.2198 -0.0501916 4.62973 0
M  V30 237 H 39.3808 0.374722 8.67691 0
M  V30 238 H 39.1108 0.443485 6.90277 0
M  V30 239 H 39.9778 -1.75537 7.96793 0
M  V30 240 P 43.9397 -2.75334 8.47391 0
M  V30 241 O 44.1597 -3.84128 9.44797 0
M  V30 242 O 44.7297 -1.51947 8.68712 0
M  V30 243 O 44.1897 -3.29363 6.99321 0
M  V30 244 C 43.2497 -4.24011 6.4274 0
M  V30 245 C 43.9797 -5.20775 5.52155 0
M  V30 246 O 44.1897 -4.56534 4.22446 0
M  V30 247 C 45.3797 -5.62629 5.96531 0
M  V30 248 O 45.7697 -6.87667 5.41053 0
M  V30 249 C 46.2597 -4.52537 5.39283 0
M  V30 250 C 45.5497 -4.20027 4.08623 0
M  V30 251 N 45.5997 -2.76189 3.71603 0
M  V30 252 H 42.7607 -4.797 7.24003 0
M  V30 253 H 42.4907 -3.69856 5.84513 0
M  V30 254 H 43.3577 -6.10356 5.41441 0
M  V30 255 P 47.3197 -7.20834 5.23717 0
M  V30 256 O 47.5397 -8.66189 5.38625 0
M  V30 257 O 48.1097 -6.33615 6.1356 0
M  V30 258 O 47.5697 -6.7751 3.72168 0
M  V30 259 C 46.6297 -7.20825 2.7076 0
M  V30 260 C 47.3597 -7.45864 1.40599 0
M  V30 261 O 47.5697 -6.17651 0.734225 0
M  V30 262 C 48.7597 -8.05808 1.51899 0
M  V30 263 O 49.1497 -8.74358 0.335205 0
M  V30 264 C 49.6397 -6.83093 1.70294 0
M  V30 265 C 48.9297 -5.79992 0.836974 0
M  V30 266 N 48.9797 -4.41769 1.38263 0
M  V30 267 C 49.1297 -3.36514 0.485617 0
M  V30 268 O 49.2197 -3.61814 -0.724703 0
M  V30 269 N 49.1797 -2.00746 1.14492 0
M  V30 270 C 49.0797 -1.85887 2.27776 0
M  V30 271 N 49.1297 -0.600907 2.69379 0
M  V30 272 C 48.9297 -2.92182 3.22265 0
M  V30 273 C 48.8797 -4.18399 2.71925 0
M  V30 274 H 46.1397 -8.1355 3.03735 0
M  V30 275 H 45.8707 -6.42695 2.55448 0
M  V30 276 H 46.7377 -8.12139 0.792866 0
M  V30 277 H 49.3927 -5.80078 -0.160615 0
M  V30 278 H 49.6717 -6.51379 2.75643 0
M  V30 279 H 50.6637 -7.01734 1.34462 0
M  V30 280 H 48.8297 -8.73674 2.38337 0
M  V30 281 H 48.7577 -5.02669 3.39718 0
M  V30 282 H 48.8597 -2.73001 4.29239 0
M  V30 283 H 49.2477 0.162318 2.01146 0
M  V30 284 H 49.0507 -0.387742 3.69773 0
M  V30 285 P 50.6997 -8.91 3.27348e-15 0
M  V30 286 O 50.9197 -10.1726 -0.733694 0
M  V30 287 O 51.4897 -8.73148 1.23936 0
M  V30 288 O 50.9497 -7.66872 -0.971405 0
M  V30 289 C 50.0097 -7.42309 -2.04641 0
M  V30 290 C 50.7397 -6.86059 -3.24661 0
M  V30 291 O 50.9497 -5.42847 -3.03646 0
M  V30 292 C 52.1397 -7.41196 -3.50753 0
M  V30 293 O 52.5297 -7.27073 -4.86816 0
M  V30 294 C 53.0197 -6.5273 -2.63741 0
M  V30 295 C 52.3097 -5.1842 -2.73198 0
M  V30 296 N 52.3597 -4.38762 -1.4784 0
M  V30 297 C 52.2797 -4.81605 -0.168631 0
M  V30 298 N 52.3597 -3.85454 0.713363 0
M  V30 299 C 52.4997 -2.6994 -0.0566958 0
M  V30 300 C 52.6297 -1.34815 0.338502 0
M  V30 301 N 52.7497 -0.496304 -0.77465 0
M  V30 302 C 52.7497 -0.908403 -2.09122 0
M  V30 303 N 52.8797 0.0517805 -3.00955 0
M  V30 304 N 52.6197 -2.17875 -2.46519 0
M  V30 305 C 52.4997 -3.01988 -1.4033 0
M  V30 306 H 49.5207 -8.36803 -2.32493 0
M  V30 307 H 49.2507 -6.70197 -1.71129 0
M  V30 308 H 50.1177 -7.03551 -4.13168 0
M  V30 309 P 54.0797 -7.20834 -5.23717 0
M  V30 310 O 54.2997 -7.79853 -6.57286 0
M  V30 311 O 54.8697 -7.79239 -4.12957 0
M  V30 312 O 54.3297 -5.63315 -5.29344 0
M  V30 313 C 53.3897 -4.80255 -6.01876 0
M  V30 314 C 54.1197 -3.64202 -6.65911 0
M  V30 315 O 54.3297 -2.60694 -5.64732 0
M  V30 316 C 55.5197 -3.93473 -7.1943 0
M  V30 317 O 55.9097 -3.02071 -8.21205 0
M  V30 318 C 56.3997 -3.73047 -5.97036 0
M  V30 319 C 55.6897 -2.58828 -5.25741 0
M  V30 320 N 55.7397 -2.68068 -3.77503 0
M  V30 321 C 55.6597 -3.79715 -2.96723 0
M  V30 322 N 55.7397 -3.5377 -1.68852 0
M  V30 323 C 55.8797 -2.15054 -1.63254 0
M  V30 324 C 56.0097 -1.28964 -0.518571 0
M  V30 325 N 56.1297 0.0538097 -0.918425 0
M  V30 326 C 56.1297 0.494275 -2.22578 0
M  V30 327 N 56.2597 1.81086 -2.40434 0
M  V30 328 N 55.9997 -0.313645 -3.27502 0
M  V30 329 C 55.8797 -1.61829 -2.91033 0
M  V30 330 H 52.9007 -5.40332 -6.79951 0
M  V30 331 H 52.6307 -4.41613 -5.32378 0
M  V30 332 H 53.4977 -3.26331 -7.47797 0
M  V30 333 P 57.4597 -2.75334 -8.47391 0
M  V30 334 O 57.6797 -2.44619 -9.90336 0
M  V30 335 O 58.2497 -3.87776 -7.92294 0
M  V30 336 O 57.7097 -1.4459 -7.59357 0
M  V30 337 C 56.7697 -0.347653 -7.69315 0
M  V30 338 C 57.4997 0.96767 -7.52806 0
M  V30 339 O 57.7097 1.21055 -6.10208 0
M  V30 340 C 58.8997 1.04557 -8.13408 0
M  V30 341 O 59.2897 2.38311 -8.41922 0
M  V30 342 C 59.7797 0.491279 -7.02284 0
M  V30 343 C 59.0697 0.996264 -5.77469 0
M  V30 344 N 59.1197 0.0501916 -4.62973 0
M  V30 345 H 56.2817 -0.374765 -8.67791 0
M  V30 346 H 56.0097 -0.443613 -6.90476 0
M  V30 347 H 56.8777 1.75559 -7.96891 0
M  V30 348 H 59.5327 1.94563 -5.46818 0
M  V30 349 H 59.8127 -0.608651 -7.04676 0
M  V30 350 H 60.8037 0.889796 -7.09039 0
M  V30 351 H 58.9697 0.433128 -9.04664 0
M  V30 352 P 60.8396 2.75334 -8.47391 0
M  V30 353 O 61.0596 3.84128 -9.44797 0
M  V30 354 O 61.6296 1.51947 -8.68712 0
M  V30 355 O 61.0896 3.29363 -6.99321 0
M  V30 356 C 60.1496 4.24011 -6.4274 0
M  V30 357 C 60.8796 5.20775 -5.52155 0
M  V30 358 O 61.0896 4.56534 -4.22446 0
M  V30 359 C 62.2796 5.62629 -5.96531 0
M  V30 360 O 62.6696 6.87667 -5.41053 0
M  V30 361 C 63.1596 4.52537 -5.39283 0
M  V30 362 C 62.4496 4.20027 -4.08623 0
M  V30 363 N 62.4996 2.76189 -3.71603 0
M  V30 364 C 62.4196 1.64862 -4.52822 0
M  V30 365 N 62.4996 0.512671 -3.88633 0
M  V30 366 C 62.6396 0.888083 -2.54977 0
M  V30 367 C 62.7696 0.094668 -1.38677 0
M  V30 368 O 62.7896 -1.13053 -1.28163 0
M  V30 369 N 62.8896 0.890102 -0.232633 0
M  V30 370 C 62.8896 2.26958 -0.21772 0
M  V30 371 N 63.0196 2.84626 0.97925 0
M  V30 372 N 62.7596 3.0178 -1.31033 0
M  V30 373 C 62.6396 2.26781 -2.43843 0
M  V30 374 H 59.6606 4.797 -7.24003 0
M  V30 375 H 59.3906 3.69856 -5.84513 0
M  V30 376 H 60.2576 6.10356 -5.41441 0
M  V30 377 H 62.9126 4.79061 -3.27488 0
M  V30 378 H 63.1916 3.64906 -6.05785 0
M  V30 379 H 64.1836 4.8868 -5.2125 0
M  V30 380 H 62.3496 5.66726 -7.06352 0
M  V30 381 H 62.3006 1.71169 -5.60966 0
M  V30 382 H 62.9826 0.419134 0.644739 0
M  V30 383 H 63.0196 3.87332 1.06098 0
M  V30 384 H 63.1206 2.26417 1.82483 0
M  V30 385 P 64.2196 7.20834 -5.23717 0
M  V30 386 O 64.4396 8.66104 -5.38572 0
M  V30 387 O 65.0096 6.33544 -6.1349 0
M  V30 388 O 64.4696 6.7751 -3.72168 0
M  V30 389 C 63.5296 7.20825 -2.7076 0
M  V30 390 C 64.2596 7.45864 -1.40599 0
M  V30 391 O 64.4696 6.17651 -0.734225 0
M  V30 392 C 65.6596 8.05808 -1.51899 0
M  V30 393 O 66.0496 8.74358 -0.335205 0
M  V30 394 C 66.5396 6.83093 -1.70294 0
M  V30 395 C 65.8296 5.79992 -0.836974 0
M  V30 396 N 65.8796 4.41864 -1.38293 0
M  V30 397 H 63.0406 8.13644 -3.0377 0
M  V30 398 H 62.7706 6.42788 -2.55485 0
M  V30 399 H 63.6376 8.12039 -0.792769 0
M  V30 400 P 67.5996 8.91 -4.36464e-15 0
M  V30 401 O 67.8196 10.1726 0.733694 0
M  V30 402 O 68.3896 8.73148 -1.23936 0
M  V30 403 O 67.8496 7.66872 0.971405 0
M  V30 404 C 66.9096 7.42309 2.04641 0
M  V30 405 C 67.6396 6.86059 3.24661 0
M  V30 406 O 67.8496 5.42847 3.03646 0
M  V30 407 C 69.0396 7.41196 3.50753 0
M  V30 408 O 69.4296 7.27073 4.86816 0
M  V30 409 C 69.9196 6.5273 2.63741 0
M  V30 410 C 69.2096 5.1842 2.73198 0
M  V30 411 N 69.2596 4.38762 1.4784 0
M  V30 412 H 66.4206 8.36803 2.32493 0
M  V30 413 H 66.1506 6.70197 1.71129 0
M  V30 414 H 67.0176 7.03551 4.13168 0
M  V30 415 P 70.9796 7.20834 5.23717 0
M  V30 416 O 71.1996 7.79853 6.57286 0
M  V30 417 O 71.7696 7.79239 4.12957 0
M  V30 418 O 71.2296 5.63315 5.29344 0
M  V30 419 C 70.2896 4.80255 6.01876 0
M  V30 420 C 71.0196 3.64202 6.65911 0
M  V30 421 O 71.2296 2.60694 5.64732 0
M  V30 422 C 72.4196 3.93473 7.1943 0
M  V30 423 O 72.8096 3.02071 8.21205 0
M  V30 424 C 73.2996 3.73047 5.97036 0
M  V30 425 C 72.5896 2.58828 5.25741 0
M  V30 426 N 72.6396 2.68068 3.77503 0
M  V30 427 H 69.8006 5.40332 6.79951 0
M  V30 428 H 69.5306 4.41613 5.32378 0
M  V30 429 H 70.3976 3.26331 7.47797 0
M  V30 430 P 74.3596 2.75334 8.47391 0
M  V30 431 O 74.5796 2.44571 9.90142 0
M  V30 432 O 75.1496 3.87688 7.92115 0
M  V30 433 O 74.6096 1.4459 7.59357 0
M  V30 434 C 73.6696 0.347608 7.69215 0
M  V30 435 C 74.3996 -0.96767 7.52806 0
M  V30 436 O 74.6096 -1.21036 6.1011 0
M  V30 437 C 75.7996 -1.04544 8.13308 0
M  V30 438 O 76.1896 -2.38311 8.41922 0
M  V30 439 C 76.6796 -0.491279 7.02284 0
M  V30 440 C 75.9696 -0.996264 5.77469 0
M  V30 441 N 76.0196 -0.0501916 4.62973 0
M  V30 442 H 73.1806 0.374722 8.67691 0
M  V30 443 H 72.9106 0.443485 6.90277 0
M  V30 444 H 73.7776 -1.75537 7.96793 0
M  V30 445 P 77.7395 -2.75334 8.47391 0
M  V30 446 O 77.9595 -3.84128 9.44797 0
M  V30 447 O 78.5295 -1.51947 8.68712 0
M  V30 448 O 77.9895 -3.29363 6.99321 0
M  V30 449 C 77.0495 -4.24011 6.4274 0
M  V30 450 C 77.7795 -5.20775 5.52155 0
M  V30 451 O 77.9895 -4.56534 4.22446 0
M  V30 452 C 79.1795 -5.62629 5.96531 0
M  V30 453 O 79.5695 -6.87667 5.41053 0
M  V30 454 C 80.0595 -4.52537 5.39283 0
M  V30 455 C 79.3495 -4.20027 4.08623 0
M  V30 456 N 79.3995 -2.76189 3.71603 0
M  V30 457 C 79.3195 -1.64862 4.52822 0
M  V30 458 N 79.3995 -0.512671 3.88633 0
M  V30 459 C 79.5395 -0.888083 2.54977 0
M  V30 460 C 79.6695 -0.094668 1.38677 0
M  V30 461 N 79.7895 -0.890102 0.232633 0
M  V30 462 C 79.7895 -2.26958 0.21772 0
M  V30 463 N 79.9195 -2.84626 -0.97925 0
M  V30 464 N 79.6595 -3.0178 1.31033 0
M  V30 465 C 79.5395 -2.26781 2.43843 0
M  V30 466 H 76.5605 -4.797 7.24003 0
M  V30 467 H 76.2905 -3.69856 5.84513 0
M  V30 468 H 77.1575 -6.10356 5.41441 0
M  V30 469 P 81.1195 -7.20834 5.23717 0
M  V30 470 O 81.3395 -8.66104 5.38572 0
M  V30 471 O 81.9095 -6.33544 6.1349 0
M  V30 472 O 81.3695 -6.7751 3.72168 0
M  V30 473 C 80.4295 -7.20825 2.7076 0
M  V30 474 C 81.1595 -7.45864 1.40599 0
M  V30 475 O 81.3695 -6.17651 0.734225 0
M  V30 476 C 82.5595 -8.05808 1.51899 0
M  V30 477 O 82.9495 -8.74358 0.335205 0
M  V30 478 C 83.4395 -6.83093 1.70294 0
M  V30 479 C 82.7295 -5.79992 0.836974 0
M  V30 480 N 82.7795 -4.41864 1.38293 0
M  V30 481 H 79.9405 -8.13644 3.0377 0
M  V30 482 H 79.6705 -6.42788 2.55485 0
M  V30 483 H 80.5375 -8.12039 0.792769 0
M  V30 484 P 84.4995 -8.91 5.4558e-15 0
M  V30 485 O 84.7195 -10.1746 -0.733838 0
M  V30 486 O 85.2895 -8.73346 1.23964 0
M  V30 487 O 84.7495 -7.66872 -0.971405 0
M  V30 488 C 83.8095 -7.42405 -2.04668 0
M  V30 489 C 84.5395 -6.86059 -3.24661 0
M  V30 490 O 84.7495 -5.42934 -3.03695 0
M  V30 491 C 85.9395 -7.41287 -3.50796 0
M  V30 492 O 86.3295 -7.27073 -4.86816 0
M  V30 493 C 86.8195 -6.5273 -2.63741 0
M  V30 494 C 86.1095 -5.1842 -2.73198 0
M  V30 495 N 86.1595 -4.38762 -1.4784 0
M  V30 496 C 86.0795 -4.83651 -0.183876 0
M  V30 497 N 86.1495 -3.88759 0.699393 0
M  V30 498 C 86.2995 -2.7404 -0.0575568 0
M  V30 499 C 86.4295 -1.37902 0.293928 0
M  V30 500 N 86.4395 -0.938021 1.54797 0
M  V30 501 N 86.5495 -0.491817 -0.70549 0
M  V30 502 C 86.5395 -0.931735 -1.95979 0
M  V30 503 N 86.4195 -2.16017 -2.41481 0
M  V30 504 C 86.2995 -3.02547 -1.39121 0
M  V30 505 H 83.3215 -8.36899 -2.3252 0
M  V30 506 H 83.0495 -6.70391 -1.71179 0
M  V30 507 H 83.9175 -7.03638 -4.13219 0
M  V30 508 H 86.5725 -4.59931 -3.54016 0
M  V30 509 H 86.8525 -6.88995 -1.59871 0
M  V30 510 H 87.8435 -6.4684 -3.0373 0
M  V30 511 H 86.0095 -8.47002 -3.20749 0
M  V30 512 H 85.9685 -5.8885 0.0765548 0
M  V30 513 H 86.3495 -1.60276 2.32875 0
M  V30 514 H 86.5385 0.0699355 1.73859 0
M  V30 515 H 86.6465 -0.165507 -2.71897 0
M  V30 516 P 87.8795 -7.20834 -5.23717 0
M  V30 517 O 88.0995 -7.79853 -6.57286 0
M  V30 518 O 88.6695 -7.79239 -4.12957 0
M  V30 519 O 88.1295 -5.63315 -5.29344 0
M  V30 520 C 87.1895 -4.80255 -6.01876 0
M  V30 521 C 87.9195 -3.64202 -6.65911 0
M  V30 522 O 88.1295 -2.60694 -5.64732 0
M  V30 523 C 89.3195 -3.93473 -7.1943 0
M  V30 524 O 89.7095 -3.02071 -8.21205 0
M  V30 525 C 90.1995 -3.73047 -5.97036 0
M  V30 526 C 89.4895 -2.58828 -5.25741 0
M  V30 527 N 89.5395 -2.68068 -3.77503 0
M  V30 528 C 89.4595 -3.79715 -2.96723 0
M  V30 529 N 89.5395 -3.5377 -1.68852 0
M  V30 530 C 89.6795 -2.15054 -1.63254 0
M  V30 531 C 89.8095 -1.28964 -0.518571 0
M  V30 532 N 89.9295 0.0538097 -0.918425 0
M  V30 533 C 89.9295 0.494275 -2.22578 0
M  V30 534 N 90.0595 1.81086 -2.40434 0
M  V30 535 N 89.7995 -0.313645 -3.27502 0
M  V30 536 C 89.6795 -1.61829 -2.91033 0
M  V30 537 H 86.7005 -5.40332 -6.79951 0
M  V30 538 H 86.4305 -4.41613 -5.32378 0
M  V30 539 H 87.2975 -3.26331 -7.47797 0
M  V30 540 P 91.2595 -2.75334 -8.47391 0
M  V30 541 O 91.4795 -2.44619 -9.90336 0
M  V30 542 O 92.0495 -3.87776 -7.92294 0
M  V30 543 O 91.5095 -1.4459 -7.59357 0
M  V30 544 C 90.5695 -0.347653 -7.69315 0
M  V30 545 C 91.2995 0.96767 -7.52806 0
M  V30 546 O 91.5095 1.21055 -6.10208 0
M  V30 547 C 92.6995 1.04557 -8.13408 0
M  V30 548 O 93.0895 2.38311 -8.41922 0
M  V30 549 C 93.5795 0.491279 -7.02284 0
M  V30 550 C 92.8695 0.996264 -5.77469 0
M  V30 551 N 92.9195 0.0501916 -4.62973 0
M  V30 552 C 92.8395 -1.31969 -4.65661 0
M  V30 553 N 92.9095 -1.86649 -3.48119 0
M  V30 554 C 93.0595 -0.792089 -2.62406 0
M  V30 555 C 93.1895 -0.705684 -1.2207 0
M  V30 556 N 93.1995 -1.76207 -0.413762 0
M  V30 557 N 93.3095 0.518981 -0.685754 0
M  V30 558 C 93.2995 1.57595 -1.49174 0
M  V30 559 N 93.1795 1.62909 -2.80066 0
M  V30 560 C 93.0595 0.388195 -3.3073 0
M  V30 561 H 90.0815 -0.374765 -8.67791 0
M  V30 562 H 89.8095 -0.443613 -6.90476 0
M  V30 563 H 90.6775 1.75559 -7.96891 0
M  V30 564 H 93.3325 1.94563 -5.46818 0
M  V30 565 H 93.6125 -0.608651 -7.04676 0
M  V30 566 H 94.6035 0.889796 -7.09039 0
M  V30 567 H 92.7695 0.433128 -9.04664 0
M  V30 568 H 92.7285 -1.89246 -5.57664 0
M  V30 569 H 93.1095 -2.71005 -0.804694 0
M  V30 570 H 93.2985 -1.63189 0.603768 0
M  V30 571 H 93.4065 2.53475 -0.997614 0
M  V30 572 P 94.6394 2.75334 -8.47391 0
M  V30 573 O 94.8594 3.84128 -9.44797 0
M  V30 574 O 95.4294 1.51947 -8.68712 0
M  V30 575 O 94.8894 3.29363 -6.99321 0
M  V30 576 C 93.9494 4.24011 -6.4274 0
M  V30 577 C 94.6794 5.20775 -5.52155 0
M  V30 578 O 94.8894 4.56534 -4.22446 0
M  V30 579 C 96.0794 5.62629 -5.96531 0
M  V30 580 O 96.4694 6.87667 -5.41053 0
M  V30 581 C 96.9594 4.52537 -5.39283 0
M  V30 582 C 96.2494 4.20027 -4.08623 0
M  V30 583 N 96.2994 2.76189 -3.71603 0
M  V30 584 C 96.2194 1.64862 -4.52822 0
M  V30 585 N 96.2994 0.512671 -3.88633 0
M  V30 586 C 96.4394 0.888083 -2.54977 0
M  V30 587 C 96.5694 0.094668 -1.38677 0
M  V30 588 O 96.5894 -1.13053 -1.28163 0
M  V30 589 N 96.6894 0.890102 -0.232633 0
M  V30 590 C 96.6894 2.26958 -0.21772 0
M  V30 591 N 96.8194 2.84626 0.97925 0
M  V30 592 N 96.5594 3.0178 -1.31033 0
M  V30 593 C 96.4394 2.26781 -2.43843 0
M  V30 594 H 93.4604 4.797 -7.24003 0
M  V30 595 H 93.1904 3.69856 -5.84513 0
M  V30 596 H 94.0574 6.10356 -5.41441 0
M  V30 597 H 96.7124 4.79061 -3.27488 0
M  V30 598 H 96.9914 3.64906 -6.05785 0
M  V30 599 H 97.9834 4.8868 -5.2125 0
M  V30 600 H 96.1494 5.66726 -7.06352 0
M  V30 601 H 96.1004 1.71169 -5.60966 0
M  V30 602 H 96.7824 0.419134 0.644739 0
M  V30 603 H 96.8194 3.87332 1.06098 0
M  V30 604 H 96.9204 2.26417 1.82483 0
M  V30 605 P 98.0194 7.20834 -5.23717 0
M  V30 606 O 98.2394 8.66104 -5.38572 0
M  V30 607 O 98.8094 6.33544 -6.1349 0
M  V30 608 O 98.2694 6.7751 -3.72168 0
M  V30 609 C 97.3294 7.20825 -2.7076 0
M  V30 610 C 98.0594 7.45864 -1.40599 0
M  V30 611 O 98.2694 6.17651 -0.734225 0
M  V30 612 C 99.4594 8.05808 -1.51899 0
M  V30 613 O 99.8494 8.74358 -0.335205 0
M  V30 614 C 100.339 6.83093 -1.70294 0
M  V30 615 C 99.6294 5.79992 -0.836974 0
M  V30 616 N 99.6794 4.41864 -1.38293 0
M  V30 617 H 96.8404 8.13644 -3.0377 0
M  V30 618 H 96.5704 6.42788 -2.55485 0
M  V30 619 H 97.4374 8.12039 -0.792769 0
M  V30 620 P 101.399 8.91 -6.54696e-15 0
M  V30 621 O 101.619 10.1726 0.733694 0
M  V30 622 O 102.189 8.73148 -1.23936 0
M  V30 623 O 101.649 7.66872 0.971405 0
M  V30 624 C 100.709 7.42309 2.04641 0
M  V30 625 C 101.439 6.86059 3.24661 0
M  V30 626 O 101.649 5.42847 3.03646 0
M  V30 627 C 102.839 7.41196 3.50753 0
M  V30 628 O 103.229 7.27073 4.86816 0
M  V30 629 C 103.719 6.5273 2.63741 0
M  V30 630 C 103.009 5.1842 2.73198 0
M  V30 631 N 103.059 4.38762 1.4784 0
M  V30 632 H 100.22 8.36803 2.32493 0
M  V30 633 H 99.9504 6.70197 1.71129 0
M  V30 634 H 100.817 7.03551 4.13168 0
M  V30 635 P 104.779 7.20834 5.23717 0
M  V30 636 O 104.999 7.80006 6.57415 0
M  V30 637 O 105.569 7.79416 4.13051 0
M  V30 638 O 105.029 5.63315 5.29344 0
M  V30 639 C 104.089 4.80318 6.01954 0
M  V30 640 C 104.819 3.64202 6.65911 0
M  V30 641 O 105.029 2.60736 5.64823 0
M  V30 642 C 106.219 3.93521 7.19518 0
M  V30 643 O 106.609 3.02071 8.21205 0
M  V30 644 C 107.099 3.73047 5.97036 0
M  V30 645 C 106.389 2.58828 5.25741 0
M  V30 646 N 106.439 2.68068 3.77503 0
M  V30 647 H 103.601 5.40394 6.8003 0
M  V30 648 H 103.329 4.41741 5.32532 0
M  V30 649 H 104.197 3.26371 7.47889 0
M  V30 650 H 106.852 1.64007 5.56746 0
M  V30 651 H 107.132 4.63439 5.3432 0
M  V30 652 H 108.123 3.44776 6.25925 0
M  V30 653 H 106.289 4.96707 7.57347 0
M  V30 654 P 108.159 2.75334 8.47391 0
M  V30 655 O 108.379 2.44571 9.90142 0
M  V30 656 O 108.949 3.87688 7.92115 0
M  V30 657 O 108.409 1.4459 7.59357 0
M  V30 658 C 107.469 0.347608 7.69215 0
M  V30 659 C 108.199 -0.96767 7.52806 0
M  V30 660 O 108.409 -1.21036 6.1011 0
M  V30 661 C 109.599 -1.04544 8.13308 0
M  V30 662 O 109.989 -2.38311 8.41922 0
M  V30 663 C 110.479 -0.491279 7.02284 0
M  V30 664 C 109.769 -0.996264 5.77469 0
M  V30 665 N 109.819 -0.0501916 4.62973 0
M  V30 666 H 106.98 0.374722 8.67691 0
M  V30 667 H 106.71 0.443485 6.90277 0
M  V30 668 H 107.577 -1.75537 7.96793 0
M  V30 669 P 111.539 -2.75334 8.47391 0
M  V30 670 O 111.759 -3.84128 9.44797 0
M  V30 671 O 112.329 -1.51947 8.68712 0
M  V30 672 O 111.789 -3.29363 6.99321 0
M  V30 673 C 110.849 -4.24011 6.4274 0
M  V30 674 C 111.579 -5.20775 5.52155 0
M  V30 675 O 111.789 -4.56534 4.22446 0
M  V30 676 C 112.979 -5.62629 5.96531 0
M  V30 677 O 113.369 -6.87667 5.41053 0
M  V30 678 C 113.859 -4.52537 5.39283 0
M  V30 679 C 113.149 -4.20027 4.08623 0
M  V30 680 N 113.199 -2.76189 3.71603 0
M  V30 681 H 110.36 -4.797 7.24003 0
M  V30 682 H 110.09 -3.69856 5.84513 0
M  V30 683 H 110.957 -6.10356 5.41441 0
M  V30 684 P 114.919 -7.20834 5.23717 0
M  V30 685 O 115.139 -8.66104 5.38572 0
M  V30 686 O 115.709 -6.33544 6.1349 0
M  V30 687 O 115.169 -6.7751 3.72168 0
M  V30 688 C 114.229 -7.20825 2.7076 0
M  V30 689 C 114.959 -7.45864 1.40599 0
M  V30 690 O 115.169 -6.17651 0.734225 0
M  V30 691 C 116.359 -8.05808 1.51899 0
M  V30 692 O 116.749 -8.74358 0.335205 0
M  V30 693 C 117.239 -6.83093 1.70294 0
M  V30 694 C 116.529 -5.79992 0.836974 0
M  V30 695 N 116.579 -4.41864 1.38293 0
M  V30 696 H 113.74 -8.13644 3.0377 0
M  V30 697 H 113.47 -6.42788 2.55485 0
M  V30 698 H 114.337 -8.12039 0.792769 0
M  V30 699 P 118.299 -8.91 7.63812e-15 0
M  V30 700 O 118.519 -10.1726 -0.733694 0
M  V30 701 O 119.089 -8.73148 1.23936 0
M  V30 702 O 118.549 -7.66872 -0.971405 0
M  V30 703 C 117.609 -7.42309 -2.04641 0
M  V30 704 C 118.339 -6.86059 -3.24661 0
M  V30 705 O 118.549 -5.42847 -3.03646 0
M  V30 706 C 119.739 -7.41196 -3.50753 0
M  V30 707 O 120.129 -7.27073 -4.86816 0
M  V30 708 C 120.619 -6.5273 -2.63741 0
M  V30 709 C 119.909 -5.1842 -2.73198 0
M  V30 710 N 119.959 -4.38762 -1.4784 0
M  V30 711 H 117.12 -8.36803 -2.32493 0
M  V30 712 H 116.85 -6.70197 -1.71129 0
M  V30 713 H 117.717 -7.03551 -4.13168 0
M  V30 714 P 121.679 -7.20834 -5.23717 0
M  V30 715 O 121.899 -7.80006 -6.57415 0
M  V30 716 O 122.469 -7.79416 -4.13051 0
M  V30 717 O 121.929 -5.63315 -5.29344 0
M  V30 718 C 120.989 -4.80318 -6.01954 0
M  V30 719 C 121.719 -3.64202 -6.65911 0
M  V30 720 O 121.929 -2.60736 -5.64823 0
M  V30 721 C 123.119 -3.93521 -7.19518 0
M  V30 722 O 123.509 -3.02071 -8.21205 0
M  V30 723 C 123.999 -3.73047 -5.97036 0
M  V30 724 C 123.289 -2.58828 -5.25741 0
M  V30 725 N 123.339 -2.68068 -3.77503 0
M  V30 726 C 123.259 -3.80474 -2.99159 0
M  V30 727 N 123.329 -3.55622 -1.71925 0
M  V30 728 C 123.479 -2.1832 -1.65733 0
M  V30 729 C 123.609 -1.28842 -0.572777 0
M  V30 730 N 123.619 -1.66875 0.70098 0
M  V30 731 N 123.729 0.016788 -0.859836 0
M  V30 732 C 123.719 0.398145 -2.13316 0
M  V30 733 N 123.599 -0.328224 -3.22333 0
M  V30 734 C 123.479 -1.62992 -2.90383 0
M  V30 735 H 120.501 -5.40394 -6.8003 0
M  V30 736 H 120.229 -4.41741 -5.32532 0
M  V30 737 H 121.097 -3.26371 -7.47889 0
M  V30 738 H 123.752 -1.64007 -5.56746 0
M  V30 739 H 124.032 -4.63439 -5.3432 0
M  V30 740 H 125.023 -3.44776 -6.25925 0
M  V30 741 H 123.189 -4.96707 -7.57347 0
M  V30 742 H 123.148 -4.8089 -3.39924 0
M  V30 743 H 123.529 -2.66547 0.941919 0
M  V30 744 H 123.718 -0.965341 1.44766 0
M  V30 745 H 123.826 1.46427 -2.29697 0
M  V30 746 P 125.059 -2.75334 -8.47391 0
M  V30 747 O 125.279 -2.44619 -9.90336 0
M  V30 748 O 125.849 -3.87776 -7.92294 0
M  V30 749 O 125.309 -1.4459 -7.59357 0
M  V30 750 C 124.369 -0.347653 -7.69315 0
M  V30 751 C 125.099 0.96767 -7.52806 0
M  V30 752 O 125.309 1.21055 -6.10208 0
M  V30 753 C 126.499 1.04557 -8.13408 0
M  V30 754 O 126.889 2.38311 -8.41922 0
M  V30 755 C 127.379 0.491279 -7.02284 0
M  V30 756 C 126.669 0.996264 -5.77469 0
M  V30 757 N 126.719 0.0501916 -4.62973 0
M  V30 758 C 126.639 -1.31969 -4.65661 0
M  V30 759 N 126.709 -1.86649 -3.48119 0
M  V30 760 C 126.859 -0.792089 -2.62406 0
M  V30 761 C 126.989 -0.705684 -1.2207 0
M  V30 762 N 126.999 -1.76207 -0.413762 0
M  V30 763 N 127.109 0.518981 -0.685754 0
M  V30 764 C 127.099 1.57595 -1.49174 0
M  V30 765 N 126.979 1.62909 -2.80066 0
M  V30 766 C 126.859 0.388195 -3.3073 0
M  V30 767 H 123.881 -0.374765 -8.67791 0
M  V30 768 H 123.609 -0.443613 -6.90476 0
M  V30 769 H 124.477 1.75559 -7.96891 0
M  V30 770 H 127.132 1.94563 -5.46818 0
M  V30 771 H 127.412 -0.608651 -7.04676 0
M  V30 772 H 128.403 0.889796 -7.09039 0
M  V30 773 H 126.569 0.433128 -9.04664 0
M  V30 774 H 126.528 -1.89246 -5.57664 0
M  V30 775 H 126.909 -2.71005 -0.804694 0
M  V30 776 H 127.098 -1.63189 0.603768 0
M  V30 777 H 127.206 2.53475 -0.997614 0
M  V30 778 P 128.439 2.75334 -8.47391 0
M  V30 779 O 128.659 3.84128 -9.44797 0
M  V30 780 O 129.229 1.51947 -8.68712 0
M  V30 781 O 128.689 3.29363 -6.99321 0
M  V30 782 C 127.749 4.24011 -6.4274 0
M  V30 783 C 128.479 5.20775 -5.52155 0
M  V30 784 O 128.689 4.56534 -4.22446 0
M  V30 785 C 129.879 5.62629 -5.96531 0
M  V30 786 O 130.269 6.87667 -5.41053 0
M  V30 787 C 130.759 4.52537 -5.39283 0
M  V30 788 C 130.049 4.20027 -4.08623 0
M  V30 789 N 130.099 2.76189 -3.71603 0
M  V30 790 H 127.26 4.797 -7.24003 0
M  V30 791 H 126.99 3.69856 -5.84513 0
M  V30 792 H 127.857 6.10356 -5.41441 0
M  V30 793 P 131.819 7.20834 -5.23717 0
M  V30 794 O 132.039 8.66274 -5.38678 0
M  V30 795 O 132.609 6.33687 -6.13629 0
M  V30 796 O 132.069 6.7751 -3.72168 0
M  V30 797 C 131.129 7.20919 -2.70795 0
M  V30 798 C 131.859 7.45864 -1.40599 0
M  V30 799 O 132.069 6.17751 -0.734343 0
M  V30 800 C 133.259 8.05906 -1.51917 0
M  V30 801 O 133.649 8.74358 -0.335205 0
M  V30 802 C 134.139 6.83093 -1.70294 0
M  V30 803 C 133.429 5.79992 -0.836974 0
M  V30 804 N 133.479 4.41864 -1.38293 0
M  V30 805 C 133.399 4.02089 -2.69407 0
M  V30 806 N 133.469 2.73403 -2.85089 0
M  V30 807 C 133.619 2.25086 -1.5642 0
M  V30 808 C 133.749 0.942887 -1.04836 0
M  V30 809 N 133.759 -0.150999 -1.80369 0
M  V30 810 N 133.869 0.812565 0.28167 0
M  V30 811 C 133.859 1.90572 1.03784 0
M  V30 812 N 133.739 3.167 0.683905 0
M  V30 813 C 133.619 3.26538 -0.652815 0
M  V30 814 H 130.641 8.13738 -3.03804 0
M  V30 815 H 130.369 6.42974 -2.55559 0
M  V30 816 H 131.237 8.12139 -0.792866 0
M  V30 817 H 133.892 5.80178 0.160643 0
M  V30 818 H 134.172 6.51379 -2.75643 0
M  V30 819 H 135.163 7.01832 -1.3448 0
M  V30 820 H 133.329 8.73771 -2.38364 0
M  V30 821 H 133.288 4.7189 -3.52311 0
M  V30 822 H 133.669 -0.0721434 -2.82608 0
M  V30 823 H 133.858 -1.0785 -1.36544 0
M  V30 824 H 133.966 1.73207 2.10241 0
M  V30 825 P 135.199 8.91 -8.72928e-15 0
M  V30 826 O 135.419 10.1726 0.733694 0
M  V30 827 O 135.989 8.73148 -1.23936 0
M  V30 828 O 135.449 7.66872 0.971405 0
M  V30 829 C 134.509 7.42309 2.04641 0
M  V30 830 C 135.239 6.86059 3.24661 0
M  V30 831 O 135.449 5.42847 3.03646 0
M  V30 832 C 136.639 7.41196 3.50753 0
M  V30 833 O 137.029 7.27073 4.86816 0
M  V30 834 C 137.519 6.5273 2.63741 0
M  V30 835 C 136.809 5.1842 2.73198 0
M  V30 836 N 136.859 4.38762 1.4784 0
M  V30 837 H 134.02 8.36803 2.32493 0
M  V30 838 H 133.75 6.70197 1.71129 0
M  V30 839 H 134.617 7.03551 4.13168 0
M  V30 840 P 138.579 7.20834 5.23717 0
M  V30 841 O 138.799 7.80006 6.57415 0
M  V30 842 O 139.369 7.79416 4.13051 0
M  V30 843 O 138.829 5.63315 5.29344 0
M  V30 844 C 137.889 4.80318 6.01954 0
M  V30 845 C 138.619 3.64202 6.65911 0
M  V30 846 O 138.829 2.60736 5.64823 0
M  V30 847 C 140.019 3.93521 7.19518 0
M  V30 848 O 140.409 3.02071 8.21205 0
M  V30 849 C 140.899 3.73047 5.97036 0
M  V30 850 C 140.189 2.58828 5.25741 0
M  V30 851 N 140.239 2.68068 3.77503 0
M  V30 852 C 140.159 3.80474 2.99159 0
M  V30 853 N 140.229 3.55622 1.71925 0
M  V30 854 C 140.379 2.1832 1.65733 0
M  V30 855 C 140.509 1.28842 0.572777 0
M  V30 856 N 140.519 1.66875 -0.70098 0
M  V30 857 N 140.629 -0.016788 0.859836 0
M  V30 858 C 140.619 -0.398145 2.13316 0
M  V30 859 N 140.499 0.328224 3.22333 0
M  V30 860 C 140.379 1.62992 2.90383 0
M  V30 861 H 137.401 5.40394 6.8003 0
M  V30 862 H 137.129 4.41741 5.32532 0
M  V30 863 H 137.997 3.26371 7.47889 0
M  V30 864 H 140.652 1.64007 5.56746 0
M  V30 865 H 140.932 4.63439 5.3432 0
M  V30 866 H 141.923 3.44776 6.25925 0
M  V30 867 H 140.089 4.96707 7.57347 0
M  V30 868 H 140.048 4.8089 3.39924 0
M  V30 869 H 140.429 2.66547 -0.941919 0
M  V30 870 H 140.618 0.965341 -1.44766 0
M  V30 871 H 140.726 -1.46427 2.29697 0
M  V30 872 P 141.959 2.75334 8.47391 0
M  V30 873 O 142.179 2.44571 9.90142 0
M  V30 874 O 142.749 3.87688 7.92115 0
M  V30 875 O 142.209 1.4459 7.59357 0
M  V30 876 C 141.269 0.347608 7.69215 0
M  V30 877 C 141.999 -0.96767 7.52806 0
M  V30 878 O 142.209 -1.21036 6.1011 0
M  V30 879 C 143.399 -1.04544 8.13308 0
M  V30 880 O 143.789 -2.38311 8.41922 0
M  V30 881 C 144.279 -0.491279 7.02284 0
M  V30 882 C 143.569 -0.996264 5.77469 0
M  V30 883 N 143.619 -0.0501916 4.62973 0
M  V30 884 H 140.78 0.374722 8.67691 0
M  V30 885 H 140.51 0.443485 6.90277 0
M  V30 886 H 141.377 -1.75537 7.96793 0
M  V30 887 P 145.339 -2.75334 8.47391 0
M  V30 888 O 145.559 -3.84128 9.44797 0
M  V30 889 O 146.129 -1.51947 8.68712 0
M  V30 890 O 145.589 -3.29363 6.99321 0
M  V30 891 C 144.649 -4.24011 6.4274 0
M  V30 892 C 145.379 -5.20775 5.52155 0
M  V30 893 O 145.589 -4.56534 4.22446 0
M  V30 894 C 146.779 -5.62629 5.96531 0
M  V30 895 O 147.169 -6.87667 5.41053 0
M  V30 896 C 147.659 -4.52537 5.39283 0
M  V30 897 C 146.949 -4.20027 4.08623 0
M  V30 898 N 146.999 -2.76189 3.71603 0
M  V30 899 H 144.16 -4.797 7.24003 0
M  V30 900 H 143.89 -3.69856 5.84513 0
M  V30 901 H 144.757 -6.10356 5.41441 0
M  V30 902 P 148.719 -7.20834 5.23717 0
M  V30 903 O 148.939 -8.66104 5.38572 0
M  V30 904 O 149.509 -6.33544 6.1349 0
M  V30 905 O 148.969 -6.7751 3.72168 0
M  V30 906 C 148.029 -7.20825 2.7076 0
M  V30 907 C 148.759 -7.45864 1.40599 0
M  V30 908 O 148.969 -6.17651 0.734225 0
M  V30 909 C 150.159 -8.05808 1.51899 0
M  V30 910 O 150.549 -8.74358 0.335205 0
M  V30 911 C 151.039 -6.83093 1.70294 0
M  V30 912 C 150.329 -5.79992 0.836974 0
M  V30 913 N 150.379 -4.41864 1.38293 0
M  V30 914 H 147.54 -8.13644 3.0377 0
M  V30 915 H 147.27 -6.42788 2.55485 0
M  V30 916 H 148.137 -8.12039 0.792769 0
M  V30 917 P 152.099 -8.91 9.82044e-15 0
M  V30 918 O 152.319 -10.1746 -0.733838 0
M  V30 919 O 152.889 -8.73346 1.23964 0
M  V30 920 O 152.349 -7.66872 -0.971405 0
M  V30 921 C 151.409 -7.42405 -2.04668 0
M  V30 922 C 152.139 -6.86059 -3.24661 0
M  V30 923 O 152.349 -5.42934 -3.03695 0
M  V30 924 C 153.539 -7.41287 -3.50796 0
M  V30 925 O 153.929 -7.27073 -4.86816 0
M  V30 926 C 154.419 -6.5273 -2.63741 0
M  V30 927 C 153.709 -5.1842 -2.73198 0
M  V30 928 N 153.759 -4.38762 -1.4784 0
M  V30 929 H 150.921 -8.36899 -2.3252 0
M  V30 930 H 150.649 -6.70391 -1.71179 0
M  V30 931 H 151.517 -7.03638 -4.13219 0
M  V30 932 H 154.172 -4.59931 -3.54016 0
M  V30 933 H 154.452 -6.88995 -1.59871 0
M  V30 934 H 155.443 -6.4684 -3.0373 0
M  V30 935 H 153.609 -8.47002 -3.20749 0
M  V30 936 P 155.479 -7.20834 -5.23717 0
M  V30 937 O 155.699 -7.79853 -6.57286 0
M  V30 938 O 156.269 -7.79239 -4.12957 0
M  V30 939 O 155.729 -5.63315 -5.29344 0
M  V30 940 C 154.789 -4.80255 -6.01876 0
M  V30 941 C 155.519 -3.64202 -6.65911 0
M  V30 942 O 155.729 -2.60694 -5.64732 0
M  V30 943 C 156.919 -3.93473 -7.1943 0
M  V30 944 O 157.309 -3.02071 -8.21205 0
M  V30 945 C 157.799 -3.73047 -5.97036 0
M  V30 946 C 157.089 -2.58828 -5.25741 0
M  V30 947 N 157.139 -2.68068 -3.77503 0
M  V30 948 H 154.3 -5.40332 -6.79951 0
M  V30 949 H 154.03 -4.41613 -5.32378 0
M  V30 950 H 154.897 -3.26331 -7.47797 0
M  V30 951 P 158.859 -2.75334 -8.47391 0
M  V30 952 O 159.079 -2.44571 -9.90142 0
M  V30 953 O 159.649 -3.87688 -7.92115 0
M  V30 954 O 159.109 -1.4459 -7.59357 0
M  V30 955 C 158.169 -0.347608 -7.69215 0
M  V30 956 C 158.899 0.96767 -7.52806 0
M  V30 957 O 159.109 1.21036 -6.1011 0
M  V30 958 C 160.299 1.04544 -8.13308 0
M  V30 959 O 160.689 2.38311 -8.41922 0
M  V30 960 C 161.179 0.491279 -7.02284 0
M  V30 961 C 160.469 0.996264 -5.77469 0
M  V30 962 N 160.519 0.0501916 -4.62973 0
M  V30 963 H 157.68 -0.374722 -8.67691 0
M  V30 964 H 157.41 -0.443485 -6.90277 0
M  V30 965 H 158.277 1.75537 -7.96793 0
M  V30 966 P 162.239 2.75334 -8.47391 0
M  V30 967 O 162.459 3.84128 -9.44797 0
M  V30 968 O 163.029 1.51947 -8.68712 0
M  V30 969 O 162.489 3.29363 -6.99321 0
M  V30 970 C 161.549 4.24011 -6.4274 0
M  V30 971 C 162.279 5.20775 -5.52155 0
M  V30 972 O 162.489 4.56534 -4.22446 0
M  V30 973 C 163.679 5.62629 -5.96531 0
M  V30 974 O 164.069 6.87667 -5.41053 0
M  V30 975 C 164.559 4.52537 -5.39283 0
M  V30 976 C 163.849 4.20027 -4.08623 0
M  V30 977 N 163.899 2.76189 -3.71603 0
M  V30 978 H 161.06 4.797 -7.24003 0
M  V30 979 H 160.79 3.69856 -5.84513 0
M  V30 980 H 161.657 6.10356 -5.41441 0
M  V30 981 P 165.619 7.20834 -5.23717 0
M  V30 982 O 165.839 8.66104 -5.38572 0
M  V30 983 O 166.409 6.33544 -6.1349 0
M  V30 984 O 165.869 6.7751 -3.72168 0
M  V30 985 C 164.929 7.20825 -2.7076 0
M  V30 986 C 165.659 7.45864 -1.40599 0
M  V30 987 O 165.869 6.17651 -0.734225 0
M  V30 988 C 167.059 8.05808 -1.51899 0
M  V30 989 O 167.449 8.74358 -0.335205 0
M  V30 990 C 167.939 6.83093 -1.70294 0
M  V30 991 C 167.229 5.79992 -0.836974 0
M  V30 992 N 167.279 4.41864 -1.38293 0
M  V30 993 H 164.44 8.13644 -3.0377 0
M  V30 994 H 164.17 6.42788 -2.55485 0
M  V30 995 H 165.037 8.12039 -0.792769 0
M  V30 996 P 168.999 8.91 -1.09116e-14 0
M  V30 997 O 169.219 10.1746 0.733838 0
M  V30 998 O 169.789 8.73346 -1.23964 0
M  V30 999 O 169.249 7.66872 0.971405 0
M  V30 1000 C 168.309 7.42405 2.04668 0
M  V30 1001 C 169.039 6.86059 3.24661 0
M  V30 1002 O 169.249 5.42934 3.03695 0
M  V30 1003 C 170.439 7.41287 3.50796 0
M  V30 1004 O 170.829 7.27073 4.86816 0
M  V30 1005 C 171.319 6.5273 2.63741 0
M  V30 1006 C 170.609 5.1842 2.73198 0
M  V30 1007 N 170.659 4.38762 1.4784 0
M  V30 1008 C 170.579 4.83651 0.183876 0
M  V30 1009 N 170.649 3.88759 -0.699393 0
M  V30 1010 C 170.799 2.7404 0.0575568 0
M  V30 1011 C 170.929 1.37902 -0.293928 0
M  V30 1012 N 170.939 0.938021 -1.54797 0
M  V30 1013 N 171.049 0.491817 0.70549 0
M  V30 1014 C 171.039 0.931735 1.95979 0
M  V30 1015 N 170.919 2.16017 2.41481 0
M  V30 1016 C 170.799 3.02547 1.39121 0
M  V30 1017 H 167.821 8.36899 2.3252 0
M  V30 1018 H 167.549 6.70391 1.71179 0
M  V30 1019 H 168.417 7.03638 4.13219 0
M  V30 1020 H 171.072 4.59931 3.54016 0
M  V30 1021 H 171.352 6.88995 1.59871 0
M  V30 1022 H 172.343 6.4684 3.0373 0
M  V30 1023 H 170.509 8.47002 3.20749 0
M  V30 1024 H 170.468 5.8885 -0.0765548 0
M  V30 1025 H 170.849 1.60276 -2.32875 0
M  V30 1026 H 171.038 -0.0699355 -1.73859 0
M  V30 1027 H 171.146 0.165507 2.71897 0
M  V30 1028 P 172.379 7.20834 5.23717 0
M  V30 1029 O 172.599 7.80006 6.57415 0
M  V30 1030 O 173.169 7.79416 4.13051 0
M  V30 1031 O 172.629 5.63315 5.29344 0
M  V30 1032 C 171.689 4.80318 6.01954 0
M  V30 1033 C 172.419 3.64202 6.65911 0
M  V30 1034 O 172.629 2.60736 5.64823 0
M  V30 1035 C 173.819 3.93521 7.19518 0
M  V30 1036 O 174.209 3.02071 8.21205 0
M  V30 1037 C 174.699 3.73047 5.97036 0
M  V30 1038 C 173.989 2.58828 5.25741 0
M  V30 1039 N 174.039 2.68068 3.77503 0
M  V30 1040 C 173.959 3.80474 2.99159 0
M  V30 1041 N 174.029 3.55622 1.71925 0
M  V30 1042 C 174.179 2.1832 1.65733 0
M  V30 1043 C 174.309 1.28842 0.572777 0
M  V30 1044 N 174.319 1.66875 -0.70098 0
M  V30 1045 N 174.429 -0.016788 0.859836 0
M  V30 1046 C 174.419 -0.398145 2.13316 0
M  V30 1047 N 174.299 0.328224 3.22333 0
M  V30 1048 C 174.179 1.62992 2.90383 0
M  V30 1049 H 171.201 5.40394 6.8003 0
M  V30 1050 H 170.929 4.41741 5.32532 0
M  V30 1051 H 171.797 3.26371 7.47889 0
M  V30 1052 H 174.452 1.64007 5.56746 0
M  V30 1053 H 174.732 4.63439 5.3432 0
M  V30 1054 H 175.723 3.44776 6.25925 0
M  V30 1055 H 173.889 4.96707 7.57347 0
M  V30 1056 H 173.848 4.8089 3.39924 0
M  V30 1057 H 174.229 2.66547 -0.941919 0
M  V30 1058 H 174.418 0.965341 -1.44766 0
M  V30 1059 H 174.526 -1.46427 2.29697 0
M  V30 1060 P 175.759 2.75334 8.47391 0
M  V30 1061 O 175.979 2.44571 9.90142 0
M  V30 1062 O 176.549 3.87688 7.92115 0
M  V30 1063 O 176.009 1.4459 7.59357 0
M  V30 1064 C 175.069 0.347608 7.69215 0
M  V30 1065 C 175.799 -0.96767 7.52806 0
M  V30 1066 O 176.009 -1.21036 6.1011 0
M  V30 1067 C 177.199 -1.04544 8.13308 0
M  V30 1068 O 177.589 -2.38311 8.41922 0
M  V30 1069 C 178.079 -0.491279 7.02284 0
M  V30 1070 C 177.369 -0.996264 5.77469 0
M  V30 1071 N 177.419 -0.0501916 4.62973 0
M  V30 1072 H 174.58 0.374722 8.67691 0
M  V30 1073 H 174.31 0.443485 6.90277 0
M  V30 1074 H 175.177 -1.75537 7.96793 0
M  V30 1075 P 179.139 -2.75334 8.47391 0
M  V30 1076 O 179.359 -3.84204 9.44982 0
M  V30 1077 O 179.929 -1.51982 8.68909 0
M  V30 1078 O 179.389 -3.29363 6.99321 0
M  V30 1079 C 178.449 -4.24066 6.42823 0
M  V30 1080 C 179.179 -5.20775 5.52155 0
M  V30 1081 O 179.389 -4.56607 4.22514 0
M  V30 1082 C 180.579 -5.62697 5.96604 0
M  V30 1083 O 180.969 -6.87667 5.41053 0
M  V30 1084 C 181.459 -4.52537 5.39283 0
M  V30 1085 C 180.749 -4.20027 4.08623 0
M  V30 1086 N 180.799 -2.76189 3.71603 0
M  V30 1087 C 180.719 -1.66944 4.54297 0
M  V30 1088 N 180.789 -0.536169 3.91344 0
M  V30 1089 C 180.939 -0.901569 2.58849 0
M  V30 1090 C 181.069 -0.146599 1.40236 0
M  V30 1091 N 181.079 1.18234 1.37046 0
M  V30 1092 N 181.189 -0.822941 0.249738 0
M  V30 1093 C 181.179 -2.15179 0.280525 0
M  V30 1094 N 181.059 -2.96414 1.30822 0
M  V30 1095 C 180.939 -2.25804 2.44748 0
M  V30 1096 H 177.961 -4.79756 7.24086 0
M  V30 1097 H 177.689 -3.69963 5.84682 0
M  V30 1098 H 178.557 -6.10431 5.41508 0
M  V30 1099 H 181.212 -4.78816 3.28024 0
M  V30 1100 H 181.492 -3.64957 6.05871 0
M  V30 1101 H 182.483 -4.88748 5.21323 0
M  V30 1102 H 180.649 -5.66789 7.0643 0
M  V30 1103 H 180.608 -1.74684 5.62396 0
M  V30 1104 H 180.989 1.71949 2.24394 0
M  V30 1105 H 181.178 1.67511 0.470742 0
M  V30 1106 H 181.286 -2.63704 -0.6828 0
M  V30 1107 P 182.519 -7.20834 5.23717 0
M  V30 1108 O 182.739 -8.66104 5.38572 0
M  V30 1109 O 183.309 -6.33544 6.1349 0
M  V30 1110 O 182.769 -6.7751 3.72168 0
M  V30 1111 C 181.829 -7.20825 2.7076 0
M  V30 1112 C 182.559 -7.45864 1.40599 0
M  V30 1113 O 182.769 -6.17651 0.734225 0
M  V30 1114 C 183.959 -8.05808 1.51899 0
M  V30 1115 O 184.349 -8.74358 0.335205 0
M  V30 1116 C 184.839 -6.83093 1.70294 0
M  V30 1117 C 184.129 -5.79992 0.836974 0
M  V30 1118 N 184.179 -4.41864 1.38293 0
M  V30 1119 H 181.34 -8.13644 3.0377 0
M  V30 1120 H 181.07 -6.42788 2.55485 0
M  V30 1121 H 181.937 -8.12039 0.792769 0
M  V30 1122 P 185.899 -8.91 -8.29613e-14 0
M  V30 1123 O 186.119 -10.1736 -0.733766 0
M  V30 1124 O 186.689 -8.73247 1.2395 0
M  V30 1125 O 186.149 -7.66872 -0.971405 0
M  V30 1126 C 185.209 -7.42309 -2.04641 0
M  V30 1127 C 185.939 -6.86059 -3.24661 0
M  V30 1128 O 186.149 -5.42847 -3.03646 0
M  V30 1129 C 187.339 -7.41196 -3.50753 0
M  V30 1130 O 187.729 -7.27073 -4.86816 0
M  V30 1131 C 188.219 -6.5273 -2.63741 0
M  V30 1132 C 187.509 -5.1842 -2.73198 0
M  V30 1133 N 187.559 -4.38668 -1.47808 0
M  V30 1134 C 187.709 -3.00789 -1.58511 0
M  V30 1135 O 187.799 -2.50116 -2.71298 0
M  V30 1136 N 187.759 -2.29703 -0.253698 0
M  V30 1137 C 187.659 -2.84269 0.750133 0
M  V30 1138 N 187.709 -2.06951 1.82612 0
M  V30 1139 C 187.509 -4.25803 0.889776 0
M  V30 1140 C 187.459 -4.98326 -0.259363 0
M  V30 1141 H 184.719 -8.36707 -2.32466 0
M  V30 1142 H 184.45 -6.701 -1.71105 0
M  V30 1143 H 185.317 -7.03638 -4.13219 0
M  V30 1144 H 187.972 -4.59852 -3.53955 0
M  V30 1145 H 188.251 -6.88995 -1.59871 0
M  V30 1146 H 189.243 -6.46749 -3.03687 0
M  V30 1147 H 187.409 -8.46908 -3.20714 0
M  V30 1148 H 187.337 -6.06349 -0.206238 0
M  V30 1149 H 187.439 -4.73163 1.86796 0
M  V30 1150 H 187.827 -1.05099 1.72271 0
M  V30 1151 H 187.63 -2.48716 2.76361 0
M  V30 1152 P 189.279 -7.20834 -5.23717 0
M  V30 1153 O 189.499 -7.79853 -6.57286 0
M  V30 1154 O 190.069 -7.79239 -4.12957 0
M  V30 1155 O 189.529 -5.63315 -5.29344 0
M  V30 1156 C 188.589 -4.80255 -6.01876 0
M  V30 1157 C 189.319 -3.64202 -6.65911 0
M  V30 1158 O 189.529 -2.60694 -5.64732 0
M  V30 1159 C 190.719 -3.93473 -7.1943 0
M  V30 1160 O 191.109 -3.02071 -8.21205 0
M  V30 1161 C 191.599 -3.73047 -5.97036 0
M  V30 1162 C 190.889 -2.58828 -5.25741 0
M  V30 1163 N 190.939 -2.68068 -3.77503 0
M  V30 1164 H 188.1 -5.40332 -6.79951 0
M  V30 1165 H 187.83 -4.41613 -5.32378 0
M  V30 1166 H 188.697 -3.26331 -7.47797 0
M  V30 1167 P 192.659 -2.75334 -8.47391 0
M  V30 1168 O 192.879 -2.44571 -9.90142 0
M  V30 1169 O 193.449 -3.87688 -7.92115 0
M  V30 1170 O 192.909 -1.4459 -7.59357 0
M  V30 1171 C 191.969 -0.347608 -7.69215 0
M  V30 1172 C 192.699 0.96767 -7.52806 0
M  V30 1173 O 192.909 1.21036 -6.1011 0
M  V30 1174 C 194.099 1.04544 -8.13308 0
M  V30 1175 O 194.489 2.38311 -8.41922 0
M  V30 1176 C 194.979 0.491279 -7.02284 0
M  V30 1177 C 194.269 0.996264 -5.77469 0
M  V30 1178 N 194.319 0.0501916 -4.62973 0
M  V30 1179 C 194.239 -1.32786 -4.63244 0
M  V30 1180 N 194.319 -1.86957 -3.44545 0
M  V30 1181 C 194.459 -0.780241 -2.58481 0
M  V30 1182 C 194.589 -0.738536 -1.17757 0
M  V30 1183 N 194.709 0.58337 -0.711393 0
M  V30 1184 C 194.709 1.70816 -1.51017 0
M  V30 1185 N 194.839 2.87826 -0.880757 0
M  V30 1186 N 194.579 1.67126 -2.8339 0
M  V30 1187 C 194.459 0.401421 -3.30572 0
M  V30 1188 H 191.48 -0.374722 -8.67691 0
M  V30 1189 H 191.21 -0.443485 -6.90277 0
M  V30 1190 H 192.077 1.75537 -7.96793 0
M  V30 1191 P 196.039 2.75334 -8.47391 0
M  V30 1192 O 196.259 3.84128 -9.44797 0
M  V30 1193 O 196.829 1.51947 -8.68712 0
M  V30 1194 O 196.289 3.29363 -6.99321 0
M  V30 1195 C 195.349 4.24011 -6.4274 0
M  V30 1196 C 196.079 5.20775 -5.52155 0
M  V30 1197 O 196.289 4.56534 -4.22446 0
M  V30 1198 C 197.479 5.62629 -5.96531 0
M  V30 1199 O 197.869 6.87667 -5.41053 0
M  V30 1200 C 198.359 4.52537 -5.39283 0
M  V30 1201 C 197.649 4.20027 -4.08623 0
M  V30 1202 N 197.699 2.76189 -3.71603 0
M  V30 1203 H 194.86 4.797 -7.24003 0
M  V30 1204 H 194.59 3.69856 -5.84513 0
M  V30 1205 H 195.457 6.10356 -5.41441 0
M  V30 1206 P 199.419 7.20834 -5.23717 0
M  V30 1207 O 199.639 8.66104 -5.38572 0
M  V30 1208 O 200.209 6.33544 -6.1349 0
M  V30 1209 O 199.669 6.7751 -3.72168 0
M  V30 1210 C 198.729 7.20825 -2.7076 0
M  V30 1211 C 199.459 7.45864 -1.40599 0
M  V30 1212 O 199.669 6.17651 -0.734225 0
M  V30 1213 C 200.859 8.05808 -1.51899 0
M  V30 1214 O 201.249 8.74358 -0.335205 0
M  V30 1215 C 201.739 6.83093 -1.70294 0
M  V30 1216 C 201.029 5.79992 -0.836974 0
M  V30 1217 N 201.079 4.41864 -1.38293 0
M  V30 1218 C 200.999 3.99538 -2.69438 0
M  V30 1219 N 201.079 2.69909 -2.84277 0
M  V30 1220 C 201.219 2.21719 -1.5408 0
M  V30 1221 C 201.349 0.891712 -1.06628 0
M  V30 1222 N 201.469 0.856846 0.334985 0
M  V30 1223 C 201.469 1.9641 1.15789 0
M  V30 1224 N 201.599 1.72708 2.46522 0
M  V30 1225 N 201.339 3.21165 0.713741 0
M  V30 1226 C 201.219 3.26797 -0.639748 0
M  V30 1227 H 198.24 8.13644 -3.0377 0
M  V30 1228 H 197.97 6.42788 -2.55485 0
M  V30 1229 H 198.837 8.12039 -0.792769 0
M  V30 1230 P 202.799 8.91 2.40144e-13 0
M  V30 1231 O 203.019 10.1736 0.733766 0
M  V30 1232 O 203.589 8.73247 -1.2395 0
M  V30 1233 O 203.049 7.66872 0.971405 0
M  V30 1234 C 202.109 7.42309 2.04641 0
M  V30 1235 C 202.839 6.86059 3.24661 0
M  V30 1236 O 203.049 5.42847 3.03646 0
M  V30 1237 C 204.239 7.41196 3.50753 0
M  V30 1238 O 204.629 7.27073 4.86816 0
M  V30 1239 C 205.119 6.5273 2.63741 0
M  V30 1240 C 204.409 5.1842 2.73198 0
M  V30 1241 N 204.459 4.38668 1.47808 0
M  V30 1242 C 204.609 3.00789 1.58511 0
M  V30 1243 O 204.699 2.50116 2.71298 0
M  V30 1244 N 204.659 2.29703 0.253698 0
M  V30 1245 C 204.559 2.84269 -0.750133 0
M  V30 1246 N 204.609 2.06951 -1.82612 0
M  V30 1247 C 204.409 4.25803 -0.889776 0
M  V30 1248 C 204.359 4.98326 0.259363 0
M  V30 1249 H 201.619 8.36707 2.32466 0
M  V30 1250 H 201.35 6.701 1.71105 0
M  V30 1251 H 202.217 7.03638 4.13219 0
M  V30 1252 H 204.872 4.59852 3.53955 0
M  V30 1253 H 205.151 6.88995 1.59871 0
M  V30 1254 H 206.143 6.46749 3.03687 0
M  V30 1255 H 204.309 8.46908 3.20714 0
M  V30 1256 H 204.237 6.06349 0.206238 0
M  V30 1257 H 204.339 4.73163 -1.86796 0
M  V30 1258 H 204.727 1.05099 -1.72271 0
M  V30 1259 H 204.53 2.48716 -2.76361 0
M  V30 1260 P 206.179 7.20834 5.23717 0
M  V30 1261 O 206.399 7.79853 6.57286 0
M  V30 1262 O 206.969 7.79239 4.12957 0
M  V30 1263 O 206.429 5.63315 5.29344 0
M  V30 1264 C 205.489 4.80255 6.01876 0
M  V30 1265 C 206.219 3.64202 6.65911 0
M  V30 1266 O 206.429 2.60694 5.64732 0
M  V30 1267 C 207.619 3.93473 7.1943 0
M  V30 1268 O 208.009 3.02071 8.21205 0
M  V30 1269 C 208.499 3.73047 5.97036 0
M  V30 1270 C 207.789 2.58828 5.25741 0
M  V30 1271 N 207.839 2.68068 3.77503 0
M  V30 1272 H 205 5.40332 6.79951 0
M  V30 1273 H 204.73 4.41613 5.32378 0
M  V30 1274 H 205.597 3.26331 7.47797 0
M  V30 1275 P 209.559 2.75334 8.47391 0
M  V30 1276 O 209.779 2.44571 9.90142 0
M  V30 1277 O 210.349 3.87688 7.92115 0
M  V30 1278 O 209.809 1.4459 7.59357 0
M  V30 1279 C 208.869 0.347608 7.69215 0
M  V30 1280 C 209.599 -0.96767 7.52806 0
M  V30 1281 O 209.809 -1.21036 6.1011 0
M  V30 1282 C 210.999 -1.04544 8.13308 0
M  V30 1283 O 211.389 -2.38311 8.41922 0
M  V30 1284 C 211.879 -0.491279 7.02284 0
M  V30 1285 C 211.169 -0.996264 5.77469 0
M  V30 1286 N 211.219 -0.0501916 4.62973 0
M  V30 1287 C 211.139 1.32786 4.63244 0
M  V30 1288 N 211.219 1.86957 3.44545 0
M  V30 1289 C 211.359 0.780241 2.58481 0
M  V30 1290 C 211.489 0.738536 1.17757 0
M  V30 1291 O 211.509 1.66794 0.372349 0
M  V30 1292 N 211.609 -0.58337 0.711393 0
M  V30 1293 C 211.609 -1.70816 1.51017 0
M  V30 1294 N 211.739 -2.87826 0.880757 0
M  V30 1295 N 211.479 -1.67126 2.8339 0
M  V30 1296 C 211.359 -0.401421 3.30572 0
M  V30 1297 H 208.38 0.374722 8.67691 0
M  V30 1298 H 208.11 0.443485 6.90277 0
M  V30 1299 H 208.977 -1.75537 7.96793 0
M  V30 1300 H 211.632 -1.95076 5.46529 0
M  V30 1301 H 211.911 0.608565 7.04577 0
M  V30 1302 H 212.903 -0.889672 7.08939 0
M  V30 1303 H 211.069 -0.43308 9.04564 0
M  V30 1304 H 211.02 1.91249 5.54442 0
M  V30 1305 H 211.702 -0.718054 -0.275244 0
M  V30 1306 H 211.739 -3.75721 1.41832 0
M  V30 1307 H 211.84 -2.90436 -0.145468 0
M  V30 1308 P 212.939 -2.75334 8.47391 0
M  V30 1309 O 213.159 -3.84128 9.44797 0
M  V30 1310 O 213.729 -1.51947 8.68712 0
M  V30 1311 O 213.189 -3.29363 6.99321 0
M  V30 1312 C 212.249 -4.24011 6.4274 0
M  V30 1313 C 212.979 -5.20775 5.52155 0
M  V30 1314 O 213.189 -4.56534 4.22446 0
M  V30 1315 C 214.379 -5.62629 5.96531 0
M  V30 1316 O 214.769 -6.87667 5.41053 0
M  V30 1317 C 215.259 -4.52537 5.39283 0
M  V30 1318 C 214.549 -4.20027 4.08623 0
M  V30 1319 N 214.599 -2.76189 3.71603 0
M  V30 1320 H 211.76 -4.797 7.24003 0
M  V30 1321 H 211.49 -3.69856 5.84513 0
M  V30 1322 H 212.357 -6.10356 5.41441 0
M  V30 1323 P 216.319 -7.20834 5.23717 0
M  V30 1324 O 216.539 -8.66104 5.38572 0
M  V30 1325 O 217.109 -6.33544 6.1349 0
M  V30 1326 O 216.569 -6.7751 3.72168 0
M  V30 1327 C 215.629 -7.20825 2.7076 0
M  V30 1328 C 216.359 -7.45864 1.40599 0
M  V30 1329 O 216.569 -6.17651 0.734225 0
M  V30 1330 C 217.759 -8.05808 1.51899 0
M  V30 1331 O 218.149 -8.74358 0.335205 0
M  V30 1332 C 218.639 -6.83093 1.70294 0
M  V30 1333 C 217.929 -5.79992 0.836974 0
M  V30 1334 N 217.979 -4.41864 1.38293 0
M  V30 1335 H 215.14 -8.13644 3.0377 0
M  V30 1336 H 214.87 -6.42788 2.55485 0
M  V30 1337 H 215.737 -8.12039 0.792769 0
M  V30 1338 P 219.699 -8.91 -3.97326e-13 0
M  V30 1339 O 219.919 -10.1736 -0.733766 0
M  V30 1340 O 220.489 -8.73247 1.2395 0
M  V30 1341 O 219.949 -7.66872 -0.971405 0
M  V30 1342 C 219.009 -7.42212 -2.04614 0
M  V30 1343 C 219.739 -6.86059 -3.24661 0
M  V30 1344 O 219.949 -5.42847 -3.03646 0
M  V30 1345 C 221.139 -7.41196 -3.50753 0
M  V30 1346 O 221.529 -7.27073 -4.86816 0
M  V30 1347 C 222.019 -6.5273 -2.63741 0
M  V30 1348 C 221.309 -5.1842 -2.73198 0
M  V30 1349 N 221.359 -4.38668 -1.47808 0
M  V30 1350 C 221.509 -3.02239 -1.60048 0
M  V30 1351 O 221.599 -2.46459 -2.67869 0
M  V30 1352 N 221.549 -2.32436 -0.408571 0
M  V30 1353 C 221.459 -2.85471 0.854993 0
M  V30 1354 O 221.509 -2.12566 1.8531 0
M  V30 1355 C 221.309 -4.28918 0.887335 0
M  V30 1356 C 221.199 -4.91066 2.24619 0
M  V30 1357 C 221.259 -5.00349 -0.255399 0
M  V30 1358 H 218.519 -8.36803 -2.32493 0
M  V30 1359 H 218.25 -6.701 -1.71105 0
M  V30 1360 H 219.117 -7.03551 -4.13168 0
M  V30 1361 H 221.772 -4.59773 -3.53894 0
M  V30 1362 H 222.051 -6.88995 -1.59871 0
M  V30 1363 H 223.043 -6.46749 -3.03687 0
M  V30 1364 H 221.209 -8.46908 -3.20714 0
M  V30 1365 H 221.138 -6.08548 -0.206986 0
M  V30 1366 H 222.168 -5.34836 2.53099 0
M  V30 1367 H 220.431 -5.69638 2.2291 0
M  V30 1368 H 220.919 -4.13971 2.98044 0
M  V30 1369 H 221.655 -1.33211 -0.474216 0
M  V30 1370 P 223.079 -7.20834 -5.23717 0
M  V30 1371 O 223.299 -7.7993 -6.57351 0
M  V30 1372 O 223.869 -7.79328 -4.13004 0
M  V30 1373 O 223.329 -5.63315 -5.29344 0
M  V30 1374 C 222.389 -4.80193 -6.01798 0
M  V30 1375 C 223.119 -3.64202 -6.65911 0
M  V30 1376 O 223.329 -2.60694 -5.64732 0
M  V30 1377 C 224.519 -3.93473 -7.1943 0
M  V30 1378 O 224.909 -3.02071 -8.21205 0
M  V30 1379 C 225.399 -3.73047 -5.97036 0
M  V30 1380 C 224.689 -2.58828 -5.25741 0
M  V30 1381 N 224.739 -2.6801 -3.77422 0
M  V30 1382 C 224.889 -1.50443 -3.07133 0
M  V30 1383 O 224.979 -0.419406 -3.61576 0
M  V30 1384 N 224.929 -1.6403 -1.69677 0
M  V30 1385 C 224.839 -2.81206 -0.986255 0
M  V30 1386 O 224.889 -2.80892 0.249754 0
M  V30 1387 C 224.689 -3.99158 -1.80325 0
M  V30 1388 C 224.579 -5.29309 -1.06921 0
M  V30 1389 C 224.639 -3.89779 -3.1476 0
M  V30 1390 H 221.899 -5.40332 -6.79951 0
M  V30 1391 H 221.63 -4.41549 -5.32301 0
M  V30 1392 H 222.497 -3.26331 -7.47797 0
M  V30 1393 H 225.152 -1.6395 -5.56554 0
M  V30 1394 H 225.431 -4.63439 -5.3432 0
M  V30 1395 H 226.423 -3.44728 -6.25838 0
M  V30 1396 H 224.589 -4.96652 -7.57263 0
M  V30 1397 H 224.518 -4.80159 -3.74441 0
M  V30 1398 H 225.548 -5.81459 -1.09608 0
M  V30 1399 H 223.811 -5.9187 -1.54487 0
M  V30 1400 H 224.299 -5.10095 -0.0220288 0
M  V30 1401 H 225.035 -0.798962 -1.16664 0
M  V30 1402 P 226.459 -2.75334 -8.47391 0
M  V30 1403 O 226.679 -2.44571 -9.90142 0
M  V30 1404 O 227.249 -3.87688 -7.92115 0
M  V30 1405 O 226.709 -1.4459 -7.59357 0
M  V30 1406 C 225.769 -0.347608 -7.69215 0
M  V30 1407 C 226.499 0.96767 -7.52806 0
M  V30 1408 O 226.709 1.21036 -6.1011 0
M  V30 1409 C 227.899 1.04544 -8.13308 0
M  V30 1410 O 228.289 2.38311 -8.41922 0
M  V30 1411 C 228.779 0.491279 -7.02284 0
M  V30 1412 C 228.069 0.996264 -5.77469 0
M  V30 1413 N 228.119 0.0501916 -4.62973 0
M  V30 1414 H 225.28 -0.374722 -8.67691 0
M  V30 1415 H 225.01 -0.443485 -6.90277 0
M  V30 1416 H 225.877 1.75537 -7.96793 0
M  V30 1417 P 229.839 2.75334 -8.47391 0
M  V30 1418 O 230.059 3.84128 -9.44797 0
M  V30 1419 O 230.629 1.51947 -8.68712 0
M  V30 1420 O 230.089 3.29363 -6.99321 0
M  V30 1421 C 229.149 4.24011 -6.4274 0
M  V30 1422 C 229.879 5.20775 -5.52155 0
M  V30 1423 O 230.089 4.56534 -4.22446 0
M  V30 1424 C 231.279 5.62629 -5.96531 0
M  V30 1425 O 231.669 6.87667 -5.41053 0
M  V30 1426 C 232.159 4.52537 -5.39283 0
M  V30 1427 C 231.449 4.20027 -4.08623 0
M  V30 1428 N 231.499 2.76189 -3.71603 0
M  V30 1429 C 231.419 1.64862 -4.52822 0
M  V30 1430 N 231.499 0.512671 -3.88633 0
M  V30 1431 C 231.639 0.888083 -2.54977 0
M  V30 1432 C 231.769 0.094668 -1.38677 0
M  V30 1433 O 231.789 -1.13053 -1.28163 0
M  V30 1434 N 231.889 0.890102 -0.232633 0
M  V30 1435 C 231.889 2.26958 -0.21772 0
M  V30 1436 N 232.019 2.84626 0.97925 0
M  V30 1437 N 231.759 3.0178 -1.31033 0
M  V30 1438 C 231.639 2.26781 -2.43843 0
M  V30 1439 H 228.66 4.797 -7.24003 0
M  V30 1440 H 228.39 3.69856 -5.84513 0
M  V30 1441 H 229.257 6.10356 -5.41441 0
M  V30 1442 H 231.912 4.79061 -3.27488 0
M  V30 1443 H 232.191 3.64906 -6.05785 0
M  V30 1444 H 233.183 4.8868 -5.2125 0
M  V30 1445 H 231.349 5.66726 -7.06352 0
M  V30 1446 H 231.3 1.71169 -5.60966 0
M  V30 1447 H 231.982 0.419134 0.644739 0
M  V30 1448 H 232.019 3.87332 1.06098 0
M  V30 1449 H 232.12 2.26417 1.82483 0
M  V30 1450 P 233.219 7.20834 -5.23717 0
M  V30 1451 O 233.439 8.66104 -5.38572 0
M  V30 1452 O 234.009 6.33544 -6.1349 0
M  V30 1453 O 233.469 6.7751 -3.72168 0
M  V30 1454 C 232.529 7.20825 -2.7076 0
M  V30 1455 C 233.259 7.45864 -1.40599 0
M  V30 1456 O 233.469 6.17651 -0.734225 0
M  V30 1457 C 234.659 8.05808 -1.51899 0
M  V30 1458 O 235.049 8.74358 -0.335205 0
M  V30 1459 C 235.539 6.83093 -1.70294 0
M  V30 1460 C 234.829 5.79992 -0.836974 0
M  V30 1461 N 234.879 4.41864 -1.38293 0
M  V30 1462 H 232.04 8.13644 -3.0377 0
M  V30 1463 H 231.77 6.42788 -2.55485 0
M  V30 1464 H 232.637 8.12039 -0.792769 0
M  V30 1465 P 236.599 8.91 5.54508e-13 0
M  V30 1466 O 236.819 10.1736 0.733766 0
M  V30 1467 O 237.389 8.73247 -1.2395 0
M  V30 1468 O 236.849 7.66872 0.971405 0
M  V30 1469 C 235.909 7.42212 2.04614 0
M  V30 1470 C 236.639 6.86059 3.24661 0
M  V30 1471 O 236.849 5.42847 3.03646 0
M  V30 1472 C 238.039 7.41196 3.50753 0
M  V30 1473 O 238.429 7.27073 4.86816 0
M  V30 1474 C 238.919 6.5273 2.63741 0
M  V30 1475 C 238.209 5.1842 2.73198 0
M  V30 1476 N 238.259 4.38668 1.47808 0
M  V30 1477 C 238.409 3.02239 1.60048 0
M  V30 1478 O 238.499 2.46459 2.67869 0
M  V30 1479 N 238.449 2.32436 0.408571 0
M  V30 1480 C 238.359 2.85471 -0.854993 0
M  V30 1481 C 238.209 4.28918 -0.887335 0
M  V30 1482 C 238.159 5.00349 0.255399 0
M  V30 1483 H 235.419 8.36803 2.32493 0
M  V30 1484 H 235.15 6.701 1.71105 0
M  V30 1485 H 236.017 7.03551 4.13168 0
M  V30 1486 H 238.672 4.59773 3.53894 0
M  V30 1487 H 238.951 6.88995 1.59871 0
M  V30 1488 H 239.943 6.46749 3.03687 0
M  V30 1489 H 238.109 8.46908 3.20714 0
M  V30 1490 H 238.038 6.08548 0.206986 0
M  V30 1491 P 239.979 7.20834 5.23717 0
M  V30 1492 O 240.199 7.79853 6.57286 0
M  V30 1493 O 240.769 7.79239 4.12957 0
M  V30 1494 O 240.229 5.63315 5.29344 0
M  V30 1495 C 239.289 4.80255 6.01876 0
M  V30 1496 C 240.019 3.64202 6.65911 0
M  V30 1497 O 240.229 2.60694 5.64732 0
M  V30 1498 C 241.419 3.93473 7.1943 0
M  V30 1499 O 241.809 3.02071 8.21205 0
M  V30 1500 C 242.299 3.73047 5.97036 0
M  V30 1501 C 241.589 2.58828 5.25741 0
M  V30 1502 N 241.639 2.68068 3.77503 0
M  V30 1503 C 241.559 3.79715 2.96723 0
M  V30 1504 N 241.639 3.5377 1.68852 0
M  V30 1505 C 241.779 2.15054 1.63254 0
M  V30 1506 C 241.909 1.28964 0.518571 0
M  V30 1507 N 242.029 -0.0538097 0.918425 0
M  V30 1508 C 242.029 -0.494275 2.22578 0
M  V30 1509 N 242.159 -1.81086 2.40434 0
M  V30 1510 N 241.899 0.313645 3.27502 0
M  V30 1511 C 241.779 1.61829 2.91033 0
M  V30 1512 H 238.8 5.40332 6.79951 0
M  V30 1513 H 238.53 4.41613 5.32378 0
M  V30 1514 H 239.397 3.26331 7.47797 0
M  V30 1515 P 243.359 2.75334 8.47391 0
M  V30 1516 O 243.579 2.44571 9.90142 0
M  V30 1517 O 244.149 3.87688 7.92115 0
M  V30 1518 O 243.609 1.4459 7.59357 0
M  V30 1519 C 242.669 0.347608 7.69215 0
M  V30 1520 C 243.399 -0.96767 7.52806 0
M  V30 1521 O 243.609 -1.21036 6.1011 0
M  V30 1522 C 244.799 -1.04544 8.13308 0
M  V30 1523 O 245.189 -2.38311 8.41922 0
M  V30 1524 C 245.679 -0.491279 7.02284 0
M  V30 1525 C 244.969 -0.996264 5.77469 0
M  V30 1526 N 245.019 -0.0501916 4.62973 0
M  V30 1527 H 242.18 0.374722 8.67691 0
M  V30 1528 H 241.91 0.443485 6.90277 0
M  V30 1529 H 242.777 -1.75537 7.96793 0
M  V30 1530 P 246.739 -2.75334 8.47391 0
M  V30 1531 O 246.959 -3.84128 9.44797 0
M  V30 1532 O 247.529 -1.51947 8.68712 0
M  V30 1533 O 246.989 -3.29363 6.99321 0
M  V30 1534 C 246.049 -4.24011 6.4274 0
M  V30 1535 C 246.779 -5.20775 5.52155 0
M  V30 1536 O 246.989 -4.56534 4.22446 0
M  V30 1537 C 248.179 -5.62629 5.96531 0
M  V30 1538 O 248.569 -6.87667 5.41053 0
M  V30 1539 C 249.059 -4.52537 5.39283 0
M  V30 1540 C 248.349 -4.20027 4.08623 0
M  V30 1541 N 248.399 -2.76189 3.71603 0
M  V30 1542 H 245.56 -4.797 7.24003 0
M  V30 1543 H 245.29 -3.69856 5.84513 0
M  V30 1544 H 246.157 -6.10356 5.41441 0
M  V30 1545 P 250.119 -7.20834 5.23717 0
M  V30 1546 O 250.339 -8.66189 5.38625 0
M  V30 1547 O 250.909 -6.33615 6.1356 0
M  V30 1548 O 250.369 -6.7751 3.72168 0
M  V30 1549 C 249.429 -7.20732 2.70725 0
M  V30 1550 C 250.159 -7.45864 1.40599 0
M  V30 1551 O 250.369 -6.17651 0.734225 0
M  V30 1552 C 251.559 -8.05808 1.51899 0
M  V30 1553 O 251.949 -8.74358 0.335205 0
M  V30 1554 C 252.439 -6.83093 1.70294 0
M  V30 1555 C 251.729 -5.79992 0.836974 0
M  V30 1556 N 251.779 -4.41769 1.38263 0
M  V30 1557 C 251.929 -3.38591 0.481702 0
M  V30 1558 O 252.019 -3.56839 -0.718452 0
M  V30 1559 N 251.969 -2.1206 1.03569 0
M  V30 1560 C 251.879 -1.80696 2.36966 0
M  V30 1561 C 251.729 -2.94845 3.23898 0
M  V30 1562 C 251.679 -4.19803 2.73435 0
M  V30 1563 H 248.939 -8.13644 3.0377 0
M  V30 1564 H 248.67 -6.42695 2.55448 0
M  V30 1565 H 249.537 -8.12039 0.792769 0
M  V30 1566 H 252.192 -5.79978 -0.160587 0
M  V30 1567 H 252.471 -6.51379 2.75643 0
M  V30 1568 H 253.463 -7.01734 1.34462 0
M  V30 1569 H 251.629 -8.73674 2.38337 0
M  V30 1570 H 251.558 -5.04492 3.4095 0
M  V30 1571 P 253.498 -8.91 -7.1169e-13 0
M  V30 1572 O 253.718 -10.1726 -0.733694 0
M  V30 1573 O 254.288 -8.73148 1.23936 0
M  V30 1574 O 253.748 -7.66872 -0.971405 0
M  V30 1575 C 252.808 -7.42309 -2.04641 0
M  V30 1576 C 253.538 -6.86059 -3.24661 0
M  V30 1577 O 253.748 -5.42847 -3.03646 0
M  V30 1578 C 254.938 -7.41196 -3.50753 0
M  V30 1579 O 255.328 -7.27073 -4.86816 0
M  V30 1580 C 255.818 -6.5273 -2.63741 0
M  V30 1581 C 255.108 -5.1842 -2.73198 0
M  V30 1582 N 255.158 -4.38762 -1.4784 0
M  V30 1583 H 252.319 -8.36803 -2.32493 0
M  V30 1584 H 252.049 -6.70197 -1.71129 0
M  V30 1585 H 252.916 -7.03551 -4.13168 0
M  V30 1586 P 256.878 -7.20834 -5.23717 0
M  V30 1587 O 257.098 -7.79853 -6.57286 0
M  V30 1588 O 257.668 -7.79239 -4.12957 0
M  V30 1589 O 257.128 -5.63315 -5.29344 0
M  V30 1590 C 256.188 -4.80255 -6.01876 0
M  V30 1591 C 256.918 -3.64202 -6.65911 0
M  V30 1592 O 257.128 -2.60694 -5.64732 0
M  V30 1593 C 258.318 -3.93473 -7.1943 0
M  V30 1594 O 258.708 -3.02071 -8.21205 0
M  V30 1595 C 259.198 -3.73047 -5.97036 0
M  V30 1596 C 258.488 -2.58828 -5.25741 0
M  V30 1597 N 258.538 -2.68068 -3.77503 0
M  V30 1598 H 255.699 -5.40332 -6.79951 0
M  V30 1599 H 255.429 -4.41613 -5.32378 0
M  V30 1600 H 256.296 -3.26331 -7.47797 0
M  V30 1601 P 260.258 -2.75334 -8.47391 0
M  V30 1602 O 260.478 -2.44571 -9.90142 0
M  V30 1603 O 261.048 -3.87688 -7.92115 0
M  V30 1604 O 260.508 -1.4459 -7.59357 0
M  V30 1605 C 259.568 -0.347608 -7.69215 0
M  V30 1606 C 260.298 0.96767 -7.52806 0
M  V30 1607 O 260.508 1.21036 -6.1011 0
M  V30 1608 C 261.698 1.04544 -8.13308 0
M  V30 1609 O 262.088 2.38311 -8.41922 0
M  V30 1610 C 262.578 0.491279 -7.02284 0
M  V30 1611 C 261.868 0.996264 -5.77469 0
M  V30 1612 N 261.918 0.0501916 -4.62973 0
M  V30 1613 H 259.079 -0.374722 -8.67691 0
M  V30 1614 H 258.809 -0.443485 -6.90277 0
M  V30 1615 H 259.676 1.75537 -7.96793 0
M  V30 1616 P 263.638 2.75334 -8.47391 0
M  V30 1617 O 263.858 3.84128 -9.44797 0
M  V30 1618 O 264.428 1.51947 -8.68712 0
M  V30 1619 O 263.888 3.29363 -6.99321 0
M  V30 1620 C 262.948 4.24011 -6.4274 0
M  V30 1621 C 263.678 5.20775 -5.52155 0
M  V30 1622 O 263.888 4.56534 -4.22446 0
M  V30 1623 C 265.078 5.62629 -5.96531 0
M  V30 1624 O 265.468 6.87667 -5.41053 0
M  V30 1625 C 265.958 4.52537 -5.39283 0
M  V30 1626 C 265.248 4.20027 -4.08623 0
M  V30 1627 N 265.298 2.76189 -3.71603 0
M  V30 1628 H 262.459 4.797 -7.24003 0
M  V30 1629 H 262.189 3.69856 -5.84513 0
M  V30 1630 H 263.056 6.10356 -5.41441 0
M  V30 1631 P 267.018 7.20834 -5.23717 0
M  V30 1632 O 267.238 8.66104 -5.38572 0
M  V30 1633 O 267.808 6.33544 -6.1349 0
M  V30 1634 O 267.268 6.7751 -3.72168 0
M  V30 1635 C 266.328 7.20825 -2.7076 0
M  V30 1636 C 267.058 7.45864 -1.40599 0
M  V30 1637 O 267.268 6.17651 -0.734225 0
M  V30 1638 C 268.458 8.05808 -1.51899 0
M  V30 1639 O 268.848 8.74358 -0.335205 0
M  V30 1640 C 269.338 6.83093 -1.70294 0
M  V30 1641 C 268.628 5.79992 -0.836974 0
M  V30 1642 N 268.678 4.41864 -1.38293 0
M  V30 1643 H 265.839 8.13644 -3.0377 0
M  V30 1644 H 265.569 6.42788 -2.55485 0
M  V30 1645 H 266.436 8.12039 -0.792769 0
M  V30 1646 P 270.398 8.91 8.68872e-13 0
M  V30 1647 O 270.618 10.1726 0.733694 0
M  V30 1648 O 271.188 8.73148 -1.23936 0
M  V30 1649 O 270.648 7.66872 0.971405 0
M  V30 1650 C 269.708 7.42309 2.04641 0
M  V30 1651 C 270.438 6.86059 3.24661 0
M  V30 1652 O 270.648 5.42847 3.03646 0
M  V30 1653 C 271.838 7.41196 3.50753 0
M  V30 1654 O 272.228 7.27073 4.86816 0
M  V30 1655 C 272.718 6.5273 2.63741 0
M  V30 1656 C 272.008 5.1842 2.73198 0
M  V30 1657 N 272.058 4.38762 1.4784 0
M  V30 1658 C 271.978 4.81605 0.168631 0
M  V30 1659 N 272.058 3.85454 -0.713363 0
M  V30 1660 C 272.198 2.6994 0.0566958 0
M  V30 1661 C 272.328 1.34815 -0.338502 0
M  V30 1662 O 272.348 0.869548 -1.47125 0
M  V30 1663 N 272.448 0.496304 0.77465 0
M  V30 1664 C 272.448 0.908403 2.09122 0
M  V30 1665 N 272.578 -0.0517805 3.00955 0
M  V30 1666 N 272.318 2.17875 2.46519 0
M  V30 1667 C 272.198 3.01988 1.4033 0
M  V30 1668 H 269.219 8.36803 2.32493 0
M  V30 1669 H 268.949 6.70197 1.71129 0
M  V30 1670 H 269.816 7.03551 4.13168 0
M  V30 1671 H 272.471 4.59498 3.54415 0
M  V30 1672 H 272.75 6.88898 1.59848 0
M  V30 1673 H 273.742 6.46749 3.03687 0
M  V30 1674 H 271.908 8.46908 3.20714 0
M  V30 1675 H 271.859 5.86405 -0.105564 0
M  V30 1676 H 272.541 -0.483664 0.597855 0
M  V30 1677 H 272.578 0.187865 4.0116 0
M  V30 1678 H 272.679 -1.03585 2.71726 0
M  V30 1679 P 273.778 7.20834 5.23717 0
M  V30 1680 O 273.998 7.80006 6.57415 0
M  V30 1681 O 274.568 7.79416 4.13051 0
M  V30 1682 O 274.028 5.63315 5.29344 0
M  V30 1683 C 273.088 4.80318 6.01954 0
M  V30 1684 C 273.818 3.64202 6.65911 0
M  V30 1685 O 274.028 2.60736 5.64823 0
M  V30 1686 C 275.218 3.93521 7.19518 0
M  V30 1687 O 275.608 3.02071 8.21205 0
M  V30 1688 C 276.098 3.73047 5.97036 0
M  V30 1689 C 275.388 2.58828 5.25741 0
M  V30 1690 N 275.438 2.68068 3.77503 0
M  V30 1691 H 272.6 5.40394 6.8003 0
M  V30 1692 H 272.328 4.41741 5.32532 0
M  V30 1693 H 273.196 3.26371 7.47889 0
M  V30 1694 H 275.851 1.64007 5.56746 0
M  V30 1695 H 276.131 4.63439 5.3432 0
M  V30 1696 H 277.122 3.44776 6.25925 0
M  V30 1697 H 275.288 4.96707 7.57347 0
M  V30 1698 P 277.158 2.75334 8.47391 0
M  V30 1699 O 277.378 2.44571 9.90142 0
M  V30 1700 O 277.948 3.87688 7.92115 0
M  V30 1701 O 277.408 1.4459 7.59357 0
M  V30 1702 C 276.468 0.347608 7.69215 0
M  V30 1703 C 277.198 -0.96767 7.52806 0
M  V30 1704 O 277.408 -1.21036 6.1011 0
M  V30 1705 C 278.598 -1.04544 8.13308 0
M  V30 1706 O 278.988 -2.38311 8.41922 0
M  V30 1707 C 279.478 -0.491279 7.02284 0
M  V30 1708 C 278.768 -0.996264 5.77469 0
M  V30 1709 N 278.818 -0.0501916 4.62973 0
M  V30 1710 H 275.979 0.374722 8.67691 0
M  V30 1711 H 275.709 0.443485 6.90277 0
M  V30 1712 H 276.576 -1.75537 7.96793 0
M  V30 1713 P 280.538 -2.75334 8.47391 0
M  V30 1714 O 280.758 -3.84166 9.4489 0
M  V30 1715 O 281.328 -1.51964 8.6881 0
M  V30 1716 O 280.788 -3.29363 6.99321 0
M  V30 1717 C 279.848 -4.23956 6.42656 0
M  V30 1718 C 280.578 -5.20775 5.52155 0
M  V30 1719 O 280.788 -4.56534 4.22446 0
M  V30 1720 C 281.978 -5.62629 5.96531 0
M  V30 1721 O 282.368 -6.87667 5.41053 0
M  V30 1722 C 282.858 -4.52537 5.39283 0
M  V30 1723 C 282.148 -4.20027 4.08623 0
M  V30 1724 N 282.198 -2.7613 3.71522 0
M  V30 1725 C 282.348 -2.45612 2.37989 0
M  V30 1726 O 282.438 -3.30919 1.51621 0
M  V30 1727 N 282.388 -1.10684 2.08435 0
M  V30 1728 C 282.298 -0.0690084 2.9792 0
M  V30 1729 O 282.348 1.10553 2.59426 0
M  V30 1730 C 282.148 -0.481522 4.35345 0
M  V30 1731 C 282.038 0.618778 5.36443 0
M  V30 1732 C 282.098 -1.78906 4.67968 0
M  V30 1733 H 279.358 -4.797 7.24003 0
M  V30 1734 H 279.089 -3.69802 5.84429 0
M  V30 1735 H 279.956 -6.10356 5.41441 0
M  V30 1736 H 282.611 -4.78651 3.27911 0
M  V30 1737 H 282.89 -3.64957 6.05871 0
M  V30 1738 H 283.882 -4.8868 5.2125 0
M  V30 1739 H 282.048 -5.66726 7.06352 0
M  V30 1740 H 281.977 -2.07737 5.72367 0
M  V30 1741 H 283.007 0.754375 5.86871 0
M  V30 1742 H 281.27 0.359721 6.10641 0
M  V30 1743 H 281.758 1.55533 4.8581 0
M  V30 1744 H 282.494 -0.862651 1.12037 0
M  V30 1745 P 283.918 -7.20834 5.23717 0
M  V30 1746 O 284.138 -8.66104 5.38572 0
M  V30 1747 O 284.708 -6.33544 6.1349 0
M  V30 1748 O 284.168 -6.7751 3.72168 0
M  V30 1749 C 283.228 -7.20825 2.7076 0
M  V30 1750 C 283.958 -7.45864 1.40599 0
M  V30 1751 O 284.168 -6.17651 0.734225 0
M  V30 1752 C 285.358 -8.05808 1.51899 0
M  V30 1753 O 285.748 -8.74358 0.335205 0
M  V30 1754 C 286.238 -6.83093 1.70294 0
M  V30 1755 C 285.528 -5.79992 0.836974 0
M  V30 1756 N 285.578 -4.41864 1.38293 0
M  V30 1757 C 285.498 -3.99538 2.69438 0
M  V30 1758 N 285.578 -2.69909 2.84277 0
M  V30 1759 C 285.718 -2.21719 1.5408 0
M  V30 1760 C 285.848 -0.891712 1.06628 0
M  V30 1761 N 285.968 -0.856846 -0.334985 0
M  V30 1762 C 285.968 -1.9641 -1.15789 0
M  V30 1763 N 286.098 -1.72708 -2.46522 0
M  V30 1764 N 285.838 -3.21165 -0.713741 0
M  V30 1765 C 285.718 -3.26797 0.639748 0
M  V30 1766 H 282.739 -8.13644 3.0377 0
M  V30 1767 H 282.469 -6.42788 2.55485 0
M  V30 1768 H 283.336 -8.12039 0.792769 0
M  V30 1769 P 287.298 -8.91 -1.02605e-12 0
M  V30 1770 O 287.518 -10.1726 -0.733694 0
M  V30 1771 O 288.088 -8.73148 1.23936 0
M  V30 1772 O 287.548 -7.66872 -0.971405 0
M  V30 1773 C 286.608 -7.42309 -2.04641 0
M  V30 1774 C 287.338 -6.86059 -3.24661 0
M  V30 1775 O 287.548 -5.42847 -3.03646 0
M  V30 1776 C 288.738 -7.41196 -3.50753 0
M  V30 1777 O 289.128 -7.27073 -4.86816 0
M  V30 1778 C 289.618 -6.5273 -2.63741 0
M  V30 1779 C 288.908 -5.1842 -2.73198 0
M  V30 1780 N 288.958 -4.38762 -1.4784 0
M  V30 1781 H 286.119 -8.36803 -2.32493 0
M  V30 1782 H 285.849 -6.70197 -1.71129 0
M  V30 1783 H 286.716 -7.03551 -4.13168 0
M  V30 1784 P 290.678 -7.20834 -5.23717 0
M  V30 1785 O 290.898 -7.79853 -6.57286 0
M  V30 1786 O 291.468 -7.79239 -4.12957 0
M  V30 1787 O 290.928 -5.63315 -5.29344 0
M  V30 1788 C 289.988 -4.80255 -6.01876 0
M  V30 1789 C 290.718 -3.64202 -6.65911 0
M  V30 1790 O 290.928 -2.60694 -5.64732 0
M  V30 1791 C 292.118 -3.93473 -7.1943 0
M  V30 1792 O 292.508 -3.02071 -8.21205 0
M  V30 1793 C 292.998 -3.73047 -5.97036 0
M  V30 1794 C 292.288 -2.58828 -5.25741 0
M  V30 1795 N 292.338 -2.68068 -3.77503 0
M  V30 1796 C 292.258 -3.79715 -2.96723 0
M  V30 1797 N 292.338 -3.5377 -1.68852 0
M  V30 1798 C 292.478 -2.15054 -1.63254 0
M  V30 1799 C 292.608 -1.28964 -0.518571 0
M  V30 1800 O 292.628 -1.56826 0.679156 0
M  V30 1801 N 292.728 0.0538097 -0.918425 0
M  V30 1802 C 292.728 0.494275 -2.22578 0
M  V30 1803 N 292.858 1.81086 -2.40434 0
M  V30 1804 N 292.598 -0.313645 -3.27502 0
M  V30 1805 C 292.478 -1.61829 -2.91033 0
M  V30 1806 H 289.499 -5.40332 -6.79951 0
M  V30 1807 H 289.229 -4.41613 -5.32378 0
M  V30 1808 H 290.096 -3.26331 -7.47797 0
M  V30 1809 H 292.751 -1.63422 -5.56814 0
M  V30 1810 H 293.03 -4.63374 -5.34244 0
M  V30 1811 H 294.022 -3.44728 -6.25838 0
M  V30 1812 H 292.188 -4.96652 -7.57263 0
M  V30 1813 H 292.139 -4.80617 -3.3614 0
M  V30 1814 H 292.821 0.742702 -0.199384 0
M  V30 1815 H 292.858 2.20598 -3.35588 0
M  V30 1816 H 292.959 2.43518 -1.58945 0
M  V30 1817 P 294.058 -2.75334 -8.47391 0
M  V30 1818 O 294.278 -2.44571 -9.90142 0
M  V30 1819 O 294.848 -3.87688 -7.92115 0
M  V30 1820 O 294.308 -1.4459 -7.59357 0
M  V30 1821 C 293.368 -0.347608 -7.69215 0
M  V30 1822 C 294.098 0.96767 -7.52806 0
M  V30 1823 O 294.308 1.21036 -6.1011 0
M  V30 1824 C 295.498 1.04544 -8.13308 0
M  V30 1825 O 295.888 2.38311 -8.41922 0
M  V30 1826 C 296.378 0.491279 -7.02284 0
M  V30 1827 C 295.668 0.996264 -5.77469 0
M  V30 1828 N 295.718 0.0501916 -4.62973 0
M  V30 1829 H 292.879 -0.374722 -8.67691 0
M  V30 1830 H 292.609 -0.443485 -6.90277 0
M  V30 1831 H 293.476 1.75537 -7.96793 0
M  V30 1832 P 297.438 2.75334 -8.47391 0
M  V30 1833 O 297.658 3.84128 -9.44797 0
M  V30 1834 O 298.228 1.51947 -8.68712 0
M  V30 1835 O 297.688 3.29363 -6.99321 0
M  V30 1836 C 296.748 4.24011 -6.4274 0
M  V30 1837 C 297.478 5.20775 -5.52155 0
M  V30 1838 O 297.688 4.56534 -4.22446 0
M  V30 1839 C 298.878 5.62629 -5.96531 0
M  V30 1840 O 299.268 6.87667 -5.41053 0
M  V30 1841 C 299.758 4.52537 -5.39283 0
M  V30 1842 C 299.048 4.20027 -4.08623 0
M  V30 1843 N 299.098 2.76189 -3.71603 0
M  V30 1844 H 296.259 4.797 -7.24003 0
M  V30 1845 H 295.989 3.69856 -5.84513 0
M  V30 1846 H 296.856 6.10356 -5.41441 0
M  V30 1847 P 300.818 7.20834 -5.23717 0
M  V30 1848 O 301.038 8.66104 -5.38572 0
M  V30 1849 O 301.608 6.33544 -6.1349 0
M  V30 1850 O 301.068 6.7751 -3.72168 0
M  V30 1851 C 300.128 7.20825 -2.7076 0
M  V30 1852 C 300.858 7.45864 -1.40599 0
M  V30 1853 O 301.068 6.17651 -0.734225 0
M  V30 1854 C 302.258 8.05808 -1.51899 0
M  V30 1855 O 302.648 8.74358 -0.335205 0
M  V30 1856 C 303.138 6.83093 -1.70294 0
M  V30 1857 C 302.428 5.79992 -0.836974 0
M  V30 1858 N 302.478 4.41864 -1.38293 0
M  V30 1859 H 299.639 8.13644 -3.0377 0
M  V30 1860 H 299.369 6.42788 -2.55485 0
M  V30 1861 H 300.236 8.12039 -0.792769 0
M  V30 1862 P 304.198 8.91 1.18324e-12 0
M  V30 1863 O 304.418 10.1726 0.733694 0
M  V30 1864 O 304.988 8.73148 -1.23936 0
M  V30 1865 O 304.448 7.66872 0.971405 0
M  V30 1866 C 303.508 7.42309 2.04641 0
M  V30 1867 C 304.238 6.86059 3.24661 0
M  V30 1868 O 304.448 5.42847 3.03646 0
M  V30 1869 C 305.638 7.41196 3.50753 0
M  V30 1870 O 306.028 7.27073 4.86816 0
M  V30 1871 C 306.518 6.5273 2.63741 0
M  V30 1872 C 305.808 5.1842 2.73198 0
M  V30 1873 N 305.858 4.38762 1.4784 0
M  V30 1874 H 303.019 8.36803 2.32493 0
M  V30 1875 H 302.749 6.70197 1.71129 0
M  V30 1876 H 303.616 7.03551 4.13168 0
M  V30 1877 P 307.578 7.20834 5.23717 0
M  V30 1878 O 307.798 7.79853 6.57286 0
M  V30 1879 O 308.368 7.79239 4.12957 0
M  V30 1880 O 307.828 5.63315 5.29344 0
M  V30 1881 C 306.888 4.80255 6.01876 0
M  V30 1882 C 307.618 3.64202 6.65911 0
M  V30 1883 O 307.828 2.60694 5.64732 0
M  V30 1884 C 309.018 3.93473 7.1943 0
M  V30 1885 O 309.408 3.02071 8.21205 0
M  V30 1886 C 309.898 3.73047 5.97036 0
M  V30 1887 C 309.188 2.58828 5.25741 0
M  V30 1888 N 309.238 2.68068 3.77503 0
M  V30 1889 H 306.399 5.40332 6.79951 0
M  V30 1890 H 306.129 4.41613 5.32378 0
M  V30 1891 H 306.996 3.26331 7.47797 0
M  V30 1892 P 310.958 2.75334 8.47391 0
M  V30 1893 O 311.178 2.44571 9.90142 0
M  V30 1894 O 311.748 3.87688 7.92115 0
M  V30 1895 O 311.208 1.4459 7.59357 0
M  V30 1896 C 310.268 0.347608 7.69215 0
M  V30 1897 C 310.998 -0.96767 7.52806 0
M  V30 1898 O 311.208 -1.21036 6.1011 0
M  V30 1899 C 312.398 -1.04544 8.13308 0
M  V30 1900 O 312.788 -2.38311 8.41922 0
M  V30 1901 C 313.278 -0.491279 7.02284 0
M  V30 1902 C 312.568 -0.996264 5.77469 0
M  V30 1903 N 312.618 -0.0501916 4.62973 0
M  V30 1904 H 309.779 0.374722 8.67691 0
M  V30 1905 H 309.509 0.443485 6.90277 0
M  V30 1906 H 310.376 -1.75537 7.96793 0
M  V30 1907 P 314.338 -2.75334 8.47391 0
M  V30 1908 O 314.558 -3.84128 9.44797 0
M  V30 1909 O 315.128 -1.51947 8.68712 0
M  V30 1910 O 314.588 -3.29363 6.99321 0
M  V30 1911 C 313.648 -4.24011 6.4274 0
M  V30 1912 C 314.378 -5.20775 5.52155 0
M  V30 1913 O 314.588 -4.56534 4.22446 0
M  V30 1914 C 315.778 -5.62629 5.96531 0
M  V30 1915 O 316.168 -6.87667 5.41053 0
M  V30 1916 C 316.658 -4.52537 5.39283 0
M  V30 1917 C 315.948 -4.20027 4.08623 0
M  V30 1918 N 315.998 -2.76189 3.71603 0
M  V30 1919 H 313.159 -4.797 7.24003 0
M  V30 1920 H 312.889 -3.69856 5.84513 0
M  V30 1921 H 313.756 -6.10356 5.41441 0
M  V30 1922 P 317.718 -7.20834 5.23717 0
M  V30 1923 O 317.938 -8.66274 5.38678 0
M  V30 1924 O 318.508 -6.33687 6.13629 0
M  V30 1925 O 317.968 -6.7751 3.72168 0
M  V30 1926 C 317.028 -7.20919 2.70795 0
M  V30 1927 C 317.758 -7.45864 1.40599 0
M  V30 1928 O 317.968 -6.17751 0.734343 0
M  V30 1929 C 319.158 -8.05906 1.51917 0
M  V30 1930 O 319.548 -8.74358 0.335205 0
M  V30 1931 C 320.038 -6.83093 1.70294 0
M  V30 1932 C 319.328 -5.79992 0.836974 0
M  V30 1933 N 319.378 -4.41864 1.38293 0
M  V30 1934 C 319.298 -4.02089 2.69407 0
M  V30 1935 N 319.368 -2.73403 2.85089 0
M  V30 1936 C 319.518 -2.25086 1.5642 0
M  V30 1937 C 319.648 -0.942887 1.04836 0
M  V30 1938 N 319.658 0.150999 1.80369 0
M  V30 1939 N 319.768 -0.812565 -0.28167 0
M  V30 1940 C 319.758 -1.90572 -1.03784 0
M  V30 1941 N 319.638 -3.167 -0.683905 0
M  V30 1942 C 319.518 -3.26538 0.652815 0
M  V30 1943 H 316.54 -8.13738 3.03804 0
M  V30 1944 H 316.268 -6.42974 2.55559 0
M  V30 1945 H 317.136 -8.12139 0.792866 0
M  V30 1946 H 319.791 -5.80178 -0.160643 0
M  V30 1947 H 320.071 -6.51379 2.75643 0
M  V30 1948 H 321.062 -7.01832 1.3448 0
M  V30 1949 H 319.228 -8.73771 2.38364 0
M  V30 1950 H 319.187 -4.7189 3.52311 0
M  V30 1951 H 319.568 0.0721434 2.82608 0
M  V30 1952 H 319.757 1.0785 1.36544 0
M  V30 1953 H 319.865 -1.73207 -2.10241 0
M  V30 1954 P 321.098 -8.91 -1.34042e-12 0
M  V30 1955 O 321.318 -10.1726 -0.733694 0
M  V30 1956 O 321.888 -8.73148 1.23936 0
M  V30 1957 O 321.348 -7.66872 -0.971405 0
M  V30 1958 C 320.408 -7.42309 -2.04641 0
M  V30 1959 C 321.138 -6.86059 -3.24661 0
M  V30 1960 O 321.348 -5.42847 -3.03646 0
M  V30 1961 C 322.538 -7.41196 -3.50753 0
M  V30 1962 O 322.928 -7.27073 -4.86816 0
M  V30 1963 C 323.418 -6.5273 -2.63741 0
M  V30 1964 C 322.708 -5.1842 -2.73198 0
M  V30 1965 N 322.758 -4.38762 -1.4784 0
M  V30 1966 H 319.919 -8.36803 -2.32493 0
M  V30 1967 H 319.649 -6.70197 -1.71129 0
M  V30 1968 H 320.516 -7.03551 -4.13168 0
M  V30 1969 P 324.478 -7.20834 -5.23717 0
M  V30 1970 O 324.698 -7.79853 -6.57286 0
M  V30 1971 O 325.268 -7.79239 -4.12957 0
M  V30 1972 O 324.728 -5.63315 -5.29344 0
M  V30 1973 C 323.788 -4.80255 -6.01876 0
M  V30 1974 C 324.518 -3.64202 -6.65911 0
M  V30 1975 O 324.728 -2.60694 -5.64732 0
M  V30 1976 C 325.918 -3.93473 -7.1943 0
M  V30 1977 O 326.308 -3.02071 -8.21205 0
M  V30 1978 C 326.798 -3.73047 -5.97036 0
M  V30 1979 C 326.088 -2.58828 -5.25741 0
M  V30 1980 N 326.138 -2.68068 -3.77503 0
M  V30 1981 H 323.299 -5.40332 -6.79951 0
M  V30 1982 H 323.029 -4.41613 -5.32378 0
M  V30 1983 H 323.896 -3.26331 -7.47797 0
M  V30 1984 P 327.858 -2.75334 -8.47391 0
M  V30 1985 O 328.078 -2.44571 -9.90142 0
M  V30 1986 O 328.648 -3.87688 -7.92115 0
M  V30 1987 O 328.108 -1.4459 -7.59357 0
M  V30 1988 C 327.168 -0.347608 -7.69215 0
M  V30 1989 C 327.898 0.96767 -7.52806 0
M  V30 1990 O 328.108 1.21036 -6.1011 0
M  V30 1991 C 329.298 1.04544 -8.13308 0
M  V30 1992 O 329.688 2.38311 -8.41922 0
M  V30 1993 C 330.178 0.491279 -7.02284 0
M  V30 1994 C 329.468 0.996264 -5.77469 0
M  V30 1995 N 329.518 0.0501916 -4.62973 0
M  V30 1996 H 326.679 -0.374722 -8.67691 0
M  V30 1997 H 326.409 -0.443485 -6.90277 0
M  V30 1998 H 327.276 1.75537 -7.96793 0
M  V30 1999 P 331.238 2.75334 -8.47391 0
M  V30 2000 O 331.458 3.84204 -9.44982 0
M  V30 2001 O 332.028 1.51982 -8.68909 0
M  V30 2002 O 331.488 3.29363 -6.99321 0
M  V30 2003 C 330.548 4.24066 -6.42823 0
M  V30 2004 C 331.278 5.20775 -5.52155 0
M  V30 2005 O 331.488 4.56607 -4.22514 0
M  V30 2006 C 332.678 5.62697 -5.96604 0
M  V30 2007 O 333.068 6.87667 -5.41053 0
M  V30 2008 C 333.558 4.52537 -5.39283 0
M  V30 2009 C 332.848 4.20027 -4.08623 0
M  V30 2010 N 332.898 2.76189 -3.71603 0
M  V30 2011 C 332.818 1.66944 -4.54297 0
M  V30 2012 N 332.888 0.536169 -3.91344 0
M  V30 2013 C 333.038 0.901569 -2.58849 0
M  V30 2014 C 333.168 0.146599 -1.40236 0
M  V30 2015 N 333.178 -1.18234 -1.37046 0
M  V30 2016 N 333.288 0.822941 -0.249738 0
M  V30 2017 C 333.278 2.15179 -0.280525 0
M  V30 2018 N 333.158 2.96414 -1.30822 0
M  V30 2019 C 333.038 2.25804 -2.44748 0
M  V30 2020 H 330.06 4.79756 -7.24086 0
M  V30 2021 H 329.788 3.69963 -5.84682 0
M  V30 2022 H 330.656 6.10431 -5.41508 0
M  V30 2023 H 333.311 4.78816 -3.28024 0
M  V30 2024 H 333.591 3.64957 -6.05871 0
M  V30 2025 H 334.582 4.88748 -5.21323 0
M  V30 2026 H 332.748 5.66789 -7.0643 0
M  V30 2027 H 332.707 1.74684 -5.62396 0
M  V30 2028 H 333.088 -1.71949 -2.24394 0
M  V30 2029 H 333.277 -1.67511 -0.470742 0
M  V30 2030 H 333.385 2.63704 0.6828 0
M  V30 2031 P 334.618 7.20834 -5.23717 0
M  V30 2032 O 334.838 8.66104 -5.38572 0
M  V30 2033 O 335.408 6.33544 -6.1349 0
M  V30 2034 O 334.868 6.7751 -3.72168 0
M  V30 2035 C 333.928 7.20825 -2.7076 0
M  V30 2036 C 334.658 7.45864 -1.40599 0
M  V30 2037 O 334.868 6.17651 -0.734225 0
M  V30 2038 C 336.058 8.05808 -1.51899 0
M  V30 2039 O 336.448 8.74358 -0.335205 0
M  V30 2040 C 336.938 6.83093 -1.70294 0
M  V30 2041 C 336.228 5.79992 -0.836974 0
M  V30 2042 N 336.278 4.41864 -1.38293 0
M  V30 2043 C 336.198 3.99538 -2.69438 0
M  V30 2044 N 336.278 2.69909 -2.84277 0
M  V30 2045 C 336.418 2.21719 -1.5408 0
M  V30 2046 C 336.548 0.891712 -1.06628 0
M  V30 2047 N 336.668 0.856846 0.334985 0
M  V30 2048 C 336.668 1.9641 1.15789 0
M  V30 2049 N 336.798 1.72708 2.46522 0
M  V30 2050 N 336.538 3.21165 0.713741 0
M  V30 2051 C 336.418 3.26797 -0.639748 0
M  V30 2052 H 333.439 8.13644 -3.0377 0
M  V30 2053 H 333.169 6.42788 -2.55485 0
M  V30 2054 H 334.036 8.12039 -0.792769 0
M  V30 2055 P 337.998 8.91 1.4976e-12 0
M  V30 2056 O 338.218 10.1746 0.733838 0
M  V30 2057 O 338.788 8.73346 -1.23964 0
M  V30 2058 O 338.248 7.66872 0.971405 0
M  V30 2059 C 337.308 7.42405 2.04668 0
M  V30 2060 C 338.038 6.86059 3.24661 0
M  V30 2061 O 338.248 5.42934 3.03695 0
M  V30 2062 C 339.438 7.41287 3.50796 0
M  V30 2063 O 339.828 7.27073 4.86816 0
M  V30 2064 C 340.318 6.5273 2.63741 0
M  V30 2065 C 339.608 5.1842 2.73198 0
M  V30 2066 N 339.658 4.38762 1.4784 0
M  V30 2067 C 339.578 4.83651 0.183876 0
M  V30 2068 N 339.648 3.88759 -0.699393 0
M  V30 2069 C 339.798 2.7404 0.0575568 0
M  V30 2070 C 339.928 1.37902 -0.293928 0
M  V30 2071 N 339.938 0.938021 -1.54797 0
M  V30 2072 N 340.048 0.491817 0.70549 0
M  V30 2073 C 340.038 0.931735 1.95979 0
M  V30 2074 N 339.918 2.16017 2.41481 0
M  V30 2075 C 339.798 3.02547 1.39121 0
M  V30 2076 H 336.82 8.36899 2.3252 0
M  V30 2077 H 336.548 6.70391 1.71179 0
M  V30 2078 H 337.416 7.03638 4.13219 0
M  V30 2079 H 340.071 4.59931 3.54016 0
M  V30 2080 H 340.351 6.88995 1.59871 0
M  V30 2081 H 341.342 6.4684 3.0373 0
M  V30 2082 H 339.508 8.47002 3.20749 0
M  V30 2083 H 339.467 5.8885 -0.0765548 0
M  V30 2084 H 339.848 1.60276 -2.32875 0
M  V30 2085 H 340.037 -0.0699355 -1.73859 0
M  V30 2086 H 340.145 0.165507 2.71897 0
M  V30 2087 P 341.378 7.20834 5.23717 0
M  V30 2088 O 341.598 7.79853 6.57286 0
M  V30 2089 O 342.168 7.79239 4.12957 0
M  V30 2090 O 341.628 5.63315 5.29344 0
M  V30 2091 C 340.688 4.80255 6.01876 0
M  V30 2092 C 341.418 3.64202 6.65911 0
M  V30 2093 O 341.628 2.60694 5.64732 0
M  V30 2094 C 342.818 3.93473 7.1943 0
M  V30 2095 O 343.208 3.02071 8.21205 0
M  V30 2096 C 343.698 3.73047 5.97036 0
M  V30 2097 C 342.988 2.58828 5.25741 0
M  V30 2098 N 343.038 2.68068 3.77503 0
M  V30 2099 H 340.199 5.40332 6.79951 0
M  V30 2100 H 339.929 4.41613 5.32378 0
M  V30 2101 H 340.796 3.26331 7.47797 0
M  V30 2102 P 344.758 2.75334 8.47391 0
M  V30 2103 O 344.978 2.44571 9.90142 0
M  V30 2104 O 345.548 3.87688 7.92115 0
M  V30 2105 O 345.008 1.4459 7.59357 0
M  V30 2106 C 344.068 0.347608 7.69215 0
M  V30 2107 C 344.798 -0.96767 7.52806 0
M  V30 2108 O 345.008 -1.21036 6.1011 0
M  V30 2109 C 346.198 -1.04544 8.13308 0
M  V30 2110 O 346.588 -2.38311 8.41922 0
M  V30 2111 C 347.078 -0.491279 7.02284 0
M  V30 2112 C 346.368 -0.996264 5.77469 0
M  V30 2113 N 346.418 -0.0501916 4.62973 0
M  V30 2114 H 343.579 0.374722 8.67691 0
M  V30 2115 H 343.309 0.443485 6.90277 0
M  V30 2116 H 344.176 -1.75537 7.96793 0
M  V30 2117 P 348.138 -2.75334 8.47391 0
M  V30 2118 O 348.358 -3.84128 9.44797 0
M  V30 2119 O 348.928 -1.51947 8.68712 0
M  V30 2120 O 348.388 -3.29363 6.99321 0
M  V30 2121 C 347.448 -4.24011 6.4274 0
M  V30 2122 C 348.178 -5.20775 5.52155 0
M  V30 2123 O 348.388 -4.56534 4.22446 0
M  V30 2124 C 349.578 -5.62629 5.96531 0
M  V30 2125 O 349.968 -6.87667 5.41053 0
M  V30 2126 C 350.458 -4.52537 5.39283 0
M  V30 2127 C 349.748 -4.20027 4.08623 0
M  V30 2128 N 349.798 -2.76189 3.71603 0
M  V30 2129 C 349.718 -1.64862 4.52822 0
M  V30 2130 N 349.798 -0.512671 3.88633 0
M  V30 2131 C 349.938 -0.888083 2.54977 0
M  V30 2132 C 350.068 -0.094668 1.38677 0
M  V30 2133 O 350.088 1.13053 1.28163 0
M  V30 2134 N 350.188 -0.890102 0.232633 0
M  V30 2135 C 350.188 -2.26958 0.21772 0
M  V30 2136 N 350.318 -2.84626 -0.97925 0
M  V30 2137 N 350.058 -3.0178 1.31033 0
M  V30 2138 C 349.938 -2.26781 2.43843 0
M  V30 2139 H 346.959 -4.797 7.24003 0
M  V30 2140 H 346.689 -3.69856 5.84513 0
M  V30 2141 H 347.556 -6.10356 5.41441 0
M  V30 2142 H 350.211 -4.79061 3.27488 0
M  V30 2143 H 350.49 -3.64906 6.05785 0
M  V30 2144 H 351.482 -4.8868 5.2125 0
M  V30 2145 H 349.648 -5.66726 7.06352 0
M  V30 2146 H 349.599 -1.71169 5.60966 0
M  V30 2147 H 350.281 -0.419134 -0.644739 0
M  V30 2148 H 350.318 -3.87332 -1.06098 0
M  V30 2149 H 350.419 -2.26417 -1.82483 0
M  V30 2150 P 351.518 -7.20834 5.23717 0
M  V30 2151 O 351.738 -8.66104 5.38572 0
M  V30 2152 O 352.308 -6.33544 6.1349 0
M  V30 2153 O 351.768 -6.7751 3.72168 0
M  V30 2154 C 350.828 -7.20825 2.7076 0
M  V30 2155 C 351.558 -7.45864 1.40599 0
M  V30 2156 O 351.768 -6.17651 0.734225 0
M  V30 2157 C 352.958 -8.05808 1.51899 0
M  V30 2158 O 353.348 -8.74358 0.335205 0
M  V30 2159 C 353.838 -6.83093 1.70294 0
M  V30 2160 C 353.128 -5.79992 0.836974 0
M  V30 2161 N 353.178 -4.41864 1.38293 0
M  V30 2162 H 350.339 -8.13644 3.0377 0
M  V30 2163 H 350.069 -6.42788 2.55485 0
M  V30 2164 H 350.936 -8.12039 0.792769 0
M  V30 2165 P 354.898 -8.91 -1.65478e-12 0
M  V30 2166 O 355.118 -10.1726 -0.733694 0
M  V30 2167 O 355.688 -8.73148 1.23936 0
M  V30 2168 O 355.148 -7.66872 -0.971405 0
M  V30 2169 C 354.208 -7.42309 -2.04641 0
M  V30 2170 C 354.938 -6.86059 -3.24661 0
M  V30 2171 O 355.148 -5.42847 -3.03646 0
M  V30 2172 C 356.338 -7.41196 -3.50753 0
M  V30 2173 O 356.728 -7.27073 -4.86816 0
M  V30 2174 C 357.218 -6.5273 -2.63741 0
M  V30 2175 C 356.508 -5.1842 -2.73198 0
M  V30 2176 N 356.558 -4.38762 -1.4784 0
M  V30 2177 H 353.719 -8.36803 -2.32493 0
M  V30 2178 H 353.449 -6.70197 -1.71129 0
M  V30 2179 H 354.316 -7.03551 -4.13168 0
M  V30 2180 P 358.278 -7.20834 -5.23717 0
M  V30 2181 O 358.498 -7.79853 -6.57286 0
M  V30 2182 O 359.068 -7.79239 -4.12957 0
M  V30 2183 O 358.528 -5.63315 -5.29344 0
M  V30 2184 C 357.588 -4.80255 -6.01876 0
M  V30 2185 C 358.318 -3.64202 -6.65911 0
M  V30 2186 O 358.528 -2.60694 -5.64732 0
M  V30 2187 C 359.718 -3.93473 -7.1943 0
M  V30 2188 O 360.108 -3.02071 -8.21205 0
M  V30 2189 C 360.598 -3.73047 -5.97036 0
M  V30 2190 C 359.888 -2.58828 -5.25741 0
M  V30 2191 N 359.938 -2.68068 -3.77503 0
M  V30 2192 H 357.099 -5.40332 -6.79951 0
M  V30 2193 H 356.829 -4.41613 -5.32378 0
M  V30 2194 H 357.696 -3.26331 -7.47797 0
M  V30 2195 P 361.658 -2.75334 -8.47391 0
M  V30 2196 O 361.878 -2.44571 -9.90142 0
M  V30 2197 O 362.448 -3.87688 -7.92115 0
M  V30 2198 O 361.908 -1.4459 -7.59357 0
M  V30 2199 C 360.968 -0.347608 -7.69215 0
M  V30 2200 C 361.698 0.96767 -7.52806 0
M  V30 2201 O 361.908 1.21036 -6.1011 0
M  V30 2202 C 363.098 1.04544 -8.13308 0
M  V30 2203 O 363.488 2.38311 -8.41922 0
M  V30 2204 C 363.978 0.491279 -7.02284 0
M  V30 2205 C 363.268 0.996264 -5.77469 0
M  V30 2206 N 363.318 0.0501916 -4.62973 0
M  V30 2207 H 360.479 -0.374722 -8.67691 0
M  V30 2208 H 360.209 -0.443485 -6.90277 0
M  V30 2209 H 361.076 1.75537 -7.96793 0
M  V30 2210 P 365.038 2.75334 -8.47391 0
M  V30 2211 O 365.258 3.84128 -9.44797 0
M  V30 2212 O 365.828 1.51947 -8.68712 0
M  V30 2213 O 365.288 3.29363 -6.99321 0
M  V30 2214 C 364.348 4.24011 -6.4274 0
M  V30 2215 C 365.078 5.20775 -5.52155 0
M  V30 2216 O 365.288 4.56534 -4.22446 0
M  V30 2217 C 366.478 5.62629 -5.96531 0
M  V30 2218 O 366.868 6.87667 -5.41053 0
M  V30 2219 C 367.358 4.52537 -5.39283 0
M  V30 2220 C 366.648 4.20027 -4.08623 0
M  V30 2221 N 366.698 2.76189 -3.71603 0
M  V30 2222 C 366.618 1.64862 -4.52822 0
M  V30 2223 N 366.698 0.512671 -3.88633 0
M  V30 2224 C 366.838 0.888083 -2.54977 0
M  V30 2225 C 366.968 0.094668 -1.38677 0
M  V30 2226 N 367.088 0.890102 -0.232633 0
M  V30 2227 C 367.088 2.26958 -0.21772 0
M  V30 2228 N 367.218 2.84626 0.97925 0
M  V30 2229 N 366.958 3.0178 -1.31033 0
M  V30 2230 C 366.838 2.26781 -2.43843 0
M  V30 2231 H 363.859 4.797 -7.24003 0
M  V30 2232 H 363.589 3.69856 -5.84513 0
M  V30 2233 H 364.456 6.10356 -5.41441 0
M  V30 2234 P 368.418 7.20834 -5.23717 0
M  V30 2235 O 368.638 8.66104 -5.38572 0
M  V30 2236 O 369.208 6.33544 -6.1349 0
M  V30 2237 O 368.668 6.7751 -3.72168 0
M  V30 2238 C 367.728 7.20825 -2.7076 0
M  V30 2239 C 368.458 7.45864 -1.40599 0
M  V30 2240 O 368.668 6.17651 -0.734225 0
M  V30 2241 C 369.858 8.05808 -1.51899 0
M  V30 2242 O 370.248 8.74358 -0.335205 0
M  V30 2243 C 370.738 6.83093 -1.70294 0
M  V30 2244 C 370.028 5.79992 -0.836974 0
M  V30 2245 N 370.078 4.41864 -1.38293 0
M  V30 2246 C 369.998 3.99538 -2.69438 0
M  V30 2247 N 370.078 2.69909 -2.84277 0
M  V30 2248 C 370.218 2.21719 -1.5408 0
M  V30 2249 C 370.348 0.891712 -1.06628 0
M  V30 2250 N 370.468 0.856846 0.334985 0
M  V30 2251 C 370.468 1.9641 1.15789 0
M  V30 2252 N 370.598 1.72708 2.46522 0
M  V30 2253 N 370.338 3.21165 0.713741 0
M  V30 2254 C 370.218 3.26797 -0.639748 0
M  V30 2255 H 367.239 8.13644 -3.0377 0
M  V30 2256 H 366.969 6.42788 -2.55485 0
M  V30 2257 H 367.836 8.12039 -0.792769 0
M  V30 2258 P 371.798 8.91 1.81197e-12 0
M  V30 2259 O 372.018 10.1726 0.733694 0
M  V30 2260 O 372.588 8.73148 -1.23936 0
M  V30 2261 O 372.048 7.66872 0.971405 0
M  V30 2262 C 371.108 7.42309 2.04641 0
M  V30 2263 C 371.838 6.86059 3.24661 0
M  V30 2264 O 372.048 5.42847 3.03646 0
M  V30 2265 C 373.238 7.41196 3.50753 0
M  V30 2266 O 373.628 7.27073 4.86816 0
M  V30 2267 C 374.118 6.5273 2.63741 0
M  V30 2268 C 373.408 5.1842 2.73198 0
M  V30 2269 N 373.458 4.38762 1.4784 0
M  V30 2270 H 370.619 8.36803 2.32493 0
M  V30 2271 H 370.349 6.70197 1.71129 0
M  V30 2272 H 371.216 7.03551 4.13168 0
M  V30 2273 P 375.178 7.20834 5.23717 0
M  V30 2274 O 375.398 7.79853 6.57286 0
M  V30 2275 O 375.968 7.79239 4.12957 0
M  V30 2276 O 375.428 5.63315 5.29344 0
M  V30 2277 C 374.488 4.80255 6.01876 0
M  V30 2278 C 375.218 3.64202 6.65911 0
M  V30 2279 O 375.428 2.60694 5.64732 0
M  V30 2280 C 376.618 3.93473 7.1943 0
M  V30 2281 O 377.008 3.02071 8.21205 0
M  V30 2282 C 377.498 3.73047 5.97036 0
M  V30 2283 C 376.788 2.58828 5.25741 0
M  V30 2284 N 376.838 2.68068 3.77503 0
M  V30 2285 H 373.999 5.40332 6.79951 0
M  V30 2286 H 373.729 4.41613 5.32378 0
M  V30 2287 H 374.596 3.26331 7.47797 0
M  V30 2288 P 378.558 2.75334 8.47391 0
M  V30 2289 O 378.778 2.44571 9.90142 0
M  V30 2290 O 379.348 3.87688 7.92115 0
M  V30 2291 O 378.808 1.4459 7.59357 0
M  V30 2292 C 377.868 0.347608 7.69215 0
M  V30 2293 C 378.598 -0.96767 7.52806 0
M  V30 2294 O 378.808 -1.21036 6.1011 0
M  V30 2295 C 379.998 -1.04544 8.13308 0
M  V30 2296 O 380.388 -2.38311 8.41922 0
M  V30 2297 C 380.878 -0.491279 7.02284 0
M  V30 2298 C 380.168 -0.996264 5.77469 0
M  V30 2299 N 380.218 -0.0501916 4.62973 0
M  V30 2300 H 377.379 0.374722 8.67691 0
M  V30 2301 H 377.109 0.443485 6.90277 0
M  V30 2302 H 377.976 -1.75537 7.96793 0
M  V30 2303 P 381.938 -2.75334 8.47391 0
M  V30 2304 O 382.158 -3.84128 9.44797 0
M  V30 2305 O 382.728 -1.51947 8.68712 0
M  V30 2306 O 382.188 -3.29363 6.99321 0
M  V30 2307 C 381.248 -4.24011 6.4274 0
M  V30 2308 C 381.978 -5.20775 5.52155 0
M  V30 2309 O 382.188 -4.56534 4.22446 0
M  V30 2310 C 383.378 -5.62629 5.96531 0
M  V30 2311 O 383.768 -6.87667 5.41053 0
M  V30 2312 C 384.258 -4.52537 5.39283 0
M  V30 2313 C 383.548 -4.20027 4.08623 0
M  V30 2314 N 383.598 -2.76189 3.71603 0
M  V30 2315 C 383.518 -1.64862 4.52822 0
M  V30 2316 N 383.598 -0.512671 3.88633 0
M  V30 2317 C 383.738 -0.888083 2.54977 0
M  V30 2318 C 383.868 -0.094668 1.38677 0
M  V30 2319 O 383.888 1.13053 1.28163 0
M  V30 2320 N 383.988 -0.890102 0.232633 0
M  V30 2321 C 383.988 -2.26958 0.21772 0
M  V30 2322 N 384.118 -2.84626 -0.97925 0
M  V30 2323 N 383.858 -3.0178 1.31033 0
M  V30 2324 C 383.738 -2.26781 2.43843 0
M  V30 2325 H 380.759 -4.797 7.24003 0
M  V30 2326 H 380.489 -3.69856 5.84513 0
M  V30 2327 H 381.356 -6.10356 5.41441 0
M  V30 2328 H 384.011 -4.79061 3.27488 0
M  V30 2329 H 384.29 -3.64906 6.05785 0
M  V30 2330 H 385.282 -4.8868 5.2125 0
M  V30 2331 H 383.448 -5.66726 7.06352 0
M  V30 2332 H 383.399 -1.71169 5.60966 0
M  V30 2333 H 384.081 -0.419134 -0.644739 0
M  V30 2334 H 384.118 -3.87332 -1.06098 0
M  V30 2335 H 384.219 -2.26417 -1.82483 0
M  V30 2336 P 385.318 -7.20834 5.23717 0
M  V30 2337 O 385.538 -8.66189 5.38625 0
M  V30 2338 O 386.108 -6.33615 6.1356 0
M  V30 2339 O 385.568 -6.7751 3.72168 0
M  V30 2340 C 384.628 -7.20732 2.70725 0
M  V30 2341 C 385.358 -7.45864 1.40599 0
M  V30 2342 O 385.568 -6.17651 0.734225 0
M  V30 2343 C 386.758 -8.05808 1.51899 0
M  V30 2344 O 387.148 -8.74358 0.335205 0
M  V30 2345 C 387.638 -6.83093 1.70294 0
M  V30 2346 C 386.928 -5.79992 0.836974 0
M  V30 2347 N 386.978 -4.41769 1.38263 0
M  V30 2348 C 387.128 -3.38591 0.481702 0
M  V30 2349 O 387.218 -3.56839 -0.718452 0
M  V30 2350 N 387.168 -2.1206 1.03569 0
M  V30 2351 C 387.078 -1.80696 2.36966 0
M  V30 2352 O 387.128 -0.630473 2.74862 0
M  V30 2353 C 386.928 -2.94845 3.23898 0
M  V30 2354 C 386.818 -2.65253 4.70362 0
M  V30 2355 C 386.878 -4.19803 2.73435 0
M  V30 2356 H 384.138 -8.13644 3.0377 0
M  V30 2357 H 383.869 -6.42695 2.55448 0
M  V30 2358 H 384.736 -8.12039 0.792769 0
M  V30 2359 H 387.391 -5.79978 -0.160587 0
M  V30 2360 H 387.67 -6.51379 2.75643 0
M  V30 2361 H 388.662 -7.01734 1.34462 0
M  V30 2362 H 386.828 -8.73674 2.38337 0
M  V30 2363 H 386.757 -5.04492 3.4095 0
M  V30 2364 H 387.787 -2.83924 5.1913 0
M  V30 2365 H 386.05 -3.29824 5.15163 0
M  V30 2366 H 386.538 -1.59723 4.84449 0
M  V30 2367 H 387.274 -1.35644 0.399345 0
M  V30 2368 P 388.698 -8.91 -1.96915e-12 0
M  V30 2369 O 388.918 -10.1726 -0.733694 0
M  V30 2370 O 389.488 -8.73148 1.23936 0
M  V30 2371 O 388.948 -7.66872 -0.971405 0
M  V30 2372 C 388.008 -7.42309 -2.04641 0
M  V30 2373 C 388.738 -6.86059 -3.24661 0
M  V30 2374 O 388.948 -5.42847 -3.03646 0
M  V30 2375 C 390.138 -7.41196 -3.50753 0
M  V30 2376 O 390.528 -7.27073 -4.86816 0
M  V30 2377 C 391.018 -6.5273 -2.63741 0
M  V30 2378 C 390.308 -5.1842 -2.73198 0
M  V30 2379 N 390.358 -4.38762 -1.4784 0
M  V30 2380 H 387.519 -8.36803 -2.32493 0
M  V30 2381 H 387.249 -6.70197 -1.71129 0
M  V30 2382 H 388.116 -7.03551 -4.13168 0
M  V30 2383 P 392.078 -7.20834 -5.23717 0
M  V30 2384 O 392.298 -7.79853 -6.57286 0
M  V30 2385 O 392.868 -7.79239 -4.12957 0
M  V30 2386 O 392.328 -5.63315 -5.29344 0
M  V30 2387 C 391.388 -4.80255 -6.01876 0
M  V30 2388 C 392.118 -3.64202 -6.65911 0
M  V30 2389 O 392.328 -2.60694 -5.64732 0
M  V30 2390 C 393.518 -3.93473 -7.1943 0
M  V30 2391 O 393.908 -3.02071 -8.21205 0
M  V30 2392 C 394.398 -3.73047 -5.97036 0
M  V30 2393 C 393.688 -2.58828 -5.25741 0
M  V30 2394 N 393.738 -2.68068 -3.77503 0
M  V30 2395 H 390.899 -5.40332 -6.79951 0
M  V30 2396 H 390.629 -4.41613 -5.32378 0
M  V30 2397 H 391.496 -3.26331 -7.47797 0
M  V30 2398 P 395.458 -2.75334 -8.47391 0
M  V30 2399 O 395.678 -2.44571 -9.90142 0
M  V30 2400 O 396.248 -3.87688 -7.92115 0
M  V30 2401 O 395.708 -1.4459 -7.59357 0
M  V30 2402 C 394.768 -0.347608 -7.69215 0
M  V30 2403 C 395.498 0.96767 -7.52806 0
M  V30 2404 O 395.708 1.21036 -6.1011 0
M  V30 2405 C 396.898 1.04544 -8.13308 0
M  V30 2406 O 397.288 2.38311 -8.41922 0
M  V30 2407 C 397.778 0.491279 -7.02284 0
M  V30 2408 C 397.068 0.996264 -5.77469 0
M  V30 2409 N 397.118 0.0501916 -4.62973 0
M  V30 2410 C 397.038 -1.32786 -4.63244 0
M  V30 2411 N 397.118 -1.86957 -3.44545 0
M  V30 2412 C 397.258 -0.780241 -2.58481 0
M  V30 2413 C 397.388 -0.738536 -1.17757 0
M  V30 2414 N 397.508 0.58337 -0.711393 0
M  V30 2415 C 397.508 1.70816 -1.51017 0
M  V30 2416 N 397.638 2.87826 -0.880757 0
M  V30 2417 N 397.378 1.67126 -2.8339 0
M  V30 2418 C 397.258 0.401421 -3.30572 0
M  V30 2419 H 394.279 -0.374722 -8.67691 0
M  V30 2420 H 394.009 -0.443485 -6.90277 0
M  V30 2421 H 394.876 1.75537 -7.96793 0
M  V30 2422 P 398.838 2.75334 -8.47391 0
M  V30 2423 O 399.058 3.84128 -9.44797 0
M  V30 2424 O 399.628 1.51947 -8.68712 0
M  V30 2425 O 399.088 3.29363 -6.99321 0
M  V30 2426 C 398.148 4.24011 -6.4274 0
M  V30 2427 C 398.878 5.20775 -5.52155 0
M  V30 2428 O 399.088 4.56534 -4.22446 0
M  V30 2429 C 400.278 5.62629 -5.96531 0
M  V30 2430 O 400.668 6.87667 -5.41053 0
M  V30 2431 C 401.158 4.52537 -5.39283 0
M  V30 2432 C 400.448 4.20027 -4.08623 0
M  V30 2433 N 400.498 2.76189 -3.71603 0
M  V30 2434 C 400.418 1.64862 -4.52822 0
M  V30 2435 N 400.498 0.512671 -3.88633 0
M  V30 2436 C 400.638 0.888083 -2.54977 0
M  V30 2437 C 400.768 0.094668 -1.38677 0
M  V30 2438 O 400.788 -1.13053 -1.28163 0
M  V30 2439 N 400.888 0.890102 -0.232633 0
M  V30 2440 C 400.888 2.26958 -0.21772 0
M  V30 2441 N 401.018 2.84626 0.97925 0
M  V30 2442 N 400.758 3.0178 -1.31033 0
M  V30 2443 C 400.638 2.26781 -2.43843 0
M  V30 2444 H 397.659 4.797 -7.24003 0
M  V30 2445 H 397.389 3.69856 -5.84513 0
M  V30 2446 H 398.256 6.10356 -5.41441 0
M  V30 2447 H 400.911 4.79061 -3.27488 0
M  V30 2448 H 401.19 3.64906 -6.05785 0
M  V30 2449 H 402.182 4.8868 -5.2125 0
M  V30 2450 H 400.348 5.66726 -7.06352 0
M  V30 2451 H 400.299 1.71169 -5.60966 0
M  V30 2452 H 400.981 0.419134 0.644739 0
M  V30 2453 H 401.018 3.87332 1.06098 0
M  V30 2454 H 401.119 2.26417 1.82483 0
M  V30 2455 P 402.218 7.20834 -5.23717 0
M  V30 2456 O 402.438 8.66104 -5.38572 0
M  V30 2457 O 403.008 6.33544 -6.1349 0
M  V30 2458 O 402.468 6.7751 -3.72168 0
M  V30 2459 C 401.528 7.20825 -2.7076 0
M  V30 2460 C 402.258 7.45864 -1.40599 0
M  V30 2461 O 402.468 6.17651 -0.734225 0
M  V30 2462 C 403.658 8.05808 -1.51899 0
M  V30 2463 O 404.048 8.74358 -0.335205 0
M  V30 2464 C 404.538 6.83093 -1.70294 0
M  V30 2465 C 403.828 5.79992 -0.836974 0
M  V30 2466 N 403.878 4.41864 -1.38293 0
M  V30 2467 C 403.798 3.99538 -2.69438 0
M  V30 2468 N 403.878 2.69909 -2.84277 0
M  V30 2469 C 404.018 2.21719 -1.5408 0
M  V30 2470 C 404.148 0.891712 -1.06628 0
M  V30 2471 N 404.268 0.856846 0.334985 0
M  V30 2472 C 404.268 1.9641 1.15789 0
M  V30 2473 N 404.398 1.72708 2.46522 0
M  V30 2474 N 404.138 3.21165 0.713741 0
M  V30 2475 C 404.018 3.26797 -0.639748 0
M  V30 2476 H 401.039 8.13644 -3.0377 0
M  V30 2477 H 400.769 6.42788 -2.55485 0
M  V30 2478 H 401.636 8.12039 -0.792769 0
M  V30 2479 P 405.598 8.91 2.12633e-12 0
M  V30 2480 O 405.818 10.1726 0.733694 0
M  V30 2481 O 406.388 8.73148 -1.23936 0
M  V30 2482 O 405.848 7.66872 0.971405 0
M  V30 2483 C 404.908 7.42309 2.04641 0
M  V30 2484 C 405.638 6.86059 3.24661 0
M  V30 2485 O 405.848 5.42847 3.03646 0
M  V30 2486 C 407.038 7.41196 3.50753 0
M  V30 2487 O 407.428 7.27073 4.86816 0
M  V30 2488 C 407.918 6.5273 2.63741 0
M  V30 2489 C 407.208 5.1842 2.73198 0
M  V30 2490 N 407.258 4.38762 1.4784 0
M  V30 2491 H 404.419 8.36803 2.32493 0
M  V30 2492 H 404.149 6.70197 1.71129 0
M  V30 2493 H 405.016 7.03551 4.13168 0
M  V30 2494 P 408.978 7.20834 5.23717 0
M  V30 2495 O 409.198 7.79853 6.57286 0
M  V30 2496 O 409.768 7.79239 4.12957 0
M  V30 2497 O 409.228 5.63315 5.29344 0
M  V30 2498 C 408.288 4.80255 6.01876 0
M  V30 2499 C 409.018 3.64202 6.65911 0
M  V30 2500 O 409.228 2.60694 5.64732 0
M  V30 2501 C 410.418 3.93473 7.1943 0
M  V30 2502 O 410.808 3.02071 8.21205 0
M  V30 2503 C 411.298 3.73047 5.97036 0
M  V30 2504 C 410.588 2.58828 5.25741 0
M  V30 2505 N 410.638 2.68068 3.77503 0
M  V30 2506 H 407.799 5.40332 6.79951 0
M  V30 2507 H 407.529 4.41613 5.32378 0
M  V30 2508 H 408.396 3.26331 7.47797 0
M  V30 2509 P 412.358 2.75334 8.47391 0
M  V30 2510 O 412.578 2.44571 9.90142 0
M  V30 2511 O 413.148 3.87688 7.92115 0
M  V30 2512 O 412.608 1.4459 7.59357 0
M  V30 2513 C 411.668 0.347608 7.69215 0
M  V30 2514 C 412.398 -0.96767 7.52806 0
M  V30 2515 O 412.608 -1.21036 6.1011 0
M  V30 2516 C 413.798 -1.04544 8.13308 0
M  V30 2517 O 414.188 -2.38311 8.41922 0
M  V30 2518 C 414.678 -0.491279 7.02284 0
M  V30 2519 C 413.968 -0.996264 5.77469 0
M  V30 2520 N 414.018 -0.0501916 4.62973 0
M  V30 2521 H 411.179 0.374722 8.67691 0
M  V30 2522 H 410.909 0.443485 6.90277 0
M  V30 2523 H 411.776 -1.75537 7.96793 0
M  V30 2524 P 415.738 -2.75334 8.47391 0
M  V30 2525 O 415.958 -3.84166 9.4489 0
M  V30 2526 O 416.528 -1.51964 8.6881 0
M  V30 2527 O 415.988 -3.29363 6.99321 0
M  V30 2528 C 415.048 -4.23956 6.42656 0
M  V30 2529 C 415.778 -5.20775 5.52155 0
M  V30 2530 O 415.988 -4.56534 4.22446 0
M  V30 2531 C 417.178 -5.62629 5.96531 0
M  V30 2532 O 417.568 -6.87667 5.41053 0
M  V30 2533 C 418.058 -4.52537 5.39283 0
M  V30 2534 C 417.348 -4.20027 4.08623 0
M  V30 2535 N 417.398 -2.7613 3.71522 0
M  V30 2536 C 417.548 -2.45612 2.37989 0
M  V30 2537 O 417.638 -3.30919 1.51621 0
M  V30 2538 N 417.588 -1.10684 2.08435 0
M  V30 2539 C 417.498 -0.0690084 2.9792 0
M  V30 2540 O 417.548 1.10553 2.59426 0
M  V30 2541 C 417.348 -0.481522 4.35345 0
M  V30 2542 C 417.238 0.618778 5.36443 0
M  V30 2543 C 417.298 -1.78906 4.67968 0
M  V30 2544 H 414.558 -4.797 7.24003 0
M  V30 2545 H 414.289 -3.69802 5.84429 0
M  V30 2546 H 415.156 -6.10356 5.41441 0
M  V30 2547 H 417.811 -4.78651 3.27911 0
M  V30 2548 H 418.09 -3.64957 6.05871 0
M  V30 2549 H 419.082 -4.8868 5.2125 0
M  V30 2550 H 417.248 -5.66726 7.06352 0
M  V30 2551 H 417.177 -2.07737 5.72367 0
M  V30 2552 H 418.207 0.754375 5.86871 0
M  V30 2553 H 416.47 0.359721 6.10641 0
M  V30 2554 H 416.958 1.55533 4.8581 0
M  V30 2555 H 417.694 -0.862651 1.12037 0
M  V30 2556 P 419.118 -7.20834 5.23717 0
M  V30 2557 O 419.338 -8.66104 5.38572 0
M  V30 2558 O 419.908 -6.33544 6.1349 0
M  V30 2559 O 419.368 -6.7751 3.72168 0
M  V30 2560 C 418.428 -7.20825 2.7076 0
M  V30 2561 C 419.158 -7.45864 1.40599 0
M  V30 2562 O 419.368 -6.17651 0.734225 0
M  V30 2563 C 420.558 -8.05808 1.51899 0
M  V30 2564 O 420.948 -8.74358 0.335205 0
M  V30 2565 C 421.438 -6.83093 1.70294 0
M  V30 2566 C 420.728 -5.79992 0.836974 0
M  V30 2567 N 420.778 -4.41864 1.38293 0
M  V30 2568 H 417.939 -8.13644 3.0377 0
M  V30 2569 H 417.669 -6.42788 2.55485 0
M  V30 2570 H 418.536 -8.12039 0.792769 0
M  V30 2571 P 422.497 -8.91 -2.28351e-12 0
M  V30 2572 O 422.717 -10.1746 -0.733838 0
M  V30 2573 O 423.287 -8.73346 1.23964 0
M  V30 2574 O 422.747 -7.66872 -0.971405 0
M  V30 2575 C 421.807 -7.42405 -2.04668 0
M  V30 2576 C 422.537 -6.86059 -3.24661 0
M  V30 2577 O 422.747 -5.42934 -3.03695 0
M  V30 2578 C 423.937 -7.41287 -3.50796 0
M  V30 2579 O 424.327 -7.27073 -4.86816 0
M  V30 2580 C 424.817 -6.5273 -2.63741 0
M  V30 2581 C 424.107 -5.1842 -2.73198 0
M  V30 2582 N 424.157 -4.38762 -1.4784 0
M  V30 2583 C 424.077 -4.83651 -0.183876 0
M  V30 2584 N 424.147 -3.88759 0.699393 0
M  V30 2585 C 424.297 -2.7404 -0.0575568 0
M  V30 2586 C 424.427 -1.37902 0.293928 0
M  V30 2587 N 424.437 -0.938021 1.54797 0
M  V30 2588 N 424.547 -0.491817 -0.70549 0
M  V30 2589 C 424.537 -0.931735 -1.95979 0
M  V30 2590 N 424.417 -2.16017 -2.41481 0
M  V30 2591 C 424.297 -3.02547 -1.39121 0
M  V30 2592 H 421.319 -8.36899 -2.3252 0
M  V30 2593 H 421.047 -6.70391 -1.71179 0
M  V30 2594 H 421.915 -7.03638 -4.13219 0
M  V30 2595 H 424.57 -4.59931 -3.54016 0
M  V30 2596 H 424.85 -6.88995 -1.59871 0
M  V30 2597 H 425.841 -6.4684 -3.0373 0
M  V30 2598 H 424.007 -8.47002 -3.20749 0
M  V30 2599 H 423.966 -5.8885 0.0765548 0
M  V30 2600 H 424.347 -1.60276 2.32875 0
M  V30 2601 H 424.536 0.0699355 1.73859 0
M  V30 2602 H 424.644 -0.165507 -2.71897 0
M  V30 2603 P 425.877 -7.20834 -5.23717 0
M  V30 2604 O 426.097 -7.7993 -6.57351 0
M  V30 2605 O 426.667 -7.79328 -4.13004 0
M  V30 2606 O 426.127 -5.63315 -5.29344 0
M  V30 2607 C 425.187 -4.80193 -6.01798 0
M  V30 2608 C 425.917 -3.64202 -6.65911 0
M  V30 2609 O 426.127 -2.60694 -5.64732 0
M  V30 2610 C 427.317 -3.93473 -7.1943 0
M  V30 2611 O 427.707 -3.02071 -8.21205 0
M  V30 2612 C 428.197 -3.73047 -5.97036 0
M  V30 2613 C 427.487 -2.58828 -5.25741 0
M  V30 2614 N 427.537 -2.6801 -3.77422 0
M  V30 2615 C 427.687 -1.50443 -3.07133 0
M  V30 2616 O 427.777 -0.419406 -3.61576 0
M  V30 2617 N 427.727 -1.6403 -1.69677 0
M  V30 2618 C 427.637 -2.81206 -0.986255 0
M  V30 2619 C 427.487 -3.99158 -1.80325 0
M  V30 2620 C 427.437 -3.89779 -3.1476 0
M  V30 2621 H 424.697 -5.40332 -6.79951 0
M  V30 2622 H 424.428 -4.41549 -5.32301 0
M  V30 2623 H 425.295 -3.26331 -7.47797 0
M  V30 2624 H 427.95 -1.6395 -5.56554 0
M  V30 2625 H 428.229 -4.63439 -5.3432 0
M  V30 2626 H 429.221 -3.44728 -6.25838 0
M  V30 2627 H 427.387 -4.96652 -7.57263 0
M  V30 2628 H 427.316 -4.80159 -3.74441 0
M  V30 2629 P 429.257 -2.75334 -8.47391 0
M  V30 2630 O 429.477 -2.44571 -9.90142 0
M  V30 2631 O 430.047 -3.87688 -7.92115 0
M  V30 2632 O 429.507 -1.4459 -7.59357 0
M  V30 2633 C 428.567 -0.347608 -7.69215 0
M  V30 2634 C 429.297 0.96767 -7.52806 0
M  V30 2635 O 429.507 1.21036 -6.1011 0
M  V30 2636 C 430.697 1.04544 -8.13308 0
M  V30 2637 O 431.087 2.38311 -8.41922 0
M  V30 2638 C 431.577 0.491279 -7.02284 0
M  V30 2639 C 430.867 0.996264 -5.77469 0
M  V30 2640 N 430.917 0.0501916 -4.62973 0
M  V30 2641 H 428.078 -0.374722 -8.67691 0
M  V30 2642 H 427.808 -0.443485 -6.90277 0
M  V30 2643 H 428.675 1.75537 -7.96793 0
M  V30 2644 P 432.637 2.75334 -8.47391 0
M  V30 2645 O 432.857 3.84128 -9.44797 0
M  V30 2646 O 433.427 1.51947 -8.68712 0
M  V30 2647 O 432.887 3.29363 -6.99321 0
M  V30 2648 C 431.947 4.24011 -6.4274 0
M  V30 2649 C 432.677 5.20775 -5.52155 0
M  V30 2650 O 432.887 4.56534 -4.22446 0
M  V30 2651 C 434.077 5.62629 -5.96531 0
M  V30 2652 O 434.467 6.87667 -5.41053 0
M  V30 2653 C 434.957 4.52537 -5.39283 0
M  V30 2654 C 434.247 4.20027 -4.08623 0
M  V30 2655 N 434.297 2.76189 -3.71603 0
M  V30 2656 C 434.217 1.64862 -4.52822 0
M  V30 2657 N 434.297 0.512671 -3.88633 0
M  V30 2658 C 434.437 0.888083 -2.54977 0
M  V30 2659 C 434.567 0.094668 -1.38677 0
M  V30 2660 O 434.587 -1.13053 -1.28163 0
M  V30 2661 N 434.687 0.890102 -0.232633 0
M  V30 2662 C 434.687 2.26958 -0.21772 0
M  V30 2663 N 434.817 2.84626 0.97925 0
M  V30 2664 N 434.557 3.0178 -1.31033 0
M  V30 2665 C 434.437 2.26781 -2.43843 0
M  V30 2666 H 431.458 4.797 -7.24003 0
M  V30 2667 H 431.188 3.69856 -5.84513 0
M  V30 2668 H 432.055 6.10356 -5.41441 0
M  V30 2669 H 434.71 4.79061 -3.27488 0
M  V30 2670 H 434.989 3.64906 -6.05785 0
M  V30 2671 H 435.981 4.8868 -5.2125 0
M  V30 2672 H 434.147 5.66726 -7.06352 0
M  V30 2673 H 434.098 1.71169 -5.60966 0
M  V30 2674 H 434.78 0.419134 0.644739 0
M  V30 2675 H 434.817 3.87332 1.06098 0
M  V30 2676 H 434.918 2.26417 1.82483 0
M  V30 2677 P 436.017 7.20834 -5.23717 0
M  V30 2678 O 436.237 8.66104 -5.38572 0
M  V30 2679 O 436.807 6.33544 -6.1349 0
M  V30 2680 O 436.267 6.7751 -3.72168 0
M  V30 2681 C 435.327 7.20825 -2.7076 0
M  V30 2682 C 436.057 7.45864 -1.40599 0
M  V30 2683 O 436.267 6.17651 -0.734225 0
M  V30 2684 C 437.457 8.05808 -1.51899 0
M  V30 2685 O 437.847 8.74358 -0.335205 0
M  V30 2686 C 438.337 6.83093 -1.70294 0
M  V30 2687 C 437.627 5.79992 -0.836974 0
M  V30 2688 N 437.677 4.41864 -1.38293 0
M  V30 2689 H 434.838 8.13644 -3.0377 0
M  V30 2690 H 434.568 6.42788 -2.55485 0
M  V30 2691 H 435.435 8.12039 -0.792769 0
M  V30 2692 P 439.397 8.91 2.44069e-12 0
M  V30 2693 O 439.617 10.1726 0.733694 0
M  V30 2694 O 440.187 8.73148 -1.23936 0
M  V30 2695 O 439.647 7.66872 0.971405 0
M  V30 2696 C 438.707 7.42309 2.04641 0
M  V30 2697 C 439.437 6.86059 3.24661 0
M  V30 2698 O 439.647 5.42847 3.03646 0
M  V30 2699 C 440.837 7.41196 3.50753 0
M  V30 2700 O 441.227 7.27073 4.86816 0
M  V30 2701 C 441.717 6.5273 2.63741 0
M  V30 2702 C 441.007 5.1842 2.73198 0
M  V30 2703 N 441.057 4.38762 1.4784 0
M  V30 2704 H 438.218 8.36803 2.32493 0
M  V30 2705 H 437.948 6.70197 1.71129 0
M  V30 2706 H 438.815 7.03551 4.13168 0
M  V30 2707 P 442.777 7.20834 5.23717 0
M  V30 2708 O 442.997 7.79853 6.57286 0
M  V30 2709 O 443.567 7.79239 4.12957 0
M  V30 2710 O 443.027 5.63315 5.29344 0
M  V30 2711 C 442.087 4.80255 6.01876 0
M  V30 2712 C 442.817 3.64202 6.65911 0
M  V30 2713 O 443.027 2.60694 5.64732 0
M  V30 2714 C 444.217 3.93473 7.1943 0
M  V30 2715 O 444.607 3.02071 8.21205 0
M  V30 2716 C 445.097 3.73047 5.97036 0
M  V30 2717 C 444.387 2.58828 5.25741 0
M  V30 2718 N 444.437 2.68068 3.77503 0
M  V30 2719 H 441.598 5.40332 6.79951 0
M  V30 2720 H 441.328 4.41613 5.32378 0
M  V30 2721 H 442.195 3.26331 7.47797 0
M  V30 2722 P 446.157 2.75334 8.47391 0
M  V30 2723 O 446.377 2.44571 9.90142 0
M  V30 2724 O 446.947 3.87688 7.92115 0
M  V30 2725 O 446.407 1.4459 7.59357 0
M  V30 2726 C 445.467 0.347608 7.69215 0
M  V30 2727 C 446.197 -0.96767 7.52806 0
M  V30 2728 O 446.407 -1.21036 6.1011 0
M  V30 2729 C 447.597 -1.04544 8.13308 0
M  V30 2730 O 447.987 -2.38311 8.41922 0
M  V30 2731 C 448.477 -0.491279 7.02284 0
M  V30 2732 C 447.767 -0.996264 5.77469 0
M  V30 2733 N 447.817 -0.0501916 4.62973 0
M  V30 2734 H 444.978 0.374722 8.67691 0
M  V30 2735 H 444.708 0.443485 6.90277 0
M  V30 2736 H 445.575 -1.75537 7.96793 0
M  V30 2737 P 449.537 -2.75334 8.47391 0
M  V30 2738 O 449.757 -3.84204 9.44982 0
M  V30 2739 O 450.327 -1.51982 8.68909 0
M  V30 2740 O 449.787 -3.29363 6.99321 0
M  V30 2741 C 448.847 -4.24066 6.42823 0
M  V30 2742 C 449.577 -5.20775 5.52155 0
M  V30 2743 O 449.787 -4.56607 4.22514 0
M  V30 2744 C 450.977 -5.62697 5.96604 0
M  V30 2745 O 451.367 -6.87667 5.41053 0
M  V30 2746 C 451.857 -4.52537 5.39283 0
M  V30 2747 C 451.147 -4.20027 4.08623 0
M  V30 2748 N 451.197 -2.76189 3.71603 0
M  V30 2749 C 451.117 -1.66944 4.54297 0
M  V30 2750 N 451.187 -0.536169 3.91344 0
M  V30 2751 C 451.337 -0.901569 2.58849 0
M  V30 2752 C 451.467 -0.146599 1.40236 0
M  V30 2753 N 451.477 1.18234 1.37046 0
M  V30 2754 N 451.587 -0.822941 0.249738 0
M  V30 2755 C 451.577 -2.15179 0.280525 0
M  V30 2756 N 451.457 -2.96414 1.30822 0
M  V30 2757 C 451.337 -2.25804 2.44748 0
M  V30 2758 H 448.359 -4.79756 7.24086 0
M  V30 2759 H 448.087 -3.69963 5.84682 0
M  V30 2760 H 448.955 -6.10431 5.41508 0
M  V30 2761 H 451.61 -4.78816 3.28024 0
M  V30 2762 H 451.89 -3.64957 6.05871 0
M  V30 2763 H 452.881 -4.88748 5.21323 0
M  V30 2764 H 451.047 -5.66789 7.0643 0
M  V30 2765 H 451.006 -1.74684 5.62396 0
M  V30 2766 H 451.387 1.71949 2.24394 0
M  V30 2767 H 451.576 1.67511 0.470742 0
M  V30 2768 H 451.684 -2.63704 -0.6828 0
M  V30 2769 P 452.917 -7.20834 5.23717 0
M  V30 2770 O 453.137 -8.66274 5.38678 0
M  V30 2771 O 453.707 -6.33687 6.13629 0
M  V30 2772 O 453.167 -6.7751 3.72168 0
M  V30 2773 C 452.227 -7.20919 2.70795 0
M  V30 2774 C 452.957 -7.45864 1.40599 0
M  V30 2775 O 453.167 -6.17751 0.734343 0
M  V30 2776 C 454.357 -8.05906 1.51917 0
M  V30 2777 O 454.747 -8.74358 0.335205 0
M  V30 2778 C 455.237 -6.83093 1.70294 0
M  V30 2779 C 454.527 -5.79992 0.836974 0
M  V30 2780 N 454.577 -4.41864 1.38293 0
M  V30 2781 C 454.497 -4.02089 2.69407 0
M  V30 2782 N 454.567 -2.73403 2.85089 0
M  V30 2783 C 454.717 -2.25086 1.5642 0
M  V30 2784 C 454.847 -0.942887 1.04836 0
M  V30 2785 N 454.857 0.150999 1.80369 0
M  V30 2786 N 454.967 -0.812565 -0.28167 0
M  V30 2787 C 454.957 -1.90572 -1.03784 0
M  V30 2788 N 454.837 -3.167 -0.683905 0
M  V30 2789 C 454.717 -3.26538 0.652815 0
M  V30 2790 H 451.739 -8.13738 3.03804 0
M  V30 2791 H 451.467 -6.42974 2.55559 0
M  V30 2792 H 452.335 -8.12139 0.792866 0
M  V30 2793 H 454.99 -5.80178 -0.160643 0
M  V30 2794 H 455.27 -6.51379 2.75643 0
M  V30 2795 H 456.261 -7.01832 1.3448 0
M  V30 2796 H 454.427 -8.73771 2.38364 0
M  V30 2797 H 454.386 -4.7189 3.52311 0
M  V30 2798 H 454.767 0.0721434 2.82608 0
M  V30 2799 H 454.956 1.0785 1.36544 0
M  V30 2800 H 455.064 -1.73207 -2.10241 0
M  V30 2801 P 456.297 -8.91 -2.59788e-12 0
M  V30 2802 O 456.517 -10.1746 -0.733838 0
M  V30 2803 O 457.087 -8.73346 1.23964 0
M  V30 2804 O 456.547 -7.66872 -0.971405 0
M  V30 2805 C 455.607 -7.42405 -2.04668 0
M  V30 2806 C 456.337 -6.86059 -3.24661 0
M  V30 2807 O 456.547 -5.42934 -3.03695 0
M  V30 2808 C 457.737 -7.41287 -3.50796 0
M  V30 2809 O 458.127 -7.27073 -4.86816 0
M  V30 2810 C 458.617 -6.5273 -2.63741 0
M  V30 2811 C 457.907 -5.1842 -2.73198 0
M  V30 2812 N 457.957 -4.38762 -1.4784 0
M  V30 2813 H 455.119 -8.36899 -2.3252 0
M  V30 2814 H 454.847 -6.70391 -1.71179 0
M  V30 2815 H 455.715 -7.03638 -4.13219 0
M  V30 2816 H 458.37 -4.59931 -3.54016 0
M  V30 2817 H 458.65 -6.88995 -1.59871 0
M  V30 2818 H 459.641 -6.4684 -3.0373 0
M  V30 2819 H 457.807 -8.47002 -3.20749 0
M  V30 2820 P 459.677 -7.20834 -5.23717 0
M  V30 2821 O 459.897 -7.79853 -6.57286 0
M  V30 2822 O 460.467 -7.79239 -4.12957 0
M  V30 2823 O 459.927 -5.63315 -5.29344 0
M  V30 2824 C 458.987 -4.80255 -6.01876 0
M  V30 2825 C 459.717 -3.64202 -6.65911 0
M  V30 2826 O 459.927 -2.60694 -5.64732 0
M  V30 2827 C 461.117 -3.93473 -7.1943 0
M  V30 2828 O 461.507 -3.02071 -8.21205 0
M  V30 2829 C 461.997 -3.73047 -5.97036 0
M  V30 2830 C 461.287 -2.58828 -5.25741 0
M  V30 2831 N 461.337 -2.68068 -3.77503 0
M  V30 2832 H 458.498 -5.40332 -6.79951 0
M  V30 2833 H 458.228 -4.41613 -5.32378 0
M  V30 2834 H 459.095 -3.26331 -7.47797 0
M  V30 2835 P 463.057 -2.75334 -8.47391 0
M  V30 2836 O 463.277 -2.44571 -9.90142 0
M  V30 2837 O 463.847 -3.87688 -7.92115 0
M  V30 2838 O 463.307 -1.4459 -7.59357 0
M  V30 2839 C 462.367 -0.347608 -7.69215 0
M  V30 2840 C 463.097 0.96767 -7.52806 0
M  V30 2841 O 463.307 1.21036 -6.1011 0
M  V30 2842 C 464.497 1.04544 -8.13308 0
M  V30 2843 O 464.887 2.38311 -8.41922 0
M  V30 2844 C 465.377 0.491279 -7.02284 0
M  V30 2845 C 464.667 0.996264 -5.77469 0
M  V30 2846 N 464.717 0.0501916 -4.62973 0
M  V30 2847 C 464.637 -1.32786 -4.63244 0
M  V30 2848 N 464.717 -1.86957 -3.44545 0
M  V30 2849 C 464.857 -0.780241 -2.58481 0
M  V30 2850 C 464.987 -0.738536 -1.17757 0
M  V30 2851 N 465.107 0.58337 -0.711393 0
M  V30 2852 C 465.107 1.70816 -1.51017 0
M  V30 2853 N 465.237 2.87826 -0.880757 0
M  V30 2854 N 464.977 1.67126 -2.8339 0
M  V30 2855 C 464.857 0.401421 -3.30572 0
M  V30 2856 H 461.878 -0.374722 -8.67691 0
M  V30 2857 H 461.608 -0.443485 -6.90277 0
M  V30 2858 H 462.475 1.75537 -7.96793 0
M  V30 2859 P 466.437 2.75334 -8.47391 0
M  V30 2860 O 466.657 3.84128 -9.44797 0
M  V30 2861 O 467.227 1.51947 -8.68712 0
M  V30 2862 O 466.687 3.29363 -6.99321 0
M  V30 2863 C 465.747 4.24011 -6.4274 0
M  V30 2864 C 466.477 5.20775 -5.52155 0
M  V30 2865 O 466.687 4.56534 -4.22446 0
M  V30 2866 C 467.877 5.62629 -5.96531 0
M  V30 2867 O 468.267 6.87667 -5.41053 0
M  V30 2868 C 468.757 4.52537 -5.39283 0
M  V30 2869 C 468.047 4.20027 -4.08623 0
M  V30 2870 N 468.097 2.76189 -3.71603 0
M  V30 2871 C 468.017 1.64862 -4.52822 0
M  V30 2872 N 468.097 0.512671 -3.88633 0
M  V30 2873 C 468.237 0.888083 -2.54977 0
M  V30 2874 C 468.367 0.094668 -1.38677 0
M  V30 2875 O 468.387 -1.13053 -1.28163 0
M  V30 2876 N 468.487 0.890102 -0.232633 0
M  V30 2877 C 468.487 2.26958 -0.21772 0
M  V30 2878 N 468.617 2.84626 0.97925 0
M  V30 2879 N 468.357 3.0178 -1.31033 0
M  V30 2880 C 468.237 2.26781 -2.43843 0
M  V30 2881 H 465.258 4.797 -7.24003 0
M  V30 2882 H 464.988 3.69856 -5.84513 0
M  V30 2883 H 465.855 6.10356 -5.41441 0
M  V30 2884 H 468.51 4.79061 -3.27488 0
M  V30 2885 H 468.789 3.64906 -6.05785 0
M  V30 2886 H 469.781 4.8868 -5.2125 0
M  V30 2887 H 467.947 5.66726 -7.06352 0
M  V30 2888 H 467.898 1.71169 -5.60966 0
M  V30 2889 H 468.58 0.419134 0.644739 0
M  V30 2890 H 468.617 3.87332 1.06098 0
M  V30 2891 H 468.718 2.26417 1.82483 0
M  V30 2892 P 469.817 7.20834 -5.23717 0
M  V30 2893 O 470.037 8.66104 -5.38572 0
M  V30 2894 O 470.607 6.33544 -6.1349 0
M  V30 2895 O 470.067 6.7751 -3.72168 0
M  V30 2896 C 469.127 7.20825 -2.7076 0
M  V30 2897 C 469.857 7.45864 -1.40599 0
M  V30 2898 O 470.067 6.17651 -0.734225 0
M  V30 2899 C 471.257 8.05808 -1.51899 0
M  V30 2900 O 471.647 8.74358 -0.335205 0
M  V30 2901 C 472.137 6.83093 -1.70294 0
M  V30 2902 C 471.427 5.79992 -0.836974 0
M  V30 2903 N 471.477 4.41864 -1.38293 0
M  V30 2904 C 471.397 3.99538 -2.69438 0
M  V30 2905 N 471.477 2.69909 -2.84277 0
M  V30 2906 C 471.617 2.21719 -1.5408 0
M  V30 2907 C 471.747 0.891712 -1.06628 0
M  V30 2908 O 471.767 -0.161298 -1.70137 0
M  V30 2909 N 471.867 0.856846 0.334985 0
M  V30 2910 C 471.867 1.9641 1.15789 0
M  V30 2911 N 471.997 1.72708 2.46522 0
M  V30 2912 N 471.737 3.21165 0.713741 0
M  V30 2913 C 471.617 3.26797 -0.639748 0
M  V30 2914 H 468.638 8.13644 -3.0377 0
M  V30 2915 H 468.368 6.42788 -2.55485 0
M  V30 2916 H 469.235 8.12039 -0.792769 0
M  V30 2917 H 471.89 5.80061 0.166416 0
M  V30 2918 H 472.169 6.51287 -2.75604 0
M  V30 2919 H 473.161 7.01734 -1.34462 0
M  V30 2920 H 471.327 8.73674 -2.38337 0
M  V30 2921 H 471.278 4.68207 -3.53221 0
M  V30 2922 H 471.96 -0.0398818 0.767965 0
M  V30 2923 H 471.997 2.50995 3.13503 0
M  V30 2924 H 472.098 0.759148 2.80716 0
M  V30 2925 P 473.197 8.91 2.75506e-12 0
M  V30 2926 O 473.417 10.1726 0.733694 0
M  V30 2927 O 473.987 8.73148 -1.23936 0
M  V30 2928 O 473.447 7.66872 0.971405 0
M  V30 2929 C 472.507 7.42309 2.04641 0
M  V30 2930 C 473.237 6.86059 3.24661 0
M  V30 2931 O 473.447 5.42847 3.03646 0
M  V30 2932 C 474.637 7.41196 3.50753 0
M  V30 2933 O 475.027 7.27073 4.86816 0
M  V30 2934 C 475.517 6.5273 2.63741 0
M  V30 2935 C 474.807 5.1842 2.73198 0
M  V30 2936 N 474.857 4.38762 1.4784 0
M  V30 2937 C 474.777 4.81605 0.168631 0
M  V30 2938 N 474.857 3.85454 -0.713363 0
M  V30 2939 C 474.997 2.6994 0.0566958 0
M  V30 2940 C 475.127 1.34815 -0.338502 0
M  V30 2941 N 475.247 0.496304 0.77465 0
M  V30 2942 C 475.247 0.908403 2.09122 0
M  V30 2943 N 475.377 -0.0517805 3.00955 0
M  V30 2944 N 475.117 2.17875 2.46519 0
M  V30 2945 C 474.997 3.01988 1.4033 0
M  V30 2946 H 472.018 8.36803 2.32493 0
M  V30 2947 H 471.748 6.70197 1.71129 0
M  V30 2948 H 472.615 7.03551 4.13168 0
M  V30 2949 P 476.577 7.20834 5.23717 0
M  V30 2950 O 476.797 7.79853 6.57286 0
M  V30 2951 O 477.367 7.79239 4.12957 0
M  V30 2952 O 476.827 5.63315 5.29344 0
M  V30 2953 C 475.887 4.80255 6.01876 0
M  V30 2954 C 476.617 3.64202 6.65911 0
M  V30 2955 O 476.827 2.60694 5.64732 0
M  V30 2956 C 478.017 3.93473 7.1943 0
M  V30 2957 O 478.407 3.02071 8.21205 0
M  V30 2958 C 478.897 3.73047 5.97036 0
M  V30 2959 C 478.187 2.58828 5.25741 0
M  V30 2960 N 478.237 2.68068 3.77503 0
M  V30 2961 H 475.398 5.40332 6.79951 0
M  V30 2962 H 475.128 4.41613 5.32378 0
M  V30 2963 H 475.995 3.26331 7.47797 0
M  V30 2964 P 479.957 2.75334 8.47391 0
M  V30 2965 O 480.177 2.44595 9.90239 0
M  V30 2966 O 480.747 3.87732 7.92204 0
M  V30 2967 O 480.207 1.4459 7.59357 0
M  V30 2968 C 479.267 0.347563 7.69115 0
M  V30 2969 C 479.997 -0.96767 7.52806 0
M  V30 2970 O 480.207 -1.21036 6.1011 0
M  V30 2971 C 481.397 -1.04544 8.13308 0
M  V30 2972 O 481.787 -2.38311 8.41922 0
M  V30 2973 C 482.277 -0.491279 7.02284 0
M  V30 2974 C 481.567 -0.996264 5.77469 0
M  V30 2975 N 481.617 -0.0501808 4.62873 0
M  V30 2976 C 481.767 -0.588177 3.36904 0
M  V30 2977 O 481.857 -1.78598 3.17173 0
M  V30 2978 N 481.807 0.329694 2.33686 0
M  V30 2979 C 481.717 1.6953 2.45079 0
M  V30 2980 O 481.767 2.41926 1.44899 0
M  V30 2981 C 481.567 2.16933 3.80505 0
M  V30 2982 C 481.457 3.65373 3.97621 0
M  V30 2983 C 481.517 1.30326 4.83752 0
M  V30 2984 H 478.777 0.374722 8.67691 0
M  V30 2985 H 478.508 0.443421 6.90177 0
M  V30 2986 H 479.375 -1.75537 7.96793 0
M  V30 2987 H 482.03 -1.94496 5.46629 0
M  V30 2988 H 482.309 0.608651 7.04676 0
M  V30 2989 H 483.301 -0.889672 7.08939 0
M  V30 2990 H 481.467 -0.43308 9.04564 0
M  V30 2991 H 481.396 1.68366 5.8516 0
M  V30 2992 H 482.426 4.05985 4.30448 0
M  V30 2993 H 480.689 3.88028 4.72875 0
M  V30 2994 H 481.177 4.11381 3.01609 0
M  V30 2995 H 481.913 -0.0393617 1.41345 0
M  V30 2996 P 483.337 -2.75334 8.47391 0
M  V30 2997 O 483.557 -3.84128 9.44797 0
M  V30 2998 O 484.127 -1.51947 8.68712 0
M  V30 2999 O 483.587 -3.29363 6.99321 0
M  V30 3000 C 482.647 -4.24011 6.4274 0
M  V30 3001 C 483.377 -5.20775 5.52155 0
M  V30 3002 O 483.587 -4.56534 4.22446 0
M  V30 3003 C 484.777 -5.62629 5.96531 0
M  V30 3004 O 485.167 -6.87667 5.41053 0
M  V30 3005 C 485.657 -4.52537 5.39283 0
M  V30 3006 C 484.947 -4.20027 4.08623 0
M  V30 3007 N 484.997 -2.76189 3.71603 0
M  V30 3008 H 482.158 -4.797 7.24003 0
M  V30 3009 H 481.888 -3.69856 5.84513 0
M  V30 3010 H 482.755 -6.10356 5.41441 0
M  V30 3011 P 486.717 -7.20834 5.23717 0
M  V30 3012 O 486.937 -8.66104 5.38572 0
M  V30 3013 O 487.507 -6.33544 6.1349 0
M  V30 3014 O 486.967 -6.7751 3.72168 0
M  V30 3015 C 486.027 -7.20825 2.7076 0
M  V30 3016 C 486.757 -7.45864 1.40599 0
M  V30 3017 O 486.967 -6.17651 0.734225 0
M  V30 3018 C 488.157 -8.05808 1.51899 0
M  V30 3019 O 488.547 -8.74358 0.335205 0
M  V30 3020 C 489.037 -6.83093 1.70294 0
M  V30 3021 C 488.327 -5.79992 0.836974 0
M  V30 3022 N 488.377 -4.41864 1.38293 0
M  V30 3023 C 488.297 -3.99538 2.69438 0
M  V30 3024 N 488.377 -2.69909 2.84277 0
M  V30 3025 C 488.517 -2.21719 1.5408 0
M  V30 3026 C 488.647 -0.891712 1.06628 0
M  V30 3027 N 488.767 -0.856846 -0.334985 0
M  V30 3028 C 488.767 -1.9641 -1.15789 0
M  V30 3029 N 488.897 -1.72708 -2.46522 0
M  V30 3030 N 488.637 -3.21165 -0.713741 0
M  V30 3031 C 488.517 -3.26797 0.639748 0
M  V30 3032 H 485.538 -8.13644 3.0377 0
M  V30 3033 H 485.268 -6.42788 2.55485 0
M  V30 3034 H 486.135 -8.12039 0.792769 0
M  V30 3035 P 490.097 -8.91 -2.91224e-12 0
M  V30 3036 O 490.317 -10.1726 -0.733694 0
M  V30 3037 O 490.887 -8.73148 1.23936 0
M  V30 3038 O 490.347 -7.66872 -0.971405 0
M  V30 3039 C 489.407 -7.42309 -2.04641 0
M  V30 3040 C 490.137 -6.86059 -3.24661 0
M  V30 3041 O 490.347 -5.42847 -3.03646 0
M  V30 3042 C 491.537 -7.41196 -3.50753 0
M  V30 3043 O 491.927 -7.27073 -4.86816 0
M  V30 3044 C 492.417 -6.5273 -2.63741 0
M  V30 3045 C 491.707 -5.1842 -2.73198 0
M  V30 3046 N 491.757 -4.38762 -1.4784 0
M  V30 3047 H 488.918 -8.36803 -2.32493 0
M  V30 3048 H 488.648 -6.70197 -1.71129 0
M  V30 3049 H 489.515 -7.03551 -4.13168 0
M  V30 3050 P 493.477 -7.20834 -5.23717 0
M  V30 3051 O 493.697 -7.79853 -6.57286 0
M  V30 3052 O 494.267 -7.79239 -4.12957 0
M  V30 3053 O 493.727 -5.63315 -5.29344 0
M  V30 3054 C 492.787 -4.80255 -6.01876 0
M  V30 3055 C 493.517 -3.64202 -6.65911 0
M  V30 3056 O 493.727 -2.60694 -5.64732 0
M  V30 3057 C 494.917 -3.93473 -7.1943 0
M  V30 3058 O 495.307 -3.02071 -8.21205 0
M  V30 3059 C 495.797 -3.73047 -5.97036 0
M  V30 3060 C 495.087 -2.58828 -5.25741 0
M  V30 3061 N 495.137 -2.68068 -3.77503 0
M  V30 3062 C 495.057 -3.79715 -2.96723 0
M  V30 3063 N 495.137 -3.5377 -1.68852 0
M  V30 3064 C 495.277 -2.15054 -1.63254 0
M  V30 3065 C 495.407 -1.28964 -0.518571 0
M  V30 3066 N 495.527 0.0538097 -0.918425 0
M  V30 3067 C 495.527 0.494275 -2.22578 0
M  V30 3068 N 495.657 1.81086 -2.40434 0
M  V30 3069 N 495.397 -0.313645 -3.27502 0
M  V30 3070 C 495.277 -1.61829 -2.91033 0
M  V30 3071 H 492.298 -5.40332 -6.79951 0
M  V30 3072 H 492.028 -4.41613 -5.32378 0
M  V30 3073 H 492.895 -3.26331 -7.47797 0
M  V30 3074 P 496.857 -2.75334 -8.47391 0
M  V30 3075 O 497.077 -2.44571 -9.90142 0
M  V30 3076 O 497.647 -3.87688 -7.92115 0
M  V30 3077 O 497.107 -1.4459 -7.59357 0
M  V30 3078 C 496.167 -0.347608 -7.69215 0
M  V30 3079 C 496.897 0.96767 -7.52806 0
M  V30 3080 O 497.107 1.21036 -6.1011 0
M  V30 3081 C 498.297 1.04544 -8.13308 0
M  V30 3082 O 498.687 2.38311 -8.41922 0
M  V30 3083 C 499.177 0.491279 -7.02284 0
M  V30 3084 C 498.467 0.996264 -5.77469 0
M  V30 3085 N 498.517 0.0501916 -4.62973 0
M  V30 3086 C 498.437 -1.32786 -4.63244 0
M  V30 3087 N 498.517 -1.86957 -3.44545 0
M  V30 3088 C 498.657 -0.780241 -2.58481 0
M  V30 3089 C 498.787 -0.738536 -1.17757 0
M  V30 3090 O 498.807 -1.66794 -0.372349 0
M  V30 3091 N 498.907 0.58337 -0.711393 0
M  V30 3092 C 498.907 1.70816 -1.51017 0
M  V30 3093 N 499.037 2.87826 -0.880757 0
M  V30 3094 N 498.777 1.67126 -2.8339 0
M  V30 3095 C 498.657 0.401421 -3.30572 0
M  V30 3096 H 495.678 -0.374722 -8.67691 0
M  V30 3097 H 495.408 -0.443485 -6.90277 0
M  V30 3098 H 496.275 1.75537 -7.96793 0
M  V30 3099 H 498.93 1.95076 -5.46529 0
M  V30 3100 H 499.209 -0.608565 -7.04577 0
M  V30 3101 H 500.201 0.889672 -7.08939 0
M  V30 3102 H 498.367 0.43308 -9.04564 0
M  V30 3103 H 498.318 -1.91249 -5.54442 0
M  V30 3104 H 499 0.718054 0.275244 0
M  V30 3105 H 499.037 3.75721 -1.41832 0
M  V30 3106 H 499.138 2.90436 0.145468 0
M  V30 3107 P 500.237 2.75334 -8.47391 0
M  V30 3108 O 500.457 3.84204 -9.44982 0
M  V30 3109 O 501.027 1.51982 -8.68909 0
M  V30 3110 O 500.487 3.29363 -6.99321 0
M  V30 3111 C 499.547 4.24066 -6.42823 0
M  V30 3112 C 500.277 5.20775 -5.52155 0
M  V30 3113 O 500.487 4.56607 -4.22514 0
M  V30 3114 C 501.677 5.62697 -5.96604 0
M  V30 3115 O 502.067 6.87667 -5.41053 0
M  V30 3116 C 502.557 4.52537 -5.39283 0
M  V30 3117 C 501.847 4.20027 -4.08623 0
M  V30 3118 N 501.897 2.76189 -3.71603 0
M  V30 3119 H 499.059 4.79756 -7.24086 0
M  V30 3120 H 498.787 3.69963 -5.84682 0
M  V30 3121 H 499.655 6.10431 -5.41508 0
M  V30 3122 H 502.31 4.78816 -3.28024 0
M  V30 3123 H 502.59 3.64957 -6.05871 0
M  V30 3124 H 503.581 4.88748 -5.21323 0
M  V30 3125 H 501.747 5.66789 -7.0643 0
M  V30 3126 P 503.617 7.20834 -5.23717 0
M  V30 3127 O 503.837 8.66104 -5.38572 0
M  V30 3128 O 504.407 6.33544 -6.1349 0
M  V30 3129 O 503.867 6.7751 -3.72168 0
M  V30 3130 C 502.927 7.20825 -2.7076 0
M  V30 3131 C 503.657 7.45864 -1.40599 0
M  V30 3132 O 503.867 6.17651 -0.734225 0
M  V30 3133 C 505.057 8.05808 -1.51899 0
M  V30 3134 O 505.447 8.74358 -0.335205 0
M  V30 3135 C 505.937 6.83093 -1.70294 0
M  V30 3136 C 505.227 5.79992 -0.836974 0
M  V30 3137 N 505.277 4.41864 -1.38293 0
M  V30 3138 H 502.438 8.13644 -3.0377 0
M  V30 3139 H 502.168 6.42788 -2.55485 0
M  V30 3140 H 503.035 8.12039 -0.792769 0
M  V30 3141 P 506.997 8.91 3.06942e-12 0
M  V30 3142 O 507.217 10.1746 0.733838 0
M  V30 3143 O 507.787 8.73346 -1.23964 0
M  V30 3144 O 507.247 7.66872 0.971405 0
M  V30 3145 C 506.307 7.42405 2.04668 0
M  V30 3146 C 507.037 6.86059 3.24661 0
M  V30 3147 O 507.247 5.42934 3.03695 0
M  V30 3148 C 508.437 7.41287 3.50796 0
M  V30 3149 O 508.827 7.27073 4.86816 0
M  V30 3150 C 509.317 6.5273 2.63741 0
M  V30 3151 C 508.607 5.1842 2.73198 0
M  V30 3152 N 508.657 4.38762 1.4784 0
M  V30 3153 H 505.819 8.36899 2.3252 0
M  V30 3154 H 505.547 6.70391 1.71179 0
M  V30 3155 H 506.415 7.03638 4.13219 0
M  V30 3156 H 509.07 4.59931 3.54016 0
M  V30 3157 H 509.35 6.88995 1.59871 0
M  V30 3158 H 510.341 6.4684 3.0373 0
M  V30 3159 H 508.507 8.47002 3.20749 0
M  V30 3160 P 510.377 7.20834 5.23717 0
M  V30 3161 O 510.597 7.79853 6.57286 0
M  V30 3162 O 511.167 7.79239 4.12957 0
M  V30 3163 O 510.627 5.63315 5.29344 0
M  V30 3164 C 509.687 4.80255 6.01876 0
M  V30 3165 C 510.417 3.64202 6.65911 0
M  V30 3166 O 510.627 2.60694 5.64732 0
M  V30 3167 C 511.817 3.93473 7.1943 0
M  V30 3168 O 512.207 3.02071 8.21205 0
M  V30 3169 C 512.697 3.73047 5.97036 0
M  V30 3170 C 511.987 2.58828 5.25741 0
M  V30 3171 N 512.037 2.68068 3.77503 0
M  V30 3172 H 509.198 5.40332 6.79951 0
M  V30 3173 H 508.928 4.41613 5.32378 0
M  V30 3174 H 509.795 3.26331 7.47797 0
M  V30 3175 P 513.757 2.75334 8.47391 0
M  V30 3176 O 513.977 2.44571 9.90142 0
M  V30 3177 O 514.547 3.87688 7.92115 0
M  V30 3178 O 514.007 1.4459 7.59357 0
M  V30 3179 C 513.067 0.347608 7.69215 0
M  V30 3180 C 513.797 -0.96767 7.52806 0
M  V30 3181 O 514.007 -1.21036 6.1011 0
M  V30 3182 C 515.197 -1.04544 8.13308 0
M  V30 3183 O 515.587 -2.38311 8.41922 0
M  V30 3184 C 516.077 -0.491279 7.02284 0
M  V30 3185 C 515.367 -0.996264 5.77469 0
M  V30 3186 N 515.417 -0.0501916 4.62973 0
M  V30 3187 H 512.578 0.374722 8.67691 0
M  V30 3188 H 512.308 0.443485 6.90277 0
M  V30 3189 H 513.175 -1.75537 7.96793 0
M  V30 3190 P 517.137 -2.75334 8.47391 0
M  V30 3191 O 517.357 -3.84128 9.44797 0
M  V30 3192 O 517.927 -1.51947 8.68712 0
M  V30 3193 O 517.387 -3.29363 6.99321 0
M  V30 3194 C 516.447 -4.24011 6.4274 0
M  V30 3195 C 517.177 -5.20775 5.52155 0
M  V30 3196 O 517.387 -4.56534 4.22446 0
M  V30 3197 C 518.577 -5.62629 5.96531 0
M  V30 3198 O 518.967 -6.87667 5.41053 0
M  V30 3199 C 519.457 -4.52537 5.39283 0
M  V30 3200 C 518.747 -4.20027 4.08623 0
M  V30 3201 N 518.797 -2.76189 3.71603 0
M  V30 3202 C 518.717 -1.64862 4.52822 0
M  V30 3203 N 518.797 -0.512671 3.88633 0
M  V30 3204 C 518.937 -0.888083 2.54977 0
M  V30 3205 C 519.067 -0.094668 1.38677 0
M  V30 3206 O 519.087 1.13053 1.28163 0
M  V30 3207 N 519.187 -0.890102 0.232633 0
M  V30 3208 C 519.187 -2.26958 0.21772 0
M  V30 3209 N 519.317 -2.84626 -0.97925 0
M  V30 3210 N 519.057 -3.0178 1.31033 0
M  V30 3211 C 518.937 -2.26781 2.43843 0
M  V30 3212 H 515.958 -4.797 7.24003 0
M  V30 3213 H 515.688 -3.69856 5.84513 0
M  V30 3214 H 516.555 -6.10356 5.41441 0
M  V30 3215 H 519.21 -4.79061 3.27488 0
M  V30 3216 H 519.489 -3.64906 6.05785 0
M  V30 3217 H 520.481 -4.8868 5.2125 0
M  V30 3218 H 518.647 -5.66726 7.06352 0
M  V30 3219 H 518.598 -1.71169 5.60966 0
M  V30 3220 H 519.28 -0.419134 -0.644739 0
M  V30 3221 H 519.317 -3.87332 -1.06098 0
M  V30 3222 H 519.418 -2.26417 -1.82483 0
M  V30 3223 P 520.517 -7.20834 5.23717 0
M  V30 3224 O 520.737 -8.66189 5.38625 0
M  V30 3225 O 521.307 -6.33615 6.1356 0
M  V30 3226 O 520.767 -6.7751 3.72168 0
M  V30 3227 C 519.827 -7.20732 2.70725 0
M  V30 3228 C 520.557 -7.45864 1.40599 0
M  V30 3229 O 520.767 -6.17651 0.734225 0
M  V30 3230 C 521.957 -8.05808 1.51899 0
M  V30 3231 O 522.347 -8.74358 0.335205 0
M  V30 3232 C 522.837 -6.83093 1.70294 0
M  V30 3233 C 522.127 -5.79992 0.836974 0
M  V30 3234 N 522.177 -4.41769 1.38263 0
M  V30 3235 C 522.327 -3.38591 0.481702 0
M  V30 3236 O 522.417 -3.56839 -0.718452 0
M  V30 3237 N 522.367 -2.1206 1.03569 0
M  V30 3238 C 522.277 -1.80696 2.36966 0
M  V30 3239 O 522.327 -0.630473 2.74862 0
M  V30 3240 C 522.127 -2.94845 3.23898 0
M  V30 3241 C 522.017 -2.65253 4.70362 0
M  V30 3242 C 522.077 -4.19803 2.73435 0
M  V30 3243 H 519.337 -8.13644 3.0377 0
M  V30 3244 H 519.068 -6.42695 2.55448 0
M  V30 3245 H 519.935 -8.12039 0.792769 0
M  V30 3246 H 522.59 -5.79978 -0.160587 0
M  V30 3247 H 522.869 -6.51379 2.75643 0
M  V30 3248 H 523.861 -7.01734 1.34462 0
M  V30 3249 H 522.027 -8.73674 2.38337 0
M  V30 3250 H 521.956 -5.04492 3.4095 0
M  V30 3251 H 522.986 -2.83924 5.1913 0
M  V30 3252 H 521.249 -3.29824 5.15163 0
M  V30 3253 H 521.737 -1.59723 4.84449 0
M  V30 3254 H 522.473 -1.35644 0.399345 0
M  V30 3255 P 523.897 -8.91 -3.22661e-12 0
M  V30 3256 O 524.117 -10.1726 -0.733694 0
M  V30 3257 O 524.687 -8.73148 1.23936 0
M  V30 3258 O 524.147 -7.66872 -0.971405 0
M  V30 3259 C 523.207 -7.42309 -2.04641 0
M  V30 3260 C 523.937 -6.86059 -3.24661 0
M  V30 3261 O 524.147 -5.42847 -3.03646 0
M  V30 3262 C 525.337 -7.41196 -3.50753 0
M  V30 3263 O 525.727 -7.27073 -4.86816 0
M  V30 3264 C 526.217 -6.5273 -2.63741 0
M  V30 3265 C 525.507 -5.1842 -2.73198 0
M  V30 3266 N 525.557 -4.38762 -1.4784 0
M  V30 3267 H 522.718 -8.36803 -2.32493 0
M  V30 3268 H 522.448 -6.70197 -1.71129 0
M  V30 3269 H 523.315 -7.03551 -4.13168 0
M  V30 3270 P 527.277 -7.20834 -5.23717 0
M  V30 3271 O 527.497 -7.7993 -6.57351 0
M  V30 3272 O 528.067 -7.79328 -4.13004 0
M  V30 3273 O 527.527 -5.63315 -5.29344 0
M  V30 3274 C 526.587 -4.80193 -6.01798 0
M  V30 3275 C 527.317 -3.64202 -6.65911 0
M  V30 3276 O 527.527 -2.60694 -5.64732 0
M  V30 3277 C 528.717 -3.93473 -7.1943 0
M  V30 3278 O 529.107 -3.02071 -8.21205 0
M  V30 3279 C 529.597 -3.73047 -5.97036 0
M  V30 3280 C 528.887 -2.58828 -5.25741 0
M  V30 3281 N 528.937 -2.6801 -3.77422 0
M  V30 3282 C 529.087 -1.50443 -3.07133 0
M  V30 3283 O 529.177 -0.419406 -3.61576 0
M  V30 3284 N 529.127 -1.6403 -1.69677 0
M  V30 3285 C 529.037 -2.81206 -0.986255 0
M  V30 3286 C 528.887 -3.99158 -1.80325 0
M  V30 3287 C 528.837 -3.89779 -3.1476 0
M  V30 3288 H 526.097 -5.40332 -6.79951 0
M  V30 3289 H 525.828 -4.41549 -5.32301 0
M  V30 3290 H 526.695 -3.26331 -7.47797 0
M  V30 3291 H 529.35 -1.6395 -5.56554 0
M  V30 3292 H 529.629 -4.63439 -5.3432 0
M  V30 3293 H 530.621 -3.44728 -6.25838 0
M  V30 3294 H 528.787 -4.96652 -7.57263 0
M  V30 3295 H 528.716 -4.80159 -3.74441 0
M  V30 3296 P 530.657 -2.75334 -8.47391 0
M  V30 3297 O 530.877 -2.44571 -9.90142 0
M  V30 3298 O 531.447 -3.87688 -7.92115 0
M  V30 3299 O 530.907 -1.4459 -7.59357 0
M  V30 3300 C 529.967 -0.347608 -7.69215 0
M  V30 3301 C 530.697 0.96767 -7.52806 0
M  V30 3302 O 530.907 1.21036 -6.1011 0
M  V30 3303 C 532.097 1.04544 -8.13308 0
M  V30 3304 O 532.487 2.38311 -8.41922 0
M  V30 3305 C 532.977 0.491279 -7.02284 0
M  V30 3306 C 532.267 0.996264 -5.77469 0
M  V30 3307 N 532.317 0.0501916 -4.62973 0
M  V30 3308 H 529.478 -0.374722 -8.67691 0
M  V30 3309 H 529.208 -0.443485 -6.90277 0
M  V30 3310 H 530.075 1.75537 -7.96793 0
M  V30 3311 P 534.037 2.75334 -8.47391 0
M  V30 3312 O 534.257 3.84166 -9.4489 0
M  V30 3313 O 534.827 1.51964 -8.6881 0
M  V30 3314 O 534.287 3.29363 -6.99321 0
M  V30 3315 C 533.347 4.23956 -6.42656 0
M  V30 3316 C 534.077 5.20775 -5.52155 0
M  V30 3317 O 534.287 4.56534 -4.22446 0
M  V30 3318 C 535.477 5.62629 -5.96531 0
M  V30 3319 O 535.867 6.87667 -5.41053 0
M  V30 3320 C 536.357 4.52537 -5.39283 0
M  V30 3321 C 535.647 4.20027 -4.08623 0
M  V30 3322 N 535.697 2.7613 -3.71522 0
M  V30 3323 C 535.847 2.45612 -2.37989 0
M  V30 3324 O 535.937 3.30919 -1.51621 0
M  V30 3325 N 535.887 1.10684 -2.08435 0
M  V30 3326 C 535.797 0.0690084 -2.9792 0
M  V30 3327 C 535.647 0.481522 -4.35345 0
M  V30 3328 C 535.597 1.78906 -4.67968 0
M  V30 3329 H 532.857 4.797 -7.24003 0
M  V30 3330 H 532.588 3.69802 -5.84429 0
M  V30 3331 H 533.455 6.10356 -5.41441 0
M  V30 3332 H 536.11 4.78651 -3.27911 0
M  V30 3333 H 536.389 3.64957 -6.05871 0
M  V30 3334 H 537.381 4.8868 -5.2125 0
M  V30 3335 H 535.547 5.66726 -7.06352 0
M  V30 3336 H 535.476 2.07737 -5.72367 0
M  V30 3337 P 537.417 7.20834 -5.23717 0
M  V30 3338 O 537.637 8.66104 -5.38572 0
M  V30 3339 O 538.207 6.33544 -6.1349 0
M  V30 3340 O 537.667 6.7751 -3.72168 0
M  V30 3341 C 536.727 7.20825 -2.7076 0
M  V30 3342 C 537.457 7.45864 -1.40599 0
M  V30 3343 O 537.667 6.17651 -0.734225 0
M  V30 3344 C 538.857 8.05808 -1.51899 0
M  V30 3345 O 539.247 8.74358 -0.335205 0
M  V30 3346 C 539.737 6.83093 -1.70294 0
M  V30 3347 C 539.027 5.79992 -0.836974 0
M  V30 3348 N 539.077 4.41864 -1.38293 0
M  V30 3349 H 536.238 8.13644 -3.0377 0
M  V30 3350 H 535.968 6.42788 -2.55485 0
M  V30 3351 H 536.835 8.12039 -0.792769 0
M  V30 3352 P 540.797 8.91 3.38379e-12 0
M  V30 3353 O 541.017 10.1726 0.733694 0
M  V30 3354 O 541.587 8.73148 -1.23936 0
M  V30 3355 O 541.047 7.66872 0.971405 0
M  V30 3356 C 540.107 7.42309 2.04641 0
M  V30 3357 C 540.837 6.86059 3.24661 0
M  V30 3358 O 541.047 5.42847 3.03646 0
M  V30 3359 C 542.237 7.41196 3.50753 0
M  V30 3360 O 542.627 7.27073 4.86816 0
M  V30 3361 C 543.117 6.5273 2.63741 0
M  V30 3362 C 542.407 5.1842 2.73198 0
M  V30 3363 N 542.457 4.38762 1.4784 0
M  V30 3364 H 539.618 8.36803 2.32493 0
M  V30 3365 H 539.348 6.70197 1.71129 0
M  V30 3366 H 540.215 7.03551 4.13168 0
M  V30 3367 P 544.177 7.20834 5.23717 0
M  V30 3368 O 544.397 7.7993 6.57351 0
M  V30 3369 O 544.967 7.79328 4.13004 0
M  V30 3370 O 544.427 5.63315 5.29344 0
M  V30 3371 C 543.487 4.80193 6.01798 0
M  V30 3372 C 544.217 3.64202 6.65911 0
M  V30 3373 O 544.427 2.60694 5.64732 0
M  V30 3374 C 545.617 3.93473 7.1943 0
M  V30 3375 O 546.007 3.02071 8.21205 0
M  V30 3376 C 546.497 3.73047 5.97036 0
M  V30 3377 C 545.787 2.58828 5.25741 0
M  V30 3378 N 545.837 2.6801 3.77422 0
M  V30 3379 C 545.987 1.50443 3.07133 0
M  V30 3380 O 546.077 0.419406 3.61576 0
M  V30 3381 N 546.027 1.6403 1.69677 0
M  V30 3382 C 545.937 2.81206 0.986255 0
M  V30 3383 C 545.787 3.99158 1.80325 0
M  V30 3384 C 545.737 3.89779 3.1476 0
M  V30 3385 H 542.997 5.40332 6.79951 0
M  V30 3386 H 542.728 4.41549 5.32301 0
M  V30 3387 H 543.595 3.26331 7.47797 0
M  V30 3388 H 546.25 1.6395 5.56554 0
M  V30 3389 H 546.529 4.63439 5.3432 0
M  V30 3390 H 547.521 3.44728 6.25838 0
M  V30 3391 H 545.687 4.96652 7.57263 0
M  V30 3392 H 545.616 4.80159 3.74441 0
M  V30 3393 P 547.557 2.75334 8.47391 0
M  V30 3394 O 547.777 2.44571 9.90142 0
M  V30 3395 O 548.347 3.87688 7.92115 0
M  V30 3396 O 547.807 1.4459 7.59357 0
M  V30 3397 C 546.867 0.347608 7.69215 0
M  V30 3398 C 547.597 -0.96767 7.52806 0
M  V30 3399 O 547.807 -1.21036 6.1011 0
M  V30 3400 C 548.997 -1.04544 8.13308 0
M  V30 3401 O 549.387 -2.38311 8.41922 0
M  V30 3402 C 549.877 -0.491279 7.02284 0
M  V30 3403 C 549.167 -0.996264 5.77469 0
M  V30 3404 N 549.217 -0.0501916 4.62973 0
M  V30 3405 C 549.137 1.32786 4.63244 0
M  V30 3406 N 549.217 1.86957 3.44545 0
M  V30 3407 C 549.357 0.780241 2.58481 0
M  V30 3408 C 549.487 0.738536 1.17757 0
M  V30 3409 O 549.507 1.66794 0.372349 0
M  V30 3410 N 549.607 -0.58337 0.711393 0
M  V30 3411 C 549.607 -1.70816 1.51017 0
M  V30 3412 N 549.737 -2.87826 0.880757 0
M  V30 3413 N 549.477 -1.67126 2.8339 0
M  V30 3414 C 549.357 -0.401421 3.30572 0
M  V30 3415 H 546.378 0.374722 8.67691 0
M  V30 3416 H 546.108 0.443485 6.90277 0
M  V30 3417 H 546.975 -1.75537 7.96793 0
M  V30 3418 H 549.63 -1.95076 5.46529 0
M  V30 3419 H 549.909 0.608565 7.04577 0
M  V30 3420 H 550.901 -0.889672 7.08939 0
M  V30 3421 H 549.067 -0.43308 9.04564 0
M  V30 3422 H 549.018 1.91249 5.54442 0
M  V30 3423 H 549.7 -0.718054 -0.275244 0
M  V30 3424 H 549.737 -3.75721 1.41832 0
M  V30 3425 H 549.838 -2.90436 -0.145468 0
M  V30 3426 P 550.937 -2.75334 8.47391 0
M  V30 3427 O 551.157 -3.84204 9.44982 0
M  V30 3428 O 551.727 -1.51982 8.68909 0
M  V30 3429 O 551.187 -3.29363 6.99321 0
M  V30 3430 C 550.247 -4.24066 6.42823 0
M  V30 3431 C 550.977 -5.20775 5.52155 0
M  V30 3432 O 551.187 -4.56607 4.22514 0
M  V30 3433 C 552.377 -5.62697 5.96604 0
M  V30 3434 O 552.767 -6.87667 5.41053 0
M  V30 3435 C 553.257 -4.52537 5.39283 0
M  V30 3436 C 552.547 -4.20027 4.08623 0
M  V30 3437 N 552.597 -2.76189 3.71603 0
M  V30 3438 H 549.759 -4.79756 7.24086 0
M  V30 3439 H 549.487 -3.69963 5.84682 0
M  V30 3440 H 550.355 -6.10431 5.41508 0
M  V30 3441 H 553.01 -4.78816 3.28024 0
M  V30 3442 H 553.29 -3.64957 6.05871 0
M  V30 3443 H 554.281 -4.88748 5.21323 0
M  V30 3444 H 552.447 -5.66789 7.0643 0
M  V30 3445 P 554.317 -7.20834 5.23717 0
M  V30 3446 O 554.537 -8.66189 5.38625 0
M  V30 3447 O 555.107 -6.33615 6.1356 0
M  V30 3448 O 554.567 -6.7751 3.72168 0
M  V30 3449 C 553.627 -7.20732 2.70725 0
M  V30 3450 C 554.357 -7.45864 1.40599 0
M  V30 3451 O 554.567 -6.17651 0.734225 0
M  V30 3452 C 555.757 -8.05808 1.51899 0
M  V30 3453 O 556.147 -8.74358 0.335205 0
M  V30 3454 C 556.637 -6.83093 1.70294 0
M  V30 3455 C 555.927 -5.79992 0.836974 0
M  V30 3456 N 555.977 -4.41769 1.38263 0
M  V30 3457 C 556.127 -3.38591 0.481702 0
M  V30 3458 O 556.217 -3.56839 -0.718452 0
M  V30 3459 N 556.167 -2.1206 1.03569 0
M  V30 3460 C 556.077 -1.80696 2.36966 0
M  V30 3461 C 555.927 -2.94845 3.23898 0
M  V30 3462 C 555.877 -4.19803 2.73435 0
M  V30 3463 H 553.137 -8.13644 3.0377 0
M  V30 3464 H 552.868 -6.42695 2.55448 0
M  V30 3465 H 553.735 -8.12039 0.792769 0
M  V30 3466 H 556.39 -5.79978 -0.160587 0
M  V30 3467 H 556.669 -6.51379 2.75643 0
M  V30 3468 H 557.661 -7.01734 1.34462 0
M  V30 3469 H 555.827 -8.73674 2.38337 0
M  V30 3470 H 555.756 -5.04492 3.4095 0
M  V30 3471 P 557.697 -8.91 -3.54097e-12 0
M  V30 3472 O 557.917 -10.1726 -0.733694 0
M  V30 3473 O 558.487 -8.73148 1.23936 0
M  V30 3474 O 557.947 -7.66872 -0.971405 0
M  V30 3475 C 557.007 -7.42309 -2.04641 0
M  V30 3476 C 557.737 -6.86059 -3.24661 0
M  V30 3477 O 557.947 -5.42847 -3.03646 0
M  V30 3478 C 559.137 -7.41196 -3.50753 0
M  V30 3479 O 559.527 -7.27073 -4.86816 0
M  V30 3480 C 560.017 -6.5273 -2.63741 0
M  V30 3481 C 559.307 -5.1842 -2.73198 0
M  V30 3482 N 559.357 -4.38762 -1.4784 0
M  V30 3483 H 556.518 -8.36803 -2.32493 0
M  V30 3484 H 556.248 -6.70197 -1.71129 0
M  V30 3485 H 557.115 -7.03551 -4.13168 0
M  V30 3486 P 561.077 -7.20834 -5.23717 0
M  V30 3487 O 561.297 -7.7993 -6.57351 0
M  V30 3488 O 561.867 -7.79328 -4.13004 0
M  V30 3489 O 561.327 -5.63315 -5.29344 0
M  V30 3490 C 560.387 -4.80255 -6.01876 0
M  V30 3491 C 561.117 -3.64202 -6.65911 0
M  V30 3492 O 561.327 -2.60694 -5.64732 0
M  V30 3493 C 562.517 -3.93473 -7.1943 0
M  V30 3494 O 562.907 -3.02071 -8.21205 0
M  V30 3495 C 563.397 -3.73047 -5.97036 0
M  V30 3496 C 562.687 -2.58828 -5.25741 0
M  V30 3497 N 562.737 -2.6801 -3.77422 0
M  V30 3498 C 562.887 -1.50173 -3.05038 0
M  V30 3499 O 562.977 -0.428832 -3.665 0
M  V30 3500 N 562.937 -1.70922 -1.55541 0
M  V30 3501 C 562.837 -2.7407 -1.06402 0
M  V30 3502 N 562.887 -2.74764 0.260931 0
M  V30 3503 C 562.687 -3.96781 -1.78296 0
M  V30 3504 C 562.637 -3.87909 -3.13891 0
M  V30 3505 H 559.897 -5.4027 -6.79873 0
M  V30 3506 H 559.628 -4.41549 -5.32301 0
M  V30 3507 H 560.495 -3.26371 -7.47889 0
M  V30 3508 H 563.15 -1.63978 -5.5665 0
M  V30 3509 H 563.429 -4.63439 -5.3432 0
M  V30 3510 H 564.421 -3.44728 -6.25838 0
M  V30 3511 H 562.587 -4.96652 -7.57263 0
M  V30 3512 H 562.515 -4.78425 -3.73088 0
M  V30 3513 H 562.617 -4.92593 -1.26997 0
M  V30 3514 H 563.005 -1.86285 0.77595 0
M  V30 3515 H 562.808 -3.63657 0.773896 0
M  V30 3516 P 564.457 -2.75334 -8.47391 0
M  V30 3517 O 564.677 -2.44619 -9.90336 0
M  V30 3518 O 565.247 -3.87776 -7.92294 0
M  V30 3519 O 564.707 -1.4459 -7.59357 0
M  V30 3520 C 563.767 -0.347653 -7.69315 0
M  V30 3521 C 564.497 0.96767 -7.52806 0
M  V30 3522 O 564.707 1.21055 -6.10208 0
M  V30 3523 C 565.897 1.04557 -8.13408 0
M  V30 3524 O 566.287 2.38311 -8.41922 0
M  V30 3525 C 566.777 0.491279 -7.02284 0
M  V30 3526 C 566.067 0.996264 -5.77469 0
M  V30 3527 N 566.117 0.0501916 -4.62973 0
M  V30 3528 H 563.279 -0.374765 -8.67791 0
M  V30 3529 H 563.007 -0.443613 -6.90476 0
M  V30 3530 H 563.875 1.75559 -7.96891 0
M  V30 3531 H 566.53 1.94563 -5.46818 0
M  V30 3532 H 566.81 -0.608651 -7.04676 0
M  V30 3533 H 567.801 0.889796 -7.09039 0
M  V30 3534 H 565.967 0.433128 -9.04664 0
M  V30 3535 P 567.837 2.75334 -8.47391 0
M  V30 3536 O 568.057 3.84128 -9.44797 0
M  V30 3537 O 568.627 1.51947 -8.68712 0
M  V30 3538 O 568.087 3.29363 -6.99321 0
M  V30 3539 C 567.147 4.24011 -6.4274 0
M  V30 3540 C 567.877 5.20775 -5.52155 0
M  V30 3541 O 568.087 4.56534 -4.22446 0
M  V30 3542 C 569.277 5.62629 -5.96531 0
M  V30 3543 O 569.667 6.87667 -5.41053 0
M  V30 3544 C 570.157 4.52537 -5.39283 0
M  V30 3545 C 569.447 4.20027 -4.08623 0
M  V30 3546 N 569.497 2.76189 -3.71603 0
M  V30 3547 H 566.658 4.797 -7.24003 0
M  V30 3548 H 566.388 3.69856 -5.84513 0
M  V30 3549 H 567.255 6.10356 -5.41441 0
M  V30 3550 P 571.217 7.20834 -5.23717 0
M  V30 3551 O 571.437 8.66104 -5.38572 0
M  V30 3552 O 572.007 6.33544 -6.1349 0
M  V30 3553 O 571.467 6.7751 -3.72168 0
M  V30 3554 C 570.527 7.20825 -2.7076 0
M  V30 3555 C 571.257 7.45864 -1.40599 0
M  V30 3556 O 571.467 6.17651 -0.734225 0
M  V30 3557 C 572.657 8.05808 -1.51899 0
M  V30 3558 O 573.047 8.74358 -0.335205 0
M  V30 3559 C 573.537 6.83093 -1.70294 0
M  V30 3560 C 572.827 5.79992 -0.836974 0
M  V30 3561 N 572.877 4.41864 -1.38293 0
M  V30 3562 H 570.038 8.13644 -3.0377 0
M  V30 3563 H 569.768 6.42788 -2.55485 0
M  V30 3564 H 570.635 8.12039 -0.792769 0
M  V30 3565 P 574.597 8.91 3.69815e-12 0
M  V30 3566 O 574.817 10.1726 0.733694 0
M  V30 3567 O 575.387 8.73148 -1.23936 0
M  V30 3568 O 574.847 7.66872 0.971405 0
M  V30 3569 C 573.907 7.42309 2.04641 0
M  V30 3570 C 574.637 6.86059 3.24661 0
M  V30 3571 O 574.847 5.42847 3.03646 0
M  V30 3572 C 576.037 7.41196 3.50753 0
M  V30 3573 O 576.427 7.27073 4.86816 0
M  V30 3574 C 576.917 6.5273 2.63741 0
M  V30 3575 C 576.207 5.1842 2.73198 0
M  V30 3576 N 576.257 4.38762 1.4784 0
M  V30 3577 H 573.418 8.36803 2.32493 0
M  V30 3578 H 573.148 6.70197 1.71129 0
M  V30 3579 H 574.015 7.03551 4.13168 0
M  V30 3580 P 577.977 7.20834 5.23717 0
M  V30 3581 O 578.197 7.79853 6.57286 0
M  V30 3582 O 578.767 7.79239 4.12957 0
M  V30 3583 O 578.227 5.63315 5.29344 0
M  V30 3584 C 577.287 4.80255 6.01876 0
M  V30 3585 C 578.017 3.64202 6.65911 0
M  V30 3586 O 578.227 2.60694 5.64732 0
M  V30 3587 C 579.417 3.93473 7.1943 0
M  V30 3588 O 579.807 3.02071 8.21205 0
M  V30 3589 C 580.297 3.73047 5.97036 0
M  V30 3590 C 579.587 2.58828 5.25741 0
M  V30 3591 N 579.637 2.68068 3.77503 0
M  V30 3592 H 576.798 5.40332 6.79951 0
M  V30 3593 H 576.528 4.41613 5.32378 0
M  V30 3594 H 577.395 3.26331 7.47797 0
M  V30 3595 P 581.357 2.75334 8.47391 0
M  V30 3596 O 581.577 2.44571 9.90142 0
M  V30 3597 O 582.147 3.87688 7.92115 0
M  V30 3598 O 581.607 1.4459 7.59357 0
M  V30 3599 C 580.667 0.347608 7.69215 0
M  V30 3600 C 581.397 -0.96767 7.52806 0
M  V30 3601 O 581.607 -1.21036 6.1011 0
M  V30 3602 C 582.797 -1.04544 8.13308 0
M  V30 3603 O 583.187 -2.38311 8.41922 0
M  V30 3604 C 583.677 -0.491279 7.02284 0
M  V30 3605 C 582.967 -0.996264 5.77469 0
M  V30 3606 N 583.017 -0.0501916 4.62973 0
M  V30 3607 H 580.178 0.374722 8.67691 0
M  V30 3608 H 579.908 0.443485 6.90277 0
M  V30 3609 H 580.775 -1.75537 7.96793 0
M  V30 3610 P 584.737 -2.75334 8.47391 0
M  V30 3611 O 584.957 -3.84128 9.44797 0
M  V30 3612 O 585.527 -1.51947 8.68712 0
M  V30 3613 O 584.987 -3.29363 6.99321 0
M  V30 3614 C 584.047 -4.24011 6.4274 0
M  V30 3615 C 584.777 -5.20775 5.52155 0
M  V30 3616 O 584.987 -4.56534 4.22446 0
M  V30 3617 C 586.177 -5.62629 5.96531 0
M  V30 3618 O 586.567 -6.87667 5.41053 0
M  V30 3619 C 587.057 -4.52537 5.39283 0
M  V30 3620 C 586.347 -4.20027 4.08623 0
M  V30 3621 N 586.397 -2.76189 3.71603 0
M  V30 3622 C 586.317 -1.64862 4.52822 0
M  V30 3623 N 586.397 -0.512671 3.88633 0
M  V30 3624 C 586.537 -0.888083 2.54977 0
M  V30 3625 C 586.667 -0.094668 1.38677 0
M  V30 3626 O 586.687 1.13053 1.28163 0
M  V30 3627 N 586.787 -0.890102 0.232633 0
M  V30 3628 C 586.787 -2.26958 0.21772 0
M  V30 3629 N 586.917 -2.84626 -0.97925 0
M  V30 3630 N 586.657 -3.0178 1.31033 0
M  V30 3631 C 586.537 -2.26781 2.43843 0
M  V30 3632 H 583.558 -4.797 7.24003 0
M  V30 3633 H 583.288 -3.69856 5.84513 0
M  V30 3634 H 584.155 -6.10356 5.41441 0
M  V30 3635 H 586.81 -4.79061 3.27488 0
M  V30 3636 H 587.089 -3.64906 6.05785 0
M  V30 3637 H 588.081 -4.8868 5.2125 0
M  V30 3638 H 586.247 -5.66726 7.06352 0
M  V30 3639 H 586.198 -1.71169 5.60966 0
M  V30 3640 H 586.88 -0.419134 -0.644739 0
M  V30 3641 H 586.917 -3.87332 -1.06098 0
M  V30 3642 H 587.018 -2.26417 -1.82483 0
M  V30 3643 P 588.117 -7.20834 5.23717 0
M  V30 3644 O 588.337 -8.66104 5.38572 0
M  V30 3645 O 588.907 -6.33544 6.1349 0
M  V30 3646 O 588.367 -6.7751 3.72168 0
M  V30 3647 C 587.427 -7.20825 2.7076 0
M  V30 3648 C 588.157 -7.45864 1.40599 0
M  V30 3649 O 588.367 -6.17651 0.734225 0
M  V30 3650 C 589.557 -8.05808 1.51899 0
M  V30 3651 O 589.947 -8.74358 0.335205 0
M  V30 3652 C 590.437 -6.83093 1.70294 0
M  V30 3653 C 589.727 -5.79992 0.836974 0
M  V30 3654 N 589.777 -4.41864 1.38293 0
M  V30 3655 H 586.938 -8.13644 3.0377 0
M  V30 3656 H 586.668 -6.42788 2.55485 0
M  V30 3657 H 587.535 -8.12039 0.792769 0
M  V30 3658 P 591.496 -8.91 -3.85533e-12 0
M  V30 3659 O 591.716 -10.1726 -0.733694 0
M  V30 3660 O 592.286 -8.73148 1.23936 0
M  V30 3661 O 591.746 -7.66872 -0.971405 0
M  V30 3662 C 590.806 -7.42309 -2.04641 0
M  V30 3663 C 591.536 -6.86059 -3.24661 0
M  V30 3664 O 591.746 -5.42847 -3.03646 0
M  V30 3665 C 592.937 -7.41196 -3.50753 0
M  V30 3666 O 593.327 -7.27073 -4.86816 0
M  V30 3667 C 593.817 -6.5273 -2.63741 0
M  V30 3668 C 593.106 -5.1842 -2.73198 0
M  V30 3669 N 593.156 -4.38762 -1.4784 0
M  V30 3670 C 593.077 -4.81605 -0.168631 0
M  V30 3671 N 593.156 -3.85454 0.713363 0
M  V30 3672 C 593.296 -2.6994 -0.0566958 0
M  V30 3673 C 593.426 -1.34815 0.338502 0
M  V30 3674 O 593.447 -0.869548 1.47125 0
M  V30 3675 N 593.546 -0.496304 -0.77465 0
M  V30 3676 C 593.546 -0.908403 -2.09122 0
M  V30 3677 N 593.676 0.0517805 -3.00955 0
M  V30 3678 N 593.416 -2.17875 -2.46519 0
M  V30 3679 C 593.296 -3.01988 -1.4033 0
M  V30 3680 H 590.317 -8.36803 -2.32493 0
M  V30 3681 H 590.048 -6.70197 -1.71129 0
M  V30 3682 H 590.914 -7.03551 -4.13168 0
M  V30 3683 H 593.569 -4.59498 -3.54415 0
M  V30 3684 H 593.848 -6.88898 -1.59848 0
M  V30 3685 H 594.841 -6.46749 -3.03687 0
M  V30 3686 H 593.006 -8.46908 -3.20714 0
M  V30 3687 H 592.957 -5.86405 0.105564 0
M  V30 3688 H 593.639 0.483664 -0.597855 0
M  V30 3689 H 593.676 -0.187865 -4.0116 0
M  V30 3690 H 593.777 1.03585 -2.71726 0
M  V30 3691 P 594.876 -7.20834 -5.23717 0
M  V30 3692 O 595.096 -7.80006 -6.57415 0
M  V30 3693 O 595.666 -7.79416 -4.13051 0
M  V30 3694 O 595.126 -5.63315 -5.29344 0
M  V30 3695 C 594.186 -4.80318 -6.01954 0
M  V30 3696 C 594.916 -3.64202 -6.65911 0
M  V30 3697 O 595.126 -2.60736 -5.64823 0
M  V30 3698 C 596.316 -3.93521 -7.19518 0
M  V30 3699 O 596.706 -3.02071 -8.21205 0
M  V30 3700 C 597.196 -3.73047 -5.97036 0
M  V30 3701 C 596.486 -2.58828 -5.25741 0
M  V30 3702 N 596.536 -2.68068 -3.77503 0
M  V30 3703 C 596.456 -3.80474 -2.99159 0
M  V30 3704 N 596.526 -3.55622 -1.71925 0
M  V30 3705 C 596.676 -2.1832 -1.65733 0
M  V30 3706 C 596.806 -1.28842 -0.572777 0
M  V30 3707 N 596.816 -1.66875 0.70098 0
M  V30 3708 N 596.926 0.016788 -0.859836 0
M  V30 3709 C 596.916 0.398145 -2.13316 0
M  V30 3710 N 596.796 -0.328224 -3.22333 0
M  V30 3711 C 596.676 -1.62992 -2.90383 0
M  V30 3712 H 593.698 -5.40394 -6.8003 0
M  V30 3713 H 593.426 -4.41741 -5.32532 0
M  V30 3714 H 594.294 -3.26371 -7.47889 0
M  V30 3715 H 596.949 -1.64007 -5.56746 0
M  V30 3716 H 597.229 -4.63439 -5.3432 0
M  V30 3717 H 598.22 -3.44776 -6.25925 0
M  V30 3718 H 596.386 -4.96707 -7.57347 0
M  V30 3719 H 596.345 -4.8089 -3.39924 0
M  V30 3720 H 596.726 -2.66547 0.941919 0
M  V30 3721 H 596.915 -0.965341 1.44766 0
M  V30 3722 H 597.023 1.46427 -2.29697 0
M  V30 3723 P 598.256 -2.75334 -8.47391 0
M  V30 3724 O 598.476 -2.44595 -9.90239 0
M  V30 3725 O 599.046 -3.87732 -7.92204 0
M  V30 3726 O 598.506 -1.4459 -7.59357 0
M  V30 3727 C 597.566 -0.347608 -7.69215 0
M  V30 3728 C 598.296 0.96767 -7.52806 0
M  V30 3729 O 598.506 1.21036 -6.1011 0
M  V30 3730 C 599.696 1.04544 -8.13308 0
M  V30 3731 O 600.086 2.38311 -8.41922 0
M  V30 3732 C 600.576 0.491279 -7.02284 0
M  V30 3733 C 599.866 0.996264 -5.77469 0
M  V30 3734 N 599.916 0.0501808 -4.62873 0
M  V30 3735 C 600.066 0.578037 -3.3505 0
M  V30 3736 O 600.156 1.8073 -3.21711 0
M  V30 3737 N 600.116 -0.468541 -2.263 0
M  V30 3738 C 600.016 -1.59186 -2.47176 0
M  V30 3739 N 600.066 -2.37626 -1.40392 0
M  V30 3740 C 599.866 -2.16203 -3.77467 0
M  V30 3741 C 599.816 -1.29324 -4.8195 0
M  V30 3742 H 597.076 -0.374679 -8.67591 0
M  V30 3743 H 596.807 -0.443421 -6.90177 0
M  V30 3744 H 597.674 1.75559 -7.96891 0
M  V30 3745 H 600.329 1.94529 -5.46723 0
M  V30 3746 H 600.608 -0.608651 -7.04676 0
M  V30 3747 H 601.6 0.889672 -7.08939 0
M  V30 3748 H 599.766 0.43308 -9.04564 0
M  V30 3749 H 599.694 -1.67758 -5.83046 0
M  V30 3750 H 599.796 -3.23869 -3.92281 0
M  V30 3751 H 600.184 -1.96317 -0.467202 0
M  V30 3752 H 599.987 -3.39693 -1.51142 0
M  V30 3753 P 601.636 2.75334 -8.47391 0
M  V30 3754 O 601.856 3.84128 -9.44797 0
M  V30 3755 O 602.426 1.51947 -8.68712 0
M  V30 3756 O 601.886 3.29363 -6.99321 0
M  V30 3757 C 600.946 4.24011 -6.4274 0
M  V30 3758 C 601.676 5.20775 -5.52155 0
M  V30 3759 O 601.886 4.56534 -4.22446 0
M  V30 3760 C 603.076 5.62629 -5.96531 0
M  V30 3761 O 603.466 6.87667 -5.41053 0
M  V30 3762 C 603.956 4.52537 -5.39283 0
M  V30 3763 C 603.246 4.20027 -4.08623 0
M  V30 3764 N 603.296 2.76189 -3.71603 0
M  V30 3765 H 600.457 4.797 -7.24003 0
M  V30 3766 H 600.187 3.69856 -5.84513 0
M  V30 3767 H 601.054 6.10356 -5.41441 0
M  V30 3768 P 605.016 7.20834 -5.23717 0
M  V30 3769 O 605.236 8.66104 -5.38572 0
M  V30 3770 O 605.806 6.33544 -6.1349 0
M  V30 3771 O 605.266 6.7751 -3.72168 0
M  V30 3772 C 604.326 7.20825 -2.7076 0
M  V30 3773 C 605.056 7.45864 -1.40599 0
M  V30 3774 O 605.266 6.17651 -0.734225 0
M  V30 3775 C 606.456 8.05808 -1.51899 0
M  V30 3776 O 606.846 8.74358 -0.335205 0
M  V30 3777 C 607.336 6.83093 -1.70294 0
M  V30 3778 C 606.626 5.79992 -0.836974 0
M  V30 3779 N 606.676 4.41864 -1.38293 0
M  V30 3780 H 603.837 8.13644 -3.0377 0
M  V30 3781 H 603.567 6.42788 -2.55485 0
M  V30 3782 H 604.434 8.12039 -0.792769 0
M  V30 3783 P 608.396 8.91 4.01252e-12 0
M  V30 3784 O 608.616 10.1726 0.733694 0
M  V30 3785 O 609.186 8.73148 -1.23936 0
M  V30 3786 O 608.646 7.66872 0.971405 0
M  V30 3787 C 607.706 7.42309 2.04641 0
M  V30 3788 C 608.436 6.86059 3.24661 0
M  V30 3789 O 608.646 5.42847 3.03646 0
M  V30 3790 C 609.836 7.41196 3.50753 0
M  V30 3791 O 610.226 7.27073 4.86816 0
M  V30 3792 C 610.716 6.5273 2.63741 0
M  V30 3793 C 610.006 5.1842 2.73198 0
M  V30 3794 N 610.056 4.38762 1.4784 0
M  V30 3795 H 607.217 8.36803 2.32493 0
M  V30 3796 H 606.947 6.70197 1.71129 0
M  V30 3797 H 607.814 7.03551 4.13168 0
M  V30 3798 P 611.776 7.20834 5.23717 0
M  V30 3799 O 611.996 7.79853 6.57286 0
M  V30 3800 O 612.566 7.79239 4.12957 0
M  V30 3801 O 612.026 5.63315 5.29344 0
M  V30 3802 C 611.086 4.80255 6.01876 0
M  V30 3803 C 611.816 3.64202 6.65911 0
M  V30 3804 O 612.026 2.60694 5.64732 0
M  V30 3805 C 613.216 3.93473 7.1943 0
M  V30 3806 O 613.606 3.02071 8.21205 0
M  V30 3807 C 614.096 3.73047 5.97036 0
M  V30 3808 C 613.386 2.58828 5.25741 0
M  V30 3809 N 613.436 2.68068 3.77503 0
M  V30 3810 C 613.356 3.79715 2.96723 0
M  V30 3811 N 613.436 3.5377 1.68852 0
M  V30 3812 C 613.576 2.15054 1.63254 0
M  V30 3813 C 613.706 1.28964 0.518571 0
M  V30 3814 N 613.826 -0.0538097 0.918425 0
M  V30 3815 C 613.826 -0.494275 2.22578 0
M  V30 3816 N 613.956 -1.81086 2.40434 0
M  V30 3817 N 613.696 0.313645 3.27502 0
M  V30 3818 C 613.576 1.61829 2.91033 0
M  V30 3819 H 610.597 5.40332 6.79951 0
M  V30 3820 H 610.327 4.41613 5.32378 0
M  V30 3821 H 611.194 3.26331 7.47797 0
M  V30 3822 P 615.156 2.75334 8.47391 0
M  V30 3823 O 615.376 2.44619 9.90336 0
M  V30 3824 O 615.946 3.87776 7.92294 0
M  V30 3825 O 615.406 1.4459 7.59357 0
M  V30 3826 C 614.466 0.347653 7.69315 0
M  V30 3827 C 615.196 -0.96767 7.52806 0
M  V30 3828 O 615.406 -1.21055 6.10208 0
M  V30 3829 C 616.596 -1.04557 8.13408 0
M  V30 3830 O 616.986 -2.38311 8.41922 0
M  V30 3831 C 617.476 -0.491279 7.02284 0
M  V30 3832 C 616.766 -0.996264 5.77469 0
M  V30 3833 N 616.816 -0.0501916 4.62973 0
M  V30 3834 C 616.736 1.31969 4.65661 0
M  V30 3835 N 616.806 1.86649 3.48119 0
M  V30 3836 C 616.956 0.792089 2.62406 0
M  V30 3837 C 617.086 0.705684 1.2207 0
M  V30 3838 N 617.096 1.76207 0.413762 0
M  V30 3839 N 617.206 -0.518981 0.685754 0
M  V30 3840 C 617.196 -1.57595 1.49174 0
M  V30 3841 N 617.076 -1.62909 2.80066 0
M  V30 3842 C 616.956 -0.388195 3.3073 0
M  V30 3843 H 613.978 0.374765 8.67791 0
M  V30 3844 H 613.706 0.443613 6.90476 0
M  V30 3845 H 614.574 -1.75559 7.96891 0
M  V30 3846 H 617.229 -1.94563 5.46818 0
M  V30 3847 H 617.509 0.608651 7.04676 0
M  V30 3848 H 618.5 -0.889796 7.09039 0
M  V30 3849 H 616.666 -0.433128 9.04664 0
M  V30 3850 H 616.625 1.89246 5.57664 0
M  V30 3851 H 617.006 2.71005 0.804694 0
M  V30 3852 H 617.195 1.63189 -0.603768 0
M  V30 3853 H 617.303 -2.53475 0.997614 0
M  V30 3854 P 618.536 -2.75334 8.47391 0
M  V30 3855 O 618.756 -3.84128 9.44797 0
M  V30 3856 O 619.326 -1.51947 8.68712 0
M  V30 3857 O 618.786 -3.29363 6.99321 0
M  V30 3858 C 617.846 -4.24011 6.4274 0
M  V30 3859 C 618.576 -5.20775 5.52155 0
M  V30 3860 O 618.786 -4.56534 4.22446 0
M  V30 3861 C 619.976 -5.62629 5.96531 0
M  V30 3862 O 620.366 -6.87667 5.41053 0
M  V30 3863 C 620.856 -4.52537 5.39283 0
M  V30 3864 C 620.146 -4.20027 4.08623 0
M  V30 3865 N 620.196 -2.76189 3.71603 0
M  V30 3866 H 617.357 -4.797 7.24003 0
M  V30 3867 H 617.087 -3.69856 5.84513 0
M  V30 3868 H 617.954 -6.10356 5.41441 0
M  V30 3869 P 621.916 -7.20834 5.23717 0
M  V30 3870 O 622.136 -8.66104 5.38572 0
M  V30 3871 O 622.706 -6.33544 6.1349 0
M  V30 3872 O 622.166 -6.7751 3.72168 0
M  V30 3873 C 621.226 -7.20825 2.7076 0
M  V30 3874 C 621.956 -7.45864 1.40599 0
M  V30 3875 O 622.166 -6.17651 0.734225 0
M  V30 3876 C 623.356 -8.05808 1.51899 0
M  V30 3877 O 623.746 -8.74358 0.335205 0
M  V30 3878 C 624.236 -6.83093 1.70294 0
M  V30 3879 C 623.526 -5.79992 0.836974 0
M  V30 3880 N 623.576 -4.41864 1.38293 0
M  V30 3881 H 620.737 -8.13644 3.0377 0
M  V30 3882 H 620.467 -6.42788 2.55485 0
M  V30 3883 H 621.334 -8.12039 0.792769 0
M  V30 3884 P 625.296 -8.91 -4.1697e-12 0
M  V30 3885 O 625.516 -10.1726 -0.733694 0
M  V30 3886 O 626.086 -8.73148 1.23936 0
M  V30 3887 O 625.546 -7.66872 -0.971405 0
M  V30 3888 C 624.606 -7.42309 -2.04641 0
M  V30 3889 C 625.336 -6.86059 -3.24661 0
M  V30 3890 O 625.546 -5.42847 -3.03646 0
M  V30 3891 C 626.736 -7.41196 -3.50753 0
M  V30 3892 O 627.126 -7.27073 -4.86816 0
M  V30 3893 C 627.616 -6.5273 -2.63741 0
M  V30 3894 C 626.906 -5.1842 -2.73198 0
M  V30 3895 N 626.956 -4.38762 -1.4784 0
M  V30 3896 H 624.117 -8.36803 -2.32493 0
M  V30 3897 H 623.847 -6.70197 -1.71129 0
M  V30 3898 H 624.714 -7.03551 -4.13168 0
M  V30 3899 P 628.676 -7.20834 -5.23717 0
M  V30 3900 O 628.896 -7.79853 -6.57286 0
M  V30 3901 O 629.466 -7.79239 -4.12957 0
M  V30 3902 O 628.926 -5.63315 -5.29344 0
M  V30 3903 C 627.986 -4.80255 -6.01876 0
M  V30 3904 C 628.716 -3.64202 -6.65911 0
M  V30 3905 O 628.926 -2.60694 -5.64732 0
M  V30 3906 C 630.116 -3.93473 -7.1943 0
M  V30 3907 O 630.506 -3.02071 -8.21205 0
M  V30 3908 C 630.996 -3.73047 -5.97036 0
M  V30 3909 C 630.286 -2.58828 -5.25741 0
M  V30 3910 N 630.336 -2.68068 -3.77503 0
M  V30 3911 H 627.497 -5.40332 -6.79951 0
M  V30 3912 H 627.227 -4.41613 -5.32378 0
M  V30 3913 H 628.094 -3.26331 -7.47797 0
M  V30 3914 P 632.056 -2.75334 -8.47391 0
M  V30 3915 O 632.276 -2.44571 -9.90142 0
M  V30 3916 O 632.846 -3.87688 -7.92115 0
M  V30 3917 O 632.306 -1.4459 -7.59357 0
M  V30 3918 C 631.366 -0.347608 -7.69215 0
M  V30 3919 C 632.096 0.96767 -7.52806 0
M  V30 3920 O 632.306 1.21036 -6.1011 0
M  V30 3921 C 633.496 1.04544 -8.13308 0
M  V30 3922 O 633.886 2.38311 -8.41922 0
M  V30 3923 C 634.376 0.491279 -7.02284 0
M  V30 3924 C 633.666 0.996264 -5.77469 0
M  V30 3925 N 633.716 0.0501916 -4.62973 0
M  V30 3926 H 630.877 -0.374722 -8.67691 0
M  V30 3927 H 630.607 -0.443485 -6.90277 0
M  V30 3928 H 631.474 1.75537 -7.96793 0
M  V30 3929 P 635.436 2.75334 -8.47391 0
M  V30 3930 O 635.656 3.84128 -9.44797 0
M  V30 3931 O 636.226 1.51947 -8.68712 0
M  V30 3932 O 635.686 3.29363 -6.99321 0
M  V30 3933 C 634.746 4.24011 -6.4274 0
M  V30 3934 C 635.476 5.20775 -5.52155 0
M  V30 3935 O 635.686 4.56534 -4.22446 0
M  V30 3936 C 636.876 5.62629 -5.96531 0
M  V30 3937 O 637.266 6.87667 -5.41053 0
M  V30 3938 C 637.756 4.52537 -5.39283 0
M  V30 3939 C 637.046 4.20027 -4.08623 0
M  V30 3940 N 637.096 2.76189 -3.71603 0
M  V30 3941 C 637.016 1.64862 -4.52822 0
M  V30 3942 N 637.096 0.512671 -3.88633 0
M  V30 3943 C 637.236 0.888083 -2.54977 0
M  V30 3944 C 637.366 0.094668 -1.38677 0
M  V30 3945 O 637.386 -1.13053 -1.28163 0
M  V30 3946 N 637.486 0.890102 -0.232633 0
M  V30 3947 C 637.486 2.26958 -0.21772 0
M  V30 3948 N 637.616 2.84626 0.97925 0
M  V30 3949 N 637.356 3.0178 -1.31033 0
M  V30 3950 C 637.236 2.26781 -2.43843 0
M  V30 3951 H 634.257 4.797 -7.24003 0
M  V30 3952 H 633.987 3.69856 -5.84513 0
M  V30 3953 H 634.854 6.10356 -5.41441 0
M  V30 3954 H 637.509 4.79061 -3.27488 0
M  V30 3955 H 637.788 3.64906 -6.05785 0
M  V30 3956 H 638.78 4.8868 -5.2125 0
M  V30 3957 H 636.946 5.66726 -7.06352 0
M  V30 3958 H 636.897 1.71169 -5.60966 0
M  V30 3959 H 637.579 0.419134 0.644739 0
M  V30 3960 H 637.616 3.87332 1.06098 0
M  V30 3961 H 637.717 2.26417 1.82483 0
M  V30 3962 P 638.816 7.20834 -5.23717 0
M  V30 3963 O 639.036 8.66104 -5.38572 0
M  V30 3964 O 639.606 6.33544 -6.1349 0
M  V30 3965 O 639.066 6.7751 -3.72168 0
M  V30 3966 C 638.126 7.20825 -2.7076 0
M  V30 3967 C 638.856 7.45864 -1.40599 0
M  V30 3968 O 639.066 6.17651 -0.734225 0
M  V30 3969 C 640.256 8.05808 -1.51899 0
M  V30 3970 O 640.646 8.74358 -0.335205 0
M  V30 3971 C 641.136 6.83093 -1.70294 0
M  V30 3972 C 640.426 5.79992 -0.836974 0
M  V30 3973 N 640.476 4.41864 -1.38293 0
M  V30 3974 H 637.637 8.13644 -3.0377 0
M  V30 3975 H 637.367 6.42788 -2.55485 0
M  V30 3976 H 638.234 8.12039 -0.792769 0
M  V30 3977 P 642.196 8.91 4.32688e-12 0
M  V30 3978 O 642.416 10.1726 0.733694 0
M  V30 3979 O 642.986 8.73148 -1.23936 0
M  V30 3980 O 642.446 7.66872 0.971405 0
M  V30 3981 C 641.506 7.42309 2.04641 0
M  V30 3982 C 642.236 6.86059 3.24661 0
M  V30 3983 O 642.446 5.42847 3.03646 0
M  V30 3984 C 643.636 7.41196 3.50753 0
M  V30 3985 O 644.026 7.27073 4.86816 0
M  V30 3986 C 644.516 6.5273 2.63741 0
M  V30 3987 C 643.806 5.1842 2.73198 0
M  V30 3988 N 643.856 4.38762 1.4784 0
M  V30 3989 H 641.017 8.36803 2.32493 0
M  V30 3990 H 640.747 6.70197 1.71129 0
M  V30 3991 H 641.614 7.03551 4.13168 0
M  V30 3992 P 645.576 7.20834 5.23717 0
M  V30 3993 O 645.796 7.7993 6.57351 0
M  V30 3994 O 646.366 7.79328 4.13004 0
M  V30 3995 O 645.826 5.63315 5.29344 0
M  V30 3996 C 644.886 4.80193 6.01798 0
M  V30 3997 C 645.616 3.64202 6.65911 0
M  V30 3998 O 645.826 2.60694 5.64732 0
M  V30 3999 C 647.016 3.93473 7.1943 0
M  V30 4000 O 647.406 3.02071 8.21205 0
M  V30 4001 C 647.896 3.73047 5.97036 0
M  V30 4002 C 647.186 2.58828 5.25741 0
M  V30 4003 N 647.236 2.6801 3.77422 0
M  V30 4004 C 647.386 1.50443 3.07133 0
M  V30 4005 O 647.476 0.419406 3.61576 0
M  V30 4006 N 647.426 1.6403 1.69677 0
M  V30 4007 C 647.336 2.81206 0.986255 0
M  V30 4008 O 647.386 2.80892 -0.249754 0
M  V30 4009 C 647.186 3.99158 1.80325 0
M  V30 4010 C 647.076 5.29309 1.06921 0
M  V30 4011 C 647.136 3.89779 3.1476 0
M  V30 4012 H 644.396 5.40332 6.79951 0
M  V30 4013 H 644.127 4.41549 5.32301 0
M  V30 4014 H 644.994 3.26331 7.47797 0
M  V30 4015 H 647.649 1.6395 5.56554 0
M  V30 4016 H 647.928 4.63439 5.3432 0
M  V30 4017 H 648.92 3.44728 6.25838 0
M  V30 4018 H 647.086 4.96652 7.57263 0
M  V30 4019 H 647.015 4.80159 3.74441 0
M  V30 4020 H 648.045 5.81459 1.09608 0
M  V30 4021 H 646.308 5.9187 1.54487 0
M  V30 4022 H 646.796 5.10095 0.0220288 0
M  V30 4023 H 647.532 0.798962 1.16664 0
M  V30 4024 P 648.956 2.75334 8.47391 0
M  V30 4025 O 649.176 2.44619 9.90336 0
M  V30 4026 O 649.746 3.87776 7.92294 0
M  V30 4027 O 649.206 1.4459 7.59357 0
M  V30 4028 C 648.266 0.347653 7.69315 0
M  V30 4029 C 648.996 -0.96767 7.52806 0
M  V30 4030 O 649.206 -1.21055 6.10208 0
M  V30 4031 C 650.396 -1.04557 8.13408 0
M  V30 4032 O 650.786 -2.38311 8.41922 0
M  V30 4033 C 651.276 -0.491279 7.02284 0
M  V30 4034 C 650.566 -0.996264 5.77469 0
M  V30 4035 N 650.616 -0.0501916 4.62973 0
M  V30 4036 H 647.778 0.374765 8.67791 0
M  V30 4037 H 647.506 0.443613 6.90476 0
M  V30 4038 H 648.374 -1.75559 7.96891 0
M  V30 4039 H 651.029 -1.94563 5.46818 0
M  V30 4040 H 651.309 0.608651 7.04676 0
M  V30 4041 H 652.3 -0.889796 7.09039 0
M  V30 4042 H 650.466 -0.433128 9.04664 0
M  V30 4043 P 652.336 -2.75334 8.47391 0
M  V30 4044 O 652.556 -3.84128 9.44797 0
M  V30 4045 O 653.126 -1.51947 8.68712 0
M  V30 4046 O 652.586 -3.29363 6.99321 0
M  V30 4047 C 651.646 -4.24011 6.4274 0
M  V30 4048 C 652.376 -5.20775 5.52155 0
M  V30 4049 O 652.586 -4.56534 4.22446 0
M  V30 4050 C 653.776 -5.62629 5.96531 0
M  V30 4051 O 654.166 -6.87667 5.41053 0
M  V30 4052 C 654.656 -4.52537 5.39283 0
M  V30 4053 C 653.946 -4.20027 4.08623 0
M  V30 4054 N 653.996 -2.76189 3.71603 0
M  V30 4055 C 653.916 -1.64862 4.52822 0
M  V30 4056 N 653.996 -0.512671 3.88633 0
M  V30 4057 C 654.136 -0.888083 2.54977 0
M  V30 4058 C 654.266 -0.094668 1.38677 0
M  V30 4059 N 654.386 -0.890102 0.232633 0
M  V30 4060 C 654.386 -2.26958 0.21772 0
M  V30 4061 N 654.516 -2.84626 -0.97925 0
M  V30 4062 N 654.256 -3.0178 1.31033 0
M  V30 4063 C 654.136 -2.26781 2.43843 0
M  V30 4064 H 651.157 -4.797 7.24003 0
M  V30 4065 H 650.887 -3.69856 5.84513 0
M  V30 4066 H 651.754 -6.10356 5.41441 0
M  V30 4067 P 655.716 -7.20834 5.23717 0
M  V30 4068 O 655.936 -8.66104 5.38572 0
M  V30 4069 O 656.506 -6.33544 6.1349 0
M  V30 4070 O 655.966 -6.7751 3.72168 0
M  V30 4071 C 655.026 -7.20825 2.7076 0
M  V30 4072 C 655.756 -7.45864 1.40599 0
M  V30 4073 O 655.966 -6.17651 0.734225 0
M  V30 4074 C 657.156 -8.05808 1.51899 0
M  V30 4075 O 657.546 -8.74358 0.335205 0
M  V30 4076 C 658.036 -6.83093 1.70294 0
M  V30 4077 C 657.326 -5.79992 0.836974 0
M  V30 4078 N 657.376 -4.41864 1.38293 0
M  V30 4079 H 654.537 -8.13644 3.0377 0
M  V30 4080 H 654.267 -6.42788 2.55485 0
M  V30 4081 H 655.134 -8.12039 0.792769 0
M  V30 4082 P 659.096 -8.91 -4.48406e-12 0
M  V30 4083 O 659.316 -10.1726 -0.733694 0
M  V30 4084 O 659.886 -8.73148 1.23936 0
M  V30 4085 O 659.346 -7.66872 -0.971405 0
M  V30 4086 C 658.406 -7.42309 -2.04641 0
M  V30 4087 C 659.136 -6.86059 -3.24661 0
M  V30 4088 O 659.346 -5.42847 -3.03646 0
M  V30 4089 C 660.536 -7.41196 -3.50753 0
M  V30 4090 O 660.926 -7.27073 -4.86816 0
M  V30 4091 C 661.416 -6.5273 -2.63741 0
M  V30 4092 C 660.706 -5.1842 -2.73198 0
M  V30 4093 N 660.756 -4.38762 -1.4784 0
M  V30 4094 H 657.917 -8.36803 -2.32493 0
M  V30 4095 H 657.647 -6.70197 -1.71129 0
M  V30 4096 H 658.514 -7.03551 -4.13168 0
M  V30 4097 P 662.476 -7.20834 -5.23717 0
M  V30 4098 O 662.696 -7.79853 -6.57286 0
M  V30 4099 O 663.266 -7.79239 -4.12957 0
M  V30 4100 O 662.726 -5.63315 -5.29344 0
M  V30 4101 C 661.786 -4.80255 -6.01876 0
M  V30 4102 C 662.516 -3.64202 -6.65911 0
M  V30 4103 O 662.726 -2.60694 -5.64732 0
M  V30 4104 C 663.916 -3.93473 -7.1943 0
M  V30 4105 O 664.306 -3.02071 -8.21205 0
M  V30 4106 C 664.796 -3.73047 -5.97036 0
M  V30 4107 C 664.086 -2.58828 -5.25741 0
M  V30 4108 N 664.136 -2.68068 -3.77503 0
M  V30 4109 C 664.056 -3.79715 -2.96723 0
M  V30 4110 N 664.136 -3.5377 -1.68852 0
M  V30 4111 C 664.276 -2.15054 -1.63254 0
M  V30 4112 C 664.406 -1.28964 -0.518571 0
M  V30 4113 N 664.526 0.0538097 -0.918425 0
M  V30 4114 C 664.526 0.494275 -2.22578 0
M  V30 4115 N 664.656 1.81086 -2.40434 0
M  V30 4116 N 664.396 -0.313645 -3.27502 0
M  V30 4117 C 664.276 -1.61829 -2.91033 0
M  V30 4118 H 661.297 -5.40332 -6.79951 0
M  V30 4119 H 661.027 -4.41613 -5.32378 0
M  V30 4120 H 661.894 -3.26331 -7.47797 0
M  V30 4121 P 665.856 -2.75334 -8.47391 0
M  V30 4122 O 666.076 -2.44571 -9.90142 0
M  V30 4123 O 666.646 -3.87688 -7.92115 0
M  V30 4124 O 666.106 -1.4459 -7.59357 0
M  V30 4125 C 665.166 -0.347608 -7.69215 0
M  V30 4126 C 665.896 0.96767 -7.52806 0
M  V30 4127 O 666.106 1.21036 -6.1011 0
M  V30 4128 C 667.296 1.04544 -8.13308 0
M  V30 4129 O 667.686 2.38311 -8.41922 0
M  V30 4130 C 668.176 0.491279 -7.02284 0
M  V30 4131 C 667.466 0.996264 -5.77469 0
M  V30 4132 N 667.516 0.0501916 -4.62973 0
M  V30 4133 H 664.677 -0.374722 -8.67691 0
M  V30 4134 H 664.407 -0.443485 -6.90277 0
M  V30 4135 H 665.274 1.75537 -7.96793 0
M  V30 4136 P 669.236 2.75334 -8.47391 0
M  V30 4137 O 669.456 3.84166 -9.4489 0
M  V30 4138 O 670.026 1.51964 -8.6881 0
M  V30 4139 O 669.486 3.29363 -6.99321 0
M  V30 4140 C 668.546 4.23956 -6.42656 0
M  V30 4141 C 669.276 5.20775 -5.52155 0
M  V30 4142 O 669.486 4.56534 -4.22446 0
M  V30 4143 C 670.676 5.62629 -5.96531 0
M  V30 4144 O 671.066 6.87667 -5.41053 0
M  V30 4145 C 671.556 4.52537 -5.39283 0
M  V30 4146 C 670.846 4.20027 -4.08623 0
M  V30 4147 N 670.896 2.7613 -3.71522 0
M  V30 4148 C 671.046 2.45612 -2.37989 0
M  V30 4149 O 671.136 3.30919 -1.51621 0
M  V30 4150 N 671.086 1.10684 -2.08435 0
M  V30 4151 C 670.996 0.0690084 -2.9792 0
M  V30 4152 O 671.046 -1.10553 -2.59426 0
M  V30 4153 C 670.846 0.481522 -4.35345 0
M  V30 4154 C 670.736 -0.618778 -5.36443 0
M  V30 4155 C 670.796 1.78906 -4.67968 0
M  V30 4156 H 668.056 4.797 -7.24003 0
M  V30 4157 H 667.787 3.69802 -5.84429 0
M  V30 4158 H 668.654 6.10356 -5.41441 0
M  V30 4159 H 671.309 4.78651 -3.27911 0
M  V30 4160 H 671.588 3.64957 -6.05871 0
M  V30 4161 H 672.58 4.8868 -5.2125 0
M  V30 4162 H 670.746 5.66726 -7.06352 0
M  V30 4163 H 670.675 2.07737 -5.72367 0
M  V30 4164 H 671.705 -0.754375 -5.86871 0
M  V30 4165 H 669.968 -0.359721 -6.10641 0
M  V30 4166 H 670.456 -1.55533 -4.8581 0
M  V30 4167 H 671.192 0.862651 -1.12037 0
M  V30 4168 P 672.616 7.20834 -5.23717 0
M  V30 4169 O 672.836 8.66104 -5.38572 0
M  V30 4170 O 673.406 6.33544 -6.1349 0
M  V30 4171 O 672.866 6.7751 -3.72168 0
M  V30 4172 C 671.926 7.20825 -2.7076 0
M  V30 4173 C 672.656 7.45864 -1.40599 0
M  V30 4174 O 672.866 6.17651 -0.734225 0
M  V30 4175 C 674.056 8.05808 -1.51899 0
M  V30 4176 O 674.446 8.74358 -0.335205 0
M  V30 4177 C 674.936 6.83093 -1.70294 0
M  V30 4178 C 674.226 5.79992 -0.836974 0
M  V30 4179 N 674.276 4.41864 -1.38293 0
M  V30 4180 H 671.437 8.13644 -3.0377 0
M  V30 4181 H 671.167 6.42788 -2.55485 0
M  V30 4182 H 672.034 8.12039 -0.792769 0
M  V30 4183 P 675.996 8.91 4.64125e-12 0
M  V30 4184 O 676.216 10.1726 0.733694 0
M  V30 4185 O 676.786 8.73148 -1.23936 0
M  V30 4186 O 676.246 7.66872 0.971405 0
M  V30 4187 C 675.306 7.42309 2.04641 0
M  V30 4188 C 676.036 6.86059 3.24661 0
M  V30 4189 O 676.246 5.42847 3.03646 0
M  V30 4190 C 677.436 7.41196 3.50753 0
M  V30 4191 O 677.826 7.27073 4.86816 0
M  V30 4192 C 678.316 6.5273 2.63741 0
M  V30 4193 C 677.606 5.1842 2.73198 0
M  V30 4194 N 677.656 4.38762 1.4784 0
M  V30 4195 C 677.576 4.81605 0.168631 0
M  V30 4196 N 677.656 3.85454 -0.713363 0
M  V30 4197 C 677.796 2.6994 0.0566958 0
M  V30 4198 C 677.926 1.34815 -0.338502 0
M  V30 4199 N 678.046 0.496304 0.77465 0
M  V30 4200 C 678.046 0.908403 2.09122 0
M  V30 4201 N 678.176 -0.0517805 3.00955 0
M  V30 4202 N 677.916 2.17875 2.46519 0
M  V30 4203 C 677.796 3.01988 1.4033 0
M  V30 4204 H 674.817 8.36803 2.32493 0
M  V30 4205 H 674.547 6.70197 1.71129 0
M  V30 4206 H 675.414 7.03551 4.13168 0
M  V30 4207 P 679.376 7.20834 5.23717 0
M  V30 4208 O 679.596 7.79853 6.57286 0
M  V30 4209 O 680.166 7.79239 4.12957 0
M  V30 4210 O 679.626 5.63315 5.29344 0
M  V30 4211 C 678.686 4.80255 6.01876 0
M  V30 4212 C 679.416 3.64202 6.65911 0
M  V30 4213 O 679.626 2.60694 5.64732 0
M  V30 4214 C 680.816 3.93473 7.1943 0
M  V30 4215 O 681.206 3.02071 8.21205 0
M  V30 4216 C 681.696 3.73047 5.97036 0
M  V30 4217 C 680.986 2.58828 5.25741 0
M  V30 4218 N 681.036 2.68068 3.77503 0
M  V30 4219 H 678.197 5.40332 6.79951 0
M  V30 4220 H 677.927 4.41613 5.32378 0
M  V30 4221 H 678.794 3.26331 7.47797 0
M  V30 4222 P 682.756 2.75334 8.47391 0
M  V30 4223 O 682.976 2.44571 9.90142 0
M  V30 4224 O 683.546 3.87688 7.92115 0
M  V30 4225 O 683.006 1.4459 7.59357 0
M  V30 4226 C 682.066 0.347608 7.69215 0
M  V30 4227 C 682.796 -0.96767 7.52806 0
M  V30 4228 O 683.006 -1.21036 6.1011 0
M  V30 4229 C 684.196 -1.04544 8.13308 0
M  V30 4230 O 684.586 -2.38311 8.41922 0
M  V30 4231 C 685.076 -0.491279 7.02284 0
M  V30 4232 C 684.366 -0.996264 5.77469 0
M  V30 4233 N 684.416 -0.0501916 4.62973 0
M  V30 4234 C 684.336 1.32786 4.63244 0
M  V30 4235 N 684.416 1.86957 3.44545 0
M  V30 4236 C 684.556 0.780241 2.58481 0
M  V30 4237 C 684.686 0.738536 1.17757 0
M  V30 4238 O 684.706 1.66794 0.372349 0
M  V30 4239 N 684.806 -0.58337 0.711393 0
M  V30 4240 C 684.806 -1.70816 1.51017 0
M  V30 4241 N 684.936 -2.87826 0.880757 0
M  V30 4242 N 684.676 -1.67126 2.8339 0
M  V30 4243 C 684.556 -0.401421 3.30572 0
M  V30 4244 H 681.577 0.374722 8.67691 0
M  V30 4245 H 681.307 0.443485 6.90277 0
M  V30 4246 H 682.174 -1.75537 7.96793 0
M  V30 4247 H 684.829 -1.95076 5.46529 0
M  V30 4248 H 685.108 0.608565 7.04577 0
M  V30 4249 H 686.1 -0.889672 7.08939 0
M  V30 4250 H 684.266 -0.43308 9.04564 0
M  V30 4251 H 684.217 1.91249 5.54442 0
M  V30 4252 H 684.899 -0.718054 -0.275244 0
M  V30 4253 H 684.936 -3.75721 1.41832 0
M  V30 4254 H 685.037 -2.90436 -0.145468 0
M  V30 4255 P 686.136 -2.75334 8.47391 0
M  V30 4256 O 686.356 -3.84166 9.4489 0
M  V30 4257 O 686.926 -1.51964 8.6881 0
M  V30 4258 O 686.386 -3.29363 6.99321 0
M  V30 4259 C 685.446 -4.23956 6.42656 0
M  V30 4260 C 686.176 -5.20775 5.52155 0
M  V30 4261 O 686.386 -4.56534 4.22446 0
M  V30 4262 C 687.576 -5.62629 5.96531 0
M  V30 4263 O 687.966 -6.87667 5.41053 0
M  V30 4264 C 688.456 -4.52537 5.39283 0
M  V30 4265 C 687.746 -4.20027 4.08623 0
M  V30 4266 N 687.796 -2.7613 3.71522 0
M  V30 4267 C 687.946 -2.45612 2.37989 0
M  V30 4268 O 688.036 -3.30919 1.51621 0
M  V30 4269 N 687.986 -1.10684 2.08435 0
M  V30 4270 C 687.896 -0.0690084 2.9792 0
M  V30 4271 O 687.946 1.10553 2.59426 0
M  V30 4272 C 687.746 -0.481522 4.35345 0
M  V30 4273 C 687.636 0.618778 5.36443 0
M  V30 4274 C 687.696 -1.78906 4.67968 0
M  V30 4275 H 684.956 -4.797 7.24003 0
M  V30 4276 H 684.687 -3.69802 5.84429 0
M  V30 4277 H 685.554 -6.10356 5.41441 0
M  V30 4278 H 688.209 -4.78651 3.27911 0
M  V30 4279 H 688.488 -3.64957 6.05871 0
M  V30 4280 H 689.48 -4.8868 5.2125 0
M  V30 4281 H 687.646 -5.66726 7.06352 0
M  V30 4282 H 687.575 -2.07737 5.72367 0
M  V30 4283 H 688.605 0.754375 5.86871 0
M  V30 4284 H 686.868 0.359721 6.10641 0
M  V30 4285 H 687.356 1.55533 4.8581 0
M  V30 4286 H 688.092 -0.862651 1.12037 0
M  V30 4287 P 689.516 -7.20834 5.23717 0
M  V30 4288 O 689.736 -8.66274 5.38678 0
M  V30 4289 O 690.306 -6.33687 6.13629 0
M  V30 4290 O 689.766 -6.7751 3.72168 0
M  V30 4291 C 688.826 -7.20919 2.70795 0
M  V30 4292 C 689.556 -7.45864 1.40599 0
M  V30 4293 O 689.766 -6.17751 0.734343 0
M  V30 4294 C 690.956 -8.05906 1.51917 0
M  V30 4295 O 691.346 -8.74358 0.335205 0
M  V30 4296 C 691.836 -6.83093 1.70294 0
M  V30 4297 C 691.126 -5.79992 0.836974 0
M  V30 4298 N 691.176 -4.41864 1.38293 0
M  V30 4299 C 691.096 -4.02089 2.69407 0
M  V30 4300 N 691.166 -2.73403 2.85089 0
M  V30 4301 C 691.316 -2.25086 1.5642 0
M  V30 4302 C 691.446 -0.942887 1.04836 0
M  V30 4303 N 691.456 0.150999 1.80369 0
M  V30 4304 N 691.566 -0.812565 -0.28167 0
M  V30 4305 C 691.556 -1.90572 -1.03784 0
M  V30 4306 N 691.436 -3.167 -0.683905 0
M  V30 4307 C 691.316 -3.26538 0.652815 0
M  V30 4308 H 688.338 -8.13738 3.03804 0
M  V30 4309 H 688.066 -6.42974 2.55559 0
M  V30 4310 H 688.934 -8.12139 0.792866 0
M  V30 4311 H 691.589 -5.80178 -0.160643 0
M  V30 4312 H 691.869 -6.51379 2.75643 0
M  V30 4313 H 692.86 -7.01832 1.3448 0
M  V30 4314 H 691.026 -8.73771 2.38364 0
M  V30 4315 H 690.985 -4.7189 3.52311 0
M  V30 4316 H 691.366 0.0721434 2.82608 0
M  V30 4317 H 691.555 1.0785 1.36544 0
M  V30 4318 H 691.663 -1.73207 -2.10241 0
M  V30 4319 P 692.896 -8.91 -4.67181e-12 0
M  V30 4320 O 693.116 -10.1726 -0.733694 0
M  V30 4321 O 693.686 -8.73148 1.23936 0
M  V30 4322 O 693.146 -7.66872 -0.971405 0
M  V30 4323 C 692.206 -7.42309 -2.04641 0
M  V30 4324 C 692.936 -6.86059 -3.24661 0
M  V30 4325 O 693.146 -5.42847 -3.03646 0
M  V30 4326 C 694.336 -7.41196 -3.50753 0
M  V30 4327 O 694.726 -7.27073 -4.86816 0
M  V30 4328 C 695.216 -6.5273 -2.63741 0
M  V30 4329 C 694.506 -5.1842 -2.73198 0
M  V30 4330 N 694.556 -4.38762 -1.4784 0
M  V30 4331 H 691.717 -8.36803 -2.32493 0
M  V30 4332 H 691.447 -6.70197 -1.71129 0
M  V30 4333 H 692.314 -7.03551 -4.13168 0
M  V30 4334 P 696.276 -7.20834 -5.23717 0
M  V30 4335 O 696.496 -7.79853 -6.57286 0
M  V30 4336 O 697.066 -7.79239 -4.12957 0
M  V30 4337 O 696.526 -5.63315 -5.29344 0
M  V30 4338 C 695.586 -4.80255 -6.01876 0
M  V30 4339 C 696.316 -3.64202 -6.65911 0
M  V30 4340 O 696.526 -2.60694 -5.64732 0
M  V30 4341 C 697.716 -3.93473 -7.1943 0
M  V30 4342 O 698.106 -3.02071 -8.21205 0
M  V30 4343 C 698.596 -3.73047 -5.97036 0
M  V30 4344 C 697.886 -2.58828 -5.25741 0
M  V30 4345 N 697.936 -2.68068 -3.77503 0
M  V30 4346 C 697.856 -3.79715 -2.96723 0
M  V30 4347 N 697.936 -3.5377 -1.68852 0
M  V30 4348 C 698.076 -2.15054 -1.63254 0
M  V30 4349 C 698.206 -1.28964 -0.518571 0
M  V30 4350 N 698.326 0.0538097 -0.918425 0
M  V30 4351 C 698.326 0.494275 -2.22578 0
M  V30 4352 N 698.456 1.81086 -2.40434 0
M  V30 4353 N 698.196 -0.313645 -3.27502 0
M  V30 4354 C 698.076 -1.61829 -2.91033 0
M  V30 4355 H 695.097 -5.40332 -6.79951 0
M  V30 4356 H 694.827 -4.41613 -5.32378 0
M  V30 4357 H 695.694 -3.26331 -7.47797 0
M  V30 4358 P 699.656 -2.75334 -8.47391 0
M  V30 4359 O 699.876 -2.44571 -9.90142 0
M  V30 4360 O 700.446 -3.87688 -7.92115 0
M  V30 4361 O 699.906 -1.4459 -7.59357 0
M  V30 4362 C 698.966 -0.347608 -7.69215 0
M  V30 4363 C 699.696 0.96767 -7.52806 0
M  V30 4364 O 699.906 1.21036 -6.1011 0
M  V30 4365 C 701.096 1.04544 -8.13308 0
M  V30 4366 O 701.486 2.38311 -8.41922 0
M  V30 4367 C 701.976 0.491279 -7.02284 0
M  V30 4368 C 701.266 0.996264 -5.77469 0
M  V30 4369 N 701.316 0.0501916 -4.62973 0
M  V30 4370 H 698.477 -0.374722 -8.67691 0
M  V30 4371 H 698.207 -0.443485 -6.90277 0
M  V30 4372 H 699.074 1.75537 -7.96793 0
M  V30 4373 P 703.036 2.75334 -8.47391 0
M  V30 4374 O 703.256 3.84128 -9.44797 0
M  V30 4375 O 703.826 1.51947 -8.68712 0
M  V30 4376 O 703.286 3.29363 -6.99321 0
M  V30 4377 C 702.346 4.24011 -6.4274 0
M  V30 4378 C 703.076 5.20775 -5.52155 0
M  V30 4379 O 703.286 4.56534 -4.22446 0
M  V30 4380 C 704.476 5.62629 -5.96531 0
M  V30 4381 O 704.866 6.87667 -5.41053 0
M  V30 4382 C 705.356 4.52537 -5.39283 0
M  V30 4383 C 704.646 4.20027 -4.08623 0
M  V30 4384 N 704.696 2.76189 -3.71603 0
M  V30 4385 H 701.857 4.797 -7.24003 0
M  V30 4386 H 701.587 3.69856 -5.84513 0
M  V30 4387 H 702.454 6.10356 -5.41441 0
M  V30 4388 P 706.416 7.20834 -5.23717 0
M  V30 4389 O 706.636 8.66104 -5.38572 0
M  V30 4390 O 707.206 6.33544 -6.1349 0
M  V30 4391 O 706.666 6.7751 -3.72168 0
M  V30 4392 C 705.726 7.20825 -2.7076 0
M  V30 4393 C 706.456 7.45864 -1.40599 0
M  V30 4394 O 706.666 6.17651 -0.734225 0
M  V30 4395 C 707.856 8.05808 -1.51899 0
M  V30 4396 O 708.246 8.74358 -0.335205 0
M  V30 4397 C 708.736 6.83093 -1.70294 0
M  V30 4398 C 708.026 5.79992 -0.836974 0
M  V30 4399 N 708.076 4.41864 -1.38293 0
M  V30 4400 H 705.237 8.13644 -3.0377 0
M  V30 4401 H 704.967 6.42788 -2.55485 0
M  V30 4402 H 705.834 8.12039 -0.792769 0
M  V30 4403 P 709.796 8.91 4.82899e-12 0
M  V30 4404 O 710.016 10.1726 0.733694 0
M  V30 4405 O 710.586 8.73148 -1.23936 0
M  V30 4406 O 710.046 7.66872 0.971405 0
M  V30 4407 C 709.106 7.42309 2.04641 0
M  V30 4408 C 709.836 6.86059 3.24661 0
M  V30 4409 O 710.046 5.42847 3.03646 0
M  V30 4410 C 711.236 7.41196 3.50753 0
M  V30 4411 O 711.626 7.27073 4.86816 0
M  V30 4412 C 712.116 6.5273 2.63741 0
M  V30 4413 C 711.406 5.1842 2.73198 0
M  V30 4414 N 711.456 4.38762 1.4784 0
M  V30 4415 H 708.617 8.36803 2.32493 0
M  V30 4416 H 708.347 6.70197 1.71129 0
M  V30 4417 H 709.214 7.03551 4.13168 0
M  V30 4418 P 713.176 7.20834 5.23717 0
M  V30 4419 O 713.396 7.79853 6.57286 0
M  V30 4420 O 713.966 7.79239 4.12957 0
M  V30 4421 O 713.426 5.63315 5.29344 0
M  V30 4422 C 712.486 4.80255 6.01876 0
M  V30 4423 C 713.216 3.64202 6.65911 0
M  V30 4424 O 713.426 2.60694 5.64732 0
M  V30 4425 C 714.616 3.93473 7.1943 0
M  V30 4426 O 715.006 3.02071 8.21205 0
M  V30 4427 C 715.496 3.73047 5.97036 0
M  V30 4428 C 714.786 2.58828 5.25741 0
M  V30 4429 N 714.836 2.68068 3.77503 0
M  V30 4430 C 714.756 3.79715 2.96723 0
M  V30 4431 N 714.836 3.5377 1.68852 0
M  V30 4432 C 714.976 2.15054 1.63254 0
M  V30 4433 C 715.106 1.28964 0.518571 0
M  V30 4434 N 715.226 -0.0538097 0.918425 0
M  V30 4435 C 715.226 -0.494275 2.22578 0
M  V30 4436 N 715.356 -1.81086 2.40434 0
M  V30 4437 N 715.096 0.313645 3.27502 0
M  V30 4438 C 714.976 1.61829 2.91033 0
M  V30 4439 H 711.997 5.40332 6.79951 0
M  V30 4440 H 711.727 4.41613 5.32378 0
M  V30 4441 H 712.594 3.26331 7.47797 0
M  V30 4442 P 716.556 2.75334 8.47391 0
M  V30 4443 O 716.776 2.44571 9.90142 0
M  V30 4444 O 717.346 3.87688 7.92115 0
M  V30 4445 O 716.806 1.4459 7.59357 0
M  V30 4446 C 715.866 0.347608 7.69215 0
M  V30 4447 C 716.596 -0.96767 7.52806 0
M  V30 4448 O 716.806 -1.21036 6.1011 0
M  V30 4449 C 717.996 -1.04544 8.13308 0
M  V30 4450 O 718.386 -2.38311 8.41922 0
M  V30 4451 C 718.876 -0.491279 7.02284 0
M  V30 4452 C 718.166 -0.996264 5.77469 0
M  V30 4453 N 718.216 -0.0501916 4.62973 0
M  V30 4454 H 715.377 0.374722 8.67691 0
M  V30 4455 H 715.107 0.443485 6.90277 0
M  V30 4456 H 715.974 -1.75537 7.96793 0
M  V30 4457 P 719.936 -2.75334 8.47391 0
M  V30 4458 O 720.156 -3.84128 9.44797 0
M  V30 4459 O 720.726 -1.51947 8.68712 0
M  V30 4460 O 720.186 -3.29363 6.99321 0
M  V30 4461 C 719.246 -4.24011 6.4274 0
M  V30 4462 C 719.976 -5.20775 5.52155 0
M  V30 4463 O 720.186 -4.56534 4.22446 0
M  V30 4464 C 721.376 -5.62629 5.96531 0
M  V30 4465 O 721.766 -6.87667 5.41053 0
M  V30 4466 C 722.256 -4.52537 5.39283 0
M  V30 4467 C 721.546 -4.20027 4.08623 0
M  V30 4468 N 721.596 -2.76189 3.71603 0
M  V30 4469 H 718.757 -4.797 7.24003 0
M  V30 4470 H 718.487 -3.69856 5.84513 0
M  V30 4471 H 719.354 -6.10356 5.41441 0
M  V30 4472 P 723.316 -7.20834 5.23717 0
M  V30 4473 O 723.536 -8.66189 5.38625 0
M  V30 4474 O 724.106 -6.33615 6.1356 0
M  V30 4475 O 723.566 -6.7751 3.72168 0
M  V30 4476 C 722.626 -7.20825 2.7076 0
M  V30 4477 C 723.356 -7.45864 1.40599 0
M  V30 4478 O 723.566 -6.17651 0.734225 0
M  V30 4479 C 724.756 -8.05808 1.51899 0
M  V30 4480 O 725.146 -8.74358 0.335205 0
M  V30 4481 C 725.636 -6.83093 1.70294 0
M  V30 4482 C 724.926 -5.79992 0.836974 0
M  V30 4483 N 724.976 -4.41769 1.38263 0
M  V30 4484 C 725.126 -3.36514 0.485617 0
M  V30 4485 O 725.216 -3.61814 -0.724703 0
M  V30 4486 N 725.176 -2.00746 1.14492 0
M  V30 4487 C 725.076 -1.85887 2.27776 0
M  V30 4488 N 725.126 -0.600907 2.69379 0
M  V30 4489 C 724.926 -2.92182 3.22265 0
M  V30 4490 C 724.876 -4.18399 2.71925 0
M  V30 4491 H 722.136 -8.1355 3.03735 0
M  V30 4492 H 721.867 -6.42695 2.55448 0
M  V30 4493 H 722.734 -8.12139 0.792866 0
M  V30 4494 H 725.389 -5.80078 -0.160615 0
M  V30 4495 H 725.668 -6.51379 2.75643 0
M  V30 4496 H 726.66 -7.01734 1.34462 0
M  V30 4497 H 724.826 -8.73674 2.38337 0
M  V30 4498 H 724.754 -5.02669 3.39718 0
M  V30 4499 H 724.856 -2.73001 4.29239 0
M  V30 4500 H 725.244 0.162318 2.01146 0
M  V30 4501 H 725.047 -0.387742 3.69773 0
M  V30 4502 P 726.696 -8.91 -4.98617e-12 0
M  V30 4503 O 726.916 -10.1726 -0.733694 0
M  V30 4504 O 727.486 -8.73148 1.23936 0
M  V30 4505 O 726.946 -7.66872 -0.971405 0
M  V30 4506 C 726.006 -7.42309 -2.04641 0
M  V30 4507 C 726.736 -6.86059 -3.24661 0
M  V30 4508 O 726.946 -5.42847 -3.03646 0
M  V30 4509 C 728.136 -7.41196 -3.50753 0
M  V30 4510 O 728.526 -7.27073 -4.86816 0
M  V30 4511 C 729.016 -6.5273 -2.63741 0
M  V30 4512 C 728.306 -5.1842 -2.73198 0
M  V30 4513 N 728.356 -4.38762 -1.4784 0
M  V30 4514 H 725.517 -8.36803 -2.32493 0
M  V30 4515 H 725.247 -6.70197 -1.71129 0
M  V30 4516 H 726.114 -7.03551 -4.13168 0
M  V30 4517 P 730.076 -7.20834 -5.23717 0
M  V30 4518 O 730.296 -7.79853 -6.57286 0
M  V30 4519 O 730.866 -7.79239 -4.12957 0
M  V30 4520 O 730.326 -5.63315 -5.29344 0
M  V30 4521 C 729.386 -4.80255 -6.01876 0
M  V30 4522 C 730.116 -3.64202 -6.65911 0
M  V30 4523 O 730.326 -2.60694 -5.64732 0
M  V30 4524 C 731.516 -3.93473 -7.1943 0
M  V30 4525 O 731.906 -3.02071 -8.21205 0
M  V30 4526 C 732.396 -3.73047 -5.97036 0
M  V30 4527 C 731.686 -2.58828 -5.25741 0
M  V30 4528 N 731.736 -2.68068 -3.77503 0
M  V30 4529 C 731.656 -3.79715 -2.96723 0
M  V30 4530 N 731.736 -3.5377 -1.68852 0
M  V30 4531 C 731.876 -2.15054 -1.63254 0
M  V30 4532 C 732.006 -1.28964 -0.518571 0
M  V30 4533 O 732.026 -1.56826 0.679156 0
M  V30 4534 N 732.126 0.0538097 -0.918425 0
M  V30 4535 C 732.126 0.494275 -2.22578 0
M  V30 4536 N 732.256 1.81086 -2.40434 0
M  V30 4537 N 731.996 -0.313645 -3.27502 0
M  V30 4538 C 731.876 -1.61829 -2.91033 0
M  V30 4539 H 728.897 -5.40332 -6.79951 0
M  V30 4540 H 728.627 -4.41613 -5.32378 0
M  V30 4541 H 729.494 -3.26331 -7.47797 0
M  V30 4542 H 732.149 -1.63422 -5.56814 0
M  V30 4543 H 732.428 -4.63374 -5.34244 0
M  V30 4544 H 733.42 -3.44728 -6.25838 0
M  V30 4545 H 731.586 -4.96652 -7.57263 0
M  V30 4546 H 731.537 -4.80617 -3.3614 0
M  V30 4547 H 732.219 0.742702 -0.199384 0
M  V30 4548 H 732.256 2.20598 -3.35588 0
M  V30 4549 H 732.357 2.43518 -1.58945 0
M  V30 4550 P 733.456 -2.75334 -8.47391 0
M  V30 4551 O 733.676 -2.44571 -9.90142 0
M  V30 4552 O 734.246 -3.87688 -7.92115 0
M  V30 4553 O 733.706 -1.4459 -7.59357 0
M  V30 4554 C 732.766 -0.347608 -7.69215 0
M  V30 4555 C 733.496 0.96767 -7.52806 0
M  V30 4556 O 733.706 1.21036 -6.1011 0
M  V30 4557 C 734.896 1.04544 -8.13308 0
M  V30 4558 O 735.286 2.38311 -8.41922 0
M  V30 4559 C 735.776 0.491279 -7.02284 0
M  V30 4560 C 735.066 0.996264 -5.77469 0
M  V30 4561 N 735.116 0.0501916 -4.62973 0
M  V30 4562 H 732.277 -0.374722 -8.67691 0
M  V30 4563 H 732.007 -0.443485 -6.90277 0
M  V30 4564 H 732.874 1.75537 -7.96793 0
M  V30 4565 P 736.836 2.75334 -8.47391 0
M  V30 4566 O 737.056 3.84128 -9.44797 0
M  V30 4567 O 737.626 1.51947 -8.68712 0
M  V30 4568 O 737.086 3.29363 -6.99321 0
M  V30 4569 C 736.146 4.24011 -6.4274 0
M  V30 4570 C 736.876 5.20775 -5.52155 0
M  V30 4571 O 737.086 4.56534 -4.22446 0
M  V30 4572 C 738.276 5.62629 -5.96531 0
M  V30 4573 O 738.666 6.87667 -5.41053 0
M  V30 4574 C 739.156 4.52537 -5.39283 0
M  V30 4575 C 738.446 4.20027 -4.08623 0
M  V30 4576 N 738.496 2.76189 -3.71603 0
M  V30 4577 H 735.657 4.797 -7.24003 0
M  V30 4578 H 735.387 3.69856 -5.84513 0
M  V30 4579 H 736.254 6.10356 -5.41441 0
M  V30 4580 P 740.216 7.20834 -5.23717 0
M  V30 4581 O 740.436 8.66104 -5.38572 0
M  V30 4582 O 741.006 6.33544 -6.1349 0
M  V30 4583 O 740.466 6.7751 -3.72168 0
M  V30 4584 C 739.526 7.20825 -2.7076 0
M  V30 4585 C 740.256 7.45864 -1.40599 0
M  V30 4586 O 740.466 6.17651 -0.734225 0
M  V30 4587 C 741.656 8.05808 -1.51899 0
M  V30 4588 O 742.046 8.74358 -0.335205 0
M  V30 4589 C 742.536 6.83093 -1.70294 0
M  V30 4590 C 741.826 5.79992 -0.836974 0
M  V30 4591 N 741.876 4.41864 -1.38293 0
M  V30 4592 H 739.037 8.13644 -3.0377 0
M  V30 4593 H 738.767 6.42788 -2.55485 0
M  V30 4594 H 739.634 8.12039 -0.792769 0
M  V30 4595 P 743.596 8.91 5.14336e-12 0
M  V30 4596 O 743.816 10.1726 0.733694 0
M  V30 4597 O 744.386 8.73148 -1.23936 0
M  V30 4598 O 743.846 7.66872 0.971405 0
M  V30 4599 C 742.906 7.42309 2.04641 0
M  V30 4600 C 743.636 6.86059 3.24661 0
M  V30 4601 O 743.846 5.42847 3.03646 0
M  V30 4602 C 745.036 7.41196 3.50753 0
M  V30 4603 O 745.426 7.27073 4.86816 0
M  V30 4604 C 745.916 6.5273 2.63741 0
M  V30 4605 C 745.206 5.1842 2.73198 0
M  V30 4606 N 745.256 4.38762 1.4784 0
M  V30 4607 H 742.417 8.36803 2.32493 0
M  V30 4608 H 742.147 6.70197 1.71129 0
M  V30 4609 H 743.014 7.03551 4.13168 0
M  V30 4610 P 746.976 7.20834 5.23717 0
M  V30 4611 O 747.196 7.7993 6.57351 0
M  V30 4612 O 747.766 7.79328 4.13004 0
M  V30 4613 O 747.226 5.63315 5.29344 0
M  V30 4614 C 746.286 4.80255 6.01876 0
M  V30 4615 C 747.016 3.64202 6.65911 0
M  V30 4616 O 747.226 2.60694 5.64732 0
M  V30 4617 C 748.416 3.93473 7.1943 0
M  V30 4618 O 748.806 3.02071 8.21205 0
M  V30 4619 C 749.296 3.73047 5.97036 0
M  V30 4620 C 748.586 2.58828 5.25741 0
M  V30 4621 N 748.636 2.6801 3.77422 0
M  V30 4622 C 748.786 1.50173 3.05038 0
M  V30 4623 O 748.876 0.428832 3.665 0
M  V30 4624 N 748.836 1.70922 1.55541 0
M  V30 4625 C 748.736 2.7407 1.06402 0
M  V30 4626 N 748.786 2.74764 -0.260931 0
M  V30 4627 C 748.586 3.96781 1.78296 0
M  V30 4628 C 748.536 3.87909 3.13891 0
M  V30 4629 H 745.796 5.4027 6.79873 0
M  V30 4630 H 745.527 4.41549 5.32301 0
M  V30 4631 H 746.394 3.26371 7.47889 0
M  V30 4632 H 749.049 1.63978 5.5665 0
M  V30 4633 H 749.328 4.63439 5.3432 0
M  V30 4634 H 750.32 3.44728 6.25838 0
M  V30 4635 H 748.486 4.96652 7.57263 0
M  V30 4636 H 748.414 4.78425 3.73088 0
M  V30 4637 H 748.516 4.92593 1.26997 0
M  V30 4638 H 748.904 1.86285 -0.77595 0
M  V30 4639 H 748.707 3.63657 -0.773896 0
M  V30 4640 P 750.356 2.75334 8.47391 0
M  V30 4641 O 750.576 2.44571 9.90142 0
M  V30 4642 O 751.146 3.87688 7.92115 0
M  V30 4643 O 750.606 1.4459 7.59357 0
M  V30 4644 C 749.666 0.347608 7.69215 0
M  V30 4645 C 750.396 -0.96767 7.52806 0
M  V30 4646 O 750.606 -1.21036 6.1011 0
M  V30 4647 C 751.796 -1.04544 8.13308 0
M  V30 4648 O 752.186 -2.38311 8.41922 0
M  V30 4649 C 752.676 -0.491279 7.02284 0
M  V30 4650 C 751.966 -0.996264 5.77469 0
M  V30 4651 N 752.016 -0.0501916 4.62973 0
M  V30 4652 H 749.177 0.374722 8.67691 0
M  V30 4653 H 748.907 0.443485 6.90277 0
M  V30 4654 H 749.774 -1.75537 7.96793 0
M  V30 4655 P 753.736 -2.75334 8.47391 0
M  V30 4656 O 753.956 -3.84204 9.44982 0
M  V30 4657 O 754.526 -1.51982 8.68909 0
M  V30 4658 O 753.986 -3.29363 6.99321 0
M  V30 4659 C 753.046 -4.24066 6.42823 0
M  V30 4660 C 753.776 -5.20775 5.52155 0
M  V30 4661 O 753.986 -4.56607 4.22514 0
M  V30 4662 C 755.176 -5.62697 5.96604 0
M  V30 4663 O 755.566 -6.87667 5.41053 0
M  V30 4664 C 756.056 -4.52537 5.39283 0
M  V30 4665 C 755.346 -4.20027 4.08623 0
M  V30 4666 N 755.396 -2.76189 3.71603 0
M  V30 4667 C 755.316 -1.66944 4.54297 0
M  V30 4668 N 755.386 -0.536169 3.91344 0
M  V30 4669 C 755.536 -0.901569 2.58849 0
M  V30 4670 C 755.666 -0.146599 1.40236 0
M  V30 4671 N 755.676 1.18234 1.37046 0
M  V30 4672 N 755.786 -0.822941 0.249738 0
M  V30 4673 C 755.776 -2.15179 0.280525 0
M  V30 4674 N 755.656 -2.96414 1.30822 0
M  V30 4675 C 755.536 -2.25804 2.44748 0
M  V30 4676 H 752.558 -4.79756 7.24086 0
M  V30 4677 H 752.286 -3.69963 5.84682 0
M  V30 4678 H 753.154 -6.10431 5.41508 0
M  V30 4679 H 755.809 -4.78816 3.28024 0
M  V30 4680 H 756.089 -3.64957 6.05871 0
M  V30 4681 H 757.08 -4.88748 5.21323 0
M  V30 4682 H 755.246 -5.66789 7.0643 0
M  V30 4683 H 755.205 -1.74684 5.62396 0
M  V30 4684 H 755.586 1.71949 2.24394 0
M  V30 4685 H 755.775 1.67511 0.470742 0
M  V30 4686 H 755.883 -2.63704 -0.6828 0
M  V30 4687 P 757.116 -7.20834 5.23717 0
M  V30 4688 O 757.336 -8.66104 5.38572 0
M  V30 4689 O 757.906 -6.33544 6.1349 0
M  V30 4690 O 757.366 -6.7751 3.72168 0
M  V30 4691 C 756.426 -7.20825 2.7076 0
M  V30 4692 C 757.156 -7.45864 1.40599 0
M  V30 4693 O 757.366 -6.17651 0.734225 0
M  V30 4694 C 758.556 -8.05808 1.51899 0
M  V30 4695 O 758.946 -8.74358 0.335205 0
M  V30 4696 C 759.436 -6.83093 1.70294 0
M  V30 4697 C 758.726 -5.79992 0.836974 0
M  V30 4698 N 758.776 -4.41864 1.38293 0
M  V30 4699 H 755.937 -8.13644 3.0377 0
M  V30 4700 H 755.667 -6.42788 2.55485 0
M  V30 4701 H 756.534 -8.12039 0.792769 0
M  V30 4702 P 760.496 -8.91 -5.30054e-12 0
M  V30 4703 O 760.716 -10.1746 -0.733838 0
M  V30 4704 O 761.286 -8.73346 1.23964 0
M  V30 4705 O 760.746 -7.66872 -0.971405 0
M  V30 4706 C 759.806 -7.42405 -2.04668 0
M  V30 4707 C 760.536 -6.86059 -3.24661 0
M  V30 4708 O 760.746 -5.42934 -3.03695 0
M  V30 4709 C 761.936 -7.41287 -3.50796 0
M  V30 4710 O 762.326 -7.27073 -4.86816 0
M  V30 4711 C 762.816 -6.5273 -2.63741 0
M  V30 4712 C 762.106 -5.1842 -2.73198 0
M  V30 4713 N 762.156 -4.38762 -1.4784 0
M  V30 4714 C 762.076 -4.83651 -0.183876 0
M  V30 4715 N 762.146 -3.88759 0.699393 0
M  V30 4716 C 762.296 -2.7404 -0.0575568 0
M  V30 4717 C 762.426 -1.37902 0.293928 0
M  V30 4718 N 762.436 -0.938021 1.54797 0
M  V30 4719 N 762.546 -0.491817 -0.70549 0
M  V30 4720 C 762.536 -0.931735 -1.95979 0
M  V30 4721 N 762.416 -2.16017 -2.41481 0
M  V30 4722 C 762.296 -3.02547 -1.39121 0
M  V30 4723 H 759.318 -8.36899 -2.3252 0
M  V30 4724 H 759.046 -6.70391 -1.71179 0
M  V30 4725 H 759.914 -7.03638 -4.13219 0
M  V30 4726 H 762.569 -4.59931 -3.54016 0
M  V30 4727 H 762.849 -6.88995 -1.59871 0
M  V30 4728 H 763.84 -6.4684 -3.0373 0
M  V30 4729 H 762.006 -8.47002 -3.20749 0
M  V30 4730 H 761.965 -5.8885 0.0765548 0
M  V30 4731 H 762.346 -1.60276 2.32875 0
M  V30 4732 H 762.535 0.0699355 1.73859 0
M  V30 4733 H 762.643 -0.165507 -2.71897 0
M  V30 4734 P 763.875 -7.20834 -5.23717 0
M  V30 4735 O 764.095 -7.79853 -6.57286 0
M  V30 4736 O 764.665 -7.79239 -4.12957 0
M  V30 4737 O 764.125 -5.63315 -5.29344 0
M  V30 4738 C 763.185 -4.80255 -6.01876 0
M  V30 4739 C 763.915 -3.64202 -6.65911 0
M  V30 4740 O 764.125 -2.60694 -5.64732 0
M  V30 4741 C 765.315 -3.93473 -7.1943 0
M  V30 4742 O 765.705 -3.02071 -8.21205 0
M  V30 4743 C 766.195 -3.73047 -5.97036 0
M  V30 4744 C 765.485 -2.58828 -5.25741 0
M  V30 4745 N 765.535 -2.68068 -3.77503 0
M  V30 4746 H 762.696 -5.40332 -6.79951 0
M  V30 4747 H 762.426 -4.41613 -5.32378 0
M  V30 4748 H 763.293 -3.26331 -7.47797 0
M  V30 4749 P 767.255 -2.75334 -8.47391 0
M  V30 4750 O 767.475 -2.44571 -9.90142 0
M  V30 4751 O 768.045 -3.87688 -7.92115 0
M  V30 4752 O 767.505 -1.4459 -7.59357 0
M  V30 4753 C 766.565 -0.347608 -7.69215 0
M  V30 4754 C 767.295 0.96767 -7.52806 0
M  V30 4755 O 767.505 1.21036 -6.1011 0
M  V30 4756 C 768.695 1.04544 -8.13308 0
M  V30 4757 O 769.085 2.38311 -8.41922 0
M  V30 4758 C 769.575 0.491279 -7.02284 0
M  V30 4759 C 768.865 0.996264 -5.77469 0
M  V30 4760 N 768.915 0.0501916 -4.62973 0
M  V30 4761 H 766.076 -0.374722 -8.67691 0
M  V30 4762 H 765.806 -0.443485 -6.90277 0
M  V30 4763 H 766.673 1.75537 -7.96793 0
M  V30 4764 P 770.635 2.75334 -8.47391 0
M  V30 4765 O 770.855 3.84128 -9.44797 0
M  V30 4766 O 771.425 1.51947 -8.68712 0
M  V30 4767 O 770.885 3.29363 -6.99321 0
M  V30 4768 C 769.945 4.24011 -6.4274 0
M  V30 4769 C 770.675 5.20775 -5.52155 0
M  V30 4770 O 770.885 4.56534 -4.22446 0
M  V30 4771 C 772.075 5.62629 -5.96531 0
M  V30 4772 O 772.465 6.87667 -5.41053 0
M  V30 4773 C 772.955 4.52537 -5.39283 0
M  V30 4774 C 772.245 4.20027 -4.08623 0
M  V30 4775 N 772.295 2.76189 -3.71603 0
M  V30 4776 H 769.456 4.797 -7.24003 0
M  V30 4777 H 769.186 3.69856 -5.84513 0
M  V30 4778 H 770.053 6.10356 -5.41441 0
M  V30 4779 P 774.015 7.20834 -5.23717 0
M  V30 4780 O 774.235 8.66104 -5.38572 0
M  V30 4781 O 774.805 6.33544 -6.1349 0
M  V30 4782 O 774.265 6.7751 -3.72168 0
M  V30 4783 C 773.325 7.20825 -2.7076 0
M  V30 4784 C 774.055 7.45864 -1.40599 0
M  V30 4785 O 774.265 6.17651 -0.734225 0
M  V30 4786 C 775.455 8.05808 -1.51899 0
M  V30 4787 O 775.845 8.74358 -0.335205 0
M  V30 4788 C 776.335 6.83093 -1.70294 0
M  V30 4789 C 775.625 5.79992 -0.836974 0
M  V30 4790 N 775.675 4.41864 -1.38293 0
M  V30 4791 H 772.836 8.13644 -3.0377 0
M  V30 4792 H 772.566 6.42788 -2.55485 0
M  V30 4793 H 773.433 8.12039 -0.792769 0
M  V30 4794 P 777.395 8.91 5.45772e-12 0
M  V30 4795 O 777.615 10.1726 0.733694 0
M  V30 4796 O 778.185 8.73148 -1.23936 0
M  V30 4797 O 777.645 7.66872 0.971405 0
M  V30 4798 C 776.705 7.42309 2.04641 0
M  V30 4799 C 777.435 6.86059 3.24661 0
M  V30 4800 O 777.645 5.42847 3.03646 0
M  V30 4801 C 778.835 7.41196 3.50753 0
M  V30 4802 O 779.225 7.27073 4.86816 0
M  V30 4803 C 779.715 6.5273 2.63741 0
M  V30 4804 C 779.005 5.1842 2.73198 0
M  V30 4805 N 779.055 4.38762 1.4784 0
M  V30 4806 H 776.216 8.36803 2.32493 0
M  V30 4807 H 775.946 6.70197 1.71129 0
M  V30 4808 H 776.813 7.03551 4.13168 0
M  V30 4809 P 780.775 7.20834 5.23717 0
M  V30 4810 O 780.995 7.79853 6.57286 0
M  V30 4811 O 781.565 7.79239 4.12957 0
M  V30 4812 O 781.025 5.63315 5.29344 0
M  V30 4813 C 780.085 4.80255 6.01876 0
M  V30 4814 C 780.815 3.64202 6.65911 0
M  V30 4815 O 781.025 2.60694 5.64732 0
M  V30 4816 C 782.215 3.93473 7.1943 0
M  V30 4817 O 782.605 3.02071 8.21205 0
M  V30 4818 C 783.095 3.73047 5.97036 0
M  V30 4819 C 782.385 2.58828 5.25741 0
M  V30 4820 N 782.435 2.68068 3.77503 0
M  V30 4821 H 779.596 5.40332 6.79951 0
M  V30 4822 H 779.326 4.41613 5.32378 0
M  V30 4823 H 780.193 3.26331 7.47797 0
M  V30 4824 P 784.155 2.75334 8.47391 0
M  V30 4825 O 784.375 2.44571 9.90142 0
M  V30 4826 O 784.945 3.87688 7.92115 0
M  V30 4827 O 784.405 1.4459 7.59357 0
M  V30 4828 C 783.465 0.347608 7.69215 0
M  V30 4829 C 784.195 -0.96767 7.52806 0
M  V30 4830 O 784.405 -1.21036 6.1011 0
M  V30 4831 C 785.595 -1.04544 8.13308 0
M  V30 4832 O 785.985 -2.38311 8.41922 0
M  V30 4833 C 786.475 -0.491279 7.02284 0
M  V30 4834 C 785.765 -0.996264 5.77469 0
M  V30 4835 N 785.815 -0.0501916 4.62973 0
M  V30 4836 H 782.976 0.374722 8.67691 0
M  V30 4837 H 782.706 0.443485 6.90277 0
M  V30 4838 H 783.573 -1.75537 7.96793 0
M  V30 4839 P 787.535 -2.75334 8.47391 0
M  V30 4840 O 787.755 -3.84128 9.44797 0
M  V30 4841 O 788.325 -1.51947 8.68712 0
M  V30 4842 O 787.785 -3.29363 6.99321 0
M  V30 4843 C 786.845 -4.24011 6.4274 0
M  V30 4844 C 787.575 -5.20775 5.52155 0
M  V30 4845 O 787.785 -4.56534 4.22446 0
M  V30 4846 C 788.975 -5.62629 5.96531 0
M  V30 4847 O 789.365 -6.87667 5.41053 0
M  V30 4848 C 789.855 -4.52537 5.39283 0
M  V30 4849 C 789.145 -4.20027 4.08623 0
M  V30 4850 N 789.195 -2.76189 3.71603 0
M  V30 4851 C 789.115 -1.64862 4.52822 0
M  V30 4852 N 789.195 -0.512671 3.88633 0
M  V30 4853 C 789.335 -0.888083 2.54977 0
M  V30 4854 C 789.465 -0.094668 1.38677 0
M  V30 4855 N 789.585 -0.890102 0.232633 0
M  V30 4856 C 789.585 -2.26958 0.21772 0
M  V30 4857 N 789.715 -2.84626 -0.97925 0
M  V30 4858 N 789.455 -3.0178 1.31033 0
M  V30 4859 C 789.335 -2.26781 2.43843 0
M  V30 4860 H 786.356 -4.797 7.24003 0
M  V30 4861 H 786.086 -3.69856 5.84513 0
M  V30 4862 H 786.953 -6.10356 5.41441 0
M  V30 4863 P 790.915 -7.20834 5.23717 0
M  V30 4864 O 791.135 -8.66104 5.38572 0
M  V30 4865 O 791.705 -6.33544 6.1349 0
M  V30 4866 O 791.165 -6.7751 3.72168 0
M  V30 4867 C 790.225 -7.20825 2.7076 0
M  V30 4868 C 790.955 -7.45864 1.40599 0
M  V30 4869 O 791.165 -6.17651 0.734225 0
M  V30 4870 C 792.355 -8.05808 1.51899 0
M  V30 4871 O 792.745 -8.74358 0.335205 0
M  V30 4872 C 793.235 -6.83093 1.70294 0
M  V30 4873 C 792.525 -5.79992 0.836974 0
M  V30 4874 N 792.575 -4.41864 1.38293 0
M  V30 4875 H 789.736 -8.13644 3.0377 0
M  V30 4876 H 789.466 -6.42788 2.55485 0
M  V30 4877 H 790.333 -8.12039 0.792769 0
M  V30 4878 P 794.295 -8.91 -5.6149e-12 0
M  V30 4879 O 794.515 -10.1726 -0.733694 0
M  V30 4880 O 795.085 -8.73148 1.23936 0
M  V30 4881 O 794.545 -7.66872 -0.971405 0
M  V30 4882 C 793.605 -7.42309 -2.04641 0
M  V30 4883 C 794.335 -6.86059 -3.24661 0
M  V30 4884 O 794.545 -5.42847 -3.03646 0
M  V30 4885 C 795.735 -7.41196 -3.50753 0
M  V30 4886 O 796.125 -7.27073 -4.86816 0
M  V30 4887 C 796.615 -6.5273 -2.63741 0
M  V30 4888 C 795.905 -5.1842 -2.73198 0
M  V30 4889 N 795.955 -4.38762 -1.4784 0
M  V30 4890 H 793.116 -8.36803 -2.32493 0
M  V30 4891 H 792.846 -6.70197 -1.71129 0
M  V30 4892 H 793.713 -7.03551 -4.13168 0
M  V30 4893 P 797.675 -7.20834 -5.23717 0
M  V30 4894 O 797.895 -7.80006 -6.57415 0
M  V30 4895 O 798.465 -7.79416 -4.13051 0
M  V30 4896 O 797.925 -5.63315 -5.29344 0
M  V30 4897 C 796.985 -4.80318 -6.01954 0
M  V30 4898 C 797.715 -3.64202 -6.65911 0
M  V30 4899 O 797.925 -2.60736 -5.64823 0
M  V30 4900 C 799.115 -3.93521 -7.19518 0
M  V30 4901 O 799.505 -3.02071 -8.21205 0
M  V30 4902 C 799.995 -3.73047 -5.97036 0
M  V30 4903 C 799.285 -2.58828 -5.25741 0
M  V30 4904 N 799.335 -2.68068 -3.77503 0
M  V30 4905 C 799.255 -3.80474 -2.99159 0
M  V30 4906 N 799.325 -3.55622 -1.71925 0
M  V30 4907 C 799.475 -2.1832 -1.65733 0
M  V30 4908 C 799.605 -1.28842 -0.572777 0
M  V30 4909 N 799.615 -1.66875 0.70098 0
M  V30 4910 N 799.725 0.016788 -0.859836 0
M  V30 4911 C 799.715 0.398145 -2.13316 0
M  V30 4912 N 799.595 -0.328224 -3.22333 0
M  V30 4913 C 799.475 -1.62992 -2.90383 0
M  V30 4914 H 796.497 -5.40394 -6.8003 0
M  V30 4915 H 796.225 -4.41741 -5.32532 0
M  V30 4916 H 797.093 -3.26371 -7.47889 0
M  V30 4917 H 799.748 -1.64007 -5.56746 0
M  V30 4918 H 800.028 -4.63439 -5.3432 0
M  V30 4919 H 801.019 -3.44776 -6.25925 0
M  V30 4920 H 799.185 -4.96707 -7.57347 0
M  V30 4921 H 799.144 -4.8089 -3.39924 0
M  V30 4922 H 799.525 -2.66547 0.941919 0
M  V30 4923 H 799.714 -0.965341 1.44766 0
M  V30 4924 H 799.822 1.46427 -2.29697 0
M  V30 4925 P 801.055 -2.75334 -8.47391 0
M  V30 4926 O 801.275 -2.44571 -9.90142 0
M  V30 4927 O 801.845 -3.87688 -7.92115 0
M  V30 4928 O 801.305 -1.4459 -7.59357 0
M  V30 4929 C 800.365 -0.347608 -7.69215 0
M  V30 4930 C 801.095 0.96767 -7.52806 0
M  V30 4931 O 801.305 1.21036 -6.1011 0
M  V30 4932 C 802.495 1.04544 -8.13308 0
M  V30 4933 O 802.885 2.38311 -8.41922 0
M  V30 4934 C 803.375 0.491279 -7.02284 0
M  V30 4935 C 802.665 0.996264 -5.77469 0
M  V30 4936 N 802.715 0.0501916 -4.62973 0
M  V30 4937 H 799.876 -0.374722 -8.67691 0
M  V30 4938 H 799.606 -0.443485 -6.90277 0
M  V30 4939 H 800.473 1.75537 -7.96793 0
M  V30 4940 P 804.435 2.75334 -8.47391 0
M  V30 4941 O 804.655 3.84128 -9.44797 0
M  V30 4942 O 805.225 1.51947 -8.68712 0
M  V30 4943 O 804.685 3.29363 -6.99321 0
M  V30 4944 C 803.745 4.24011 -6.4274 0
M  V30 4945 C 804.475 5.20775 -5.52155 0
M  V30 4946 O 804.685 4.56534 -4.22446 0
M  V30 4947 C 805.875 5.62629 -5.96531 0
M  V30 4948 O 806.265 6.87667 -5.41053 0
M  V30 4949 C 806.755 4.52537 -5.39283 0
M  V30 4950 C 806.045 4.20027 -4.08623 0
M  V30 4951 N 806.095 2.76189 -3.71603 0
M  V30 4952 H 803.256 4.797 -7.24003 0
M  V30 4953 H 802.986 3.69856 -5.84513 0
M  V30 4954 H 803.853 6.10356 -5.41441 0
M  V30 4955 P 807.815 7.20834 -5.23717 0
M  V30 4956 O 808.035 8.66104 -5.38572 0
M  V30 4957 O 808.605 6.33544 -6.1349 0
M  V30 4958 O 808.065 6.7751 -3.72168 0
M  V30 4959 C 807.125 7.20825 -2.7076 0
M  V30 4960 C 807.855 7.45864 -1.40599 0
M  V30 4961 O 808.065 6.17651 -0.734225 0
M  V30 4962 C 809.255 8.05808 -1.51899 0
M  V30 4963 O 809.645 8.74358 -0.335205 0
M  V30 4964 C 810.135 6.83093 -1.70294 0
M  V30 4965 C 809.425 5.79992 -0.836974 0
M  V30 4966 N 809.475 4.41864 -1.38293 0
M  V30 4967 H 806.636 8.13644 -3.0377 0
M  V30 4968 H 806.366 6.42788 -2.55485 0
M  V30 4969 H 807.233 8.12039 -0.792769 0
M  V30 4970 P 811.195 8.91 5.77209e-12 0
M  V30 4971 O 811.415 10.1746 0.733838 0
M  V30 4972 O 811.985 8.73346 -1.23964 0
M  V30 4973 O 811.445 7.66872 0.971405 0
M  V30 4974 C 810.505 7.42405 2.04668 0
M  V30 4975 C 811.235 6.86059 3.24661 0
M  V30 4976 O 811.445 5.42934 3.03695 0
M  V30 4977 C 812.635 7.41287 3.50796 0
M  V30 4978 O 813.025 7.27073 4.86816 0
M  V30 4979 C 813.515 6.5273 2.63741 0
M  V30 4980 C 812.805 5.1842 2.73198 0
M  V30 4981 N 812.855 4.38762 1.4784 0
M  V30 4982 C 812.775 4.83651 0.183876 0
M  V30 4983 N 812.845 3.88759 -0.699393 0
M  V30 4984 C 812.995 2.7404 0.0575568 0
M  V30 4985 C 813.125 1.37902 -0.293928 0
M  V30 4986 N 813.135 0.938021 -1.54797 0
M  V30 4987 N 813.245 0.491817 0.70549 0
M  V30 4988 C 813.235 0.931735 1.95979 0
M  V30 4989 N 813.115 2.16017 2.41481 0
M  V30 4990 C 812.995 3.02547 1.39121 0
M  V30 4991 H 810.017 8.36899 2.3252 0
M  V30 4992 H 809.745 6.70391 1.71179 0
M  V30 4993 H 810.613 7.03638 4.13219 0
M  V30 4994 H 813.268 4.59931 3.54016 0
M  V30 4995 H 813.548 6.88995 1.59871 0
M  V30 4996 H 814.539 6.4684 3.0373 0
M  V30 4997 H 812.705 8.47002 3.20749 0
M  V30 4998 H 812.664 5.8885 -0.0765548 0
M  V30 4999 H 813.045 1.60276 -2.32875 0
M  V30 5000 H 813.234 -0.0699355 -1.73859 0
M  V30 5001 H 813.342 0.165507 2.71897 0
M  V30 5002 P 814.575 7.20834 5.23717 0
M  V30 5003 O 814.795 7.79853 6.57286 0
M  V30 5004 O 815.365 7.79239 4.12957 0
M  V30 5005 O 814.825 5.63315 5.29344 0
M  V30 5006 C 813.885 4.80255 6.01876 0
M  V30 5007 C 814.615 3.64202 6.65911 0
M  V30 5008 O 814.825 2.60694 5.64732 0
M  V30 5009 C 816.015 3.93473 7.1943 0
M  V30 5010 O 816.405 3.02071 8.21205 0
M  V30 5011 C 816.895 3.73047 5.97036 0
M  V30 5012 C 816.185 2.58828 5.25741 0
M  V30 5013 N 816.235 2.68068 3.77503 0
M  V30 5014 H 813.396 5.40332 6.79951 0
M  V30 5015 H 813.126 4.41613 5.32378 0
M  V30 5016 H 813.993 3.26331 7.47797 0
M  V30 5017 P 817.955 2.75334 8.47391 0
M  V30 5018 O 818.175 2.44619 9.90336 0
M  V30 5019 O 818.745 3.87776 7.92294 0
M  V30 5020 O 818.205 1.4459 7.59357 0
M  V30 5021 C 817.265 0.347653 7.69315 0
M  V30 5022 C 817.995 -0.96767 7.52806 0
M  V30 5023 O 818.205 -1.21055 6.10208 0
M  V30 5024 C 819.395 -1.04557 8.13408 0
M  V30 5025 O 819.785 -2.38311 8.41922 0
M  V30 5026 C 820.275 -0.491279 7.02284 0
M  V30 5027 C 819.565 -0.996264 5.77469 0
M  V30 5028 N 819.615 -0.0501916 4.62973 0
M  V30 5029 H 816.777 0.374765 8.67791 0
M  V30 5030 H 816.505 0.443613 6.90476 0
M  V30 5031 H 817.373 -1.75559 7.96891 0
M  V30 5032 H 820.028 -1.94563 5.46818 0
M  V30 5033 H 820.308 0.608651 7.04676 0
M  V30 5034 H 821.299 -0.889796 7.09039 0
M  V30 5035 H 819.465 -0.433128 9.04664 0
M  V30 5036 P 821.335 -2.75334 8.47391 0
M  V30 5037 O 821.555 -3.84128 9.44797 0
M  V30 5038 O 822.125 -1.51947 8.68712 0
M  V30 5039 O 821.585 -3.29363 6.99321 0
M  V30 5040 C 820.645 -4.24011 6.4274 0
M  V30 5041 C 821.375 -5.20775 5.52155 0
M  V30 5042 O 821.585 -4.56534 4.22446 0
M  V30 5043 C 822.775 -5.62629 5.96531 0
M  V30 5044 O 823.165 -6.87667 5.41053 0
M  V30 5045 C 823.655 -4.52537 5.39283 0
M  V30 5046 C 822.945 -4.20027 4.08623 0
M  V30 5047 N 822.995 -2.76189 3.71603 0
M  V30 5048 H 820.156 -4.797 7.24003 0
M  V30 5049 H 819.886 -3.69856 5.84513 0
M  V30 5050 H 820.753 -6.10356 5.41441 0
M  V30 5051 P 824.715 -7.20834 5.23717 0
M  V30 5052 O 824.935 -8.66104 5.38572 0
M  V30 5053 O 825.505 -6.33544 6.1349 0
M  V30 5054 O 824.965 -6.7751 3.72168 0
M  V30 5055 C 824.025 -7.20825 2.7076 0
M  V30 5056 C 824.755 -7.45864 1.40599 0
M  V30 5057 O 824.965 -6.17651 0.734225 0
M  V30 5058 C 826.155 -8.05808 1.51899 0
M  V30 5059 O 826.545 -8.74358 0.335205 0
M  V30 5060 C 827.035 -6.83093 1.70294 0
M  V30 5061 C 826.325 -5.79992 0.836974 0
M  V30 5062 N 826.375 -4.41864 1.38293 0
M  V30 5063 H 823.536 -8.13644 3.0377 0
M  V30 5064 H 823.266 -6.42788 2.55485 0
M  V30 5065 H 824.133 -8.12039 0.792769 0
M  V30 5066 P 828.095 -8.91 -5.92927e-12 0
M  V30 5067 O 828.315 -10.1726 -0.733694 0
M  V30 5068 O 828.885 -8.73148 1.23936 0
M  V30 5069 O 828.345 -7.66872 -0.971405 0
M  V30 5070 C 827.405 -7.42309 -2.04641 0
M  V30 5071 C 828.135 -6.86059 -3.24661 0
M  V30 5072 O 828.345 -5.42847 -3.03646 0
M  V30 5073 C 829.535 -7.41196 -3.50753 0
M  V30 5074 O 829.925 -7.27073 -4.86816 0
M  V30 5075 C 830.415 -6.5273 -2.63741 0
M  V30 5076 C 829.705 -5.1842 -2.73198 0
M  V30 5077 N 829.755 -4.38762 -1.4784 0
M  V30 5078 C 829.675 -4.81605 -0.168631 0
M  V30 5079 N 829.755 -3.85454 0.713363 0
M  V30 5080 C 829.895 -2.6994 -0.0566958 0
M  V30 5081 C 830.025 -1.34815 0.338502 0
M  V30 5082 N 830.145 -0.496304 -0.77465 0
M  V30 5083 C 830.145 -0.908403 -2.09122 0
M  V30 5084 N 830.275 0.0517805 -3.00955 0
M  V30 5085 N 830.015 -2.17875 -2.46519 0
M  V30 5086 C 829.895 -3.01988 -1.4033 0
M  V30 5087 H 826.916 -8.36803 -2.32493 0
M  V30 5088 H 826.646 -6.70197 -1.71129 0
M  V30 5089 H 827.513 -7.03551 -4.13168 0
M  V30 5090 P 831.475 -7.20834 -5.23717 0
M  V30 5091 O 831.695 -7.79853 -6.57286 0
M  V30 5092 O 832.265 -7.79239 -4.12957 0
M  V30 5093 O 831.725 -5.63315 -5.29344 0
M  V30 5094 C 830.785 -4.80255 -6.01876 0
M  V30 5095 C 831.515 -3.64202 -6.65911 0
M  V30 5096 O 831.725 -2.60694 -5.64732 0
M  V30 5097 C 832.915 -3.93473 -7.1943 0
M  V30 5098 O 833.305 -3.02071 -8.21205 0
M  V30 5099 C 833.795 -3.73047 -5.97036 0
M  V30 5100 C 833.085 -2.58828 -5.25741 0
M  V30 5101 N 833.135 -2.68068 -3.77503 0
M  V30 5102 C 833.055 -3.79715 -2.96723 0
M  V30 5103 N 833.135 -3.5377 -1.68852 0
M  V30 5104 C 833.275 -2.15054 -1.63254 0
M  V30 5105 C 833.405 -1.28964 -0.518571 0
M  V30 5106 O 833.425 -1.56826 0.679156 0
M  V30 5107 N 833.525 0.0538097 -0.918425 0
M  V30 5108 C 833.525 0.494275 -2.22578 0
M  V30 5109 N 833.655 1.81086 -2.40434 0
M  V30 5110 N 833.395 -0.313645 -3.27502 0
M  V30 5111 C 833.275 -1.61829 -2.91033 0
M  V30 5112 H 830.296 -5.40332 -6.79951 0
M  V30 5113 H 830.026 -4.41613 -5.32378 0
M  V30 5114 H 830.893 -3.26331 -7.47797 0
M  V30 5115 H 833.548 -1.63422 -5.56814 0
M  V30 5116 H 833.827 -4.63374 -5.34244 0
M  V30 5117 H 834.819 -3.44728 -6.25838 0
M  V30 5118 H 832.985 -4.96652 -7.57263 0
M  V30 5119 H 832.936 -4.80617 -3.3614 0
M  V30 5120 H 833.618 0.742702 -0.199384 0
M  V30 5121 H 833.655 2.20598 -3.35588 0
M  V30 5122 H 833.756 2.43518 -1.58945 0
M  V30 5123 P 834.855 -2.75334 -8.47391 0
M  V30 5124 O 835.075 -2.44571 -9.90142 0
M  V30 5125 O 835.645 -3.87688 -7.92115 0
M  V30 5126 O 835.105 -1.4459 -7.59357 0
M  V30 5127 C 834.165 -0.347608 -7.69215 0
M  V30 5128 C 834.895 0.96767 -7.52806 0
M  V30 5129 O 835.105 1.21036 -6.1011 0
M  V30 5130 C 836.295 1.04544 -8.13308 0
M  V30 5131 O 836.685 2.38311 -8.41922 0
M  V30 5132 C 837.175 0.491279 -7.02284 0
M  V30 5133 C 836.465 0.996264 -5.77469 0
M  V30 5134 N 836.515 0.0501916 -4.62973 0
M  V30 5135 H 833.676 -0.374722 -8.67691 0
M  V30 5136 H 833.406 -0.443485 -6.90277 0
M  V30 5137 H 834.273 1.75537 -7.96793 0
M  V30 5138 P 838.235 2.75334 -8.47391 0
M  V30 5139 O 838.455 3.84128 -9.44797 0
M  V30 5140 O 839.025 1.51947 -8.68712 0
M  V30 5141 O 838.485 3.29363 -6.99321 0
M  V30 5142 C 837.545 4.24011 -6.4274 0
M  V30 5143 C 838.275 5.20775 -5.52155 0
M  V30 5144 O 838.485 4.56534 -4.22446 0
M  V30 5145 C 839.675 5.62629 -5.96531 0
M  V30 5146 O 840.065 6.87667 -5.41053 0
M  V30 5147 C 840.555 4.52537 -5.39283 0
M  V30 5148 C 839.845 4.20027 -4.08623 0
M  V30 5149 N 839.895 2.76189 -3.71603 0
M  V30 5150 H 837.056 4.797 -7.24003 0
M  V30 5151 H 836.786 3.69856 -5.84513 0
M  V30 5152 H 837.653 6.10356 -5.41441 0
M  V30 5153 P 841.615 7.20834 -5.23717 0
M  V30 5154 O 841.835 8.66104 -5.38572 0
M  V30 5155 O 842.405 6.33544 -6.1349 0
M  V30 5156 O 841.865 6.7751 -3.72168 0
M  V30 5157 C 840.925 7.20825 -2.7076 0
M  V30 5158 C 841.655 7.45864 -1.40599 0
M  V30 5159 O 841.865 6.17651 -0.734225 0
M  V30 5160 C 843.055 8.05808 -1.51899 0
M  V30 5161 O 843.445 8.74358 -0.335205 0
M  V30 5162 C 843.935 6.83093 -1.70294 0
M  V30 5163 C 843.225 5.79992 -0.836974 0
M  V30 5164 N 843.275 4.41864 -1.38293 0
M  V30 5165 H 840.436 8.13644 -3.0377 0
M  V30 5166 H 840.166 6.42788 -2.55485 0
M  V30 5167 H 841.033 8.12039 -0.792769 0
M  V30 5168 P 844.995 8.91 6.08645e-12 0
M  V30 5169 O 845.215 10.1726 0.733694 0
M  V30 5170 O 845.785 8.73148 -1.23936 0
M  V30 5171 O 845.245 7.66872 0.971405 0
M  V30 5172 C 844.305 7.42309 2.04641 0
M  V30 5173 C 845.035 6.86059 3.24661 0
M  V30 5174 O 845.245 5.42847 3.03646 0
M  V30 5175 C 846.435 7.41196 3.50753 0
M  V30 5176 O 846.825 7.27073 4.86816 0
M  V30 5177 C 847.315 6.5273 2.63741 0
M  V30 5178 C 846.605 5.1842 2.73198 0
M  V30 5179 N 846.655 4.38762 1.4784 0
M  V30 5180 H 843.816 8.36803 2.32493 0
M  V30 5181 H 843.546 6.70197 1.71129 0
M  V30 5182 H 844.413 7.03551 4.13168 0
M  V30 5183 P 848.375 7.20834 5.23717 0
M  V30 5184 O 848.595 7.79853 6.57286 0
M  V30 5185 O 849.165 7.79239 4.12957 0
M  V30 5186 O 848.625 5.63315 5.29344 0
M  V30 5187 C 847.685 4.80255 6.01876 0
M  V30 5188 C 848.415 3.64202 6.65911 0
M  V30 5189 O 848.625 2.60694 5.64732 0
M  V30 5190 C 849.815 3.93473 7.1943 0
M  V30 5191 O 850.205 3.02071 8.21205 0
M  V30 5192 C 850.695 3.73047 5.97036 0
M  V30 5193 C 849.985 2.58828 5.25741 0
M  V30 5194 N 850.035 2.68068 3.77503 0
M  V30 5195 H 847.196 5.40332 6.79951 0
M  V30 5196 H 846.926 4.41613 5.32378 0
M  V30 5197 H 847.793 3.26331 7.47797 0
M  V30 5198 P 851.755 2.75334 8.47391 0
M  V30 5199 O 851.975 2.44571 9.90142 0
M  V30 5200 O 852.545 3.87688 7.92115 0
M  V30 5201 O 852.005 1.4459 7.59357 0
M  V30 5202 C 851.065 0.347608 7.69215 0
M  V30 5203 C 851.795 -0.96767 7.52806 0
M  V30 5204 O 852.005 -1.21036 6.1011 0
M  V30 5205 C 853.195 -1.04544 8.13308 0
M  V30 5206 O 853.585 -2.38311 8.41922 0
M  V30 5207 C 854.075 -0.491279 7.02284 0
M  V30 5208 C 853.365 -0.996264 5.77469 0
M  V30 5209 N 853.415 -0.0501916 4.62973 0
M  V30 5210 H 850.576 0.374722 8.67691 0
M  V30 5211 H 850.306 0.443485 6.90277 0
M  V30 5212 H 851.173 -1.75537 7.96793 0
M  V30 5213 P 855.135 -2.75334 8.47391 0
M  V30 5214 O 855.355 -3.84128 9.44797 0
M  V30 5215 O 855.925 -1.51947 8.68712 0
M  V30 5216 O 855.385 -3.29363 6.99321 0
M  V30 5217 C 854.445 -4.24011 6.4274 0
M  V30 5218 C 855.175 -5.20775 5.52155 0
M  V30 5219 O 855.385 -4.56534 4.22446 0
M  V30 5220 C 856.575 -5.62629 5.96531 0
M  V30 5221 O 856.965 -6.87667 5.41053 0
M  V30 5222 C 857.455 -4.52537 5.39283 0
M  V30 5223 C 856.745 -4.20027 4.08623 0
M  V30 5224 N 856.795 -2.76189 3.71603 0
M  V30 5225 H 853.956 -4.797 7.24003 0
M  V30 5226 H 853.686 -3.69856 5.84513 0
M  V30 5227 H 854.553 -6.10356 5.41441 0
M  V30 5228 P 858.515 -7.20834 5.23717 0
M  V30 5229 O 858.735 -8.66274 5.38678 0
M  V30 5230 O 859.305 -6.33687 6.13629 0
M  V30 5231 O 858.765 -6.7751 3.72168 0
M  V30 5232 C 857.825 -7.20919 2.70795 0
M  V30 5233 C 858.555 -7.45864 1.40599 0
M  V30 5234 O 858.765 -6.17751 0.734343 0
M  V30 5235 C 859.955 -8.05906 1.51917 0
M  V30 5236 O 860.345 -8.74358 0.335205 0
M  V30 5237 C 860.835 -6.83093 1.70294 0
M  V30 5238 C 860.125 -5.79992 0.836974 0
M  V30 5239 N 860.175 -4.41864 1.38293 0
M  V30 5240 C 860.095 -4.02089 2.69407 0
M  V30 5241 N 860.165 -2.73403 2.85089 0
M  V30 5242 C 860.315 -2.25086 1.5642 0
M  V30 5243 C 860.445 -0.942887 1.04836 0
M  V30 5244 N 860.455 0.150999 1.80369 0
M  V30 5245 N 860.565 -0.812565 -0.28167 0
M  V30 5246 C 860.555 -1.90572 -1.03784 0
M  V30 5247 N 860.435 -3.167 -0.683905 0
M  V30 5248 C 860.315 -3.26538 0.652815 0
M  V30 5249 H 857.337 -8.13738 3.03804 0
M  V30 5250 H 857.065 -6.42974 2.55559 0
M  V30 5251 H 857.933 -8.12139 0.792866 0
M  V30 5252 H 860.588 -5.80178 -0.160643 0
M  V30 5253 H 860.868 -6.51379 2.75643 0
M  V30 5254 H 861.859 -7.01832 1.3448 0
M  V30 5255 H 860.025 -8.73771 2.38364 0
M  V30 5256 H 859.984 -4.7189 3.52311 0
M  V30 5257 H 860.365 0.0721434 2.82608 0
M  V30 5258 H 860.554 1.0785 1.36544 0
M  V30 5259 H 860.662 -1.73207 -2.10241 0
M  V30 5260 P 861.895 -8.91 -6.24363e-12 0
M  V30 5261 O 862.115 -10.1726 -0.733694 0
M  V30 5262 O 862.685 -8.73148 1.23936 0
M  V30 5263 O 862.145 -7.66872 -0.971405 0
M  V30 5264 C 861.205 -7.42309 -2.04641 0
M  V30 5265 C 861.935 -6.86059 -3.24661 0
M  V30 5266 O 862.145 -5.42847 -3.03646 0
M  V30 5267 C 863.335 -7.41196 -3.50753 0
M  V30 5268 O 863.725 -7.27073 -4.86816 0
M  V30 5269 C 864.215 -6.5273 -2.63741 0
M  V30 5270 C 863.505 -5.1842 -2.73198 0
M  V30 5271 N 863.555 -4.38762 -1.4784 0
M  V30 5272 H 860.716 -8.36803 -2.32493 0
M  V30 5273 H 860.446 -6.70197 -1.71129 0
M  V30 5274 H 861.313 -7.03551 -4.13168 0
M  V30 5275 P 865.275 -7.20834 -5.23717 0
M  V30 5276 O 865.495 -7.79853 -6.57286 0
M  V30 5277 O 866.065 -7.79239 -4.12957 0
M  V30 5278 O 865.525 -5.63315 -5.29344 0
M  V30 5279 C 864.585 -4.80255 -6.01876 0
M  V30 5280 C 865.315 -3.64202 -6.65911 0
M  V30 5281 O 865.525 -2.60694 -5.64732 0
M  V30 5282 C 866.715 -3.93473 -7.1943 0
M  V30 5283 O 867.105 -3.02071 -8.21205 0
M  V30 5284 C 867.595 -3.73047 -5.97036 0
M  V30 5285 C 866.885 -2.58828 -5.25741 0
M  V30 5286 N 866.935 -2.68068 -3.77503 0
M  V30 5287 H 864.096 -5.40332 -6.79951 0
M  V30 5288 H 863.826 -4.41613 -5.32378 0
M  V30 5289 H 864.693 -3.26331 -7.47797 0
M  V30 5290 P 868.655 -2.75334 -8.47391 0
M  V30 5291 O 868.875 -2.44619 -9.90336 0
M  V30 5292 O 869.445 -3.87776 -7.92294 0
M  V30 5293 O 868.905 -1.4459 -7.59357 0
M  V30 5294 C 867.965 -0.347653 -7.69315 0
M  V30 5295 C 868.695 0.96767 -7.52806 0
M  V30 5296 O 868.905 1.21055 -6.10208 0
M  V30 5297 C 870.095 1.04557 -8.13408 0
M  V30 5298 O 870.485 2.38311 -8.41922 0
M  V30 5299 C 870.975 0.491279 -7.02284 0
M  V30 5300 C 870.265 0.996264 -5.77469 0
M  V30 5301 N 870.315 0.0501916 -4.62973 0
M  V30 5302 C 870.235 -1.31969 -4.65661 0
M  V30 5303 N 870.305 -1.86649 -3.48119 0
M  V30 5304 C 870.455 -0.792089 -2.62406 0
M  V30 5305 C 870.585 -0.705684 -1.2207 0
M  V30 5306 N 870.595 -1.76207 -0.413762 0
M  V30 5307 N 870.705 0.518981 -0.685754 0
M  V30 5308 C 870.695 1.57595 -1.49174 0
M  V30 5309 N 870.575 1.62909 -2.80066 0
M  V30 5310 C 870.455 0.388195 -3.3073 0
M  V30 5311 H 867.477 -0.374765 -8.67791 0
M  V30 5312 H 867.205 -0.443613 -6.90476 0
M  V30 5313 H 868.073 1.75559 -7.96891 0
M  V30 5314 H 870.728 1.94563 -5.46818 0
M  V30 5315 H 871.008 -0.608651 -7.04676 0
M  V30 5316 H 871.999 0.889796 -7.09039 0
M  V30 5317 H 870.165 0.433128 -9.04664 0
M  V30 5318 H 870.124 -1.89246 -5.57664 0
M  V30 5319 H 870.505 -2.71005 -0.804694 0
M  V30 5320 H 870.694 -1.63189 0.603768 0
M  V30 5321 H 870.802 2.53475 -0.997614 0
M  V30 5322 P 872.035 2.75334 -8.47391 0
M  V30 5323 O 872.255 3.84204 -9.44982 0
M  V30 5324 O 872.825 1.51982 -8.68909 0
M  V30 5325 O 872.285 3.29363 -6.99321 0
M  V30 5326 C 871.345 4.24066 -6.42823 0
M  V30 5327 C 872.075 5.20775 -5.52155 0
M  V30 5328 O 872.285 4.56607 -4.22514 0
M  V30 5329 C 873.475 5.62697 -5.96604 0
M  V30 5330 O 873.865 6.87667 -5.41053 0
M  V30 5331 C 874.355 4.52537 -5.39283 0
M  V30 5332 C 873.645 4.20027 -4.08623 0
M  V30 5333 N 873.695 2.76189 -3.71603 0
M  V30 5334 C 873.615 1.66944 -4.54297 0
M  V30 5335 N 873.685 0.536169 -3.91344 0
M  V30 5336 C 873.835 0.901569 -2.58849 0
M  V30 5337 C 873.965 0.146599 -1.40236 0
M  V30 5338 N 873.975 -1.18234 -1.37046 0
M  V30 5339 N 874.085 0.822941 -0.249738 0
M  V30 5340 C 874.075 2.15179 -0.280525 0
M  V30 5341 N 873.955 2.96414 -1.30822 0
M  V30 5342 C 873.835 2.25804 -2.44748 0
M  V30 5343 H 870.857 4.79756 -7.24086 0
M  V30 5344 H 870.585 3.69963 -5.84682 0
M  V30 5345 H 871.453 6.10431 -5.41508 0
M  V30 5346 H 874.108 4.78816 -3.28024 0
M  V30 5347 H 874.388 3.64957 -6.05871 0
M  V30 5348 H 875.379 4.88748 -5.21323 0
M  V30 5349 H 873.545 5.66789 -7.0643 0
M  V30 5350 H 873.504 1.74684 -5.62396 0
M  V30 5351 H 873.885 -1.71949 -2.24394 0
M  V30 5352 H 874.074 -1.67511 -0.470742 0
M  V30 5353 H 874.182 2.63704 0.6828 0
M  V30 5354 P 875.415 7.20834 -5.23717 0
M  V30 5355 O 875.635 8.66274 -5.38678 0
M  V30 5356 O 876.205 6.33687 -6.13629 0
M  V30 5357 O 875.665 6.7751 -3.72168 0
M  V30 5358 C 874.725 7.20919 -2.70795 0
M  V30 5359 C 875.455 7.45864 -1.40599 0
M  V30 5360 O 875.665 6.17751 -0.734343 0
M  V30 5361 C 876.855 8.05906 -1.51917 0
M  V30 5362 O 877.245 8.74358 -0.335205 0
M  V30 5363 C 877.735 6.83093 -1.70294 0
M  V30 5364 C 877.025 5.79992 -0.836974 0
M  V30 5365 N 877.075 4.41864 -1.38293 0
M  V30 5366 C 876.995 4.02089 -2.69407 0
M  V30 5367 N 877.065 2.73403 -2.85089 0
M  V30 5368 C 877.215 2.25086 -1.5642 0
M  V30 5369 C 877.345 0.942887 -1.04836 0
M  V30 5370 N 877.355 -0.150999 -1.80369 0
M  V30 5371 N 877.465 0.812565 0.28167 0
M  V30 5372 C 877.455 1.90572 1.03784 0
M  V30 5373 N 877.335 3.167 0.683905 0
M  V30 5374 C 877.215 3.26538 -0.652815 0
M  V30 5375 H 874.237 8.13738 -3.03804 0
M  V30 5376 H 873.965 6.42974 -2.55559 0
M  V30 5377 H 874.833 8.12139 -0.792866 0
M  V30 5378 H 877.488 5.80178 0.160643 0
M  V30 5379 H 877.768 6.51379 -2.75643 0
M  V30 5380 H 878.759 7.01832 -1.3448 0
M  V30 5381 H 876.925 8.73771 -2.38364 0
M  V30 5382 H 876.884 4.7189 -3.52311 0
M  V30 5383 H 877.265 -0.0721434 -2.82608 0
M  V30 5384 H 877.454 -1.0785 -1.36544 0
M  V30 5385 H 877.562 1.73207 2.10241 0
M  V30 5386 P 878.795 8.91 6.40081e-12 0
M  V30 5387 O 879.015 10.1726 0.733694 0
M  V30 5388 O 879.585 8.73148 -1.23936 0
M  V30 5389 O 879.045 7.66872 0.971405 0
M  V30 5390 C 878.105 7.42309 2.04641 0
M  V30 5391 C 878.835 6.86059 3.24661 0
M  V30 5392 O 879.045 5.42847 3.03646 0
M  V30 5393 C 880.235 7.41196 3.50753 0
M  V30 5394 O 880.625 7.27073 4.86816 0
M  V30 5395 C 881.115 6.5273 2.63741 0
M  V30 5396 C 880.405 5.1842 2.73198 0
M  V30 5397 N 880.455 4.38762 1.4784 0
M  V30 5398 C 880.375 4.81605 0.168631 0
M  V30 5399 N 880.455 3.85454 -0.713363 0
M  V30 5400 C 880.595 2.6994 0.0566958 0
M  V30 5401 C 880.725 1.34815 -0.338502 0
M  V30 5402 N 880.845 0.496304 0.77465 0
M  V30 5403 C 880.845 0.908403 2.09122 0
M  V30 5404 N 880.975 -0.0517805 3.00955 0
M  V30 5405 N 880.715 2.17875 2.46519 0
M  V30 5406 C 880.595 3.01988 1.4033 0
M  V30 5407 H 877.616 8.36803 2.32493 0
M  V30 5408 H 877.346 6.70197 1.71129 0
M  V30 5409 H 878.213 7.03551 4.13168 0
M  V30 5410 P 882.175 7.20834 5.23717 0
M  V30 5411 O 882.395 7.79853 6.57286 0
M  V30 5412 O 882.965 7.79239 4.12957 0
M  V30 5413 O 882.425 5.63315 5.29344 0
M  V30 5414 C 881.485 4.80255 6.01876 0
M  V30 5415 C 882.215 3.64202 6.65911 0
M  V30 5416 O 882.425 2.60694 5.64732 0
M  V30 5417 C 883.615 3.93473 7.1943 0
M  V30 5418 O 884.005 3.02071 8.21205 0
M  V30 5419 C 884.495 3.73047 5.97036 0
M  V30 5420 C 883.785 2.58828 5.25741 0
M  V30 5421 N 883.835 2.68068 3.77503 0
M  V30 5422 H 880.996 5.40332 6.79951 0
M  V30 5423 H 880.726 4.41613 5.32378 0
M  V30 5424 H 881.593 3.26331 7.47797 0
M  V30 5425 P 885.555 2.75334 8.47391 0
M  V30 5426 O 885.775 2.44571 9.90142 0
M  V30 5427 O 886.345 3.87688 7.92115 0
M  V30 5428 O 885.805 1.4459 7.59357 0
M  V30 5429 C 884.865 0.347608 7.69215 0
M  V30 5430 C 885.595 -0.96767 7.52806 0
M  V30 5431 O 885.805 -1.21036 6.1011 0
M  V30 5432 C 886.995 -1.04544 8.13308 0
M  V30 5433 O 887.385 -2.38311 8.41922 0
M  V30 5434 C 887.875 -0.491279 7.02284 0
M  V30 5435 C 887.165 -0.996264 5.77469 0
M  V30 5436 N 887.215 -0.0501916 4.62973 0
M  V30 5437 C 887.135 1.32786 4.63244 0
M  V30 5438 N 887.215 1.86957 3.44545 0
M  V30 5439 C 887.355 0.780241 2.58481 0
M  V30 5440 C 887.485 0.738536 1.17757 0
M  V30 5441 O 887.505 1.66794 0.372349 0
M  V30 5442 N 887.605 -0.58337 0.711393 0
M  V30 5443 C 887.605 -1.70816 1.51017 0
M  V30 5444 N 887.735 -2.87826 0.880757 0
M  V30 5445 N 887.475 -1.67126 2.8339 0
M  V30 5446 C 887.355 -0.401421 3.30572 0
M  V30 5447 H 884.376 0.374722 8.67691 0
M  V30 5448 H 884.106 0.443485 6.90277 0
M  V30 5449 H 884.973 -1.75537 7.96793 0
M  V30 5450 H 887.628 -1.95076 5.46529 0
M  V30 5451 H 887.907 0.608565 7.04577 0
M  V30 5452 H 888.899 -0.889672 7.08939 0
M  V30 5453 H 887.065 -0.43308 9.04564 0
M  V30 5454 H 887.016 1.91249 5.54442 0
M  V30 5455 H 887.698 -0.718054 -0.275244 0
M  V30 5456 H 887.735 -3.75721 1.41832 0
M  V30 5457 H 887.836 -2.90436 -0.145468 0
M  V30 5458 P 888.935 -2.75334 8.47391 0
M  V30 5459 O 889.155 -3.84128 9.44797 0
M  V30 5460 O 889.725 -1.51947 8.68712 0
M  V30 5461 O 889.185 -3.29363 6.99321 0
M  V30 5462 C 888.245 -4.24011 6.4274 0
M  V30 5463 C 888.975 -5.20775 5.52155 0
M  V30 5464 O 889.185 -4.56534 4.22446 0
M  V30 5465 C 890.375 -5.62629 5.96531 0
M  V30 5466 O 890.765 -6.87667 5.41053 0
M  V30 5467 C 891.255 -4.52537 5.39283 0
M  V30 5468 C 890.545 -4.20027 4.08623 0
M  V30 5469 N 890.595 -2.76189 3.71603 0
M  V30 5470 H 887.756 -4.797 7.24003 0
M  V30 5471 H 887.486 -3.69856 5.84513 0
M  V30 5472 H 888.353 -6.10356 5.41441 0
M  V30 5473 P 892.315 -7.20834 5.23717 0
M  V30 5474 O 892.535 -8.66104 5.38572 0
M  V30 5475 O 893.105 -6.33544 6.1349 0
M  V30 5476 O 892.565 -6.7751 3.72168 0
M  V30 5477 C 891.625 -7.20825 2.7076 0
M  V30 5478 C 892.355 -7.45864 1.40599 0
M  V30 5479 O 892.565 -6.17651 0.734225 0
M  V30 5480 C 893.755 -8.05808 1.51899 0
M  V30 5481 O 894.145 -8.74358 0.335205 0
M  V30 5482 C 894.635 -6.83093 1.70294 0
M  V30 5483 C 893.925 -5.79992 0.836974 0
M  V30 5484 N 893.975 -4.41864 1.38293 0
M  V30 5485 C 893.895 -3.99538 2.69438 0
M  V30 5486 N 893.975 -2.69909 2.84277 0
M  V30 5487 C 894.115 -2.21719 1.5408 0
M  V30 5488 C 894.245 -0.891712 1.06628 0
M  V30 5489 O 894.265 0.161298 1.70137 0
M  V30 5490 N 894.365 -0.856846 -0.334985 0
M  V30 5491 C 894.365 -1.9641 -1.15789 0
M  V30 5492 N 894.495 -1.72708 -2.46522 0
M  V30 5493 N 894.235 -3.21165 -0.713741 0
M  V30 5494 C 894.115 -3.26797 0.639748 0
M  V30 5495 H 891.136 -8.13644 3.0377 0
M  V30 5496 H 890.866 -6.42788 2.55485 0
M  V30 5497 H 891.733 -8.12039 0.792769 0
M  V30 5498 H 894.388 -5.80061 -0.166416 0
M  V30 5499 H 894.667 -6.51287 2.75604 0
M  V30 5500 H 895.659 -7.01734 1.34462 0
M  V30 5501 H 893.825 -8.73674 2.38337 0
M  V30 5502 H 893.776 -4.68207 3.53221 0
M  V30 5503 H 894.458 0.0398818 -0.767965 0
M  V30 5504 H 894.495 -2.50995 -3.13503 0
M  V30 5505 H 894.596 -0.759148 -2.80716 0
M  V30 5506 P 895.695 -8.91 -6.558e-12 0
M  V30 5507 O 895.915 -10.1746 -0.733838 0
M  V30 5508 O 896.485 -8.73346 1.23964 0
M  V30 5509 O 895.945 -7.66872 -0.971405 0
M  V30 5510 C 895.005 -7.42405 -2.04668 0
M  V30 5511 C 895.735 -6.86059 -3.24661 0
M  V30 5512 O 895.945 -5.42934 -3.03695 0
M  V30 5513 C 897.135 -7.41287 -3.50796 0
M  V30 5514 O 897.525 -7.27073 -4.86816 0
M  V30 5515 C 898.015 -6.5273 -2.63741 0
M  V30 5516 C 897.305 -5.1842 -2.73198 0
M  V30 5517 N 897.355 -4.38762 -1.4784 0
M  V30 5518 H 894.517 -8.36899 -2.3252 0
M  V30 5519 H 894.245 -6.70391 -1.71179 0
M  V30 5520 H 895.113 -7.03638 -4.13219 0
M  V30 5521 H 897.768 -4.59931 -3.54016 0
M  V30 5522 H 898.048 -6.88995 -1.59871 0
M  V30 5523 H 899.039 -6.4684 -3.0373 0
M  V30 5524 H 897.205 -8.47002 -3.20749 0
M  V30 5525 P 899.075 -7.20834 -5.23717 0
M  V30 5526 O 899.295 -7.80006 -6.57415 0
M  V30 5527 O 899.865 -7.79416 -4.13051 0
M  V30 5528 O 899.325 -5.63315 -5.29344 0
M  V30 5529 C 898.385 -4.80318 -6.01954 0
M  V30 5530 C 899.115 -3.64202 -6.65911 0
M  V30 5531 O 899.325 -2.60736 -5.64823 0
M  V30 5532 C 900.515 -3.93521 -7.19518 0
M  V30 5533 O 900.905 -3.02071 -8.21205 0
M  V30 5534 C 901.395 -3.73047 -5.97036 0
M  V30 5535 C 900.685 -2.58828 -5.25741 0
M  V30 5536 N 900.735 -2.68068 -3.77503 0
M  V30 5537 C 900.655 -3.80474 -2.99159 0
M  V30 5538 N 900.725 -3.55622 -1.71925 0
M  V30 5539 C 900.875 -2.1832 -1.65733 0
M  V30 5540 C 901.005 -1.28842 -0.572777 0
M  V30 5541 N 901.015 -1.66875 0.70098 0
M  V30 5542 N 901.125 0.016788 -0.859836 0
M  V30 5543 C 901.115 0.398145 -2.13316 0
M  V30 5544 N 900.995 -0.328224 -3.22333 0
M  V30 5545 C 900.875 -1.62992 -2.90383 0
M  V30 5546 H 897.897 -5.40394 -6.8003 0
M  V30 5547 H 897.625 -4.41741 -5.32532 0
M  V30 5548 H 898.493 -3.26371 -7.47889 0
M  V30 5549 H 901.148 -1.64007 -5.56746 0
M  V30 5550 H 901.428 -4.63439 -5.3432 0
M  V30 5551 H 902.419 -3.44776 -6.25925 0
M  V30 5552 H 900.585 -4.96707 -7.57347 0
M  V30 5553 H 900.544 -4.8089 -3.39924 0
M  V30 5554 H 900.925 -2.66547 0.941919 0
M  V30 5555 H 901.114 -0.965341 1.44766 0
M  V30 5556 H 901.222 1.46427 -2.29697 0
M  V30 5557 P 902.455 -2.75334 -8.47391 0
M  V30 5558 O 902.675 -2.44571 -9.90142 0
M  V30 5559 O 903.245 -3.87688 -7.92115 0
M  V30 5560 O 902.705 -1.4459 -7.59357 0
M  V30 5561 C 901.765 -0.347608 -7.69215 0
M  V30 5562 C 902.495 0.96767 -7.52806 0
M  V30 5563 O 902.705 1.21036 -6.1011 0
M  V30 5564 C 903.895 1.04544 -8.13308 0
M  V30 5565 O 904.285 2.38311 -8.41922 0
M  V30 5566 C 904.775 0.491279 -7.02284 0
M  V30 5567 C 904.065 0.996264 -5.77469 0
M  V30 5568 N 904.115 0.0501916 -4.62973 0
M  V30 5569 C 904.035 -1.32786 -4.63244 0
M  V30 5570 N 904.115 -1.86957 -3.44545 0
M  V30 5571 C 904.255 -0.780241 -2.58481 0
M  V30 5572 C 904.385 -0.738536 -1.17757 0
M  V30 5573 O 904.405 -1.66794 -0.372349 0
M  V30 5574 N 904.505 0.58337 -0.711393 0
M  V30 5575 C 904.505 1.70816 -1.51017 0
M  V30 5576 N 904.635 2.87826 -0.880757 0
M  V30 5577 N 904.375 1.67126 -2.8339 0
M  V30 5578 C 904.255 0.401421 -3.30572 0
M  V30 5579 H 901.276 -0.374722 -8.67691 0
M  V30 5580 H 901.006 -0.443485 -6.90277 0
M  V30 5581 H 901.873 1.75537 -7.96793 0
M  V30 5582 H 904.528 1.95076 -5.46529 0
M  V30 5583 H 904.807 -0.608565 -7.04577 0
M  V30 5584 H 905.799 0.889672 -7.08939 0
M  V30 5585 H 903.965 0.43308 -9.04564 0
M  V30 5586 H 903.916 -1.91249 -5.54442 0
M  V30 5587 H 904.598 0.718054 0.275244 0
M  V30 5588 H 904.635 3.75721 -1.41832 0
M  V30 5589 H 904.736 2.90436 0.145468 0
M  V30 5590 P 905.835 2.75334 -8.47391 0
M  V30 5591 O 906.055 3.84128 -9.44797 0
M  V30 5592 O 906.625 1.51947 -8.68712 0
M  V30 5593 O 906.085 3.29363 -6.99321 0
M  V30 5594 C 905.145 4.24011 -6.4274 0
M  V30 5595 C 905.875 5.20775 -5.52155 0
M  V30 5596 O 906.085 4.56534 -4.22446 0
M  V30 5597 C 907.275 5.62629 -5.96531 0
M  V30 5598 O 907.665 6.87667 -5.41053 0
M  V30 5599 C 908.155 4.52537 -5.39283 0
M  V30 5600 C 907.445 4.20027 -4.08623 0
M  V30 5601 N 907.495 2.76189 -3.71603 0
M  V30 5602 H 904.656 4.797 -7.24003 0
M  V30 5603 H 904.386 3.69856 -5.84513 0
M  V30 5604 H 905.253 6.10356 -5.41441 0
M  V30 5605 P 909.215 7.20834 -5.23717 0
M  V30 5606 O 909.435 8.66274 -5.38678 0
M  V30 5607 O 910.005 6.33687 -6.13629 0
M  V30 5608 O 909.465 6.7751 -3.72168 0
M  V30 5609 C 908.525 7.20919 -2.70795 0
M  V30 5610 C 909.255 7.45864 -1.40599 0
M  V30 5611 O 909.465 6.17751 -0.734343 0
M  V30 5612 C 910.655 8.05906 -1.51917 0
M  V30 5613 O 911.045 8.74358 -0.335205 0
M  V30 5614 C 911.535 6.83093 -1.70294 0
M  V30 5615 C 910.825 5.79992 -0.836974 0
M  V30 5616 N 910.875 4.41864 -1.38293 0
M  V30 5617 H 908.037 8.13738 -3.03804 0
M  V30 5618 H 907.765 6.42974 -2.55559 0
M  V30 5619 H 908.633 8.12139 -0.792866 0
M  V30 5620 H 911.288 5.80178 0.160643 0
M  V30 5621 H 911.568 6.51379 -2.75643 0
M  V30 5622 H 912.559 7.01832 -1.3448 0
M  V30 5623 H 910.725 8.73771 -2.38364 0
M  V30 5624 P 912.595 8.91 6.71518e-12 0
M  V30 5625 O 912.815 10.1746 0.733838 0
M  V30 5626 O 913.385 8.73346 -1.23964 0
M  V30 5627 O 912.845 7.66872 0.971405 0
M  V30 5628 C 911.905 7.42405 2.04668 0
M  V30 5629 C 912.635 6.86059 3.24661 0
M  V30 5630 O 912.845 5.42934 3.03695 0
M  V30 5631 C 914.035 7.41287 3.50796 0
M  V30 5632 O 914.425 7.27073 4.86816 0
M  V30 5633 C 914.915 6.5273 2.63741 0
M  V30 5634 C 914.205 5.1842 2.73198 0
M  V30 5635 N 914.255 4.38762 1.4784 0
M  V30 5636 C 914.175 4.83651 0.183876 0
M  V30 5637 N 914.245 3.88759 -0.699393 0
M  V30 5638 C 914.395 2.7404 0.0575568 0
M  V30 5639 C 914.525 1.37902 -0.293928 0
M  V30 5640 N 914.535 0.938021 -1.54797 0
M  V30 5641 N 914.645 0.491817 0.70549 0
M  V30 5642 C 914.635 0.931735 1.95979 0
M  V30 5643 N 914.515 2.16017 2.41481 0
M  V30 5644 C 914.395 3.02547 1.39121 0
M  V30 5645 H 911.417 8.36899 2.3252 0
M  V30 5646 H 911.145 6.70391 1.71179 0
M  V30 5647 H 912.013 7.03638 4.13219 0
M  V30 5648 H 914.668 4.59931 3.54016 0
M  V30 5649 H 914.948 6.88995 1.59871 0
M  V30 5650 H 915.939 6.4684 3.0373 0
M  V30 5651 H 914.105 8.47002 3.20749 0
M  V30 5652 H 914.064 5.8885 -0.0765548 0
M  V30 5653 H 914.445 1.60276 -2.32875 0
M  V30 5654 H 914.634 -0.0699355 -1.73859 0
M  V30 5655 H 914.742 0.165507 2.71897 0
M  V30 5656 P 915.975 7.20834 5.23717 0
M  V30 5657 O 916.195 7.79853 6.57286 0
M  V30 5658 O 916.765 7.79239 4.12957 0
M  V30 5659 O 916.225 5.63315 5.29344 0
M  V30 5660 C 915.285 4.80255 6.01876 0
M  V30 5661 C 916.015 3.64202 6.65911 0
M  V30 5662 O 916.225 2.60694 5.64732 0
M  V30 5663 C 917.415 3.93473 7.1943 0
M  V30 5664 O 917.805 3.02071 8.21205 0
M  V30 5665 C 918.295 3.73047 5.97036 0
M  V30 5666 C 917.585 2.58828 5.25741 0
M  V30 5667 N 917.635 2.68068 3.77503 0
M  V30 5668 C 917.555 3.79715 2.96723 0
M  V30 5669 N 917.635 3.5377 1.68852 0
M  V30 5670 C 917.775 2.15054 1.63254 0
M  V30 5671 C 917.905 1.28964 0.518571 0
M  V30 5672 N 918.025 -0.0538097 0.918425 0
M  V30 5673 C 918.025 -0.494275 2.22578 0
M  V30 5674 N 918.155 -1.81086 2.40434 0
M  V30 5675 N 917.895 0.313645 3.27502 0
M  V30 5676 C 917.775 1.61829 2.91033 0
M  V30 5677 H 914.796 5.40332 6.79951 0
M  V30 5678 H 914.526 4.41613 5.32378 0
M  V30 5679 H 915.393 3.26331 7.47797 0
M  V30 5680 P 919.355 2.75334 8.47391 0
M  V30 5681 O 919.575 2.44571 9.90142 0
M  V30 5682 O 920.145 3.87688 7.92115 0
M  V30 5683 O 919.605 1.4459 7.59357 0
M  V30 5684 C 918.665 0.347608 7.69215 0
M  V30 5685 C 919.395 -0.96767 7.52806 0
M  V30 5686 O 919.605 -1.21036 6.1011 0
M  V30 5687 C 920.795 -1.04544 8.13308 0
M  V30 5688 O 921.185 -2.38311 8.41922 0
M  V30 5689 C 921.675 -0.491279 7.02284 0
M  V30 5690 C 920.965 -0.996264 5.77469 0
M  V30 5691 N 921.015 -0.0501916 4.62973 0
M  V30 5692 H 918.176 0.374722 8.67691 0
M  V30 5693 H 917.906 0.443485 6.90277 0
M  V30 5694 H 918.773 -1.75537 7.96793 0
M  V30 5695 P 922.735 -2.75334 8.47391 0
M  V30 5696 O 922.955 -3.84128 9.44797 0
M  V30 5697 O 923.525 -1.51947 8.68712 0
M  V30 5698 O 922.985 -3.29363 6.99321 0
M  V30 5699 C 922.045 -4.24011 6.4274 0
M  V30 5700 C 922.775 -5.20775 5.52155 0
M  V30 5701 O 922.985 -4.56534 4.22446 0
M  V30 5702 C 924.175 -5.62629 5.96531 0
M  V30 5703 O 924.565 -6.87667 5.41053 0
M  V30 5704 C 925.055 -4.52537 5.39283 0
M  V30 5705 C 924.345 -4.20027 4.08623 0
M  V30 5706 N 924.395 -2.76189 3.71603 0
M  V30 5707 H 921.556 -4.797 7.24003 0
M  V30 5708 H 921.286 -3.69856 5.84513 0
M  V30 5709 H 922.153 -6.10356 5.41441 0
M  V30 5710 P 926.115 -7.20834 5.23717 0
M  V30 5711 O 926.335 -8.66104 5.38572 0
M  V30 5712 O 926.905 -6.33544 6.1349 0
M  V30 5713 O 926.365 -6.7751 3.72168 0
M  V30 5714 C 925.425 -7.20825 2.7076 0
M  V30 5715 C 926.155 -7.45864 1.40599 0
M  V30 5716 O 926.365 -6.17651 0.734225 0
M  V30 5717 C 927.555 -8.05808 1.51899 0
M  V30 5718 O 927.945 -8.74358 0.335205 0
M  V30 5719 C 928.435 -6.83093 1.70294 0
M  V30 5720 C 927.725 -5.79992 0.836974 0
M  V30 5721 N 927.775 -4.41864 1.38293 0
M  V30 5722 H 924.936 -8.13644 3.0377 0
M  V30 5723 H 924.666 -6.42788 2.55485 0
M  V30 5724 H 925.533 -8.12039 0.792769 0
M  V30 5725 P 929.495 -8.91 -6.87236e-12 0
M  V30 5726 O 929.715 -10.1726 -0.733694 0
M  V30 5727 O 930.285 -8.73148 1.23936 0
M  V30 5728 O 929.745 -7.66872 -0.971405 0
M  V30 5729 C 928.805 -7.42309 -2.04641 0
M  V30 5730 C 929.535 -6.86059 -3.24661 0
M  V30 5731 O 929.745 -5.42847 -3.03646 0
M  V30 5732 C 930.935 -7.41196 -3.50753 0
M  V30 5733 O 931.325 -7.27073 -4.86816 0
M  V30 5734 C 931.815 -6.5273 -2.63741 0
M  V30 5735 C 931.105 -5.1842 -2.73198 0
M  V30 5736 N 931.155 -4.38762 -1.4784 0
M  V30 5737 C 931.075 -4.81605 -0.168631 0
M  V30 5738 N 931.155 -3.85454 0.713363 0
M  V30 5739 C 931.295 -2.6994 -0.0566958 0
M  V30 5740 C 931.425 -1.34815 0.338502 0
M  V30 5741 N 931.545 -0.496304 -0.77465 0
M  V30 5742 C 931.545 -0.908403 -2.09122 0
M  V30 5743 N 931.675 0.0517805 -3.00955 0
M  V30 5744 N 931.415 -2.17875 -2.46519 0
M  V30 5745 C 931.295 -3.01988 -1.4033 0
M  V30 5746 H 928.316 -8.36803 -2.32493 0
M  V30 5747 H 928.046 -6.70197 -1.71129 0
M  V30 5748 H 928.913 -7.03551 -4.13168 0
M  V30 5749 P 932.874 -7.20834 -5.23717 0
M  V30 5750 O 933.094 -7.79853 -6.57286 0
M  V30 5751 O 933.664 -7.79239 -4.12957 0
M  V30 5752 O 933.124 -5.63315 -5.29344 0
M  V30 5753 C 932.184 -4.80255 -6.01876 0
M  V30 5754 C 932.914 -3.64202 -6.65911 0
M  V30 5755 O 933.124 -2.60694 -5.64732 0
M  V30 5756 C 934.314 -3.93473 -7.1943 0
M  V30 5757 O 934.704 -3.02071 -8.21205 0
M  V30 5758 C 935.194 -3.73047 -5.97036 0
M  V30 5759 C 934.484 -2.58828 -5.25741 0
M  V30 5760 N 934.534 -2.68068 -3.77503 0
M  V30 5761 H 931.695 -5.40332 -6.79951 0
M  V30 5762 H 931.425 -4.41613 -5.32378 0
M  V30 5763 H 932.292 -3.26331 -7.47797 0
M  V30 5764 P 936.254 -2.75334 -8.47391 0
M  V30 5765 O 936.474 -2.44595 -9.90239 0
M  V30 5766 O 937.044 -3.87732 -7.92204 0
M  V30 5767 O 936.504 -1.4459 -7.59357 0
M  V30 5768 C 935.564 -0.347563 -7.69115 0
M  V30 5769 C 936.294 0.96767 -7.52806 0
M  V30 5770 O 936.504 1.21036 -6.1011 0
M  V30 5771 C 937.694 1.04544 -8.13308 0
M  V30 5772 O 938.084 2.38311 -8.41922 0
M  V30 5773 C 938.574 0.491279 -7.02284 0
M  V30 5774 C 937.864 0.996264 -5.77469 0
M  V30 5775 N 937.914 0.0501808 -4.62873 0
M  V30 5776 C 938.064 0.588177 -3.36904 0
M  V30 5777 O 938.154 1.78598 -3.17173 0
M  V30 5778 N 938.104 -0.329694 -2.33686 0
M  V30 5779 C 938.014 -1.6953 -2.45079 0
M  V30 5780 C 937.864 -2.16933 -3.80505 0
M  V30 5781 C 937.814 -1.30326 -4.83752 0
M  V30 5782 H 935.074 -0.374722 -8.67691 0
M  V30 5783 H 934.805 -0.443421 -6.90177 0
M  V30 5784 H 935.672 1.75537 -7.96793 0
M  V30 5785 H 938.327 1.94496 -5.46629 0
M  V30 5786 H 938.606 -0.608651 -7.04676 0
M  V30 5787 H 939.598 0.889672 -7.08939 0
M  V30 5788 H 937.764 0.43308 -9.04564 0
M  V30 5789 H 937.693 -1.68366 -5.8516 0
M  V30 5790 P 939.634 2.75334 -8.47391 0
M  V30 5791 O 939.854 3.84128 -9.44797 0
M  V30 5792 O 940.424 1.51947 -8.68712 0
M  V30 5793 O 939.884 3.29363 -6.99321 0
M  V30 5794 C 938.944 4.24011 -6.4274 0
M  V30 5795 C 939.674 5.20775 -5.52155 0
M  V30 5796 O 939.884 4.56534 -4.22446 0
M  V30 5797 C 941.074 5.62629 -5.96531 0
M  V30 5798 O 941.464 6.87667 -5.41053 0
M  V30 5799 C 941.954 4.52537 -5.39283 0
M  V30 5800 C 941.244 4.20027 -4.08623 0
M  V30 5801 N 941.294 2.76189 -3.71603 0
M  V30 5802 H 938.455 4.797 -7.24003 0
M  V30 5803 H 938.185 3.69856 -5.84513 0
M  V30 5804 H 939.052 6.10356 -5.41441 0
M  V30 5805 P 943.014 7.20834 -5.23717 0
M  V30 5806 O 943.234 8.66104 -5.38572 0
M  V30 5807 O 943.804 6.33544 -6.1349 0
M  V30 5808 O 943.264 6.7751 -3.72168 0
M  V30 5809 C 942.324 7.20825 -2.7076 0
M  V30 5810 C 943.054 7.45864 -1.40599 0
M  V30 5811 O 943.264 6.17651 -0.734225 0
M  V30 5812 C 944.454 8.05808 -1.51899 0
M  V30 5813 O 944.844 8.74358 -0.335205 0
M  V30 5814 C 945.334 6.83093 -1.70294 0
M  V30 5815 C 944.624 5.79992 -0.836974 0
M  V30 5816 N 944.674 4.41864 -1.38293 0
M  V30 5817 C 944.594 3.99538 -2.69438 0
M  V30 5818 N 944.674 2.69909 -2.84277 0
M  V30 5819 C 944.814 2.21719 -1.5408 0
M  V30 5820 C 944.944 0.891712 -1.06628 0
M  V30 5821 N 945.064 0.856846 0.334985 0
M  V30 5822 C 945.064 1.9641 1.15789 0
M  V30 5823 N 945.194 1.72708 2.46522 0
M  V30 5824 N 944.934 3.21165 0.713741 0
M  V30 5825 C 944.814 3.26797 -0.639748 0
M  V30 5826 H 941.835 8.13644 -3.0377 0
M  V30 5827 H 941.565 6.42788 -2.55485 0
M  V30 5828 H 942.432 8.12039 -0.792769 0
M  V30 5829 P 946.394 8.91 7.02954e-12 0
M  V30 5830 O 946.614 10.1726 0.733694 0
M  V30 5831 O 947.184 8.73148 -1.23936 0
M  V30 5832 O 946.644 7.66872 0.971405 0
M  V30 5833 C 945.704 7.42309 2.04641 0
M  V30 5834 C 946.434 6.86059 3.24661 0
M  V30 5835 O 946.644 5.42847 3.03646 0
M  V30 5836 C 947.834 7.41196 3.50753 0
M  V30 5837 O 948.224 7.27073 4.86816 0
M  V30 5838 C 948.714 6.5273 2.63741 0
M  V30 5839 C 948.004 5.1842 2.73198 0
M  V30 5840 N 948.054 4.38762 1.4784 0
M  V30 5841 C 947.974 4.81605 0.168631 0
M  V30 5842 N 948.054 3.85454 -0.713363 0
M  V30 5843 C 948.194 2.6994 0.0566958 0
M  V30 5844 C 948.324 1.34815 -0.338502 0
M  V30 5845 O 948.344 0.869548 -1.47125 0
M  V30 5846 N 948.444 0.496304 0.77465 0
M  V30 5847 C 948.444 0.908403 2.09122 0
M  V30 5848 N 948.574 -0.0517805 3.00955 0
M  V30 5849 N 948.314 2.17875 2.46519 0
M  V30 5850 C 948.194 3.01988 1.4033 0
M  V30 5851 H 945.215 8.36803 2.32493 0
M  V30 5852 H 944.945 6.70197 1.71129 0
M  V30 5853 H 945.812 7.03551 4.13168 0
M  V30 5854 H 948.467 4.59498 3.54415 0
M  V30 5855 H 948.746 6.88898 1.59848 0
M  V30 5856 H 949.738 6.46749 3.03687 0
M  V30 5857 H 947.904 8.46908 3.20714 0
M  V30 5858 H 947.855 5.86405 -0.105564 0
M  V30 5859 H 948.537 -0.483664 0.597855 0
M  V30 5860 H 948.574 0.187865 4.0116 0
M  V30 5861 H 948.675 -1.03585 2.71726 0
M  V30 5862 P 949.774 7.20834 5.23717 0
M  V30 5863 O 949.994 7.79853 6.57286 0
M  V30 5864 O 950.564 7.79239 4.12957 0
M  V30 5865 O 950.024 5.63315 5.29344 0
M  V30 5866 C 949.084 4.80255 6.01876 0
M  V30 5867 C 949.814 3.64202 6.65911 0
M  V30 5868 O 950.024 2.60694 5.64732 0
M  V30 5869 C 951.214 3.93473 7.1943 0
M  V30 5870 O 951.604 3.02071 8.21205 0
M  V30 5871 C 952.094 3.73047 5.97036 0
M  V30 5872 C 951.384 2.58828 5.25741 0
M  V30 5873 N 951.434 2.68068 3.77503 0
M  V30 5874 H 948.595 5.40332 6.79951 0
M  V30 5875 H 948.325 4.41613 5.32378 0
M  V30 5876 H 949.192 3.26331 7.47797 0
M  V30 5877 P 953.154 2.75334 8.47391 0
M  V30 5878 O 953.374 2.44571 9.90142 0
M  V30 5879 O 953.944 3.87688 7.92115 0
M  V30 5880 O 953.404 1.4459 7.59357 0
M  V30 5881 C 952.464 0.347608 7.69215 0
M  V30 5882 C 953.194 -0.96767 7.52806 0
M  V30 5883 O 953.404 -1.21036 6.1011 0
M  V30 5884 C 954.594 -1.04544 8.13308 0
M  V30 5885 O 954.984 -2.38311 8.41922 0
M  V30 5886 C 955.474 -0.491279 7.02284 0
M  V30 5887 C 954.764 -0.996264 5.77469 0
M  V30 5888 N 954.814 -0.0501916 4.62973 0
M  V30 5889 H 951.975 0.374722 8.67691 0
M  V30 5890 H 951.705 0.443485 6.90277 0
M  V30 5891 H 952.572 -1.75537 7.96793 0
M  V30 5892 P 956.534 -2.75334 8.47391 0
M  V30 5893 O 956.754 -3.84204 9.44982 0
M  V30 5894 O 957.324 -1.51982 8.68909 0
M  V30 5895 O 956.784 -3.29363 6.99321 0
M  V30 5896 C 955.844 -4.24066 6.42823 0
M  V30 5897 C 956.574 -5.20775 5.52155 0
M  V30 5898 O 956.784 -4.56607 4.22514 0
M  V30 5899 C 957.974 -5.62697 5.96604 0
M  V30 5900 O 958.364 -6.87667 5.41053 0
M  V30 5901 C 958.854 -4.52537 5.39283 0
M  V30 5902 C 958.144 -4.20027 4.08623 0
M  V30 5903 N 958.194 -2.76189 3.71603 0
M  V30 5904 H 955.356 -4.79756 7.24086 0
M  V30 5905 H 955.084 -3.69963 5.84682 0
M  V30 5906 H 955.952 -6.10431 5.41508 0
M  V30 5907 H 958.607 -4.78816 3.28024 0
M  V30 5908 H 958.887 -3.64957 6.05871 0
M  V30 5909 H 959.878 -4.88748 5.21323 0
M  V30 5910 H 958.044 -5.66789 7.0643 0
M  V30 5911 P 959.914 -7.20834 5.23717 0
M  V30 5912 O 960.134 -8.66104 5.38572 0
M  V30 5913 O 960.704 -6.33544 6.1349 0
M  V30 5914 O 960.164 -6.7751 3.72168 0
M  V30 5915 C 959.224 -7.20825 2.7076 0
M  V30 5916 C 959.954 -7.45864 1.40599 0
M  V30 5917 O 960.164 -6.17651 0.734225 0
M  V30 5918 C 961.354 -8.05808 1.51899 0
M  V30 5919 O 961.744 -8.74358 0.335205 0
M  V30 5920 C 962.234 -6.83093 1.70294 0
M  V30 5921 C 961.524 -5.79992 0.836974 0
M  V30 5922 N 961.574 -4.41864 1.38293 0
M  V30 5923 H 958.735 -8.13644 3.0377 0
M  V30 5924 H 958.465 -6.42788 2.55485 0
M  V30 5925 H 959.332 -8.12039 0.792769 0
M  V30 5926 P 963.294 -8.91 -7.18673e-12 0
M  V30 5927 O 963.514 -10.1726 -0.733694 0
M  V30 5928 O 964.084 -8.73148 1.23936 0
M  V30 5929 O 963.544 -7.66872 -0.971405 0
M  V30 5930 C 962.604 -7.42309 -2.04641 0
M  V30 5931 C 963.334 -6.86059 -3.24661 0
M  V30 5932 O 963.544 -5.42847 -3.03646 0
M  V30 5933 C 964.734 -7.41196 -3.50753 0
M  V30 5934 O 965.124 -7.27073 -4.86816 0
M  V30 5935 C 965.614 -6.5273 -2.63741 0
M  V30 5936 C 964.904 -5.1842 -2.73198 0
M  V30 5937 N 964.954 -4.38762 -1.4784 0
M  V30 5938 H 962.115 -8.36803 -2.32493 0
M  V30 5939 H 961.845 -6.70197 -1.71129 0
M  V30 5940 H 962.712 -7.03551 -4.13168 0
M  V30 5941 P 966.674 -7.20834 -5.23717 0
M  V30 5942 O 966.894 -7.79853 -6.57286 0
M  V30 5943 O 967.464 -7.79239 -4.12957 0
M  V30 5944 O 966.924 -5.63315 -5.29344 0
M  V30 5945 C 965.984 -4.80255 -6.01876 0
M  V30 5946 C 966.714 -3.64202 -6.65911 0
M  V30 5947 O 966.924 -2.60694 -5.64732 0
M  V30 5948 C 968.114 -3.93473 -7.1943 0
M  V30 5949 O 968.504 -3.02071 -8.21205 0
M  V30 5950 C 968.994 -3.73047 -5.97036 0
M  V30 5951 C 968.284 -2.58828 -5.25741 0
M  V30 5952 N 968.334 -2.68068 -3.77503 0
M  V30 5953 H 965.495 -5.40332 -6.79951 0
M  V30 5954 H 965.225 -4.41613 -5.32378 0
M  V30 5955 H 966.092 -3.26331 -7.47797 0
M  V30 5956 P 970.054 -2.75334 -8.47391 0
M  V30 5957 O 970.274 -2.44571 -9.90142 0
M  V30 5958 O 970.844 -3.87688 -7.92115 0
M  V30 5959 O 970.304 -1.4459 -7.59357 0
M  V30 5960 C 969.364 -0.347608 -7.69215 0
M  V30 5961 C 970.094 0.96767 -7.52806 0
M  V30 5962 O 970.304 1.21036 -6.1011 0
M  V30 5963 C 971.494 1.04544 -8.13308 0
M  V30 5964 O 971.884 2.38311 -8.41922 0
M  V30 5965 C 972.374 0.491279 -7.02284 0
M  V30 5966 C 971.664 0.996264 -5.77469 0
M  V30 5967 N 971.714 0.0501916 -4.62973 0
M  V30 5968 H 968.875 -0.374722 -8.67691 0
M  V30 5969 H 968.605 -0.443485 -6.90277 0
M  V30 5970 H 969.472 1.75537 -7.96793 0
M  V30 5971 P 973.434 2.75334 -8.47391 0
M  V30 5972 O 973.654 3.84128 -9.44797 0
M  V30 5973 O 974.224 1.51947 -8.68712 0
M  V30 5974 O 973.684 3.29363 -6.99321 0
M  V30 5975 C 972.744 4.24011 -6.4274 0
M  V30 5976 C 973.474 5.20775 -5.52155 0
M  V30 5977 O 973.684 4.56534 -4.22446 0
M  V30 5978 C 974.874 5.62629 -5.96531 0
M  V30 5979 O 975.264 6.87667 -5.41053 0
M  V30 5980 C 975.754 4.52537 -5.39283 0
M  V30 5981 C 975.044 4.20027 -4.08623 0
M  V30 5982 N 975.094 2.76189 -3.71603 0
M  V30 5983 H 972.255 4.797 -7.24003 0
M  V30 5984 H 971.985 3.69856 -5.84513 0
M  V30 5985 H 972.852 6.10356 -5.41441 0
M  V30 5986 P 976.814 7.20834 -5.23717 0
M  V30 5987 O 977.034 8.66104 -5.38572 0
M  V30 5988 O 977.604 6.33544 -6.1349 0
M  V30 5989 O 977.064 6.7751 -3.72168 0
M  V30 5990 C 976.124 7.20825 -2.7076 0
M  V30 5991 C 976.854 7.45864 -1.40599 0
M  V30 5992 O 977.064 6.17651 -0.734225 0
M  V30 5993 C 978.254 8.05808 -1.51899 0
M  V30 5994 O 978.644 8.74358 -0.335205 0
M  V30 5995 C 979.134 6.83093 -1.70294 0
M  V30 5996 C 978.424 5.79992 -0.836974 0
M  V30 5997 N 978.474 4.41864 -1.38293 0
M  V30 5998 C 978.394 3.99538 -2.69438 0
M  V30 5999 N 978.474 2.69909 -2.84277 0
M  V30 6000 C 978.614 2.21719 -1.5408 0
M  V30 6001 C 978.744 0.891712 -1.06628 0
M  V30 6002 N 978.864 0.856846 0.334985 0
M  V30 6003 C 978.864 1.9641 1.15789 0
M  V30 6004 N 978.994 1.72708 2.46522 0
M  V30 6005 N 978.734 3.21165 0.713741 0
M  V30 6006 C 978.614 3.26797 -0.639748 0
M  V30 6007 H 975.635 8.13644 -3.0377 0
M  V30 6008 H 975.365 6.42788 -2.55485 0
M  V30 6009 H 976.232 8.12039 -0.792769 0
M  V30 6010 P 980.194 8.91 7.34391e-12 0
M  V30 6011 O 980.414 10.1726 0.733694 0
M  V30 6012 O 980.984 8.73148 -1.23936 0
M  V30 6013 O 980.444 7.66872 0.971405 0
M  V30 6014 C 979.504 7.42309 2.04641 0
M  V30 6015 C 980.234 6.86059 3.24661 0
M  V30 6016 O 980.444 5.42847 3.03646 0
M  V30 6017 C 981.634 7.41196 3.50753 0
M  V30 6018 O 982.024 7.27073 4.86816 0
M  V30 6019 C 982.514 6.5273 2.63741 0
M  V30 6020 C 981.804 5.1842 2.73198 0
M  V30 6021 N 981.854 4.38762 1.4784 0
M  V30 6022 H 979.015 8.36803 2.32493 0
M  V30 6023 H 978.745 6.70197 1.71129 0
M  V30 6024 H 979.612 7.03551 4.13168 0
M  V30 6025 P 983.574 7.20834 5.23717 0
M  V30 6026 O 983.794 7.80006 6.57415 0
M  V30 6027 O 984.364 7.79416 4.13051 0
M  V30 6028 O 983.824 5.63315 5.29344 0
M  V30 6029 C 982.884 4.80318 6.01954 0
M  V30 6030 C 983.614 3.64202 6.65911 0
M  V30 6031 O 983.824 2.60736 5.64823 0
M  V30 6032 C 985.014 3.93521 7.19518 0
M  V30 6033 O 985.404 3.02071 8.21205 0
M  V30 6034 C 985.894 3.73047 5.97036 0
M  V30 6035 C 985.184 2.58828 5.25741 0
M  V30 6036 N 985.234 2.68068 3.77503 0
M  V30 6037 C 985.154 3.80474 2.99159 0
M  V30 6038 N 985.224 3.55622 1.71925 0
M  V30 6039 C 985.374 2.1832 1.65733 0
M  V30 6040 C 985.504 1.28842 0.572777 0
M  V30 6041 N 985.514 1.66875 -0.70098 0
M  V30 6042 N 985.624 -0.016788 0.859836 0
M  V30 6043 C 985.614 -0.398145 2.13316 0
M  V30 6044 N 985.494 0.328224 3.22333 0
M  V30 6045 C 985.374 1.62992 2.90383 0
M  V30 6046 H 982.396 5.40394 6.8003 0
M  V30 6047 H 982.124 4.41741 5.32532 0
M  V30 6048 H 982.992 3.26371 7.47889 0
M  V30 6049 H 985.647 1.64007 5.56746 0
M  V30 6050 H 985.927 4.63439 5.3432 0
M  V30 6051 H 986.918 3.44776 6.25925 0
M  V30 6052 H 985.084 4.96707 7.57347 0
M  V30 6053 H 985.043 4.8089 3.39924 0
M  V30 6054 H 985.424 2.66547 -0.941919 0
M  V30 6055 H 985.613 0.965341 -1.44766 0
M  V30 6056 H 985.721 -1.46427 2.29697 0
M  V30 6057 P 986.954 2.75334 8.47391 0
M  V30 6058 O 987.174 2.44571 9.90142 0
M  V30 6059 O 987.744 3.87688 7.92115 0
M  V30 6060 O 987.204 1.4459 7.59357 0
M  V30 6061 C 986.264 0.347608 7.69215 0
M  V30 6062 C 986.994 -0.96767 7.52806 0
M  V30 6063 O 987.204 -1.21036 6.1011 0
M  V30 6064 C 988.394 -1.04544 8.13308 0
M  V30 6065 O 988.784 -2.38311 8.41922 0
M  V30 6066 C 989.274 -0.491279 7.02284 0
M  V30 6067 C 988.564 -0.996264 5.77469 0
M  V30 6068 N 988.614 -0.0501916 4.62973 0
M  V30 6069 H 985.775 0.374722 8.67691 0
M  V30 6070 H 985.505 0.443485 6.90277 0
M  V30 6071 H 986.372 -1.75537 7.96793 0
M  V30 6072 P 990.334 -2.75334 8.47391 0
M  V30 6073 O 990.554 -3.84128 9.44797 0
M  V30 6074 O 991.124 -1.51947 8.68712 0
M  V30 6075 O 990.584 -3.29363 6.99321 0
M  V30 6076 C 989.644 -4.24011 6.4274 0
M  V30 6077 C 990.374 -5.20775 5.52155 0
M  V30 6078 O 990.584 -4.56534 4.22446 0
M  V30 6079 C 991.774 -5.62629 5.96531 0
M  V30 6080 O 992.164 -6.87667 5.41053 0
M  V30 6081 C 992.654 -4.52537 5.39283 0
M  V30 6082 C 991.944 -4.20027 4.08623 0
M  V30 6083 N 991.994 -2.76189 3.71603 0
M  V30 6084 H 989.155 -4.797 7.24003 0
M  V30 6085 H 988.885 -3.69856 5.84513 0
M  V30 6086 H 989.752 -6.10356 5.41441 0
M  V30 6087 P 993.714 -7.20834 5.23717 0
M  V30 6088 O 993.934 -8.66104 5.38572 0
M  V30 6089 O 994.504 -6.33544 6.1349 0
M  V30 6090 O 993.964 -6.7751 3.72168 0
M  V30 6091 C 993.024 -7.20825 2.7076 0
M  V30 6092 C 993.754 -7.45864 1.40599 0
M  V30 6093 O 993.964 -6.17651 0.734225 0
M  V30 6094 C 995.154 -8.05808 1.51899 0
M  V30 6095 O 995.544 -8.74358 0.335205 0
M  V30 6096 C 996.034 -6.83093 1.70294 0
M  V30 6097 C 995.324 -5.79992 0.836974 0
M  V30 6098 N 995.374 -4.41864 1.38293 0
M  V30 6099 H 992.535 -8.13644 3.0377 0
M  V30 6100 H 992.265 -6.42788 2.55485 0
M  V30 6101 H 993.132 -8.12039 0.792769 0
M  V30 6102 P 997.094 -8.91 -7.50109e-12 0
M  V30 6103 O 997.314 -10.1736 -0.733766 0
M  V30 6104 O 997.884 -8.73247 1.2395 0
M  V30 6105 O 997.344 -7.66872 -0.971405 0
M  V30 6106 C 996.404 -7.42212 -2.04614 0
M  V30 6107 C 997.134 -6.86059 -3.24661 0
M  V30 6108 O 997.344 -5.42847 -3.03646 0
M  V30 6109 C 998.534 -7.41196 -3.50753 0
M  V30 6110 O 998.924 -7.27073 -4.86816 0
M  V30 6111 C 999.414 -6.5273 -2.63741 0
M  V30 6112 C 998.704 -5.1842 -2.73198 0
M  V30 6113 N 998.754 -4.38668 -1.47808 0
M  V30 6114 C 998.904 -3.02239 -1.60048 0
M  V30 6115 O 998.994 -2.46459 -2.67869 0
M  V30 6116 N 998.944 -2.32436 -0.408571 0
M  V30 6117 C 998.854 -2.85471 0.854993 0
M  V30 6118 O 998.904 -2.12566 1.8531 0
M  V30 6119 C 998.704 -4.28918 0.887335 0
M  V30 6120 C 998.594 -4.91066 2.24619 0
M  V30 6121 C 998.654 -5.00349 -0.255399 0
M  V30 6122 H 995.914 -8.36803 -2.32493 0
M  V30 6123 H 995.645 -6.701 -1.71105 0
M  V30 6124 H 996.512 -7.03551 -4.13168 0
M  V30 6125 H 999.167 -4.59773 -3.53894 0
M  V30 6126 H 999.446 -6.88995 -1.59871 0
M  V30 6127 H 1000.44 -6.46749 -3.03687 0
M  V30 6128 H 998.604 -8.46908 -3.20714 0
M  V30 6129 H 998.533 -6.08548 -0.206986 0
M  V30 6130 H 999.563 -5.34836 2.53099 0
M  V30 6131 H 997.826 -5.69638 2.2291 0
M  V30 6132 H 998.314 -4.13971 2.98044 0
M  V30 6133 H 999.05 -1.33211 -0.474216 0
M  V30 6134 P 1000.47 -7.20834 -5.23717 0
M  V30 6135 O 1000.69 -7.79853 -6.57286 0
M  V30 6136 O 1001.26 -7.79239 -4.12957 0
M  V30 6137 O 1000.72 -5.63315 -5.29344 0
M  V30 6138 C 999.784 -4.80255 -6.01876 0
M  V30 6139 C 1000.51 -3.64202 -6.65911 0
M  V30 6140 O 1000.72 -2.60694 -5.64732 0
M  V30 6141 C 1001.91 -3.93473 -7.1943 0
M  V30 6142 O 1002.3 -3.02071 -8.21205 0
M  V30 6143 C 1002.79 -3.73047 -5.97036 0
M  V30 6144 C 1002.08 -2.58828 -5.25741 0
M  V30 6145 N 1002.13 -2.68068 -3.77503 0
M  V30 6146 H 999.295 -5.40332 -6.79951 0
M  V30 6147 H 999.025 -4.41613 -5.32378 0
M  V30 6148 H 999.892 -3.26331 -7.47797 0
M  V30 6149 P 1003.85 -2.75334 -8.47391 0
M  V30 6150 O 1004.07 -2.44619 -9.90336 0
M  V30 6151 O 1004.64 -3.87776 -7.92294 0
M  V30 6152 O 1004.1 -1.4459 -7.59357 0
M  V30 6153 C 1003.16 -0.347653 -7.69315 0
M  V30 6154 C 1003.89 0.96767 -7.52806 0
M  V30 6155 O 1004.1 1.21055 -6.10208 0
M  V30 6156 C 1005.29 1.04557 -8.13408 0
M  V30 6157 O 1005.68 2.38311 -8.41922 0
M  V30 6158 C 1006.17 0.491279 -7.02284 0
M  V30 6159 C 1005.46 0.996264 -5.77469 0
M  V30 6160 N 1005.51 0.0501916 -4.62973 0
M  V30 6161 C 1005.43 -1.31969 -4.65661 0
M  V30 6162 N 1005.5 -1.86649 -3.48119 0
M  V30 6163 C 1005.65 -0.792089 -2.62406 0
M  V30 6164 C 1005.78 -0.705684 -1.2207 0
M  V30 6165 N 1005.79 -1.76207 -0.413762 0
M  V30 6166 N 1005.9 0.518981 -0.685754 0
M  V30 6167 C 1005.89 1.57595 -1.49174 0
M  V30 6168 N 1005.77 1.62909 -2.80066 0
M  V30 6169 C 1005.65 0.388195 -3.3073 0
M  V30 6170 H 1002.68 -0.374765 -8.67791 0
M  V30 6171 H 1002.4 -0.443613 -6.90476 0
M  V30 6172 H 1003.27 1.75559 -7.96891 0
M  V30 6173 H 1005.93 1.94563 -5.46818 0
M  V30 6174 H 1006.21 -0.608651 -7.04676 0
M  V30 6175 H 1007.2 0.889796 -7.09039 0
M  V30 6176 H 1005.36 0.433128 -9.04664 0
M  V30 6177 H 1005.32 -1.89246 -5.57664 0
M  V30 6178 H 1005.7 -2.71005 -0.804694 0
M  V30 6179 H 1005.89 -1.63189 0.603768 0
M  V30 6180 H 1006 2.53475 -0.997614 0
M  V30 6181 H 1005.55 2.92663 -7.63961 0
M  V30 6182 H 1009.58 0.0909867 9.51056 0
M  V30 6183 O 1009.46 0.778697 8.86988 0
M  V30 6184 P 1008.01 1.17771 8.83182 0
M  V30 6185 O 1007.79 2.07206 9.98732 0
M  V30 6186 O 1007.22 -0.0743816 8.81969 0
M  V30 6187 O 1007.76 1.97652 7.47304 0
M  V30 6188 C 1008.7 3.01055 7.08599 0
M  V30 6189 C 1007.97 4.12613 6.37049 0
M  V30 6190 O 1007.76 3.72827 4.97879 0
M  V30 6191 C 1006.57 4.45719 6.88164 0
M  V30 6192 O 1006.18 5.7877 6.5624 0
M  V30 6193 C 1005.69 3.47768 6.11991 0
M  V30 6194 C 1006.4 3.39356 4.77615 0
M  V30 6195 N 1006.35 2.04571 4.15244 0
M  V30 6196 C 1006.2 1.98587 2.78314 0
M  V30 6197 O 1006.11 2.98134 2.08835 0
M  V30 6198 N 1006.16 0.714467 2.24925 0
M  V30 6199 C 1006.25 -0.470001 2.94169 0
M  V30 6200 O 1006.2 -1.55587 2.35195 0
M  V30 6201 C 1006.4 -0.312541 4.36783 0
M  V30 6202 C 1006.51 -1.57711 5.16352 0
M  V30 6203 C 1006.45 0.914512 4.92583 0
M  V30 6204 H 1009.2 3.41169 7.98575 0
M  V30 6205 H 1009.46 2.58295 6.41556 0
M  V30 6206 H 1008.6 5.02657 6.42673 0
M  V30 6207 H 1005.94 4.11637 4.08885 0
M  V30 6208 H 1005.66 2.49626 6.61679 0
M  V30 6209 H 1004.67 3.86566 6.00778 0
M  V30 6210 H 1006.51 4.29943 7.96918 0
M  V30 6211 H 1006.58 1.00937 6.00374 0
M  V30 6212 H 1005.55 -1.80153 5.63503 0
M  V30 6213 H 1007.28 -1.4566 5.94104 0
M  V30 6214 H 1006.8 -2.40664 4.49645 0
M  V30 6215 H 1006.06 0.647622 1.25697 0
M  V30 6216 P 1004.63 6.144 6.45285 0
M  V30 6217 O 1004.41 7.54673 6.86199 0
M  V30 6218 O 1003.84 5.12391 7.179 0
M  V30 6219 O 1004.38 5.99158 4.88404 0
M  V30 6220 C 1005.32 6.60234 3.96415 0
M  V30 6221 C 1004.59 7.08259 2.72856 0
M  V30 6222 O 1004.38 5.9427 1.83651 0
M  V30 6223 C 1003.19 7.64886 2.9555 0
M  V30 6224 O 1002.8 8.53963 1.90717 0
M  V30 6225 C 1002.31 6.4116 2.90739 0
M  V30 6226 C 1003.02 5.55375 1.86963 0
M  V30 6227 N 1002.97 4.09664 2.15742 0
M  V30 6228 H 1005.81 7.45574 4.45629 0
M  V30 6229 H 1006.09 5.86232 3.67314 0
M  V30 6230 H 1005.22 7.84412 2.24479 0
M  V30 6231 P 1001.25 8.7635 1.60911 0
M  V30 6232 O 1001.03 10.1388 1.11561 0
M  V30 6233 O 1000.46 8.36503 2.79617 0
M  V30 6234 O 1001 7.71806 0.42951 0
M  V30 6235 C 1001.94 7.67148 -0.673689 0
M  V30 6236 C 1001.21 7.33374 -1.95559 0
M  V30 6237 O 1001 5.88721 -2.00726 0
M  V30 6238 C 999.814 7.92526 -2.10483 0
M  V30 6239 O 999.424 8.02971 -3.47653 0
M  V30 6240 C 998.934 6.89602 -1.41652 0
M  V30 6241 C 999.644 5.59201 -1.75185 0
M  V30 6242 N 999.594 4.58301 -0.657969 0
M  V30 6243 C 999.674 4.79019 0.692603 0
M  V30 6244 N 999.604 3.69736 1.38998 0
M  V30 6245 C 999.454 2.70474 0.438135 0
M  V30 6246 C 999.324 1.30327 0.538142 0
M  V30 6247 N 999.314 0.64304 1.69192 0
M  V30 6248 N 999.204 0.611027 -0.605183 0
M  V30 6249 C 999.214 1.27002 -1.75953 0
M  V30 6250 N 999.334 2.56038 -1.98546 0
M  V30 6251 C 999.454 3.22681 -0.822541 0
M  V30 6252 H 1002.43 8.65116 -0.777161 0
M  V30 6253 H 1002.71 6.9022 -0.46725 0
M  V30 6254 H 1001.84 7.66548 -2.79458 0
M  V30 6255 H 999.182 5.16165 -2.65183 0
M  V30 6256 H 998.902 7.06433 -0.329384 0
M  V30 6257 H 997.911 6.90926 -1.82021 0
M  V30 6258 H 999.745 8.90873 -1.62657 0
M  V30 6259 H 999.786 5.77785 1.13874 0
M  V30 6260 H 999.405 1.15585 2.57991 0
M  V30 6261 H 999.216 -0.382989 1.69835 0
M  V30 6262 H 999.108 0.653331 -2.64449 0
M  V30 6263 P 997.874 8.03563 -3.84925 0
M  V30 6264 O 997.654 8.85821 -5.0569 0
M  V30 6265 O 997.084 8.41101 -2.65469 0
M  V30 6266 O 997.624 6.4965 -4.18908 0
M  V30 6267 C 998.564 5.81037 -5.05421 0
M  V30 6268 C 997.834 4.78366 -5.89277 0
M  V30 6269 O 997.624 3.58302 -5.08433 0
M  V30 6270 C 996.434 5.17448 -6.36119 0
M  V30 6271 O 996.044 4.45271 -7.53232 0
M  V30 6272 C 995.554 4.74639 -5.19936 0
M  V30 6273 C 996.264 3.49432 -4.70418 0
M  V30 6274 N 996.214 3.32099 -3.22613 0
M  V30 6275 H 999.053 6.54213 -5.71376 0
M  V30 6276 H 999.325 5.30936 -4.43503 0
M  V30 6277 H 998.457 4.55889 -6.76652 0
M  V30 6278 H 995.802 2.61715 -5.17932 0
M  V30 6279 H 995.522 5.52155 -4.41878 0
M  V30 6280 H 994.531 4.51981 -5.53374 0
M  V30 6281 H 996.365 6.25124 -6.55234 0
M  V30 6282 P 994.494 4.23843 -7.83734 0
M  V30 6283 O 994.274 4.19407 -9.29784 0
M  V30 6284 O 993.704 5.24426 -7.09156 0
M  V30 6285 O 994.244 2.7935 -7.20758 0
M  V30 6286 C 995.184 1.7299 -7.50419 0
M  V30 6287 C 994.454 0.406376 -7.57911 0
M  V30 6288 O 994.244 -0.0897726 -6.21935 0
M  V30 6289 C 993.054 0.447224 -8.1878 0
M  V30 6290 O 992.664 -0.825065 -8.71101 0
M  V30 6291 C 992.174 0.783801 -6.99623 0
M  V30 6292 C 992.884 0.0619192 -5.85967 0
M  V30 6293 N 992.834 0.7859 -4.56281 0
M  V30 6294 H 995.673 1.93423 -8.4679 0
M  V30 6295 H 995.945 1.68181 -6.71046 0
M  V30 6296 H 995.077 -0.289041 -8.15388 0
M  V30 6297 P 991.114 -1.17771 -8.83182 0
M  V30 6298 O 990.894 -2.07206 -9.98732 0
M  V30 6299 O 990.324 0.0743816 -8.81969 0
M  V30 6300 O 990.864 -1.97652 -7.47304 0
M  V30 6301 C 991.804 -3.01133 -7.08783 0
M  V30 6302 C 991.074 -4.12613 -6.37049 0
M  V30 6303 O 990.864 -3.72827 -4.97879 0
M  V30 6304 C 989.674 -4.45085 -6.88694 0
M  V30 6305 O 989.284 -5.7877 -6.5624 0
M  V30 6306 C 988.794 -3.47817 -6.12078 0
M  V30 6307 C 989.504 -3.39414 -4.77697 0
M  V30 6308 N 989.454 -2.04615 -4.15333 0
M  V30 6309 H 992.293 -3.41248 -7.98759 0
M  V30 6310 H 992.565 -2.5837 -6.41742 0
M  V30 6311 H 991.697 -5.02657 -6.42673 0
M  V30 6312 P 987.734 -6.144 -6.45285 0
M  V30 6313 O 987.514 -7.54673 -6.86199 0
M  V30 6314 O 986.944 -5.12391 -7.179 0
M  V30 6315 O 987.484 -5.99158 -4.88404 0
M  V30 6316 C 988.424 -6.60062 -3.96313 0
M  V30 6317 C 987.694 -7.08259 -2.72856 0
M  V30 6318 O 987.484 -5.9427 -1.83651 0
M  V30 6319 C 986.294 -7.65087 -2.94749 0
M  V30 6320 O 985.904 -8.53963 -1.90717 0
M  V30 6321 C 985.414 -6.41069 -2.90698 0
M  V30 6322 C 986.124 -5.5528 -1.86931 0
M  V30 6323 N 986.074 -4.09575 -2.15696 0
M  V30 6324 C 985.924 -3.24249 -1.08435 0
M  V30 6325 O 985.834 -3.63946 0.0628747 0
M  V30 6326 N 985.884 -1.90009 -1.39973 0
M  V30 6327 C 985.974 -1.34884 -2.65614 0
M  V30 6328 O 985.924 -0.123716 -2.81728 0
M  V30 6329 C 986.124 -2.3145 -3.71736 0
M  V30 6330 C 986.234 -1.75913 -5.10438 0
M  V30 6331 C 986.174 -3.63518 -3.44754 0
M  V30 6332 H 988.915 -7.45402 -4.45526 0
M  V30 6333 H 989.184 -5.86062 -3.67208 0
M  V30 6334 H 988.317 -7.84412 -2.24479 0
M  V30 6335 H 985.662 -5.73358 -0.888409 0
M  V30 6336 H 985.383 -5.90877 -3.88583 0
M  V30 6337 H 984.391 -6.65867 -2.58821 0
M  V30 6338 H 986.225 -8.16248 -3.92006 0
M  V30 6339 H 986.296 -4.34551 -4.26383 0
M  V30 6340 H 985.266 -1.85471 -5.61775 0
M  V30 6341 H 987.003 -2.31364 -5.66257 0
M  V30 6342 H 986.515 -0.695936 -5.05229 0
M  V30 6343 H 985.779 -1.26277 -0.63625 0
M  V30 6344 P 984.354 -8.7635 -1.60911 0
M  V30 6345 O 984.134 -10.1388 -1.11561 0
M  V30 6346 O 983.564 -8.36503 -2.79617 0
M  V30 6347 O 984.104 -7.71806 -0.42951 0
M  V30 6348 C 985.044 -7.67148 0.673689 0
M  V30 6349 C 984.314 -7.33374 1.95559 0
M  V30 6350 O 984.104 -5.88721 2.00726 0
M  V30 6351 C 982.914 -7.92526 2.10483 0
M  V30 6352 O 982.524 -8.02971 3.47653 0
M  V30 6353 C 982.034 -6.89602 1.41652 0
M  V30 6354 C 982.744 -5.59201 1.75185 0
M  V30 6355 N 982.694 -4.58235 0.662552 0
M  V30 6356 H 985.533 -8.65116 0.777161 0
M  V30 6357 H 985.805 -6.90173 0.474152 0
M  V30 6358 H 984.937 -7.66548 2.79458 0
M  V30 6359 P 980.974 -8.03563 3.84925 0
M  V30 6360 O 980.754 -8.85821 5.0569 0
M  V30 6361 O 980.184 -8.41101 2.65469 0
M  V30 6362 O 980.724 -6.4965 4.18908 0
M  V30 6363 C 981.664 -5.80886 5.05289 0
M  V30 6364 C 980.934 -4.78366 5.89277 0
M  V30 6365 O 980.724 -3.58302 5.08433 0
M  V30 6366 C 979.534 -5.16748 6.36559 0
M  V30 6367 O 979.144 -4.45271 7.53232 0
M  V30 6368 C 978.654 -4.74572 5.19863 0
M  V30 6369 C 979.364 -3.49373 4.70338 0
M  V30 6370 N 979.314 -3.31704 3.22876 0
M  V30 6371 C 979.164 -2.03326 2.74871 0
M  V30 6372 O 979.074 -1.06486 3.48076 0
M  V30 6373 N 979.124 -1.91838 1.37456 0
M  V30 6374 C 979.214 -2.94295 0.462035 0
M  V30 6375 C 979.364 -4.25064 1.05249 0
M  V30 6376 C 979.414 -4.40214 2.39192 0
M  V30 6377 H 982.155 -6.54063 5.71245 0
M  V30 6378 H 982.424 -5.30339 4.43905 0
M  V30 6379 H 981.557 -4.55889 6.76652 0
M  V30 6380 H 978.902 -2.6167 5.17842 0
M  V30 6381 H 978.623 -5.52155 4.41878 0
M  V30 6382 H 977.631 -4.51918 5.53297 0
M  V30 6383 H 979.465 -6.25055 6.55162 0
M  V30 6384 H 979.536 -5.39798 2.81523 0
M  V30 6385 P 977.594 -4.23843 7.83734 0
M  V30 6386 O 977.374 -4.19407 9.29784 0
M  V30 6387 O 976.804 -5.24426 7.09156 0
M  V30 6388 O 977.344 -2.7935 7.20758 0
M  V30 6389 C 978.284 -1.7299 7.50419 0
M  V30 6390 C 977.554 -0.406376 7.57911 0
M  V30 6391 O 977.344 0.0897726 6.21935 0
M  V30 6392 C 976.154 -0.447224 8.1878 0
M  V30 6393 O 975.764 0.825065 8.71101 0
M  V30 6394 C 975.274 -0.783801 6.99623 0
M  V30 6395 C 975.984 -0.0619192 5.85967 0
M  V30 6396 N 975.934 -0.790462 4.56202 0
M  V30 6397 H 978.773 -1.93423 8.4679 0
M  V30 6398 H 979.045 -1.68852 6.70877 0
M  V30 6399 H 978.177 0.289041 8.15388 0
M  V30 6400 H 975.522 0.927006 5.72848 0
M  V30 6401 H 975.242 -1.86973 6.82036 0
M  V30 6402 H 974.251 -0.403953 7.13357 0
M  V30 6403 H 976.085 -1.20599 8.97534 0
M  V30 6404 P 974.214 1.17771 8.83182 0
M  V30 6405 O 973.994 2.07206 9.98732 0
M  V30 6406 O 973.424 -0.0743816 8.81969 0
M  V30 6407 O 973.964 1.97652 7.47304 0
M  V30 6408 C 974.904 3.01133 7.08783 0
M  V30 6409 C 974.174 4.12613 6.37049 0
M  V30 6410 O 973.964 3.72827 4.97879 0
M  V30 6411 C 972.774 4.45085 6.88694 0
M  V30 6412 O 972.384 5.7877 6.5624 0
M  V30 6413 C 971.894 3.47817 6.12078 0
M  V30 6414 C 972.604 3.39414 4.77697 0
M  V30 6415 N 972.554 2.04615 4.15333 0
M  V30 6416 H 975.393 3.41248 7.98759 0
M  V30 6417 H 975.665 2.5837 6.41742 0
M  V30 6418 H 974.797 5.02657 6.42673 0
M  V30 6419 P 970.834 6.144 6.45285 0
M  V30 6420 O 970.614 7.54673 6.86199 0
M  V30 6421 O 970.044 5.12391 7.179 0
M  V30 6422 O 970.584 5.99158 4.88404 0
M  V30 6423 C 971.524 6.60234 3.96415 0
M  V30 6424 C 970.794 7.08259 2.72856 0
M  V30 6425 O 970.584 5.9427 1.83651 0
M  V30 6426 C 969.394 7.64886 2.9555 0
M  V30 6427 O 969.004 8.53963 1.90717 0
M  V30 6428 C 968.514 6.4116 2.90739 0
M  V30 6429 C 969.224 5.55375 1.86963 0
M  V30 6430 N 969.174 4.09664 2.15742 0
M  V30 6431 H 972.013 7.45574 4.45629 0
M  V30 6432 H 972.285 5.86232 3.67314 0
M  V30 6433 H 971.417 7.84412 2.24479 0
M  V30 6434 P 967.454 8.7635 1.60911 0
M  V30 6435 O 967.234 10.1388 1.11561 0
M  V30 6436 O 966.664 8.36503 2.79617 0
M  V30 6437 O 967.204 7.71806 0.42951 0
M  V30 6438 C 968.144 7.67148 -0.673689 0
M  V30 6439 C 967.414 7.33374 -1.95559 0
M  V30 6440 O 967.204 5.88721 -2.00726 0
M  V30 6441 C 966.014 7.92526 -2.10483 0
M  V30 6442 O 965.624 8.02971 -3.47653 0
M  V30 6443 C 965.134 6.89602 -1.41652 0
M  V30 6444 C 965.844 5.59201 -1.75185 0
M  V30 6445 N 965.794 4.58301 -0.657969 0
M  V30 6446 H 968.633 8.65116 -0.777161 0
M  V30 6447 H 968.905 6.9022 -0.46725 0
M  V30 6448 H 968.037 7.66548 -2.79458 0
M  V30 6449 H 965.382 5.16165 -2.65183 0
M  V30 6450 H 965.102 7.06433 -0.329384 0
M  V30 6451 H 964.111 6.90926 -1.82021 0
M  V30 6452 H 965.945 8.90873 -1.62657 0
M  V30 6453 P 964.074 8.03563 -3.84925 0
M  V30 6454 O 963.854 8.85821 -5.0569 0
M  V30 6455 O 963.284 8.41101 -2.65469 0
M  V30 6456 O 963.824 6.4965 -4.18908 0
M  V30 6457 C 964.764 5.81037 -5.05421 0
M  V30 6458 C 964.034 4.78366 -5.89277 0
M  V30 6459 O 963.824 3.58302 -5.08433 0
M  V30 6460 C 962.634 5.17448 -6.36119 0
M  V30 6461 O 962.244 4.45271 -7.53232 0
M  V30 6462 C 961.754 4.74639 -5.19936 0
M  V30 6463 C 962.464 3.49432 -4.70418 0
M  V30 6464 N 962.414 3.31776 -3.22945 0
M  V30 6465 H 965.253 6.54213 -5.71376 0
M  V30 6466 H 965.525 5.30492 -4.44033 0
M  V30 6467 H 964.657 4.55889 -6.76652 0
M  V30 6468 P 960.694 4.23843 -7.83734 0
M  V30 6469 O 960.474 4.19407 -9.29784 0
M  V30 6470 O 959.904 5.24426 -7.09156 0
M  V30 6471 O 960.444 2.7935 -7.20758 0
M  V30 6472 C 961.384 1.7299 -7.50419 0
M  V30 6473 C 960.654 0.406376 -7.57911 0
M  V30 6474 O 960.444 -0.0897726 -6.21935 0
M  V30 6475 C 959.254 0.447224 -8.1878 0
M  V30 6476 O 958.864 -0.825065 -8.71101 0
M  V30 6477 C 958.374 0.783801 -6.99623 0
M  V30 6478 C 959.084 0.0619192 -5.85967 0
M  V30 6479 N 959.034 0.7859 -4.56281 0
M  V30 6480 H 961.873 1.93423 -8.4679 0
M  V30 6481 H 962.145 1.68181 -6.71046 0
M  V30 6482 H 961.277 -0.289041 -8.15388 0
M  V30 6483 P 957.314 -1.17771 -8.83182 0
M  V30 6484 O 957.094 -2.07206 -9.98732 0
M  V30 6485 O 956.524 0.0743816 -8.81969 0
M  V30 6486 O 957.064 -1.97652 -7.47304 0
M  V30 6487 C 958.004 -3.01133 -7.08783 0
M  V30 6488 C 957.274 -4.12613 -6.37049 0
M  V30 6489 O 957.064 -3.72827 -4.97879 0
M  V30 6490 C 955.874 -4.45085 -6.88694 0
M  V30 6491 O 955.484 -5.7877 -6.5624 0
M  V30 6492 C 954.994 -3.47817 -6.12078 0
M  V30 6493 C 955.704 -3.39414 -4.77697 0
M  V30 6494 N 955.654 -2.04615 -4.15333 0
M  V30 6495 H 958.493 -3.41248 -7.98759 0
M  V30 6496 H 958.765 -2.5837 -6.41742 0
M  V30 6497 H 957.897 -5.02657 -6.42673 0
M  V30 6498 P 953.934 -6.144 -6.45285 0
M  V30 6499 O 953.714 -7.54673 -6.86199 0
M  V30 6500 O 953.144 -5.12391 -7.179 0
M  V30 6501 O 953.684 -5.99158 -4.88404 0
M  V30 6502 C 954.624 -6.60234 -3.96415 0
M  V30 6503 C 953.894 -7.08259 -2.72856 0
M  V30 6504 O 953.684 -5.9427 -1.83651 0
M  V30 6505 C 952.494 -7.64886 -2.9555 0
M  V30 6506 O 952.104 -8.53963 -1.90717 0
M  V30 6507 C 951.614 -6.4116 -2.90739 0
M  V30 6508 C 952.324 -5.55375 -1.86963 0
M  V30 6509 N 952.274 -4.09448 -2.16152 0
M  V30 6510 H 955.113 -7.45574 -4.45629 0
M  V30 6511 H 955.385 -5.85864 -3.679 0
M  V30 6512 H 954.517 -7.84412 -2.24479 0
M  V30 6513 H 951.862 -5.73457 -0.888562 0
M  V30 6514 H 951.582 -5.90877 -3.88583 0
M  V30 6515 H 950.591 -6.6596 -2.58858 0
M  V30 6516 H 952.425 -8.16339 -3.92049 0
M  V30 6517 P 950.554 -8.7635 -1.60911 0
M  V30 6518 O 950.334 -10.1388 -1.11561 0
M  V30 6519 O 949.764 -8.36503 -2.79617 0
M  V30 6520 O 950.304 -7.71906 -0.429565 0
M  V30 6521 C 951.244 -7.67148 0.673689 0
M  V30 6522 C 950.514 -7.33666 1.94851 0
M  V30 6523 O 950.304 -5.88816 2.00759 0
M  V30 6524 C 949.114 -7.92526 2.10483 0
M  V30 6525 O 948.724 -8.03063 3.47693 0
M  V30 6526 C 948.234 -6.89602 1.41652 0
M  V30 6527 C 948.944 -5.59201 1.75185 0
M  V30 6528 N 948.894 -4.58235 0.662552 0
M  V30 6529 C 948.744 -3.24451 1.01643 0
M  V30 6530 O 948.654 -2.94958 2.21722 0
M  V30 6531 N 948.694 -2.30408 -0.165238 0
M  V30 6532 C 948.794 -2.66048 -1.25118 0
M  V30 6533 N 948.744 -1.70787 -2.16813 0
M  V30 6534 C 948.944 -4.02732 -1.64413 0
M  V30 6535 C 948.994 -4.9488 -0.63991 0
M  V30 6536 H 951.734 -8.65017 0.777072 0
M  V30 6537 H 952.004 -6.90173 0.474152 0
M  V30 6538 H 951.137 -7.66642 2.79492 0
M  V30 6539 H 948.482 -5.16254 2.65229 0
M  V30 6540 H 948.202 -7.06532 0.329431 0
M  V30 6541 H 947.211 -6.91023 1.82047 0
M  V30 6542 H 949.045 -8.90873 1.62657 0
M  V30 6543 H 949.117 -6.00104 -0.892197 0
M  V30 6544 H 949.015 -4.31733 -2.69229 0
M  V30 6545 H 948.627 -0.724835 -1.8844 0
M  V30 6546 H 948.823 -1.94716 -3.16734 0
M  V30 6547 P 947.174 -8.03563 3.84925 0
M  V30 6548 O 946.954 -8.85821 5.0569 0
M  V30 6549 O 946.384 -8.41101 2.65469 0
M  V30 6550 O 946.924 -6.4965 4.18908 0
M  V30 6551 C 947.864 -5.80886 5.05289 0
M  V30 6552 C 947.134 -4.78366 5.89277 0
M  V30 6553 O 946.924 -3.58302 5.08433 0
M  V30 6554 C 945.734 -5.16748 6.36559 0
M  V30 6555 O 945.344 -4.45271 7.53232 0
M  V30 6556 C 944.854 -4.74572 5.19863 0
M  V30 6557 C 945.564 -3.49373 4.70338 0
M  V30 6558 N 945.514 -3.31704 3.22876 0
M  V30 6559 C 945.364 -2.03326 2.74871 0
M  V30 6560 O 945.274 -1.06486 3.48076 0
M  V30 6561 N 945.324 -1.91838 1.37456 0
M  V30 6562 C 945.414 -2.94295 0.462035 0
M  V30 6563 C 945.564 -4.25064 1.05249 0
M  V30 6564 C 945.614 -4.40214 2.39192 0
M  V30 6565 H 948.355 -6.54063 5.71245 0
M  V30 6566 H 948.624 -5.30339 4.43905 0
M  V30 6567 H 947.757 -4.55889 6.76652 0
M  V30 6568 H 945.102 -2.6167 5.17842 0
M  V30 6569 H 944.823 -5.52155 4.41878 0
M  V30 6570 H 943.831 -4.51918 5.53297 0
M  V30 6571 H 945.665 -6.25055 6.55162 0
M  V30 6572 H 945.736 -5.39798 2.81523 0
M  V30 6573 P 943.794 -4.23843 7.83734 0
M  V30 6574 O 943.574 -4.19407 9.29784 0
M  V30 6575 O 943.004 -5.24426 7.09156 0
M  V30 6576 O 943.544 -2.7935 7.20758 0
M  V30 6577 C 944.484 -1.7299 7.50419 0
M  V30 6578 C 943.754 -0.406376 7.57911 0
M  V30 6579 O 943.544 0.0897726 6.21935 0
M  V30 6580 C 942.354 -0.447224 8.1878 0
M  V30 6581 O 941.964 0.825065 8.71101 0
M  V30 6582 C 941.474 -0.783801 6.99623 0
M  V30 6583 C 942.184 -0.0619192 5.85967 0
M  V30 6584 N 942.134 -0.7859 4.56281 0
M  V30 6585 H 944.973 -1.93423 8.4679 0
M  V30 6586 H 945.245 -1.68181 6.71046 0
M  V30 6587 H 944.377 0.289041 8.15388 0
M  V30 6588 P 940.414 1.17771 8.83182 0
M  V30 6589 O 940.194 2.07206 9.98732 0
M  V30 6590 O 939.624 -0.0743816 8.81969 0
M  V30 6591 O 940.164 1.97652 7.47304 0
M  V30 6592 C 941.104 3.01133 7.08783 0
M  V30 6593 C 940.374 4.12613 6.37049 0
M  V30 6594 O 940.164 3.72827 4.97879 0
M  V30 6595 C 938.974 4.45085 6.88694 0
M  V30 6596 O 938.584 5.7877 6.5624 0
M  V30 6597 C 938.094 3.47817 6.12078 0
M  V30 6598 C 938.804 3.39414 4.77697 0
M  V30 6599 N 938.754 2.04615 4.15333 0
M  V30 6600 C 938.834 0.803897 4.75249 0
M  V30 6601 N 938.754 -0.197615 3.91502 0
M  V30 6602 C 938.614 0.413002 2.66823 0
M  V30 6603 C 938.484 -0.157221 1.38007 0
M  V30 6604 N 938.364 0.833136 0.390236 0
M  V30 6605 C 938.364 2.19402 0.623885 0
M  V30 6606 N 938.234 2.97622 -0.449677 0
M  V30 6607 N 938.494 2.73005 1.83601 0
M  V30 6608 C 938.614 1.78786 2.80935 0
M  V30 6609 H 941.593 3.41248 7.98759 0
M  V30 6610 H 941.865 2.5837 6.41742 0
M  V30 6611 H 940.997 5.02657 6.42673 0
M  V30 6612 P 937.034 6.144 6.45285 0
M  V30 6613 O 936.814 7.54673 6.86199 0
M  V30 6614 O 936.244 5.12391 7.179 0
M  V30 6615 O 936.784 5.99158 4.88404 0
M  V30 6616 C 937.724 6.60234 3.96415 0
M  V30 6617 C 936.994 7.08259 2.72856 0
M  V30 6618 O 936.784 5.9427 1.83651 0
M  V30 6619 C 935.594 7.64886 2.9555 0
M  V30 6620 O 935.204 8.53963 1.90717 0
M  V30 6621 C 934.714 6.4116 2.90739 0
M  V30 6622 C 935.424 5.55375 1.86963 0
M  V30 6623 N 935.374 4.09664 2.15742 0
M  V30 6624 H 938.213 7.45574 4.45629 0
M  V30 6625 H 938.485 5.86232 3.67314 0
M  V30 6626 H 937.617 7.84412 2.24479 0
M  V30 6627 P 933.655 8.7635 1.60911 0
M  V30 6628 O 933.435 10.1388 1.11561 0
M  V30 6629 O 932.865 8.36503 2.79617 0
M  V30 6630 O 933.405 7.71806 0.42951 0
M  V30 6631 C 934.345 7.66948 -0.673514 0
M  V30 6632 C 933.615 7.33374 -1.95559 0
M  V30 6633 O 933.405 5.88721 -2.00726 0
M  V30 6634 C 932.215 7.92218 -2.1125 0
M  V30 6635 O 931.825 8.02971 -3.47653 0
M  V30 6636 C 931.335 6.89504 -1.41631 0
M  V30 6637 C 932.045 5.59106 -1.75155 0
M  V30 6638 N 931.995 4.58136 -0.662409 0
M  V30 6639 C 931.845 3.26059 -1.02863 0
M  V30 6640 O 931.755 2.90743 -2.19009 0
M  V30 6641 N 931.805 2.35995 0.0155585 0
M  V30 6642 C 931.895 2.65248 1.35603 0
M  V30 6643 C 932.045 4.05747 1.64698 0
M  V30 6644 C 932.095 4.96734 0.652411 0
M  V30 6645 H 934.836 8.64917 -0.776982 0
M  V30 6646 H 935.105 6.89974 -0.474015 0
M  V30 6647 H 934.238 7.66548 -2.79458 0
M  V30 6648 H 931.583 5.16076 -2.65138 0
M  V30 6649 H 931.304 7.06433 -0.329384 0
M  V30 6650 H 930.312 6.90829 -1.81996 0
M  V30 6651 H 932.146 8.90774 -1.62639 0
M  V30 6652 H 932.217 6.02181 0.895285 0
M  V30 6653 P 930.275 8.03563 -3.84925 0
M  V30 6654 O 930.055 8.85821 -5.0569 0
M  V30 6655 O 929.485 8.41101 -2.65469 0
M  V30 6656 O 930.025 6.4965 -4.18908 0
M  V30 6657 C 930.965 5.81037 -5.05421 0
M  V30 6658 C 930.235 4.78366 -5.89277 0
M  V30 6659 O 930.025 3.58302 -5.08433 0
M  V30 6660 C 928.835 5.17448 -6.36119 0
M  V30 6661 O 928.445 4.45271 -7.53232 0
M  V30 6662 C 927.955 4.74639 -5.19936 0
M  V30 6663 C 928.665 3.49432 -4.70418 0
M  V30 6664 N 928.615 3.31776 -3.22945 0
M  V30 6665 H 931.454 6.54213 -5.71376 0
M  V30 6666 H 931.726 5.30492 -4.44033 0
M  V30 6667 H 930.858 4.55889 -6.76652 0
M  V30 6668 P 926.895 4.23843 -7.83734 0
M  V30 6669 O 926.675 4.19407 -9.29784 0
M  V30 6670 O 926.105 5.24426 -7.09156 0
M  V30 6671 O 926.645 2.7935 -7.20758 0
M  V30 6672 C 927.585 1.7299 -7.50419 0
M  V30 6673 C 926.855 0.406376 -7.57911 0
M  V30 6674 O 926.645 -0.0897726 -6.21935 0
M  V30 6675 C 925.455 0.447224 -8.1878 0
M  V30 6676 O 925.065 -0.825065 -8.71101 0
M  V30 6677 C 924.575 0.783801 -6.99623 0
M  V30 6678 C 925.285 0.0619192 -5.85967 0
M  V30 6679 N 925.235 0.7859 -4.56281 0
M  V30 6680 H 928.074 1.93423 -8.4679 0
M  V30 6681 H 928.346 1.68181 -6.71046 0
M  V30 6682 H 927.478 -0.289041 -8.15388 0
M  V30 6683 P 923.515 -1.17771 -8.83182 0
M  V30 6684 O 923.295 -2.07206 -9.98732 0
M  V30 6685 O 922.725 0.0743816 -8.81969 0
M  V30 6686 O 923.265 -1.97652 -7.47304 0
M  V30 6687 C 924.205 -3.01133 -7.08783 0
M  V30 6688 C 923.475 -4.12613 -6.37049 0
M  V30 6689 O 923.265 -3.72827 -4.97879 0
M  V30 6690 C 922.075 -4.45085 -6.88694 0
M  V30 6691 O 921.685 -5.7877 -6.5624 0
M  V30 6692 C 921.195 -3.47817 -6.12078 0
M  V30 6693 C 921.905 -3.39414 -4.77697 0
M  V30 6694 N 921.855 -2.04199 -4.15538 0
M  V30 6695 H 924.694 -3.41248 -7.98759 0
M  V30 6696 H 924.966 -2.57728 -6.42 0
M  V30 6697 H 924.098 -5.02657 -6.42673 0
M  V30 6698 H 921.443 -4.11708 -4.08956 0
M  V30 6699 H 921.163 -2.49626 -6.61679 0
M  V30 6700 H 920.172 -3.8662 -6.00862 0
M  V30 6701 H 922.006 -4.29991 -7.97006 0
M  V30 6702 P 920.135 -6.144 -6.45285 0
M  V30 6703 O 919.915 -7.54673 -6.86199 0
M  V30 6704 O 919.345 -5.12391 -7.179 0
M  V30 6705 O 919.885 -5.99158 -4.88404 0
M  V30 6706 C 920.825 -6.60062 -3.96313 0
M  V30 6707 C 920.095 -7.08259 -2.72856 0
M  V30 6708 O 919.885 -5.9427 -1.83651 0
M  V30 6709 C 918.695 -7.65087 -2.94749 0
M  V30 6710 O 918.305 -8.53963 -1.90717 0
M  V30 6711 C 917.815 -6.41069 -2.90698 0
M  V30 6712 C 918.525 -5.5528 -1.86931 0
M  V30 6713 N 918.475 -4.09575 -2.15696 0
M  V30 6714 C 918.325 -3.24249 -1.08435 0
M  V30 6715 O 918.235 -3.63946 0.0628747 0
M  V30 6716 N 918.285 -1.90009 -1.39973 0
M  V30 6717 C 918.375 -1.34884 -2.65614 0
M  V30 6718 C 918.525 -2.3145 -3.71736 0
M  V30 6719 C 918.575 -3.63518 -3.44754 0
M  V30 6720 H 921.316 -7.45402 -4.45526 0
M  V30 6721 H 921.585 -5.86062 -3.67208 0
M  V30 6722 H 920.718 -7.84412 -2.24479 0
M  V30 6723 H 918.063 -5.73358 -0.888409 0
M  V30 6724 H 917.784 -5.90877 -3.88583 0
M  V30 6725 H 916.792 -6.65867 -2.58821 0
M  V30 6726 H 918.626 -8.16248 -3.92006 0
M  V30 6727 H 918.697 -4.34551 -4.26383 0
M  V30 6728 P 916.755 -8.7635 -1.60911 0
M  V30 6729 O 916.535 -10.1388 -1.11561 0
M  V30 6730 O 915.965 -8.36503 -2.79617 0
M  V30 6731 O 916.505 -7.71806 -0.42951 0
M  V30 6732 C 917.445 -7.66948 0.673514 0
M  V30 6733 C 916.715 -7.33374 1.95559 0
M  V30 6734 O 916.505 -5.88721 2.00726 0
M  V30 6735 C 915.315 -7.92218 2.1125 0
M  V30 6736 O 914.925 -8.02971 3.47653 0
M  V30 6737 C 914.435 -6.89504 1.41631 0
M  V30 6738 C 915.145 -5.59106 1.75155 0
M  V30 6739 N 915.095 -4.58136 0.662409 0
M  V30 6740 C 914.945 -3.26059 1.02863 0
M  V30 6741 O 914.855 -2.90743 2.19009 0
M  V30 6742 N 914.905 -2.35995 -0.0155585 0
M  V30 6743 C 914.995 -2.65248 -1.35603 0
M  V30 6744 O 914.945 -1.75605 -2.20651 0
M  V30 6745 C 915.145 -4.05747 -1.64698 0
M  V30 6746 C 915.255 -4.42345 -3.09553 0
M  V30 6747 C 915.195 -4.96734 -0.652411 0
M  V30 6748 H 917.936 -8.64917 0.776982 0
M  V30 6749 H 918.205 -6.89974 0.474015 0
M  V30 6750 H 917.338 -7.66548 2.79458 0
M  V30 6751 H 914.683 -5.16076 2.65138 0
M  V30 6752 H 914.404 -7.06433 0.329384 0
M  V30 6753 H 913.412 -6.90829 1.81996 0
M  V30 6754 H 915.246 -8.90774 1.62639 0
M  V30 6755 H 915.317 -6.02181 -0.895285 0
M  V30 6756 H 914.287 -4.80252 -3.45468 0
M  V30 6757 H 916.024 -5.20015 -3.22119 0
M  V30 6758 H 915.536 -3.53269 -3.67833 0
M  V30 6759 H 914.8 -1.39558 0.227499 0
M  V30 6760 P 913.375 -8.03563 3.84925 0
M  V30 6761 O 913.155 -8.85821 5.0569 0
M  V30 6762 O 912.585 -8.41101 2.65469 0
M  V30 6763 O 913.125 -6.4965 4.18908 0
M  V30 6764 C 914.065 -5.81037 5.05421 0
M  V30 6765 C 913.335 -4.78366 5.89277 0
M  V30 6766 O 913.125 -3.58302 5.08433 0
M  V30 6767 C 911.935 -5.17448 6.36119 0
M  V30 6768 O 911.545 -4.45271 7.53232 0
M  V30 6769 C 911.055 -4.74639 5.19936 0
M  V30 6770 C 911.765 -3.49432 4.70418 0
M  V30 6771 N 911.715 -3.31776 3.22945 0
M  V30 6772 H 914.554 -6.54213 5.71376 0
M  V30 6773 H 914.826 -5.30492 4.44033 0
M  V30 6774 H 913.958 -4.55889 6.76652 0
M  V30 6775 P 909.995 -4.23843 7.83734 0
M  V30 6776 O 909.775 -4.19407 9.29784 0
M  V30 6777 O 909.205 -5.24426 7.09156 0
M  V30 6778 O 909.745 -2.7935 7.20758 0
M  V30 6779 C 910.685 -1.7299 7.50419 0
M  V30 6780 C 909.955 -0.406376 7.57911 0
M  V30 6781 O 909.745 0.0897726 6.21935 0
M  V30 6782 C 908.555 -0.447224 8.1878 0
M  V30 6783 O 908.165 0.825065 8.71101 0
M  V30 6784 C 907.675 -0.783801 6.99623 0
M  V30 6785 C 908.385 -0.0619192 5.85967 0
M  V30 6786 N 908.335 -0.7859 4.56281 0
M  V30 6787 H 911.174 -1.93423 8.4679 0
M  V30 6788 H 911.446 -1.68181 6.71046 0
M  V30 6789 H 910.578 0.289041 8.15388 0
M  V30 6790 P 906.615 1.17771 8.83182 0
M  V30 6791 O 906.395 2.07206 9.98732 0
M  V30 6792 O 905.825 -0.0743816 8.81969 0
M  V30 6793 O 906.365 1.97678 7.474 0
M  V30 6794 C 907.305 3.01133 7.08783 0
M  V30 6795 C 906.575 4.1203 6.37546 0
M  V30 6796 O 906.365 3.72887 4.9796 0
M  V30 6797 C 905.175 4.45085 6.88694 0
M  V30 6798 O 904.785 5.78836 6.56315 0
M  V30 6799 C 904.295 3.47817 6.12078 0
M  V30 6800 C 905.005 3.39414 4.77697 0
M  V30 6801 N 904.955 2.04615 4.15333 0
M  V30 6802 C 904.805 1.96929 2.77162 0
M  V30 6803 O 904.715 3.02017 2.12006 0
M  V30 6804 N 904.755 0.55485 2.24237 0
M  V30 6805 C 904.855 -0.367808 2.9169 0
M  V30 6806 N 904.805 -1.53426 2.29427 0
M  V30 6807 C 905.005 -0.319148 4.33828 0
M  V30 6808 C 905.055 0.920672 4.90433 0
M  V30 6809 H 907.795 3.41209 7.98667 0
M  V30 6810 H 908.065 2.5837 6.41742 0
M  V30 6811 H 907.198 5.02718 6.42752 0
M  V30 6812 H 904.543 4.11779 4.09026 0
M  V30 6813 H 904.263 2.49661 6.61772 0
M  V30 6814 H 903.272 3.86674 6.00946 0
M  V30 6815 H 905.106 4.29991 7.97006 0
M  V30 6816 H 905.178 1.00589 5.98303 0
M  V30 6817 H 905.076 -1.22639 4.93799 0
M  V30 6818 H 904.688 -1.56819 1.27167 0
M  V30 6819 H 904.884 -2.41062 2.83063 0
M  V30 6820 P 903.235 6.144 6.45285 0
M  V30 6821 O 903.015 7.54673 6.86199 0
M  V30 6822 O 902.445 5.12391 7.179 0
M  V30 6823 O 902.985 5.99158 4.88404 0
M  V30 6824 C 903.925 6.60062 3.96313 0
M  V30 6825 C 903.195 7.08259 2.72856 0
M  V30 6826 O 902.985 5.9427 1.83651 0
M  V30 6827 C 901.795 7.65087 2.94749 0
M  V30 6828 O 901.405 8.53963 1.90717 0
M  V30 6829 C 900.915 6.41069 2.90698 0
M  V30 6830 C 901.625 5.5528 1.86931 0
M  V30 6831 N 901.575 4.09575 2.15696 0
M  V30 6832 C 901.425 3.24249 1.08435 0
M  V30 6833 O 901.335 3.63946 -0.0628747 0
M  V30 6834 N 901.385 1.90009 1.39973 0
M  V30 6835 C 901.475 1.34884 2.65614 0
M  V30 6836 O 901.425 0.123716 2.81728 0
M  V30 6837 C 901.625 2.3145 3.71736 0
M  V30 6838 C 901.735 1.75913 5.10438 0
M  V30 6839 C 901.675 3.63518 3.44754 0
M  V30 6840 H 904.416 7.45402 4.45526 0
M  V30 6841 H 904.685 5.86062 3.67208 0
M  V30 6842 H 903.818 7.84412 2.24479 0
M  V30 6843 H 901.163 5.73358 0.888409 0
M  V30 6844 H 900.884 5.90877 3.88583 0
M  V30 6845 H 899.892 6.65867 2.58821 0
M  V30 6846 H 901.726 8.16248 3.92006 0
M  V30 6847 H 901.797 4.34551 4.26383 0
M  V30 6848 H 900.767 1.85471 5.61775 0
M  V30 6849 H 902.504 2.31364 5.66257 0
M  V30 6850 H 902.016 0.695936 5.05229 0
M  V30 6851 H 901.28 1.26277 0.63625 0
M  V30 6852 P 899.855 8.7635 1.60911 0
M  V30 6853 O 899.635 10.1388 1.11561 0
M  V30 6854 O 899.065 8.36503 2.79617 0
M  V30 6855 O 899.605 7.71806 0.42951 0
M  V30 6856 C 900.545 7.67148 -0.673689 0
M  V30 6857 C 899.815 7.33374 -1.95559 0
M  V30 6858 O 899.605 5.88721 -2.00726 0
M  V30 6859 C 898.415 7.92526 -2.10483 0
M  V30 6860 O 898.025 8.02971 -3.47653 0
M  V30 6861 C 897.535 6.89602 -1.41652 0
M  V30 6862 C 898.245 5.59201 -1.75185 0
M  V30 6863 N 898.195 4.58235 -0.662552 0
M  V30 6864 H 901.034 8.65116 -0.777161 0
M  V30 6865 H 901.306 6.90173 -0.474152 0
M  V30 6866 H 900.438 7.66548 -2.79458 0
M  V30 6867 P 896.475 8.03563 -3.84925 0
M  V30 6868 O 896.255 8.85821 -5.0569 0
M  V30 6869 O 895.685 8.41101 -2.65469 0
M  V30 6870 O 896.225 6.49734 -4.18962 0
M  V30 6871 C 897.165 5.81037 -5.05421 0
M  V30 6872 C 896.435 4.79018 -5.88876 0
M  V30 6873 O 896.225 3.58359 -5.08515 0
M  V30 6874 C 895.035 5.17448 -6.36119 0
M  V30 6875 O 894.645 4.45322 -7.53318 0
M  V30 6876 C 894.155 4.74639 -5.19936 0
M  V30 6877 C 894.865 3.49432 -4.70418 0
M  V30 6878 N 894.815 3.31776 -3.22945 0
M  V30 6879 C 894.665 2.02742 -2.72939 0
M  V30 6880 O 894.575 1.08301 -3.52749 0
M  V30 6881 N 894.615 1.96117 -1.22063 0
M  V30 6882 C 894.715 2.8878 -0.551566 0
M  V30 6883 N 894.665 2.65609 0.750198 0
M  V30 6884 C 894.865 4.22457 -1.03707 0
M  V30 6885 C 894.915 4.37979 -2.39113 0
M  V30 6886 H 897.655 6.54138 -5.7131 0
M  V30 6887 H 897.925 5.30492 -4.44033 0
M  V30 6888 H 897.058 4.55945 -6.76735 0
M  V30 6889 H 894.403 2.6176 -5.18021 0
M  V30 6890 H 894.123 5.52233 -4.41941 0
M  V30 6891 H 893.132 4.52045 -5.53452 0
M  V30 6892 H 894.966 6.25124 -6.55234 0
M  V30 6893 H 895.038 5.37936 -2.80552 0
M  V30 6894 H 894.936 5.07528 -0.359553 0
M  V30 6895 H 894.548 1.69403 1.09847 0
M  V30 6896 H 894.744 3.43701 1.41792 0
M  V30 6897 P 893.095 4.23843 -7.83734 0
M  V30 6898 O 892.875 4.19407 -9.29784 0
M  V30 6899 O 892.305 5.24426 -7.09156 0
M  V30 6900 O 892.845 2.7935 -7.20758 0
M  V30 6901 C 893.785 1.7299 -7.50419 0
M  V30 6902 C 893.055 0.406376 -7.57911 0
M  V30 6903 O 892.845 -0.0897726 -6.21935 0
M  V30 6904 C 891.655 0.447224 -8.1878 0
M  V30 6905 O 891.265 -0.825065 -8.71101 0
M  V30 6906 C 890.775 0.783801 -6.99623 0
M  V30 6907 C 891.485 0.0619192 -5.85967 0
M  V30 6908 N 891.435 0.7859 -4.56281 0
M  V30 6909 H 894.274 1.93423 -8.4679 0
M  V30 6910 H 894.546 1.68181 -6.71046 0
M  V30 6911 H 893.678 -0.289041 -8.15388 0
M  V30 6912 P 889.715 -1.17771 -8.83182 0
M  V30 6913 O 889.495 -2.07206 -9.98732 0
M  V30 6914 O 888.925 0.0743816 -8.81969 0
M  V30 6915 O 889.465 -1.97678 -7.474 0
M  V30 6916 C 890.405 -3.01133 -7.08783 0
M  V30 6917 C 889.675 -4.1203 -6.37546 0
M  V30 6918 O 889.465 -3.72887 -4.9796 0
M  V30 6919 C 888.275 -4.45085 -6.88694 0
M  V30 6920 O 887.885 -5.78836 -6.56315 0
M  V30 6921 C 887.395 -3.47817 -6.12078 0
M  V30 6922 C 888.105 -3.39414 -4.77697 0
M  V30 6923 N 888.055 -2.04615 -4.15333 0
M  V30 6924 C 887.905 -1.96929 -2.77162 0
M  V30 6925 O 887.815 -3.02017 -2.12006 0
M  V30 6926 N 887.855 -0.55485 -2.24237 0
M  V30 6927 C 887.955 0.367808 -2.9169 0
M  V30 6928 N 887.905 1.53426 -2.29427 0
M  V30 6929 C 888.105 0.319148 -4.33828 0
M  V30 6930 C 888.155 -0.920672 -4.90433 0
M  V30 6931 H 890.895 -3.41209 -7.98667 0
M  V30 6932 H 891.165 -2.5837 -6.41742 0
M  V30 6933 H 890.298 -5.02718 -6.42752 0
M  V30 6934 H 887.643 -4.11779 -4.09026 0
M  V30 6935 H 887.363 -2.49661 -6.61772 0
M  V30 6936 H 886.372 -3.86674 -6.00946 0
M  V30 6937 H 888.206 -4.29991 -7.97006 0
M  V30 6938 H 888.278 -1.00589 -5.98303 0
M  V30 6939 H 888.176 1.22639 -4.93799 0
M  V30 6940 H 887.788 1.56819 -1.27167 0
M  V30 6941 H 887.984 2.41062 -2.83063 0
M  V30 6942 P 886.335 -6.144 -6.45285 0
M  V30 6943 O 886.115 -7.54673 -6.86199 0
M  V30 6944 O 885.545 -5.12391 -7.179 0
M  V30 6945 O 886.085 -5.99158 -4.88404 0
M  V30 6946 C 887.025 -6.60234 -3.96415 0
M  V30 6947 C 886.295 -7.08259 -2.72856 0
M  V30 6948 O 886.085 -5.9427 -1.83651 0
M  V30 6949 C 884.895 -7.64886 -2.9555 0
M  V30 6950 O 884.505 -8.53963 -1.90717 0
M  V30 6951 C 884.015 -6.4116 -2.90739 0
M  V30 6952 C 884.725 -5.55375 -1.86963 0
M  V30 6953 N 884.675 -4.09664 -2.15742 0
M  V30 6954 H 887.514 -7.45574 -4.45629 0
M  V30 6955 H 887.786 -5.86232 -3.67314 0
M  V30 6956 H 886.918 -7.84412 -2.24479 0
M  V30 6957 P 882.955 -8.7635 -1.60911 0
M  V30 6958 O 882.735 -10.1388 -1.11561 0
M  V30 6959 O 882.165 -8.36503 -2.79617 0
M  V30 6960 O 882.705 -7.71806 -0.42951 0
M  V30 6961 C 883.645 -7.66948 0.673514 0
M  V30 6962 C 882.915 -7.33374 1.95559 0
M  V30 6963 O 882.705 -5.88721 2.00726 0
M  V30 6964 C 881.515 -7.92218 2.1125 0
M  V30 6965 O 881.125 -8.02971 3.47653 0
M  V30 6966 C 880.635 -6.89504 1.41631 0
M  V30 6967 C 881.345 -5.59106 1.75155 0
M  V30 6968 N 881.295 -4.58136 0.662409 0
M  V30 6969 C 881.145 -3.26059 1.02863 0
M  V30 6970 O 881.055 -2.90743 2.19009 0
M  V30 6971 N 881.105 -2.35995 -0.0155585 0
M  V30 6972 C 881.195 -2.65248 -1.35603 0
M  V30 6973 C 881.345 -4.05747 -1.64698 0
M  V30 6974 C 881.395 -4.96734 -0.652411 0
M  V30 6975 H 884.136 -8.64917 0.776982 0
M  V30 6976 H 884.405 -6.89974 0.474015 0
M  V30 6977 H 883.538 -7.66548 2.79458 0
M  V30 6978 H 880.883 -5.16076 2.65138 0
M  V30 6979 H 880.604 -7.06433 0.329384 0
M  V30 6980 H 879.612 -6.90829 1.81996 0
M  V30 6981 H 881.446 -8.90774 1.62639 0
M  V30 6982 H 881.517 -6.02181 -0.895285 0
M  V30 6983 P 879.575 -8.03563 3.84925 0
M  V30 6984 O 879.355 -8.85821 5.0569 0
M  V30 6985 O 878.785 -8.41101 2.65469 0
M  V30 6986 O 879.325 -6.4965 4.18908 0
M  V30 6987 C 880.265 -5.80886 5.05289 0
M  V30 6988 C 879.535 -4.78366 5.89277 0
M  V30 6989 O 879.325 -3.58302 5.08433 0
M  V30 6990 C 878.135 -5.16748 6.36559 0
M  V30 6991 O 877.745 -4.45271 7.53232 0
M  V30 6992 C 877.255 -4.74572 5.19863 0
M  V30 6993 C 877.965 -3.49373 4.70338 0
M  V30 6994 N 877.915 -3.31704 3.22876 0
M  V30 6995 C 877.765 -2.03326 2.74871 0
M  V30 6996 O 877.675 -1.06486 3.48076 0
M  V30 6997 N 877.725 -1.91838 1.37456 0
M  V30 6998 C 877.815 -2.94295 0.462035 0
M  V30 6999 O 877.765 -2.71763 -0.752928 0
M  V30 7000 C 877.965 -4.25064 1.05249 0
M  V30 7001 C 878.075 -5.39815 0.095697 0
M  V30 7002 C 878.015 -4.40214 2.39192 0
M  V30 7003 H 880.756 -6.54063 5.71245 0
M  V30 7004 H 881.025 -5.30339 4.43905 0
M  V30 7005 H 880.158 -4.55889 6.76652 0
M  V30 7006 H 877.503 -2.6167 5.17842 0
M  V30 7007 H 877.224 -5.52155 4.41878 0
M  V30 7008 H 876.232 -4.51918 5.53297 0
M  V30 7009 H 878.066 -6.25055 6.55162 0
M  V30 7010 H 878.137 -5.39798 2.81523 0
M  V30 7011 H 877.107 -5.91593 0.0279582 0
M  V30 7012 H 878.844 -6.10038 0.450573 0
M  V30 7013 H 878.356 -5.02007 -0.89937 0
M  V30 7014 H 877.62 -0.995326 1.00435 0
M  V30 7015 P 876.195 -4.23843 7.83734 0
M  V30 7016 O 875.975 -4.19407 9.29784 0
M  V30 7017 O 875.405 -5.24426 7.09156 0
M  V30 7018 O 875.945 -2.7935 7.20758 0
M  V30 7019 C 876.885 -1.72945 7.50224 0
M  V30 7020 C 876.155 -0.406376 7.57911 0
M  V30 7021 O 875.945 0.0897726 6.21935 0
M  V30 7022 C 874.755 -0.438983 8.18724 0
M  V30 7023 O 874.365 0.825065 8.71101 0
M  V30 7024 C 873.875 -0.783689 6.99524 0
M  V30 7025 C 874.585 -0.0619086 5.85867 0
M  V30 7026 N 874.535 -0.78573 4.56183 0
M  V30 7027 C 874.385 -0.0292889 3.41887 0
M  V30 7028 O 874.295 1.18445 3.4419 0
M  V30 7029 N 874.345 -0.744061 2.23964 0
M  V30 7030 C 874.435 -2.10932 2.10362 0
M  V30 7031 O 874.385 -2.64117 0.98825 0
M  V30 7032 C 874.585 -2.8202 3.34994 0
M  V30 7033 C 874.695 -4.31095 3.25037 0
M  V30 7034 C 874.635 -2.15547 4.52261 0
M  V30 7035 H 877.376 -1.93379 8.46595 0
M  V30 7036 H 877.645 -1.68132 6.70852 0
M  V30 7037 H 876.778 0.289041 8.15388 0
M  V30 7038 H 874.123 0.926847 5.72749 0
M  V30 7039 H 873.844 -1.86973 6.82036 0
M  V30 7040 H 872.852 -0.403896 7.13257 0
M  V30 7041 H 874.686 -1.20585 8.97435 0
M  V30 7042 H 874.757 -2.71231 5.45042 0
M  V30 7043 H 873.727 -4.76966 3.49992 0
M  V30 7044 H 875.464 -4.67047 3.95024 0
M  V30 7045 H 874.976 -4.58996 2.22312 0
M  V30 7046 H 874.24 -0.214893 1.39758 0
M  V30 7047 P 872.815 1.17771 8.83182 0
M  V30 7048 O 872.595 2.07206 9.98732 0
M  V30 7049 O 872.025 -0.0743816 8.81969 0
M  V30 7050 O 872.565 1.97652 7.47304 0
M  V30 7051 C 873.505 3.01055 7.08599 0
M  V30 7052 C 872.775 4.12613 6.37049 0
M  V30 7053 O 872.565 3.72827 4.97879 0
M  V30 7054 C 871.375 4.45719 6.88164 0
M  V30 7055 O 870.985 5.7877 6.5624 0
M  V30 7056 C 870.495 3.47768 6.11991 0
M  V30 7057 C 871.205 3.39356 4.77615 0
M  V30 7058 N 871.155 2.04571 4.15244 0
M  V30 7059 C 871.005 1.98587 2.78314 0
M  V30 7060 O 870.915 2.98134 2.08835 0
M  V30 7061 N 870.965 0.714467 2.24925 0
M  V30 7062 C 871.055 -0.470001 2.94169 0
M  V30 7063 O 871.005 -1.55587 2.35195 0
M  V30 7064 C 871.205 -0.312541 4.36783 0
M  V30 7065 C 871.315 -1.57711 5.16352 0
M  V30 7066 C 871.255 0.914512 4.92583 0
M  V30 7067 H 873.996 3.41169 7.98575 0
M  V30 7068 H 874.265 2.58295 6.41556 0
M  V30 7069 H 873.398 5.02657 6.42673 0
M  V30 7070 H 870.743 4.11637 4.08885 0
M  V30 7071 H 870.464 2.49626 6.61679 0
M  V30 7072 H 869.472 3.86566 6.00778 0
M  V30 7073 H 871.306 4.29943 7.96918 0
M  V30 7074 H 871.377 1.00937 6.00374 0
M  V30 7075 H 870.347 -1.80153 5.63503 0
M  V30 7076 H 872.084 -1.4566 5.94104 0
M  V30 7077 H 871.596 -2.40664 4.49645 0
M  V30 7078 H 870.86 0.647622 1.25697 0
M  V30 7079 P 869.435 6.144 6.45285 0
M  V30 7080 O 869.215 7.54673 6.86199 0
M  V30 7081 O 868.645 5.12391 7.179 0
M  V30 7082 O 869.185 5.99158 4.88404 0
M  V30 7083 C 870.125 6.60234 3.96415 0
M  V30 7084 C 869.395 7.08259 2.72856 0
M  V30 7085 O 869.185 5.9427 1.83651 0
M  V30 7086 C 867.995 7.64886 2.9555 0
M  V30 7087 O 867.605 8.53963 1.90717 0
M  V30 7088 C 867.115 6.4116 2.90739 0
M  V30 7089 C 867.825 5.55375 1.86963 0
M  V30 7090 N 867.775 4.09664 2.15742 0
M  V30 7091 H 870.614 7.45574 4.45629 0
M  V30 7092 H 870.886 5.86232 3.67314 0
M  V30 7093 H 870.018 7.84412 2.24479 0
M  V30 7094 P 866.055 8.7635 1.60911 0
M  V30 7095 O 865.835 10.1388 1.11561 0
M  V30 7096 O 865.265 8.36503 2.79617 0
M  V30 7097 O 865.805 7.71806 0.42951 0
M  V30 7098 C 866.745 7.67148 -0.673689 0
M  V30 7099 C 866.015 7.33374 -1.95559 0
M  V30 7100 O 865.805 5.88721 -2.00726 0
M  V30 7101 C 864.615 7.92526 -2.10483 0
M  V30 7102 O 864.225 8.02971 -3.47653 0
M  V30 7103 C 863.735 6.89602 -1.41652 0
M  V30 7104 C 864.445 5.59201 -1.75185 0
M  V30 7105 N 864.395 4.58235 -0.662552 0
M  V30 7106 H 867.234 8.65116 -0.777161 0
M  V30 7107 H 867.506 6.90173 -0.474152 0
M  V30 7108 H 866.638 7.66548 -2.79458 0
M  V30 7109 P 862.675 8.03563 -3.84925 0
M  V30 7110 O 862.455 8.85821 -5.0569 0
M  V30 7111 O 861.885 8.41101 -2.65469 0
M  V30 7112 O 862.425 6.4965 -4.18908 0
M  V30 7113 C 863.365 5.80886 -5.05289 0
M  V30 7114 C 862.635 4.78366 -5.89277 0
M  V30 7115 O 862.425 3.58302 -5.08433 0
M  V30 7116 C 861.235 5.16748 -6.36559 0
M  V30 7117 O 860.845 4.45271 -7.53232 0
M  V30 7118 C 860.355 4.74572 -5.19863 0
M  V30 7119 C 861.065 3.49373 -4.70338 0
M  V30 7120 N 861.015 3.31704 -3.22876 0
M  V30 7121 C 860.865 2.03326 -2.74871 0
M  V30 7122 O 860.775 1.06486 -3.48076 0
M  V30 7123 N 860.825 1.91838 -1.37456 0
M  V30 7124 C 860.915 2.94295 -0.462035 0
M  V30 7125 O 860.865 2.71763 0.752928 0
M  V30 7126 C 861.065 4.25064 -1.05249 0
M  V30 7127 C 861.175 5.39815 -0.095697 0
M  V30 7128 C 861.115 4.40214 -2.39192 0
M  V30 7129 H 863.856 6.54063 -5.71245 0
M  V30 7130 H 864.125 5.30339 -4.43905 0
M  V30 7131 H 863.258 4.55889 -6.76652 0
M  V30 7132 H 860.603 2.6167 -5.17842 0
M  V30 7133 H 860.324 5.52155 -4.41878 0
M  V30 7134 H 859.332 4.51918 -5.53297 0
M  V30 7135 H 861.166 6.25055 -6.55162 0
M  V30 7136 H 861.237 5.39798 -2.81523 0
M  V30 7137 H 860.207 5.91593 -0.0279582 0
M  V30 7138 H 861.944 6.10038 -0.450573 0
M  V30 7139 H 861.456 5.02007 0.89937 0
M  V30 7140 H 860.72 0.995326 -1.00435 0
M  V30 7141 P 859.295 4.23843 -7.83734 0
M  V30 7142 O 859.075 4.19407 -9.29784 0
M  V30 7143 O 858.505 5.24426 -7.09156 0
M  V30 7144 O 859.045 2.7935 -7.20758 0
M  V30 7145 C 859.985 1.7299 -7.50419 0
M  V30 7146 C 859.255 0.406376 -7.57911 0
M  V30 7147 O 859.045 -0.0897726 -6.21935 0
M  V30 7148 C 857.855 0.447224 -8.1878 0
M  V30 7149 O 857.465 -0.825065 -8.71101 0
M  V30 7150 C 856.975 0.783801 -6.99623 0
M  V30 7151 C 857.685 0.0619192 -5.85967 0
M  V30 7152 N 857.635 0.7859 -4.56281 0
M  V30 7153 H 860.474 1.93423 -8.4679 0
M  V30 7154 H 860.746 1.68181 -6.71046 0
M  V30 7155 H 859.878 -0.289041 -8.15388 0
M  V30 7156 P 855.915 -1.17771 -8.83182 0
M  V30 7157 O 855.695 -2.07206 -9.98732 0
M  V30 7158 O 855.125 0.0743816 -8.81969 0
M  V30 7159 O 855.665 -1.97652 -7.47304 0
M  V30 7160 C 856.605 -3.01133 -7.08783 0
M  V30 7161 C 855.875 -4.12613 -6.37049 0
M  V30 7162 O 855.665 -3.72827 -4.97879 0
M  V30 7163 C 854.475 -4.45085 -6.88694 0
M  V30 7164 O 854.085 -5.7877 -6.5624 0
M  V30 7165 C 853.595 -3.47817 -6.12078 0
M  V30 7166 C 854.305 -3.39414 -4.77697 0
M  V30 7167 N 854.255 -2.04615 -4.15333 0
M  V30 7168 H 857.094 -3.41248 -7.98759 0
M  V30 7169 H 857.366 -2.5837 -6.41742 0
M  V30 7170 H 856.498 -5.02657 -6.42673 0
M  V30 7171 P 852.535 -6.144 -6.45285 0
M  V30 7172 O 852.315 -7.54673 -6.86199 0
M  V30 7173 O 851.745 -5.12391 -7.179 0
M  V30 7174 O 852.285 -5.99158 -4.88404 0
M  V30 7175 C 853.225 -6.60234 -3.96415 0
M  V30 7176 C 852.495 -7.08259 -2.72856 0
M  V30 7177 O 852.285 -5.9427 -1.83651 0
M  V30 7178 C 851.095 -7.64886 -2.9555 0
M  V30 7179 O 850.705 -8.53963 -1.90717 0
M  V30 7180 C 850.215 -6.4116 -2.90739 0
M  V30 7181 C 850.925 -5.55375 -1.86963 0
M  V30 7182 N 850.875 -4.09448 -2.16152 0
M  V30 7183 H 853.714 -7.45574 -4.45629 0
M  V30 7184 H 853.986 -5.85864 -3.679 0
M  V30 7185 H 853.118 -7.84412 -2.24479 0
M  V30 7186 H 850.463 -5.73457 -0.888562 0
M  V30 7187 H 850.183 -5.90877 -3.88583 0
M  V30 7188 H 849.192 -6.6596 -2.58858 0
M  V30 7189 H 851.026 -8.16339 -3.92049 0
M  V30 7190 P 849.155 -8.7635 -1.60911 0
M  V30 7191 O 848.935 -10.1388 -1.11561 0
M  V30 7192 O 848.365 -8.36503 -2.79617 0
M  V30 7193 O 848.905 -7.71806 -0.42951 0
M  V30 7194 C 849.845 -7.67148 0.673689 0
M  V30 7195 C 849.115 -7.33374 1.95559 0
M  V30 7196 O 848.905 -5.88721 2.00726 0
M  V30 7197 C 847.715 -7.92526 2.10483 0
M  V30 7198 O 847.325 -8.02971 3.47653 0
M  V30 7199 C 846.835 -6.89602 1.41652 0
M  V30 7200 C 847.545 -5.59201 1.75185 0
M  V30 7201 N 847.495 -4.58235 0.662552 0
M  V30 7202 H 850.334 -8.65116 0.777161 0
M  V30 7203 H 850.606 -6.90173 0.474152 0
M  V30 7204 H 849.738 -7.66548 2.79458 0
M  V30 7205 P 845.775 -8.03563 3.84925 0
M  V30 7206 O 845.555 -8.85821 5.0569 0
M  V30 7207 O 844.985 -8.41101 2.65469 0
M  V30 7208 O 845.525 -6.4965 4.18908 0
M  V30 7209 C 846.465 -5.81037 5.05421 0
M  V30 7210 C 845.735 -4.78366 5.89277 0
M  V30 7211 O 845.525 -3.58302 5.08433 0
M  V30 7212 C 844.335 -5.17448 6.36119 0
M  V30 7213 O 843.945 -4.45271 7.53232 0
M  V30 7214 C 843.455 -4.74639 5.19936 0
M  V30 7215 C 844.165 -3.49432 4.70418 0
M  V30 7216 N 844.115 -3.31776 3.22945 0
M  V30 7217 H 846.954 -6.54213 5.71376 0
M  V30 7218 H 847.226 -5.30492 4.44033 0
M  V30 7219 H 846.358 -4.55889 6.76652 0
M  V30 7220 P 842.395 -4.23843 7.83734 0
M  V30 7221 O 842.175 -4.19407 9.29784 0
M  V30 7222 O 841.605 -5.24426 7.09156 0
M  V30 7223 O 842.145 -2.7935 7.20758 0
M  V30 7224 C 843.085 -1.7299 7.50419 0
M  V30 7225 C 842.355 -0.406376 7.57911 0
M  V30 7226 O 842.145 0.0897726 6.21935 0
M  V30 7227 C 840.955 -0.447224 8.1878 0
M  V30 7228 O 840.565 0.825065 8.71101 0
M  V30 7229 C 840.075 -0.783801 6.99623 0
M  V30 7230 C 840.785 -0.0619192 5.85967 0
M  V30 7231 N 840.735 -0.7859 4.56281 0
M  V30 7232 H 843.574 -1.93423 8.4679 0
M  V30 7233 H 843.846 -1.68181 6.71046 0
M  V30 7234 H 842.978 0.289041 8.15388 0
M  V30 7235 P 839.015 1.17771 8.83182 0
M  V30 7236 O 838.795 2.07206 9.98732 0
M  V30 7237 O 838.225 -0.0743816 8.81969 0
M  V30 7238 O 838.765 1.97652 7.47304 0
M  V30 7239 C 839.705 3.01133 7.08783 0
M  V30 7240 C 838.975 4.12613 6.37049 0
M  V30 7241 O 838.765 3.72827 4.97879 0
M  V30 7242 C 837.575 4.45085 6.88694 0
M  V30 7243 O 837.185 5.7877 6.5624 0
M  V30 7244 C 836.695 3.47817 6.12078 0
M  V30 7245 C 837.405 3.39414 4.77697 0
M  V30 7246 N 837.355 2.04615 4.15333 0
M  V30 7247 H 840.194 3.41248 7.98759 0
M  V30 7248 H 840.466 2.5837 6.41742 0
M  V30 7249 H 839.598 5.02657 6.42673 0
M  V30 7250 P 835.635 6.144 6.45285 0
M  V30 7251 O 835.415 7.54673 6.86199 0
M  V30 7252 O 834.845 5.12391 7.179 0
M  V30 7253 O 835.385 5.99236 4.88467 0
M  V30 7254 C 836.325 6.60234 3.96415 0
M  V30 7255 C 835.595 7.08079 2.736 0
M  V30 7256 O 835.385 5.94365 1.8368 0
M  V30 7257 C 834.195 7.64886 2.9555 0
M  V30 7258 O 833.805 8.5406 1.90739 0
M  V30 7259 C 833.315 6.4116 2.90739 0
M  V30 7260 C 834.025 5.55375 1.86963 0
M  V30 7261 N 833.975 4.09664 2.15742 0
M  V30 7262 C 833.825 3.22231 1.08477 0
M  V30 7263 O 833.735 3.68951 -0.0600489 0
M  V30 7264 N 833.775 1.76692 1.48799 0
M  V30 7265 C 833.875 1.41695 2.57602 0
M  V30 7266 N 833.825 0.107296 2.75791 0
M  V30 7267 C 834.025 2.29178 3.69733 0
M  V30 7268 C 834.075 3.62753 3.42653 0
M  V30 7269 H 836.815 7.45488 4.45578 0
M  V30 7270 H 837.085 5.86232 3.67314 0
M  V30 7271 H 836.218 7.84508 2.24507 0
M  V30 7272 H 833.563 5.73556 0.888715 0
M  V30 7273 H 833.283 5.9096 3.88638 0
M  V30 7274 H 832.292 6.66053 2.58894 0
M  V30 7275 H 834.126 8.16339 3.92049 0
M  V30 7276 H 834.198 4.33052 4.24913 0
M  V30 7277 H 834.096 1.9103 4.71577 0
M  V30 7278 H 833.708 -0.521221 1.95056 0
M  V30 7279 H 833.904 -0.286429 3.70695 0
M  V30 7280 P 832.255 8.7635 1.60911 0
M  V30 7281 O 832.035 10.1388 1.11561 0
M  V30 7282 O 831.465 8.36503 2.79617 0
M  V30 7283 O 832.005 7.71806 0.42951 0
M  V30 7284 C 832.945 7.66948 -0.673514 0
M  V30 7285 C 832.215 7.33374 -1.95559 0
M  V30 7286 O 832.005 5.88721 -2.00726 0
M  V30 7287 C 830.815 7.92218 -2.1125 0
M  V30 7288 O 830.425 8.02971 -3.47653 0
M  V30 7289 C 829.935 6.89504 -1.41631 0
M  V30 7290 C 830.645 5.59106 -1.75155 0
M  V30 7291 N 830.595 4.58136 -0.662409 0
M  V30 7292 C 830.445 3.26059 -1.02863 0
M  V30 7293 O 830.355 2.90743 -2.19009 0
M  V30 7294 N 830.405 2.35995 0.0155585 0
M  V30 7295 C 830.495 2.65248 1.35603 0
M  V30 7296 C 830.645 4.05747 1.64698 0
M  V30 7297 C 830.695 4.96734 0.652411 0
M  V30 7298 H 833.436 8.64917 -0.776982 0
M  V30 7299 H 833.705 6.89974 -0.474015 0
M  V30 7300 H 832.838 7.66548 -2.79458 0
M  V30 7301 H 830.183 5.16076 -2.65138 0
M  V30 7302 H 829.904 7.06433 -0.329384 0
M  V30 7303 H 828.912 6.90829 -1.81996 0
M  V30 7304 H 830.746 8.90774 -1.62639 0
M  V30 7305 H 830.817 6.02181 0.895285 0
M  V30 7306 P 828.875 8.03563 -3.84925 0
M  V30 7307 O 828.655 8.85821 -5.0569 0
M  V30 7308 O 828.085 8.41101 -2.65469 0
M  V30 7309 O 828.625 6.4965 -4.18908 0
M  V30 7310 C 829.565 5.81037 -5.05421 0
M  V30 7311 C 828.835 4.78366 -5.89277 0
M  V30 7312 O 828.625 3.58302 -5.08433 0
M  V30 7313 C 827.435 5.17448 -6.36119 0
M  V30 7314 O 827.045 4.45271 -7.53232 0
M  V30 7315 C 826.555 4.74639 -5.19936 0
M  V30 7316 C 827.265 3.49432 -4.70418 0
M  V30 7317 N 827.215 3.31776 -3.22945 0
M  V30 7318 H 830.054 6.54213 -5.71376 0
M  V30 7319 H 830.326 5.30492 -4.44033 0
M  V30 7320 H 829.458 4.55889 -6.76652 0
M  V30 7321 P 825.495 4.23843 -7.83734 0
M  V30 7322 O 825.275 4.19407 -9.29784 0
M  V30 7323 O 824.705 5.24426 -7.09156 0
M  V30 7324 O 825.245 2.7935 -7.20758 0
M  V30 7325 C 826.185 1.7299 -7.50419 0
M  V30 7326 C 825.455 0.406376 -7.57911 0
M  V30 7327 O 825.245 -0.0897726 -6.21935 0
M  V30 7328 C 824.055 0.447224 -8.1878 0
M  V30 7329 O 823.665 -0.825065 -8.71101 0
M  V30 7330 C 823.175 0.783801 -6.99623 0
M  V30 7331 C 823.885 0.0619192 -5.85967 0
M  V30 7332 N 823.835 0.7859 -4.56281 0
M  V30 7333 H 826.674 1.93423 -8.4679 0
M  V30 7334 H 826.946 1.68181 -6.71046 0
M  V30 7335 H 826.078 -0.289041 -8.15388 0
M  V30 7336 P 822.115 -1.17771 -8.83182 0
M  V30 7337 O 821.895 -2.07206 -9.98732 0
M  V30 7338 O 821.325 0.0743816 -8.81969 0
M  V30 7339 O 821.865 -1.97652 -7.47304 0
M  V30 7340 C 822.805 -3.01133 -7.08783 0
M  V30 7341 C 822.075 -4.12613 -6.37049 0
M  V30 7342 O 821.865 -3.72827 -4.97879 0
M  V30 7343 C 820.675 -4.45085 -6.88694 0
M  V30 7344 O 820.285 -5.7877 -6.5624 0
M  V30 7345 C 819.795 -3.47817 -6.12078 0
M  V30 7346 C 820.505 -3.39414 -4.77697 0
M  V30 7347 N 820.455 -2.04615 -4.15333 0
M  V30 7348 H 823.294 -3.41248 -7.98759 0
M  V30 7349 H 823.566 -2.5837 -6.41742 0
M  V30 7350 H 822.698 -5.02657 -6.42673 0
M  V30 7351 P 818.735 -6.144 -6.45285 0
M  V30 7352 O 818.515 -7.54673 -6.86199 0
M  V30 7353 O 817.945 -5.12391 -7.179 0
M  V30 7354 O 818.485 -5.99158 -4.88404 0
M  V30 7355 C 819.425 -6.60234 -3.96415 0
M  V30 7356 C 818.695 -7.08259 -2.72856 0
M  V30 7357 O 818.485 -5.9427 -1.83651 0
M  V30 7358 C 817.295 -7.64886 -2.9555 0
M  V30 7359 O 816.905 -8.53963 -1.90717 0
M  V30 7360 C 816.415 -6.4116 -2.90739 0
M  V30 7361 C 817.125 -5.55375 -1.86963 0
M  V30 7362 N 817.075 -4.09664 -2.15742 0
M  V30 7363 H 819.914 -7.45574 -4.45629 0
M  V30 7364 H 820.186 -5.86232 -3.67314 0
M  V30 7365 H 819.318 -7.84412 -2.24479 0
M  V30 7366 P 815.355 -8.7635 -1.60911 0
M  V30 7367 O 815.135 -10.1388 -1.11561 0
M  V30 7368 O 814.565 -8.36503 -2.79617 0
M  V30 7369 O 815.105 -7.71806 -0.42951 0
M  V30 7370 C 816.045 -7.66948 0.673514 0
M  V30 7371 C 815.315 -7.33374 1.95559 0
M  V30 7372 O 815.105 -5.88721 2.00726 0
M  V30 7373 C 813.915 -7.92218 2.1125 0
M  V30 7374 O 813.525 -8.02971 3.47653 0
M  V30 7375 C 813.035 -6.89504 1.41631 0
M  V30 7376 C 813.745 -5.59106 1.75155 0
M  V30 7377 N 813.695 -4.58136 0.662409 0
M  V30 7378 C 813.545 -3.26059 1.02863 0
M  V30 7379 O 813.455 -2.90743 2.19009 0
M  V30 7380 N 813.505 -2.35995 -0.0155585 0
M  V30 7381 C 813.595 -2.65248 -1.35603 0
M  V30 7382 O 813.545 -1.75605 -2.20651 0
M  V30 7383 C 813.745 -4.05747 -1.64698 0
M  V30 7384 C 813.855 -4.42345 -3.09553 0
M  V30 7385 C 813.795 -4.96734 -0.652411 0
M  V30 7386 H 816.536 -8.64917 0.776982 0
M  V30 7387 H 816.805 -6.89974 0.474015 0
M  V30 7388 H 815.938 -7.66548 2.79458 0
M  V30 7389 H 813.283 -5.16076 2.65138 0
M  V30 7390 H 813.004 -7.06433 0.329384 0
M  V30 7391 H 812.012 -6.90829 1.81996 0
M  V30 7392 H 813.846 -8.90774 1.62639 0
M  V30 7393 H 813.917 -6.02181 -0.895285 0
M  V30 7394 H 812.887 -4.80252 -3.45468 0
M  V30 7395 H 814.624 -5.20015 -3.22119 0
M  V30 7396 H 814.136 -3.53269 -3.67833 0
M  V30 7397 H 813.4 -1.39558 0.227499 0
M  V30 7398 P 811.975 -8.03563 3.84925 0
M  V30 7399 O 811.755 -8.85821 5.0569 0
M  V30 7400 O 811.185 -8.41101 2.65469 0
M  V30 7401 O 811.725 -6.4965 4.18908 0
M  V30 7402 C 812.665 -5.81037 5.05421 0
M  V30 7403 C 811.935 -4.78366 5.89277 0
M  V30 7404 O 811.725 -3.58302 5.08433 0
M  V30 7405 C 810.535 -5.17448 6.36119 0
M  V30 7406 O 810.145 -4.45271 7.53232 0
M  V30 7407 C 809.655 -4.74639 5.19936 0
M  V30 7408 C 810.365 -3.49432 4.70418 0
M  V30 7409 N 810.315 -3.31776 3.22945 0
M  V30 7410 H 813.154 -6.54213 5.71376 0
M  V30 7411 H 813.426 -5.30492 4.44033 0
M  V30 7412 H 812.558 -4.55889 6.76652 0
M  V30 7413 P 808.595 -4.23843 7.83734 0
M  V30 7414 O 808.375 -4.19407 9.29784 0
M  V30 7415 O 807.805 -5.24426 7.09156 0
M  V30 7416 O 808.345 -2.7935 7.20758 0
M  V30 7417 C 809.285 -1.7299 7.50419 0
M  V30 7418 C 808.555 -0.406376 7.57911 0
M  V30 7419 O 808.345 0.0897726 6.21935 0
M  V30 7420 C 807.155 -0.447224 8.1878 0
M  V30 7421 O 806.765 0.825065 8.71101 0
M  V30 7422 C 806.275 -0.783801 6.99623 0
M  V30 7423 C 806.985 -0.0619192 5.85967 0
M  V30 7424 N 806.935 -0.790462 4.56202 0
M  V30 7425 H 809.774 -1.93423 8.4679 0
M  V30 7426 H 810.046 -1.68852 6.70877 0
M  V30 7427 H 809.178 0.289041 8.15388 0
M  V30 7428 H 806.523 0.927006 5.72848 0
M  V30 7429 H 806.243 -1.86973 6.82036 0
M  V30 7430 H 805.252 -0.403953 7.13357 0
M  V30 7431 H 807.086 -1.20599 8.97534 0
M  V30 7432 P 805.215 1.17771 8.83182 0
M  V30 7433 O 804.995 2.07206 9.98732 0
M  V30 7434 O 804.425 -0.0743816 8.81969 0
M  V30 7435 O 804.965 1.97652 7.47304 0
M  V30 7436 C 805.905 3.01133 7.08783 0
M  V30 7437 C 805.175 4.12613 6.37049 0
M  V30 7438 O 804.965 3.72827 4.97879 0
M  V30 7439 C 803.775 4.45085 6.88694 0
M  V30 7440 O 803.385 5.7877 6.5624 0
M  V30 7441 C 802.895 3.47817 6.12078 0
M  V30 7442 C 803.605 3.39414 4.77697 0
M  V30 7443 N 803.555 2.04615 4.15333 0
M  V30 7444 H 806.394 3.41248 7.98759 0
M  V30 7445 H 806.666 2.5837 6.41742 0
M  V30 7446 H 805.798 5.02657 6.42673 0
M  V30 7447 P 801.835 6.144 6.45285 0
M  V30 7448 O 801.615 7.54673 6.86199 0
M  V30 7449 O 801.045 5.12391 7.179 0
M  V30 7450 O 801.585 5.99158 4.88404 0
M  V30 7451 C 802.525 6.60062 3.96313 0
M  V30 7452 C 801.795 7.08259 2.72856 0
M  V30 7453 O 801.585 5.9427 1.83651 0
M  V30 7454 C 800.395 7.65087 2.94749 0
M  V30 7455 O 800.005 8.53963 1.90717 0
M  V30 7456 C 799.515 6.41069 2.90698 0
M  V30 7457 C 800.225 5.5528 1.86931 0
M  V30 7458 N 800.175 4.09575 2.15696 0
M  V30 7459 C 800.025 3.24249 1.08435 0
M  V30 7460 O 799.935 3.63946 -0.0628747 0
M  V30 7461 N 799.985 1.90009 1.39973 0
M  V30 7462 C 800.075 1.34884 2.65614 0
M  V30 7463 O 800.025 0.123716 2.81728 0
M  V30 7464 C 800.225 2.3145 3.71736 0
M  V30 7465 C 800.335 1.75913 5.10438 0
M  V30 7466 C 800.275 3.63518 3.44754 0
M  V30 7467 H 803.016 7.45402 4.45526 0
M  V30 7468 H 803.285 5.86062 3.67208 0
M  V30 7469 H 802.418 7.84412 2.24479 0
M  V30 7470 H 799.763 5.73358 0.888409 0
M  V30 7471 H 799.484 5.90877 3.88583 0
M  V30 7472 H 798.492 6.65867 2.58821 0
M  V30 7473 H 800.326 8.16248 3.92006 0
M  V30 7474 H 800.397 4.34551 4.26383 0
M  V30 7475 H 799.367 1.85471 5.61775 0
M  V30 7476 H 801.104 2.31364 5.66257 0
M  V30 7477 H 800.616 0.695936 5.05229 0
M  V30 7478 H 799.88 1.26277 0.63625 0
M  V30 7479 P 798.455 8.7635 1.60911 0
M  V30 7480 O 798.235 10.1388 1.11561 0
M  V30 7481 O 797.665 8.36503 2.79617 0
M  V30 7482 O 798.205 7.71806 0.42951 0
M  V30 7483 C 799.145 7.67148 -0.673689 0
M  V30 7484 C 798.415 7.33374 -1.95559 0
M  V30 7485 O 798.205 5.88721 -2.00726 0
M  V30 7486 C 797.015 7.92526 -2.10483 0
M  V30 7487 O 796.625 8.02971 -3.47653 0
M  V30 7488 C 796.135 6.89602 -1.41652 0
M  V30 7489 C 796.845 5.59201 -1.75185 0
M  V30 7490 N 796.795 4.58235 -0.662552 0
M  V30 7491 H 799.634 8.65116 -0.777161 0
M  V30 7492 H 799.906 6.90173 -0.474152 0
M  V30 7493 H 799.038 7.66548 -2.79458 0
M  V30 7494 P 795.075 8.03563 -3.84925 0
M  V30 7495 O 794.855 8.85821 -5.0569 0
M  V30 7496 O 794.285 8.41101 -2.65469 0
M  V30 7497 O 794.825 6.4965 -4.18908 0
M  V30 7498 C 795.765 5.81037 -5.05421 0
M  V30 7499 C 795.035 4.78366 -5.89277 0
M  V30 7500 O 794.825 3.58302 -5.08433 0
M  V30 7501 C 793.635 5.17448 -6.36119 0
M  V30 7502 O 793.245 4.45271 -7.53232 0
M  V30 7503 C 792.755 4.74639 -5.19936 0
M  V30 7504 C 793.465 3.49432 -4.70418 0
M  V30 7505 N 793.415 3.32099 -3.22613 0
M  V30 7506 H 796.254 6.54213 -5.71376 0
M  V30 7507 H 796.526 5.30936 -4.43503 0
M  V30 7508 H 795.658 4.55889 -6.76652 0
M  V30 7509 H 793.003 2.61715 -5.17932 0
M  V30 7510 H 792.723 5.52155 -4.41878 0
M  V30 7511 H 791.732 4.51981 -5.53374 0
M  V30 7512 H 793.566 6.25124 -6.55234 0
M  V30 7513 P 791.695 4.23843 -7.83734 0
M  V30 7514 O 791.475 4.19407 -9.29784 0
M  V30 7515 O 790.905 5.24426 -7.09156 0
M  V30 7516 O 791.445 2.7935 -7.20758 0
M  V30 7517 C 792.385 1.72945 -7.50224 0
M  V30 7518 C 791.655 0.406376 -7.57911 0
M  V30 7519 O 791.445 -0.0897726 -6.21935 0
M  V30 7520 C 790.255 0.438983 -8.18724 0
M  V30 7521 O 789.865 -0.825065 -8.71101 0
M  V30 7522 C 789.375 0.783689 -6.99524 0
M  V30 7523 C 790.085 0.0619086 -5.85867 0
M  V30 7524 N 790.035 0.78573 -4.56183 0
M  V30 7525 C 789.885 0.0292889 -3.41887 0
M  V30 7526 O 789.795 -1.18445 -3.4419 0
M  V30 7527 N 789.845 0.744061 -2.23964 0
M  V30 7528 C 789.935 2.10932 -2.10362 0
M  V30 7529 C 790.085 2.8202 -3.34994 0
M  V30 7530 C 790.135 2.15547 -4.52261 0
M  V30 7531 H 792.876 1.93379 -8.46595 0
M  V30 7532 H 793.145 1.68132 -6.70852 0
M  V30 7533 H 792.278 -0.289041 -8.15388 0
M  V30 7534 H 789.623 -0.926847 -5.72749 0
M  V30 7535 H 789.344 1.86973 -6.82036 0
M  V30 7536 H 788.352 0.403896 -7.13257 0
M  V30 7537 H 790.186 1.20585 -8.97435 0
M  V30 7538 H 790.257 2.71231 -5.45042 0
M  V30 7539 P 788.315 -1.17771 -8.83182 0
M  V30 7540 O 788.095 -2.07206 -9.98732 0
M  V30 7541 O 787.525 0.0743816 -8.81969 0
M  V30 7542 O 788.065 -1.97652 -7.47304 0
M  V30 7543 C 789.005 -3.01133 -7.08783 0
M  V30 7544 C 788.275 -4.12613 -6.37049 0
M  V30 7545 O 788.065 -3.72827 -4.97879 0
M  V30 7546 C 786.875 -4.45085 -6.88694 0
M  V30 7547 O 786.485 -5.7877 -6.5624 0
M  V30 7548 C 785.995 -3.47817 -6.12078 0
M  V30 7549 C 786.705 -3.39414 -4.77697 0
M  V30 7550 N 786.655 -2.04615 -4.15333 0
M  V30 7551 H 789.494 -3.41248 -7.98759 0
M  V30 7552 H 789.766 -2.5837 -6.41742 0
M  V30 7553 H 788.898 -5.02657 -6.42673 0
M  V30 7554 P 784.935 -6.144 -6.45285 0
M  V30 7555 O 784.715 -7.54673 -6.86199 0
M  V30 7556 O 784.145 -5.12391 -7.179 0
M  V30 7557 O 784.685 -5.99158 -4.88404 0
M  V30 7558 C 785.625 -6.60234 -3.96415 0
M  V30 7559 C 784.895 -7.08259 -2.72856 0
M  V30 7560 O 784.685 -5.9427 -1.83651 0
M  V30 7561 C 783.495 -7.64886 -2.9555 0
M  V30 7562 O 783.105 -8.53963 -1.90717 0
M  V30 7563 C 782.615 -6.4116 -2.90739 0
M  V30 7564 C 783.325 -5.55375 -1.86963 0
M  V30 7565 N 783.275 -4.09448 -2.16152 0
M  V30 7566 H 786.114 -7.45574 -4.45629 0
M  V30 7567 H 786.386 -5.85864 -3.679 0
M  V30 7568 H 785.518 -7.84412 -2.24479 0
M  V30 7569 H 782.863 -5.73457 -0.888562 0
M  V30 7570 H 782.583 -5.90877 -3.88583 0
M  V30 7571 H 781.592 -6.6596 -2.58858 0
M  V30 7572 H 783.426 -8.16339 -3.92049 0
M  V30 7573 P 781.555 -8.7635 -1.60911 0
M  V30 7574 O 781.335 -10.1388 -1.11561 0
M  V30 7575 O 780.765 -8.36503 -2.79617 0
M  V30 7576 O 781.305 -7.71806 -0.42951 0
M  V30 7577 C 782.245 -7.67148 0.673689 0
M  V30 7578 C 781.515 -7.33374 1.95559 0
M  V30 7579 O 781.305 -5.88721 2.00726 0
M  V30 7580 C 780.115 -7.92526 2.10483 0
M  V30 7581 O 779.725 -8.02971 3.47653 0
M  V30 7582 C 779.235 -6.89602 1.41652 0
M  V30 7583 C 779.945 -5.59201 1.75185 0
M  V30 7584 N 779.895 -4.58235 0.662552 0
M  V30 7585 H 782.734 -8.65116 0.777161 0
M  V30 7586 H 783.006 -6.90173 0.474152 0
M  V30 7587 H 782.138 -7.66548 2.79458 0
M  V30 7588 P 778.175 -8.03563 3.84925 0
M  V30 7589 O 777.955 -8.85821 5.0569 0
M  V30 7590 O 777.385 -8.41101 2.65469 0
M  V30 7591 O 777.925 -6.4965 4.18908 0
M  V30 7592 C 778.865 -5.81037 5.05421 0
M  V30 7593 C 778.135 -4.78366 5.89277 0
M  V30 7594 O 777.925 -3.58302 5.08433 0
M  V30 7595 C 776.735 -5.17448 6.36119 0
M  V30 7596 O 776.345 -4.45271 7.53232 0
M  V30 7597 C 775.855 -4.74639 5.19936 0
M  V30 7598 C 776.565 -3.49432 4.70418 0
M  V30 7599 N 776.515 -3.32099 3.22613 0
M  V30 7600 H 779.354 -6.54213 5.71376 0
M  V30 7601 H 779.626 -5.30936 4.43503 0
M  V30 7602 H 778.758 -4.55889 6.76652 0
M  V30 7603 H 776.103 -2.61715 5.17932 0
M  V30 7604 H 775.823 -5.52155 4.41878 0
M  V30 7605 H 774.832 -4.51981 5.53374 0
M  V30 7606 H 776.666 -6.25124 6.55234 0
M  V30 7607 P 774.795 -4.23843 7.83734 0
M  V30 7608 O 774.575 -4.19407 9.29784 0
M  V30 7609 O 774.005 -5.24426 7.09156 0
M  V30 7610 O 774.545 -2.7935 7.20758 0
M  V30 7611 C 775.485 -1.7299 7.50419 0
M  V30 7612 C 774.755 -0.406376 7.57911 0
M  V30 7613 O 774.545 0.0897726 6.21935 0
M  V30 7614 C 773.355 -0.447224 8.1878 0
M  V30 7615 O 772.965 0.825065 8.71101 0
M  V30 7616 C 772.475 -0.783801 6.99623 0
M  V30 7617 C 773.185 -0.0619192 5.85967 0
M  V30 7618 N 773.135 -0.790462 4.56202 0
M  V30 7619 H 775.974 -1.93423 8.4679 0
M  V30 7620 H 776.246 -1.68852 6.70877 0
M  V30 7621 H 775.378 0.289041 8.15388 0
M  V30 7622 H 772.723 0.927006 5.72848 0
M  V30 7623 H 772.443 -1.86973 6.82036 0
M  V30 7624 H 771.452 -0.403953 7.13357 0
M  V30 7625 H 773.286 -1.20599 8.97534 0
M  V30 7626 P 771.415 1.17771 8.83182 0
M  V30 7627 O 771.195 2.07206 9.98732 0
M  V30 7628 O 770.625 -0.0743816 8.81969 0
M  V30 7629 O 771.165 1.97652 7.47304 0
M  V30 7630 C 772.105 3.01133 7.08783 0
M  V30 7631 C 771.375 4.12613 6.37049 0
M  V30 7632 O 771.165 3.72827 4.97879 0
M  V30 7633 C 769.975 4.45085 6.88694 0
M  V30 7634 O 769.585 5.7877 6.5624 0
M  V30 7635 C 769.095 3.47817 6.12078 0
M  V30 7636 C 769.805 3.39414 4.77697 0
M  V30 7637 N 769.755 2.04615 4.15333 0
M  V30 7638 H 772.594 3.41248 7.98759 0
M  V30 7639 H 772.866 2.5837 6.41742 0
M  V30 7640 H 771.998 5.02657 6.42673 0
M  V30 7641 P 768.035 6.144 6.45285 0
M  V30 7642 O 767.815 7.54673 6.86199 0
M  V30 7643 O 767.245 5.12391 7.179 0
M  V30 7644 O 767.785 5.99158 4.88404 0
M  V30 7645 C 768.725 6.60234 3.96415 0
M  V30 7646 C 767.995 7.08259 2.72856 0
M  V30 7647 O 767.785 5.9427 1.83651 0
M  V30 7648 C 766.595 7.64886 2.9555 0
M  V30 7649 O 766.205 8.53963 1.90717 0
M  V30 7650 C 765.715 6.4116 2.90739 0
M  V30 7651 C 766.425 5.55375 1.86963 0
M  V30 7652 N 766.375 4.09664 2.15742 0
M  V30 7653 H 769.214 7.45574 4.45629 0
M  V30 7654 H 769.486 5.86232 3.67314 0
M  V30 7655 H 768.618 7.84412 2.24479 0
M  V30 7656 P 764.656 8.7635 1.60911 0
M  V30 7657 O 764.436 10.1388 1.11561 0
M  V30 7658 O 763.866 8.36503 2.79617 0
M  V30 7659 O 764.406 7.71806 0.42951 0
M  V30 7660 C 765.346 7.66948 -0.673514 0
M  V30 7661 C 764.616 7.33374 -1.95559 0
M  V30 7662 O 764.406 5.88721 -2.00726 0
M  V30 7663 C 763.216 7.92218 -2.1125 0
M  V30 7664 O 762.826 8.02971 -3.47653 0
M  V30 7665 C 762.336 6.89504 -1.41631 0
M  V30 7666 C 763.046 5.59106 -1.75155 0
M  V30 7667 N 762.996 4.58136 -0.662409 0
M  V30 7668 C 762.846 3.26059 -1.02863 0
M  V30 7669 O 762.756 2.90743 -2.19009 0
M  V30 7670 N 762.806 2.35995 0.0155585 0
M  V30 7671 C 762.896 2.65248 1.35603 0
M  V30 7672 O 762.846 1.75605 2.20651 0
M  V30 7673 C 763.046 4.05747 1.64698 0
M  V30 7674 C 763.156 4.42345 3.09553 0
M  V30 7675 C 763.096 4.96734 0.652411 0
M  V30 7676 H 765.837 8.64917 -0.776982 0
M  V30 7677 H 766.106 6.89974 -0.474015 0
M  V30 7678 H 765.239 7.66548 -2.79458 0
M  V30 7679 H 762.584 5.16076 -2.65138 0
M  V30 7680 H 762.305 7.06433 -0.329384 0
M  V30 7681 H 761.313 6.90829 -1.81996 0
M  V30 7682 H 763.147 8.90774 -1.62639 0
M  V30 7683 H 763.218 6.02181 0.895285 0
M  V30 7684 H 762.188 4.80252 3.45468 0
M  V30 7685 H 763.925 5.20015 3.22119 0
M  V30 7686 H 763.437 3.53269 3.67833 0
M  V30 7687 H 762.701 1.39558 -0.227499 0
M  V30 7688 P 761.276 8.03563 -3.84925 0
M  V30 7689 O 761.056 8.85821 -5.0569 0
M  V30 7690 O 760.486 8.41101 -2.65469 0
M  V30 7691 O 761.026 6.4965 -4.18908 0
M  V30 7692 C 761.966 5.81037 -5.05421 0
M  V30 7693 C 761.236 4.78366 -5.89277 0
M  V30 7694 O 761.026 3.58302 -5.08433 0
M  V30 7695 C 759.836 5.17448 -6.36119 0
M  V30 7696 O 759.446 4.45271 -7.53232 0
M  V30 7697 C 758.956 4.74639 -5.19936 0
M  V30 7698 C 759.666 3.49432 -4.70418 0
M  V30 7699 N 759.616 3.31776 -3.22945 0
M  V30 7700 H 762.455 6.54213 -5.71376 0
M  V30 7701 H 762.727 5.30492 -4.44033 0
M  V30 7702 H 761.859 4.55889 -6.76652 0
M  V30 7703 P 757.896 4.23843 -7.83734 0
M  V30 7704 O 757.676 4.19407 -9.29784 0
M  V30 7705 O 757.106 5.24426 -7.09156 0
M  V30 7706 O 757.646 2.7935 -7.20758 0
M  V30 7707 C 758.586 1.72945 -7.50224 0
M  V30 7708 C 757.856 0.406376 -7.57911 0
M  V30 7709 O 757.646 -0.0897726 -6.21935 0
M  V30 7710 C 756.456 0.438983 -8.18724 0
M  V30 7711 O 756.066 -0.825065 -8.71101 0
M  V30 7712 C 755.576 0.783689 -6.99524 0
M  V30 7713 C 756.286 0.0619086 -5.85867 0
M  V30 7714 N 756.236 0.78573 -4.56183 0
M  V30 7715 C 756.086 0.0292889 -3.41887 0
M  V30 7716 O 755.996 -1.18445 -3.4419 0
M  V30 7717 N 756.046 0.744061 -2.23964 0
M  V30 7718 C 756.136 2.10932 -2.10362 0
M  V30 7719 O 756.086 2.64117 -0.98825 0
M  V30 7720 C 756.286 2.8202 -3.34994 0
M  V30 7721 C 756.396 4.31095 -3.25037 0
M  V30 7722 C 756.336 2.15547 -4.52261 0
M  V30 7723 H 759.077 1.93379 -8.46595 0
M  V30 7724 H 759.346 1.68132 -6.70852 0
M  V30 7725 H 758.479 -0.289041 -8.15388 0
M  V30 7726 H 755.824 -0.926847 -5.72749 0
M  V30 7727 H 755.545 1.86973 -6.82036 0
M  V30 7728 H 754.553 0.403896 -7.13257 0
M  V30 7729 H 756.387 1.20585 -8.97435 0
M  V30 7730 H 756.458 2.71231 -5.45042 0
M  V30 7731 H 755.428 4.76966 -3.49992 0
M  V30 7732 H 757.165 4.67047 -3.95024 0
M  V30 7733 H 756.677 4.58996 -2.22312 0
M  V30 7734 H 755.941 0.214893 -1.39758 0
M  V30 7735 P 754.516 -1.17771 -8.83182 0
M  V30 7736 O 754.296 -2.07206 -9.98732 0
M  V30 7737 O 753.726 0.0743816 -8.81969 0
M  V30 7738 O 754.266 -1.97652 -7.47304 0
M  V30 7739 C 755.206 -3.01133 -7.08783 0
M  V30 7740 C 754.476 -4.12613 -6.37049 0
M  V30 7741 O 754.266 -3.72827 -4.97879 0
M  V30 7742 C 753.076 -4.45085 -6.88694 0
M  V30 7743 O 752.686 -5.7877 -6.5624 0
M  V30 7744 C 752.196 -3.47817 -6.12078 0
M  V30 7745 C 752.906 -3.39414 -4.77697 0
M  V30 7746 N 752.856 -2.04615 -4.15333 0
M  V30 7747 H 755.695 -3.41248 -7.98759 0
M  V30 7748 H 755.967 -2.5837 -6.41742 0
M  V30 7749 H 755.099 -5.02657 -6.42673 0
M  V30 7750 P 751.136 -6.144 -6.45285 0
M  V30 7751 O 750.916 -7.54673 -6.86199 0
M  V30 7752 O 750.346 -5.12391 -7.179 0
M  V30 7753 O 750.886 -5.99158 -4.88404 0
M  V30 7754 C 751.826 -6.60234 -3.96415 0
M  V30 7755 C 751.096 -7.08259 -2.72856 0
M  V30 7756 O 750.886 -5.9427 -1.83651 0
M  V30 7757 C 749.696 -7.64886 -2.9555 0
M  V30 7758 O 749.306 -8.53963 -1.90717 0
M  V30 7759 C 748.816 -6.4116 -2.90739 0
M  V30 7760 C 749.526 -5.55375 -1.86963 0
M  V30 7761 N 749.476 -4.09664 -2.15742 0
M  V30 7762 C 749.556 -3.44381 -3.37233 0
M  V30 7763 N 749.476 -2.14131 -3.28347 0
M  V30 7764 C 749.336 -1.90247 -1.91588 0
M  V30 7765 C 749.206 -0.683992 -1.20892 0
M  V30 7766 O 749.186 0.46618 -1.64523 0
M  V30 7767 N 749.086 -0.903396 0.173998 0
M  V30 7768 C 749.086 -2.14171 0.784879 0
M  V30 7769 N 748.956 -2.1435 2.11317 0
M  V30 7770 N 749.216 -3.28784 0.119316 0
M  V30 7771 C 749.336 -3.0977 -1.22194 0
M  V30 7772 H 752.315 -7.45574 -4.45629 0
M  V30 7773 H 752.587 -5.86232 -3.67314 0
M  V30 7774 H 751.719 -7.84412 -2.24479 0
M  V30 7775 H 749.064 -5.73556 -0.888715 0
M  V30 7776 H 748.784 -5.9096 -3.88638 0
M  V30 7777 H 747.793 -6.66053 -2.58894 0
M  V30 7778 H 749.627 -8.16429 -3.92093 0
M  V30 7779 H 749.676 -3.96785 -4.32043 0
M  V30 7780 H 748.994 -0.0999567 0.761467 0
M  V30 7781 H 748.957 -3.03436 2.63076 0
M  V30 7782 H 748.856 -1.25228 2.62233 0
M  V30 7783 P 747.756 -8.7635 -1.60911 0
M  V30 7784 O 747.536 -10.1388 -1.11561 0
M  V30 7785 O 746.966 -8.36503 -2.79617 0
M  V30 7786 O 747.506 -7.71806 -0.42951 0
M  V30 7787 C 748.446 -7.67148 0.673689 0
M  V30 7788 C 747.716 -7.33374 1.95559 0
M  V30 7789 O 747.506 -5.88721 2.00726 0
M  V30 7790 C 746.316 -7.92526 2.10483 0
M  V30 7791 O 745.926 -8.02971 3.47653 0
M  V30 7792 C 745.436 -6.89602 1.41652 0
M  V30 7793 C 746.146 -5.59201 1.75185 0
M  V30 7794 N 746.096 -4.58235 0.662552 0
M  V30 7795 H 748.935 -8.65116 0.777161 0
M  V30 7796 H 749.207 -6.90173 0.474152 0
M  V30 7797 H 748.339 -7.66548 2.79458 0
M  V30 7798 P 744.376 -8.03563 3.84925 0
M  V30 7799 O 744.156 -8.85821 5.0569 0
M  V30 7800 O 743.586 -8.41101 2.65469 0
M  V30 7801 O 744.126 -6.4965 4.18908 0
M  V30 7802 C 745.066 -5.81037 5.05421 0
M  V30 7803 C 744.336 -4.78366 5.89277 0
M  V30 7804 O 744.126 -3.58302 5.08433 0
M  V30 7805 C 742.936 -5.17448 6.36119 0
M  V30 7806 O 742.546 -4.45271 7.53232 0
M  V30 7807 C 742.056 -4.74639 5.19936 0
M  V30 7808 C 742.766 -3.49432 4.70418 0
M  V30 7809 N 742.716 -3.32099 3.22613 0
M  V30 7810 H 745.555 -6.54213 5.71376 0
M  V30 7811 H 745.827 -5.30936 4.43503 0
M  V30 7812 H 744.959 -4.55889 6.76652 0
M  V30 7813 H 742.304 -2.61715 5.17932 0
M  V30 7814 H 742.024 -5.52155 4.41878 0
M  V30 7815 H 741.033 -4.51981 5.53374 0
M  V30 7816 H 742.867 -6.25124 6.55234 0
M  V30 7817 P 740.996 -4.23843 7.83734 0
M  V30 7818 O 740.776 -4.19407 9.29784 0
M  V30 7819 O 740.206 -5.24426 7.09156 0
M  V30 7820 O 740.746 -2.7935 7.20758 0
M  V30 7821 C 741.686 -1.7299 7.50419 0
M  V30 7822 C 740.956 -0.406376 7.57911 0
M  V30 7823 O 740.746 0.0897726 6.21935 0
M  V30 7824 C 739.556 -0.447224 8.1878 0
M  V30 7825 O 739.166 0.825065 8.71101 0
M  V30 7826 C 738.676 -0.783801 6.99623 0
M  V30 7827 C 739.386 -0.0619192 5.85967 0
M  V30 7828 N 739.336 -0.790462 4.56202 0
M  V30 7829 H 742.175 -1.93423 8.4679 0
M  V30 7830 H 742.447 -1.68852 6.70877 0
M  V30 7831 H 741.579 0.289041 8.15388 0
M  V30 7832 H 738.924 0.927006 5.72848 0
M  V30 7833 H 738.644 -1.86973 6.82036 0
M  V30 7834 H 737.653 -0.403953 7.13357 0
M  V30 7835 H 739.487 -1.20599 8.97534 0
M  V30 7836 P 737.616 1.17771 8.83182 0
M  V30 7837 O 737.396 2.07206 9.98732 0
M  V30 7838 O 736.826 -0.0743816 8.81969 0
M  V30 7839 O 737.366 1.97652 7.47304 0
M  V30 7840 C 738.306 3.01133 7.08783 0
M  V30 7841 C 737.576 4.12613 6.37049 0
M  V30 7842 O 737.366 3.72827 4.97879 0
M  V30 7843 C 736.176 4.45085 6.88694 0
M  V30 7844 O 735.786 5.7877 6.5624 0
M  V30 7845 C 735.296 3.47817 6.12078 0
M  V30 7846 C 736.006 3.39414 4.77697 0
M  V30 7847 N 735.956 2.04615 4.15333 0
M  V30 7848 H 738.795 3.41248 7.98759 0
M  V30 7849 H 739.067 2.5837 6.41742 0
M  V30 7850 H 738.199 5.02657 6.42673 0
M  V30 7851 P 734.236 6.144 6.45285 0
M  V30 7852 O 734.016 7.54673 6.86199 0
M  V30 7853 O 733.446 5.12391 7.179 0
M  V30 7854 O 733.986 5.99236 4.88467 0
M  V30 7855 C 734.926 6.60234 3.96415 0
M  V30 7856 C 734.196 7.08079 2.736 0
M  V30 7857 O 733.986 5.94365 1.8368 0
M  V30 7858 C 732.796 7.64886 2.9555 0
M  V30 7859 O 732.406 8.5406 1.90739 0
M  V30 7860 C 731.916 6.4116 2.90739 0
M  V30 7861 C 732.626 5.55375 1.86963 0
M  V30 7862 N 732.576 4.09664 2.15742 0
M  V30 7863 C 732.426 3.22231 1.08477 0
M  V30 7864 O 732.336 3.68951 -0.0600489 0
M  V30 7865 N 732.376 1.76692 1.48799 0
M  V30 7866 C 732.476 1.41695 2.57602 0
M  V30 7867 N 732.426 0.107296 2.75791 0
M  V30 7868 C 732.626 2.29178 3.69733 0
M  V30 7869 C 732.676 3.62753 3.42653 0
M  V30 7870 H 735.416 7.45488 4.45578 0
M  V30 7871 H 735.686 5.86232 3.67314 0
M  V30 7872 H 734.819 7.84508 2.24507 0
M  V30 7873 H 732.164 5.73556 0.888715 0
M  V30 7874 H 731.884 5.9096 3.88638 0
M  V30 7875 H 730.893 6.66053 2.58894 0
M  V30 7876 H 732.727 8.16339 3.92049 0
M  V30 7877 H 732.799 4.33052 4.24913 0
M  V30 7878 H 732.697 1.9103 4.71577 0
M  V30 7879 H 732.309 -0.521221 1.95056 0
M  V30 7880 H 732.505 -0.286429 3.70695 0
M  V30 7881 P 730.856 8.7635 1.60911 0
M  V30 7882 O 730.636 10.1388 1.11561 0
M  V30 7883 O 730.066 8.36503 2.79617 0
M  V30 7884 O 730.606 7.71806 0.42951 0
M  V30 7885 C 731.546 7.67148 -0.673689 0
M  V30 7886 C 730.816 7.33374 -1.95559 0
M  V30 7887 O 730.606 5.88721 -2.00726 0
M  V30 7888 C 729.416 7.92526 -2.10483 0
M  V30 7889 O 729.026 8.02971 -3.47653 0
M  V30 7890 C 728.536 6.89602 -1.41652 0
M  V30 7891 C 729.246 5.59201 -1.75185 0
M  V30 7892 N 729.196 4.58301 -0.657969 0
M  V30 7893 H 732.035 8.65116 -0.777161 0
M  V30 7894 H 732.307 6.9022 -0.46725 0
M  V30 7895 H 731.439 7.66548 -2.79458 0
M  V30 7896 H 728.784 5.16165 -2.65183 0
M  V30 7897 H 728.504 7.06433 -0.329384 0
M  V30 7898 H 727.513 6.90926 -1.82021 0
M  V30 7899 H 729.347 8.90873 -1.62657 0
M  V30 7900 P 727.476 8.03563 -3.84925 0
M  V30 7901 O 727.256 8.85821 -5.0569 0
M  V30 7902 O 726.686 8.41101 -2.65469 0
M  V30 7903 O 727.226 6.4965 -4.18908 0
M  V30 7904 C 728.166 5.81037 -5.05421 0
M  V30 7905 C 727.436 4.78366 -5.89277 0
M  V30 7906 O 727.226 3.58302 -5.08433 0
M  V30 7907 C 726.036 5.17448 -6.36119 0
M  V30 7908 O 725.646 4.45271 -7.53232 0
M  V30 7909 C 725.156 4.74639 -5.19936 0
M  V30 7910 C 725.866 3.49432 -4.70418 0
M  V30 7911 N 725.816 3.31776 -3.22945 0
M  V30 7912 C 725.896 4.27147 -2.23315 0
M  V30 7913 N 725.816 3.78447 -1.02186 0
M  V30 7914 C 725.676 2.41001 -1.21732 0
M  V30 7915 C 725.546 1.36111 -0.27694 0
M  V30 7916 O 725.526 1.42065 0.951767 0
M  V30 7917 N 725.426 0.113683 -0.912949 0
M  V30 7918 C 725.426 -0.0846396 -2.27943 0
M  V30 7919 N 725.296 -1.34737 -2.6916 0
M  V30 7920 N 725.556 0.902521 -3.16379 0
M  V30 7921 C 725.676 2.11937 -2.56849 0
M  V30 7922 H 728.655 6.54213 -5.71376 0
M  V30 7923 H 728.927 5.30492 -4.44033 0
M  V30 7924 H 728.059 4.55889 -6.76652 0
M  V30 7925 H 725.404 2.6176 -5.18021 0
M  V30 7926 H 725.124 5.52233 -4.41941 0
M  V30 7927 H 724.133 4.52045 -5.53452 0
M  V30 7928 H 725.967 6.25193 -6.55307 0
M  V30 7929 H 726.016 5.3351 -2.43857 0
M  V30 7930 H 725.334 -0.69331 -0.330371 0
M  V30 7931 H 725.297 -1.56433 -3.6988 0
M  V30 7932 H 725.196 -2.10701 -2.00133 0
M  V30 7933 P 724.096 4.23843 -7.83734 0
M  V30 7934 O 723.876 4.19407 -9.29784 0
M  V30 7935 O 723.306 5.24426 -7.09156 0
M  V30 7936 O 723.846 2.7935 -7.20758 0
M  V30 7937 C 724.786 1.7299 -7.50419 0
M  V30 7938 C 724.056 0.406376 -7.57911 0
M  V30 7939 O 723.846 -0.0897726 -6.21935 0
M  V30 7940 C 722.656 0.447224 -8.1878 0
M  V30 7941 O 722.266 -0.825065 -8.71101 0
M  V30 7942 C 721.776 0.783801 -6.99623 0
M  V30 7943 C 722.486 0.0619192 -5.85967 0
M  V30 7944 N 722.436 0.7859 -4.56281 0
M  V30 7945 H 725.275 1.93423 -8.4679 0
M  V30 7946 H 725.547 1.68181 -6.71046 0
M  V30 7947 H 724.679 -0.289041 -8.15388 0
M  V30 7948 P 720.716 -1.17771 -8.83182 0
M  V30 7949 O 720.496 -2.07206 -9.98732 0
M  V30 7950 O 719.926 0.0743816 -8.81969 0
M  V30 7951 O 720.466 -1.97652 -7.47304 0
M  V30 7952 C 721.406 -3.01133 -7.08783 0
M  V30 7953 C 720.676 -4.12613 -6.37049 0
M  V30 7954 O 720.466 -3.72827 -4.97879 0
M  V30 7955 C 719.276 -4.45085 -6.88694 0
M  V30 7956 O 718.886 -5.7877 -6.5624 0
M  V30 7957 C 718.396 -3.47817 -6.12078 0
M  V30 7958 C 719.106 -3.39414 -4.77697 0
M  V30 7959 N 719.056 -2.04615 -4.15333 0
M  V30 7960 H 721.895 -3.41248 -7.98759 0
M  V30 7961 H 722.167 -2.5837 -6.41742 0
M  V30 7962 H 721.299 -5.02657 -6.42673 0
M  V30 7963 P 717.336 -6.144 -6.45285 0
M  V30 7964 O 717.116 -7.54673 -6.86199 0
M  V30 7965 O 716.546 -5.12391 -7.179 0
M  V30 7966 O 717.086 -5.99158 -4.88404 0
M  V30 7967 C 718.026 -6.60062 -3.96313 0
M  V30 7968 C 717.296 -7.08259 -2.72856 0
M  V30 7969 O 717.086 -5.9427 -1.83651 0
M  V30 7970 C 715.896 -7.65087 -2.94749 0
M  V30 7971 O 715.506 -8.53963 -1.90717 0
M  V30 7972 C 715.016 -6.41069 -2.90698 0
M  V30 7973 C 715.726 -5.5528 -1.86931 0
M  V30 7974 N 715.676 -4.09575 -2.15696 0
M  V30 7975 C 715.526 -3.24249 -1.08435 0
M  V30 7976 O 715.436 -3.63946 0.0628747 0
M  V30 7977 N 715.486 -1.90009 -1.39973 0
M  V30 7978 C 715.576 -1.34884 -2.65614 0
M  V30 7979 C 715.726 -2.3145 -3.71736 0
M  V30 7980 C 715.776 -3.63518 -3.44754 0
M  V30 7981 H 718.517 -7.45402 -4.45526 0
M  V30 7982 H 718.786 -5.86062 -3.67208 0
M  V30 7983 H 717.919 -7.84412 -2.24479 0
M  V30 7984 H 715.264 -5.73358 -0.888409 0
M  V30 7985 H 714.985 -5.90877 -3.88583 0
M  V30 7986 H 713.993 -6.65867 -2.58821 0
M  V30 7987 H 715.827 -8.16248 -3.92006 0
M  V30 7988 H 715.898 -4.34551 -4.26383 0
M  V30 7989 P 713.956 -8.7635 -1.60911 0
M  V30 7990 O 713.736 -10.1388 -1.11561 0
M  V30 7991 O 713.166 -8.36503 -2.79617 0
M  V30 7992 O 713.706 -7.71806 -0.42951 0
M  V30 7993 C 714.646 -7.67148 0.673689 0
M  V30 7994 C 713.916 -7.33374 1.95559 0
M  V30 7995 O 713.706 -5.88721 2.00726 0
M  V30 7996 C 712.516 -7.92526 2.10483 0
M  V30 7997 O 712.126 -8.02971 3.47653 0
M  V30 7998 C 711.636 -6.89602 1.41652 0
M  V30 7999 C 712.346 -5.59201 1.75185 0
M  V30 8000 N 712.296 -4.58301 0.657969 0
M  V30 8001 H 715.135 -8.65116 0.777161 0
M  V30 8002 H 715.407 -6.9022 0.46725 0
M  V30 8003 H 714.539 -7.66548 2.79458 0
M  V30 8004 H 711.884 -5.16165 2.65183 0
M  V30 8005 H 711.604 -7.06433 0.329384 0
M  V30 8006 H 710.613 -6.90926 1.82021 0
M  V30 8007 H 712.447 -8.90873 1.62657 0
M  V30 8008 P 710.576 -8.03563 3.84925 0
M  V30 8009 O 710.356 -8.85821 5.0569 0
M  V30 8010 O 709.786 -8.41101 2.65469 0
M  V30 8011 O 710.326 -6.4965 4.18908 0
M  V30 8012 C 711.266 -5.81037 5.05421 0
M  V30 8013 C 710.536 -4.78366 5.89277 0
M  V30 8014 O 710.326 -3.58302 5.08433 0
M  V30 8015 C 709.136 -5.17448 6.36119 0
M  V30 8016 O 708.746 -4.45271 7.53232 0
M  V30 8017 C 708.256 -4.74639 5.19936 0
M  V30 8018 C 708.966 -3.49432 4.70418 0
M  V30 8019 N 708.916 -3.32099 3.22613 0
M  V30 8020 H 711.755 -6.54213 5.71376 0
M  V30 8021 H 712.027 -5.30936 4.43503 0
M  V30 8022 H 711.159 -4.55889 6.76652 0
M  V30 8023 H 708.504 -2.61715 5.17932 0
M  V30 8024 H 708.224 -5.52155 4.41878 0
M  V30 8025 H 707.233 -4.51981 5.53374 0
M  V30 8026 H 709.067 -6.25124 6.55234 0
M  V30 8027 P 707.196 -4.23843 7.83734 0
M  V30 8028 O 706.976 -4.19407 9.29784 0
M  V30 8029 O 706.406 -5.24426 7.09156 0
M  V30 8030 O 706.946 -2.7935 7.20758 0
M  V30 8031 C 707.886 -1.7299 7.50419 0
M  V30 8032 C 707.156 -0.406376 7.57911 0
M  V30 8033 O 706.946 0.0897726 6.21935 0
M  V30 8034 C 705.756 -0.447224 8.1878 0
M  V30 8035 O 705.366 0.825065 8.71101 0
M  V30 8036 C 704.876 -0.783801 6.99623 0
M  V30 8037 C 705.586 -0.0619192 5.85967 0
M  V30 8038 N 705.536 -0.7859 4.56281 0
M  V30 8039 H 708.375 -1.93423 8.4679 0
M  V30 8040 H 708.647 -1.68181 6.71046 0
M  V30 8041 H 707.779 0.289041 8.15388 0
M  V30 8042 P 703.816 1.17771 8.83182 0
M  V30 8043 O 703.596 2.07206 9.98732 0
M  V30 8044 O 703.026 -0.0743816 8.81969 0
M  V30 8045 O 703.566 1.97652 7.47304 0
M  V30 8046 C 704.506 3.01133 7.08783 0
M  V30 8047 C 703.776 4.12613 6.37049 0
M  V30 8048 O 703.566 3.72827 4.97879 0
M  V30 8049 C 702.376 4.45085 6.88694 0
M  V30 8050 O 701.986 5.7877 6.5624 0
M  V30 8051 C 701.496 3.47817 6.12078 0
M  V30 8052 C 702.206 3.39414 4.77697 0
M  V30 8053 N 702.156 2.04615 4.15333 0
M  V30 8054 H 704.995 3.41248 7.98759 0
M  V30 8055 H 705.267 2.5837 6.41742 0
M  V30 8056 H 704.399 5.02657 6.42673 0
M  V30 8057 P 700.436 6.144 6.45285 0
M  V30 8058 O 700.216 7.54673 6.86199 0
M  V30 8059 O 699.646 5.12391 7.179 0
M  V30 8060 O 700.186 5.99158 4.88404 0
M  V30 8061 C 701.126 6.60062 3.96313 0
M  V30 8062 C 700.396 7.08259 2.72856 0
M  V30 8063 O 700.186 5.9427 1.83651 0
M  V30 8064 C 698.996 7.65087 2.94749 0
M  V30 8065 O 698.606 8.53963 1.90717 0
M  V30 8066 C 698.116 6.41069 2.90698 0
M  V30 8067 C 698.826 5.5528 1.86931 0
M  V30 8068 N 698.776 4.09575 2.15696 0
M  V30 8069 C 698.626 3.24249 1.08435 0
M  V30 8070 O 698.536 3.63946 -0.0628747 0
M  V30 8071 N 698.586 1.90009 1.39973 0
M  V30 8072 C 698.676 1.34884 2.65614 0
M  V30 8073 C 698.826 2.3145 3.71736 0
M  V30 8074 C 698.876 3.63518 3.44754 0
M  V30 8075 H 701.617 7.45402 4.45526 0
M  V30 8076 H 701.886 5.86062 3.67208 0
M  V30 8077 H 701.019 7.84412 2.24479 0
M  V30 8078 H 698.364 5.73358 0.888409 0
M  V30 8079 H 698.085 5.90877 3.88583 0
M  V30 8080 H 697.093 6.65867 2.58821 0
M  V30 8081 H 698.927 8.16248 3.92006 0
M  V30 8082 H 698.998 4.34551 4.26383 0
M  V30 8083 P 697.056 8.7635 1.60911 0
M  V30 8084 O 696.836 10.1388 1.11561 0
M  V30 8085 O 696.266 8.36503 2.79617 0
M  V30 8086 O 696.806 7.71806 0.42951 0
M  V30 8087 C 697.746 7.67148 -0.673689 0
M  V30 8088 C 697.016 7.33374 -1.95559 0
M  V30 8089 O 696.806 5.88721 -2.00726 0
M  V30 8090 C 695.616 7.92526 -2.10483 0
M  V30 8091 O 695.226 8.02971 -3.47653 0
M  V30 8092 C 694.736 6.89602 -1.41652 0
M  V30 8093 C 695.446 5.59201 -1.75185 0
M  V30 8094 N 695.396 4.58301 -0.657969 0
M  V30 8095 H 698.235 8.65116 -0.777161 0
M  V30 8096 H 698.507 6.9022 -0.46725 0
M  V30 8097 H 697.639 7.66548 -2.79458 0
M  V30 8098 H 694.984 5.16165 -2.65183 0
M  V30 8099 H 694.704 7.06433 -0.329384 0
M  V30 8100 H 693.713 6.90926 -1.82021 0
M  V30 8101 H 695.547 8.90873 -1.62657 0
M  V30 8102 P 693.676 8.03563 -3.84925 0
M  V30 8103 O 693.456 8.85821 -5.0569 0
M  V30 8104 O 692.886 8.41101 -2.65469 0
M  V30 8105 O 693.426 6.4965 -4.18908 0
M  V30 8106 C 694.366 5.80886 -5.05289 0
M  V30 8107 C 693.636 4.78366 -5.89277 0
M  V30 8108 O 693.426 3.58302 -5.08433 0
M  V30 8109 C 692.236 5.16748 -6.36559 0
M  V30 8110 O 691.846 4.45271 -7.53232 0
M  V30 8111 C 691.356 4.74572 -5.19863 0
M  V30 8112 C 692.066 3.49373 -4.70338 0
M  V30 8113 N 692.016 3.31704 -3.22876 0
M  V30 8114 C 691.866 2.03326 -2.74871 0
M  V30 8115 O 691.776 1.06486 -3.48076 0
M  V30 8116 N 691.826 1.91838 -1.37456 0
M  V30 8117 C 691.916 2.94295 -0.462035 0
M  V30 8118 O 691.866 2.71763 0.752928 0
M  V30 8119 C 692.066 4.25064 -1.05249 0
M  V30 8120 C 692.176 5.39815 -0.095697 0
M  V30 8121 C 692.116 4.40214 -2.39192 0
M  V30 8122 H 694.857 6.54063 -5.71245 0
M  V30 8123 H 695.126 5.30339 -4.43905 0
M  V30 8124 H 694.259 4.55889 -6.76652 0
M  V30 8125 H 691.604 2.6167 -5.17842 0
M  V30 8126 H 691.325 5.52155 -4.41878 0
M  V30 8127 H 690.333 4.51918 -5.53297 0
M  V30 8128 H 692.167 6.25055 -6.55162 0
M  V30 8129 H 692.238 5.39798 -2.81523 0
M  V30 8130 H 691.208 5.91593 -0.0279582 0
M  V30 8131 H 692.945 6.10038 -0.450573 0
M  V30 8132 H 692.457 5.02007 0.89937 0
M  V30 8133 H 691.721 0.995326 -1.00435 0
M  V30 8134 P 690.296 4.23843 -7.83734 0
M  V30 8135 O 690.076 4.19407 -9.29784 0
M  V30 8136 O 689.506 5.24426 -7.09156 0
M  V30 8137 O 690.046 2.7935 -7.20758 0
M  V30 8138 C 690.986 1.7299 -7.50419 0
M  V30 8139 C 690.256 0.406376 -7.57911 0
M  V30 8140 O 690.046 -0.0897726 -6.21935 0
M  V30 8141 C 688.856 0.447224 -8.1878 0
M  V30 8142 O 688.466 -0.825065 -8.71101 0
M  V30 8143 C 687.976 0.783801 -6.99623 0
M  V30 8144 C 688.686 0.0619192 -5.85967 0
M  V30 8145 N 688.636 0.790462 -4.56202 0
M  V30 8146 C 688.716 2.13895 -4.34171 0
M  V30 8147 N 688.646 2.46449 -3.08687 0
M  V30 8148 C 688.496 1.2525 -2.43697 0
M  V30 8149 C 688.366 0.914535 -1.07318 0
M  V30 8150 N 688.356 1.80782 -0.0887348 0
M  V30 8151 N 688.246 -0.386745 -0.768133 0
M  V30 8152 C 688.256 -1.28096 -1.75159 0
M  V30 8153 N 688.376 -1.09708 -3.04861 0
M  V30 8154 C 688.496 0.214857 -3.32306 0
M  V30 8155 H 691.475 1.93423 -8.4679 0
M  V30 8156 H 691.747 1.68852 -6.70877 0
M  V30 8157 H 690.879 -0.289041 -8.15388 0
M  V30 8158 H 688.224 -0.927006 -5.72848 0
M  V30 8159 H 687.944 1.86973 -6.82036 0
M  V30 8160 H 686.953 0.403953 -7.13357 0
M  V30 8161 H 688.787 1.20599 -8.97534 0
M  V30 8162 H 688.828 2.86846 -5.14318 0
M  V30 8163 H 688.447 2.81082 -0.302037 0
M  V30 8164 H 688.258 1.49688 0.889064 0
M  V30 8165 H 688.15 -2.31317 -1.43855 0
M  V30 8166 P 686.916 -1.17771 -8.83182 0
M  V30 8167 O 686.696 -2.07206 -9.98732 0
M  V30 8168 O 686.126 0.0743816 -8.81969 0
M  V30 8169 O 686.666 -1.97678 -7.474 0
M  V30 8170 C 687.606 -3.01133 -7.08783 0
M  V30 8171 C 686.876 -4.1203 -6.37546 0
M  V30 8172 O 686.666 -3.72887 -4.9796 0
M  V30 8173 C 685.476 -4.45085 -6.88694 0
M  V30 8174 O 685.086 -5.78836 -6.56315 0
M  V30 8175 C 684.596 -3.47817 -6.12078 0
M  V30 8176 C 685.306 -3.39414 -4.77697 0
M  V30 8177 N 685.256 -2.04615 -4.15333 0
M  V30 8178 C 685.106 -1.96929 -2.77162 0
M  V30 8179 O 685.016 -3.02017 -2.12006 0
M  V30 8180 N 685.056 -0.55485 -2.24237 0
M  V30 8181 C 685.156 0.367808 -2.9169 0
M  V30 8182 N 685.106 1.53426 -2.29427 0
M  V30 8183 C 685.306 0.319148 -4.33828 0
M  V30 8184 C 685.356 -0.920672 -4.90433 0
M  V30 8185 H 688.096 -3.41209 -7.98667 0
M  V30 8186 H 688.366 -2.5837 -6.41742 0
M  V30 8187 H 687.499 -5.02718 -6.42752 0
M  V30 8188 H 684.844 -4.11779 -4.09026 0
M  V30 8189 H 684.564 -2.49661 -6.61772 0
M  V30 8190 H 683.573 -3.86674 -6.00946 0
M  V30 8191 H 685.407 -4.29991 -7.97006 0
M  V30 8192 H 685.479 -1.00589 -5.98303 0
M  V30 8193 H 685.377 1.22639 -4.93799 0
M  V30 8194 H 684.989 1.56819 -1.27167 0
M  V30 8195 H 685.185 2.41062 -2.83063 0
M  V30 8196 P 683.536 -6.144 -6.45285 0
M  V30 8197 O 683.316 -7.54673 -6.86199 0
M  V30 8198 O 682.746 -5.12391 -7.179 0
M  V30 8199 O 683.286 -5.99158 -4.88404 0
M  V30 8200 C 684.226 -6.60234 -3.96415 0
M  V30 8201 C 683.496 -7.08259 -2.72856 0
M  V30 8202 O 683.286 -5.9427 -1.83651 0
M  V30 8203 C 682.096 -7.64886 -2.9555 0
M  V30 8204 O 681.706 -8.53963 -1.90717 0
M  V30 8205 C 681.216 -6.4116 -2.90739 0
M  V30 8206 C 681.926 -5.55375 -1.86963 0
M  V30 8207 N 681.876 -4.09448 -2.16152 0
M  V30 8208 H 684.715 -7.45574 -4.45629 0
M  V30 8209 H 684.987 -5.85864 -3.679 0
M  V30 8210 H 684.119 -7.84412 -2.24479 0
M  V30 8211 H 681.464 -5.73457 -0.888562 0
M  V30 8212 H 681.184 -5.90877 -3.88583 0
M  V30 8213 H 680.193 -6.6596 -2.58858 0
M  V30 8214 H 682.027 -8.16339 -3.92049 0
M  V30 8215 P 680.156 -8.7635 -1.60911 0
M  V30 8216 O 679.936 -10.1388 -1.11561 0
M  V30 8217 O 679.366 -8.36503 -2.79617 0
M  V30 8218 O 679.906 -7.71806 -0.42951 0
M  V30 8219 C 680.846 -7.66948 0.673514 0
M  V30 8220 C 680.116 -7.33374 1.95559 0
M  V30 8221 O 679.906 -5.88721 2.00726 0
M  V30 8222 C 678.716 -7.92218 2.1125 0
M  V30 8223 O 678.326 -8.02971 3.47653 0
M  V30 8224 C 677.836 -6.89504 1.41631 0
M  V30 8225 C 678.546 -5.59106 1.75155 0
M  V30 8226 N 678.496 -4.58136 0.662409 0
M  V30 8227 C 678.346 -3.26059 1.02863 0
M  V30 8228 O 678.256 -2.90743 2.19009 0
M  V30 8229 N 678.306 -2.35995 -0.0155585 0
M  V30 8230 C 678.396 -2.65248 -1.35603 0
M  V30 8231 C 678.546 -4.05747 -1.64698 0
M  V30 8232 C 678.596 -4.96734 -0.652411 0
M  V30 8233 H 681.337 -8.64917 0.776982 0
M  V30 8234 H 681.606 -6.89974 0.474015 0
M  V30 8235 H 680.739 -7.66548 2.79458 0
M  V30 8236 H 678.084 -5.16076 2.65138 0
M  V30 8237 H 677.805 -7.06433 0.329384 0
M  V30 8238 H 676.813 -6.90829 1.81996 0
M  V30 8239 H 678.647 -8.90774 1.62639 0
M  V30 8240 H 678.718 -6.02181 -0.895285 0
M  V30 8241 P 676.776 -8.03563 3.84925 0
M  V30 8242 O 676.556 -8.85821 5.0569 0
M  V30 8243 O 675.986 -8.41101 2.65469 0
M  V30 8244 O 676.526 -6.4965 4.18908 0
M  V30 8245 C 677.466 -5.81037 5.05421 0
M  V30 8246 C 676.736 -4.78366 5.89277 0
M  V30 8247 O 676.526 -3.58302 5.08433 0
M  V30 8248 C 675.336 -5.17448 6.36119 0
M  V30 8249 O 674.946 -4.45271 7.53232 0
M  V30 8250 C 674.456 -4.74639 5.19936 0
M  V30 8251 C 675.166 -3.49432 4.70418 0
M  V30 8252 N 675.116 -3.31776 3.22945 0
M  V30 8253 H 677.955 -6.54213 5.71376 0
M  V30 8254 H 678.227 -5.30492 4.44033 0
M  V30 8255 H 677.359 -4.55889 6.76652 0
M  V30 8256 P 673.396 -4.23843 7.83734 0
M  V30 8257 O 673.176 -4.19407 9.29784 0
M  V30 8258 O 672.606 -5.24426 7.09156 0
M  V30 8259 O 673.146 -2.7935 7.20758 0
M  V30 8260 C 674.086 -1.7299 7.50419 0
M  V30 8261 C 673.356 -0.406376 7.57911 0
M  V30 8262 O 673.146 0.0897726 6.21935 0
M  V30 8263 C 671.956 -0.447224 8.1878 0
M  V30 8264 O 671.566 0.825065 8.71101 0
M  V30 8265 C 671.076 -0.783801 6.99623 0
M  V30 8266 C 671.786 -0.0619192 5.85967 0
M  V30 8267 N 671.736 -0.790462 4.56202 0
M  V30 8268 C 671.816 -2.13895 4.34171 0
M  V30 8269 N 671.746 -2.46449 3.08687 0
M  V30 8270 C 671.596 -1.2525 2.43697 0
M  V30 8271 C 671.466 -0.914535 1.07318 0
M  V30 8272 N 671.456 -1.80782 0.0887348 0
M  V30 8273 N 671.346 0.386745 0.768133 0
M  V30 8274 C 671.356 1.28096 1.75159 0
M  V30 8275 N 671.476 1.09708 3.04861 0
M  V30 8276 C 671.596 -0.214857 3.32306 0
M  V30 8277 H 674.575 -1.93423 8.4679 0
M  V30 8278 H 674.847 -1.68852 6.70877 0
M  V30 8279 H 673.979 0.289041 8.15388 0
M  V30 8280 H 671.324 0.927006 5.72848 0
M  V30 8281 H 671.044 -1.86973 6.82036 0
M  V30 8282 H 670.053 -0.403953 7.13357 0
M  V30 8283 H 671.887 -1.20599 8.97534 0
M  V30 8284 H 671.928 -2.86846 5.14318 0
M  V30 8285 H 671.547 -2.81082 0.302037 0
M  V30 8286 H 671.358 -1.49688 -0.889064 0
M  V30 8287 H 671.25 2.31317 1.43855 0
M  V30 8288 P 670.016 1.17771 8.83182 0
M  V30 8289 O 669.796 2.07206 9.98732 0
M  V30 8290 O 669.226 -0.0743816 8.81969 0
M  V30 8291 O 669.766 1.97652 7.47304 0
M  V30 8292 C 670.706 3.01133 7.08783 0
M  V30 8293 C 669.976 4.12613 6.37049 0
M  V30 8294 O 669.766 3.72827 4.97879 0
M  V30 8295 C 668.576 4.45085 6.88694 0
M  V30 8296 O 668.186 5.7877 6.5624 0
M  V30 8297 C 667.696 3.47817 6.12078 0
M  V30 8298 C 668.406 3.39414 4.77697 0
M  V30 8299 N 668.356 2.04199 4.15538 0
M  V30 8300 H 671.195 3.41248 7.98759 0
M  V30 8301 H 671.467 2.57728 6.42 0
M  V30 8302 H 670.599 5.02657 6.42673 0
M  V30 8303 H 667.944 4.11708 4.08956 0
M  V30 8304 H 667.664 2.49626 6.61679 0
M  V30 8305 H 666.673 3.8662 6.00862 0
M  V30 8306 H 668.507 4.29991 7.97006 0
M  V30 8307 P 666.636 6.144 6.45285 0
M  V30 8308 O 666.416 7.54673 6.86199 0
M  V30 8309 O 665.846 5.12391 7.179 0
M  V30 8310 O 666.386 5.99158 4.88404 0
M  V30 8311 C 667.326 6.60062 3.96313 0
M  V30 8312 C 666.596 7.08259 2.72856 0
M  V30 8313 O 666.386 5.9427 1.83651 0
M  V30 8314 C 665.196 7.65087 2.94749 0
M  V30 8315 O 664.806 8.53963 1.90717 0
M  V30 8316 C 664.316 6.41069 2.90698 0
M  V30 8317 C 665.026 5.5528 1.86931 0
M  V30 8318 N 664.976 4.09575 2.15696 0
M  V30 8319 C 664.826 3.24249 1.08435 0
M  V30 8320 O 664.736 3.63946 -0.0628747 0
M  V30 8321 N 664.786 1.90009 1.39973 0
M  V30 8322 C 664.876 1.34884 2.65614 0
M  V30 8323 C 665.026 2.3145 3.71736 0
M  V30 8324 C 665.076 3.63518 3.44754 0
M  V30 8325 H 667.817 7.45402 4.45526 0
M  V30 8326 H 668.086 5.86062 3.67208 0
M  V30 8327 H 667.219 7.84412 2.24479 0
M  V30 8328 H 664.564 5.73358 0.888409 0
M  V30 8329 H 664.285 5.90877 3.88583 0
M  V30 8330 H 663.293 6.65867 2.58821 0
M  V30 8331 H 665.127 8.16248 3.92006 0
M  V30 8332 H 665.198 4.34551 4.26383 0
M  V30 8333 P 663.256 8.7635 1.60911 0
M  V30 8334 O 663.036 10.1388 1.11561 0
M  V30 8335 O 662.466 8.36503 2.79617 0
M  V30 8336 O 663.006 7.71806 0.42951 0
M  V30 8337 C 663.946 7.67148 -0.673689 0
M  V30 8338 C 663.216 7.33374 -1.95559 0
M  V30 8339 O 663.006 5.88721 -2.00726 0
M  V30 8340 C 661.816 7.92526 -2.10483 0
M  V30 8341 O 661.426 8.02971 -3.47653 0
M  V30 8342 C 660.936 6.89602 -1.41652 0
M  V30 8343 C 661.646 5.59201 -1.75185 0
M  V30 8344 N 661.596 4.58235 -0.662552 0
M  V30 8345 H 664.435 8.65116 -0.777161 0
M  V30 8346 H 664.707 6.90173 -0.474152 0
M  V30 8347 H 663.839 7.66548 -2.79458 0
M  V30 8348 P 659.876 8.03563 -3.84925 0
M  V30 8349 O 659.656 8.85821 -5.0569 0
M  V30 8350 O 659.086 8.41101 -2.65469 0
M  V30 8351 O 659.626 6.4965 -4.18908 0
M  V30 8352 C 660.566 5.81037 -5.05421 0
M  V30 8353 C 659.836 4.78366 -5.89277 0
M  V30 8354 O 659.626 3.58302 -5.08433 0
M  V30 8355 C 658.436 5.17448 -6.36119 0
M  V30 8356 O 658.046 4.45271 -7.53232 0
M  V30 8357 C 657.556 4.74639 -5.19936 0
M  V30 8358 C 658.266 3.49432 -4.70418 0
M  V30 8359 N 658.216 3.31776 -3.22945 0
M  V30 8360 H 661.055 6.54213 -5.71376 0
M  V30 8361 H 661.327 5.30492 -4.44033 0
M  V30 8362 H 660.459 4.55889 -6.76652 0
M  V30 8363 P 656.496 4.23843 -7.83734 0
M  V30 8364 O 656.276 4.19407 -9.29784 0
M  V30 8365 O 655.706 5.24426 -7.09156 0
M  V30 8366 O 656.246 2.7935 -7.20758 0
M  V30 8367 C 657.186 1.72945 -7.50224 0
M  V30 8368 C 656.456 0.406376 -7.57911 0
M  V30 8369 O 656.246 -0.0897726 -6.21935 0
M  V30 8370 C 655.056 0.438983 -8.18724 0
M  V30 8371 O 654.666 -0.825065 -8.71101 0
M  V30 8372 C 654.176 0.783689 -6.99524 0
M  V30 8373 C 654.886 0.0619086 -5.85867 0
M  V30 8374 N 654.836 0.78573 -4.56183 0
M  V30 8375 C 654.686 0.0292889 -3.41887 0
M  V30 8376 O 654.596 -1.18445 -3.4419 0
M  V30 8377 N 654.646 0.744061 -2.23964 0
M  V30 8378 C 654.736 2.10932 -2.10362 0
M  V30 8379 C 654.886 2.8202 -3.34994 0
M  V30 8380 C 654.936 2.15547 -4.52261 0
M  V30 8381 H 657.677 1.93379 -8.46595 0
M  V30 8382 H 657.946 1.68132 -6.70852 0
M  V30 8383 H 657.079 -0.289041 -8.15388 0
M  V30 8384 H 654.424 -0.926847 -5.72749 0
M  V30 8385 H 654.145 1.86973 -6.82036 0
M  V30 8386 H 653.153 0.403896 -7.13257 0
M  V30 8387 H 654.987 1.20585 -8.97435 0
M  V30 8388 H 655.058 2.71231 -5.45042 0
M  V30 8389 P 653.116 -1.17771 -8.83182 0
M  V30 8390 O 652.896 -2.07206 -9.98732 0
M  V30 8391 O 652.326 0.0743816 -8.81969 0
M  V30 8392 O 652.866 -1.97652 -7.47304 0
M  V30 8393 C 653.806 -3.01133 -7.08783 0
M  V30 8394 C 653.076 -4.12613 -6.37049 0
M  V30 8395 O 652.866 -3.72827 -4.97879 0
M  V30 8396 C 651.676 -4.45085 -6.88694 0
M  V30 8397 O 651.286 -5.7877 -6.5624 0
M  V30 8398 C 650.796 -3.47817 -6.12078 0
M  V30 8399 C 651.506 -3.39414 -4.77697 0
M  V30 8400 N 651.456 -2.04615 -4.15333 0
M  V30 8401 H 654.295 -3.41248 -7.98759 0
M  V30 8402 H 654.567 -2.5837 -6.41742 0
M  V30 8403 H 653.699 -5.02657 -6.42673 0
M  V30 8404 P 649.736 -6.144 -6.45285 0
M  V30 8405 O 649.516 -7.54673 -6.86199 0
M  V30 8406 O 648.946 -5.12391 -7.179 0
M  V30 8407 O 649.486 -5.99158 -4.88404 0
M  V30 8408 C 650.426 -6.60234 -3.96415 0
M  V30 8409 C 649.696 -7.08259 -2.72856 0
M  V30 8410 O 649.486 -5.9427 -1.83651 0
M  V30 8411 C 648.296 -7.64886 -2.9555 0
M  V30 8412 O 647.906 -8.53963 -1.90717 0
M  V30 8413 C 647.416 -6.4116 -2.90739 0
M  V30 8414 C 648.126 -5.55375 -1.86963 0
M  V30 8415 N 648.076 -4.09448 -2.16152 0
M  V30 8416 C 648.156 -3.46824 -3.37593 0
M  V30 8417 N 648.086 -2.17422 -3.29777 0
M  V30 8418 C 647.936 -1.93065 -1.94427 0
M  V30 8419 C 647.806 -0.738053 -1.20141 0
M  V30 8420 N 647.796 0.474256 -1.74676 0
M  V30 8421 N 647.686 -0.850049 0.13045 0
M  V30 8422 C 647.696 -2.06169 0.676992 0
M  V30 8423 N 647.816 -3.23842 0.101312 0
M  V30 8424 C 647.936 -3.09402 -1.23122 0
M  V30 8425 H 650.915 -7.45574 -4.45629 0
M  V30 8426 H 651.187 -5.85864 -3.679 0
M  V30 8427 H 650.319 -7.84412 -2.24479 0
M  V30 8428 H 647.664 -5.73457 -0.888562 0
M  V30 8429 H 647.384 -5.90877 -3.88583 0
M  V30 8430 H 646.393 -6.6596 -2.58858 0
M  V30 8431 H 648.227 -8.16339 -3.92049 0
M  V30 8432 H 648.268 -4.00505 -4.3174 0
M  V30 8433 H 647.887 0.581337 -2.76658 0
M  V30 8434 H 647.698 1.30811 -1.14888 0
M  V30 8435 H 647.59 -2.08295 1.75542 0
M  V30 8436 P 646.356 -8.7635 -1.60911 0
M  V30 8437 O 646.136 -10.1388 -1.11561 0
M  V30 8438 O 645.566 -8.36503 -2.79617 0
M  V30 8439 O 646.106 -7.71806 -0.42951 0
M  V30 8440 C 647.046 -7.67148 0.673689 0
M  V30 8441 C 646.316 -7.33374 1.95559 0
M  V30 8442 O 646.106 -5.88721 2.00726 0
M  V30 8443 C 644.916 -7.92526 2.10483 0
M  V30 8444 O 644.526 -8.02971 3.47653 0
M  V30 8445 C 644.036 -6.89602 1.41652 0
M  V30 8446 C 644.746 -5.59201 1.75185 0
M  V30 8447 N 644.696 -4.58235 0.662552 0
M  V30 8448 H 647.535 -8.65116 0.777161 0
M  V30 8449 H 647.807 -6.90173 0.474152 0
M  V30 8450 H 646.939 -7.66548 2.79458 0
M  V30 8451 P 642.976 -8.03563 3.84925 0
M  V30 8452 O 642.756 -8.85821 5.0569 0
M  V30 8453 O 642.186 -8.41101 2.65469 0
M  V30 8454 O 642.726 -6.4965 4.18908 0
M  V30 8455 C 643.666 -5.81037 5.05421 0
M  V30 8456 C 642.936 -4.78366 5.89277 0
M  V30 8457 O 642.726 -3.58302 5.08433 0
M  V30 8458 C 641.536 -5.17448 6.36119 0
M  V30 8459 O 641.146 -4.45271 7.53232 0
M  V30 8460 C 640.656 -4.74639 5.19936 0
M  V30 8461 C 641.366 -3.49432 4.70418 0
M  V30 8462 N 641.316 -3.31776 3.22945 0
M  V30 8463 H 644.155 -6.54213 5.71376 0
M  V30 8464 H 644.427 -5.30492 4.44033 0
M  V30 8465 H 643.559 -4.55889 6.76652 0
M  V30 8466 P 639.596 -4.23843 7.83734 0
M  V30 8467 O 639.376 -4.19407 9.29784 0
M  V30 8468 O 638.806 -5.24426 7.09156 0
M  V30 8469 O 639.346 -2.79386 7.20852 0
M  V30 8470 C 640.286 -1.7299 7.50419 0
M  V30 8471 C 639.556 -0.41401 7.5797 0
M  V30 8472 O 639.346 0.089787 6.22035 0
M  V30 8473 C 638.156 -0.447224 8.1878 0
M  V30 8474 O 637.766 0.825159 8.71201 0
M  V30 8475 C 637.276 -0.783801 6.99623 0
M  V30 8476 C 637.986 -0.0619192 5.85967 0
M  V30 8477 N 637.936 -0.7859 4.56281 0
M  V30 8478 C 637.786 -0.0359258 3.39981 0
M  V30 8479 O 637.696 1.19723 3.49038 0
M  V30 8480 N 637.736 -0.869151 2.14025 0
M  V30 8481 C 637.836 -2.01207 2.14363 0
M  V30 8482 N 637.786 -2.58978 0.954287 0
M  V30 8483 C 637.986 -2.80817 3.32215 0
M  V30 8484 C 638.036 -2.13785 4.50884 0
M  V30 8485 H 640.776 -1.93401 8.46693 0
M  V30 8486 H 641.046 -1.68181 6.71046 0
M  V30 8487 H 640.179 0.289076 8.15488 0
M  V30 8488 H 637.524 0.927166 5.72947 0
M  V30 8489 H 637.244 -1.87 6.82132 0
M  V30 8490 H 636.253 -0.404009 7.13457 0
M  V30 8491 H 638.087 -1.20599 8.97534 0
M  V30 8492 H 638.159 -2.70295 5.43162 0
M  V30 8493 H 638.057 -3.89465 3.27406 0
M  V30 8494 H 637.669 -2.01616 0.107046 0
M  V30 8495 H 637.865 -3.61403 0.873101 0
M  V30 8496 P 636.216 1.17771 8.83182 0
M  V30 8497 O 635.996 2.07206 9.98732 0
M  V30 8498 O 635.426 -0.0743816 8.81969 0
M  V30 8499 O 635.966 1.97652 7.47304 0
M  V30 8500 C 636.906 3.01133 7.08783 0
M  V30 8501 C 636.176 4.12613 6.37049 0
M  V30 8502 O 635.966 3.72827 4.97879 0
M  V30 8503 C 634.776 4.45085 6.88694 0
M  V30 8504 O 634.386 5.7877 6.5624 0
M  V30 8505 C 633.896 3.47817 6.12078 0
M  V30 8506 C 634.606 3.39414 4.77697 0
M  V30 8507 N 634.556 2.04615 4.15333 0
M  V30 8508 H 637.395 3.41248 7.98759 0
M  V30 8509 H 637.667 2.5837 6.41742 0
M  V30 8510 H 636.799 5.02657 6.42673 0
M  V30 8511 P 632.836 6.144 6.45285 0
M  V30 8512 O 632.616 7.54673 6.86199 0
M  V30 8513 O 632.046 5.12391 7.179 0
M  V30 8514 O 632.586 5.99158 4.88404 0
M  V30 8515 C 633.526 6.60234 3.96415 0
M  V30 8516 C 632.796 7.08259 2.72856 0
M  V30 8517 O 632.586 5.9427 1.83651 0
M  V30 8518 C 631.396 7.64886 2.9555 0
M  V30 8519 O 631.006 8.53963 1.90717 0
M  V30 8520 C 630.516 6.4116 2.90739 0
M  V30 8521 C 631.226 5.55375 1.86963 0
M  V30 8522 N 631.176 4.09664 2.15742 0
M  V30 8523 H 634.015 7.45574 4.45629 0
M  V30 8524 H 634.287 5.86232 3.67314 0
M  V30 8525 H 633.419 7.84412 2.24479 0
M  V30 8526 P 629.456 8.7635 1.60911 0
M  V30 8527 O 629.236 10.1388 1.11561 0
M  V30 8528 O 628.666 8.36503 2.79617 0
M  V30 8529 O 629.206 7.71806 0.42951 0
M  V30 8530 C 630.146 7.67148 -0.673689 0
M  V30 8531 C 629.416 7.33374 -1.95559 0
M  V30 8532 O 629.206 5.88721 -2.00726 0
M  V30 8533 C 628.016 7.92526 -2.10483 0
M  V30 8534 O 627.626 8.02971 -3.47653 0
M  V30 8535 C 627.136 6.89602 -1.41652 0
M  V30 8536 C 627.846 5.59201 -1.75185 0
M  V30 8537 N 627.796 4.58235 -0.662552 0
M  V30 8538 H 630.635 8.65116 -0.777161 0
M  V30 8539 H 630.907 6.90173 -0.474152 0
M  V30 8540 H 630.039 7.66548 -2.79458 0
M  V30 8541 P 626.076 8.03563 -3.84925 0
M  V30 8542 O 625.856 8.85821 -5.0569 0
M  V30 8543 O 625.286 8.41101 -2.65469 0
M  V30 8544 O 625.826 6.4965 -4.18908 0
M  V30 8545 C 626.766 5.81037 -5.05421 0
M  V30 8546 C 626.036 4.78366 -5.89277 0
M  V30 8547 O 625.826 3.58302 -5.08433 0
M  V30 8548 C 624.636 5.17448 -6.36119 0
M  V30 8549 O 624.246 4.45271 -7.53232 0
M  V30 8550 C 623.756 4.74639 -5.19936 0
M  V30 8551 C 624.466 3.49432 -4.70418 0
M  V30 8552 N 624.416 3.31776 -3.22945 0
M  V30 8553 H 627.255 6.54213 -5.71376 0
M  V30 8554 H 627.527 5.30492 -4.44033 0
M  V30 8555 H 626.659 4.55889 -6.76652 0
M  V30 8556 P 622.696 4.23843 -7.83734 0
M  V30 8557 O 622.476 4.19407 -9.29784 0
M  V30 8558 O 621.906 5.24426 -7.09156 0
M  V30 8559 O 622.446 2.7935 -7.20758 0
M  V30 8560 C 623.386 1.7299 -7.50419 0
M  V30 8561 C 622.656 0.406376 -7.57911 0
M  V30 8562 O 622.446 -0.0897726 -6.21935 0
M  V30 8563 C 621.256 0.447224 -8.1878 0
M  V30 8564 O 620.866 -0.825065 -8.71101 0
M  V30 8565 C 620.376 0.783801 -6.99623 0
M  V30 8566 C 621.086 0.0619192 -5.85967 0
M  V30 8567 N 621.036 0.7859 -4.56281 0
M  V30 8568 H 623.875 1.93423 -8.4679 0
M  V30 8569 H 624.147 1.68181 -6.71046 0
M  V30 8570 H 623.279 -0.289041 -8.15388 0
M  V30 8571 P 619.316 -1.17771 -8.83182 0
M  V30 8572 O 619.096 -2.07206 -9.98732 0
M  V30 8573 O 618.526 0.0743816 -8.81969 0
M  V30 8574 O 619.066 -1.97652 -7.47304 0
M  V30 8575 C 620.006 -3.01055 -7.08599 0
M  V30 8576 C 619.276 -4.12613 -6.37049 0
M  V30 8577 O 619.066 -3.72827 -4.97879 0
M  V30 8578 C 617.876 -4.45719 -6.88164 0
M  V30 8579 O 617.486 -5.7877 -6.5624 0
M  V30 8580 C 616.996 -3.47768 -6.11991 0
M  V30 8581 C 617.706 -3.39356 -4.77615 0
M  V30 8582 N 617.656 -2.04571 -4.15244 0
M  V30 8583 C 617.506 -1.98587 -2.78314 0
M  V30 8584 O 617.416 -2.98134 -2.08835 0
M  V30 8585 N 617.466 -0.714467 -2.24925 0
M  V30 8586 C 617.556 0.470001 -2.94169 0
M  V30 8587 O 617.506 1.55587 -2.35195 0
M  V30 8588 C 617.706 0.312541 -4.36783 0
M  V30 8589 C 617.816 1.57711 -5.16352 0
M  V30 8590 C 617.756 -0.914512 -4.92583 0
M  V30 8591 H 620.497 -3.41169 -7.98575 0
M  V30 8592 H 620.766 -2.58295 -6.41556 0
M  V30 8593 H 619.899 -5.02657 -6.42673 0
M  V30 8594 H 617.244 -4.11637 -4.08885 0
M  V30 8595 H 616.965 -2.49626 -6.61679 0
M  V30 8596 H 615.973 -3.86566 -6.00778 0
M  V30 8597 H 617.807 -4.29943 -7.96918 0
M  V30 8598 H 617.878 -1.00937 -6.00374 0
M  V30 8599 H 616.848 1.80153 -5.63503 0
M  V30 8600 H 618.585 1.4566 -5.94104 0
M  V30 8601 H 618.097 2.40664 -4.49645 0
M  V30 8602 H 617.361 -0.647622 -1.25697 0
M  V30 8603 P 615.936 -6.144 -6.45285 0
M  V30 8604 O 615.716 -7.54673 -6.86199 0
M  V30 8605 O 615.146 -5.12391 -7.179 0
M  V30 8606 O 615.686 -5.99158 -4.88404 0
M  V30 8607 C 616.626 -6.60062 -3.96313 0
M  V30 8608 C 615.896 -7.08259 -2.72856 0
M  V30 8609 O 615.686 -5.9427 -1.83651 0
M  V30 8610 C 614.496 -7.65087 -2.94749 0
M  V30 8611 O 614.106 -8.53963 -1.90717 0
M  V30 8612 C 613.616 -6.41069 -2.90698 0
M  V30 8613 C 614.326 -5.5528 -1.86931 0
M  V30 8614 N 614.276 -4.09575 -2.15696 0
M  V30 8615 C 614.126 -3.24249 -1.08435 0
M  V30 8616 O 614.036 -3.63946 0.0628747 0
M  V30 8617 N 614.086 -1.90009 -1.39973 0
M  V30 8618 C 614.176 -1.34884 -2.65614 0
M  V30 8619 C 614.326 -2.3145 -3.71736 0
M  V30 8620 C 614.376 -3.63518 -3.44754 0
M  V30 8621 H 617.117 -7.45402 -4.45526 0
M  V30 8622 H 617.386 -5.86062 -3.67208 0
M  V30 8623 H 616.519 -7.84412 -2.24479 0
M  V30 8624 H 613.864 -5.73358 -0.888409 0
M  V30 8625 H 613.585 -5.90877 -3.88583 0
M  V30 8626 H 612.593 -6.65867 -2.58821 0
M  V30 8627 H 614.427 -8.16248 -3.92006 0
M  V30 8628 H 614.498 -4.34551 -4.26383 0
M  V30 8629 P 612.556 -8.7635 -1.60911 0
M  V30 8630 O 612.336 -10.1388 -1.11561 0
M  V30 8631 O 611.766 -8.36503 -2.79617 0
M  V30 8632 O 612.306 -7.71806 -0.42951 0
M  V30 8633 C 613.246 -7.67148 0.673689 0
M  V30 8634 C 612.516 -7.33374 1.95559 0
M  V30 8635 O 612.306 -5.88721 2.00726 0
M  V30 8636 C 611.116 -7.92526 2.10483 0
M  V30 8637 O 610.726 -8.02971 3.47653 0
M  V30 8638 C 610.236 -6.89602 1.41652 0
M  V30 8639 C 610.946 -5.59201 1.75185 0
M  V30 8640 N 610.896 -4.58235 0.662552 0
M  V30 8641 H 613.735 -8.65116 0.777161 0
M  V30 8642 H 614.007 -6.90173 0.474152 0
M  V30 8643 H 613.139 -7.66548 2.79458 0
M  V30 8644 P 609.176 -8.03563 3.84925 0
M  V30 8645 O 608.956 -8.85821 5.0569 0
M  V30 8646 O 608.386 -8.41101 2.65469 0
M  V30 8647 O 608.926 -6.4965 4.18908 0
M  V30 8648 C 609.866 -5.81037 5.05421 0
M  V30 8649 C 609.136 -4.78366 5.89277 0
M  V30 8650 O 608.926 -3.58302 5.08433 0
M  V30 8651 C 607.736 -5.17448 6.36119 0
M  V30 8652 O 607.346 -4.45271 7.53232 0
M  V30 8653 C 606.856 -4.74639 5.19936 0
M  V30 8654 C 607.566 -3.49432 4.70418 0
M  V30 8655 N 607.516 -3.31776 3.22945 0
M  V30 8656 H 610.355 -6.54213 5.71376 0
M  V30 8657 H 610.627 -5.30492 4.44033 0
M  V30 8658 H 609.759 -4.55889 6.76652 0
M  V30 8659 P 605.796 -4.23843 7.83734 0
M  V30 8660 O 605.576 -4.19407 9.29784 0
M  V30 8661 O 605.006 -5.24426 7.09156 0
M  V30 8662 O 605.546 -2.7935 7.20758 0
M  V30 8663 C 606.486 -1.7299 7.50419 0
M  V30 8664 C 605.756 -0.406376 7.57911 0
M  V30 8665 O 605.546 0.0897726 6.21935 0
M  V30 8666 C 604.356 -0.447224 8.1878 0
M  V30 8667 O 603.966 0.825065 8.71101 0
M  V30 8668 C 603.476 -0.783801 6.99623 0
M  V30 8669 C 604.186 -0.0619192 5.85967 0
M  V30 8670 N 604.136 -0.7859 4.56281 0
M  V30 8671 H 606.975 -1.93423 8.4679 0
M  V30 8672 H 607.247 -1.68181 6.71046 0
M  V30 8673 H 606.379 0.289041 8.15388 0
M  V30 8674 P 602.416 1.17771 8.83182 0
M  V30 8675 O 602.196 2.07206 9.98732 0
M  V30 8676 O 601.626 -0.0743816 8.81969 0
M  V30 8677 O 602.166 1.97652 7.47304 0
M  V30 8678 C 603.106 3.01133 7.08783 0
M  V30 8679 C 602.376 4.12613 6.37049 0
M  V30 8680 O 602.166 3.72827 4.97879 0
M  V30 8681 C 600.976 4.45085 6.88694 0
M  V30 8682 O 600.586 5.7877 6.5624 0
M  V30 8683 C 600.096 3.47817 6.12078 0
M  V30 8684 C 600.806 3.39414 4.77697 0
M  V30 8685 N 600.756 2.04615 4.15333 0
M  V30 8686 C 600.836 0.803897 4.75249 0
M  V30 8687 N 600.756 -0.197615 3.91502 0
M  V30 8688 C 600.616 0.413002 2.66823 0
M  V30 8689 C 600.486 -0.157221 1.38007 0
M  V30 8690 O 600.466 -1.34419 1.057 0
M  V30 8691 N 600.366 0.833136 0.390236 0
M  V30 8692 C 600.366 2.19402 0.623885 0
M  V30 8693 N 600.236 2.97622 -0.449677 0
M  V30 8694 N 600.496 2.73005 1.83601 0
M  V30 8695 C 600.616 1.78786 2.80935 0
M  V30 8696 H 603.595 3.41248 7.98759 0
M  V30 8697 H 603.867 2.5837 6.41742 0
M  V30 8698 H 602.999 5.02657 6.42673 0
M  V30 8699 H 600.344 4.11779 4.09026 0
M  V30 8700 H 600.064 2.49661 6.61772 0
M  V30 8701 H 599.073 3.86674 6.00946 0
M  V30 8702 H 600.907 4.30038 7.97094 0
M  V30 8703 H 600.956 0.670579 5.82754 0
M  V30 8704 H 600.274 0.528446 -0.557287 0
M  V30 8705 H 600.237 4.00117 -0.344773 0
M  V30 8706 H 600.136 2.55448 -1.38544 0
M  V30 8707 P 599.036 6.144 6.45285 0
M  V30 8708 O 598.816 7.54673 6.86199 0
M  V30 8709 O 598.246 5.12391 7.179 0
M  V30 8710 O 598.786 5.99158 4.88404 0
M  V30 8711 C 599.726 6.60062 3.96313 0
M  V30 8712 C 598.996 7.08259 2.72856 0
M  V30 8713 O 598.786 5.9427 1.83651 0
M  V30 8714 C 597.596 7.65087 2.94749 0
M  V30 8715 O 597.206 8.53963 1.90717 0
M  V30 8716 C 596.716 6.41069 2.90698 0
M  V30 8717 C 597.426 5.5528 1.86931 0
M  V30 8718 N 597.376 4.09575 2.15696 0
M  V30 8719 C 597.226 3.24249 1.08435 0
M  V30 8720 O 597.136 3.63946 -0.0628747 0
M  V30 8721 N 597.186 1.90009 1.39973 0
M  V30 8722 C 597.276 1.34884 2.65614 0
M  V30 8723 O 597.226 0.123716 2.81728 0
M  V30 8724 C 597.426 2.3145 3.71736 0
M  V30 8725 C 597.536 1.75913 5.10438 0
M  V30 8726 C 597.476 3.63518 3.44754 0
M  V30 8727 H 600.217 7.45402 4.45526 0
M  V30 8728 H 600.486 5.86062 3.67208 0
M  V30 8729 H 599.619 7.84412 2.24479 0
M  V30 8730 H 596.964 5.73358 0.888409 0
M  V30 8731 H 596.685 5.90877 3.88583 0
M  V30 8732 H 595.693 6.65867 2.58821 0
M  V30 8733 H 597.527 8.16248 3.92006 0
M  V30 8734 H 597.598 4.34551 4.26383 0
M  V30 8735 H 596.568 1.85471 5.61775 0
M  V30 8736 H 598.305 2.31364 5.66257 0
M  V30 8737 H 597.817 0.695936 5.05229 0
M  V30 8738 H 597.081 1.26277 0.63625 0
M  V30 8739 P 595.656 8.7635 1.60911 0
M  V30 8740 O 595.437 10.1388 1.11561 0
M  V30 8741 O 594.866 8.36503 2.79617 0
M  V30 8742 O 595.406 7.71906 0.429565 0
M  V30 8743 C 596.346 7.67148 -0.673689 0
M  V30 8744 C 595.616 7.33666 -1.94851 0
M  V30 8745 O 595.406 5.88816 -2.00759 0
M  V30 8746 C 594.216 7.92526 -2.10483 0
M  V30 8747 O 593.827 8.03063 -3.47693 0
M  V30 8748 C 593.337 6.89602 -1.41652 0
M  V30 8749 C 594.046 5.59201 -1.75185 0
M  V30 8750 N 593.996 4.58235 -0.662552 0
M  V30 8751 C 593.846 3.24451 -1.01643 0
M  V30 8752 O 593.756 2.94958 -2.21722 0
M  V30 8753 N 593.796 2.30408 0.165238 0
M  V30 8754 C 593.896 2.66048 1.25118 0
M  V30 8755 N 593.846 1.70787 2.16813 0
M  V30 8756 C 594.046 4.02732 1.64413 0
M  V30 8757 C 594.096 4.9488 0.63991 0
M  V30 8758 H 596.837 8.65017 -0.777072 0
M  V30 8759 H 597.106 6.90173 -0.474152 0
M  V30 8760 H 596.24 7.66642 -2.79492 0
M  V30 8761 H 593.584 5.16254 -2.65229 0
M  V30 8762 H 593.304 7.06532 -0.329431 0
M  V30 8763 H 592.313 6.91023 -1.82047 0
M  V30 8764 H 594.147 8.90873 -1.62657 0
M  V30 8765 H 594.219 6.00104 0.892197 0
M  V30 8766 H 594.117 4.31733 2.69229 0
M  V30 8767 H 593.729 0.724835 1.8844 0
M  V30 8768 H 593.925 1.94716 3.16734 0
M  V30 8769 P 592.277 8.03563 -3.84925 0
M  V30 8770 O 592.057 8.85821 -5.0569 0
M  V30 8771 O 591.487 8.41101 -2.65469 0
M  V30 8772 O 592.027 6.4965 -4.18908 0
M  V30 8773 C 592.967 5.81037 -5.05421 0
M  V30 8774 C 592.237 4.78366 -5.89277 0
M  V30 8775 O 592.027 3.58302 -5.08433 0
M  V30 8776 C 590.837 5.17448 -6.36119 0
M  V30 8777 O 590.447 4.45271 -7.53232 0
M  V30 8778 C 589.957 4.74639 -5.19936 0
M  V30 8779 C 590.667 3.49432 -4.70418 0
M  V30 8780 N 590.617 3.32099 -3.22613 0
M  V30 8781 H 593.456 6.54213 -5.71376 0
M  V30 8782 H 593.728 5.30936 -4.43503 0
M  V30 8783 H 592.86 4.55889 -6.76652 0
M  V30 8784 H 590.205 2.61715 -5.17932 0
M  V30 8785 H 589.925 5.52155 -4.41878 0
M  V30 8786 H 588.934 4.51981 -5.53374 0
M  V30 8787 H 590.768 6.25124 -6.55234 0
M  V30 8788 P 588.897 4.23843 -7.83734 0
M  V30 8789 O 588.677 4.19407 -9.29784 0
M  V30 8790 O 588.107 5.24426 -7.09156 0
M  V30 8791 O 588.647 2.79386 -7.20852 0
M  V30 8792 C 589.587 1.7299 -7.50419 0
M  V30 8793 C 588.857 0.41401 -7.5797 0
M  V30 8794 O 588.647 -0.089787 -6.22035 0
M  V30 8795 C 587.457 0.447224 -8.1878 0
M  V30 8796 O 587.067 -0.825159 -8.71201 0
M  V30 8797 C 586.577 0.783801 -6.99623 0
M  V30 8798 C 587.287 0.0619192 -5.85967 0
M  V30 8799 N 587.237 0.7859 -4.56281 0
M  V30 8800 C 587.087 0.0359258 -3.39981 0
M  V30 8801 O 586.997 -1.19723 -3.49038 0
M  V30 8802 N 587.037 0.869151 -2.14025 0
M  V30 8803 C 587.137 2.01207 -2.14363 0
M  V30 8804 N 587.087 2.58978 -0.954287 0
M  V30 8805 C 587.287 2.80817 -3.32215 0
M  V30 8806 C 587.337 2.13785 -4.50884 0
M  V30 8807 H 590.077 1.93401 -8.46693 0
M  V30 8808 H 590.347 1.68181 -6.71046 0
M  V30 8809 H 589.48 -0.289076 -8.15488 0
M  V30 8810 H 586.825 -0.927166 -5.72947 0
M  V30 8811 H 586.545 1.87 -6.82132 0
M  V30 8812 H 585.554 0.404009 -7.13457 0
M  V30 8813 H 587.388 1.20599 -8.97534 0
M  V30 8814 H 587.46 2.70295 -5.43162 0
M  V30 8815 H 587.358 3.89465 -3.27406 0
M  V30 8816 H 586.97 2.01616 -0.107046 0
M  V30 8817 H 587.166 3.61403 -0.873101 0
M  V30 8818 P 585.517 -1.17771 -8.83182 0
M  V30 8819 O 585.297 -2.07206 -9.98732 0
M  V30 8820 O 584.727 0.0743816 -8.81969 0
M  V30 8821 O 585.267 -1.97652 -7.47304 0
M  V30 8822 C 586.207 -3.01133 -7.08783 0
M  V30 8823 C 585.477 -4.12613 -6.37049 0
M  V30 8824 O 585.267 -3.72827 -4.97879 0
M  V30 8825 C 584.077 -4.45085 -6.88694 0
M  V30 8826 O 583.687 -5.7877 -6.5624 0
M  V30 8827 C 583.197 -3.47817 -6.12078 0
M  V30 8828 C 583.907 -3.39414 -4.77697 0
M  V30 8829 N 583.857 -2.04615 -4.15333 0
M  V30 8830 H 586.696 -3.41248 -7.98759 0
M  V30 8831 H 586.968 -2.5837 -6.41742 0
M  V30 8832 H 586.1 -5.02657 -6.42673 0
M  V30 8833 P 582.137 -6.144 -6.45285 0
M  V30 8834 O 581.917 -7.54673 -6.86199 0
M  V30 8835 O 581.347 -5.12391 -7.179 0
M  V30 8836 O 581.887 -5.99158 -4.88404 0
M  V30 8837 C 582.827 -6.60234 -3.96415 0
M  V30 8838 C 582.097 -7.08259 -2.72856 0
M  V30 8839 O 581.887 -5.9427 -1.83651 0
M  V30 8840 C 580.697 -7.64886 -2.9555 0
M  V30 8841 O 580.307 -8.53963 -1.90717 0
M  V30 8842 C 579.817 -6.4116 -2.90739 0
M  V30 8843 C 580.527 -5.55375 -1.86963 0
M  V30 8844 N 580.477 -4.09448 -2.16152 0
M  V30 8845 H 583.316 -7.45574 -4.45629 0
M  V30 8846 H 583.588 -5.85864 -3.679 0
M  V30 8847 H 582.72 -7.84412 -2.24479 0
M  V30 8848 H 580.065 -5.73457 -0.888562 0
M  V30 8849 H 579.785 -5.90877 -3.88583 0
M  V30 8850 H 578.794 -6.6596 -2.58858 0
M  V30 8851 H 580.628 -8.16339 -3.92049 0
M  V30 8852 P 578.757 -8.7635 -1.60911 0
M  V30 8853 O 578.537 -10.1388 -1.11561 0
M  V30 8854 O 577.967 -8.36503 -2.79617 0
M  V30 8855 O 578.507 -7.71806 -0.42951 0
M  V30 8856 C 579.447 -7.67148 0.673689 0
M  V30 8857 C 578.717 -7.33374 1.95559 0
M  V30 8858 O 578.507 -5.88721 2.00726 0
M  V30 8859 C 577.317 -7.92526 2.10483 0
M  V30 8860 O 576.927 -8.02971 3.47653 0
M  V30 8861 C 576.437 -6.89602 1.41652 0
M  V30 8862 C 577.147 -5.59201 1.75185 0
M  V30 8863 N 577.097 -4.58301 0.657969 0
M  V30 8864 H 579.936 -8.65116 0.777161 0
M  V30 8865 H 580.208 -6.9022 0.46725 0
M  V30 8866 H 579.34 -7.66548 2.79458 0
M  V30 8867 H 576.685 -5.16165 2.65183 0
M  V30 8868 H 576.405 -7.06433 0.329384 0
M  V30 8869 H 575.414 -6.90926 1.82021 0
M  V30 8870 H 577.248 -8.90873 1.62657 0
M  V30 8871 P 575.377 -8.03563 3.84925 0
M  V30 8872 O 575.157 -8.85821 5.0569 0
M  V30 8873 O 574.587 -8.41101 2.65469 0
M  V30 8874 O 575.127 -6.4965 4.18908 0
M  V30 8875 C 576.067 -5.81037 5.05421 0
M  V30 8876 C 575.337 -4.78366 5.89277 0
M  V30 8877 O 575.127 -3.58302 5.08433 0
M  V30 8878 C 573.937 -5.17448 6.36119 0
M  V30 8879 O 573.547 -4.45271 7.53232 0
M  V30 8880 C 573.057 -4.74639 5.19936 0
M  V30 8881 C 573.767 -3.49432 4.70418 0
M  V30 8882 N 573.717 -3.31776 3.22945 0
M  V30 8883 H 576.556 -6.54213 5.71376 0
M  V30 8884 H 576.828 -5.30492 4.44033 0
M  V30 8885 H 575.96 -4.55889 6.76652 0
M  V30 8886 P 571.997 -4.23843 7.83734 0
M  V30 8887 O 571.777 -4.19407 9.29784 0
M  V30 8888 O 571.207 -5.24426 7.09156 0
M  V30 8889 O 571.747 -2.7935 7.20758 0
M  V30 8890 C 572.687 -1.7299 7.50419 0
M  V30 8891 C 571.957 -0.406376 7.57911 0
M  V30 8892 O 571.747 0.0897726 6.21935 0
M  V30 8893 C 570.557 -0.447224 8.1878 0
M  V30 8894 O 570.167 0.825065 8.71101 0
M  V30 8895 C 569.677 -0.783801 6.99623 0
M  V30 8896 C 570.387 -0.0619192 5.85967 0
M  V30 8897 N 570.337 -0.7859 4.56281 0
M  V30 8898 H 573.176 -1.93423 8.4679 0
M  V30 8899 H 573.448 -1.68181 6.71046 0
M  V30 8900 H 572.58 0.289041 8.15388 0
M  V30 8901 P 568.617 1.17771 8.83182 0
M  V30 8902 O 568.397 2.07206 9.98732 0
M  V30 8903 O 567.827 -0.0743816 8.81969 0
M  V30 8904 O 568.367 1.97652 7.47304 0
M  V30 8905 C 569.307 3.01133 7.08783 0
M  V30 8906 C 568.577 4.12613 6.37049 0
M  V30 8907 O 568.367 3.72827 4.97879 0
M  V30 8908 C 567.177 4.45085 6.88694 0
M  V30 8909 O 566.787 5.7877 6.5624 0
M  V30 8910 C 566.297 3.47817 6.12078 0
M  V30 8911 C 567.007 3.39414 4.77697 0
M  V30 8912 N 566.957 2.04615 4.15333 0
M  V30 8913 H 569.796 3.41248 7.98759 0
M  V30 8914 H 570.068 2.5837 6.41742 0
M  V30 8915 H 569.2 5.02657 6.42673 0
M  V30 8916 P 565.237 6.144 6.45285 0
M  V30 8917 O 565.017 7.54673 6.86199 0
M  V30 8918 O 564.447 5.12391 7.179 0
M  V30 8919 O 564.987 5.99158 4.88404 0
M  V30 8920 C 565.927 6.60234 3.96415 0
M  V30 8921 C 565.197 7.08259 2.72856 0
M  V30 8922 O 564.987 5.9427 1.83651 0
M  V30 8923 C 563.797 7.64886 2.9555 0
M  V30 8924 O 563.407 8.53963 1.90717 0
M  V30 8925 C 562.917 6.4116 2.90739 0
M  V30 8926 C 563.627 5.55375 1.86963 0
M  V30 8927 N 563.577 4.09664 2.15742 0
M  V30 8928 C 563.657 3.44381 3.37233 0
M  V30 8929 N 563.577 2.14131 3.28347 0
M  V30 8930 C 563.437 1.90247 1.91588 0
M  V30 8931 C 563.307 0.683992 1.20892 0
M  V30 8932 O 563.287 -0.46618 1.64523 0
M  V30 8933 N 563.187 0.903396 -0.173998 0
M  V30 8934 C 563.187 2.14171 -0.784879 0
M  V30 8935 N 563.057 2.1435 -2.11317 0
M  V30 8936 N 563.317 3.28784 -0.119316 0
M  V30 8937 C 563.437 3.0977 1.22194 0
M  V30 8938 H 566.416 7.45574 4.45629 0
M  V30 8939 H 566.688 5.86232 3.67314 0
M  V30 8940 H 565.82 7.84412 2.24479 0
M  V30 8941 H 563.165 5.73556 0.888715 0
M  V30 8942 H 562.885 5.9096 3.88638 0
M  V30 8943 H 561.894 6.66053 2.58894 0
M  V30 8944 H 563.728 8.16429 3.92093 0
M  V30 8945 H 563.777 3.96785 4.32043 0
M  V30 8946 H 563.095 0.0999567 -0.761467 0
M  V30 8947 H 563.058 3.03436 -2.63076 0
M  V30 8948 H 562.957 1.25228 -2.62233 0
M  V30 8949 P 561.857 8.7635 1.60911 0
M  V30 8950 O 561.637 10.1388 1.11561 0
M  V30 8951 O 561.067 8.36503 2.79617 0
M  V30 8952 O 561.607 7.71806 0.42951 0
M  V30 8953 C 562.547 7.67148 -0.673689 0
M  V30 8954 C 561.817 7.33374 -1.95559 0
M  V30 8955 O 561.607 5.88721 -2.00726 0
M  V30 8956 C 560.417 7.92526 -2.10483 0
M  V30 8957 O 560.027 8.02971 -3.47653 0
M  V30 8958 C 559.537 6.89602 -1.41652 0
M  V30 8959 C 560.247 5.59201 -1.75185 0
M  V30 8960 N 560.197 4.58235 -0.662552 0
M  V30 8961 H 563.036 8.65116 -0.777161 0
M  V30 8962 H 563.308 6.90173 -0.474152 0
M  V30 8963 H 562.44 7.66548 -2.79458 0
M  V30 8964 P 558.477 8.03563 -3.84925 0
M  V30 8965 O 558.257 8.85821 -5.0569 0
M  V30 8966 O 557.687 8.41101 -2.65469 0
M  V30 8967 O 558.227 6.4965 -4.18908 0
M  V30 8968 C 559.167 5.81037 -5.05421 0
M  V30 8969 C 558.437 4.78366 -5.89277 0
M  V30 8970 O 558.227 3.58302 -5.08433 0
M  V30 8971 C 557.037 5.17448 -6.36119 0
M  V30 8972 O 556.647 4.45271 -7.53232 0
M  V30 8973 C 556.157 4.74639 -5.19936 0
M  V30 8974 C 556.867 3.49432 -4.70418 0
M  V30 8975 N 556.817 3.31776 -3.22945 0
M  V30 8976 C 556.897 4.27147 -2.23315 0
M  V30 8977 N 556.817 3.78447 -1.02186 0
M  V30 8978 C 556.677 2.41001 -1.21732 0
M  V30 8979 C 556.547 1.36111 -0.27694 0
M  V30 8980 N 556.427 0.113683 -0.912949 0
M  V30 8981 C 556.427 -0.0846396 -2.27943 0
M  V30 8982 N 556.297 -1.34737 -2.6916 0
M  V30 8983 N 556.557 0.902521 -3.16379 0
M  V30 8984 C 556.677 2.11937 -2.56849 0
M  V30 8985 H 559.656 6.54213 -5.71376 0
M  V30 8986 H 559.928 5.30492 -4.44033 0
M  V30 8987 H 559.06 4.55889 -6.76652 0
M  V30 8988 P 555.097 4.23843 -7.83734 0
M  V30 8989 O 554.877 4.19407 -9.29784 0
M  V30 8990 O 554.307 5.24426 -7.09156 0
M  V30 8991 O 554.847 2.7935 -7.20758 0
M  V30 8992 C 555.787 1.7299 -7.50419 0
M  V30 8993 C 555.057 0.406376 -7.57911 0
M  V30 8994 O 554.847 -0.0897726 -6.21935 0
M  V30 8995 C 553.657 0.447224 -8.1878 0
M  V30 8996 O 553.267 -0.825065 -8.71101 0
M  V30 8997 C 552.777 0.783801 -6.99623 0
M  V30 8998 C 553.487 0.0619192 -5.85967 0
M  V30 8999 N 553.437 0.7859 -4.56281 0
M  V30 9000 H 556.276 1.93423 -8.4679 0
M  V30 9001 H 556.548 1.68181 -6.71046 0
M  V30 9002 H 555.68 -0.289041 -8.15388 0
M  V30 9003 P 551.717 -1.17771 -8.83182 0
M  V30 9004 O 551.497 -2.07206 -9.98732 0
M  V30 9005 O 550.927 0.0743816 -8.81969 0
M  V30 9006 O 551.467 -1.97678 -7.474 0
M  V30 9007 C 552.407 -3.01133 -7.08783 0
M  V30 9008 C 551.677 -4.1203 -6.37546 0
M  V30 9009 O 551.467 -3.72887 -4.9796 0
M  V30 9010 C 550.277 -4.45085 -6.88694 0
M  V30 9011 O 549.887 -5.78836 -6.56315 0
M  V30 9012 C 549.397 -3.47817 -6.12078 0
M  V30 9013 C 550.107 -3.39414 -4.77697 0
M  V30 9014 N 550.057 -2.04615 -4.15333 0
M  V30 9015 C 549.907 -1.96929 -2.77162 0
M  V30 9016 O 549.817 -3.02017 -2.12006 0
M  V30 9017 N 549.857 -0.55485 -2.24237 0
M  V30 9018 C 549.957 0.367808 -2.9169 0
M  V30 9019 N 549.907 1.53426 -2.29427 0
M  V30 9020 C 550.107 0.319148 -4.33828 0
M  V30 9021 C 550.157 -0.920672 -4.90433 0
M  V30 9022 H 552.897 -3.41209 -7.98667 0
M  V30 9023 H 553.167 -2.5837 -6.41742 0
M  V30 9024 H 552.3 -5.02718 -6.42752 0
M  V30 9025 H 549.645 -4.11779 -4.09026 0
M  V30 9026 H 549.365 -2.49661 -6.61772 0
M  V30 9027 H 548.374 -3.86674 -6.00946 0
M  V30 9028 H 550.208 -4.29991 -7.97006 0
M  V30 9029 H 550.28 -1.00589 -5.98303 0
M  V30 9030 H 550.178 1.22639 -4.93799 0
M  V30 9031 H 549.79 1.56819 -1.27167 0
M  V30 9032 H 549.986 2.41062 -2.83063 0
M  V30 9033 P 548.337 -6.144 -6.45285 0
M  V30 9034 O 548.117 -7.54673 -6.86199 0
M  V30 9035 O 547.547 -5.12391 -7.179 0
M  V30 9036 O 548.087 -5.99158 -4.88404 0
M  V30 9037 C 549.027 -6.60234 -3.96415 0
M  V30 9038 C 548.297 -7.08259 -2.72856 0
M  V30 9039 O 548.087 -5.9427 -1.83651 0
M  V30 9040 C 546.897 -7.64886 -2.9555 0
M  V30 9041 O 546.507 -8.53963 -1.90717 0
M  V30 9042 C 546.017 -6.4116 -2.90739 0
M  V30 9043 C 546.727 -5.55375 -1.86963 0
M  V30 9044 N 546.677 -4.09664 -2.15742 0
M  V30 9045 C 546.757 -3.44381 -3.37233 0
M  V30 9046 N 546.677 -2.14131 -3.28347 0
M  V30 9047 C 546.537 -1.90247 -1.91588 0
M  V30 9048 C 546.407 -0.683992 -1.20892 0
M  V30 9049 N 546.287 -0.903396 0.173998 0
M  V30 9050 C 546.287 -2.14171 0.784879 0
M  V30 9051 N 546.157 -2.1435 2.11317 0
M  V30 9052 N 546.417 -3.28784 0.119316 0
M  V30 9053 C 546.537 -3.0977 -1.22194 0
M  V30 9054 H 549.516 -7.45574 -4.45629 0
M  V30 9055 H 549.788 -5.86232 -3.67314 0
M  V30 9056 H 548.92 -7.84412 -2.24479 0
M  V30 9057 P 544.957 -8.7635 -1.60911 0
M  V30 9058 O 544.737 -10.1388 -1.11561 0
M  V30 9059 O 544.167 -8.36503 -2.79617 0
M  V30 9060 O 544.707 -7.71806 -0.42951 0
M  V30 9061 C 545.647 -7.67148 0.673689 0
M  V30 9062 C 544.917 -7.33374 1.95559 0
M  V30 9063 O 544.707 -5.88721 2.00726 0
M  V30 9064 C 543.517 -7.92526 2.10483 0
M  V30 9065 O 543.127 -8.02971 3.47653 0
M  V30 9066 C 542.637 -6.89602 1.41652 0
M  V30 9067 C 543.347 -5.59201 1.75185 0
M  V30 9068 N 543.297 -4.58235 0.662552 0
M  V30 9069 H 546.136 -8.65116 0.777161 0
M  V30 9070 H 546.408 -6.90173 0.474152 0
M  V30 9071 H 545.54 -7.66548 2.79458 0
M  V30 9072 P 541.577 -8.03563 3.84925 0
M  V30 9073 O 541.357 -8.85821 5.0569 0
M  V30 9074 O 540.787 -8.41101 2.65469 0
M  V30 9075 O 541.327 -6.4965 4.18908 0
M  V30 9076 C 542.267 -5.81037 5.05421 0
M  V30 9077 C 541.537 -4.78366 5.89277 0
M  V30 9078 O 541.327 -3.58302 5.08433 0
M  V30 9079 C 540.137 -5.17448 6.36119 0
M  V30 9080 O 539.747 -4.45271 7.53232 0
M  V30 9081 C 539.257 -4.74639 5.19936 0
M  V30 9082 C 539.967 -3.49432 4.70418 0
M  V30 9083 N 539.917 -3.31776 3.22945 0
M  V30 9084 H 542.756 -6.54213 5.71376 0
M  V30 9085 H 543.028 -5.30492 4.44033 0
M  V30 9086 H 542.16 -4.55889 6.76652 0
M  V30 9087 P 538.197 -4.23843 7.83734 0
M  V30 9088 O 537.977 -4.19407 9.29784 0
M  V30 9089 O 537.407 -5.24426 7.09156 0
M  V30 9090 O 537.947 -2.7935 7.20758 0
M  V30 9091 C 538.887 -1.7299 7.50419 0
M  V30 9092 C 538.157 -0.406376 7.57911 0
M  V30 9093 O 537.947 0.0897726 6.21935 0
M  V30 9094 C 536.757 -0.447224 8.1878 0
M  V30 9095 O 536.367 0.825065 8.71101 0
M  V30 9096 C 535.877 -0.783801 6.99623 0
M  V30 9097 C 536.587 -0.0619192 5.85967 0
M  V30 9098 N 536.537 -0.7859 4.56281 0
M  V30 9099 C 536.617 -2.14308 4.31736 0
M  V30 9100 N 536.537 -2.46106 3.05116 0
M  V30 9101 C 536.397 -1.23422 2.4014 0
M  V30 9102 C 536.267 -0.938381 1.02409 0
M  V30 9103 N 536.147 0.444647 0.805413 0
M  V30 9104 C 536.147 1.40829 1.79435 0
M  V30 9105 N 536.017 2.67213 1.38558 0
M  V30 9106 N 536.277 1.12947 3.09005 0
M  V30 9107 C 536.397 -0.204887 3.32369 0
M  V30 9108 H 539.376 -1.93423 8.4679 0
M  V30 9109 H 539.648 -1.68181 6.71046 0
M  V30 9110 H 538.78 0.289041 8.15388 0
M  V30 9111 P 534.817 1.17771 8.83182 0
M  V30 9112 O 534.597 2.07206 9.98732 0
M  V30 9113 O 534.027 -0.0743816 8.81969 0
M  V30 9114 O 534.567 1.97652 7.47304 0
M  V30 9115 C 535.507 3.01133 7.08783 0
M  V30 9116 C 534.777 4.12613 6.37049 0
M  V30 9117 O 534.567 3.72827 4.97879 0
M  V30 9118 C 533.377 4.45085 6.88694 0
M  V30 9119 O 532.987 5.7877 6.5624 0
M  V30 9120 C 532.497 3.47817 6.12078 0
M  V30 9121 C 533.207 3.39414 4.77697 0
M  V30 9122 N 533.157 2.04615 4.15333 0
M  V30 9123 H 535.996 3.41248 7.98759 0
M  V30 9124 H 536.268 2.5837 6.41742 0
M  V30 9125 H 535.4 5.02657 6.42673 0
M  V30 9126 P 531.437 6.144 6.45285 0
M  V30 9127 O 531.217 7.54673 6.86199 0
M  V30 9128 O 530.647 5.12391 7.179 0
M  V30 9129 O 531.187 5.99158 4.88404 0
M  V30 9130 C 532.127 6.60234 3.96415 0
M  V30 9131 C 531.397 7.08259 2.72856 0
M  V30 9132 O 531.187 5.9427 1.83651 0
M  V30 9133 C 529.997 7.64886 2.9555 0
M  V30 9134 O 529.607 8.53963 1.90717 0
M  V30 9135 C 529.117 6.4116 2.90739 0
M  V30 9136 C 529.827 5.55375 1.86963 0
M  V30 9137 N 529.777 4.09664 2.15742 0
M  V30 9138 C 529.857 3.44381 3.37233 0
M  V30 9139 N 529.777 2.14131 3.28347 0
M  V30 9140 C 529.637 1.90247 1.91588 0
M  V30 9141 C 529.507 0.683992 1.20892 0
M  V30 9142 N 529.387 0.903396 -0.173998 0
M  V30 9143 C 529.387 2.14171 -0.784879 0
M  V30 9144 N 529.257 2.1435 -2.11317 0
M  V30 9145 N 529.517 3.28784 -0.119316 0
M  V30 9146 C 529.637 3.0977 1.22194 0
M  V30 9147 H 532.616 7.45574 4.45629 0
M  V30 9148 H 532.888 5.86232 3.67314 0
M  V30 9149 H 532.02 7.84412 2.24479 0
M  V30 9150 P 528.057 8.7635 1.60911 0
M  V30 9151 O 527.837 10.1388 1.11561 0
M  V30 9152 O 527.267 8.36503 2.79617 0
M  V30 9153 O 527.807 7.71806 0.42951 0
M  V30 9154 C 528.747 7.67148 -0.673689 0
M  V30 9155 C 528.017 7.33374 -1.95559 0
M  V30 9156 O 527.807 5.88721 -2.00726 0
M  V30 9157 C 526.617 7.92526 -2.10483 0
M  V30 9158 O 526.227 8.02971 -3.47653 0
M  V30 9159 C 525.737 6.89602 -1.41652 0
M  V30 9160 C 526.447 5.59201 -1.75185 0
M  V30 9161 N 526.397 4.58235 -0.662552 0
M  V30 9162 H 529.236 8.65116 -0.777161 0
M  V30 9163 H 529.508 6.90173 -0.474152 0
M  V30 9164 H 528.64 7.66548 -2.79458 0
M  V30 9165 P 524.677 8.03563 -3.84925 0
M  V30 9166 O 524.457 8.85821 -5.0569 0
M  V30 9167 O 523.887 8.41101 -2.65469 0
M  V30 9168 O 524.427 6.4965 -4.18908 0
M  V30 9169 C 525.367 5.81037 -5.05421 0
M  V30 9170 C 524.637 4.78366 -5.89277 0
M  V30 9171 O 524.427 3.58302 -5.08433 0
M  V30 9172 C 523.237 5.17448 -6.36119 0
M  V30 9173 O 522.847 4.45271 -7.53232 0
M  V30 9174 C 522.357 4.74639 -5.19936 0
M  V30 9175 C 523.067 3.49432 -4.70418 0
M  V30 9176 N 523.017 3.32099 -3.22613 0
M  V30 9177 C 523.097 4.28245 -2.25527 0
M  V30 9178 N 523.027 3.80823 -1.04874 0
M  V30 9179 C 522.877 2.44571 -1.23535 0
M  V30 9180 C 522.747 1.37068 -0.330675 0
M  V30 9181 N 522.737 1.51472 0.990824 0
M  V30 9182 N 522.627 0.138614 -0.848756 0
M  V30 9183 C 522.637 -0.00675923 -2.16999 0
M  V30 9184 N 522.757 0.904372 -3.11122 0
M  V30 9185 C 522.877 2.12707 -2.56212 0
M  V30 9186 H 525.856 6.54213 -5.71376 0
M  V30 9187 H 526.128 5.30936 -4.43503 0
M  V30 9188 H 525.26 4.55889 -6.76652 0
M  V30 9189 H 522.605 2.61715 -5.17932 0
M  V30 9190 H 522.325 5.52155 -4.41878 0
M  V30 9191 H 521.334 4.51981 -5.53374 0
M  V30 9192 H 523.168 6.25124 -6.55234 0
M  V30 9193 H 523.209 5.34372 -2.47488 0
M  V30 9194 H 522.828 2.45153 1.4078 0
M  V30 9195 H 522.639 0.688422 1.59911 0
M  V30 9196 H 522.531 -1.02584 -2.52346 0
M  V30 9197 P 521.297 4.23843 -7.83734 0
M  V30 9198 O 521.077 4.19407 -9.29784 0
M  V30 9199 O 520.507 5.24426 -7.09156 0
M  V30 9200 O 521.047 2.79386 -7.20852 0
M  V30 9201 C 521.987 1.7299 -7.50419 0
M  V30 9202 C 521.257 0.41401 -7.5797 0
M  V30 9203 O 521.047 -0.089787 -6.22035 0
M  V30 9204 C 519.857 0.447224 -8.1878 0
M  V30 9205 O 519.467 -0.825159 -8.71201 0
M  V30 9206 C 518.977 0.783801 -6.99623 0
M  V30 9207 C 519.687 0.0619192 -5.85967 0
M  V30 9208 N 519.637 0.7859 -4.56281 0
M  V30 9209 C 519.487 0.0359258 -3.39981 0
M  V30 9210 O 519.397 -1.19723 -3.49038 0
M  V30 9211 N 519.437 0.869151 -2.14025 0
M  V30 9212 C 519.537 2.01207 -2.14363 0
M  V30 9213 N 519.487 2.58978 -0.954287 0
M  V30 9214 C 519.687 2.80817 -3.32215 0
M  V30 9215 C 519.737 2.13785 -4.50884 0
M  V30 9216 H 522.477 1.93401 -8.46693 0
M  V30 9217 H 522.747 1.68181 -6.71046 0
M  V30 9218 H 521.88 -0.289076 -8.15488 0
M  V30 9219 H 519.225 -0.927166 -5.72947 0
M  V30 9220 H 518.945 1.87 -6.82132 0
M  V30 9221 H 517.954 0.404009 -7.13457 0
M  V30 9222 H 519.788 1.20599 -8.97534 0
M  V30 9223 H 519.86 2.70295 -5.43162 0
M  V30 9224 H 519.758 3.89465 -3.27406 0
M  V30 9225 H 519.37 2.01616 -0.107046 0
M  V30 9226 H 519.566 3.61403 -0.873101 0
M  V30 9227 P 517.917 -1.17771 -8.83182 0
M  V30 9228 O 517.697 -2.07206 -9.98732 0
M  V30 9229 O 517.127 0.0743816 -8.81969 0
M  V30 9230 O 517.667 -1.97652 -7.47304 0
M  V30 9231 C 518.607 -3.01133 -7.08783 0
M  V30 9232 C 517.877 -4.12613 -6.37049 0
M  V30 9233 O 517.667 -3.72827 -4.97879 0
M  V30 9234 C 516.477 -4.45085 -6.88694 0
M  V30 9235 O 516.087 -5.7877 -6.5624 0
M  V30 9236 C 515.597 -3.47817 -6.12078 0
M  V30 9237 C 516.307 -3.39414 -4.77697 0
M  V30 9238 N 516.257 -2.04615 -4.15333 0
M  V30 9239 H 519.096 -3.41248 -7.98759 0
M  V30 9240 H 519.368 -2.5837 -6.41742 0
M  V30 9241 H 518.5 -5.02657 -6.42673 0
M  V30 9242 P 514.537 -6.144 -6.45285 0
M  V30 9243 O 514.317 -7.54673 -6.86199 0
M  V30 9244 O 513.747 -5.12391 -7.179 0
M  V30 9245 O 514.287 -5.99158 -4.88404 0
M  V30 9246 C 515.227 -6.60234 -3.96415 0
M  V30 9247 C 514.497 -7.08259 -2.72856 0
M  V30 9248 O 514.287 -5.9427 -1.83651 0
M  V30 9249 C 513.097 -7.64886 -2.9555 0
M  V30 9250 O 512.707 -8.53963 -1.90717 0
M  V30 9251 C 512.217 -6.4116 -2.90739 0
M  V30 9252 C 512.927 -5.55375 -1.86963 0
M  V30 9253 N 512.877 -4.09448 -2.16152 0
M  V30 9254 H 515.716 -7.45574 -4.45629 0
M  V30 9255 H 515.988 -5.85864 -3.679 0
M  V30 9256 H 515.12 -7.84412 -2.24479 0
M  V30 9257 H 512.465 -5.73457 -0.888562 0
M  V30 9258 H 512.185 -5.90877 -3.88583 0
M  V30 9259 H 511.194 -6.6596 -2.58858 0
M  V30 9260 H 513.028 -8.16339 -3.92049 0
M  V30 9261 P 511.157 -8.7635 -1.60911 0
M  V30 9262 O 510.937 -10.1388 -1.11561 0
M  V30 9263 O 510.367 -8.36503 -2.79617 0
M  V30 9264 O 510.907 -7.71806 -0.42951 0
M  V30 9265 C 511.847 -7.67148 0.673689 0
M  V30 9266 C 511.117 -7.33374 1.95559 0
M  V30 9267 O 510.907 -5.88721 2.00726 0
M  V30 9268 C 509.717 -7.92526 2.10483 0
M  V30 9269 O 509.327 -8.02971 3.47653 0
M  V30 9270 C 508.837 -6.89602 1.41652 0
M  V30 9271 C 509.547 -5.59201 1.75185 0
M  V30 9272 N 509.497 -4.58235 0.662552 0
M  V30 9273 H 512.336 -8.65116 0.777161 0
M  V30 9274 H 512.608 -6.90173 0.474152 0
M  V30 9275 H 511.74 -7.66548 2.79458 0
M  V30 9276 P 507.777 -8.03563 3.84925 0
M  V30 9277 O 507.557 -8.85821 5.0569 0
M  V30 9278 O 506.987 -8.41101 2.65469 0
M  V30 9279 O 507.527 -6.4965 4.18908 0
M  V30 9280 C 508.467 -5.81037 5.05421 0
M  V30 9281 C 507.737 -4.78366 5.89277 0
M  V30 9282 O 507.527 -3.58302 5.08433 0
M  V30 9283 C 506.337 -5.17448 6.36119 0
M  V30 9284 O 505.947 -4.45271 7.53232 0
M  V30 9285 C 505.457 -4.74639 5.19936 0
M  V30 9286 C 506.167 -3.49432 4.70418 0
M  V30 9287 N 506.117 -3.31776 3.22945 0
M  V30 9288 H 508.956 -6.54213 5.71376 0
M  V30 9289 H 509.228 -5.30492 4.44033 0
M  V30 9290 H 508.36 -4.55889 6.76652 0
M  V30 9291 P 504.397 -4.23843 7.83734 0
M  V30 9292 O 504.177 -4.19407 9.29784 0
M  V30 9293 O 503.607 -5.24426 7.09156 0
M  V30 9294 O 504.147 -2.7935 7.20758 0
M  V30 9295 C 505.087 -1.7299 7.50419 0
M  V30 9296 C 504.357 -0.406376 7.57911 0
M  V30 9297 O 504.147 0.0897726 6.21935 0
M  V30 9298 C 502.957 -0.447224 8.1878 0
M  V30 9299 O 502.567 0.825065 8.71101 0
M  V30 9300 C 502.077 -0.783801 6.99623 0
M  V30 9301 C 502.787 -0.0619192 5.85967 0
M  V30 9302 N 502.737 -0.7859 4.56281 0
M  V30 9303 H 505.576 -1.93423 8.4679 0
M  V30 9304 H 505.848 -1.68181 6.71046 0
M  V30 9305 H 504.98 0.289041 8.15388 0
M  V30 9306 P 501.017 1.17771 8.83182 0
M  V30 9307 O 500.797 2.07206 9.98732 0
M  V30 9308 O 500.227 -0.0743816 8.81969 0
M  V30 9309 O 500.767 1.97678 7.474 0
M  V30 9310 C 501.707 3.01133 7.08783 0
M  V30 9311 C 500.977 4.1203 6.37546 0
M  V30 9312 O 500.767 3.72887 4.9796 0
M  V30 9313 C 499.577 4.45085 6.88694 0
M  V30 9314 O 499.187 5.78836 6.56315 0
M  V30 9315 C 498.697 3.47817 6.12078 0
M  V30 9316 C 499.407 3.39414 4.77697 0
M  V30 9317 N 499.357 2.04615 4.15333 0
M  V30 9318 C 499.207 1.96929 2.77162 0
M  V30 9319 O 499.117 3.02017 2.12006 0
M  V30 9320 N 499.157 0.55485 2.24237 0
M  V30 9321 C 499.257 -0.367808 2.9169 0
M  V30 9322 N 499.207 -1.53426 2.29427 0
M  V30 9323 C 499.407 -0.319148 4.33828 0
M  V30 9324 C 499.457 0.920672 4.90433 0
M  V30 9325 H 502.197 3.41209 7.98667 0
M  V30 9326 H 502.467 2.5837 6.41742 0
M  V30 9327 H 501.6 5.02718 6.42752 0
M  V30 9328 H 498.945 4.11779 4.09026 0
M  V30 9329 H 498.665 2.49661 6.61772 0
M  V30 9330 H 497.674 3.86674 6.00946 0
M  V30 9331 H 499.508 4.29991 7.97006 0
M  V30 9332 H 499.58 1.00589 5.98303 0
M  V30 9333 H 499.478 -1.22639 4.93799 0
M  V30 9334 H 499.09 -1.56819 1.27167 0
M  V30 9335 H 499.286 -2.41062 2.83063 0
M  V30 9336 P 497.637 6.144 6.45285 0
M  V30 9337 O 497.417 7.54673 6.86199 0
M  V30 9338 O 496.847 5.12391 7.179 0
M  V30 9339 O 497.387 5.99158 4.88404 0
M  V30 9340 C 498.327 6.60062 3.96313 0
M  V30 9341 C 497.597 7.08259 2.72856 0
M  V30 9342 O 497.387 5.9427 1.83651 0
M  V30 9343 C 496.197 7.65087 2.94749 0
M  V30 9344 O 495.807 8.53963 1.90717 0
M  V30 9345 C 495.317 6.41069 2.90698 0
M  V30 9346 C 496.027 5.5528 1.86931 0
M  V30 9347 N 495.977 4.09575 2.15696 0
M  V30 9348 C 495.827 3.24249 1.08435 0
M  V30 9349 O 495.737 3.63946 -0.0628747 0
M  V30 9350 N 495.787 1.90009 1.39973 0
M  V30 9351 C 495.877 1.34884 2.65614 0
M  V30 9352 C 496.027 2.3145 3.71736 0
M  V30 9353 C 496.077 3.63518 3.44754 0
M  V30 9354 H 498.818 7.45402 4.45526 0
M  V30 9355 H 499.087 5.86062 3.67208 0
M  V30 9356 H 498.22 7.84412 2.24479 0
M  V30 9357 H 495.565 5.73358 0.888409 0
M  V30 9358 H 495.286 5.90877 3.88583 0
M  V30 9359 H 494.294 6.65867 2.58821 0
M  V30 9360 H 496.128 8.16248 3.92006 0
M  V30 9361 H 496.199 4.34551 4.26383 0
M  V30 9362 P 494.257 8.7635 1.60911 0
M  V30 9363 O 494.037 10.1388 1.11561 0
M  V30 9364 O 493.467 8.36503 2.79617 0
M  V30 9365 O 494.007 7.71806 0.42951 0
M  V30 9366 C 494.947 7.67148 -0.673689 0
M  V30 9367 C 494.217 7.33374 -1.95559 0
M  V30 9368 O 494.007 5.88721 -2.00726 0
M  V30 9369 C 492.817 7.92526 -2.10483 0
M  V30 9370 O 492.427 8.02971 -3.47653 0
M  V30 9371 C 491.937 6.89602 -1.41652 0
M  V30 9372 C 492.647 5.59201 -1.75185 0
M  V30 9373 N 492.597 4.58235 -0.662552 0
M  V30 9374 H 495.436 8.65116 -0.777161 0
M  V30 9375 H 495.708 6.90173 -0.474152 0
M  V30 9376 H 494.84 7.66548 -2.79458 0
M  V30 9377 P 490.877 8.03563 -3.84925 0
M  V30 9378 O 490.657 8.85821 -5.0569 0
M  V30 9379 O 490.087 8.41101 -2.65469 0
M  V30 9380 O 490.627 6.4965 -4.18908 0
M  V30 9381 C 491.567 5.80886 -5.05289 0
M  V30 9382 C 490.837 4.78366 -5.89277 0
M  V30 9383 O 490.627 3.58302 -5.08433 0
M  V30 9384 C 489.437 5.16748 -6.36559 0
M  V30 9385 O 489.047 4.45271 -7.53232 0
M  V30 9386 C 488.557 4.74572 -5.19863 0
M  V30 9387 C 489.267 3.49373 -4.70338 0
M  V30 9388 N 489.217 3.31704 -3.22876 0
M  V30 9389 C 489.067 2.03326 -2.74871 0
M  V30 9390 O 488.977 1.06486 -3.48076 0
M  V30 9391 N 489.027 1.91838 -1.37456 0
M  V30 9392 C 489.117 2.94295 -0.462035 0
M  V30 9393 C 489.267 4.25064 -1.05249 0
M  V30 9394 C 489.317 4.40214 -2.39192 0
M  V30 9395 H 492.058 6.54063 -5.71245 0
M  V30 9396 H 492.327 5.30339 -4.43905 0
M  V30 9397 H 491.46 4.55889 -6.76652 0
M  V30 9398 H 488.805 2.6167 -5.17842 0
M  V30 9399 H 488.526 5.52155 -4.41878 0
M  V30 9400 H 487.534 4.51918 -5.53297 0
M  V30 9401 H 489.368 6.25055 -6.55162 0
M  V30 9402 H 489.439 5.39798 -2.81523 0
M  V30 9403 P 487.497 4.23843 -7.83734 0
M  V30 9404 O 487.277 4.19407 -9.29784 0
M  V30 9405 O 486.707 5.24426 -7.09156 0
M  V30 9406 O 487.247 2.7935 -7.20758 0
M  V30 9407 C 488.187 1.7299 -7.50419 0
M  V30 9408 C 487.457 0.406376 -7.57911 0
M  V30 9409 O 487.247 -0.0897726 -6.21935 0
M  V30 9410 C 486.057 0.447224 -8.1878 0
M  V30 9411 O 485.667 -0.825065 -8.71101 0
M  V30 9412 C 485.177 0.783801 -6.99623 0
M  V30 9413 C 485.887 0.0619192 -5.85967 0
M  V30 9414 N 485.837 0.7859 -4.56281 0
M  V30 9415 H 488.676 1.93423 -8.4679 0
M  V30 9416 H 488.948 1.68181 -6.71046 0
M  V30 9417 H 488.08 -0.289041 -8.15388 0
M  V30 9418 P 484.117 -1.17771 -8.83182 0
M  V30 9419 O 483.897 -2.07206 -9.98732 0
M  V30 9420 O 483.327 0.0743816 -8.81969 0
M  V30 9421 O 483.867 -1.97652 -7.47304 0
M  V30 9422 C 484.807 -3.01133 -7.08783 0
M  V30 9423 C 484.077 -4.12613 -6.37049 0
M  V30 9424 O 483.867 -3.72827 -4.97879 0
M  V30 9425 C 482.677 -4.45085 -6.88694 0
M  V30 9426 O 482.287 -5.7877 -6.5624 0
M  V30 9427 C 481.797 -3.47817 -6.12078 0
M  V30 9428 C 482.507 -3.39414 -4.77697 0
M  V30 9429 N 482.457 -2.04199 -4.15538 0
M  V30 9430 C 482.537 -0.821545 -4.76977 0
M  V30 9431 N 482.467 0.1794 -3.94592 0
M  V30 9432 C 482.317 -0.419121 -2.70776 0
M  V30 9433 C 482.187 0.109072 -1.40577 0
M  V30 9434 N 482.177 1.4104 -1.1344 0
M  V30 9435 N 482.067 -0.764381 -0.39411 0
M  V30 9436 C 482.077 -2.06587 -0.664135 0
M  V30 9437 N 482.197 -2.67948 -1.82153 0
M  V30 9438 C 482.317 -1.77942 -2.8147 0
M  V30 9439 H 485.296 -3.41248 -7.98759 0
M  V30 9440 H 485.568 -2.57728 -6.42 0
M  V30 9441 H 484.7 -5.02657 -6.42673 0
M  V30 9442 H 482.045 -4.11708 -4.08956 0
M  V30 9443 H 481.765 -2.49626 -6.61679 0
M  V30 9444 H 480.774 -3.8662 -6.00862 0
M  V30 9445 H 482.608 -4.29991 -7.97006 0
M  V30 9446 H 482.649 -0.702451 -5.84696 0
M  V30 9447 H 482.268 2.09647 -1.89651 0
M  V30 9448 H 482.079 1.73358 -0.160575 0
M  V30 9449 H 481.971 -2.71695 0.195838 0
M  V30 9450 P 480.737 -6.144 -6.45285 0
M  V30 9451 O 480.517 -7.54673 -6.86199 0
M  V30 9452 O 479.947 -5.12391 -7.179 0
M  V30 9453 O 480.487 -5.99158 -4.88404 0
M  V30 9454 C 481.427 -6.60234 -3.96415 0
M  V30 9455 C 480.697 -7.08259 -2.72856 0
M  V30 9456 O 480.487 -5.9427 -1.83651 0
M  V30 9457 C 479.297 -7.64886 -2.9555 0
M  V30 9458 O 478.907 -8.53963 -1.90717 0
M  V30 9459 C 478.417 -6.4116 -2.90739 0
M  V30 9460 C 479.127 -5.55375 -1.86963 0
M  V30 9461 N 479.077 -4.09664 -2.15742 0
M  V30 9462 H 481.916 -7.45574 -4.45629 0
M  V30 9463 H 482.188 -5.86232 -3.67314 0
M  V30 9464 H 481.32 -7.84412 -2.24479 0
M  V30 9465 P 477.357 -8.7635 -1.60911 0
M  V30 9466 O 477.137 -10.1388 -1.11561 0
M  V30 9467 O 476.567 -8.36503 -2.79617 0
M  V30 9468 O 477.107 -7.71806 -0.42951 0
M  V30 9469 C 478.047 -7.66948 0.673514 0
M  V30 9470 C 477.317 -7.33374 1.95559 0
M  V30 9471 O 477.107 -5.88721 2.00726 0
M  V30 9472 C 475.917 -7.92218 2.1125 0
M  V30 9473 O 475.527 -8.02971 3.47653 0
M  V30 9474 C 475.037 -6.89504 1.41631 0
M  V30 9475 C 475.747 -5.59106 1.75155 0
M  V30 9476 N 475.697 -4.58136 0.662409 0
M  V30 9477 C 475.547 -3.26059 1.02863 0
M  V30 9478 O 475.457 -2.90743 2.19009 0
M  V30 9479 N 475.507 -2.35995 -0.0155585 0
M  V30 9480 C 475.597 -2.65248 -1.35603 0
M  V30 9481 C 475.747 -4.05747 -1.64698 0
M  V30 9482 C 475.797 -4.96734 -0.652411 0
M  V30 9483 H 478.538 -8.64917 0.776982 0
M  V30 9484 H 478.807 -6.89974 0.474015 0
M  V30 9485 H 477.94 -7.66548 2.79458 0
M  V30 9486 H 475.285 -5.16076 2.65138 0
M  V30 9487 H 475.006 -7.06433 0.329384 0
M  V30 9488 H 474.014 -6.90829 1.81996 0
M  V30 9489 H 475.848 -8.90774 1.62639 0
M  V30 9490 H 475.919 -6.02181 -0.895285 0
M  V30 9491 P 473.977 -8.03563 3.84925 0
M  V30 9492 O 473.757 -8.85821 5.0569 0
M  V30 9493 O 473.187 -8.41101 2.65469 0
M  V30 9494 O 473.727 -6.49734 4.18962 0
M  V30 9495 C 474.667 -5.81037 5.05421 0
M  V30 9496 C 473.937 -4.79018 5.88876 0
M  V30 9497 O 473.727 -3.58359 5.08515 0
M  V30 9498 C 472.537 -5.17448 6.36119 0
M  V30 9499 O 472.147 -4.45322 7.53318 0
M  V30 9500 C 471.657 -4.74639 5.19936 0
M  V30 9501 C 472.367 -3.49432 4.70418 0
M  V30 9502 N 472.317 -3.31776 3.22945 0
M  V30 9503 C 472.167 -2.02742 2.72939 0
M  V30 9504 O 472.077 -1.08301 3.52749 0
M  V30 9505 N 472.117 -1.96117 1.22063 0
M  V30 9506 C 472.217 -2.8878 0.551566 0
M  V30 9507 N 472.167 -2.65609 -0.750198 0
M  V30 9508 C 472.367 -4.22457 1.03707 0
M  V30 9509 C 472.417 -4.37979 2.39113 0
M  V30 9510 H 475.157 -6.54138 5.7131 0
M  V30 9511 H 475.427 -5.30492 4.44033 0
M  V30 9512 H 474.56 -4.55945 6.76735 0
M  V30 9513 H 471.905 -2.6176 5.18021 0
M  V30 9514 H 471.625 -5.52233 4.41941 0
M  V30 9515 H 470.634 -4.52045 5.53452 0
M  V30 9516 H 472.468 -6.25124 6.55234 0
M  V30 9517 H 472.54 -5.37936 2.80552 0
M  V30 9518 H 472.438 -5.07528 0.359553 0
M  V30 9519 H 472.05 -1.69403 -1.09847 0
M  V30 9520 H 472.246 -3.43701 -1.41792 0
M  V30 9521 P 470.597 -4.23843 7.83734 0
M  V30 9522 O 470.377 -4.19407 9.29784 0
M  V30 9523 O 469.807 -5.24426 7.09156 0
M  V30 9524 O 470.347 -2.79386 7.20852 0
M  V30 9525 C 471.287 -1.7299 7.50419 0
M  V30 9526 C 470.557 -0.41401 7.5797 0
M  V30 9527 O 470.347 0.089787 6.22035 0
M  V30 9528 C 469.157 -0.447224 8.1878 0
M  V30 9529 O 468.767 0.825159 8.71201 0
M  V30 9530 C 468.277 -0.783801 6.99623 0
M  V30 9531 C 468.987 -0.0619192 5.85967 0
M  V30 9532 N 468.937 -0.7859 4.56281 0
M  V30 9533 C 468.787 -0.0359258 3.39981 0
M  V30 9534 O 468.697 1.19723 3.49038 0
M  V30 9535 N 468.737 -0.869151 2.14025 0
M  V30 9536 C 468.837 -2.01207 2.14363 0
M  V30 9537 N 468.787 -2.58978 0.954287 0
M  V30 9538 C 468.987 -2.80817 3.32215 0
M  V30 9539 C 469.037 -2.13785 4.50884 0
M  V30 9540 H 471.777 -1.93401 8.46693 0
M  V30 9541 H 472.047 -1.68181 6.71046 0
M  V30 9542 H 471.18 0.289076 8.15488 0
M  V30 9543 H 468.525 0.927166 5.72947 0
M  V30 9544 H 468.245 -1.87 6.82132 0
M  V30 9545 H 467.254 -0.404009 7.13457 0
M  V30 9546 H 469.088 -1.20599 8.97534 0
M  V30 9547 H 469.16 -2.70295 5.43162 0
M  V30 9548 H 469.058 -3.89465 3.27406 0
M  V30 9549 H 468.67 -2.01616 0.107046 0
M  V30 9550 H 468.866 -3.61403 0.873101 0
M  V30 9551 P 467.217 1.17771 8.83182 0
M  V30 9552 O 466.997 2.07206 9.98732 0
M  V30 9553 O 466.427 -0.0743816 8.81969 0
M  V30 9554 O 466.967 1.97652 7.47304 0
M  V30 9555 C 467.907 3.01055 7.08599 0
M  V30 9556 C 467.177 4.12613 6.37049 0
M  V30 9557 O 466.967 3.72827 4.97879 0
M  V30 9558 C 465.777 4.45719 6.88164 0
M  V30 9559 O 465.387 5.7877 6.5624 0
M  V30 9560 C 464.897 3.47768 6.11991 0
M  V30 9561 C 465.607 3.39356 4.77615 0
M  V30 9562 N 465.557 2.04571 4.15244 0
M  V30 9563 C 465.407 1.98587 2.78314 0
M  V30 9564 O 465.317 2.98134 2.08835 0
M  V30 9565 N 465.367 0.714467 2.24925 0
M  V30 9566 C 465.457 -0.470001 2.94169 0
M  V30 9567 C 465.607 -0.312541 4.36783 0
M  V30 9568 C 465.657 0.914512 4.92583 0
M  V30 9569 H 468.398 3.41169 7.98575 0
M  V30 9570 H 468.667 2.58295 6.41556 0
M  V30 9571 H 467.8 5.02657 6.42673 0
M  V30 9572 H 465.145 4.11637 4.08885 0
M  V30 9573 H 464.866 2.49626 6.61679 0
M  V30 9574 H 463.874 3.86566 6.00778 0
M  V30 9575 H 465.708 4.29943 7.96918 0
M  V30 9576 H 465.779 1.00937 6.00374 0
M  V30 9577 P 463.837 6.144 6.45285 0
M  V30 9578 O 463.617 7.54673 6.86199 0
M  V30 9579 O 463.047 5.12391 7.179 0
M  V30 9580 O 463.587 5.99158 4.88404 0
M  V30 9581 C 464.527 6.60234 3.96415 0
M  V30 9582 C 463.797 7.08259 2.72856 0
M  V30 9583 O 463.587 5.9427 1.83651 0
M  V30 9584 C 462.397 7.64886 2.9555 0
M  V30 9585 O 462.007 8.53963 1.90717 0
M  V30 9586 C 461.517 6.4116 2.90739 0
M  V30 9587 C 462.227 5.55375 1.86963 0
M  V30 9588 N 462.177 4.09448 2.16152 0
M  V30 9589 H 465.016 7.45574 4.45629 0
M  V30 9590 H 465.288 5.85864 3.679 0
M  V30 9591 H 464.42 7.84412 2.24479 0
M  V30 9592 H 461.765 5.73457 0.888562 0
M  V30 9593 H 461.485 5.90877 3.88583 0
M  V30 9594 H 460.494 6.6596 2.58858 0
M  V30 9595 H 462.328 8.16339 3.92049 0
M  V30 9596 P 460.457 8.7635 1.60911 0
M  V30 9597 O 460.237 10.1388 1.11561 0
M  V30 9598 O 459.667 8.36503 2.79617 0
M  V30 9599 O 460.207 7.71806 0.42951 0
M  V30 9600 C 461.147 7.67148 -0.673689 0
M  V30 9601 C 460.417 7.33374 -1.95559 0
M  V30 9602 O 460.207 5.88721 -2.00726 0
M  V30 9603 C 459.017 7.92526 -2.10483 0
M  V30 9604 O 458.627 8.02971 -3.47653 0
M  V30 9605 C 458.137 6.89602 -1.41652 0
M  V30 9606 C 458.847 5.59201 -1.75185 0
M  V30 9607 N 458.797 4.58235 -0.662552 0
M  V30 9608 H 461.636 8.65116 -0.777161 0
M  V30 9609 H 461.908 6.90173 -0.474152 0
M  V30 9610 H 461.04 7.66548 -2.79458 0
M  V30 9611 P 457.077 8.03563 -3.84925 0
M  V30 9612 O 456.857 8.85821 -5.0569 0
M  V30 9613 O 456.287 8.41101 -2.65469 0
M  V30 9614 O 456.827 6.4965 -4.18908 0
M  V30 9615 C 457.767 5.80886 -5.05289 0
M  V30 9616 C 457.037 4.78366 -5.89277 0
M  V30 9617 O 456.827 3.58302 -5.08433 0
M  V30 9618 C 455.637 5.16748 -6.36559 0
M  V30 9619 O 455.247 4.45271 -7.53232 0
M  V30 9620 C 454.757 4.74572 -5.19863 0
M  V30 9621 C 455.467 3.49373 -4.70338 0
M  V30 9622 N 455.417 3.31704 -3.22876 0
M  V30 9623 C 455.267 2.03326 -2.74871 0
M  V30 9624 O 455.177 1.06486 -3.48076 0
M  V30 9625 N 455.227 1.91838 -1.37456 0
M  V30 9626 C 455.317 2.94295 -0.462035 0
M  V30 9627 O 455.267 2.71763 0.752928 0
M  V30 9628 C 455.467 4.25064 -1.05249 0
M  V30 9629 C 455.577 5.39815 -0.095697 0
M  V30 9630 C 455.517 4.40214 -2.39192 0
M  V30 9631 H 458.258 6.54063 -5.71245 0
M  V30 9632 H 458.527 5.30339 -4.43905 0
M  V30 9633 H 457.66 4.55889 -6.76652 0
M  V30 9634 H 455.005 2.6167 -5.17842 0
M  V30 9635 H 454.726 5.52155 -4.41878 0
M  V30 9636 H 453.734 4.51918 -5.53297 0
M  V30 9637 H 455.568 6.25055 -6.55162 0
M  V30 9638 H 455.639 5.39798 -2.81523 0
M  V30 9639 H 454.609 5.91593 -0.0279582 0
M  V30 9640 H 456.346 6.10038 -0.450573 0
M  V30 9641 H 455.858 5.02007 0.89937 0
M  V30 9642 H 455.122 0.995326 -1.00435 0
M  V30 9643 P 453.697 4.23843 -7.83734 0
M  V30 9644 O 453.477 4.19407 -9.29784 0
M  V30 9645 O 452.907 5.24426 -7.09156 0
M  V30 9646 O 453.447 2.7935 -7.20758 0
M  V30 9647 C 454.387 1.72945 -7.50224 0
M  V30 9648 C 453.657 0.406376 -7.57911 0
M  V30 9649 O 453.447 -0.0897726 -6.21935 0
M  V30 9650 C 452.257 0.438983 -8.18724 0
M  V30 9651 O 451.867 -0.825065 -8.71101 0
M  V30 9652 C 451.377 0.783689 -6.99524 0
M  V30 9653 C 452.087 0.0619086 -5.85867 0
M  V30 9654 N 452.037 0.78573 -4.56183 0
M  V30 9655 C 451.887 0.0292889 -3.41887 0
M  V30 9656 O 451.797 -1.18445 -3.4419 0
M  V30 9657 N 451.847 0.744061 -2.23964 0
M  V30 9658 C 451.937 2.10932 -2.10362 0
M  V30 9659 O 451.887 2.64117 -0.98825 0
M  V30 9660 C 452.087 2.8202 -3.34994 0
M  V30 9661 C 452.197 4.31095 -3.25037 0
M  V30 9662 C 452.137 2.15547 -4.52261 0
M  V30 9663 H 454.878 1.93379 -8.46595 0
M  V30 9664 H 455.147 1.68132 -6.70852 0
M  V30 9665 H 454.28 -0.289041 -8.15388 0
M  V30 9666 H 451.625 -0.926847 -5.72749 0
M  V30 9667 H 451.346 1.86973 -6.82036 0
M  V30 9668 H 450.354 0.403896 -7.13257 0
M  V30 9669 H 452.188 1.20585 -8.97435 0
M  V30 9670 H 452.259 2.71231 -5.45042 0
M  V30 9671 H 451.229 4.76966 -3.49992 0
M  V30 9672 H 452.966 4.67047 -3.95024 0
M  V30 9673 H 452.478 4.58996 -2.22312 0
M  V30 9674 H 451.742 0.214893 -1.39758 0
M  V30 9675 P 450.317 -1.17771 -8.83182 0
M  V30 9676 O 450.097 -2.07206 -9.98732 0
M  V30 9677 O 449.527 0.0743816 -8.81969 0
M  V30 9678 O 450.067 -1.97652 -7.47304 0
M  V30 9679 C 451.007 -3.01133 -7.08783 0
M  V30 9680 C 450.277 -4.12613 -6.37049 0
M  V30 9681 O 450.067 -3.72827 -4.97879 0
M  V30 9682 C 448.877 -4.45085 -6.88694 0
M  V30 9683 O 448.487 -5.7877 -6.5624 0
M  V30 9684 C 447.997 -3.47817 -6.12078 0
M  V30 9685 C 448.707 -3.39414 -4.77697 0
M  V30 9686 N 448.657 -2.04615 -4.15333 0
M  V30 9687 H 451.496 -3.41248 -7.98759 0
M  V30 9688 H 451.768 -2.5837 -6.41742 0
M  V30 9689 H 450.9 -5.02657 -6.42673 0
M  V30 9690 P 446.937 -6.144 -6.45285 0
M  V30 9691 O 446.717 -7.54673 -6.86199 0
M  V30 9692 O 446.147 -5.12391 -7.179 0
M  V30 9693 O 446.687 -5.99158 -4.88404 0
M  V30 9694 C 447.627 -6.60234 -3.96415 0
M  V30 9695 C 446.897 -7.08259 -2.72856 0
M  V30 9696 O 446.687 -5.9427 -1.83651 0
M  V30 9697 C 445.497 -7.64886 -2.9555 0
M  V30 9698 O 445.107 -8.53963 -1.90717 0
M  V30 9699 C 444.617 -6.4116 -2.90739 0
M  V30 9700 C 445.327 -5.55375 -1.86963 0
M  V30 9701 N 445.277 -4.09448 -2.16152 0
M  V30 9702 H 448.116 -7.45574 -4.45629 0
M  V30 9703 H 448.388 -5.85864 -3.679 0
M  V30 9704 H 447.52 -7.84412 -2.24479 0
M  V30 9705 H 444.865 -5.73457 -0.888562 0
M  V30 9706 H 444.585 -5.90877 -3.88583 0
M  V30 9707 H 443.594 -6.6596 -2.58858 0
M  V30 9708 H 445.428 -8.16339 -3.92049 0
M  V30 9709 P 443.557 -8.7635 -1.60911 0
M  V30 9710 O 443.337 -10.1388 -1.11561 0
M  V30 9711 O 442.767 -8.36503 -2.79617 0
M  V30 9712 O 443.307 -7.71806 -0.42951 0
M  V30 9713 C 444.247 -7.67148 0.673689 0
M  V30 9714 C 443.517 -7.33374 1.95559 0
M  V30 9715 O 443.307 -5.88721 2.00726 0
M  V30 9716 C 442.117 -7.92526 2.10483 0
M  V30 9717 O 441.727 -8.02971 3.47653 0
M  V30 9718 C 441.237 -6.89602 1.41652 0
M  V30 9719 C 441.947 -5.59201 1.75185 0
M  V30 9720 N 441.897 -4.58235 0.662552 0
M  V30 9721 H 444.736 -8.65116 0.777161 0
M  V30 9722 H 445.008 -6.90173 0.474152 0
M  V30 9723 H 444.14 -7.66548 2.79458 0
M  V30 9724 P 440.177 -8.03563 3.84925 0
M  V30 9725 O 439.957 -8.85821 5.0569 0
M  V30 9726 O 439.387 -8.41101 2.65469 0
M  V30 9727 O 439.927 -6.4965 4.18908 0
M  V30 9728 C 440.867 -5.81037 5.05421 0
M  V30 9729 C 440.137 -4.78366 5.89277 0
M  V30 9730 O 439.927 -3.58302 5.08433 0
M  V30 9731 C 438.737 -5.17448 6.36119 0
M  V30 9732 O 438.347 -4.45271 7.53232 0
M  V30 9733 C 437.857 -4.74639 5.19936 0
M  V30 9734 C 438.567 -3.49432 4.70418 0
M  V30 9735 N 438.517 -3.31776 3.22945 0
M  V30 9736 H 441.356 -6.54213 5.71376 0
M  V30 9737 H 441.628 -5.30492 4.44033 0
M  V30 9738 H 440.76 -4.55889 6.76652 0
M  V30 9739 P 436.797 -4.23843 7.83734 0
M  V30 9740 O 436.577 -4.19407 9.29784 0
M  V30 9741 O 436.007 -5.24426 7.09156 0
M  V30 9742 O 436.547 -2.79386 7.20852 0
M  V30 9743 C 437.487 -1.7299 7.50419 0
M  V30 9744 C 436.757 -0.41401 7.5797 0
M  V30 9745 O 436.547 0.089787 6.22035 0
M  V30 9746 C 435.357 -0.447224 8.1878 0
M  V30 9747 O 434.967 0.825159 8.71201 0
M  V30 9748 C 434.477 -0.783801 6.99623 0
M  V30 9749 C 435.187 -0.0619192 5.85967 0
M  V30 9750 N 435.137 -0.7859 4.56281 0
M  V30 9751 C 434.987 -0.0359258 3.39981 0
M  V30 9752 O 434.897 1.19723 3.49038 0
M  V30 9753 N 434.937 -0.869151 2.14025 0
M  V30 9754 C 435.037 -2.01207 2.14363 0
M  V30 9755 N 434.987 -2.58978 0.954287 0
M  V30 9756 C 435.187 -2.80817 3.32215 0
M  V30 9757 C 435.237 -2.13785 4.50884 0
M  V30 9758 H 437.977 -1.93401 8.46693 0
M  V30 9759 H 438.247 -1.68181 6.71046 0
M  V30 9760 H 437.38 0.289076 8.15488 0
M  V30 9761 H 434.725 0.927166 5.72947 0
M  V30 9762 H 434.445 -1.87 6.82132 0
M  V30 9763 H 433.454 -0.404009 7.13457 0
M  V30 9764 H 435.288 -1.20599 8.97534 0
M  V30 9765 H 435.36 -2.70295 5.43162 0
M  V30 9766 H 435.258 -3.89465 3.27406 0
M  V30 9767 H 434.87 -2.01616 0.107046 0
M  V30 9768 H 435.066 -3.61403 0.873101 0
M  V30 9769 P 433.417 1.17771 8.83182 0
M  V30 9770 O 433.197 2.07206 9.98732 0
M  V30 9771 O 432.627 -0.0743816 8.81969 0
M  V30 9772 O 433.167 1.97652 7.47304 0
M  V30 9773 C 434.107 3.01133 7.08783 0
M  V30 9774 C 433.377 4.12613 6.37049 0
M  V30 9775 O 433.167 3.72827 4.97879 0
M  V30 9776 C 431.977 4.45085 6.88694 0
M  V30 9777 O 431.587 5.7877 6.5624 0
M  V30 9778 C 431.097 3.47817 6.12078 0
M  V30 9779 C 431.807 3.39414 4.77697 0
M  V30 9780 N 431.757 2.04615 4.15333 0
M  V30 9781 H 434.596 3.41248 7.98759 0
M  V30 9782 H 434.868 2.5837 6.41742 0
M  V30 9783 H 434 5.02657 6.42673 0
M  V30 9784 P 430.037 6.144 6.45285 0
M  V30 9785 O 429.817 7.54673 6.86199 0
M  V30 9786 O 429.247 5.12391 7.179 0
M  V30 9787 O 429.787 5.99158 4.88404 0
M  V30 9788 C 430.727 6.60234 3.96415 0
M  V30 9789 C 429.997 7.08259 2.72856 0
M  V30 9790 O 429.787 5.9427 1.83651 0
M  V30 9791 C 428.597 7.64886 2.9555 0
M  V30 9792 O 428.207 8.53963 1.90717 0
M  V30 9793 C 427.717 6.4116 2.90739 0
M  V30 9794 C 428.427 5.55375 1.86963 0
M  V30 9795 N 428.377 4.09664 2.15742 0
M  V30 9796 C 428.457 3.44381 3.37233 0
M  V30 9797 N 428.377 2.14131 3.28347 0
M  V30 9798 C 428.237 1.90247 1.91588 0
M  V30 9799 C 428.107 0.683992 1.20892 0
M  V30 9800 N 427.987 0.903396 -0.173998 0
M  V30 9801 C 427.987 2.14171 -0.784879 0
M  V30 9802 N 427.857 2.1435 -2.11317 0
M  V30 9803 N 428.117 3.28784 -0.119316 0
M  V30 9804 C 428.237 3.0977 1.22194 0
M  V30 9805 H 431.216 7.45574 4.45629 0
M  V30 9806 H 431.488 5.86232 3.67314 0
M  V30 9807 H 430.62 7.84412 2.24479 0
M  V30 9808 P 426.657 8.7635 1.60911 0
M  V30 9809 O 426.437 10.1388 1.11561 0
M  V30 9810 O 425.867 8.36503 2.79617 0
M  V30 9811 O 426.407 7.71806 0.42951 0
M  V30 9812 C 427.347 7.66948 -0.673514 0
M  V30 9813 C 426.617 7.33374 -1.95559 0
M  V30 9814 O 426.407 5.88721 -2.00726 0
M  V30 9815 C 425.217 7.92218 -2.1125 0
M  V30 9816 O 424.827 8.02971 -3.47653 0
M  V30 9817 C 424.337 6.89504 -1.41631 0
M  V30 9818 C 425.047 5.59106 -1.75155 0
M  V30 9819 N 424.997 4.58136 -0.662409 0
M  V30 9820 C 424.847 3.26059 -1.02863 0
M  V30 9821 O 424.757 2.90743 -2.19009 0
M  V30 9822 N 424.807 2.35995 0.0155585 0
M  V30 9823 C 424.897 2.65248 1.35603 0
M  V30 9824 O 424.847 1.75605 2.20651 0
M  V30 9825 C 425.047 4.05747 1.64698 0
M  V30 9826 C 425.157 4.42345 3.09553 0
M  V30 9827 C 425.097 4.96734 0.652411 0
M  V30 9828 H 427.838 8.64917 -0.776982 0
M  V30 9829 H 428.107 6.89974 -0.474015 0
M  V30 9830 H 427.24 7.66548 -2.79458 0
M  V30 9831 H 424.585 5.16076 -2.65138 0
M  V30 9832 H 424.306 7.06433 -0.329384 0
M  V30 9833 H 423.314 6.90829 -1.81996 0
M  V30 9834 H 425.148 8.90774 -1.62639 0
M  V30 9835 H 425.219 6.02181 0.895285 0
M  V30 9836 H 424.189 4.80252 3.45468 0
M  V30 9837 H 425.926 5.20015 3.22119 0
M  V30 9838 H 425.438 3.53269 3.67833 0
M  V30 9839 H 424.702 1.39558 -0.227499 0
M  V30 9840 P 423.278 8.03563 -3.84925 0
M  V30 9841 O 423.058 8.85821 -5.0569 0
M  V30 9842 O 422.488 8.41101 -2.65469 0
M  V30 9843 O 423.028 6.4965 -4.18908 0
M  V30 9844 C 423.968 5.81037 -5.05421 0
M  V30 9845 C 423.238 4.78366 -5.89277 0
M  V30 9846 O 423.028 3.58302 -5.08433 0
M  V30 9847 C 421.838 5.17448 -6.36119 0
M  V30 9848 O 421.448 4.45271 -7.53232 0
M  V30 9849 C 420.958 4.74639 -5.19936 0
M  V30 9850 C 421.668 3.49432 -4.70418 0
M  V30 9851 N 421.618 3.31776 -3.22945 0
M  V30 9852 H 424.457 6.54213 -5.71376 0
M  V30 9853 H 424.729 5.30492 -4.44033 0
M  V30 9854 H 423.861 4.55889 -6.76652 0
M  V30 9855 P 419.898 4.23843 -7.83734 0
M  V30 9856 O 419.678 4.19407 -9.29784 0
M  V30 9857 O 419.108 5.24426 -7.09156 0
M  V30 9858 O 419.648 2.7935 -7.20758 0
M  V30 9859 C 420.588 1.7299 -7.50419 0
M  V30 9860 C 419.858 0.406376 -7.57911 0
M  V30 9861 O 419.648 -0.0897726 -6.21935 0
M  V30 9862 C 418.458 0.447224 -8.1878 0
M  V30 9863 O 418.068 -0.825065 -8.71101 0
M  V30 9864 C 417.578 0.783801 -6.99623 0
M  V30 9865 C 418.288 0.0619192 -5.85967 0
M  V30 9866 N 418.238 0.790462 -4.56202 0
M  V30 9867 C 418.318 2.13895 -4.34171 0
M  V30 9868 N 418.248 2.46449 -3.08687 0
M  V30 9869 C 418.098 1.2525 -2.43697 0
M  V30 9870 C 417.968 0.914535 -1.07318 0
M  V30 9871 N 417.958 1.80782 -0.0887348 0
M  V30 9872 N 417.848 -0.386745 -0.768133 0
M  V30 9873 C 417.858 -1.28096 -1.75159 0
M  V30 9874 N 417.978 -1.09708 -3.04861 0
M  V30 9875 C 418.098 0.214857 -3.32306 0
M  V30 9876 H 421.077 1.93423 -8.4679 0
M  V30 9877 H 421.349 1.68852 -6.70877 0
M  V30 9878 H 420.481 -0.289041 -8.15388 0
M  V30 9879 H 417.826 -0.927006 -5.72848 0
M  V30 9880 H 417.546 1.86973 -6.82036 0
M  V30 9881 H 416.555 0.403953 -7.13357 0
M  V30 9882 H 418.389 1.20599 -8.97534 0
M  V30 9883 H 418.43 2.86846 -5.14318 0
M  V30 9884 H 418.049 2.81082 -0.302037 0
M  V30 9885 H 417.86 1.49688 0.889064 0
M  V30 9886 H 417.752 -2.31317 -1.43855 0
M  V30 9887 P 416.518 -1.17771 -8.83182 0
M  V30 9888 O 416.298 -2.07206 -9.98732 0
M  V30 9889 O 415.728 0.0743816 -8.81969 0
M  V30 9890 O 416.268 -1.97652 -7.47304 0
M  V30 9891 C 417.208 -3.01133 -7.08783 0
M  V30 9892 C 416.478 -4.12613 -6.37049 0
M  V30 9893 O 416.268 -3.72827 -4.97879 0
M  V30 9894 C 415.078 -4.45085 -6.88694 0
M  V30 9895 O 414.688 -5.7877 -6.5624 0
M  V30 9896 C 414.198 -3.47817 -6.12078 0
M  V30 9897 C 414.908 -3.39414 -4.77697 0
M  V30 9898 N 414.858 -2.04615 -4.15333 0
M  V30 9899 H 417.697 -3.41248 -7.98759 0
M  V30 9900 H 417.969 -2.5837 -6.41742 0
M  V30 9901 H 417.101 -5.02657 -6.42673 0
M  V30 9902 P 413.138 -6.144 -6.45285 0
M  V30 9903 O 412.918 -7.54673 -6.86199 0
M  V30 9904 O 412.348 -5.12391 -7.179 0
M  V30 9905 O 412.888 -5.99158 -4.88404 0
M  V30 9906 C 413.828 -6.60234 -3.96415 0
M  V30 9907 C 413.098 -7.08259 -2.72856 0
M  V30 9908 O 412.888 -5.9427 -1.83651 0
M  V30 9909 C 411.698 -7.64886 -2.9555 0
M  V30 9910 O 411.308 -8.53963 -1.90717 0
M  V30 9911 C 410.818 -6.4116 -2.90739 0
M  V30 9912 C 411.528 -5.55375 -1.86963 0
M  V30 9913 N 411.478 -4.09664 -2.15742 0
M  V30 9914 H 414.317 -7.45574 -4.45629 0
M  V30 9915 H 414.589 -5.86232 -3.67314 0
M  V30 9916 H 413.721 -7.84412 -2.24479 0
M  V30 9917 P 409.758 -8.7635 -1.60911 0
M  V30 9918 O 409.538 -10.1388 -1.11561 0
M  V30 9919 O 408.968 -8.36503 -2.79617 0
M  V30 9920 O 409.508 -7.71806 -0.42951 0
M  V30 9921 C 410.448 -7.67148 0.673689 0
M  V30 9922 C 409.718 -7.33374 1.95559 0
M  V30 9923 O 409.508 -5.88721 2.00726 0
M  V30 9924 C 408.318 -7.92526 2.10483 0
M  V30 9925 O 407.928 -8.02971 3.47653 0
M  V30 9926 C 407.438 -6.89602 1.41652 0
M  V30 9927 C 408.148 -5.59201 1.75185 0
M  V30 9928 N 408.098 -4.58235 0.662552 0
M  V30 9929 H 410.937 -8.65116 0.777161 0
M  V30 9930 H 411.209 -6.90173 0.474152 0
M  V30 9931 H 410.341 -7.66548 2.79458 0
M  V30 9932 P 406.378 -8.03563 3.84925 0
M  V30 9933 O 406.158 -8.85821 5.0569 0
M  V30 9934 O 405.588 -8.41101 2.65469 0
M  V30 9935 O 406.128 -6.4965 4.18908 0
M  V30 9936 C 407.068 -5.80886 5.05289 0
M  V30 9937 C 406.338 -4.78366 5.89277 0
M  V30 9938 O 406.128 -3.58302 5.08433 0
M  V30 9939 C 404.938 -5.16748 6.36559 0
M  V30 9940 O 404.548 -4.45271 7.53232 0
M  V30 9941 C 404.058 -4.74572 5.19863 0
M  V30 9942 C 404.768 -3.49373 4.70338 0
M  V30 9943 N 404.718 -3.31704 3.22876 0
M  V30 9944 C 404.568 -2.03326 2.74871 0
M  V30 9945 O 404.478 -1.06486 3.48076 0
M  V30 9946 N 404.528 -1.91838 1.37456 0
M  V30 9947 C 404.618 -2.94295 0.462035 0
M  V30 9948 C 404.768 -4.25064 1.05249 0
M  V30 9949 C 404.818 -4.40214 2.39192 0
M  V30 9950 H 407.559 -6.54063 5.71245 0
M  V30 9951 H 407.828 -5.30339 4.43905 0
M  V30 9952 H 406.961 -4.55889 6.76652 0
M  V30 9953 H 404.306 -2.6167 5.17842 0
M  V30 9954 H 404.027 -5.52155 4.41878 0
M  V30 9955 H 403.035 -4.51918 5.53297 0
M  V30 9956 H 404.869 -6.25055 6.55162 0
M  V30 9957 H 404.94 -5.39798 2.81523 0
M  V30 9958 P 402.998 -4.23843 7.83734 0
M  V30 9959 O 402.778 -4.19407 9.29784 0
M  V30 9960 O 402.208 -5.24426 7.09156 0
M  V30 9961 O 402.748 -2.79386 7.20852 0
M  V30 9962 C 403.688 -1.7299 7.50419 0
M  V30 9963 C 402.958 -0.41401 7.5797 0
M  V30 9964 O 402.748 0.089787 6.22035 0
M  V30 9965 C 401.558 -0.447224 8.1878 0
M  V30 9966 O 401.168 0.825159 8.71201 0
M  V30 9967 C 400.678 -0.783801 6.99623 0
M  V30 9968 C 401.388 -0.0619192 5.85967 0
M  V30 9969 N 401.338 -0.7859 4.56281 0
M  V30 9970 C 401.188 -0.0359258 3.39981 0
M  V30 9971 O 401.098 1.19723 3.49038 0
M  V30 9972 N 401.138 -0.869151 2.14025 0
M  V30 9973 C 401.238 -2.01207 2.14363 0
M  V30 9974 N 401.188 -2.58978 0.954287 0
M  V30 9975 C 401.388 -2.80817 3.32215 0
M  V30 9976 C 401.438 -2.13785 4.50884 0
M  V30 9977 H 404.178 -1.93401 8.46693 0
M  V30 9978 H 404.448 -1.68181 6.71046 0
M  V30 9979 H 403.581 0.289076 8.15488 0
M  V30 9980 H 400.926 0.927166 5.72947 0
M  V30 9981 H 400.646 -1.87 6.82132 0
M  V30 9982 H 399.655 -0.404009 7.13457 0
M  V30 9983 H 401.489 -1.20599 8.97534 0
M  V30 9984 H 401.561 -2.70295 5.43162 0
M  V30 9985 H 401.459 -3.89465 3.27406 0
M  V30 9986 H 401.071 -2.01616 0.107046 0
M  V30 9987 H 401.267 -3.61403 0.873101 0
M  V30 9988 P 399.618 1.17771 8.83182 0
M  V30 9989 O 399.398 2.07206 9.98732 0
M  V30 9990 O 398.828 -0.0743816 8.81969 0
M  V30 9991 O 399.368 1.97652 7.47304 0
M  V30 9992 C 400.308 3.01055 7.08599 0
M  V30 9993 C 399.578 4.12613 6.37049 0
M  V30 9994 O 399.368 3.72827 4.97879 0
M  V30 9995 C 398.178 4.45719 6.88164 0
M  V30 9996 O 397.788 5.7877 6.5624 0
M  V30 9997 C 397.298 3.47768 6.11991 0
M  V30 9998 C 398.008 3.39356 4.77615 0
M  V30 9999 N 397.958 2.04571 4.15244 0
M  V30 10000 C 397.808 1.98587 2.78314 0
M  V30 10001 O 397.718 2.98134 2.08835 0
M  V30 10002 N 397.768 0.714467 2.24925 0
M  V30 10003 C 397.858 -0.470001 2.94169 0
M  V30 10004 C 398.008 -0.312541 4.36783 0
M  V30 10005 C 398.058 0.914512 4.92583 0
M  V30 10006 H 400.799 3.41169 7.98575 0
M  V30 10007 H 401.068 2.58295 6.41556 0
M  V30 10008 H 400.201 5.02657 6.42673 0
M  V30 10009 H 397.546 4.11637 4.08885 0
M  V30 10010 H 397.267 2.49626 6.61679 0
M  V30 10011 H 396.275 3.86566 6.00778 0
M  V30 10012 H 398.109 4.29943 7.96918 0
M  V30 10013 H 398.18 1.00937 6.00374 0
M  V30 10014 P 396.238 6.144 6.45285 0
M  V30 10015 O 396.018 7.54673 6.86199 0
M  V30 10016 O 395.448 5.12391 7.179 0
M  V30 10017 O 395.988 5.99158 4.88404 0
M  V30 10018 C 396.928 6.60234 3.96415 0
M  V30 10019 C 396.198 7.08259 2.72856 0
M  V30 10020 O 395.988 5.9427 1.83651 0
M  V30 10021 C 394.798 7.64886 2.9555 0
M  V30 10022 O 394.408 8.53963 1.90717 0
M  V30 10023 C 393.918 6.4116 2.90739 0
M  V30 10024 C 394.628 5.55375 1.86963 0
M  V30 10025 N 394.578 4.09664 2.15742 0
M  V30 10026 H 397.417 7.45574 4.45629 0
M  V30 10027 H 397.689 5.86232 3.67314 0
M  V30 10028 H 396.821 7.84412 2.24479 0
M  V30 10029 P 392.858 8.7635 1.60911 0
M  V30 10030 O 392.638 10.1388 1.11561 0
M  V30 10031 O 392.068 8.36503 2.79617 0
M  V30 10032 O 392.608 7.71806 0.42951 0
M  V30 10033 C 393.548 7.67148 -0.673689 0
M  V30 10034 C 392.818 7.33374 -1.95559 0
M  V30 10035 O 392.608 5.88721 -2.00726 0
M  V30 10036 C 391.418 7.92526 -2.10483 0
M  V30 10037 O 391.028 8.02971 -3.47653 0
M  V30 10038 C 390.538 6.89602 -1.41652 0
M  V30 10039 C 391.248 5.59201 -1.75185 0
M  V30 10040 N 391.198 4.58235 -0.662552 0
M  V30 10041 H 394.037 8.65116 -0.777161 0
M  V30 10042 H 394.309 6.90173 -0.474152 0
M  V30 10043 H 393.441 7.66548 -2.79458 0
M  V30 10044 P 389.478 8.03563 -3.84925 0
M  V30 10045 O 389.258 8.85821 -5.0569 0
M  V30 10046 O 388.688 8.41101 -2.65469 0
M  V30 10047 O 389.228 6.4965 -4.18908 0
M  V30 10048 C 390.168 5.81037 -5.05421 0
M  V30 10049 C 389.438 4.78366 -5.89277 0
M  V30 10050 O 389.228 3.58302 -5.08433 0
M  V30 10051 C 388.038 5.17448 -6.36119 0
M  V30 10052 O 387.648 4.45271 -7.53232 0
M  V30 10053 C 387.158 4.74639 -5.19936 0
M  V30 10054 C 387.868 3.49432 -4.70418 0
M  V30 10055 N 387.818 3.32099 -3.22613 0
M  V30 10056 C 387.898 4.28245 -2.25527 0
M  V30 10057 N 387.828 3.80823 -1.04874 0
M  V30 10058 C 387.678 2.44571 -1.23535 0
M  V30 10059 C 387.548 1.37068 -0.330675 0
M  V30 10060 N 387.538 1.51472 0.990824 0
M  V30 10061 N 387.428 0.138614 -0.848756 0
M  V30 10062 C 387.438 -0.00675923 -2.16999 0
M  V30 10063 N 387.558 0.904372 -3.11122 0
M  V30 10064 C 387.678 2.12707 -2.56212 0
M  V30 10065 H 390.657 6.54213 -5.71376 0
M  V30 10066 H 390.929 5.30936 -4.43503 0
M  V30 10067 H 390.061 4.55889 -6.76652 0
M  V30 10068 H 387.406 2.61715 -5.17932 0
M  V30 10069 H 387.126 5.52155 -4.41878 0
M  V30 10070 H 386.135 4.51981 -5.53374 0
M  V30 10071 H 387.969 6.25124 -6.55234 0
M  V30 10072 H 388.01 5.34372 -2.47488 0
M  V30 10073 H 387.629 2.45153 1.4078 0
M  V30 10074 H 387.44 0.688422 1.59911 0
M  V30 10075 H 387.332 -1.02584 -2.52346 0
M  V30 10076 P 386.098 4.23843 -7.83734 0
M  V30 10077 O 385.878 4.19407 -9.29784 0
M  V30 10078 O 385.308 5.24426 -7.09156 0
M  V30 10079 O 385.848 2.79386 -7.20852 0
M  V30 10080 C 386.788 1.7299 -7.50419 0
M  V30 10081 C 386.058 0.41401 -7.5797 0
M  V30 10082 O 385.848 -0.089787 -6.22035 0
M  V30 10083 C 384.658 0.447224 -8.1878 0
M  V30 10084 O 384.268 -0.825159 -8.71201 0
M  V30 10085 C 383.778 0.783801 -6.99623 0
M  V30 10086 C 384.488 0.0619192 -5.85967 0
M  V30 10087 N 384.438 0.7859 -4.56281 0
M  V30 10088 C 384.288 0.0359258 -3.39981 0
M  V30 10089 O 384.198 -1.19723 -3.49038 0
M  V30 10090 N 384.238 0.869151 -2.14025 0
M  V30 10091 C 384.338 2.01207 -2.14363 0
M  V30 10092 N 384.288 2.58978 -0.954287 0
M  V30 10093 C 384.488 2.80817 -3.32215 0
M  V30 10094 C 384.538 2.13785 -4.50884 0
M  V30 10095 H 387.278 1.93401 -8.46693 0
M  V30 10096 H 387.548 1.68181 -6.71046 0
M  V30 10097 H 386.681 -0.289076 -8.15488 0
M  V30 10098 H 384.026 -0.927166 -5.72947 0
M  V30 10099 H 383.746 1.87 -6.82132 0
M  V30 10100 H 382.755 0.404009 -7.13457 0
M  V30 10101 H 384.589 1.20599 -8.97534 0
M  V30 10102 H 384.661 2.70295 -5.43162 0
M  V30 10103 H 384.559 3.89465 -3.27406 0
M  V30 10104 H 384.171 2.01616 -0.107046 0
M  V30 10105 H 384.367 3.61403 -0.873101 0
M  V30 10106 P 382.718 -1.17771 -8.83182 0
M  V30 10107 O 382.498 -2.07206 -9.98732 0
M  V30 10108 O 381.928 0.0743816 -8.81969 0
M  V30 10109 O 382.468 -1.97652 -7.47304 0
M  V30 10110 C 383.408 -3.01133 -7.08783 0
M  V30 10111 C 382.678 -4.12613 -6.37049 0
M  V30 10112 O 382.468 -3.72827 -4.97879 0
M  V30 10113 C 381.278 -4.45085 -6.88694 0
M  V30 10114 O 380.888 -5.7877 -6.5624 0
M  V30 10115 C 380.398 -3.47817 -6.12078 0
M  V30 10116 C 381.108 -3.39414 -4.77697 0
M  V30 10117 N 381.058 -2.04615 -4.15333 0
M  V30 10118 H 383.897 -3.41248 -7.98759 0
M  V30 10119 H 384.169 -2.5837 -6.41742 0
M  V30 10120 H 383.301 -5.02657 -6.42673 0
M  V30 10121 P 379.338 -6.144 -6.45285 0
M  V30 10122 O 379.118 -7.54673 -6.86199 0
M  V30 10123 O 378.548 -5.12391 -7.179 0
M  V30 10124 O 379.088 -5.99158 -4.88404 0
M  V30 10125 C 380.028 -6.60234 -3.96415 0
M  V30 10126 C 379.298 -7.08259 -2.72856 0
M  V30 10127 O 379.088 -5.9427 -1.83651 0
M  V30 10128 C 377.898 -7.64886 -2.9555 0
M  V30 10129 O 377.508 -8.53963 -1.90717 0
M  V30 10130 C 377.018 -6.4116 -2.90739 0
M  V30 10131 C 377.728 -5.55375 -1.86963 0
M  V30 10132 N 377.678 -4.09664 -2.15742 0
M  V30 10133 H 380.517 -7.45574 -4.45629 0
M  V30 10134 H 380.789 -5.86232 -3.67314 0
M  V30 10135 H 379.921 -7.84412 -2.24479 0
M  V30 10136 P 375.958 -8.7635 -1.60911 0
M  V30 10137 O 375.738 -10.1388 -1.11561 0
M  V30 10138 O 375.168 -8.36503 -2.79617 0
M  V30 10139 O 375.708 -7.71806 -0.42951 0
M  V30 10140 C 376.648 -7.67148 0.673689 0
M  V30 10141 C 375.918 -7.33374 1.95559 0
M  V30 10142 O 375.708 -5.88721 2.00726 0
M  V30 10143 C 374.518 -7.92526 2.10483 0
M  V30 10144 O 374.128 -8.02971 3.47653 0
M  V30 10145 C 373.638 -6.89602 1.41652 0
M  V30 10146 C 374.348 -5.59201 1.75185 0
M  V30 10147 N 374.298 -4.58235 0.662552 0
M  V30 10148 H 377.137 -8.65116 0.777161 0
M  V30 10149 H 377.409 -6.90173 0.474152 0
M  V30 10150 H 376.541 -7.66548 2.79458 0
M  V30 10151 P 372.578 -8.03563 3.84925 0
M  V30 10152 O 372.358 -8.85821 5.0569 0
M  V30 10153 O 371.788 -8.41101 2.65469 0
M  V30 10154 O 372.328 -6.4965 4.18908 0
M  V30 10155 C 373.268 -5.80886 5.05289 0
M  V30 10156 C 372.538 -4.78366 5.89277 0
M  V30 10157 O 372.328 -3.58302 5.08433 0
M  V30 10158 C 371.138 -5.16748 6.36559 0
M  V30 10159 O 370.748 -4.45271 7.53232 0
M  V30 10160 C 370.258 -4.74572 5.19863 0
M  V30 10161 C 370.968 -3.49373 4.70338 0
M  V30 10162 N 370.918 -3.31704 3.22876 0
M  V30 10163 C 370.768 -2.03326 2.74871 0
M  V30 10164 O 370.678 -1.06486 3.48076 0
M  V30 10165 N 370.728 -1.91838 1.37456 0
M  V30 10166 C 370.818 -2.94295 0.462035 0
M  V30 10167 C 370.968 -4.25064 1.05249 0
M  V30 10168 C 371.018 -4.40214 2.39192 0
M  V30 10169 H 373.759 -6.54063 5.71245 0
M  V30 10170 H 374.028 -5.30339 4.43905 0
M  V30 10171 H 373.161 -4.55889 6.76652 0
M  V30 10172 H 370.506 -2.6167 5.17842 0
M  V30 10173 H 370.227 -5.52155 4.41878 0
M  V30 10174 H 369.235 -4.51918 5.53297 0
M  V30 10175 H 371.069 -6.25055 6.55162 0
M  V30 10176 H 371.14 -5.39798 2.81523 0
M  V30 10177 P 369.198 -4.23843 7.83734 0
M  V30 10178 O 368.978 -4.19407 9.29784 0
M  V30 10179 O 368.408 -5.24426 7.09156 0
M  V30 10180 O 368.948 -2.7935 7.20758 0
M  V30 10181 C 369.888 -1.72945 7.50224 0
M  V30 10182 C 369.158 -0.406376 7.57911 0
M  V30 10183 O 368.948 0.0897726 6.21935 0
M  V30 10184 C 367.758 -0.438983 8.18724 0
M  V30 10185 O 367.368 0.825065 8.71101 0
M  V30 10186 C 366.878 -0.783689 6.99524 0
M  V30 10187 C 367.588 -0.0619086 5.85867 0
M  V30 10188 N 367.538 -0.78573 4.56183 0
M  V30 10189 C 367.388 -0.0292889 3.41887 0
M  V30 10190 O 367.298 1.18445 3.4419 0
M  V30 10191 N 367.348 -0.744061 2.23964 0
M  V30 10192 C 367.438 -2.10932 2.10362 0
M  V30 10193 C 367.588 -2.8202 3.34994 0
M  V30 10194 C 367.638 -2.15547 4.52261 0
M  V30 10195 H 370.379 -1.93379 8.46595 0
M  V30 10196 H 370.648 -1.68132 6.70852 0
M  V30 10197 H 369.781 0.289041 8.15388 0
M  V30 10198 H 367.126 0.926847 5.72749 0
M  V30 10199 H 366.847 -1.86973 6.82036 0
M  V30 10200 H 365.855 -0.403896 7.13257 0
M  V30 10201 H 367.689 -1.20585 8.97435 0
M  V30 10202 H 367.76 -2.71231 5.45042 0
M  V30 10203 P 365.818 1.17771 8.83182 0
M  V30 10204 O 365.598 2.07206 9.98732 0
M  V30 10205 O 365.028 -0.0743816 8.81969 0
M  V30 10206 O 365.568 1.97652 7.47304 0
M  V30 10207 C 366.508 3.01133 7.08783 0
M  V30 10208 C 365.778 4.12613 6.37049 0
M  V30 10209 O 365.568 3.72827 4.97879 0
M  V30 10210 C 364.378 4.45085 6.88694 0
M  V30 10211 O 363.988 5.7877 6.5624 0
M  V30 10212 C 363.498 3.47817 6.12078 0
M  V30 10213 C 364.208 3.39414 4.77697 0
M  V30 10214 N 364.158 2.04615 4.15333 0
M  V30 10215 H 366.997 3.41248 7.98759 0
M  V30 10216 H 367.269 2.5837 6.41742 0
M  V30 10217 H 366.401 5.02657 6.42673 0
M  V30 10218 P 362.438 6.144 6.45285 0
M  V30 10219 O 362.218 7.54673 6.86199 0
M  V30 10220 O 361.648 5.12391 7.179 0
M  V30 10221 O 362.188 5.99158 4.88404 0
M  V30 10222 C 363.128 6.60234 3.96415 0
M  V30 10223 C 362.398 7.08259 2.72856 0
M  V30 10224 O 362.188 5.9427 1.83651 0
M  V30 10225 C 360.998 7.64886 2.9555 0
M  V30 10226 O 360.608 8.53963 1.90717 0
M  V30 10227 C 360.118 6.4116 2.90739 0
M  V30 10228 C 360.828 5.55375 1.86963 0
M  V30 10229 N 360.778 4.09664 2.15742 0
M  V30 10230 H 363.617 7.45574 4.45629 0
M  V30 10231 H 363.889 5.86232 3.67314 0
M  V30 10232 H 363.021 7.84412 2.24479 0
M  V30 10233 P 359.058 8.7635 1.60911 0
M  V30 10234 O 358.838 10.1388 1.11561 0
M  V30 10235 O 358.268 8.36503 2.79617 0
M  V30 10236 O 358.808 7.71806 0.42951 0
M  V30 10237 C 359.748 7.67148 -0.673689 0
M  V30 10238 C 359.018 7.33374 -1.95559 0
M  V30 10239 O 358.808 5.88721 -2.00726 0
M  V30 10240 C 357.618 7.92526 -2.10483 0
M  V30 10241 O 357.228 8.02971 -3.47653 0
M  V30 10242 C 356.738 6.89602 -1.41652 0
M  V30 10243 C 357.448 5.59201 -1.75185 0
M  V30 10244 N 357.398 4.58235 -0.662552 0
M  V30 10245 H 360.237 8.65116 -0.777161 0
M  V30 10246 H 360.509 6.90173 -0.474152 0
M  V30 10247 H 359.641 7.66548 -2.79458 0
M  V30 10248 P 355.678 8.03563 -3.84925 0
M  V30 10249 O 355.458 8.85821 -5.0569 0
M  V30 10250 O 354.888 8.41101 -2.65469 0
M  V30 10251 O 355.428 6.4965 -4.18908 0
M  V30 10252 C 356.368 5.81037 -5.05421 0
M  V30 10253 C 355.638 4.78366 -5.89277 0
M  V30 10254 O 355.428 3.58302 -5.08433 0
M  V30 10255 C 354.238 5.17448 -6.36119 0
M  V30 10256 O 353.848 4.45271 -7.53232 0
M  V30 10257 C 353.358 4.74639 -5.19936 0
M  V30 10258 C 354.068 3.49432 -4.70418 0
M  V30 10259 N 354.018 3.31776 -3.22945 0
M  V30 10260 H 356.857 6.54213 -5.71376 0
M  V30 10261 H 357.129 5.30492 -4.44033 0
M  V30 10262 H 356.261 4.55889 -6.76652 0
M  V30 10263 P 352.298 4.23843 -7.83734 0
M  V30 10264 O 352.078 4.19407 -9.29784 0
M  V30 10265 O 351.508 5.24426 -7.09156 0
M  V30 10266 O 352.048 2.79386 -7.20852 0
M  V30 10267 C 352.988 1.7299 -7.50419 0
M  V30 10268 C 352.258 0.41401 -7.5797 0
M  V30 10269 O 352.048 -0.089787 -6.22035 0
M  V30 10270 C 350.858 0.447224 -8.1878 0
M  V30 10271 O 350.468 -0.825159 -8.71201 0
M  V30 10272 C 349.978 0.783801 -6.99623 0
M  V30 10273 C 350.688 0.0619192 -5.85967 0
M  V30 10274 N 350.638 0.7859 -4.56281 0
M  V30 10275 C 350.488 0.0359258 -3.39981 0
M  V30 10276 O 350.398 -1.19723 -3.49038 0
M  V30 10277 N 350.438 0.869151 -2.14025 0
M  V30 10278 C 350.538 2.01207 -2.14363 0
M  V30 10279 N 350.488 2.58978 -0.954287 0
M  V30 10280 C 350.688 2.80817 -3.32215 0
M  V30 10281 C 350.738 2.13785 -4.50884 0
M  V30 10282 H 353.478 1.93401 -8.46693 0
M  V30 10283 H 353.748 1.68181 -6.71046 0
M  V30 10284 H 352.881 -0.289076 -8.15488 0
M  V30 10285 H 350.226 -0.927166 -5.72947 0
M  V30 10286 H 349.946 1.87 -6.82132 0
M  V30 10287 H 348.955 0.404009 -7.13457 0
M  V30 10288 H 350.789 1.20599 -8.97534 0
M  V30 10289 H 350.861 2.70295 -5.43162 0
M  V30 10290 H 350.759 3.89465 -3.27406 0
M  V30 10291 H 350.371 2.01616 -0.107046 0
M  V30 10292 H 350.567 3.61403 -0.873101 0
M  V30 10293 P 348.918 -1.17771 -8.83182 0
M  V30 10294 O 348.698 -2.07206 -9.98732 0
M  V30 10295 O 348.128 0.0743816 -8.81969 0
M  V30 10296 O 348.668 -1.97652 -7.47304 0
M  V30 10297 C 349.608 -3.01133 -7.08783 0
M  V30 10298 C 348.878 -4.12613 -6.37049 0
M  V30 10299 O 348.668 -3.72827 -4.97879 0
M  V30 10300 C 347.478 -4.45085 -6.88694 0
M  V30 10301 O 347.088 -5.7877 -6.5624 0
M  V30 10302 C 346.598 -3.47817 -6.12078 0
M  V30 10303 C 347.308 -3.39414 -4.77697 0
M  V30 10304 N 347.258 -2.04615 -4.15333 0
M  V30 10305 H 350.097 -3.41248 -7.98759 0
M  V30 10306 H 350.369 -2.5837 -6.41742 0
M  V30 10307 H 349.501 -5.02657 -6.42673 0
M  V30 10308 P 345.538 -6.144 -6.45285 0
M  V30 10309 O 345.318 -7.54673 -6.86199 0
M  V30 10310 O 344.748 -5.12391 -7.179 0
M  V30 10311 O 345.288 -5.99158 -4.88404 0
M  V30 10312 C 346.228 -6.60234 -3.96415 0
M  V30 10313 C 345.498 -7.08259 -2.72856 0
M  V30 10314 O 345.288 -5.9427 -1.83651 0
M  V30 10315 C 344.098 -7.64886 -2.9555 0
M  V30 10316 O 343.708 -8.53963 -1.90717 0
M  V30 10317 C 343.218 -6.4116 -2.90739 0
M  V30 10318 C 343.928 -5.55375 -1.86963 0
M  V30 10319 N 343.878 -4.09664 -2.15742 0
M  V30 10320 H 346.717 -7.45574 -4.45629 0
M  V30 10321 H 346.989 -5.86232 -3.67314 0
M  V30 10322 H 346.121 -7.84412 -2.24479 0
M  V30 10323 P 342.158 -8.7635 -1.60911 0
M  V30 10324 O 341.938 -10.1388 -1.11561 0
M  V30 10325 O 341.368 -8.36503 -2.79617 0
M  V30 10326 O 341.908 -7.71806 -0.42951 0
M  V30 10327 C 342.848 -7.66948 0.673514 0
M  V30 10328 C 342.118 -7.33374 1.95559 0
M  V30 10329 O 341.908 -5.88721 2.00726 0
M  V30 10330 C 340.718 -7.92218 2.1125 0
M  V30 10331 O 340.328 -8.02971 3.47653 0
M  V30 10332 C 339.838 -6.89504 1.41631 0
M  V30 10333 C 340.548 -5.59106 1.75155 0
M  V30 10334 N 340.498 -4.58136 0.662409 0
M  V30 10335 C 340.348 -3.26059 1.02863 0
M  V30 10336 O 340.258 -2.90743 2.19009 0
M  V30 10337 N 340.308 -2.35995 -0.0155585 0
M  V30 10338 C 340.398 -2.65248 -1.35603 0
M  V30 10339 O 340.348 -1.75605 -2.20651 0
M  V30 10340 C 340.548 -4.05747 -1.64698 0
M  V30 10341 C 340.658 -4.42345 -3.09553 0
M  V30 10342 C 340.598 -4.96734 -0.652411 0
M  V30 10343 H 343.339 -8.64917 0.776982 0
M  V30 10344 H 343.608 -6.89974 0.474015 0
M  V30 10345 H 342.741 -7.66548 2.79458 0
M  V30 10346 H 340.086 -5.16076 2.65138 0
M  V30 10347 H 339.807 -7.06433 0.329384 0
M  V30 10348 H 338.815 -6.90829 1.81996 0
M  V30 10349 H 340.649 -8.90774 1.62639 0
M  V30 10350 H 340.72 -6.02181 -0.895285 0
M  V30 10351 H 339.69 -4.80252 -3.45468 0
M  V30 10352 H 341.427 -5.20015 -3.22119 0
M  V30 10353 H 340.939 -3.53269 -3.67833 0
M  V30 10354 H 340.203 -1.39558 0.227499 0
M  V30 10355 P 338.778 -8.03563 3.84925 0
M  V30 10356 O 338.558 -8.85821 5.0569 0
M  V30 10357 O 337.988 -8.41101 2.65469 0
M  V30 10358 O 338.528 -6.4965 4.18908 0
M  V30 10359 C 339.468 -5.80886 5.05289 0
M  V30 10360 C 338.738 -4.78366 5.89277 0
M  V30 10361 O 338.528 -3.58302 5.08433 0
M  V30 10362 C 337.338 -5.16748 6.36559 0
M  V30 10363 O 336.948 -4.45271 7.53232 0
M  V30 10364 C 336.458 -4.74572 5.19863 0
M  V30 10365 C 337.168 -3.49373 4.70338 0
M  V30 10366 N 337.118 -3.31704 3.22876 0
M  V30 10367 C 336.968 -2.03326 2.74871 0
M  V30 10368 O 336.878 -1.06486 3.48076 0
M  V30 10369 N 336.928 -1.91838 1.37456 0
M  V30 10370 C 337.018 -2.94295 0.462035 0
M  V30 10371 C 337.168 -4.25064 1.05249 0
M  V30 10372 C 337.218 -4.40214 2.39192 0
M  V30 10373 H 339.959 -6.54063 5.71245 0
M  V30 10374 H 340.228 -5.30339 4.43905 0
M  V30 10375 H 339.361 -4.55889 6.76652 0
M  V30 10376 H 336.706 -2.6167 5.17842 0
M  V30 10377 H 336.427 -5.52155 4.41878 0
M  V30 10378 H 335.435 -4.51918 5.53297 0
M  V30 10379 H 337.269 -6.25055 6.55162 0
M  V30 10380 H 337.34 -5.39798 2.81523 0
M  V30 10381 P 335.398 -4.23843 7.83734 0
M  V30 10382 O 335.178 -4.19407 9.29784 0
M  V30 10383 O 334.608 -5.24426 7.09156 0
M  V30 10384 O 335.148 -2.7935 7.20758 0
M  V30 10385 C 336.088 -1.72945 7.50224 0
M  V30 10386 C 335.358 -0.406376 7.57911 0
M  V30 10387 O 335.148 0.0897726 6.21935 0
M  V30 10388 C 333.958 -0.438983 8.18724 0
M  V30 10389 O 333.568 0.825065 8.71101 0
M  V30 10390 C 333.078 -0.783689 6.99524 0
M  V30 10391 C 333.788 -0.0619086 5.85867 0
M  V30 10392 N 333.738 -0.78573 4.56183 0
M  V30 10393 C 333.588 -0.0292889 3.41887 0
M  V30 10394 O 333.498 1.18445 3.4419 0
M  V30 10395 N 333.548 -0.744061 2.23964 0
M  V30 10396 C 333.638 -2.10932 2.10362 0
M  V30 10397 O 333.588 -2.64117 0.98825 0
M  V30 10398 C 333.788 -2.8202 3.34994 0
M  V30 10399 C 333.898 -4.31095 3.25037 0
M  V30 10400 C 333.838 -2.15547 4.52261 0
M  V30 10401 H 336.579 -1.93379 8.46595 0
M  V30 10402 H 336.848 -1.68132 6.70852 0
M  V30 10403 H 335.981 0.289041 8.15388 0
M  V30 10404 H 333.326 0.926847 5.72749 0
M  V30 10405 H 333.047 -1.86973 6.82036 0
M  V30 10406 H 332.055 -0.403896 7.13257 0
M  V30 10407 H 333.889 -1.20585 8.97435 0
M  V30 10408 H 333.96 -2.71231 5.45042 0
M  V30 10409 H 332.93 -4.76966 3.49992 0
M  V30 10410 H 334.667 -4.67047 3.95024 0
M  V30 10411 H 334.179 -4.58996 2.22312 0
M  V30 10412 H 333.443 -0.214893 1.39758 0
M  V30 10413 P 332.018 1.17771 8.83182 0
M  V30 10414 O 331.798 2.07206 9.98732 0
M  V30 10415 O 331.228 -0.0743816 8.81969 0
M  V30 10416 O 331.768 1.97652 7.47304 0
M  V30 10417 C 332.708 3.01133 7.08783 0
M  V30 10418 C 331.978 4.12613 6.37049 0
M  V30 10419 O 331.768 3.72827 4.97879 0
M  V30 10420 C 330.578 4.45085 6.88694 0
M  V30 10421 O 330.188 5.7877 6.5624 0
M  V30 10422 C 329.698 3.47817 6.12078 0
M  V30 10423 C 330.408 3.39414 4.77697 0
M  V30 10424 N 330.358 2.04615 4.15333 0
M  V30 10425 H 333.197 3.41248 7.98759 0
M  V30 10426 H 333.469 2.5837 6.41742 0
M  V30 10427 H 332.601 5.02657 6.42673 0
M  V30 10428 P 328.638 6.144 6.45285 0
M  V30 10429 O 328.418 7.54673 6.86199 0
M  V30 10430 O 327.848 5.12391 7.179 0
M  V30 10431 O 328.388 5.99158 4.88404 0
M  V30 10432 C 329.328 6.60234 3.96415 0
M  V30 10433 C 328.598 7.08259 2.72856 0
M  V30 10434 O 328.388 5.9427 1.83651 0
M  V30 10435 C 327.198 7.64886 2.9555 0
M  V30 10436 O 326.808 8.53963 1.90717 0
M  V30 10437 C 326.318 6.4116 2.90739 0
M  V30 10438 C 327.028 5.55375 1.86963 0
M  V30 10439 N 326.978 4.09664 2.15742 0
M  V30 10440 H 329.817 7.45574 4.45629 0
M  V30 10441 H 330.089 5.86232 3.67314 0
M  V30 10442 H 329.221 7.84412 2.24479 0
M  V30 10443 P 325.258 8.7635 1.60911 0
M  V30 10444 O 325.038 10.1388 1.11561 0
M  V30 10445 O 324.468 8.36503 2.79617 0
M  V30 10446 O 325.008 7.71806 0.42951 0
M  V30 10447 C 325.948 7.67148 -0.673689 0
M  V30 10448 C 325.218 7.33374 -1.95559 0
M  V30 10449 O 325.008 5.88721 -2.00726 0
M  V30 10450 C 323.818 7.92526 -2.10483 0
M  V30 10451 O 323.428 8.02971 -3.47653 0
M  V30 10452 C 322.938 6.89602 -1.41652 0
M  V30 10453 C 323.648 5.59201 -1.75185 0
M  V30 10454 N 323.598 4.58235 -0.662552 0
M  V30 10455 H 326.437 8.65116 -0.777161 0
M  V30 10456 H 326.709 6.90173 -0.474152 0
M  V30 10457 H 325.841 7.66548 -2.79458 0
M  V30 10458 P 321.878 8.03563 -3.84925 0
M  V30 10459 O 321.658 8.85821 -5.0569 0
M  V30 10460 O 321.088 8.41101 -2.65469 0
M  V30 10461 O 321.628 6.4965 -4.18908 0
M  V30 10462 C 322.568 5.80886 -5.05289 0
M  V30 10463 C 321.838 4.78366 -5.89277 0
M  V30 10464 O 321.628 3.58302 -5.08433 0
M  V30 10465 C 320.438 5.16748 -6.36559 0
M  V30 10466 O 320.048 4.45271 -7.53232 0
M  V30 10467 C 319.558 4.74572 -5.19863 0
M  V30 10468 C 320.268 3.49373 -4.70338 0
M  V30 10469 N 320.218 3.31704 -3.22876 0
M  V30 10470 C 320.068 2.03326 -2.74871 0
M  V30 10471 O 319.978 1.06486 -3.48076 0
M  V30 10472 N 320.028 1.91838 -1.37456 0
M  V30 10473 C 320.118 2.94295 -0.462035 0
M  V30 10474 O 320.068 2.71763 0.752928 0
M  V30 10475 C 320.268 4.25064 -1.05249 0
M  V30 10476 C 320.378 5.39815 -0.095697 0
M  V30 10477 C 320.318 4.40214 -2.39192 0
M  V30 10478 H 323.059 6.54063 -5.71245 0
M  V30 10479 H 323.328 5.30339 -4.43905 0
M  V30 10480 H 322.461 4.55889 -6.76652 0
M  V30 10481 H 319.806 2.6167 -5.17842 0
M  V30 10482 H 319.527 5.52155 -4.41878 0
M  V30 10483 H 318.535 4.51918 -5.53297 0
M  V30 10484 H 320.369 6.25055 -6.55162 0
M  V30 10485 H 320.44 5.39798 -2.81523 0
M  V30 10486 H 319.41 5.91593 -0.0279582 0
M  V30 10487 H 321.147 6.10038 -0.450573 0
M  V30 10488 H 320.659 5.02007 0.89937 0
M  V30 10489 H 319.923 0.995326 -1.00435 0
M  V30 10490 P 318.498 4.23843 -7.83734 0
M  V30 10491 O 318.278 4.19407 -9.29784 0
M  V30 10492 O 317.708 5.24426 -7.09156 0
M  V30 10493 O 318.248 2.7935 -7.20758 0
M  V30 10494 C 319.188 1.7299 -7.50419 0
M  V30 10495 C 318.458 0.406376 -7.57911 0
M  V30 10496 O 318.248 -0.0897726 -6.21935 0
M  V30 10497 C 317.058 0.447224 -8.1878 0
M  V30 10498 O 316.668 -0.825065 -8.71101 0
M  V30 10499 C 316.178 0.783801 -6.99623 0
M  V30 10500 C 316.888 0.0619192 -5.85967 0
M  V30 10501 N 316.838 0.7859 -4.56281 0
M  V30 10502 H 319.677 1.93423 -8.4679 0
M  V30 10503 H 319.949 1.68181 -6.71046 0
M  V30 10504 H 319.081 -0.289041 -8.15388 0
M  V30 10505 P 315.118 -1.17771 -8.83182 0
M  V30 10506 O 314.898 -2.07206 -9.98732 0
M  V30 10507 O 314.328 0.0743816 -8.81969 0
M  V30 10508 O 314.868 -1.97652 -7.47304 0
M  V30 10509 C 315.808 -3.01133 -7.08783 0
M  V30 10510 C 315.078 -4.12613 -6.37049 0
M  V30 10511 O 314.868 -3.72827 -4.97879 0
M  V30 10512 C 313.678 -4.45085 -6.88694 0
M  V30 10513 O 313.288 -5.7877 -6.5624 0
M  V30 10514 C 312.798 -3.47817 -6.12078 0
M  V30 10515 C 313.508 -3.39414 -4.77697 0
M  V30 10516 N 313.458 -2.04615 -4.15333 0
M  V30 10517 H 316.297 -3.41248 -7.98759 0
M  V30 10518 H 316.569 -2.5837 -6.41742 0
M  V30 10519 H 315.701 -5.02657 -6.42673 0
M  V30 10520 P 311.738 -6.144 -6.45285 0
M  V30 10521 O 311.518 -7.54673 -6.86199 0
M  V30 10522 O 310.948 -5.12391 -7.179 0
M  V30 10523 O 311.488 -5.99158 -4.88404 0
M  V30 10524 C 312.428 -6.60234 -3.96415 0
M  V30 10525 C 311.698 -7.08259 -2.72856 0
M  V30 10526 O 311.488 -5.9427 -1.83651 0
M  V30 10527 C 310.298 -7.64886 -2.9555 0
M  V30 10528 O 309.908 -8.53963 -1.90717 0
M  V30 10529 C 309.418 -6.4116 -2.90739 0
M  V30 10530 C 310.128 -5.55375 -1.86963 0
M  V30 10531 N 310.078 -4.09448 -2.16152 0
M  V30 10532 H 312.917 -7.45574 -4.45629 0
M  V30 10533 H 313.189 -5.85864 -3.679 0
M  V30 10534 H 312.321 -7.84412 -2.24479 0
M  V30 10535 H 309.666 -5.73457 -0.888562 0
M  V30 10536 H 309.386 -5.90877 -3.88583 0
M  V30 10537 H 308.395 -6.6596 -2.58858 0
M  V30 10538 H 310.229 -8.16339 -3.92049 0
M  V30 10539 P 308.358 -8.7635 -1.60911 0
M  V30 10540 O 308.138 -10.1388 -1.11561 0
M  V30 10541 O 307.568 -8.36503 -2.79617 0
M  V30 10542 O 308.108 -7.71806 -0.42951 0
M  V30 10543 C 309.048 -7.67148 0.673689 0
M  V30 10544 C 308.318 -7.33374 1.95559 0
M  V30 10545 O 308.108 -5.88721 2.00726 0
M  V30 10546 C 306.918 -7.92526 2.10483 0
M  V30 10547 O 306.528 -8.02971 3.47653 0
M  V30 10548 C 306.038 -6.89602 1.41652 0
M  V30 10549 C 306.748 -5.59201 1.75185 0
M  V30 10550 N 306.698 -4.58235 0.662552 0
M  V30 10551 H 309.537 -8.65116 0.777161 0
M  V30 10552 H 309.809 -6.90173 0.474152 0
M  V30 10553 H 308.941 -7.66548 2.79458 0
M  V30 10554 P 304.978 -8.03563 3.84925 0
M  V30 10555 O 304.758 -8.85821 5.0569 0
M  V30 10556 O 304.188 -8.41101 2.65469 0
M  V30 10557 O 304.728 -6.4965 4.18908 0
M  V30 10558 C 305.668 -5.81037 5.05421 0
M  V30 10559 C 304.938 -4.78366 5.89277 0
M  V30 10560 O 304.728 -3.58302 5.08433 0
M  V30 10561 C 303.538 -5.17448 6.36119 0
M  V30 10562 O 303.148 -4.45271 7.53232 0
M  V30 10563 C 302.658 -4.74639 5.19936 0
M  V30 10564 C 303.368 -3.49432 4.70418 0
M  V30 10565 N 303.318 -3.31776 3.22945 0
M  V30 10566 H 306.157 -6.54213 5.71376 0
M  V30 10567 H 306.429 -5.30492 4.44033 0
M  V30 10568 H 305.561 -4.55889 6.76652 0
M  V30 10569 P 301.598 -4.23843 7.83734 0
M  V30 10570 O 301.378 -4.19407 9.29784 0
M  V30 10571 O 300.808 -5.24426 7.09156 0
M  V30 10572 O 301.348 -2.7935 7.20758 0
M  V30 10573 C 302.288 -1.7299 7.50419 0
M  V30 10574 C 301.558 -0.406376 7.57911 0
M  V30 10575 O 301.348 0.0897726 6.21935 0
M  V30 10576 C 300.158 -0.447224 8.1878 0
M  V30 10577 O 299.768 0.825065 8.71101 0
M  V30 10578 C 299.278 -0.783801 6.99623 0
M  V30 10579 C 299.988 -0.0619192 5.85967 0
M  V30 10580 N 299.938 -0.7859 4.56281 0
M  V30 10581 H 302.777 -1.93423 8.4679 0
M  V30 10582 H 303.049 -1.68181 6.71046 0
M  V30 10583 H 302.181 0.289041 8.15388 0
M  V30 10584 P 298.218 1.17771 8.83182 0
M  V30 10585 O 297.998 2.07206 9.98732 0
M  V30 10586 O 297.428 -0.0743816 8.81969 0
M  V30 10587 O 297.968 1.97652 7.47304 0
M  V30 10588 C 298.908 3.01133 7.08783 0
M  V30 10589 C 298.178 4.12613 6.37049 0
M  V30 10590 O 297.968 3.72827 4.97879 0
M  V30 10591 C 296.778 4.45085 6.88694 0
M  V30 10592 O 296.388 5.7877 6.5624 0
M  V30 10593 C 295.898 3.47817 6.12078 0
M  V30 10594 C 296.608 3.39414 4.77697 0
M  V30 10595 N 296.558 2.04615 4.15333 0
M  V30 10596 H 299.397 3.41248 7.98759 0
M  V30 10597 H 299.669 2.5837 6.41742 0
M  V30 10598 H 298.801 5.02657 6.42673 0
M  V30 10599 P 294.838 6.144 6.45285 0
M  V30 10600 O 294.618 7.54673 6.86199 0
M  V30 10601 O 294.048 5.12391 7.179 0
M  V30 10602 O 294.588 5.99236 4.88467 0
M  V30 10603 C 295.528 6.60234 3.96415 0
M  V30 10604 C 294.798 7.08079 2.736 0
M  V30 10605 O 294.588 5.94365 1.8368 0
M  V30 10606 C 293.398 7.64886 2.9555 0
M  V30 10607 O 293.008 8.5406 1.90739 0
M  V30 10608 C 292.518 6.4116 2.90739 0
M  V30 10609 C 293.228 5.55375 1.86963 0
M  V30 10610 N 293.178 4.09664 2.15742 0
M  V30 10611 C 293.028 3.22231 1.08477 0
M  V30 10612 O 292.938 3.68951 -0.0600489 0
M  V30 10613 N 292.978 1.76692 1.48799 0
M  V30 10614 C 293.078 1.41695 2.57602 0
M  V30 10615 N 293.028 0.107296 2.75791 0
M  V30 10616 C 293.228 2.29178 3.69733 0
M  V30 10617 C 293.278 3.62753 3.42653 0
M  V30 10618 H 296.018 7.45488 4.45578 0
M  V30 10619 H 296.288 5.86232 3.67314 0
M  V30 10620 H 295.421 7.84508 2.24507 0
M  V30 10621 H 292.766 5.73556 0.888715 0
M  V30 10622 H 292.486 5.9096 3.88638 0
M  V30 10623 H 291.495 6.66053 2.58894 0
M  V30 10624 H 293.329 8.16339 3.92049 0
M  V30 10625 H 293.401 4.33052 4.24913 0
M  V30 10626 H 293.299 1.9103 4.71577 0
M  V30 10627 H 292.911 -0.521221 1.95056 0
M  V30 10628 H 293.107 -0.286429 3.70695 0
M  V30 10629 P 291.458 8.7635 1.60911 0
M  V30 10630 O 291.238 10.1388 1.11561 0
M  V30 10631 O 290.668 8.36503 2.79617 0
M  V30 10632 O 291.208 7.71806 0.42951 0
M  V30 10633 C 292.148 7.67148 -0.673689 0
M  V30 10634 C 291.418 7.33374 -1.95559 0
M  V30 10635 O 291.208 5.88721 -2.00726 0
M  V30 10636 C 290.018 7.92526 -2.10483 0
M  V30 10637 O 289.628 8.02971 -3.47653 0
M  V30 10638 C 289.138 6.89602 -1.41652 0
M  V30 10639 C 289.848 5.59201 -1.75185 0
M  V30 10640 N 289.798 4.58235 -0.662552 0
M  V30 10641 H 292.637 8.65116 -0.777161 0
M  V30 10642 H 292.909 6.90173 -0.474152 0
M  V30 10643 H 292.041 7.66548 -2.79458 0
M  V30 10644 P 288.078 8.03563 -3.84925 0
M  V30 10645 O 287.858 8.85821 -5.0569 0
M  V30 10646 O 287.288 8.41101 -2.65469 0
M  V30 10647 O 287.828 6.4965 -4.18908 0
M  V30 10648 C 288.768 5.80886 -5.05289 0
M  V30 10649 C 288.038 4.78366 -5.89277 0
M  V30 10650 O 287.828 3.58302 -5.08433 0
M  V30 10651 C 286.638 5.16748 -6.36559 0
M  V30 10652 O 286.248 4.45271 -7.53232 0
M  V30 10653 C 285.758 4.74572 -5.19863 0
M  V30 10654 C 286.468 3.49373 -4.70338 0
M  V30 10655 N 286.418 3.31704 -3.22876 0
M  V30 10656 C 286.268 2.03326 -2.74871 0
M  V30 10657 O 286.178 1.06486 -3.48076 0
M  V30 10658 N 286.228 1.91838 -1.37456 0
M  V30 10659 C 286.318 2.94295 -0.462035 0
M  V30 10660 C 286.468 4.25064 -1.05249 0
M  V30 10661 C 286.518 4.40214 -2.39192 0
M  V30 10662 H 289.259 6.54063 -5.71245 0
M  V30 10663 H 289.528 5.30339 -4.43905 0
M  V30 10664 H 288.661 4.55889 -6.76652 0
M  V30 10665 H 286.006 2.6167 -5.17842 0
M  V30 10666 H 285.727 5.52155 -4.41878 0
M  V30 10667 H 284.735 4.51918 -5.53297 0
M  V30 10668 H 286.569 6.25055 -6.55162 0
M  V30 10669 H 286.64 5.39798 -2.81523 0
M  V30 10670 P 284.698 4.23843 -7.83734 0
M  V30 10671 O 284.478 4.19407 -9.29784 0
M  V30 10672 O 283.908 5.24426 -7.09156 0
M  V30 10673 O 284.448 2.7935 -7.20758 0
M  V30 10674 C 285.388 1.7299 -7.50419 0
M  V30 10675 C 284.658 0.406376 -7.57911 0
M  V30 10676 O 284.448 -0.0897726 -6.21935 0
M  V30 10677 C 283.258 0.447224 -8.1878 0
M  V30 10678 O 282.868 -0.825065 -8.71101 0
M  V30 10679 C 282.378 0.783801 -6.99623 0
M  V30 10680 C 283.088 0.0619192 -5.85967 0
M  V30 10681 N 283.038 0.790462 -4.56202 0
M  V30 10682 C 283.118 2.13895 -4.34171 0
M  V30 10683 N 283.048 2.46449 -3.08687 0
M  V30 10684 C 282.898 1.2525 -2.43697 0
M  V30 10685 C 282.768 0.914535 -1.07318 0
M  V30 10686 N 282.758 1.80782 -0.0887348 0
M  V30 10687 N 282.648 -0.386745 -0.768133 0
M  V30 10688 C 282.658 -1.28096 -1.75159 0
M  V30 10689 N 282.778 -1.09708 -3.04861 0
M  V30 10690 C 282.898 0.214857 -3.32306 0
M  V30 10691 H 285.877 1.93423 -8.4679 0
M  V30 10692 H 286.149 1.68852 -6.70877 0
M  V30 10693 H 285.281 -0.289041 -8.15388 0
M  V30 10694 H 282.626 -0.927006 -5.72848 0
M  V30 10695 H 282.346 1.86973 -6.82036 0
M  V30 10696 H 281.355 0.403953 -7.13357 0
M  V30 10697 H 283.189 1.20599 -8.97534 0
M  V30 10698 H 283.23 2.86846 -5.14318 0
M  V30 10699 H 282.849 2.81082 -0.302037 0
M  V30 10700 H 282.66 1.49688 0.889064 0
M  V30 10701 H 282.552 -2.31317 -1.43855 0
M  V30 10702 P 281.318 -1.17771 -8.83182 0
M  V30 10703 O 281.098 -2.07206 -9.98732 0
M  V30 10704 O 280.528 0.0743816 -8.81969 0
M  V30 10705 O 281.068 -1.97652 -7.47304 0
M  V30 10706 C 282.008 -3.01133 -7.08783 0
M  V30 10707 C 281.278 -4.12613 -6.37049 0
M  V30 10708 O 281.068 -3.72827 -4.97879 0
M  V30 10709 C 279.878 -4.45085 -6.88694 0
M  V30 10710 O 279.488 -5.7877 -6.5624 0
M  V30 10711 C 278.998 -3.47817 -6.12078 0
M  V30 10712 C 279.708 -3.39414 -4.77697 0
M  V30 10713 N 279.658 -2.04615 -4.15333 0
M  V30 10714 H 282.497 -3.41248 -7.98759 0
M  V30 10715 H 282.769 -2.5837 -6.41742 0
M  V30 10716 H 281.901 -5.02657 -6.42673 0
M  V30 10717 P 277.938 -6.144 -6.45285 0
M  V30 10718 O 277.718 -7.54673 -6.86199 0
M  V30 10719 O 277.148 -5.12391 -7.179 0
M  V30 10720 O 277.688 -5.99158 -4.88404 0
M  V30 10721 C 278.628 -6.60234 -3.96415 0
M  V30 10722 C 277.898 -7.08259 -2.72856 0
M  V30 10723 O 277.688 -5.9427 -1.83651 0
M  V30 10724 C 276.498 -7.64886 -2.9555 0
M  V30 10725 O 276.108 -8.53963 -1.90717 0
M  V30 10726 C 275.618 -6.4116 -2.90739 0
M  V30 10727 C 276.328 -5.55375 -1.86963 0
M  V30 10728 N 276.278 -4.09664 -2.15742 0
M  V30 10729 H 279.117 -7.45574 -4.45629 0
M  V30 10730 H 279.389 -5.86232 -3.67314 0
M  V30 10731 H 278.521 -7.84412 -2.24479 0
M  V30 10732 P 274.558 -8.7635 -1.60911 0
M  V30 10733 O 274.338 -10.1388 -1.11561 0
M  V30 10734 O 273.768 -8.36503 -2.79617 0
M  V30 10735 O 274.308 -7.71906 -0.429565 0
M  V30 10736 C 275.248 -7.67148 0.673689 0
M  V30 10737 C 274.518 -7.33666 1.94851 0
M  V30 10738 O 274.308 -5.88816 2.00759 0
M  V30 10739 C 273.118 -7.92526 2.10483 0
M  V30 10740 O 272.728 -8.03063 3.47693 0
M  V30 10741 C 272.238 -6.89602 1.41652 0
M  V30 10742 C 272.948 -5.59201 1.75185 0
M  V30 10743 N 272.898 -4.58235 0.662552 0
M  V30 10744 C 272.748 -3.24451 1.01643 0
M  V30 10745 O 272.658 -2.94958 2.21722 0
M  V30 10746 N 272.698 -2.30408 -0.165238 0
M  V30 10747 C 272.798 -2.66048 -1.25118 0
M  V30 10748 N 272.748 -1.70787 -2.16813 0
M  V30 10749 C 272.948 -4.02732 -1.64413 0
M  V30 10750 C 272.998 -4.9488 -0.63991 0
M  V30 10751 H 275.738 -8.65017 0.777072 0
M  V30 10752 H 276.008 -6.90173 0.474152 0
M  V30 10753 H 275.141 -7.66642 2.79492 0
M  V30 10754 H 272.486 -5.16254 2.65229 0
M  V30 10755 H 272.206 -7.06532 0.329431 0
M  V30 10756 H 271.215 -6.91023 1.82047 0
M  V30 10757 H 273.049 -8.90873 1.62657 0
M  V30 10758 H 273.121 -6.00104 -0.892197 0
M  V30 10759 H 273.019 -4.31733 -2.69229 0
M  V30 10760 H 272.631 -0.724835 -1.8844 0
M  V30 10761 H 272.827 -1.94716 -3.16734 0
M  V30 10762 P 271.178 -8.03563 3.84925 0
M  V30 10763 O 270.958 -8.85821 5.0569 0
M  V30 10764 O 270.388 -8.41101 2.65469 0
M  V30 10765 O 270.928 -6.4965 4.18908 0
M  V30 10766 C 271.868 -5.81037 5.05421 0
M  V30 10767 C 271.138 -4.78366 5.89277 0
M  V30 10768 O 270.928 -3.58302 5.08433 0
M  V30 10769 C 269.738 -5.17448 6.36119 0
M  V30 10770 O 269.348 -4.45271 7.53232 0
M  V30 10771 C 268.858 -4.74639 5.19936 0
M  V30 10772 C 269.568 -3.49432 4.70418 0
M  V30 10773 N 269.518 -3.32099 3.22613 0
M  V30 10774 H 272.357 -6.54213 5.71376 0
M  V30 10775 H 272.629 -5.30936 4.43503 0
M  V30 10776 H 271.761 -4.55889 6.76652 0
M  V30 10777 H 269.106 -2.61715 5.17932 0
M  V30 10778 H 268.826 -5.52155 4.41878 0
M  V30 10779 H 267.835 -4.51981 5.53374 0
M  V30 10780 H 269.669 -6.25124 6.55234 0
M  V30 10781 P 267.798 -4.23843 7.83734 0
M  V30 10782 O 267.578 -4.19407 9.29784 0
M  V30 10783 O 267.008 -5.24426 7.09156 0
M  V30 10784 O 267.548 -2.7935 7.20758 0
M  V30 10785 C 268.488 -1.7299 7.50419 0
M  V30 10786 C 267.758 -0.406376 7.57911 0
M  V30 10787 O 267.548 0.0897726 6.21935 0
M  V30 10788 C 266.358 -0.447224 8.1878 0
M  V30 10789 O 265.968 0.825065 8.71101 0
M  V30 10790 C 265.478 -0.783801 6.99623 0
M  V30 10791 C 266.188 -0.0619192 5.85967 0
M  V30 10792 N 266.138 -0.7859 4.56281 0
M  V30 10793 H 268.977 -1.93423 8.4679 0
M  V30 10794 H 269.249 -1.68181 6.71046 0
M  V30 10795 H 268.381 0.289041 8.15388 0
M  V30 10796 P 264.418 1.17771 8.83182 0
M  V30 10797 O 264.198 2.07206 9.98732 0
M  V30 10798 O 263.628 -0.0743816 8.81969 0
M  V30 10799 O 264.168 1.97652 7.47304 0
M  V30 10800 C 265.108 3.01133 7.08783 0
M  V30 10801 C 264.378 4.12613 6.37049 0
M  V30 10802 O 264.168 3.72827 4.97879 0
M  V30 10803 C 262.978 4.45085 6.88694 0
M  V30 10804 O 262.588 5.7877 6.5624 0
M  V30 10805 C 262.098 3.47817 6.12078 0
M  V30 10806 C 262.808 3.39414 4.77697 0
M  V30 10807 N 262.758 2.04199 4.15538 0
M  V30 10808 H 265.597 3.41248 7.98759 0
M  V30 10809 H 265.869 2.57728 6.42 0
M  V30 10810 H 265.001 5.02657 6.42673 0
M  V30 10811 H 262.346 4.11708 4.08956 0
M  V30 10812 H 262.066 2.49626 6.61679 0
M  V30 10813 H 261.075 3.8662 6.00862 0
M  V30 10814 H 262.909 4.29991 7.97006 0
M  V30 10815 P 261.038 6.144 6.45285 0
M  V30 10816 O 260.818 7.54673 6.86199 0
M  V30 10817 O 260.248 5.12391 7.179 0
M  V30 10818 O 260.788 5.99158 4.88404 0
M  V30 10819 C 261.728 6.60234 3.96415 0
M  V30 10820 C 260.998 7.08259 2.72856 0
M  V30 10821 O 260.788 5.9427 1.83651 0
M  V30 10822 C 259.598 7.64886 2.9555 0
M  V30 10823 O 259.208 8.53963 1.90717 0
M  V30 10824 C 258.718 6.4116 2.90739 0
M  V30 10825 C 259.428 5.55375 1.86963 0
M  V30 10826 N 259.378 4.09448 2.16152 0
M  V30 10827 H 262.217 7.45574 4.45629 0
M  V30 10828 H 262.489 5.85864 3.679 0
M  V30 10829 H 261.621 7.84412 2.24479 0
M  V30 10830 H 258.966 5.73457 0.888562 0
M  V30 10831 H 258.686 5.90877 3.88583 0
M  V30 10832 H 257.695 6.6596 2.58858 0
M  V30 10833 H 259.529 8.16339 3.92049 0
M  V30 10834 P 257.658 8.7635 1.60911 0
M  V30 10835 O 257.438 10.1388 1.11561 0
M  V30 10836 O 256.868 8.36503 2.79617 0
M  V30 10837 O 257.408 7.71806 0.42951 0
M  V30 10838 C 258.348 7.67148 -0.673689 0
M  V30 10839 C 257.618 7.33374 -1.95559 0
M  V30 10840 O 257.408 5.88721 -2.00726 0
M  V30 10841 C 256.218 7.92526 -2.10483 0
M  V30 10842 O 255.828 8.02971 -3.47653 0
M  V30 10843 C 255.338 6.89602 -1.41652 0
M  V30 10844 C 256.048 5.59201 -1.75185 0
M  V30 10845 N 255.998 4.58235 -0.662552 0
M  V30 10846 H 258.837 8.65116 -0.777161 0
M  V30 10847 H 259.109 6.90173 -0.474152 0
M  V30 10848 H 258.241 7.66548 -2.79458 0
M  V30 10849 P 254.279 8.03563 -3.84925 0
M  V30 10850 O 254.059 8.85821 -5.0569 0
M  V30 10851 O 253.489 8.41101 -2.65469 0
M  V30 10852 O 254.029 6.4965 -4.18908 0
M  V30 10853 C 254.969 5.81037 -5.05421 0
M  V30 10854 C 254.239 4.78366 -5.89277 0
M  V30 10855 O 254.029 3.58302 -5.08433 0
M  V30 10856 C 252.839 5.17448 -6.36119 0
M  V30 10857 O 252.449 4.45271 -7.53232 0
M  V30 10858 C 251.959 4.74639 -5.19936 0
M  V30 10859 C 252.669 3.49432 -4.70418 0
M  V30 10860 N 252.619 3.31776 -3.22945 0
M  V30 10861 C 252.699 4.27147 -2.23315 0
M  V30 10862 N 252.619 3.78447 -1.02186 0
M  V30 10863 C 252.479 2.41001 -1.21732 0
M  V30 10864 C 252.349 1.36111 -0.27694 0
M  V30 10865 N 252.229 0.113683 -0.912949 0
M  V30 10866 C 252.229 -0.0846396 -2.27943 0
M  V30 10867 N 252.099 -1.34737 -2.6916 0
M  V30 10868 N 252.359 0.902521 -3.16379 0
M  V30 10869 C 252.479 2.11937 -2.56849 0
M  V30 10870 H 255.458 6.54213 -5.71376 0
M  V30 10871 H 255.73 5.30492 -4.44033 0
M  V30 10872 H 254.862 4.55889 -6.76652 0
M  V30 10873 P 250.899 4.23843 -7.83734 0
M  V30 10874 O 250.679 4.19407 -9.29784 0
M  V30 10875 O 250.109 5.24426 -7.09156 0
M  V30 10876 O 250.649 2.7935 -7.20758 0
M  V30 10877 C 251.589 1.7299 -7.50419 0
M  V30 10878 C 250.859 0.406376 -7.57911 0
M  V30 10879 O 250.649 -0.0897726 -6.21935 0
M  V30 10880 C 249.459 0.447224 -8.1878 0
M  V30 10881 O 249.069 -0.825065 -8.71101 0
M  V30 10882 C 248.579 0.783801 -6.99623 0
M  V30 10883 C 249.289 0.0619192 -5.85967 0
M  V30 10884 N 249.239 0.7859 -4.56281 0
M  V30 10885 H 252.078 1.93423 -8.4679 0
M  V30 10886 H 252.35 1.68181 -6.71046 0
M  V30 10887 H 251.482 -0.289041 -8.15388 0
M  V30 10888 P 247.519 -1.17771 -8.83182 0
M  V30 10889 O 247.299 -2.07206 -9.98732 0
M  V30 10890 O 246.729 0.0743816 -8.81969 0
M  V30 10891 O 247.269 -1.97652 -7.47304 0
M  V30 10892 C 248.209 -3.01133 -7.08783 0
M  V30 10893 C 247.479 -4.12613 -6.37049 0
M  V30 10894 O 247.269 -3.72827 -4.97879 0
M  V30 10895 C 246.079 -4.45085 -6.88694 0
M  V30 10896 O 245.689 -5.7877 -6.5624 0
M  V30 10897 C 245.199 -3.47817 -6.12078 0
M  V30 10898 C 245.909 -3.39414 -4.77697 0
M  V30 10899 N 245.859 -2.04199 -4.15538 0
M  V30 10900 H 248.698 -3.41248 -7.98759 0
M  V30 10901 H 248.97 -2.57728 -6.42 0
M  V30 10902 H 248.102 -5.02657 -6.42673 0
M  V30 10903 H 245.447 -4.11708 -4.08956 0
M  V30 10904 H 245.167 -2.49626 -6.61679 0
M  V30 10905 H 244.176 -3.8662 -6.00862 0
M  V30 10906 H 246.01 -4.29991 -7.97006 0
M  V30 10907 P 244.139 -6.144 -6.45285 0
M  V30 10908 O 243.919 -7.54673 -6.86199 0
M  V30 10909 O 243.349 -5.12391 -7.179 0
M  V30 10910 O 243.889 -5.99158 -4.88404 0
M  V30 10911 C 244.829 -6.60062 -3.96313 0
M  V30 10912 C 244.099 -7.08259 -2.72856 0
M  V30 10913 O 243.889 -5.9427 -1.83651 0
M  V30 10914 C 242.699 -7.65087 -2.94749 0
M  V30 10915 O 242.309 -8.53963 -1.90717 0
M  V30 10916 C 241.819 -6.41069 -2.90698 0
M  V30 10917 C 242.529 -5.5528 -1.86931 0
M  V30 10918 N 242.479 -4.09575 -2.15696 0
M  V30 10919 C 242.329 -3.24249 -1.08435 0
M  V30 10920 O 242.239 -3.63946 0.0628747 0
M  V30 10921 N 242.289 -1.90009 -1.39973 0
M  V30 10922 C 242.379 -1.34884 -2.65614 0
M  V30 10923 C 242.529 -2.3145 -3.71736 0
M  V30 10924 C 242.579 -3.63518 -3.44754 0
M  V30 10925 H 245.32 -7.45402 -4.45526 0
M  V30 10926 H 245.589 -5.86062 -3.67208 0
M  V30 10927 H 244.722 -7.84412 -2.24479 0
M  V30 10928 H 242.067 -5.73358 -0.888409 0
M  V30 10929 H 241.788 -5.90877 -3.88583 0
M  V30 10930 H 240.796 -6.65867 -2.58821 0
M  V30 10931 H 242.63 -8.16248 -3.92006 0
M  V30 10932 H 242.701 -4.34551 -4.26383 0
M  V30 10933 P 240.759 -8.7635 -1.60911 0
M  V30 10934 O 240.539 -10.1388 -1.11561 0
M  V30 10935 O 239.969 -8.36503 -2.79617 0
M  V30 10936 O 240.509 -7.71806 -0.42951 0
M  V30 10937 C 241.449 -7.67148 0.673689 0
M  V30 10938 C 240.719 -7.33374 1.95559 0
M  V30 10939 O 240.509 -5.88721 2.00726 0
M  V30 10940 C 239.319 -7.92526 2.10483 0
M  V30 10941 O 238.929 -8.02971 3.47653 0
M  V30 10942 C 238.439 -6.89602 1.41652 0
M  V30 10943 C 239.149 -5.59201 1.75185 0
M  V30 10944 N 239.099 -4.58235 0.662552 0
M  V30 10945 C 239.179 -4.7683 -0.704049 0
M  V30 10946 N 239.099 -3.66233 -1.39775 0
M  V30 10947 C 238.959 -2.66526 -0.431739 0
M  V30 10948 C 238.829 -1.26394 -0.575992 0
M  V30 10949 N 238.709 -0.62859 0.67177 0
M  V30 10950 C 238.709 -1.27134 1.89385 0
M  V30 10951 N 238.579 -0.492035 2.96951 0
M  V30 10952 N 238.839 -2.58978 2.02907 0
M  V30 10953 C 238.959 -3.22433 0.832218 0
M  V30 10954 H 241.938 -8.65116 0.777161 0
M  V30 10955 H 242.21 -6.90173 0.474152 0
M  V30 10956 H 241.342 -7.66548 2.79458 0
M  V30 10957 P 237.379 -8.03563 3.84925 0
M  V30 10958 O 237.159 -8.85821 5.0569 0
M  V30 10959 O 236.589 -8.41101 2.65469 0
M  V30 10960 O 237.129 -6.4965 4.18908 0
M  V30 10961 C 238.069 -5.81037 5.05421 0
M  V30 10962 C 237.339 -4.78366 5.89277 0
M  V30 10963 O 237.129 -3.58302 5.08433 0
M  V30 10964 C 235.939 -5.17448 6.36119 0
M  V30 10965 O 235.549 -4.45271 7.53232 0
M  V30 10966 C 235.059 -4.74639 5.19936 0
M  V30 10967 C 235.769 -3.49432 4.70418 0
M  V30 10968 N 235.719 -3.31776 3.22945 0
M  V30 10969 H 238.558 -6.54213 5.71376 0
M  V30 10970 H 238.83 -5.30492 4.44033 0
M  V30 10971 H 237.962 -4.55889 6.76652 0
M  V30 10972 P 233.999 -4.23843 7.83734 0
M  V30 10973 O 233.779 -4.19407 9.29784 0
M  V30 10974 O 233.209 -5.24426 7.09156 0
M  V30 10975 O 233.749 -2.79386 7.20852 0
M  V30 10976 C 234.689 -1.7299 7.50419 0
M  V30 10977 C 233.959 -0.41401 7.5797 0
M  V30 10978 O 233.749 0.089787 6.22035 0
M  V30 10979 C 232.559 -0.447224 8.1878 0
M  V30 10980 O 232.169 0.825159 8.71201 0
M  V30 10981 C 231.679 -0.783801 6.99623 0
M  V30 10982 C 232.389 -0.0619192 5.85967 0
M  V30 10983 N 232.339 -0.7859 4.56281 0
M  V30 10984 C 232.189 -0.0359258 3.39981 0
M  V30 10985 O 232.099 1.19723 3.49038 0
M  V30 10986 N 232.139 -0.869151 2.14025 0
M  V30 10987 C 232.239 -2.01207 2.14363 0
M  V30 10988 N 232.189 -2.58978 0.954287 0
M  V30 10989 C 232.389 -2.80817 3.32215 0
M  V30 10990 C 232.439 -2.13785 4.50884 0
M  V30 10991 H 235.179 -1.93401 8.46693 0
M  V30 10992 H 235.449 -1.68181 6.71046 0
M  V30 10993 H 234.582 0.289076 8.15488 0
M  V30 10994 H 231.927 0.927166 5.72947 0
M  V30 10995 H 231.647 -1.87 6.82132 0
M  V30 10996 H 230.656 -0.404009 7.13457 0
M  V30 10997 H 232.49 -1.20599 8.97534 0
M  V30 10998 H 232.562 -2.70295 5.43162 0
M  V30 10999 H 232.46 -3.89465 3.27406 0
M  V30 11000 H 232.072 -2.01616 0.107046 0
M  V30 11001 H 232.268 -3.61403 0.873101 0
M  V30 11002 P 230.619 1.17771 8.83182 0
M  V30 11003 O 230.399 2.07206 9.98732 0
M  V30 11004 O 229.829 -0.0743816 8.81969 0
M  V30 11005 O 230.369 1.97652 7.47304 0
M  V30 11006 C 231.309 3.01133 7.08783 0
M  V30 11007 C 230.579 4.12613 6.37049 0
M  V30 11008 O 230.369 3.72827 4.97879 0
M  V30 11009 C 229.179 4.45085 6.88694 0
M  V30 11010 O 228.789 5.7877 6.5624 0
M  V30 11011 C 228.299 3.47817 6.12078 0
M  V30 11012 C 229.009 3.39414 4.77697 0
M  V30 11013 N 228.959 2.04615 4.15333 0
M  V30 11014 H 231.798 3.41248 7.98759 0
M  V30 11015 H 232.07 2.5837 6.41742 0
M  V30 11016 H 231.202 5.02657 6.42673 0
M  V30 11017 P 227.239 6.144 6.45285 0
M  V30 11018 O 227.019 7.54673 6.86199 0
M  V30 11019 O 226.449 5.12391 7.179 0
M  V30 11020 O 226.989 5.99158 4.88404 0
M  V30 11021 C 227.929 6.60234 3.96415 0
M  V30 11022 C 227.199 7.08259 2.72856 0
M  V30 11023 O 226.989 5.9427 1.83651 0
M  V30 11024 C 225.799 7.64886 2.9555 0
M  V30 11025 O 225.409 8.53963 1.90717 0
M  V30 11026 C 224.919 6.4116 2.90739 0
M  V30 11027 C 225.629 5.55375 1.86963 0
M  V30 11028 N 225.579 4.09448 2.16152 0
M  V30 11029 C 225.659 3.46824 3.37593 0
M  V30 11030 N 225.589 2.17422 3.29777 0
M  V30 11031 C 225.439 1.93065 1.94427 0
M  V30 11032 C 225.309 0.738053 1.20141 0
M  V30 11033 N 225.299 -0.474256 1.74676 0
M  V30 11034 N 225.189 0.850049 -0.13045 0
M  V30 11035 C 225.199 2.06169 -0.676992 0
M  V30 11036 N 225.319 3.23842 -0.101312 0
M  V30 11037 C 225.439 3.09402 1.23122 0
M  V30 11038 H 228.418 7.45574 4.45629 0
M  V30 11039 H 228.69 5.85864 3.679 0
M  V30 11040 H 227.822 7.84412 2.24479 0
M  V30 11041 H 225.167 5.73457 0.888562 0
M  V30 11042 H 224.887 5.90877 3.88583 0
M  V30 11043 H 223.896 6.6596 2.58858 0
M  V30 11044 H 225.73 8.16339 3.92049 0
M  V30 11045 H 225.771 4.00505 4.3174 0
M  V30 11046 H 225.39 -0.581337 2.76658 0
M  V30 11047 H 225.201 -1.30811 1.14888 0
M  V30 11048 H 225.093 2.08295 -1.75542 0
M  V30 11049 P 223.859 8.7635 1.60911 0
M  V30 11050 O 223.639 10.1388 1.11561 0
M  V30 11051 O 223.069 8.36503 2.79617 0
M  V30 11052 O 223.609 7.71806 0.42951 0
M  V30 11053 C 224.549 7.67148 -0.673689 0
M  V30 11054 C 223.819 7.33374 -1.95559 0
M  V30 11055 O 223.609 5.88721 -2.00726 0
M  V30 11056 C 222.419 7.92526 -2.10483 0
M  V30 11057 O 222.029 8.02971 -3.47653 0
M  V30 11058 C 221.539 6.89602 -1.41652 0
M  V30 11059 C 222.249 5.59201 -1.75185 0
M  V30 11060 N 222.199 4.58301 -0.657969 0
M  V30 11061 C 222.279 4.79019 0.692603 0
M  V30 11062 N 222.209 3.69736 1.38998 0
M  V30 11063 C 222.059 2.70474 0.438135 0
M  V30 11064 C 221.929 1.30327 0.538142 0
M  V30 11065 N 221.919 0.64304 1.69192 0
M  V30 11066 N 221.809 0.611027 -0.605183 0
M  V30 11067 C 221.819 1.27002 -1.75953 0
M  V30 11068 N 221.939 2.56038 -1.98546 0
M  V30 11069 C 222.059 3.22681 -0.822541 0
M  V30 11070 H 225.038 8.65116 -0.777161 0
M  V30 11071 H 225.31 6.9022 -0.46725 0
M  V30 11072 H 224.442 7.66548 -2.79458 0
M  V30 11073 H 221.787 5.16165 -2.65183 0
M  V30 11074 H 221.507 7.06433 -0.329384 0
M  V30 11075 H 220.516 6.90926 -1.82021 0
M  V30 11076 H 222.35 8.90873 -1.62657 0
M  V30 11077 H 222.391 5.77785 1.13874 0
M  V30 11078 H 222.01 1.15585 2.57991 0
M  V30 11079 H 221.821 -0.382989 1.69835 0
M  V30 11080 H 221.713 0.653331 -2.64449 0
M  V30 11081 P 220.479 8.03563 -3.84925 0
M  V30 11082 O 220.259 8.85821 -5.0569 0
M  V30 11083 O 219.689 8.41101 -2.65469 0
M  V30 11084 O 220.229 6.4965 -4.18908 0
M  V30 11085 C 221.169 5.81037 -5.05421 0
M  V30 11086 C 220.439 4.78366 -5.89277 0
M  V30 11087 O 220.229 3.58302 -5.08433 0
M  V30 11088 C 219.039 5.17448 -6.36119 0
M  V30 11089 O 218.649 4.45271 -7.53232 0
M  V30 11090 C 218.159 4.74639 -5.19936 0
M  V30 11091 C 218.869 3.49432 -4.70418 0
M  V30 11092 N 218.819 3.31776 -3.22945 0
M  V30 11093 H 221.658 6.54213 -5.71376 0
M  V30 11094 H 221.93 5.30492 -4.44033 0
M  V30 11095 H 221.062 4.55889 -6.76652 0
M  V30 11096 P 217.099 4.23843 -7.83734 0
M  V30 11097 O 216.879 4.19407 -9.29784 0
M  V30 11098 O 216.309 5.24426 -7.09156 0
M  V30 11099 O 216.849 2.7935 -7.20758 0
M  V30 11100 C 217.789 1.7299 -7.50419 0
M  V30 11101 C 217.059 0.406376 -7.57911 0
M  V30 11102 O 216.849 -0.0897726 -6.21935 0
M  V30 11103 C 215.659 0.447224 -8.1878 0
M  V30 11104 O 215.269 -0.825065 -8.71101 0
M  V30 11105 C 214.779 0.783801 -6.99623 0
M  V30 11106 C 215.489 0.0619192 -5.85967 0
M  V30 11107 N 215.439 0.7859 -4.56281 0
M  V30 11108 H 218.278 1.93423 -8.4679 0
M  V30 11109 H 218.55 1.68181 -6.71046 0
M  V30 11110 H 217.682 -0.289041 -8.15388 0
M  V30 11111 P 213.719 -1.17771 -8.83182 0
M  V30 11112 O 213.499 -2.07206 -9.98732 0
M  V30 11113 O 212.929 0.0743816 -8.81969 0
M  V30 11114 O 213.469 -1.97678 -7.474 0
M  V30 11115 C 214.409 -3.01133 -7.08783 0
M  V30 11116 C 213.679 -4.1203 -6.37546 0
M  V30 11117 O 213.469 -3.72887 -4.9796 0
M  V30 11118 C 212.279 -4.45085 -6.88694 0
M  V30 11119 O 211.889 -5.78836 -6.56315 0
M  V30 11120 C 211.399 -3.47817 -6.12078 0
M  V30 11121 C 212.109 -3.39414 -4.77697 0
M  V30 11122 N 212.059 -2.04615 -4.15333 0
M  V30 11123 C 211.909 -1.96929 -2.77162 0
M  V30 11124 O 211.819 -3.02017 -2.12006 0
M  V30 11125 N 211.859 -0.55485 -2.24237 0
M  V30 11126 C 211.959 0.367808 -2.9169 0
M  V30 11127 N 211.909 1.53426 -2.29427 0
M  V30 11128 C 212.109 0.319148 -4.33828 0
M  V30 11129 C 212.159 -0.920672 -4.90433 0
M  V30 11130 H 214.899 -3.41209 -7.98667 0
M  V30 11131 H 215.169 -2.5837 -6.41742 0
M  V30 11132 H 214.302 -5.02718 -6.42752 0
M  V30 11133 H 211.647 -4.11779 -4.09026 0
M  V30 11134 H 211.367 -2.49661 -6.61772 0
M  V30 11135 H 210.376 -3.86674 -6.00946 0
M  V30 11136 H 212.21 -4.29991 -7.97006 0
M  V30 11137 H 212.282 -1.00589 -5.98303 0
M  V30 11138 H 212.18 1.22639 -4.93799 0
M  V30 11139 H 211.792 1.56819 -1.27167 0
M  V30 11140 H 211.988 2.41062 -2.83063 0
M  V30 11141 P 210.339 -6.144 -6.45285 0
M  V30 11142 O 210.119 -7.54673 -6.86199 0
M  V30 11143 O 209.549 -5.12391 -7.179 0
M  V30 11144 O 210.089 -5.99158 -4.88404 0
M  V30 11145 C 211.029 -6.60234 -3.96415 0
M  V30 11146 C 210.299 -7.08259 -2.72856 0
M  V30 11147 O 210.089 -5.9427 -1.83651 0
M  V30 11148 C 208.899 -7.64886 -2.9555 0
M  V30 11149 O 208.509 -8.53963 -1.90717 0
M  V30 11150 C 208.019 -6.4116 -2.90739 0
M  V30 11151 C 208.729 -5.55375 -1.86963 0
M  V30 11152 N 208.679 -4.09664 -2.15742 0
M  V30 11153 H 211.518 -7.45574 -4.45629 0
M  V30 11154 H 211.79 -5.86232 -3.67314 0
M  V30 11155 H 210.922 -7.84412 -2.24479 0
M  V30 11156 P 206.959 -8.7635 -1.60911 0
M  V30 11157 O 206.739 -10.1388 -1.11561 0
M  V30 11158 O 206.169 -8.36503 -2.79617 0
M  V30 11159 O 206.709 -7.71806 -0.42951 0
M  V30 11160 C 207.649 -7.67148 0.673689 0
M  V30 11161 C 206.919 -7.33374 1.95559 0
M  V30 11162 O 206.709 -5.88721 2.00726 0
M  V30 11163 C 205.519 -7.92526 2.10483 0
M  V30 11164 O 205.129 -8.02971 3.47653 0
M  V30 11165 C 204.639 -6.89602 1.41652 0
M  V30 11166 C 205.349 -5.59201 1.75185 0
M  V30 11167 N 205.299 -4.58235 0.662552 0
M  V30 11168 C 205.379 -4.7683 -0.704049 0
M  V30 11169 N 205.299 -3.66233 -1.39775 0
M  V30 11170 C 205.159 -2.66526 -0.431739 0
M  V30 11171 C 205.029 -1.26394 -0.575992 0
M  V30 11172 O 205.009 -0.589894 -1.60503 0
M  V30 11173 N 204.909 -0.62859 0.67177 0
M  V30 11174 C 204.909 -1.27134 1.89385 0
M  V30 11175 N 204.779 -0.492035 2.96951 0
M  V30 11176 N 205.039 -2.58978 2.02907 0
M  V30 11177 C 205.159 -3.22433 0.832218 0
M  V30 11178 H 208.138 -8.65116 0.777161 0
M  V30 11179 H 208.41 -6.90173 0.474152 0
M  V30 11180 H 207.542 -7.66548 2.79458 0
M  V30 11181 H 204.887 -5.16254 2.65229 0
M  V30 11182 H 204.607 -7.06532 0.329431 0
M  V30 11183 H 203.616 -6.91023 1.82047 0
M  V30 11184 H 205.45 -8.90971 1.62675 0
M  V30 11185 H 205.499 -5.74954 -1.16305 0
M  V30 11186 H 204.817 0.366713 0.674793 0
M  V30 11187 H 204.78 -0.908532 3.91188 0
M  V30 11188 H 204.679 0.528253 2.85758 0
M  V30 11189 P 203.579 -8.03563 3.84925 0
M  V30 11190 O 203.359 -8.85821 5.0569 0
M  V30 11191 O 202.789 -8.41101 2.65469 0
M  V30 11192 O 203.329 -6.4965 4.18908 0
M  V30 11193 C 204.269 -5.80886 5.05289 0
M  V30 11194 C 203.539 -4.78366 5.89277 0
M  V30 11195 O 203.329 -3.58302 5.08433 0
M  V30 11196 C 202.139 -5.16748 6.36559 0
M  V30 11197 O 201.749 -4.45271 7.53232 0
M  V30 11198 C 201.259 -4.74572 5.19863 0
M  V30 11199 C 201.969 -3.49373 4.70338 0
M  V30 11200 N 201.919 -3.31704 3.22876 0
M  V30 11201 C 201.769 -2.03326 2.74871 0
M  V30 11202 O 201.679 -1.06486 3.48076 0
M  V30 11203 N 201.729 -1.91838 1.37456 0
M  V30 11204 C 201.819 -2.94295 0.462035 0
M  V30 11205 C 201.969 -4.25064 1.05249 0
M  V30 11206 C 202.019 -4.40214 2.39192 0
M  V30 11207 H 204.76 -6.54063 5.71245 0
M  V30 11208 H 205.029 -5.30339 4.43905 0
M  V30 11209 H 204.162 -4.55889 6.76652 0
M  V30 11210 H 201.507 -2.6167 5.17842 0
M  V30 11211 H 201.228 -5.52155 4.41878 0
M  V30 11212 H 200.236 -4.51918 5.53297 0
M  V30 11213 H 202.07 -6.25055 6.55162 0
M  V30 11214 H 202.141 -5.39798 2.81523 0
M  V30 11215 P 200.199 -4.23843 7.83734 0
M  V30 11216 O 199.979 -4.19407 9.29784 0
M  V30 11217 O 199.409 -5.24426 7.09156 0
M  V30 11218 O 199.949 -2.7935 7.20758 0
M  V30 11219 C 200.889 -1.7299 7.50419 0
M  V30 11220 C 200.159 -0.406376 7.57911 0
M  V30 11221 O 199.949 0.0897726 6.21935 0
M  V30 11222 C 198.759 -0.447224 8.1878 0
M  V30 11223 O 198.369 0.825065 8.71101 0
M  V30 11224 C 197.879 -0.783801 6.99623 0
M  V30 11225 C 198.589 -0.0619192 5.85967 0
M  V30 11226 N 198.539 -0.7859 4.56281 0
M  V30 11227 H 201.378 -1.93423 8.4679 0
M  V30 11228 H 201.65 -1.68181 6.71046 0
M  V30 11229 H 200.782 0.289041 8.15388 0
M  V30 11230 P 196.819 1.17771 8.83182 0
M  V30 11231 O 196.599 2.07206 9.98732 0
M  V30 11232 O 196.029 -0.0743816 8.81969 0
M  V30 11233 O 196.569 1.97652 7.47304 0
M  V30 11234 C 197.509 3.01055 7.08599 0
M  V30 11235 C 196.779 4.12613 6.37049 0
M  V30 11236 O 196.569 3.72827 4.97879 0
M  V30 11237 C 195.379 4.45719 6.88164 0
M  V30 11238 O 194.989 5.7877 6.5624 0
M  V30 11239 C 194.499 3.47768 6.11991 0
M  V30 11240 C 195.209 3.39356 4.77615 0
M  V30 11241 N 195.159 2.04571 4.15244 0
M  V30 11242 C 195.009 1.98587 2.78314 0
M  V30 11243 O 194.919 2.98134 2.08835 0
M  V30 11244 N 194.969 0.714467 2.24925 0
M  V30 11245 C 195.059 -0.470001 2.94169 0
M  V30 11246 C 195.209 -0.312541 4.36783 0
M  V30 11247 C 195.259 0.914512 4.92583 0
M  V30 11248 H 198 3.41169 7.98575 0
M  V30 11249 H 198.269 2.58295 6.41556 0
M  V30 11250 H 197.402 5.02657 6.42673 0
M  V30 11251 H 194.747 4.11637 4.08885 0
M  V30 11252 H 194.468 2.49626 6.61679 0
M  V30 11253 H 193.476 3.86566 6.00778 0
M  V30 11254 H 195.31 4.29943 7.96918 0
M  V30 11255 H 195.381 1.00937 6.00374 0
M  V30 11256 P 193.439 6.144 6.45285 0
M  V30 11257 O 193.219 7.54673 6.86199 0
M  V30 11258 O 192.649 5.12391 7.179 0
M  V30 11259 O 193.189 5.99158 4.88404 0
M  V30 11260 C 194.129 6.60234 3.96415 0
M  V30 11261 C 193.399 7.08259 2.72856 0
M  V30 11262 O 193.189 5.9427 1.83651 0
M  V30 11263 C 191.999 7.64886 2.9555 0
M  V30 11264 O 191.609 8.53963 1.90717 0
M  V30 11265 C 191.119 6.4116 2.90739 0
M  V30 11266 C 191.829 5.55375 1.86963 0
M  V30 11267 N 191.779 4.09664 2.15742 0
M  V30 11268 H 194.618 7.45574 4.45629 0
M  V30 11269 H 194.89 5.86232 3.67314 0
M  V30 11270 H 194.022 7.84412 2.24479 0
M  V30 11271 P 190.059 8.7635 1.60911 0
M  V30 11272 O 189.839 10.1388 1.11561 0
M  V30 11273 O 189.269 8.36503 2.79617 0
M  V30 11274 O 189.809 7.71806 0.42951 0
M  V30 11275 C 190.749 7.67148 -0.673689 0
M  V30 11276 C 190.019 7.33374 -1.95559 0
M  V30 11277 O 189.809 5.88721 -2.00726 0
M  V30 11278 C 188.619 7.92526 -2.10483 0
M  V30 11279 O 188.229 8.02971 -3.47653 0
M  V30 11280 C 187.739 6.89602 -1.41652 0
M  V30 11281 C 188.449 5.59201 -1.75185 0
M  V30 11282 N 188.399 4.58235 -0.662552 0
M  V30 11283 C 188.479 4.7683 0.704049 0
M  V30 11284 N 188.399 3.66233 1.39775 0
M  V30 11285 C 188.259 2.66526 0.431739 0
M  V30 11286 C 188.129 1.26394 0.575992 0
M  V30 11287 O 188.109 0.589894 1.60503 0
M  V30 11288 N 188.009 0.62859 -0.67177 0
M  V30 11289 C 188.009 1.27134 -1.89385 0
M  V30 11290 N 187.879 0.492035 -2.96951 0
M  V30 11291 N 188.139 2.58978 -2.02907 0
M  V30 11292 C 188.259 3.22433 -0.832218 0
M  V30 11293 H 191.238 8.65116 -0.777161 0
M  V30 11294 H 191.51 6.90173 -0.474152 0
M  V30 11295 H 190.642 7.66548 -2.79458 0
M  V30 11296 H 187.987 5.16254 -2.65229 0
M  V30 11297 H 187.707 7.06532 -0.329431 0
M  V30 11298 H 186.716 6.91023 -1.82047 0
M  V30 11299 H 188.55 8.90971 -1.62675 0
M  V30 11300 H 188.599 5.74954 1.16305 0
M  V30 11301 H 187.917 -0.366713 -0.674793 0
M  V30 11302 H 187.88 0.908532 -3.91188 0
M  V30 11303 H 187.779 -0.528253 -2.85758 0
M  V30 11304 P 186.679 8.03563 -3.84925 0
M  V30 11305 O 186.459 8.85821 -5.0569 0
M  V30 11306 O 185.889 8.41101 -2.65469 0
M  V30 11307 O 186.429 6.4965 -4.18908 0
M  V30 11308 C 187.369 5.81037 -5.05421 0
M  V30 11309 C 186.639 4.78366 -5.89277 0
M  V30 11310 O 186.429 3.58302 -5.08433 0
M  V30 11311 C 185.239 5.17448 -6.36119 0
M  V30 11312 O 184.849 4.45271 -7.53232 0
M  V30 11313 C 184.359 4.74639 -5.19936 0
M  V30 11314 C 185.069 3.49432 -4.70418 0
M  V30 11315 N 185.019 3.31776 -3.22945 0
M  V30 11316 H 187.858 6.54213 -5.71376 0
M  V30 11317 H 188.13 5.30492 -4.44033 0
M  V30 11318 H 187.262 4.55889 -6.76652 0
M  V30 11319 P 183.299 4.23843 -7.83734 0
M  V30 11320 O 183.079 4.19407 -9.29784 0
M  V30 11321 O 182.509 5.24426 -7.09156 0
M  V30 11322 O 183.049 2.7935 -7.20758 0
M  V30 11323 C 183.989 1.72945 -7.50224 0
M  V30 11324 C 183.259 0.406376 -7.57911 0
M  V30 11325 O 183.049 -0.0897726 -6.21935 0
M  V30 11326 C 181.859 0.438983 -8.18724 0
M  V30 11327 O 181.469 -0.825065 -8.71101 0
M  V30 11328 C 180.979 0.783689 -6.99524 0
M  V30 11329 C 181.689 0.0619086 -5.85867 0
M  V30 11330 N 181.639 0.78573 -4.56183 0
M  V30 11331 C 181.489 0.0292889 -3.41887 0
M  V30 11332 O 181.399 -1.18445 -3.4419 0
M  V30 11333 N 181.449 0.744061 -2.23964 0
M  V30 11334 C 181.539 2.10932 -2.10362 0
M  V30 11335 O 181.489 2.64117 -0.98825 0
M  V30 11336 C 181.689 2.8202 -3.34994 0
M  V30 11337 C 181.799 4.31095 -3.25037 0
M  V30 11338 C 181.739 2.15547 -4.52261 0
M  V30 11339 H 184.48 1.93379 -8.46595 0
M  V30 11340 H 184.749 1.68132 -6.70852 0
M  V30 11341 H 183.882 -0.289041 -8.15388 0
M  V30 11342 H 181.227 -0.926847 -5.72749 0
M  V30 11343 H 180.948 1.86973 -6.82036 0
M  V30 11344 H 179.956 0.403896 -7.13257 0
M  V30 11345 H 181.79 1.20585 -8.97435 0
M  V30 11346 H 181.861 2.71231 -5.45042 0
M  V30 11347 H 180.831 4.76966 -3.49992 0
M  V30 11348 H 182.568 4.67047 -3.95024 0
M  V30 11349 H 182.08 4.58996 -2.22312 0
M  V30 11350 H 181.344 0.214893 -1.39758 0
M  V30 11351 P 179.919 -1.17771 -8.83182 0
M  V30 11352 O 179.699 -2.07206 -9.98732 0
M  V30 11353 O 179.129 0.0743816 -8.81969 0
M  V30 11354 O 179.669 -1.97652 -7.47304 0
M  V30 11355 C 180.609 -3.01133 -7.08783 0
M  V30 11356 C 179.879 -4.12613 -6.37049 0
M  V30 11357 O 179.669 -3.72827 -4.97879 0
M  V30 11358 C 178.479 -4.45085 -6.88694 0
M  V30 11359 O 178.089 -5.7877 -6.5624 0
M  V30 11360 C 177.599 -3.47817 -6.12078 0
M  V30 11361 C 178.309 -3.39414 -4.77697 0
M  V30 11362 N 178.259 -2.04615 -4.15333 0
M  V30 11363 H 181.098 -3.41248 -7.98759 0
M  V30 11364 H 181.37 -2.5837 -6.41742 0
M  V30 11365 H 180.502 -5.02657 -6.42673 0
M  V30 11366 P 176.539 -6.144 -6.45285 0
M  V30 11367 O 176.319 -7.54673 -6.86199 0
M  V30 11368 O 175.749 -5.12391 -7.179 0
M  V30 11369 O 176.289 -5.99158 -4.88404 0
M  V30 11370 C 177.229 -6.60062 -3.96313 0
M  V30 11371 C 176.499 -7.08259 -2.72856 0
M  V30 11372 O 176.289 -5.9427 -1.83651 0
M  V30 11373 C 175.099 -7.65087 -2.94749 0
M  V30 11374 O 174.709 -8.53963 -1.90717 0
M  V30 11375 C 174.219 -6.41069 -2.90698 0
M  V30 11376 C 174.929 -5.5528 -1.86931 0
M  V30 11377 N 174.879 -4.09575 -2.15696 0
M  V30 11378 C 174.729 -3.24249 -1.08435 0
M  V30 11379 O 174.639 -3.63946 0.0628747 0
M  V30 11380 N 174.689 -1.90009 -1.39973 0
M  V30 11381 C 174.779 -1.34884 -2.65614 0
M  V30 11382 O 174.729 -0.123716 -2.81728 0
M  V30 11383 C 174.929 -2.3145 -3.71736 0
M  V30 11384 C 175.039 -1.75913 -5.10438 0
M  V30 11385 C 174.979 -3.63518 -3.44754 0
M  V30 11386 H 177.72 -7.45402 -4.45526 0
M  V30 11387 H 177.989 -5.86062 -3.67208 0
M  V30 11388 H 177.122 -7.84412 -2.24479 0
M  V30 11389 H 174.467 -5.73358 -0.888409 0
M  V30 11390 H 174.188 -5.90877 -3.88583 0
M  V30 11391 H 173.196 -6.65867 -2.58821 0
M  V30 11392 H 175.03 -8.16248 -3.92006 0
M  V30 11393 H 175.101 -4.34551 -4.26383 0
M  V30 11394 H 174.071 -1.85471 -5.61775 0
M  V30 11395 H 175.808 -2.31364 -5.66257 0
M  V30 11396 H 175.32 -0.695936 -5.05229 0
M  V30 11397 H 174.584 -1.26277 -0.63625 0
M  V30 11398 P 173.159 -8.7635 -1.60911 0
M  V30 11399 O 172.939 -10.1388 -1.11561 0
M  V30 11400 O 172.369 -8.36503 -2.79617 0
M  V30 11401 O 172.909 -7.71806 -0.42951 0
M  V30 11402 C 173.849 -7.66948 0.673514 0
M  V30 11403 C 173.119 -7.33374 1.95559 0
M  V30 11404 O 172.909 -5.88721 2.00726 0
M  V30 11405 C 171.719 -7.92218 2.1125 0
M  V30 11406 O 171.329 -8.02971 3.47653 0
M  V30 11407 C 170.839 -6.89504 1.41631 0
M  V30 11408 C 171.549 -5.59106 1.75155 0
M  V30 11409 N 171.499 -4.58136 0.662409 0
M  V30 11410 C 171.349 -3.26059 1.02863 0
M  V30 11411 O 171.259 -2.90743 2.19009 0
M  V30 11412 N 171.309 -2.35995 -0.0155585 0
M  V30 11413 C 171.399 -2.65248 -1.35603 0
M  V30 11414 O 171.349 -1.75605 -2.20651 0
M  V30 11415 C 171.549 -4.05747 -1.64698 0
M  V30 11416 C 171.659 -4.42345 -3.09553 0
M  V30 11417 C 171.599 -4.96734 -0.652411 0
M  V30 11418 H 174.34 -8.64917 0.776982 0
M  V30 11419 H 174.609 -6.89974 0.474015 0
M  V30 11420 H 173.742 -7.66548 2.79458 0
M  V30 11421 H 171.087 -5.16076 2.65138 0
M  V30 11422 H 170.808 -7.06433 0.329384 0
M  V30 11423 H 169.816 -6.90829 1.81996 0
M  V30 11424 H 171.65 -8.90774 1.62639 0
M  V30 11425 H 171.721 -6.02181 -0.895285 0
M  V30 11426 H 170.691 -4.80252 -3.45468 0
M  V30 11427 H 172.428 -5.20015 -3.22119 0
M  V30 11428 H 171.94 -3.53269 -3.67833 0
M  V30 11429 H 171.204 -1.39558 0.227499 0
M  V30 11430 P 169.779 -8.03563 3.84925 0
M  V30 11431 O 169.559 -8.85821 5.0569 0
M  V30 11432 O 168.989 -8.41101 2.65469 0
M  V30 11433 O 169.529 -6.4965 4.18908 0
M  V30 11434 C 170.469 -5.81037 5.05421 0
M  V30 11435 C 169.739 -4.78366 5.89277 0
M  V30 11436 O 169.529 -3.58302 5.08433 0
M  V30 11437 C 168.339 -5.17448 6.36119 0
M  V30 11438 O 167.949 -4.45271 7.53232 0
M  V30 11439 C 167.459 -4.74639 5.19936 0
M  V30 11440 C 168.169 -3.49432 4.70418 0
M  V30 11441 N 168.119 -3.32099 3.22613 0
M  V30 11442 H 170.958 -6.54213 5.71376 0
M  V30 11443 H 171.23 -5.30936 4.43503 0
M  V30 11444 H 170.362 -4.55889 6.76652 0
M  V30 11445 H 167.707 -2.61715 5.17932 0
M  V30 11446 H 167.427 -5.52155 4.41878 0
M  V30 11447 H 166.436 -4.51981 5.53374 0
M  V30 11448 H 168.27 -6.25124 6.55234 0
M  V30 11449 P 166.399 -4.23843 7.83734 0
M  V30 11450 O 166.179 -4.19407 9.29784 0
M  V30 11451 O 165.609 -5.24426 7.09156 0
M  V30 11452 O 166.149 -2.7935 7.20758 0
M  V30 11453 C 167.089 -1.7299 7.50419 0
M  V30 11454 C 166.359 -0.406376 7.57911 0
M  V30 11455 O 166.149 0.0897726 6.21935 0
M  V30 11456 C 164.959 -0.447224 8.1878 0
M  V30 11457 O 164.569 0.825065 8.71101 0
M  V30 11458 C 164.079 -0.783801 6.99623 0
M  V30 11459 C 164.789 -0.0619192 5.85967 0
M  V30 11460 N 164.739 -0.790462 4.56202 0
M  V30 11461 H 167.578 -1.93423 8.4679 0
M  V30 11462 H 167.85 -1.68852 6.70877 0
M  V30 11463 H 166.982 0.289041 8.15388 0
M  V30 11464 H 164.327 0.927006 5.72848 0
M  V30 11465 H 164.047 -1.86973 6.82036 0
M  V30 11466 H 163.056 -0.403953 7.13357 0
M  V30 11467 H 164.89 -1.20599 8.97534 0
M  V30 11468 P 163.019 1.17771 8.83182 0
M  V30 11469 O 162.799 2.07206 9.98732 0
M  V30 11470 O 162.229 -0.0743816 8.81969 0
M  V30 11471 O 162.769 1.97652 7.47304 0
M  V30 11472 C 163.709 3.01133 7.08783 0
M  V30 11473 C 162.979 4.12613 6.37049 0
M  V30 11474 O 162.769 3.72827 4.97879 0
M  V30 11475 C 161.579 4.45085 6.88694 0
M  V30 11476 O 161.189 5.7877 6.5624 0
M  V30 11477 C 160.699 3.47817 6.12078 0
M  V30 11478 C 161.409 3.39414 4.77697 0
M  V30 11479 N 161.359 2.04199 4.15538 0
M  V30 11480 H 164.198 3.41248 7.98759 0
M  V30 11481 H 164.47 2.57728 6.42 0
M  V30 11482 H 163.602 5.02657 6.42673 0
M  V30 11483 H 160.947 4.11708 4.08956 0
M  V30 11484 H 160.667 2.49626 6.61679 0
M  V30 11485 H 159.676 3.8662 6.00862 0
M  V30 11486 H 161.51 4.29991 7.97006 0
M  V30 11487 P 159.639 6.144 6.45285 0
M  V30 11488 O 159.419 7.54673 6.86199 0
M  V30 11489 O 158.849 5.12391 7.179 0
M  V30 11490 O 159.389 5.99158 4.88404 0
M  V30 11491 C 160.329 6.60234 3.96415 0
M  V30 11492 C 159.599 7.08259 2.72856 0
M  V30 11493 O 159.389 5.9427 1.83651 0
M  V30 11494 C 158.199 7.64886 2.9555 0
M  V30 11495 O 157.809 8.53963 1.90717 0
M  V30 11496 C 157.319 6.4116 2.90739 0
M  V30 11497 C 158.029 5.55375 1.86963 0
M  V30 11498 N 157.979 4.09448 2.16152 0
M  V30 11499 H 160.818 7.45574 4.45629 0
M  V30 11500 H 161.09 5.85864 3.679 0
M  V30 11501 H 160.222 7.84412 2.24479 0
M  V30 11502 H 157.567 5.73457 0.888562 0
M  V30 11503 H 157.287 5.90877 3.88583 0
M  V30 11504 H 156.296 6.6596 2.58858 0
M  V30 11505 H 158.13 8.16339 3.92049 0
M  V30 11506 P 156.259 8.7635 1.60911 0
M  V30 11507 O 156.039 10.1388 1.11561 0
M  V30 11508 O 155.469 8.36503 2.79617 0
M  V30 11509 O 156.009 7.71806 0.42951 0
M  V30 11510 C 156.949 7.67148 -0.673689 0
M  V30 11511 C 156.219 7.33374 -1.95559 0
M  V30 11512 O 156.009 5.88721 -2.00726 0
M  V30 11513 C 154.819 7.92526 -2.10483 0
M  V30 11514 O 154.429 8.02971 -3.47653 0
M  V30 11515 C 153.939 6.89602 -1.41652 0
M  V30 11516 C 154.649 5.59201 -1.75185 0
M  V30 11517 N 154.599 4.58235 -0.662552 0
M  V30 11518 H 157.438 8.65116 -0.777161 0
M  V30 11519 H 157.71 6.90173 -0.474152 0
M  V30 11520 H 156.842 7.66548 -2.79458 0
M  V30 11521 P 152.879 8.03563 -3.84925 0
M  V30 11522 O 152.659 8.85821 -5.0569 0
M  V30 11523 O 152.089 8.41101 -2.65469 0
M  V30 11524 O 152.629 6.4965 -4.18908 0
M  V30 11525 C 153.569 5.81037 -5.05421 0
M  V30 11526 C 152.839 4.78366 -5.89277 0
M  V30 11527 O 152.629 3.58302 -5.08433 0
M  V30 11528 C 151.439 5.17448 -6.36119 0
M  V30 11529 O 151.049 4.45271 -7.53232 0
M  V30 11530 C 150.559 4.74639 -5.19936 0
M  V30 11531 C 151.269 3.49432 -4.70418 0
M  V30 11532 N 151.219 3.31776 -3.22945 0
M  V30 11533 H 154.058 6.54213 -5.71376 0
M  V30 11534 H 154.33 5.30492 -4.44033 0
M  V30 11535 H 153.462 4.55889 -6.76652 0
M  V30 11536 P 149.499 4.23843 -7.83734 0
M  V30 11537 O 149.279 4.19407 -9.29784 0
M  V30 11538 O 148.709 5.24426 -7.09156 0
M  V30 11539 O 149.249 2.7935 -7.20758 0
M  V30 11540 C 150.189 1.7299 -7.50419 0
M  V30 11541 C 149.459 0.406376 -7.57911 0
M  V30 11542 O 149.249 -0.0897726 -6.21935 0
M  V30 11543 C 148.059 0.447224 -8.1878 0
M  V30 11544 O 147.669 -0.825065 -8.71101 0
M  V30 11545 C 147.179 0.783801 -6.99623 0
M  V30 11546 C 147.889 0.0619192 -5.85967 0
M  V30 11547 N 147.839 0.7859 -4.56281 0
M  V30 11548 H 150.678 1.93423 -8.4679 0
M  V30 11549 H 150.95 1.68181 -6.71046 0
M  V30 11550 H 150.082 -0.289041 -8.15388 0
M  V30 11551 P 146.119 -1.17771 -8.83182 0
M  V30 11552 O 145.899 -2.07206 -9.98732 0
M  V30 11553 O 145.329 0.0743816 -8.81969 0
M  V30 11554 O 145.869 -1.97652 -7.47304 0
M  V30 11555 C 146.809 -3.01133 -7.08783 0
M  V30 11556 C 146.079 -4.12613 -6.37049 0
M  V30 11557 O 145.869 -3.72827 -4.97879 0
M  V30 11558 C 144.679 -4.45085 -6.88694 0
M  V30 11559 O 144.289 -5.7877 -6.5624 0
M  V30 11560 C 143.799 -3.47817 -6.12078 0
M  V30 11561 C 144.509 -3.39414 -4.77697 0
M  V30 11562 N 144.459 -2.04615 -4.15333 0
M  V30 11563 H 147.298 -3.41248 -7.98759 0
M  V30 11564 H 147.57 -2.5837 -6.41742 0
M  V30 11565 H 146.702 -5.02657 -6.42673 0
M  V30 11566 P 142.739 -6.144 -6.45285 0
M  V30 11567 O 142.519 -7.54673 -6.86199 0
M  V30 11568 O 141.949 -5.12391 -7.179 0
M  V30 11569 O 142.489 -5.99158 -4.88404 0
M  V30 11570 C 143.429 -6.60062 -3.96313 0
M  V30 11571 C 142.699 -7.08259 -2.72856 0
M  V30 11572 O 142.489 -5.9427 -1.83651 0
M  V30 11573 C 141.299 -7.65087 -2.94749 0
M  V30 11574 O 140.909 -8.53963 -1.90717 0
M  V30 11575 C 140.419 -6.41069 -2.90698 0
M  V30 11576 C 141.129 -5.5528 -1.86931 0
M  V30 11577 N 141.079 -4.09575 -2.15696 0
M  V30 11578 C 140.929 -3.24249 -1.08435 0
M  V30 11579 O 140.839 -3.63946 0.0628747 0
M  V30 11580 N 140.889 -1.90009 -1.39973 0
M  V30 11581 C 140.979 -1.34884 -2.65614 0
M  V30 11582 O 140.929 -0.123716 -2.81728 0
M  V30 11583 C 141.129 -2.3145 -3.71736 0
M  V30 11584 C 141.239 -1.75913 -5.10438 0
M  V30 11585 C 141.179 -3.63518 -3.44754 0
M  V30 11586 H 143.92 -7.45402 -4.45526 0
M  V30 11587 H 144.189 -5.86062 -3.67208 0
M  V30 11588 H 143.322 -7.84412 -2.24479 0
M  V30 11589 H 140.667 -5.73358 -0.888409 0
M  V30 11590 H 140.388 -5.90877 -3.88583 0
M  V30 11591 H 139.396 -6.65867 -2.58821 0
M  V30 11592 H 141.23 -8.16248 -3.92006 0
M  V30 11593 H 141.301 -4.34551 -4.26383 0
M  V30 11594 H 140.271 -1.85471 -5.61775 0
M  V30 11595 H 142.008 -2.31364 -5.66257 0
M  V30 11596 H 141.52 -0.695936 -5.05229 0
M  V30 11597 H 140.784 -1.26277 -0.63625 0
M  V30 11598 P 139.359 -8.7635 -1.60911 0
M  V30 11599 O 139.139 -10.1388 -1.11561 0
M  V30 11600 O 138.569 -8.36503 -2.79617 0
M  V30 11601 O 139.109 -7.71806 -0.42951 0
M  V30 11602 C 140.049 -7.67148 0.673689 0
M  V30 11603 C 139.319 -7.33374 1.95559 0
M  V30 11604 O 139.109 -5.88721 2.00726 0
M  V30 11605 C 137.919 -7.92526 2.10483 0
M  V30 11606 O 137.529 -8.02971 3.47653 0
M  V30 11607 C 137.039 -6.89602 1.41652 0
M  V30 11608 C 137.749 -5.59201 1.75185 0
M  V30 11609 N 137.699 -4.58235 0.662552 0
M  V30 11610 H 140.538 -8.65116 0.777161 0
M  V30 11611 H 140.81 -6.90173 0.474152 0
M  V30 11612 H 139.942 -7.66548 2.79458 0
M  V30 11613 P 135.979 -8.03563 3.84925 0
M  V30 11614 O 135.759 -8.85821 5.0569 0
M  V30 11615 O 135.189 -8.41101 2.65469 0
M  V30 11616 O 135.729 -6.4965 4.18908 0
M  V30 11617 C 136.669 -5.80886 5.05289 0
M  V30 11618 C 135.939 -4.78366 5.89277 0
M  V30 11619 O 135.729 -3.58302 5.08433 0
M  V30 11620 C 134.539 -5.16748 6.36559 0
M  V30 11621 O 134.149 -4.45271 7.53232 0
M  V30 11622 C 133.659 -4.74572 5.19863 0
M  V30 11623 C 134.369 -3.49373 4.70338 0
M  V30 11624 N 134.319 -3.31704 3.22876 0
M  V30 11625 C 134.169 -2.03326 2.74871 0
M  V30 11626 O 134.079 -1.06486 3.48076 0
M  V30 11627 N 134.129 -1.91838 1.37456 0
M  V30 11628 C 134.219 -2.94295 0.462035 0
M  V30 11629 O 134.169 -2.71763 -0.752928 0
M  V30 11630 C 134.369 -4.25064 1.05249 0
M  V30 11631 C 134.479 -5.39815 0.095697 0
M  V30 11632 C 134.419 -4.40214 2.39192 0
M  V30 11633 H 137.16 -6.54063 5.71245 0
M  V30 11634 H 137.429 -5.30339 4.43905 0
M  V30 11635 H 136.562 -4.55889 6.76652 0
M  V30 11636 H 133.907 -2.6167 5.17842 0
M  V30 11637 H 133.628 -5.52155 4.41878 0
M  V30 11638 H 132.636 -4.51918 5.53297 0
M  V30 11639 H 134.47 -6.25055 6.55162 0
M  V30 11640 H 134.541 -5.39798 2.81523 0
M  V30 11641 H 133.511 -5.91593 0.0279582 0
M  V30 11642 H 135.248 -6.10038 0.450573 0
M  V30 11643 H 134.76 -5.02007 -0.89937 0
M  V30 11644 H 134.024 -0.995326 1.00435 0
M  V30 11645 P 132.599 -4.23843 7.83734 0
M  V30 11646 O 132.379 -4.19407 9.29784 0
M  V30 11647 O 131.809 -5.24426 7.09156 0
M  V30 11648 O 132.349 -2.7935 7.20758 0
M  V30 11649 C 133.289 -1.7299 7.50419 0
M  V30 11650 C 132.559 -0.406376 7.57911 0
M  V30 11651 O 132.349 0.0897726 6.21935 0
M  V30 11652 C 131.159 -0.447224 8.1878 0
M  V30 11653 O 130.769 0.825065 8.71101 0
M  V30 11654 C 130.279 -0.783801 6.99623 0
M  V30 11655 C 130.989 -0.0619192 5.85967 0
M  V30 11656 N 130.939 -0.7859 4.56281 0
M  V30 11657 H 133.778 -1.93423 8.4679 0
M  V30 11658 H 134.05 -1.68181 6.71046 0
M  V30 11659 H 133.182 0.289041 8.15388 0
M  V30 11660 P 129.219 1.17771 8.83182 0
M  V30 11661 O 128.999 2.07206 9.98732 0
M  V30 11662 O 128.429 -0.0743816 8.81969 0
M  V30 11663 O 128.969 1.97652 7.47304 0
M  V30 11664 C 129.909 3.01055 7.08599 0
M  V30 11665 C 129.179 4.12613 6.37049 0
M  V30 11666 O 128.969 3.72827 4.97879 0
M  V30 11667 C 127.779 4.45719 6.88164 0
M  V30 11668 O 127.389 5.7877 6.5624 0
M  V30 11669 C 126.899 3.47768 6.11991 0
M  V30 11670 C 127.609 3.39356 4.77615 0
M  V30 11671 N 127.559 2.04571 4.15244 0
M  V30 11672 C 127.409 1.98587 2.78314 0
M  V30 11673 O 127.319 2.98134 2.08835 0
M  V30 11674 N 127.369 0.714467 2.24925 0
M  V30 11675 C 127.459 -0.470001 2.94169 0
M  V30 11676 O 127.409 -1.55587 2.35195 0
M  V30 11677 C 127.609 -0.312541 4.36783 0
M  V30 11678 C 127.719 -1.57711 5.16352 0
M  V30 11679 C 127.659 0.914512 4.92583 0
M  V30 11680 H 130.4 3.41169 7.98575 0
M  V30 11681 H 130.669 2.58295 6.41556 0
M  V30 11682 H 129.802 5.02657 6.42673 0
M  V30 11683 H 127.147 4.11637 4.08885 0
M  V30 11684 H 126.868 2.49626 6.61679 0
M  V30 11685 H 125.876 3.86566 6.00778 0
M  V30 11686 H 127.71 4.29943 7.96918 0
M  V30 11687 H 127.781 1.00937 6.00374 0
M  V30 11688 H 126.751 -1.80153 5.63503 0
M  V30 11689 H 128.488 -1.4566 5.94104 0
M  V30 11690 H 128 -2.40664 4.49645 0
M  V30 11691 H 127.264 0.647622 1.25697 0
M  V30 11692 P 125.839 6.144 6.45285 0
M  V30 11693 O 125.619 7.54673 6.86199 0
M  V30 11694 O 125.049 5.12391 7.179 0
M  V30 11695 O 125.589 5.99158 4.88404 0
M  V30 11696 C 126.529 6.60062 3.96313 0
M  V30 11697 C 125.799 7.08259 2.72856 0
M  V30 11698 O 125.589 5.9427 1.83651 0
M  V30 11699 C 124.399 7.65087 2.94749 0
M  V30 11700 O 124.009 8.53963 1.90717 0
M  V30 11701 C 123.519 6.41069 2.90698 0
M  V30 11702 C 124.229 5.5528 1.86931 0
M  V30 11703 N 124.179 4.09575 2.15696 0
M  V30 11704 C 124.029 3.24249 1.08435 0
M  V30 11705 O 123.939 3.63946 -0.0628747 0
M  V30 11706 N 123.989 1.90009 1.39973 0
M  V30 11707 C 124.079 1.34884 2.65614 0
M  V30 11708 O 124.029 0.123716 2.81728 0
M  V30 11709 C 124.229 2.3145 3.71736 0
M  V30 11710 C 124.339 1.75913 5.10438 0
M  V30 11711 C 124.279 3.63518 3.44754 0
M  V30 11712 H 127.02 7.45402 4.45526 0
M  V30 11713 H 127.289 5.86062 3.67208 0
M  V30 11714 H 126.422 7.84412 2.24479 0
M  V30 11715 H 123.767 5.73358 0.888409 0
M  V30 11716 H 123.488 5.90877 3.88583 0
M  V30 11717 H 122.496 6.65867 2.58821 0
M  V30 11718 H 124.33 8.16248 3.92006 0
M  V30 11719 H 124.401 4.34551 4.26383 0
M  V30 11720 H 123.371 1.85471 5.61775 0
M  V30 11721 H 125.108 2.31364 5.66257 0
M  V30 11722 H 124.62 0.695936 5.05229 0
M  V30 11723 H 123.884 1.26277 0.63625 0
M  V30 11724 P 122.459 8.7635 1.60911 0
M  V30 11725 O 122.239 10.1388 1.11561 0
M  V30 11726 O 121.669 8.36503 2.79617 0
M  V30 11727 O 122.209 7.71806 0.42951 0
M  V30 11728 C 123.149 7.67148 -0.673689 0
M  V30 11729 C 122.419 7.33374 -1.95559 0
M  V30 11730 O 122.209 5.88721 -2.00726 0
M  V30 11731 C 121.019 7.92526 -2.10483 0
M  V30 11732 O 120.629 8.02971 -3.47653 0
M  V30 11733 C 120.139 6.89602 -1.41652 0
M  V30 11734 C 120.849 5.59201 -1.75185 0
M  V30 11735 N 120.799 4.58301 -0.657969 0
M  V30 11736 H 123.638 8.65116 -0.777161 0
M  V30 11737 H 123.91 6.9022 -0.46725 0
M  V30 11738 H 123.042 7.66548 -2.79458 0
M  V30 11739 H 120.387 5.16165 -2.65183 0
M  V30 11740 H 120.107 7.06433 -0.329384 0
M  V30 11741 H 119.116 6.90926 -1.82021 0
M  V30 11742 H 120.95 8.90873 -1.62657 0
M  V30 11743 P 119.079 8.03563 -3.84925 0
M  V30 11744 O 118.859 8.85821 -5.0569 0
M  V30 11745 O 118.289 8.41101 -2.65469 0
M  V30 11746 O 118.829 6.4965 -4.18908 0
M  V30 11747 C 119.769 5.81037 -5.05421 0
M  V30 11748 C 119.039 4.78366 -5.89277 0
M  V30 11749 O 118.829 3.58302 -5.08433 0
M  V30 11750 C 117.639 5.17448 -6.36119 0
M  V30 11751 O 117.249 4.45271 -7.53232 0
M  V30 11752 C 116.759 4.74639 -5.19936 0
M  V30 11753 C 117.469 3.49432 -4.70418 0
M  V30 11754 N 117.419 3.32099 -3.22613 0
M  V30 11755 H 120.258 6.54213 -5.71376 0
M  V30 11756 H 120.53 5.30936 -4.43503 0
M  V30 11757 H 119.662 4.55889 -6.76652 0
M  V30 11758 H 117.007 2.61715 -5.17932 0
M  V30 11759 H 116.727 5.52155 -4.41878 0
M  V30 11760 H 115.736 4.51981 -5.53374 0
M  V30 11761 H 117.57 6.25124 -6.55234 0
M  V30 11762 P 115.699 4.23843 -7.83734 0
M  V30 11763 O 115.479 4.19407 -9.29784 0
M  V30 11764 O 114.909 5.24426 -7.09156 0
M  V30 11765 O 115.449 2.7935 -7.20758 0
M  V30 11766 C 116.389 1.7299 -7.50419 0
M  V30 11767 C 115.659 0.406376 -7.57911 0
M  V30 11768 O 115.449 -0.0897726 -6.21935 0
M  V30 11769 C 114.259 0.447224 -8.1878 0
M  V30 11770 O 113.869 -0.825065 -8.71101 0
M  V30 11771 C 113.379 0.783801 -6.99623 0
M  V30 11772 C 114.089 0.0619192 -5.85967 0
M  V30 11773 N 114.039 0.790462 -4.56202 0
M  V30 11774 H 116.878 1.93423 -8.4679 0
M  V30 11775 H 117.15 1.68852 -6.70877 0
M  V30 11776 H 116.282 -0.289041 -8.15388 0
M  V30 11777 H 113.627 -0.927006 -5.72848 0
M  V30 11778 H 113.347 1.86973 -6.82036 0
M  V30 11779 H 112.356 0.403953 -7.13357 0
M  V30 11780 H 114.19 1.20599 -8.97534 0
M  V30 11781 P 112.319 -1.17771 -8.83182 0
M  V30 11782 O 112.099 -2.07206 -9.98732 0
M  V30 11783 O 111.529 0.0743816 -8.81969 0
M  V30 11784 O 112.069 -1.97652 -7.47304 0
M  V30 11785 C 113.009 -3.01133 -7.08783 0
M  V30 11786 C 112.279 -4.12613 -6.37049 0
M  V30 11787 O 112.069 -3.72827 -4.97879 0
M  V30 11788 C 110.879 -4.45085 -6.88694 0
M  V30 11789 O 110.489 -5.7877 -6.5624 0
M  V30 11790 C 109.999 -3.47817 -6.12078 0
M  V30 11791 C 110.709 -3.39414 -4.77697 0
M  V30 11792 N 110.659 -2.04199 -4.15538 0
M  V30 11793 H 113.498 -3.41248 -7.98759 0
M  V30 11794 H 113.77 -2.57728 -6.42 0
M  V30 11795 H 112.902 -5.02657 -6.42673 0
M  V30 11796 H 110.247 -4.11708 -4.08956 0
M  V30 11797 H 109.967 -2.49626 -6.61679 0
M  V30 11798 H 108.976 -3.8662 -6.00862 0
M  V30 11799 H 110.81 -4.29991 -7.97006 0
M  V30 11800 P 108.939 -6.144 -6.45285 0
M  V30 11801 O 108.719 -7.54673 -6.86199 0
M  V30 11802 O 108.149 -5.12391 -7.179 0
M  V30 11803 O 108.689 -5.99158 -4.88404 0
M  V30 11804 C 109.629 -6.60234 -3.96415 0
M  V30 11805 C 108.899 -7.08259 -2.72856 0
M  V30 11806 O 108.689 -5.9427 -1.83651 0
M  V30 11807 C 107.499 -7.64886 -2.9555 0
M  V30 11808 O 107.109 -8.53963 -1.90717 0
M  V30 11809 C 106.619 -6.4116 -2.90739 0
M  V30 11810 C 107.329 -5.55375 -1.86963 0
M  V30 11811 N 107.279 -4.09664 -2.15742 0
M  V30 11812 H 110.118 -7.45574 -4.45629 0
M  V30 11813 H 110.39 -5.86232 -3.67314 0
M  V30 11814 H 109.522 -7.84412 -2.24479 0
M  V30 11815 P 105.559 -8.7635 -1.60911 0
M  V30 11816 O 105.339 -10.1388 -1.11561 0
M  V30 11817 O 104.769 -8.36503 -2.79617 0
M  V30 11818 O 105.309 -7.71806 -0.42951 0
M  V30 11819 C 106.249 -7.67148 0.673689 0
M  V30 11820 C 105.519 -7.33374 1.95559 0
M  V30 11821 O 105.309 -5.88721 2.00726 0
M  V30 11822 C 104.119 -7.92526 2.10483 0
M  V30 11823 O 103.729 -8.02971 3.47653 0
M  V30 11824 C 103.239 -6.89602 1.41652 0
M  V30 11825 C 103.949 -5.59201 1.75185 0
M  V30 11826 N 103.899 -4.58235 0.662552 0
M  V30 11827 H 106.738 -8.65116 0.777161 0
M  V30 11828 H 107.01 -6.90173 0.474152 0
M  V30 11829 H 106.142 -7.66548 2.79458 0
M  V30 11830 P 102.179 -8.03563 3.84925 0
M  V30 11831 O 101.959 -8.85821 5.0569 0
M  V30 11832 O 101.389 -8.41101 2.65469 0
M  V30 11833 O 101.929 -6.4965 4.18908 0
M  V30 11834 C 102.869 -5.81037 5.05421 0
M  V30 11835 C 102.139 -4.78366 5.89277 0
M  V30 11836 O 101.929 -3.58302 5.08433 0
M  V30 11837 C 100.739 -5.17448 6.36119 0
M  V30 11838 O 100.349 -4.45271 7.53232 0
M  V30 11839 C 99.8594 -4.74639 5.19936 0
M  V30 11840 C 100.569 -3.49432 4.70418 0
M  V30 11841 N 100.519 -3.31776 3.22945 0
M  V30 11842 H 103.358 -6.54213 5.71376 0
M  V30 11843 H 103.63 -5.30492 4.44033 0
M  V30 11844 H 102.762 -4.55889 6.76652 0
M  V30 11845 P 98.7994 -4.23843 7.83734 0
M  V30 11846 O 98.5794 -4.19407 9.29784 0
M  V30 11847 O 98.0094 -5.24426 7.09156 0
M  V30 11848 O 98.5494 -2.79386 7.20852 0
M  V30 11849 C 99.4894 -1.7299 7.50419 0
M  V30 11850 C 98.7594 -0.41401 7.5797 0
M  V30 11851 O 98.5494 0.089787 6.22035 0
M  V30 11852 C 97.3594 -0.447224 8.1878 0
M  V30 11853 O 96.9694 0.825159 8.71201 0
M  V30 11854 C 96.4794 -0.783801 6.99623 0
M  V30 11855 C 97.1894 -0.0619192 5.85967 0
M  V30 11856 N 97.1394 -0.7859 4.56281 0
M  V30 11857 C 96.9894 -0.0359258 3.39981 0
M  V30 11858 O 96.8994 1.19723 3.49038 0
M  V30 11859 N 96.9394 -0.869151 2.14025 0
M  V30 11860 C 97.0394 -2.01207 2.14363 0
M  V30 11861 N 96.9894 -2.58978 0.954287 0
M  V30 11862 C 97.1894 -2.80817 3.32215 0
M  V30 11863 C 97.2394 -2.13785 4.50884 0
M  V30 11864 H 99.9794 -1.93401 8.46693 0
M  V30 11865 H 100.249 -1.68181 6.71046 0
M  V30 11866 H 99.3824 0.289076 8.15488 0
M  V30 11867 H 96.7274 0.927166 5.72947 0
M  V30 11868 H 96.4474 -1.87 6.82132 0
M  V30 11869 H 95.4564 -0.404009 7.13457 0
M  V30 11870 H 97.2904 -1.20599 8.97534 0
M  V30 11871 H 97.3624 -2.70295 5.43162 0
M  V30 11872 H 97.2604 -3.89465 3.27406 0
M  V30 11873 H 96.8724 -2.01616 0.107046 0
M  V30 11874 H 97.0684 -3.61403 0.873101 0
M  V30 11875 P 95.4195 1.17771 8.83182 0
M  V30 11876 O 95.1995 2.07206 9.98732 0
M  V30 11877 O 94.6295 -0.0743816 8.81969 0
M  V30 11878 O 95.1695 1.97652 7.47304 0
M  V30 11879 C 96.1095 3.01055 7.08599 0
M  V30 11880 C 95.3795 4.12613 6.37049 0
M  V30 11881 O 95.1695 3.72827 4.97879 0
M  V30 11882 C 93.9795 4.45719 6.88164 0
M  V30 11883 O 93.5895 5.7877 6.5624 0
M  V30 11884 C 93.0995 3.47768 6.11991 0
M  V30 11885 C 93.8095 3.39356 4.77615 0
M  V30 11886 N 93.7595 2.04571 4.15244 0
M  V30 11887 C 93.6095 1.98587 2.78314 0
M  V30 11888 O 93.5195 2.98134 2.08835 0
M  V30 11889 N 93.5695 0.714467 2.24925 0
M  V30 11890 C 93.6595 -0.470001 2.94169 0
M  V30 11891 O 93.6095 -1.55587 2.35195 0
M  V30 11892 C 93.8095 -0.312541 4.36783 0
M  V30 11893 C 93.9195 -1.57711 5.16352 0
M  V30 11894 C 93.8595 0.914512 4.92583 0
M  V30 11895 H 96.6005 3.41169 7.98575 0
M  V30 11896 H 96.8695 2.58295 6.41556 0
M  V30 11897 H 96.0025 5.02657 6.42673 0
M  V30 11898 H 93.3475 4.11637 4.08885 0
M  V30 11899 H 93.0685 2.49626 6.61679 0
M  V30 11900 H 92.0765 3.86566 6.00778 0
M  V30 11901 H 93.9105 4.29943 7.96918 0
M  V30 11902 H 93.9815 1.00937 6.00374 0
M  V30 11903 H 92.9515 -1.80153 5.63503 0
M  V30 11904 H 94.6885 -1.4566 5.94104 0
M  V30 11905 H 94.2005 -2.40664 4.49645 0
M  V30 11906 H 93.4645 0.647622 1.25697 0
M  V30 11907 P 92.0395 6.144 6.45285 0
M  V30 11908 O 91.8195 7.54673 6.86199 0
M  V30 11909 O 91.2495 5.12391 7.179 0
M  V30 11910 O 91.7895 5.99158 4.88404 0
M  V30 11911 C 92.7295 6.60062 3.96313 0
M  V30 11912 C 91.9995 7.08259 2.72856 0
M  V30 11913 O 91.7895 5.9427 1.83651 0
M  V30 11914 C 90.5995 7.65087 2.94749 0
M  V30 11915 O 90.2095 8.53963 1.90717 0
M  V30 11916 C 89.7195 6.41069 2.90698 0
M  V30 11917 C 90.4295 5.5528 1.86931 0
M  V30 11918 N 90.3795 4.09575 2.15696 0
M  V30 11919 C 90.2295 3.24249 1.08435 0
M  V30 11920 O 90.1395 3.63946 -0.0628747 0
M  V30 11921 N 90.1895 1.90009 1.39973 0
M  V30 11922 C 90.2795 1.34884 2.65614 0
M  V30 11923 C 90.4295 2.3145 3.71736 0
M  V30 11924 C 90.4795 3.63518 3.44754 0
M  V30 11925 H 93.2205 7.45402 4.45526 0
M  V30 11926 H 93.4895 5.86062 3.67208 0
M  V30 11927 H 92.6225 7.84412 2.24479 0
M  V30 11928 H 89.9675 5.73358 0.888409 0
M  V30 11929 H 89.6885 5.90877 3.88583 0
M  V30 11930 H 88.6965 6.65867 2.58821 0
M  V30 11931 H 90.5305 8.16248 3.92006 0
M  V30 11932 H 90.6015 4.34551 4.26383 0
M  V30 11933 P 88.6595 8.7635 1.60911 0
M  V30 11934 O 88.4395 10.1388 1.11561 0
M  V30 11935 O 87.8695 8.36503 2.79617 0
M  V30 11936 O 88.4095 7.71806 0.42951 0
M  V30 11937 C 89.3495 7.66948 -0.673514 0
M  V30 11938 C 88.6195 7.33374 -1.95559 0
M  V30 11939 O 88.4095 5.88721 -2.00726 0
M  V30 11940 C 87.2195 7.92218 -2.1125 0
M  V30 11941 O 86.8295 8.02971 -3.47653 0
M  V30 11942 C 86.3395 6.89504 -1.41631 0
M  V30 11943 C 87.0495 5.59106 -1.75155 0
M  V30 11944 N 86.9995 4.58136 -0.662409 0
M  V30 11945 C 86.8495 3.26059 -1.02863 0
M  V30 11946 O 86.7595 2.90743 -2.19009 0
M  V30 11947 N 86.8095 2.35995 0.0155585 0
M  V30 11948 C 86.8995 2.65248 1.35603 0
M  V30 11949 O 86.8495 1.75605 2.20651 0
M  V30 11950 C 87.0495 4.05747 1.64698 0
M  V30 11951 C 87.1595 4.42345 3.09553 0
M  V30 11952 C 87.0995 4.96734 0.652411 0
M  V30 11953 H 89.8405 8.64917 -0.776982 0
M  V30 11954 H 90.1095 6.89974 -0.474015 0
M  V30 11955 H 89.2425 7.66548 -2.79458 0
M  V30 11956 H 86.5875 5.16076 -2.65138 0
M  V30 11957 H 86.3085 7.06433 -0.329384 0
M  V30 11958 H 85.3165 6.90829 -1.81996 0
M  V30 11959 H 87.1505 8.90774 -1.62639 0
M  V30 11960 H 87.2215 6.02181 0.895285 0
M  V30 11961 H 86.1915 4.80252 3.45468 0
M  V30 11962 H 87.9285 5.20015 3.22119 0
M  V30 11963 H 87.4405 3.53269 3.67833 0
M  V30 11964 H 86.7045 1.39558 -0.227499 0
M  V30 11965 P 85.2795 8.03563 -3.84925 0
M  V30 11966 O 85.0595 8.85821 -5.0569 0
M  V30 11967 O 84.4895 8.41101 -2.65469 0
M  V30 11968 O 85.0295 6.4965 -4.18908 0
M  V30 11969 C 85.9695 5.81037 -5.05421 0
M  V30 11970 C 85.2395 4.78366 -5.89277 0
M  V30 11971 O 85.0295 3.58302 -5.08433 0
M  V30 11972 C 83.8395 5.17448 -6.36119 0
M  V30 11973 O 83.4495 4.45271 -7.53232 0
M  V30 11974 C 82.9595 4.74639 -5.19936 0
M  V30 11975 C 83.6695 3.49432 -4.70418 0
M  V30 11976 N 83.6195 3.31776 -3.22945 0
M  V30 11977 H 86.4585 6.54213 -5.71376 0
M  V30 11978 H 86.7305 5.30492 -4.44033 0
M  V30 11979 H 85.8625 4.55889 -6.76652 0
M  V30 11980 P 81.8995 4.23843 -7.83734 0
M  V30 11981 O 81.6795 4.19407 -9.29784 0
M  V30 11982 O 81.1095 5.24426 -7.09156 0
M  V30 11983 O 81.6495 2.7935 -7.20758 0
M  V30 11984 C 82.5895 1.72945 -7.50224 0
M  V30 11985 C 81.8595 0.406376 -7.57911 0
M  V30 11986 O 81.6495 -0.0897726 -6.21935 0
M  V30 11987 C 80.4595 0.438983 -8.18724 0
M  V30 11988 O 80.0695 -0.825065 -8.71101 0
M  V30 11989 C 79.5795 0.783689 -6.99524 0
M  V30 11990 C 80.2895 0.0619086 -5.85867 0
M  V30 11991 N 80.2395 0.78573 -4.56183 0
M  V30 11992 C 80.0895 0.0292889 -3.41887 0
M  V30 11993 O 79.9995 -1.18445 -3.4419 0
M  V30 11994 N 80.0495 0.744061 -2.23964 0
M  V30 11995 C 80.1395 2.10932 -2.10362 0
M  V30 11996 C 80.2895 2.8202 -3.34994 0
M  V30 11997 C 80.3395 2.15547 -4.52261 0
M  V30 11998 H 83.0805 1.93379 -8.46595 0
M  V30 11999 H 83.3495 1.68132 -6.70852 0
M  V30 12000 H 82.4825 -0.289041 -8.15388 0
M  V30 12001 H 79.8275 -0.926847 -5.72749 0
M  V30 12002 H 79.5485 1.86973 -6.82036 0
M  V30 12003 H 78.5565 0.403896 -7.13257 0
M  V30 12004 H 80.3905 1.20585 -8.97435 0
M  V30 12005 H 80.4615 2.71231 -5.45042 0
M  V30 12006 P 78.5196 -1.17771 -8.83182 0
M  V30 12007 O 78.2996 -2.07206 -9.98732 0
M  V30 12008 O 77.7296 0.0743816 -8.81969 0
M  V30 12009 O 78.2696 -1.97652 -7.47304 0
M  V30 12010 C 79.2096 -3.01133 -7.08783 0
M  V30 12011 C 78.4796 -4.12613 -6.37049 0
M  V30 12012 O 78.2696 -3.72827 -4.97879 0
M  V30 12013 C 77.0796 -4.45085 -6.88694 0
M  V30 12014 O 76.6896 -5.7877 -6.5624 0
M  V30 12015 C 76.1996 -3.47817 -6.12078 0
M  V30 12016 C 76.9096 -3.39414 -4.77697 0
M  V30 12017 N 76.8596 -2.04615 -4.15333 0
M  V30 12018 H 79.6986 -3.41248 -7.98759 0
M  V30 12019 H 79.9706 -2.5837 -6.41742 0
M  V30 12020 H 79.1026 -5.02657 -6.42673 0
M  V30 12021 P 75.1396 -6.144 -6.45285 0
M  V30 12022 O 74.9196 -7.54673 -6.86199 0
M  V30 12023 O 74.3496 -5.12391 -7.179 0
M  V30 12024 O 74.8896 -5.99158 -4.88404 0
M  V30 12025 C 75.8296 -6.60234 -3.96415 0
M  V30 12026 C 75.0996 -7.08259 -2.72856 0
M  V30 12027 O 74.8896 -5.9427 -1.83651 0
M  V30 12028 C 73.6996 -7.64886 -2.9555 0
M  V30 12029 O 73.3096 -8.53963 -1.90717 0
M  V30 12030 C 72.8196 -6.4116 -2.90739 0
M  V30 12031 C 73.5296 -5.55375 -1.86963 0
M  V30 12032 N 73.4796 -4.09448 -2.16152 0
M  V30 12033 H 76.3186 -7.45574 -4.45629 0
M  V30 12034 H 76.5906 -5.85864 -3.679 0
M  V30 12035 H 75.7226 -7.84412 -2.24479 0
M  V30 12036 H 73.0676 -5.73457 -0.888562 0
M  V30 12037 H 72.7876 -5.90877 -3.88583 0
M  V30 12038 H 71.7966 -6.6596 -2.58858 0
M  V30 12039 H 73.6306 -8.16339 -3.92049 0
M  V30 12040 P 71.7596 -8.7635 -1.60911 0
M  V30 12041 O 71.5396 -10.1388 -1.11561 0
M  V30 12042 O 70.9696 -8.36503 -2.79617 0
M  V30 12043 O 71.5096 -7.71806 -0.42951 0
M  V30 12044 C 72.4496 -7.67148 0.673689 0
M  V30 12045 C 71.7196 -7.33374 1.95559 0
M  V30 12046 O 71.5096 -5.88721 2.00726 0
M  V30 12047 C 70.3196 -7.92526 2.10483 0
M  V30 12048 O 69.9296 -8.02971 3.47653 0
M  V30 12049 C 69.4396 -6.89602 1.41652 0
M  V30 12050 C 70.1496 -5.59201 1.75185 0
M  V30 12051 N 70.0996 -4.58301 0.657969 0
M  V30 12052 H 72.9386 -8.65116 0.777161 0
M  V30 12053 H 73.2106 -6.9022 0.46725 0
M  V30 12054 H 72.3426 -7.66548 2.79458 0
M  V30 12055 H 69.6876 -5.16165 2.65183 0
M  V30 12056 H 69.4076 -7.06433 0.329384 0
M  V30 12057 H 68.4166 -6.90926 1.82021 0
M  V30 12058 H 70.2506 -8.90873 1.62657 0
M  V30 12059 P 68.3796 -8.03563 3.84925 0
M  V30 12060 O 68.1596 -8.85821 5.0569 0
M  V30 12061 O 67.5896 -8.41101 2.65469 0
M  V30 12062 O 68.1296 -6.4965 4.18908 0
M  V30 12063 C 69.0696 -5.81037 5.05421 0
M  V30 12064 C 68.3396 -4.78366 5.89277 0
M  V30 12065 O 68.1296 -3.58302 5.08433 0
M  V30 12066 C 66.9396 -5.17448 6.36119 0
M  V30 12067 O 66.5496 -4.45271 7.53232 0
M  V30 12068 C 66.0596 -4.74639 5.19936 0
M  V30 12069 C 66.7696 -3.49432 4.70418 0
M  V30 12070 N 66.7196 -3.31776 3.22945 0
M  V30 12071 H 69.5586 -6.54213 5.71376 0
M  V30 12072 H 69.8306 -5.30492 4.44033 0
M  V30 12073 H 68.9626 -4.55889 6.76652 0
M  V30 12074 P 64.9996 -4.23843 7.83734 0
M  V30 12075 O 64.7796 -4.19407 9.29784 0
M  V30 12076 O 64.2096 -5.24426 7.09156 0
M  V30 12077 O 64.7496 -2.79386 7.20852 0
M  V30 12078 C 65.6896 -1.7299 7.50419 0
M  V30 12079 C 64.9596 -0.41401 7.5797 0
M  V30 12080 O 64.7496 0.089787 6.22035 0
M  V30 12081 C 63.5596 -0.447224 8.1878 0
M  V30 12082 O 63.1696 0.825159 8.71201 0
M  V30 12083 C 62.6796 -0.783801 6.99623 0
M  V30 12084 C 63.3896 -0.0619192 5.85967 0
M  V30 12085 N 63.3396 -0.7859 4.56281 0
M  V30 12086 C 63.1896 -0.0359258 3.39981 0
M  V30 12087 O 63.0996 1.19723 3.49038 0
M  V30 12088 N 63.1396 -0.869151 2.14025 0
M  V30 12089 C 63.2396 -2.01207 2.14363 0
M  V30 12090 N 63.1896 -2.58978 0.954287 0
M  V30 12091 C 63.3896 -2.80817 3.32215 0
M  V30 12092 C 63.4396 -2.13785 4.50884 0
M  V30 12093 H 66.1796 -1.93401 8.46693 0
M  V30 12094 H 66.4496 -1.68181 6.71046 0
M  V30 12095 H 65.5826 0.289076 8.15488 0
M  V30 12096 H 62.9276 0.927166 5.72947 0
M  V30 12097 H 62.6476 -1.87 6.82132 0
M  V30 12098 H 61.6566 -0.404009 7.13457 0
M  V30 12099 H 63.4906 -1.20599 8.97534 0
M  V30 12100 H 63.5626 -2.70295 5.43162 0
M  V30 12101 H 63.4606 -3.89465 3.27406 0
M  V30 12102 H 63.0726 -2.01616 0.107046 0
M  V30 12103 H 63.2686 -3.61403 0.873101 0
M  V30 12104 P 61.6197 1.17771 8.83182 0
M  V30 12105 O 61.3997 2.07206 9.98732 0
M  V30 12106 O 60.8297 -0.0743816 8.81969 0
M  V30 12107 O 61.3697 1.97652 7.47304 0
M  V30 12108 C 62.3097 3.01133 7.08783 0
M  V30 12109 C 61.5797 4.12613 6.37049 0
M  V30 12110 O 61.3697 3.72827 4.97879 0
M  V30 12111 C 60.1797 4.45085 6.88694 0
M  V30 12112 O 59.7897 5.7877 6.5624 0
M  V30 12113 C 59.2997 3.47817 6.12078 0
M  V30 12114 C 60.0097 3.39414 4.77697 0
M  V30 12115 N 59.9597 2.04615 4.15333 0
M  V30 12116 H 62.7987 3.41248 7.98759 0
M  V30 12117 H 63.0707 2.5837 6.41742 0
M  V30 12118 H 62.2027 5.02657 6.42673 0
M  V30 12119 P 58.2397 6.144 6.45285 0
M  V30 12120 O 58.0197 7.54673 6.86199 0
M  V30 12121 O 57.4497 5.12391 7.179 0
M  V30 12122 O 57.9897 5.99158 4.88404 0
M  V30 12123 C 58.9297 6.60062 3.96313 0
M  V30 12124 C 58.1997 7.08259 2.72856 0
M  V30 12125 O 57.9897 5.9427 1.83651 0
M  V30 12126 C 56.7997 7.65087 2.94749 0
M  V30 12127 O 56.4097 8.53963 1.90717 0
M  V30 12128 C 55.9197 6.41069 2.90698 0
M  V30 12129 C 56.6297 5.5528 1.86931 0
M  V30 12130 N 56.5797 4.09575 2.15696 0
M  V30 12131 C 56.4297 3.24249 1.08435 0
M  V30 12132 O 56.3397 3.63946 -0.0628747 0
M  V30 12133 N 56.3897 1.90009 1.39973 0
M  V30 12134 C 56.4797 1.34884 2.65614 0
M  V30 12135 C 56.6297 2.3145 3.71736 0
M  V30 12136 C 56.6797 3.63518 3.44754 0
M  V30 12137 H 59.4207 7.45402 4.45526 0
M  V30 12138 H 59.6897 5.86062 3.67208 0
M  V30 12139 H 58.8227 7.84412 2.24479 0
M  V30 12140 H 56.1677 5.73358 0.888409 0
M  V30 12141 H 55.8887 5.90877 3.88583 0
M  V30 12142 H 54.8967 6.65867 2.58821 0
M  V30 12143 H 56.7307 8.16248 3.92006 0
M  V30 12144 H 56.8017 4.34551 4.26383 0
M  V30 12145 P 54.8597 8.7635 1.60911 0
M  V30 12146 O 54.6397 10.1388 1.11561 0
M  V30 12147 O 54.0697 8.36503 2.79617 0
M  V30 12148 O 54.6097 7.71806 0.42951 0
M  V30 12149 C 55.5497 7.66948 -0.673514 0
M  V30 12150 C 54.8197 7.33374 -1.95559 0
M  V30 12151 O 54.6097 5.88721 -2.00726 0
M  V30 12152 C 53.4197 7.92218 -2.1125 0
M  V30 12153 O 53.0297 8.02971 -3.47653 0
M  V30 12154 C 52.5397 6.89504 -1.41631 0
M  V30 12155 C 53.2497 5.59106 -1.75155 0
M  V30 12156 N 53.1997 4.58136 -0.662409 0
M  V30 12157 C 53.0497 3.26059 -1.02863 0
M  V30 12158 O 52.9597 2.90743 -2.19009 0
M  V30 12159 N 53.0097 2.35995 0.0155585 0
M  V30 12160 C 53.0997 2.65248 1.35603 0
M  V30 12161 C 53.2497 4.05747 1.64698 0
M  V30 12162 C 53.2997 4.96734 0.652411 0
M  V30 12163 H 56.0407 8.64917 -0.776982 0
M  V30 12164 H 56.3097 6.89974 -0.474015 0
M  V30 12165 H 55.4427 7.66548 -2.79458 0
M  V30 12166 H 52.7877 5.16076 -2.65138 0
M  V30 12167 H 52.5087 7.06433 -0.329384 0
M  V30 12168 H 51.5167 6.90829 -1.81996 0
M  V30 12169 H 53.3507 8.90774 -1.62639 0
M  V30 12170 H 53.4217 6.02181 0.895285 0
M  V30 12171 P 51.4797 8.03563 -3.84925 0
M  V30 12172 O 51.2597 8.85821 -5.0569 0
M  V30 12173 O 50.6897 8.41101 -2.65469 0
M  V30 12174 O 51.2297 6.4965 -4.18908 0
M  V30 12175 C 52.1697 5.81037 -5.05421 0
M  V30 12176 C 51.4397 4.78366 -5.89277 0
M  V30 12177 O 51.2297 3.58302 -5.08433 0
M  V30 12178 C 50.0397 5.17448 -6.36119 0
M  V30 12179 O 49.6497 4.45271 -7.53232 0
M  V30 12180 C 49.1597 4.74639 -5.19936 0
M  V30 12181 C 49.8697 3.49432 -4.70418 0
M  V30 12182 N 49.8197 3.31776 -3.22945 0
M  V30 12183 C 49.8997 4.27147 -2.23315 0
M  V30 12184 N 49.8197 3.78447 -1.02186 0
M  V30 12185 C 49.6797 2.41001 -1.21732 0
M  V30 12186 C 49.5497 1.36111 -0.27694 0
M  V30 12187 O 49.5297 1.42065 0.951767 0
M  V30 12188 N 49.4297 0.113683 -0.912949 0
M  V30 12189 C 49.4297 -0.0846396 -2.27943 0
M  V30 12190 N 49.2997 -1.34737 -2.6916 0
M  V30 12191 N 49.5597 0.902521 -3.16379 0
M  V30 12192 C 49.6797 2.11937 -2.56849 0
M  V30 12193 H 52.6587 6.54213 -5.71376 0
M  V30 12194 H 52.9307 5.30492 -4.44033 0
M  V30 12195 H 52.0627 4.55889 -6.76652 0
M  V30 12196 H 49.4077 2.6176 -5.18021 0
M  V30 12197 H 49.1277 5.52233 -4.41941 0
M  V30 12198 H 48.1367 4.52045 -5.53452 0
M  V30 12199 H 49.9707 6.25193 -6.55307 0
M  V30 12200 H 50.0197 5.3351 -2.43857 0
M  V30 12201 H 49.3377 -0.69331 -0.330371 0
M  V30 12202 H 49.3007 -1.56433 -3.6988 0
M  V30 12203 H 49.1997 -2.10701 -2.00133 0
M  V30 12204 P 48.0997 4.23843 -7.83734 0
M  V30 12205 O 47.8797 4.19407 -9.29784 0
M  V30 12206 O 47.3097 5.24426 -7.09156 0
M  V30 12207 O 47.8497 2.7935 -7.20758 0
M  V30 12208 C 48.7897 1.7299 -7.50419 0
M  V30 12209 C 48.0597 0.406376 -7.57911 0
M  V30 12210 O 47.8497 -0.0897726 -6.21935 0
M  V30 12211 C 46.6597 0.447224 -8.1878 0
M  V30 12212 O 46.2697 -0.825065 -8.71101 0
M  V30 12213 C 45.7797 0.783801 -6.99623 0
M  V30 12214 C 46.4897 0.0619192 -5.85967 0
M  V30 12215 N 46.4397 0.7859 -4.56281 0
M  V30 12216 H 49.2787 1.93423 -8.4679 0
M  V30 12217 H 49.5507 1.68181 -6.71046 0
M  V30 12218 H 48.6827 -0.289041 -8.15388 0
M  V30 12219 P 44.7198 -1.17771 -8.83182 0
M  V30 12220 O 44.4998 -2.07206 -9.98732 0
M  V30 12221 O 43.9298 0.0743816 -8.81969 0
M  V30 12222 O 44.4698 -1.97652 -7.47304 0
M  V30 12223 C 45.4098 -3.01133 -7.08783 0
M  V30 12224 C 44.6798 -4.12613 -6.37049 0
M  V30 12225 O 44.4698 -3.72827 -4.97879 0
M  V30 12226 C 43.2798 -4.45085 -6.88694 0
M  V30 12227 O 42.8898 -5.7877 -6.5624 0
M  V30 12228 C 42.3998 -3.47817 -6.12078 0
M  V30 12229 C 43.1098 -3.39414 -4.77697 0
M  V30 12230 N 43.0598 -2.04615 -4.15333 0
M  V30 12231 H 45.8988 -3.41248 -7.98759 0
M  V30 12232 H 46.1708 -2.5837 -6.41742 0
M  V30 12233 H 45.3028 -5.02657 -6.42673 0
M  V30 12234 P 41.3398 -6.144 -6.45285 0
M  V30 12235 O 41.1198 -7.54673 -6.86199 0
M  V30 12236 O 40.5498 -5.12391 -7.179 0
M  V30 12237 O 41.0898 -5.99158 -4.88404 0
M  V30 12238 C 42.0298 -6.60234 -3.96415 0
M  V30 12239 C 41.2998 -7.08259 -2.72856 0
M  V30 12240 O 41.0898 -5.9427 -1.83651 0
M  V30 12241 C 39.8998 -7.64886 -2.9555 0
M  V30 12242 O 39.5098 -8.53963 -1.90717 0
M  V30 12243 C 39.0198 -6.4116 -2.90739 0
M  V30 12244 C 39.7298 -5.55375 -1.86963 0
M  V30 12245 N 39.6798 -4.09448 -2.16152 0
M  V30 12246 H 42.5188 -7.45574 -4.45629 0
M  V30 12247 H 42.7908 -5.85864 -3.679 0
M  V30 12248 H 41.9228 -7.84412 -2.24479 0
M  V30 12249 H 39.2678 -5.73457 -0.888562 0
M  V30 12250 H 38.9878 -5.90877 -3.88583 0
M  V30 12251 H 37.9968 -6.6596 -2.58858 0
M  V30 12252 H 39.8308 -8.16339 -3.92049 0
M  V30 12253 P 37.9598 -8.7635 -1.60911 0
M  V30 12254 O 37.7398 -10.1388 -1.11561 0
M  V30 12255 O 37.1698 -8.36503 -2.79617 0
M  V30 12256 O 37.7098 -7.71806 -0.42951 0
M  V30 12257 C 38.6498 -7.67148 0.673689 0
M  V30 12258 C 37.9198 -7.33374 1.95559 0
M  V30 12259 O 37.7098 -5.88721 2.00726 0
M  V30 12260 C 36.5198 -7.92526 2.10483 0
M  V30 12261 O 36.1298 -8.02971 3.47653 0
M  V30 12262 C 35.6398 -6.89602 1.41652 0
M  V30 12263 C 36.3498 -5.59201 1.75185 0
M  V30 12264 N 36.2998 -4.58235 0.662552 0
M  V30 12265 H 39.1388 -8.65116 0.777161 0
M  V30 12266 H 39.4108 -6.90173 0.474152 0
M  V30 12267 H 38.5428 -7.66548 2.79458 0
M  V30 12268 P 34.5798 -8.03563 3.84925 0
M  V30 12269 O 34.3598 -8.85821 5.0569 0
M  V30 12270 O 33.7898 -8.41101 2.65469 0
M  V30 12271 O 34.3298 -6.4965 4.18908 0
M  V30 12272 C 35.2698 -5.81037 5.05421 0
M  V30 12273 C 34.5398 -4.78366 5.89277 0
M  V30 12274 O 34.3298 -3.58302 5.08433 0
M  V30 12275 C 33.1398 -5.17448 6.36119 0
M  V30 12276 O 32.7498 -4.45271 7.53232 0
M  V30 12277 C 32.2598 -4.74639 5.19936 0
M  V30 12278 C 32.9698 -3.49432 4.70418 0
M  V30 12279 N 32.9198 -3.32099 3.22613 0
M  V30 12280 H 35.7588 -6.54213 5.71376 0
M  V30 12281 H 36.0308 -5.30936 4.43503 0
M  V30 12282 H 35.1628 -4.55889 6.76652 0
M  V30 12283 H 32.5078 -2.61715 5.17932 0
M  V30 12284 H 32.2278 -5.52155 4.41878 0
M  V30 12285 H 31.2368 -4.51981 5.53374 0
M  V30 12286 H 33.0708 -6.25124 6.55234 0
M  V30 12287 P 31.1998 -4.23843 7.83734 0
M  V30 12288 O 30.9798 -4.19407 9.29784 0
M  V30 12289 O 30.4098 -5.24426 7.09156 0
M  V30 12290 O 30.9498 -2.7935 7.20758 0
M  V30 12291 C 31.8898 -1.7299 7.50419 0
M  V30 12292 C 31.1598 -0.406376 7.57911 0
M  V30 12293 O 30.9498 0.0897726 6.21935 0
M  V30 12294 C 29.7598 -0.447224 8.1878 0
M  V30 12295 O 29.3698 0.825065 8.71101 0
M  V30 12296 C 28.8798 -0.783801 6.99623 0
M  V30 12297 C 29.5898 -0.0619192 5.85967 0
M  V30 12298 N 29.5398 -0.790462 4.56202 0
M  V30 12299 H 32.3788 -1.93423 8.4679 0
M  V30 12300 H 32.6508 -1.68852 6.70877 0
M  V30 12301 H 31.7828 0.289041 8.15388 0
M  V30 12302 H 29.1278 0.927006 5.72848 0
M  V30 12303 H 28.8478 -1.86973 6.82036 0
M  V30 12304 H 27.8568 -0.403953 7.13357 0
M  V30 12305 H 29.6908 -1.20599 8.97534 0
M  V30 12306 P 27.8199 1.17771 8.83182 0
M  V30 12307 O 27.5999 2.07206 9.98732 0
M  V30 12308 O 27.0299 -0.0743816 8.81969 0
M  V30 12309 O 27.5699 1.97652 7.47304 0
M  V30 12310 C 28.5099 3.01133 7.08783 0
M  V30 12311 C 27.7799 4.12613 6.37049 0
M  V30 12312 O 27.5699 3.72827 4.97879 0
M  V30 12313 C 26.3799 4.45085 6.88694 0
M  V30 12314 O 25.9899 5.7877 6.5624 0
M  V30 12315 C 25.4999 3.47817 6.12078 0
M  V30 12316 C 26.2099 3.39414 4.77697 0
M  V30 12317 N 26.1599 2.04615 4.15333 0
M  V30 12318 H 28.9989 3.41248 7.98759 0
M  V30 12319 H 29.2709 2.5837 6.41742 0
M  V30 12320 H 28.4029 5.02657 6.42673 0
M  V30 12321 P 24.4399 6.144 6.45285 0
M  V30 12322 O 24.2199 7.54673 6.86199 0
M  V30 12323 O 23.6499 5.12391 7.179 0
M  V30 12324 O 24.1899 5.99158 4.88404 0
M  V30 12325 C 25.1299 6.60234 3.96415 0
M  V30 12326 C 24.3999 7.08259 2.72856 0
M  V30 12327 O 24.1899 5.9427 1.83651 0
M  V30 12328 C 22.9999 7.64886 2.9555 0
M  V30 12329 O 22.6099 8.53963 1.90717 0
M  V30 12330 C 22.1199 6.4116 2.90739 0
M  V30 12331 C 22.8299 5.55375 1.86963 0
M  V30 12332 N 22.7799 4.09664 2.15742 0
M  V30 12333 H 25.6189 7.45574 4.45629 0
M  V30 12334 H 25.8909 5.86232 3.67314 0
M  V30 12335 H 25.0229 7.84412 2.24479 0
M  V30 12336 P 21.0599 8.7635 1.60911 0
M  V30 12337 O 20.8399 10.1388 1.11561 0
M  V30 12338 O 20.2699 8.36503 2.79617 0
M  V30 12339 O 20.8099 7.71806 0.42951 0
M  V30 12340 C 21.7499 7.67148 -0.673689 0
M  V30 12341 C 21.0199 7.33374 -1.95559 0
M  V30 12342 O 20.8099 5.88721 -2.00726 0
M  V30 12343 C 19.6199 7.92526 -2.10483 0
M  V30 12344 O 19.2299 8.02971 -3.47653 0
M  V30 12345 C 18.7399 6.89602 -1.41652 0
M  V30 12346 C 19.4499 5.59201 -1.75185 0
M  V30 12347 N 19.3999 4.58235 -0.662552 0
M  V30 12348 H 22.2389 8.65116 -0.777161 0
M  V30 12349 H 22.5109 6.90173 -0.474152 0
M  V30 12350 H 21.6429 7.66548 -2.79458 0
M  V30 12351 P 17.6799 8.03563 -3.84925 0
M  V30 12352 O 17.4599 8.85821 -5.0569 0
M  V30 12353 O 16.8899 8.41101 -2.65469 0
M  V30 12354 O 17.4299 6.4965 -4.18908 0
M  V30 12355 C 18.3699 5.80886 -5.05289 0
M  V30 12356 C 17.6399 4.78366 -5.89277 0
M  V30 12357 O 17.4299 3.58302 -5.08433 0
M  V30 12358 C 16.2399 5.16748 -6.36559 0
M  V30 12359 O 15.8499 4.45271 -7.53232 0
M  V30 12360 C 15.3599 4.74572 -5.19863 0
M  V30 12361 C 16.0699 3.49373 -4.70338 0
M  V30 12362 N 16.0199 3.31704 -3.22876 0
M  V30 12363 C 15.8699 2.03326 -2.74871 0
M  V30 12364 O 15.7799 1.06486 -3.48076 0
M  V30 12365 N 15.8299 1.91838 -1.37456 0
M  V30 12366 C 15.9199 2.94295 -0.462035 0
M  V30 12367 O 15.8699 2.71763 0.752928 0
M  V30 12368 C 16.0699 4.25064 -1.05249 0
M  V30 12369 C 16.1799 5.39815 -0.095697 0
M  V30 12370 C 16.1199 4.40214 -2.39192 0
M  V30 12371 H 18.8609 6.54063 -5.71245 0
M  V30 12372 H 19.1299 5.30339 -4.43905 0
M  V30 12373 H 18.2629 4.55889 -6.76652 0
M  V30 12374 H 15.6079 2.6167 -5.17842 0
M  V30 12375 H 15.3289 5.52155 -4.41878 0
M  V30 12376 H 14.3369 4.51918 -5.53297 0
M  V30 12377 H 16.1709 6.25055 -6.55162 0
M  V30 12378 H 16.2419 5.39798 -2.81523 0
M  V30 12379 H 15.2119 5.91593 -0.0279582 0
M  V30 12380 H 16.9489 6.10038 -0.450573 0
M  V30 12381 H 16.4609 5.02007 0.89937 0
M  V30 12382 H 15.7249 0.995326 -1.00435 0
M  V30 12383 P 14.2999 4.23843 -7.83734 0
M  V30 12384 O 14.0799 4.19407 -9.29784 0
M  V30 12385 O 13.5099 5.24426 -7.09156 0
M  V30 12386 O 14.0499 2.7935 -7.20758 0
M  V30 12387 C 14.9899 1.7299 -7.50419 0
M  V30 12388 C 14.2599 0.406376 -7.57911 0
M  V30 12389 O 14.0499 -0.0897726 -6.21935 0
M  V30 12390 C 12.8599 0.447224 -8.1878 0
M  V30 12391 O 12.4699 -0.825065 -8.71101 0
M  V30 12392 C 11.9799 0.783801 -6.99623 0
M  V30 12393 C 12.6899 0.0619192 -5.85967 0
M  V30 12394 N 12.6399 0.7859 -4.56281 0
M  V30 12395 H 15.4789 1.93423 -8.4679 0
M  V30 12396 H 15.7509 1.68181 -6.71046 0
M  V30 12397 H 14.8829 -0.289041 -8.15388 0
M  V30 12398 P 10.92 -1.17771 -8.83182 0
M  V30 12399 O 10.7 -2.07206 -9.98732 0
M  V30 12400 O 10.13 0.0743816 -8.81969 0
M  V30 12401 O 10.67 -1.97652 -7.47304 0
M  V30 12402 C 11.61 -3.01133 -7.08783 0
M  V30 12403 C 10.88 -4.12613 -6.37049 0
M  V30 12404 O 10.67 -3.72827 -4.97879 0
M  V30 12405 C 9.47996 -4.45085 -6.88694 0
M  V30 12406 O 9.08996 -5.7877 -6.5624 0
M  V30 12407 C 8.59996 -3.47817 -6.12078 0
M  V30 12408 C 9.30996 -3.39414 -4.77697 0
M  V30 12409 N 9.25996 -2.04199 -4.15538 0
M  V30 12410 C 9.33996 -0.821545 -4.76977 0
M  V30 12411 N 9.26996 0.1794 -3.94592 0
M  V30 12412 C 9.11996 -0.419121 -2.70776 0
M  V30 12413 C 8.98996 0.109072 -1.40577 0
M  V30 12414 N 8.97996 1.4104 -1.1344 0
M  V30 12415 N 8.86996 -0.764381 -0.39411 0
M  V30 12416 C 8.87996 -2.06587 -0.664135 0
M  V30 12417 N 8.99996 -2.67948 -1.82153 0
M  V30 12418 C 9.11996 -1.77942 -2.8147 0
M  V30 12419 H 12.099 -3.41248 -7.98759 0
M  V30 12420 H 12.371 -2.57728 -6.42 0
M  V30 12421 H 11.503 -5.02657 -6.42673 0
M  V30 12422 H 8.84796 -4.11708 -4.08956 0
M  V30 12423 H 8.56796 -2.49626 -6.61679 0
M  V30 12424 H 7.57696 -3.8662 -6.00862 0
M  V30 12425 H 9.41096 -4.29991 -7.97006 0
M  V30 12426 H 9.45196 -0.702451 -5.84696 0
M  V30 12427 H 9.07096 2.09647 -1.89651 0
M  V30 12428 H 8.88196 1.73358 -0.160575 0
M  V30 12429 H 8.77396 -2.71695 0.195838 0
M  V30 12430 P 7.53998 -6.144 -6.45285 0
M  V30 12431 O 7.31998 -7.54673 -6.86199 0
M  V30 12432 O 6.74998 -5.12391 -7.179 0
M  V30 12433 O 7.28998 -5.99158 -4.88404 0
M  V30 12434 C 8.22998 -6.60234 -3.96415 0
M  V30 12435 C 7.49998 -7.08259 -2.72856 0
M  V30 12436 O 7.28998 -5.9427 -1.83651 0
M  V30 12437 C 6.09998 -7.64886 -2.9555 0
M  V30 12438 O 5.70998 -8.53963 -1.90717 0
M  V30 12439 C 5.21998 -6.4116 -2.90739 0
M  V30 12440 C 5.92998 -5.55375 -1.86963 0
M  V30 12441 N 5.87998 -4.09664 -2.15742 0
M  V30 12442 H 8.71898 -7.45574 -4.45629 0
M  V30 12443 H 8.99098 -5.86232 -3.67314 0
M  V30 12444 H 8.12298 -7.84412 -2.24479 0
M  V30 12445 P 4.16 -8.7635 -1.60911 0
M  V30 12446 O 3.94 -10.1388 -1.11561 0
M  V30 12447 O 3.37 -8.36503 -2.79617 0
M  V30 12448 O 3.91 -7.71806 -0.42951 0
M  V30 12449 C 4.85 -7.67148 0.673689 0
M  V30 12450 C 4.12 -7.33374 1.95559 0
M  V30 12451 O 3.91 -5.88721 2.00726 0
M  V30 12452 C 2.72 -7.92526 2.10483 0
M  V30 12453 O 2.33 -8.02971 3.47653 0
M  V30 12454 C 1.84 -6.89602 1.41652 0
M  V30 12455 C 2.55 -5.59201 1.75185 0
M  V30 12456 N 2.5 -4.58235 0.662552 0
M  V30 12457 H 5.339 -8.65116 0.777161 0
M  V30 12458 H 5.611 -6.90173 0.474152 0
M  V30 12459 H 4.743 -7.66548 2.79458 0
M  V30 12460 H 1.613 -8.66322 3.55694 0
M  V30 END ATOM
M  V30 BEGIN BOND
M  V30 END BOND
M  V30 END CTAB
M  END
$$$$
