drugbank_target|P29466 Caspase-1 (DB00945; DB01017; DB04875; DB05301; DB05408; DB05507; DB07733; DB07744; DB07916)
 OpenBabel12092119323D

  0  0  0     0  0            999 V3000
M  V30 BEGIN CTAB
M  V30 COUNTS 6301 6356 0 0 0
M  V30 BEGIN ATOM
M  V30 1 H -0.908 1.98254 -0.117106 0
M  V30 2 N 0 1.576 0 0
M  V30 3 C 0.933 2.03868 1.02534 0
M  V30 4 C 1.911 0.928543 1.3348 0
M  V30 5 O 3.095 1.19667 1.45644 0
M  V30 6 C 0.222 2.43627 2.35294 0
M  V30 7 C -0.732 3.65373 2.2001 0
M  V30 8 S 0.101 5.13292 1.52614 0
M  V30 9 C 1.257 5.56322 2.86805 0
M  V30 10 H 1.49 2.90518 0.631377 0
M  V30 11 H -0.977 1.52953 0.210867 0
M  V30 12 H 0.981 2.67203 3.11629 0
M  V30 13 H -0.358 1.57376 2.7183 0
M  V30 14 H -1.165 3.90944 3.18086 0
M  V30 15 H -1.563 3.418 1.51819 0
M  V30 16 H 0.729 5.58782 3.83104 0
M  V30 17 H 1.672 6.56266 2.65933 0
M  V30 18 H 2.08 4.83886 2.90714 0
M  V30 19 N 1.4781 -0.272755 1.55222 0
M  V30 20 C 2.4411 -1.32041 1.87344 0
M  V30 21 C 3.4411 -1.42342 0.74803 0
M  V30 22 O 4.6311 -1.41488 1.0162 0
M  V30 23 C 1.7631 -2.70173 2.07893 0
M  V30 24 H 2.9561 -1.04789 2.80997 0
M  V30 25 H 0.5091 -0.51083 1.47717 0
M  V30 26 H 1.2441 -3.02605 1.16622 0
M  V30 27 H 1.0291 -2.64082 2.89833 0
M  V30 28 H 2.5191 -3.45869 2.34017 0
M  V30 29 N 2.9562 -1.48159 -0.537278 0
M  V30 30 C 4.2332 -1.46291 -1.29839 0
M  V30 31 C 4.6132 -0.170613 -2.10409 0
M  V30 32 O 3.9612 0.847746 -2.12192 0
M  V30 33 C 4.1712 -2.72055 -2.18603 0
M  V30 34 C 5.5192 -3.20087 -2.7898 0
M  V30 35 O 6.5432 -2.72921 -2.28894 0
M  V30 36 O 5.4022 -4.02138 -3.70064 0
M  V30 37 H 2.4962 -0.583906 -0.585647 0
M  V30 38 H 5.0422 -1.60384 -0.554534 0
M  V30 39 H 3.8142 -3.57628 -1.58801 0
M  V30 40 H 3.4372 -2.60646 -3.00249 0
M  V30 41 N 4.4343 0.785586 -1.36625 0
M  V30 42 C 5.3813 1.89838 -1.31264 0
M  V30 43 C 6.3513 1.65115 -0.180633 0
M  V30 44 O 7.5363 1.87222 -0.36777 0
M  V30 45 C 4.6763 3.26706 -1.11163 0
M  V30 46 C 3.7893 3.63476 -2.33472 0
M  V30 47 C 2.9243 4.89481 -2.06353 0
M  V30 48 C 1.9633 5.18941 -3.24602 0
M  V30 49 N 1.1003 6.36131 -2.97123 0
M  V30 50 H 5.9403 1.93756 -2.26413 0
M  V30 51 H 3.4773 0.947454 -1.12524 0
M  V30 52 H 5.4353 4.05639 -0.975337 0
M  V30 53 H 4.0653 3.222 -0.196674 0
M  V30 54 H 3.1173 2.79636 -2.57891 0
M  V30 55 H 4.4293 3.81193 -3.21704 0
M  V30 56 H 3.5833 5.76288 -1.89675 0
M  V30 57 H 2.3223 4.73841 -1.15437 0
M  V30 58 H 1.3273 4.30615 -3.41834 0
M  V30 59 H 2.5523 5.36498 -4.16349 0
M  V30 60 H 0.4983 6.21875 -2.08823 0
M  V30 61 H 0.4153 6.54198 -3.78894 0
M  V30 62 H 1.6833 7.2591 -2.84033 0
M  V30 63 N 5.9124 1.20967 1.01018 0
M  V30 64 C 7.1584 1.02526 1.74975 0
M  V30 65 C 7.4914 -0.4408 1.89131 0
M  V30 66 O 6.7664 -1.32718 1.42184 0
M  V30 67 C 7.0494 1.71699 3.1653 0
M  V30 68 C 6.9024 3.25791 3.10129 0
M  V30 69 C 8.2214 1.45531 4.15342 0
M  V30 70 H 5.3404 0.373863 0.635134 0
M  V30 71 H 7.9824 1.49071 1.17805 0
M  V30 72 H 6.1324 1.32128 3.65341 0
M  V30 73 H 7.8044 3.74697 2.69072 0
M  V30 74 H 6.0474 3.56363 2.47362 0
M  V30 75 H 6.7184 3.69353 4.10222 0
M  V30 76 H 9.1944 1.79872 3.75213 0
M  V30 77 H 8.0704 1.96453 5.1254 0
M  V30 78 H 8.3314 0.384237 4.40427 0
M  V30 79 N 7.3905 -1.2043 1.01659 0
M  V30 80 C 8.3205 -2.25466 0.607226 0
M  V30 81 C 9.3015 -1.65853 -0.377716 0
M  V30 82 O 10.4865 -1.92409 -0.263149 0
M  V30 83 C 7.6165 -3.47256 -0.0552949 0
M  V30 84 C 6.5705 -4.19462 0.850632 0
M  V30 85 C 5.8965 -5.34673 0.0538859 0
M  V30 86 C 7.1965 -4.75603 2.15868 0
M  V30 87 H 8.8905 -2.59962 1.48526 0
M  V30 88 H 6.4365 -1.2496 0.715605 0
M  V30 89 H 8.3895 -4.19917 -0.353233 0
M  V30 90 H 7.1135 -3.11924 -0.968045 0
M  V30 91 H 5.7725 -3.48667 1.13257 0
M  V30 92 H 5.4205 -4.95585 -0.860514 0
M  V30 93 H 5.1205 -5.83913 0.657192 0
M  V30 94 H 6.6445 -6.10138 -0.237598 0
M  V30 95 H 8.0585 -5.40083 1.92311 0
M  V30 96 H 6.4555 -5.3528 2.71284 0
M  V30 97 H 7.5255 -3.94346 2.82169 0
M  V30 98 N 8.8686 -0.792821 -1.36206 0
M  V30 99 C 9.8156 -0.191653 -2.30003 0
M  V30 100 C 10.7856 0.666453 -1.52143 0
M  V30 101 O 11.9706 0.61442 -1.80636 0
M  V30 102 C 9.1106 0.664848 -3.38635 0
M  V30 103 C 8.2236 -0.212175 -4.31479 0
M  V30 104 C 7.3586 0.651022 -5.27196 0
M  V30 105 C 6.3976 -0.227247 -6.11678 0
M  V30 106 N 5.5346 0.595127 -6.99573 0
M  V30 107 H 10.3746 -0.996978 -2.80828 0
M  V30 108 H 7.9116 -0.503206 -1.38225 0
M  V30 109 H 9.8696 1.17645 -4.00269 0
M  V30 110 H 8.4996 1.43557 -2.89122 0
M  V30 111 H 7.5516 -0.841777 -3.70969 0
M  V30 112 H 8.8636 -0.888751 -4.90818 0
M  V30 113 H 8.0176 1.2283 -5.94136 0
M  V30 114 H 6.7566 1.36121 -4.68319 0
M  V30 115 H 5.7616 -0.816904 -5.43697 0
M  V30 116 H 6.9866 -0.93509 -6.72631 0
M  V30 117 H 4.9326 1.28955 -6.432 0
M  V30 118 H 4.8496 -0.0236952 -7.55996 0
M  V30 119 H 6.1176 1.15613 -7.70879 0
M  V30 120 N 10.3467 1.47872 -0.545128 0
M  V30 121 C 11.2567 2.33633 0.212746 0
M  V30 122 C 12.2727 1.4744 0.923983 0
M  V30 123 O 13.4487 1.80393 0.895572 0
M  V30 124 C 10.5137 3.23884 1.23693 0
M  V30 125 C 9.5747 4.25961 0.534417 0
M  V30 126 C 8.8077 5.11899 1.5098 0
M  V30 127 O 9.0307 5.00077 2.7437 0
M  V30 128 O 7.9647 5.92831 1.0409 0
M  V30 129 H 11.7907 2.99714 -0.490416 0
M  V30 130 H 9.3757 1.46235 -0.305871 0
M  V30 131 H 11.2577 3.79666 1.82843 0
M  V30 132 H 9.9327 2.60446 1.92222 0
M  V30 133 H 8.8397 3.73972 -0.0979679 0
M  V30 134 H 10.1727 4.92079 -0.109213 0
M  V30 135 N 11.8248 0.280983 1.55075 0
M  V30 136 C 12.7718 -0.603937 2.22758 0
M  V30 137 C 13.7418 -1.1452 1.20309 0
M  V30 138 O 14.9268 -1.19343 1.48869 0
M  V30 139 C 12.0668 -1.77947 2.95684 0
M  V30 140 C 11.1798 -1.2715 4.12864 0
M  V30 141 C 10.3148 -2.4093 4.7342 0
M  V30 142 C 9.3538 -1.87165 5.82783 0
M  V30 143 N 8.4908 -2.94441 6.37377 0
M  V30 144 H 13.3308 -0.020124 2.97993 0
M  V30 145 H 10.8678 0.00183425 1.471 0
M  V30 146 H 12.8258 -2.47055 3.36184 0
M  V30 147 H 11.4558 -2.33522 2.22861 0
M  V30 148 H 10.5078 -0.473331 3.77444 0
M  V30 149 H 11.8198 -0.837751 4.91715 0
M  V30 150 H 10.9738 -3.18021 5.1667 0
M  V30 151 H 9.7128 -2.87623 3.93859 0
M  V30 152 H 8.7178 -1.08556 5.38976 0
M  V30 153 H 9.9428 -1.41401 6.64216 0
M  V30 154 H 7.8888 -3.40505 5.60707 0
M  V30 155 H 7.8058 -2.55501 7.11516 0
M  V30 156 H 9.0738 -3.71489 6.85285 0
M  V30 157 N 13.3029 -1.57598 0.00835791 0
M  V30 158 C 14.7189 -1.55764 -0.347822 0
M  V30 159 C 14.9189 -1.01186 -1.74252 0
M  V30 160 O 13.9749 -0.649371 -2.44007 0
M  V30 161 C 15.2879 -2.99927 -0.215407 0
M  V30 162 C 16.8359 -3.11656 -0.289725 0
M  V30 163 C 17.3109 -4.57621 -0.18634 0
M  V30 164 N 18.8019 -4.62557 -0.243978 0
M  V30 165 C 19.5369 -5.73094 -0.18745 0
M  V30 166 N 19.0329 -6.92753 -0.0810331 0
M  V30 167 N 20.8259 -5.61588 -0.239925 0
M  V30 168 H 12.9769 -1.91411 0.92062 0
M  V30 169 H 15.2399 -0.879562 0.353659 0
M  V30 170 H 14.9459 -3.43729 0.744512 0
M  V30 171 H 14.8199 -3.63865 -0.994097 0
M  V30 172 H 17.2069 -2.67779 -1.24009 0
M  V30 173 H 17.2879 -2.5048 0.51898 0
M  V30 174 H 16.9319 -5.02174 0.760519 0
M  V30 175 H 16.8619 -5.16752 -1.01364 0
M  V30 176 H 19.3529 -3.76481 -0.327217 0
M  V30 177 H 19.6659 -7.72787 -0.0440241 0
M  V30 178 H 18.0109 -6.94984 -0.0465419 0
M  V30 179 H 21.2019 -4.66996 -0.321317 0
M  V30 180 H 21.3749 -6.47714 -0.192407 0
M  V30 181 N 14.781 0.264519 -1.55364 0
M  V30 182 C 15.728 1.32717 -1.88825 0
M  V30 183 C 16.698 1.48675 -0.740605 0
M  V30 184 O 17.883 1.62945 -0.992657 0
M  V30 185 C 15.023 2.68089 -2.17307 0
M  V30 186 C 14.136 2.60284 -3.44785 0
M  V30 187 C 13.271 3.87892 -3.62924 0
M  V30 188 C 12.31 3.74631 -4.84064 0
M  V30 189 N 11.447 4.94092 -4.98816 0
M  V30 190 H 16.287 1.03481 -2.79456 0
M  V30 191 H 13.824 0.499757 -1.3835 0
M  V30 192 H 15.782 3.46864 -2.31821 0
M  V30 193 H 14.412 2.95509 -1.299 0
M  V30 194 H 13.464 1.73173 -3.38697 0
M  V30 195 H 14.776 2.46388 -4.33698 0
M  V30 196 H 13.93 4.75109 -3.77302 0
M  V30 197 H 12.669 4.04664 -2.7221 0
M  V30 198 H 11.674 2.85797 -4.69681 0
M  V30 199 H 12.899 3.5937 -5.76221 0
M  V30 200 H 10.845 5.11259 -4.11036 0
M  V30 201 H 10.762 4.8276 -5.81789 0
M  V30 202 H 12.03 5.82857 -5.17588 0
M  V30 203 N 16.2591 1.48442 0.529413 0
M  V30 204 C 17.1891 1.65902 1.64313 0
M  V30 205 C 18.1701 0.507897 1.6234 0
M  V30 206 O 19.3551 0.740503 1.79528 0
M  V30 207 C 16.4851 1.69911 3.02898 0
M  V30 208 C 15.4391 2.8453 3.19729 0
M  V30 209 C 14.7651 2.73629 4.59381 0
M  V30 210 C 16.0651 4.25821 3.02447 0
M  V30 211 H 17.7591 2.5914 1.49955 0
M  V30 212 H 15.3051 1.24709 0.719982 0
M  V30 213 H 17.2581 1.80715 3.80684 0
M  V30 214 H 15.9821 0.732524 3.18279 0
M  V30 215 H 14.6411 2.73283 2.44361 0
M  V30 216 H 14.2891 1.74938 4.71599 0
M  V30 217 H 13.9891 3.50541 4.71588 0
M  V30 218 H 15.5131 2.86401 5.39265 0
M  V30 219 H 16.9271 4.37898 3.70024 0
M  V30 220 H 15.3241 5.03735 3.26146 0
M  V30 221 H 16.3941 4.42244 1.98867 0
M  V30 222 N 17.7372 -0.778329 1.37039 0
M  V30 223 C 18.9842 -1.53665 1.31884 0
M  V30 224 C 19.3122 -1.9425 -0.0986303 0
M  V30 225 O 18.5672 -1.63832 -1.07041 0
M  V30 226 C 18.8662 -2.81845 2.19768 0
M  V30 227 C 18.5322 -2.60345 3.68146 0
M  V30 228 C 17.1942 -2.5419 4.08584 0
M  V30 229 C 19.5462 -2.40923 4.62175 0
M  V30 230 C 16.8742 -2.26594 5.41177 0
M  V30 231 C 19.2262 -2.14852 5.94997 0
M  V30 232 C 17.8902 -2.07137 6.34547 0
M  V30 233 H 17.1602 -0.562299 0.482598 0
M  V30 234 H 19.8072 -0.897069 1.69189 0
M  V30 235 H 18.1122 -3.50328 1.75436 0
M  V30 236 H 19.8092 -3.39692 2.13097 0
M  V30 237 H 16.3992 -2.65996 3.36072 0
M  V30 238 H 20.5832 -2.44673 4.31797 0
M  V30 239 H 15.8392 -2.19111 5.70789 0
M  V30 240 H 20.0132 -1.98822 6.67415 0
M  V30 241 H 17.6402 -1.85518 7.37216 0
M  V30 242 N 19.2153 -1.21501 -1.00376 0
M  V30 243 C 20.4643 -1.02718 -1.73586 0
M  V30 244 C 20.7773 0.439589 -1.90596 0
M  V30 245 O 21.9833 0.746848 -2.61026 0
M  V30 246 C 20.4393 -1.78929 -3.1227 0
M  V30 247 C 20.0473 -3.29783 -3.03228 0
M  V30 248 C 21.7913 -1.68557 -3.89601 0
M  V30 249 C 19.6983 -3.98479 -4.36999 0
M  V30 250 H 18.6283 -0.380733 -0.650814 0
M  V30 251 H 21.2793 -1.45248 -1.1214 0
M  V30 252 H 19.6613 -1.29192 -3.74333 0
M  V30 253 H 20.8353 -3.86832 -2.50395 0
M  V30 254 H 19.1503 -3.40711 -2.39385 0
M  V30 255 H 21.7473 -2.17211 -4.88593 0
M  V30 256 H 22.0903 -0.644021 -4.11288 0
M  V30 257 H 22.6233 -2.15778 -3.34193 0
M  V30 258 H 19.3623 -5.02841 -4.20513 0
M  V30 259 H 18.8823 -3.46219 -4.89788 0
M  V30 260 H 20.5613 -4.03462 -5.05794 0
M  V30 261 N 20.6934 1.19889 -1.02296 0
M  V30 262 C 22.1094 1.41462 -0.738954 0
M  V30 263 C 22.3094 1.89721 0.678846 0
M  V30 264 O 21.3654 2.07016 1.4457 0
M  V30 265 C 22.6784 2.43083 -1.77005 0
M  V30 266 C 24.2264 2.5684 -1.78892 0
M  V30 267 C 24.7014 3.61709 -2.80945 0
M  V30 268 N 26.1924 3.69199 -2.79725 0
M  V30 269 C 26.9274 4.50019 -3.55345 0
M  V30 270 N 26.4234 5.34592 -4.40662 0
M  V30 271 N 28.2164 4.44612 -3.43914 0
M  V30 272 H 20.3674 0.868827 -1.93817 0
M  V30 273 H 22.6304 0.44399 -0.837602 0
M  V30 274 H 22.3364 2.14636 -2.78612 0
M  V30 275 H 22.2104 3.4217 -1.58744 0
M  V30 276 H 24.5974 2.84614 -0.779674 0
M  V30 277 H 24.6784 1.57927 -2.01228 0
M  V30 278 H 24.3224 3.34678 -3.82038 0
M  V30 279 H 24.2524 4.60259 -2.5587 0
M  V30 280 H 26.7434 3.08794 -2.17842 0
M  V30 281 H 27.0564 5.93363 -4.95116 0
M  V30 282 H 25.4014 5.34073 -4.44737 0
M  V30 283 H 28.5924 3.7758 -2.76679 0
M  V30 284 H 28.7654 5.0736 -4.031 0
M  V30 285 N 22.1715 0.800033 1.35784 0
M  V30 286 C 23.3965 0.388511 2.03729 0
M  V30 287 C 23.8215 -0.990481 1.5991 0
M  V30 288 O 23.1795 -1.64013 0.772612 0
M  V30 289 C 23.2275 0.4726 3.5749 0
M  V30 290 O 22.3315 -0.51646 4.09153 0
M  V30 291 H 21.6725 0.163271 0.643614 0
M  V30 292 H 24.2025 1.0841 1.73518 0
M  V30 293 H 24.2125 0.34003 4.06581 0
M  V30 294 H 22.8875 1.47848 3.88734 0
M  V30 295 H 21.4645 -0.344673 3.71304 0
M  V30 296 N 23.6496 -1.47581 0.552962 0
M  V30 297 C 24.5826 -2.26883 -0.244857 0
M  V30 298 C 25.5606 -1.33784 -0.924147 0
M  V30 299 O 26.7446 -1.6316 -0.943981 0
M  V30 300 C 23.8716 -3.10695 -1.34856 0
M  V30 301 C 22.9176 -4.19339 -0.778268 0
M  V30 302 S 23.7506 -5.34207 0.37184 0
M  V30 303 C 24.9066 -6.21584 -0.733779 0
M  V30 304 H 25.1396 -2.94202 0.428087 0
M  V30 305 H 22.6726 -1.50628 0.339197 0
M  V30 306 H 24.6306 -3.59555 -1.98066 0
M  V30 307 H 23.2916 -2.42746 -1.99332 0
M  V30 308 H 22.4846 -4.77695 -1.60696 0
M  V30 309 H 22.0866 -3.73338 -0.222422 0
M  V30 310 H 24.3786 -6.57676 -1.62692 0
M  V30 311 H 25.3216 -7.07851 -0.187668 0
M  V30 312 H 25.7296 -5.55125 -1.02454 0
M  V30 313 N 25.1277 -0.289203 -1.54924 0
M  V30 314 C 26.3757 0.322879 -1.99504 0
M  V30 315 C 26.6967 1.55313 -1.1791 0
M  V30 316 O 25.9667 1.94001 -0.272097 0
M  V30 317 H 24.5467 0.122291 -0.736922 0
M  V30 318 H 27.2087 -0.397802 -1.90797 0
M  V30 319 H 26.3047 0.603061 -3.06218 0
M  V30 320 N 26.6058 1.57591 -0.0167156 0
M  V30 321 C 27.5158 2.1291 0.98521 0
M  V30 322 C 28.5318 1.07834 1.36557 0
M  V30 323 O 29.7078 1.39826 1.44951 0
M  V30 324 C 26.7728 2.63512 2.25305 0
M  V30 325 C 25.8338 3.83256 1.93426 0
M  V30 326 C 25.0668 4.31435 3.14165 0
M  V30 327 O 25.2898 3.78851 4.26413 0
M  V30 328 O 24.2238 5.23416 2.97186 0
M  V30 329 H 28.0498 2.98772 0.544888 0
M  V30 330 H 25.6348 1.48012 0.203141 0
M  V30 331 H 27.5168 2.96183 2.99756 0
M  V30 332 H 26.1918 1.8074 2.68542 0
M  V30 333 H 25.0988 3.55531 1.16398 0
M  V30 334 H 26.4318 4.67153 1.55013 0
M  V30 335 N 28.0839 -0.256276 1.55502 0
M  V30 336 C 29.3319 -0.983672 1.76545 0
M  V30 337 C 29.6529 -1.86206 0.578982 0
M  V30 338 O 28.9229 -1.91656 -0.405577 0
M  V30 339 H 27.5029 -0.366191 0.651086 0
M  V30 340 H 30.1649 -0.276479 1.92929 0
M  V30 341 H 29.2609 -1.61087 2.67315 0
M  V30 342 N 29.562 -1.4872 -0.521534 0
M  V30 343 C 30.79 -1.60843 -1.30142 0
M  V30 344 C 31.205 -0.271897 -1.86832 0
M  V30 345 O 30.562 0.739969 -1.66825 0
M  V30 346 C 30.613 -2.66155 -2.4463 0
M  V30 347 O 30.334 -3.94623 -1.90275 0
M  V30 348 C 31.835 -2.88795 -3.36322 0
M  V30 349 H 29.055 -0.542075 -0.395468 0
M  V30 350 H 31.599 -1.94609 -0.628285 0
M  V30 351 H 29.754 -2.35224 -3.07812 0
M  V30 352 H 30.168 -4.52468 -2.65279 0
M  V30 353 H 31.642 -3.66264 -4.12983 0
M  V30 354 H 32.119 -1.97934 -3.9207 0
M  V30 355 H 32.725 -3.21063 -2.78924 0
M  V30 356 N 31.0401 0.771051 -1.3745 0
M  V30 357 C 32.2891 1.52491 -1.3202 0
M  V30 358 C 32.6021 1.9538 0.0927347 0
M  V30 359 O 33.8081 2.70159 0.269503 0
M  V30 360 C 32.2641 2.75366 -2.31736 0
M  V30 361 C 31.8721 2.39573 -3.78562 0
M  V30 362 C 33.6161 3.53307 -2.35318 0
M  V30 363 C 31.5231 3.58954 -4.70007 0
M  V30 364 H 30.4531 0.572506 -0.490666 0
M  V30 365 H 33.1041 0.844474 -1.62914 0
M  V30 366 H 31.4861 3.45303 -1.93861 0
M  V30 367 H 32.6601 1.77415 -4.25277 0
M  V30 368 H 30.9751 1.74805 -3.77932 0
M  V30 369 H 33.5721 4.42039 -3.00842 0
M  V30 370 H 33.9151 3.93217 -1.36698 0
M  V30 371 H 34.4481 2.90367 -2.71904 0
M  V30 372 H 31.1871 3.24125 -5.69757 0
M  V30 373 H 30.7071 4.20214 -4.27996 0
M  V30 374 H 32.3861 4.25758 -4.87175 0
M  V30 375 N 32.5182 1.22032 0.997298 0
M  V30 376 C 33.4662 0.983634 2.10778 0
M  V30 377 C 34.4602 -0.0717564 1.69248 0
M  V30 378 O 35.6662 0.080304 1.79821 0
M  V30 379 H 32.0412 0.300877 0.689186 0
M  V30 380 H 34.0122 1.92606 2.27916 0
M  V30 381 C 32.7612 0.57326 3.42942 0
M  V30 382 H 32.0842 1.37702 3.75338 0
M  V30 383 H 33.5242 0.447031 4.21637 0
M  V30 384 C 31.9832 -0.7167 3.29188 0
M  V30 385 O 32.5132 -1.77027 3.60589 0
M  V30 386 N 30.7192 -0.686167 2.82383 0
M  V30 387 H 30.2662 0.171507 2.57028 0
M  V30 388 H 30.2242 -1.54955 2.73562 0
M  V30 389 N 33.9963 -1.19345 1.0293 0
M  V30 390 C 35.2443 -1.88665 0.724574 0
M  V30 391 C 35.5653 -1.80036 -0.749144 0
M  V30 392 O 34.8353 -1.2111 -1.53978 0
M  V30 393 H 33.4153 -0.698406 0.265025 0
M  V30 394 H 36.0773 -1.44885 1.30362 0
M  V30 395 H 35.1733 -2.94987 1.01926 0
M  V30 396 N 35.4744 -0.807222 -1.35358 0
M  V30 397 C 36.4044 -0.232509 -2.3234 0
M  V30 398 C 37.3854 0.642386 -1.57504 0
M  V30 399 O 38.5704 0.572526 -1.85569 0
M  V30 400 C 35.7004 0.619238 -3.41735 0
M  V30 401 C 34.6544 -0.157215 -4.27711 0
M  V30 402 C 33.9804 0.816273 -5.28433 0
M  V30 403 C 35.2804 -1.35656 -5.04376 0
M  V30 404 H 36.9744 -1.04276 -2.80654 0
M  V30 405 H 34.5204 -0.50288 -1.34934 0
M  V30 406 H 36.4734 1.03137 -4.08584 0
M  V30 407 H 35.1974 1.46239 -2.92031 0
M  V30 408 H 33.8564 -0.550525 -3.62443 0
M  V30 409 H 33.5044 1.65494 -4.74996 0
M  V30 410 H 33.2044 0.301067 -5.86828 0
M  V30 411 H 34.7284 1.22659 -5.98153 0
M  V30 412 H 36.1424 -1.01927 -5.64166 0
M  V30 413 H 34.5394 -1.8063 -5.7227 0
M  V30 414 H 35.6094 -2.14288 -4.34981 0
M  V30 415 N 36.9525 1.47285 -0.560781 0
M  V30 416 C 37.8825 2.32857 0.173105 0
M  V30 417 C 38.8635 1.44009 0.905281 0
M  V30 418 O 40.0485 1.7286 0.885046 0
M  V30 419 C 37.1785 3.25861 1.20133 0
M  V30 420 C 36.1325 4.23978 0.585388 0
M  V30 421 C 35.4585 5.06332 1.7185 0
M  V30 422 C 36.7585 5.20242 -0.463178 0
M  V30 423 H 38.4525 2.94466 -0.541307 0
M  V30 424 H 35.9985 1.41601 -0.261764 0
M  V30 425 H 37.9515 3.84569 1.72293 0
M  V30 426 H 36.6755 2.62315 1.94573 0
M  V30 427 H 35.3345 3.66501 0.085054 0
M  V30 428 H 34.9825 4.39186 2.45203 0
M  V30 429 H 34.6825 5.72762 1.31213 0
M  V30 430 H 36.2065 5.67899 2.24329 0
M  V30 431 H 37.6205 5.73293 -0.027502 0
M  V30 432 H 36.0175 5.94896 -0.788627 0
M  V30 433 H 37.0875 4.65504 -1.35773 0
M  V30 434 N 38.4306 0.297415 1.54768 0
M  V30 435 C 39.7076 -0.365847 1.92148 0
M  V30 436 C 40.0876 -1.71975 1.22424 0
M  V30 437 O 39.4356 -2.25666 0.358739 0
M  V30 438 C 39.6456 -0.484056 3.45627 0
M  V30 439 C 40.9936 -0.756594 4.17805 0
M  V30 440 O 42.0176 -0.568007 3.51642 0
M  V30 441 O 40.8766 -1.11863 5.34929 0
M  V30 442 H 37.9706 -0.203919 0.801465 0
M  V30 443 H 40.5166 0.34521 1.66152 0
M  V30 444 H 39.2886 0.467865 3.88493 0
M  V30 445 H 38.9116 -1.24372 3.77647 0
M  V30 446 N 39.9087 -1.5758 0.0250728 0
M  V30 447 C 40.8187 -2.1343 -0.973905 0
M  V30 448 C 41.8347 -1.08556 -1.35984 0
M  V30 449 O 43.0107 -1.40592 -1.44207 0
M  V30 450 C 40.0757 -2.64703 -2.23904 0
M  V30 451 C 39.1367 -3.84276 -1.91391 0
M  V30 452 C 38.3697 -4.33095 -3.11873 0
M  V30 453 O 38.5927 -3.81107 -4.24398 0
M  V30 454 O 37.5267 -5.24984 -2.94406 0
M  V30 455 H 41.3527 -2.99057 -0.529036 0
M  V30 456 H 38.9377 -1.48118 -0.195288 0
M  V30 457 H 40.8197 -2.97769 -2.98181 0
M  V30 458 H 39.4947 -1.82161 -2.6758 0
M  V30 459 H 38.4017 -3.56143 -1.14511 0
M  V30 460 H 39.7347 -4.67968 -1.52534 0
M  V30 461 N 41.3868 0.248026 -1.55636 0
M  V30 462 C 42.3168 1.31079 -1.93237 0
M  V30 463 C 43.2978 1.50264 -0.797174 0
M  V30 464 O 44.4828 1.62891 -1.05737 0
M  V30 465 C 41.6128 2.66575 -2.22609 0
M  V30 466 C 40.5668 2.62087 -3.3837 0
M  V30 467 C 39.8928 4.01369 -3.53281 0
M  V30 468 C 41.1928 2.19171 -4.7409 0
M  V30 469 H 42.8868 0.998556 -2.82257 0
M  V30 470 H 40.4328 0.47891 -1.35803 0
M  V30 471 H 42.3858 3.41057 -2.47503 0
M  V30 472 H 41.1098 2.99432 -1.30414 0
M  V30 473 H 39.7688 1.90063 -3.13483 0
M  V30 474 H 39.4168 4.31489 -2.58508 0
M  V30 475 H 39.1168 3.99254 -4.31127 0
M  V30 476 H 40.6408 4.77552 -3.80495 0
M  V30 477 H 42.0548 2.83384 -4.98363 0
M  V30 478 H 40.4518 2.2817 -5.5503 0
M  V30 479 H 41.5218 1.14336 -4.71227 0
M  V30 480 N 42.8649 1.48995 0.513639 0
M  V30 481 C 43.7949 1.67636 1.62544 0
M  V30 482 C 44.7759 0.525087 1.61793 0
M  V30 483 O 45.9609 0.759502 1.78732 0
M  V30 484 C 43.0909 1.73114 3.01079 0
M  V30 485 C 42.0449 2.87905 3.16693 0
M  V30 486 C 41.3709 2.78486 4.56453 0
M  V30 487 C 42.6709 4.29005 2.97913 0
M  V30 488 H 44.3649 2.60716 1.47198 0
M  V30 489 H 41.9109 1.25465 0.706714 0
M  V30 490 H 43.8639 1.84742 3.78746 0
M  V30 491 H 42.5879 0.766241 3.17484 0
M  V30 492 H 41.2469 2.75859 2.41448 0
M  V30 493 H 40.8949 1.7993 4.69717 0
M  V30 494 H 40.5949 3.55523 4.67843 0
M  V30 495 H 42.1189 2.92104 5.36197 0
M  V30 496 H 43.5329 4.41798 3.65359 0
M  V30 497 H 41.9299 5.07166 3.20785 0
M  V30 498 H 42.9999 4.44329 1.94165 0
M  V30 499 N 44.343 -0.763751 1.37857 0
M  V30 500 C 45.275 -1.88664 1.30148 0
M  V30 501 C 46.288 -1.61365 0.215685 0
M  V30 502 O 47.477 -1.72134 0.472459 0
M  V30 503 C 44.577 -3.24075 0.991396 0
M  V30 504 C 43.75 -3.78958 2.18426 0
M  V30 505 C 42.809 -4.92862 1.8432 0
M  V30 506 O 41.835 -5.08027 2.56704 0
M  V30 507 N 43.037 -5.75071 0.792081 0
M  V30 508 H 45.802 -1.95791 2.26905 0
M  V30 509 H 43.363 -0.943226 1.31586 0
M  V30 510 H 45.355 -3.97804 0.743935 0
M  V30 511 H 43.925 -3.12399 0.112122 0
M  V30 512 H 43.145 -2.96913 2.59299 0
M  V30 513 H 44.433 -4.12357 2.98058 0
M  V30 514 H 43.831 -5.65375 0.191595 0
M  V30 515 H 42.388 -6.48991 0.60449 0
M  V30 516 N 45.8211 -1.22559 -0.990812 0
M  V30 517 C 47.0491 -1.07779 -1.76611 0
M  V30 518 C 47.4641 0.371513 -1.85109 0
M  V30 519 O 46.8211 1.25737 -1.32274 0
M  V30 520 C 46.8721 -1.68512 -3.19822 0
M  V30 521 O 46.5931 -3.07774 -3.1178 0
M  V30 522 C 48.0941 -1.59035 -4.13791 0
M  V30 523 H 45.3141 -0.377729 -0.554583 0
M  V30 524 H 47.8581 -1.62195 -1.24551 0
M  V30 525 H 46.0131 -1.18154 -3.68942 0
M  V30 526 H 46.4271 -3.37062 -4.01858 0
M  V30 527 H 47.9011 -2.0625 -5.1202 0
M  V30 528 H 48.3781 -0.547273 -4.35777 0
M  V30 529 H 48.9841 -2.08709 -3.70568 0
M  V30 530 N 47.2992 1.18797 -1.03562 0
M  V30 531 C 48.7152 1.40671 -0.753917 0
M  V30 532 C 48.9152 1.9043 0.658686 0
M  V30 533 O 47.9712 2.08538 1.42366 0
M  V30 534 C 49.2842 2.41192 -1.79574 0
M  V30 535 C 50.8322 2.54928 -1.81606 0
M  V30 536 C 51.3072 3.58709 -2.84766 0
M  V30 537 N 52.7982 3.66212 -2.83625 0
M  V30 538 C 53.5332 4.46225 -3.60098 0
M  V30 539 N 53.0292 5.29888 -4.46308 0
M  V30 540 N 54.8222 4.40939 -3.4861 0
M  V30 541 H 46.9732 0.848221 -1.94728 0
M  V30 542 H 49.2362 0.435081 -0.842264 0
M  V30 543 H 48.9422 2.11669 -2.80872 0
M  V30 544 H 48.8162 3.40467 -1.62365 0
M  V30 545 H 51.2032 2.83771 -0.809817 0
M  V30 546 H 51.2842 1.55784 -2.02891 0
M  V30 547 H 50.9282 3.30607 -3.85566 0
M  V30 548 H 50.8582 4.57519 -2.60737 0
M  V30 549 H 53.3492 3.06466 -2.21105 0
M  V30 550 H 53.6622 5.88078 -5.01382 0
M  V30 551 H 52.0072 5.29326 -4.50377 0
M  V30 552 H 55.1982 3.74624 -2.80668 0
M  V30 553 H 55.3712 5.03056 -4.08459 0
M  V30 554 N 48.7773 0.814389 1.34928 0
M  V30 555 C 50.0233 0.399013 1.98836 0
M  V30 556 C 50.3563 -1.03314 1.64438 0
M  V30 557 O 49.6313 -1.71811 0.911659 0
M  V30 558 C 49.9143 0.591629 3.55207 0
M  V30 559 C 49.7673 2.06928 3.99376 0
M  V30 560 C 51.0863 0.022199 4.40094 0
M  V30 561 H 48.2053 0.146451 0.722303 0
M  V30 562 H 50.8473 1.02537 1.59957 0
M  V30 563 H 48.9973 0.0584441 3.88456 0
M  V30 564 H 50.6693 2.66544 3.76499 0
M  V30 565 H 48.9123 2.56287 3.49999 0
M  V30 566 H 49.5833 2.1549 5.08201 0
M  V30 567 H 52.0593 0.477643 4.13349 0
M  V30 568 H 50.9353 0.186832 5.48582 0
M  V30 569 H 51.1963 -1.07215 4.28902 0
M  V30 570 N 50.2554 -1.46986 0.568584 0
M  V30 571 C 51.1854 -2.32946 -0.160753 0
M  V30 572 C 52.1664 -1.44487 -0.897631 0
M  V30 573 O 53.3514 -1.73327 -0.875867 0
M  V30 574 C 50.4814 -3.26494 -1.18403 0
M  V30 575 C 49.4354 -4.24282 -0.562895 0
M  V30 576 C 48.7614 -5.07236 -1.69163 0
M  V30 577 C 50.0614 -5.19989 0.490761 0
M  V30 578 H 51.7554 -2.94175 0.556916 0
M  V30 579 H 49.3014 -1.4146 0.26927 0
M  V30 580 H 51.2544 -3.85477 -1.70251 0
M  V30 581 H 49.9784 -2.63343 -1.93179 0
M  V30 582 H 48.6374 -3.66541 -0.0656164 0
M  V30 583 H 48.2854 -4.4048 -2.42871 0
M  V30 584 H 47.9854 -5.7345 -1.28174 0
M  V30 585 H 49.5094 -5.6908 -2.21314 0
M  V30 586 H 50.9234 -5.73271 0.0579047 0
M  V30 587 H 49.3204 -5.94469 0.820165 0
M  V30 588 H 50.3904 -4.64777 1.3824 0
M  V30 589 N 51.7335 -0.305618 -1.54608 0
M  V30 590 C 52.6815 0.584119 -2.25146 0
M  V30 591 C 53.6755 1.13326 -1.25911 0
M  V30 592 O 54.8815 1.08337 -1.43747 0
M  V30 593 H 51.2565 0.206983 -0.722954 0
M  V30 594 H 53.2275 -0.033291 -2.98381 0
M  V30 595 C 51.9765 1.74225 -3.009 0
M  V30 596 H 51.2995 1.32892 -3.77067 0
M  V30 597 H 52.7395 2.34077 -3.53531 0
M  V30 598 C 51.1985 2.64914 -2.0814 0
M  V30 599 O 51.7285 3.66137 -1.65246 0
M  V30 600 N 49.9345 2.3275 -1.74 0
M  V30 601 H 49.4815 1.50479 -2.09078 0
M  V30 602 H 49.4395 2.93694 -1.12211 0
M  V30 603 N 53.2116 1.57565 -0.0334293 0
M  V30 604 C 54.1586 2.10478 0.946981 0
M  V30 605 C 55.1286 1.00787 1.32027 0
M  V30 606 O 56.3136 1.28232 1.41284 0
M  V30 607 C 53.4536 2.63994 2.22263 0
M  V30 608 C 52.5666 3.87709 1.90541 0
M  V30 609 C 51.7016 4.29604 3.12433 0
M  V30 610 C 50.7406 5.46065 2.76549 0
M  V30 611 N 49.8776 5.83096 3.9108 0
M  V30 612 H 54.7176 2.93963 0.488846 0
M  V30 613 H 52.2546 1.45296 0.22969 0
M  V30 614 H 54.2126 2.93114 2.96884 0
M  V30 615 H 52.8426 1.83333 2.65685 0
M  V30 616 H 51.8946 3.65291 1.06144 0
M  V30 617 H 53.2066 4.72403 1.60116 0
M  V30 618 H 52.3606 4.60182 3.9537 0
M  V30 619 H 51.0996 3.43685 3.46023 0
M  V30 620 H 50.1046 5.15176 1.92026 0
M  V30 621 H 51.3296 6.33685 2.44171 0
M  V30 622 H 49.2756 5.00132 4.24504 0
M  V30 623 H 49.1926 6.6244 3.64293 0
M  V30 624 H 50.4606 6.18282 4.74708 0
M  V30 625 N 54.6897 -0.239769 1.55765 0
M  V30 626 C 55.5997 -1.31831 1.94056 0
M  V30 627 C 56.6157 -1.52275 0.841925 0
M  V30 628 O 57.7917 -1.65759 1.14394 0
M  V30 629 C 54.8567 -2.65156 2.23368 0
M  V30 630 C 53.9177 -2.53173 3.46701 0
M  V30 631 C 53.1507 -3.8014 3.74606 0
M  V30 632 O 53.3737 -4.82343 3.04469 0
M  V30 633 O 52.3077 -3.78344 4.68123 0
M  V30 634 H 56.1337 -1.02347 2.85935 0
M  V30 635 H 53.7187 -0.441123 1.42739 0
M  V30 636 H 55.6007 -3.43929 2.43497 0
M  V30 637 H 54.2757 -2.94358 1.34666 0
M  V30 638 H 53.1827 -1.72662 3.31871 0
M  V30 639 H 54.5157 -2.28915 4.35728 0
M  V30 640 N 56.1678 -1.49265 -0.50573 0
M  V30 641 C 57.0778 -1.68312 -1.63427 0
M  V30 642 C 58.0938 -0.565682 -1.64548 0
M  V30 643 O 59.2698 -0.839801 -1.83055 0
M  V30 644 C 56.3348 -1.74107 -2.99813 0
M  V30 645 C 55.3958 -2.97653 -3.09356 0
M  V30 646 C 54.6288 -3.03163 -4.39236 0
M  V30 647 O 54.8518 -2.16396 -5.27758 0
M  V30 648 O 53.7858 -3.9558 -4.53652 0
M  V30 649 H 57.6118 -2.63907 -1.50289 0
M  V30 650 H 55.1968 -1.32951 -0.681502 0
M  V30 651 H 57.0788 -1.803 -3.80881 0
M  V30 652 H 55.7538 -0.816901 -3.13223 0
M  V30 653 H 54.6608 -2.96981 -2.27493 0
M  V30 654 H 55.9938 -3.89535 -3.00871 0
M  V30 655 N 57.6459 0.756429 -1.3826 0
M  V30 656 C 58.5789 1.87802 -1.29637 0
M  V30 657 C 59.5569 1.61667 -0.173939 0
M  V30 658 O 60.7409 1.85208 -0.350775 0
M  V30 659 C 57.8679 3.23354 -1.00797 0
M  V30 660 C 56.9139 3.68379 -2.14939 0
M  V30 661 S 57.7469 3.8025 -3.77054 0
M  V30 662 C 58.9029 5.18626 -3.50396 0
M  V30 663 H 59.1359 1.94829 -2.24564 0
M  V30 664 H 56.6689 0.919117 -1.24063 0
M  V30 665 H 58.6269 4.01637 -0.848413 0
M  V30 666 H 57.2879 3.14008 -0.0759369 0
M  V30 667 H 56.4809 4.66693 -1.90299 0
M  V30 668 H 56.0829 2.97242 -2.26988 0
M  V30 669 H 58.3749 6.04289 -3.06334 0
M  V30 670 H 59.3179 5.48286 -4.48094 0
M  V30 671 H 59.7259 4.87289 -2.84973 0
M  V30 672 N 59.124 1.23083 0.984299 0
M  V30 673 C 60.034 1.02515 2.11016 0
M  V30 674 C 61.05 -0.0291702 1.73976 0
M  V30 675 O 62.226 0.165434 2.00719 0
M  V30 676 C 59.291 0.614673 3.41208 0
M  V30 677 C 58.352 1.74359 3.92297 0
M  V30 678 C 57.585 1.35261 5.16275 0
M  V30 679 O 57.808 0.235136 5.69915 0
M  V30 680 O 56.742 2.17227 5.61334 0
M  V30 681 H 60.568 1.96862 2.31255 0
M  V30 682 H 58.153 1.01753 1.09392 0
M  V30 683 H 60.035 0.396518 4.1953 0
M  V30 684 H 58.71 -0.299851 3.22308 0
M  V30 685 H 57.617 2.01635 3.1511 0
M  V30 686 H 58.95 2.63629 4.15645 0
M  V30 687 N 60.6021 -1.18246 1.0419 0
M  V30 688 C 61.5491 -2.2192 0.634037 0
M  V30 689 C 62.5191 -1.62179 -0.358765 0
M  V30 690 O 63.7041 -1.89122 -0.252466 0
M  V30 691 C 60.8441 -3.451 0.00445535 0
M  V30 692 C 59.9571 -4.19174 1.04487 0
M  V30 693 C 59.0921 -5.29813 0.383676 0
M  V30 694 C 58.1311 -5.9566 1.4091 0
M  V30 695 N 57.2681 -6.97834 0.772784 0
M  V30 696 H 62.1081 -2.56164 1.52263 0
M  V30 697 H 59.6451 -1.25843 0.761701 0
M  V30 698 H 61.6031 -4.15485 -0.377919 0
M  V30 699 H 60.2331 -3.11472 -0.847652 0
M  V30 700 H 59.2851 -3.47604 1.54518 0
M  V30 701 H 60.5971 -4.64267 1.82368 0
M  V30 702 H 59.7511 -6.06677 -0.0528366 0
M  V30 703 H 58.4901 -4.85825 -0.427208 0
M  V30 704 H 57.4951 -5.17535 1.85574 0
M  V30 705 H 58.7201 -6.4173 2.22171 0
M  V30 706 H 56.6661 -6.55998 -0.0177708 0
M  V30 707 H 56.5831 -7.41186 1.48928 0
M  V30 708 H 57.8511 -7.78665 0.36071 0
M  V30 709 N 62.0802 -0.821533 -1.34494 0
M  V30 710 C 63.3262 -0.409552 -1.98622 0
M  V30 711 C 63.6592 1.0244 -1.64984 0
M  V30 712 O 62.9342 1.71325 -0.920758 0
M  V30 713 C 63.2172 -0.610458 -3.54888 0
M  V30 714 C 63.0702 -2.09043 -3.98273 0
M  V30 715 C 64.3892 -0.0455379 -4.40076 0
M  V30 716 H 61.5082 -0.15028 -0.721516 0
M  V30 717 H 64.1502 -1.03384 -1.59411 0
M  V30 718 H 62.3002 -0.079044 -3.8842 0
M  V30 719 H 63.9722 -2.68537 -3.75081 0
M  V30 720 H 62.2152 -2.58139 -3.48635 0
M  V30 721 H 62.8862 -2.18182 -5.07051 0
M  V30 722 H 65.3622 -0.499557 -4.1309 0
M  V30 723 H 64.2382 -0.215922 -5.48475 0
M  V30 724 H 64.4992 1.04939 -4.29465 0
M  V30 725 N 63.5583 1.46682 -0.576371 0
M  V30 726 C 64.5053 2.30241 0.160499 0
M  V30 727 C 65.4753 1.40233 0.890162 0
M  V30 728 O 66.6603 1.69186 0.882084 0
M  V30 729 C 63.8003 3.24578 1.1723 0
M  V30 730 C 62.9133 4.29684 0.446736 0
M  V30 731 C 62.0483 5.11154 1.44551 0
M  V30 732 C 61.0873 6.08015 0.70599 0
M  V30 733 N 60.2243 6.82376 1.65251 0
M  V30 734 H 65.0643 2.92727 -0.558127 0
M  V30 735 H 62.6013 1.44272 -0.287056 0
M  V30 736 H 64.5593 3.77711 1.77172 0
M  V30 737 H 63.1893 2.63916 1.85872 0
M  V30 738 H 62.2413 3.79458 -0.267594 0
M  V30 739 H 63.5533 4.98626 -0.131686 0
M  V30 740 H 62.7073 5.68533 2.11791 0
M  V30 741 H 61.4463 4.42158 2.05786 0
M  V30 742 H 60.4513 5.49796 0.0197725 0
M  V30 743 H 61.6763 6.79028 0.09912 0
M  V30 744 H 59.6223 6.16094 2.25308 0
M  V30 745 H 59.5393 7.47556 1.12673 0
M  V30 746 H 60.8073 7.44316 2.31546 0
M  V30 747 N 65.0364 0.313813 1.54444 0
M  V30 748 C 66.4524 -0.0391619 1.59552 0
M  V30 749 C 66.6524 -1.51322 1.33056 0
M  V30 750 O 65.7084 -2.26782 1.11022 0
M  V30 751 C 67.0214 0.370302 2.98411 0
M  V30 752 C 68.5694 0.320139 3.11358 0
M  V30 753 C 69.0444 0.704617 4.52547 0
M  V30 754 N 70.5354 0.657645 4.58508 0
M  V30 755 C 71.2704 0.927453 5.6585 0
M  V30 756 N 70.7664 1.26389 6.81174 0
M  V30 757 N 72.5594 0.853662 5.5558 0
M  V30 758 H 64.7104 1.27433 1.69925 0
M  V30 759 H 66.9734 0.517511 0.794284 0
M  V30 760 H 66.6794 1.39694 3.22767 0
M  V30 761 H 66.5534 -0.269619 3.76235 0
M  V30 762 H 68.9404 -0.697275 2.86744 0
M  V30 763 H 69.0214 0.99486 2.35661 0
M  V30 764 H 68.6654 1.7199 4.77893 0
M  V30 765 H 68.5954 0.00768843 5.26599 0
M  V30 766 H 71.0864 0.409067 3.75679 0
M  V30 767 H 71.3994 1.4554 7.58972 0
M  V30 768 H 69.7444 1.30206 6.82694 0
M  V30 769 H 72.9354 0.590383 4.64362 0
M  V30 770 H 73.1084 1.0673 6.3915 0
M  V30 771 N 66.5145 -1.57545 0.0417849 0
M  V30 772 C 67.4245 -2.14451 -0.951213 0
M  V30 773 C 68.4405 -1.09992 -1.34825 0
M  V30 774 O 69.6165 -1.42114 -1.42708 0
M  V30 775 C 66.6815 -2.67063 -2.21084 0
M  V30 776 C 65.7425 -3.86284 -1.87304 0
M  V30 777 C 64.9755 -4.36378 -3.07261 0
M  V30 778 O 65.1985 -3.85587 -4.20332 0
M  V30 779 O 64.1325 -5.28077 -2.88822 0
M  V30 780 H 67.9585 -2.99601 -0.497287 0
M  V30 781 H 65.5435 -1.48317 -0.179567 0
M  V30 782 H 67.4255 -3.00914 -2.95006 0
M  V30 783 H 66.1005 -1.84989 -2.65633 0
M  V30 784 H 65.0075 -3.57338 -1.10727 0
M  V30 785 H 66.3405 -4.6956 -1.47562 0
M  V30 786 N 67.9926 0.231505 -1.5589 0
M  V30 787 C 68.9406 1.30649 -1.92441 0
M  V30 788 C 69.9346 1.49037 -0.805254 0
M  V30 789 O 71.1406 1.50329 -0.990007 0
M  V30 790 H 67.5156 0.437812 -0.611412 0
M  V30 791 H 69.4866 0.970973 -2.82161 0
M  V30 792 C 68.2356 2.65179 -2.24889 0
M  V30 793 H 67.5586 2.51835 -3.10514 0
M  V30 794 H 68.9986 3.39234 -2.54355 0
M  V30 795 C 67.4576 3.19439 -1.07054 0
M  V30 796 O 67.9876 4.00371 -0.326499 0
M  V30 797 N 66.1936 2.77675 -0.85703 0
M  V30 798 H 65.7406 2.11969 -1.46379 0
M  V30 799 H 65.6986 3.14321 -0.0703223 0
M  V30 800 N 69.4707 1.49531 0.497807 0
M  V30 801 C 70.4337 1.65916 1.58128 0
M  V30 802 C 71.4337 0.530825 1.51786 0
M  V30 803 O 72.6237 0.797342 1.54881 0
M  V30 804 C 69.7557 1.65951 2.9778 0
M  V30 805 H 70.9487 2.62556 1.44929 0
M  V30 806 H 68.5017 1.38611 0.722275 0
M  V30 807 H 69.2367 0.709065 3.16453 0
M  V30 808 H 69.0217 2.47897 3.03792 0
M  V30 809 H 70.5117 1.80673 3.76493 0
M  V30 810 N 70.9488 -0.749086 1.3866 0
M  V30 811 C 72.1768 -1.53834 1.38358 0
M  V30 812 C 72.5918 -1.88783 -0.0255219 0
M  V30 813 O 71.9488 -1.53101 -0.993292 0
M  V30 814 C 71.9998 -2.83468 2.2434 0
M  V30 815 O 71.7208 -2.50008 3.5976 0
M  V30 816 C 73.2218 -3.7758 2.32267 0
M  V30 817 H 70.4418 -0.47585 0.473083 0
M  V30 818 H 72.9858 -0.926726 1.82297 0
M  V30 819 H 71.1408 -3.40995 1.83851 0
M  V30 820 H 71.5548 -3.33182 4.05081 0
M  V30 821 H 73.0288 -4.65478 2.96706 0
M  V30 822 H 73.5058 -4.18334 1.33765 0
M  V30 823 H 74.1118 -3.25976 2.73166 0
M  V30 824 N 72.4269 -1.23603 -0.977757 0
M  V30 825 C 73.6729 -1.07129 -1.72195 0
M  V30 826 C 74.0059 0.390501 -1.90233 0
M  V30 827 O 73.2809 1.28902 -1.45653 0
M  V30 828 C 73.5639 -1.80031 -3.11867 0
M  V30 829 C 73.4169 -3.33899 -3.01383 0
M  V30 830 C 74.7359 -1.56492 -4.11337 0
M  V30 831 H 71.8549 -0.390571 -0.624999 0
M  V30 832 H 74.4969 -1.52142 -1.13811 0
M  V30 833 H 72.6469 -1.41768 -3.6171 0
M  V30 834 H 74.3189 -3.81699 -2.59043 0
M  V30 835 H 72.5619 -3.62796 -2.37827 0
M  V30 836 H 73.2329 -3.801 -4.00285 0
M  V30 837 H 75.7089 -1.89757 -3.70313 0
M  V30 838 H 74.5849 -2.09973 -5.07151 0
M  V30 839 H 74.8459 -0.500874 -4.39254 0
M  V30 840 N 73.905 1.17692 -1.04816 0
M  V30 841 C 74.838 2.20436 -0.590173 0
M  V30 842 C 75.816 1.58115 0.379244 0
M  V30 843 O 77 1.86228 0.291762 0
M  V30 844 C 74.127 3.38424 0.136817 0
M  V30 845 C 73.173 4.19176 -0.787023 0
M  V30 846 S 74.006 4.84815 -2.27409 0
M  V30 847 C 75.162 6.06195 -1.55817 0
M  V30 848 H 75.395 2.58944 -1.46067 0
M  V30 849 H 72.928 1.28246 -0.859784 0
M  V30 850 H 74.886 4.06798 0.550076 0
M  V30 851 H 73.547 2.98312 0.983299 0
M  V30 852 H 72.74 5.03499 -0.224681 0
M  V30 853 H 72.342 3.56219 -1.13947 0
M  V30 854 H 74.634 6.72078 -0.855387 0
M  V30 855 H 75.577 6.6695 -2.37873 0
M  V30 856 H 75.985 5.54701 -1.04722 0
M  V30 857 N 75.3831 0.828654 1.34056 0
M  V30 858 C 76.6601 0.341809 1.9259 0
M  V30 859 C 77.0401 -1.17158 1.75605 0
M  V30 860 O 76.3881 -1.98132 1.13824 0
M  V30 861 C 76.5981 0.777453 3.4023 0
M  V30 862 C 77.9461 0.779579 4.17382 0
M  V30 863 O 78.9701 0.7204 3.48839 0
M  V30 864 O 77.8291 0.857996 5.39723 0
M  V30 865 H 74.9231 0.0946085 0.821571 0
M  V30 866 H 77.4691 0.913827 1.42994 0
M  V30 867 H 76.2411 1.8196 3.46419 0
M  V30 868 H 75.8641 0.181444 3.97186 0
M  V30 869 N 76.8612 -1.46375 0.584142 0
M  V30 870 C 77.8082 -2.30323 -0.148286 0
M  V30 871 C 78.7782 -1.40703 -0.882713 0
M  V30 872 O 79.9632 -1.69651 -0.873099 0
M  V30 873 C 77.1032 -3.25196 -1.15507 0
M  V30 874 C 76.2162 -4.29915 -0.423943 0
M  V30 875 C 75.3512 -5.11914 -1.41838 0
M  V30 876 C 74.3902 -6.08381 -0.673736 0
M  V30 877 N 73.5272 -6.83242 -1.6163 0
M  V30 878 H 78.3672 -2.92427 0.573644 0
M  V30 879 H 75.9042 -1.44118 0.294703 0
M  V30 880 H 77.8622 -3.78646 -1.75166 0
M  V30 881 H 76.4922 -2.64898 -1.8447 0
M  V30 882 H 75.5442 -3.7931 0.287714 0
M  V30 883 H 76.8562 -4.98549 0.158128 0
M  V30 884 H 76.0102 -5.69648 -2.08773 0
M  V30 885 H 74.7492 -4.43243 -2.03438 0
M  V30 886 H 73.7542 -5.49799 0.00938483 0
M  V30 887 H 74.9792 -6.79071 -0.0631082 0
M  V30 888 H 72.9252 -6.1728 -2.22038 0
M  V30 889 H 72.8422 -7.48144 -1.08707 0
M  V30 890 H 74.1102 -7.45534 -2.27596 0
M  V30 891 N 78.3393 -0.321999 -1.54275 0
M  V30 892 C 79.5673 0.283052 -2.04955 0
M  V30 893 C 79.9823 1.45904 -1.19823 0
M  V30 894 O 79.3393 1.81063 -0.228545 0
M  V30 895 C 79.3903 0.719028 -3.54277 0
M  V30 896 O 79.1113 -0.410175 -4.36176 0
M  V30 897 C 80.6123 1.38705 -4.21041 0
M  V30 898 H 77.8323 0.0584616 -0.668448 0
M  V30 899 H 80.3763 -0.467734 -1.99079 0
M  V30 900 H 78.5313 1.41979 -3.60445 0
M  V30 901 H 78.9453 -0.0669416 -5.24457 0
M  V30 902 H 80.4193 1.64306 -5.2698 0
M  V30 903 H 80.8963 2.33385 -3.72059 0
M  V30 904 H 81.5023 0.728906 -4.19007 0
M  V30 905 N 79.8174 1.5752 -0.0501392 0
M  V30 906 C 81.2334 1.56631 0.306402 0
M  V30 907 C 81.4334 1.0577 1.71508 0
M  V30 908 O 80.4894 0.713837 2.422 0
M  V30 909 C 81.8024 3.00393 0.135811 0
M  V30 910 C 83.3504 3.12315 0.206993 0
M  V30 911 C 83.8254 4.57954 0.064944 0
M  V30 912 N 85.3164 4.63041 0.121254 0
M  V30 913 C 86.0514 5.73389 0.0354381 0
M  V30 914 N 85.5474 6.92724 -0.102666 0
M  V30 915 N 87.3404 5.62026 0.090946 0
M  V30 916 H 79.4914 1.88903 -0.971046 0
M  V30 917 H 81.7544 0.869876 -0.376855 0
M  V30 918 H 81.4604 3.41635 -0.835384 0
M  V30 919 H 81.3344 3.66373 0.897275 0
M  V30 920 H 83.7214 2.70973 1.16866 0
M  V30 921 H 83.8024 2.49016 -0.585208 0
M  V30 922 H 83.4464 4.99981 -0.893394 0
M  V30 923 H 83.3764 5.19258 0.876277 0
M  V30 924 H 85.8674 3.77216 0.227284 0
M  V30 925 H 86.1804 7.72633 -0.160882 0
M  V30 926 H 84.5254 6.94864 -0.137737 0
M  V30 927 H 87.7164 4.67684 0.197388 0
M  V30 928 H 87.8894 6.47997 0.0206089 0
M  V30 929 N 81.2955 -0.223234 1.56011 0
M  V30 930 C 82.2585 -1.26014 1.9145 0
M  V30 931 C 83.2585 -1.3989 0.792937 0
M  V30 932 O 84.4485 -1.38184 1.0607 0
M  V30 933 C 81.5805 -2.63422 2.16383 0
M  V30 934 H 82.7735 -0.95796 2.84189 0
M  V30 935 H 80.3265 -0.463576 1.49267 0
M  V30 936 H 81.0615 -2.98741 1.2619 0
M  V30 937 H 80.8465 -2.54728 2.98088 0
M  V30 938 H 82.3365 -3.38249 2.44903 0
M  V30 939 N 82.7736 -1.49793 -0.48987 0
M  V30 940 C 83.7036 -1.70201 -1.59856 0
M  V30 941 C 84.6846 -0.55076 -1.60937 0
M  V30 942 O 85.8696 -0.787841 -1.77501 0
M  V30 943 C 82.9996 -1.77882 -2.98287 0
M  V30 944 C 81.9536 -2.92907 -3.12073 0
M  V30 945 C 81.2796 -2.85712 -4.51965 0
M  V30 946 C 82.5796 -4.3369 -2.91051 0
M  V30 947 H 84.2736 -2.63025 -1.43032 0
M  V30 948 H 81.8196 -1.26574 -0.686664 0
M  V30 949 H 83.7726 -1.90744 -3.75759 0
M  V30 950 H 82.4966 -0.816653 -3.16225 0
M  V30 951 H 81.1556 -2.79665 -2.37029 0
M  V30 952 H 80.8036 -1.8738 -4.66795 0
M  V30 953 H 80.5036 -3.62921 -4.62128 0
M  V30 954 H 82.0276 -3.00598 -5.31482 0
M  V30 955 H 83.4416 -4.47555 -3.58284 0
M  V30 956 H 81.8386 -5.12205 -3.12675 0
M  V30 957 H 82.9086 -4.47362 -1.87071 0
M  V30 958 N 84.2517 0.741722 -1.39055 0
M  V30 959 C 85.5007 1.49656 -1.35225 0
M  V30 960 C 85.8137 1.95533 0.0512708 0
M  V30 961 O 87.0197 2.7067 0.212138 0
M  V30 962 C 85.4757 2.70389 -2.37525 0
M  V30 963 C 85.0837 2.31489 -3.83558 0
M  V30 964 C 86.8277 3.48236 -2.42759 0
M  V30 965 C 84.7347 3.48903 -4.77515 0
M  V30 966 H 83.6647 0.56197 -0.502699 0
M  V30 967 H 86.3157 0.809727 -1.64668 0
M  V30 968 H 84.6977 3.41113 -2.01142 0
M  V30 969 H 85.8717 1.68354 -4.28945 0
M  V30 970 H 84.1867 1.66749 -3.81554 0
M  V30 971 H 86.7837 4.35558 -3.1015 0
M  V30 972 H 87.1267 3.90229 -1.45008 0
M  V30 973 H 87.6597 2.84535 -2.78002 0
M  V30 974 H 84.3987 3.11966 -5.76504 0
M  V30 975 H 83.9187 4.11041 -4.36813 0
M  V30 976 H 85.5977 4.15328 -4.96096 0
M  V30 977 N 85.7298 1.2412 0.971189 0
M  V30 978 C 87.0068 0.986867 1.6888 0
M  V30 979 C 87.3868 -0.491857 2.0529 0
M  V30 980 O 86.7348 -1.46531 1.75331 0
M  V30 981 C 86.9448 1.9063 2.92338 0
M  V30 982 C 88.2928 2.17515 3.64654 0
M  V30 983 O 89.3168 1.88254 3.02388 0
M  V30 984 O 88.1758 2.6719 4.7673 0
M  V30 985 H 85.2698 0.372944 0.738134 0
M  V30 986 H 87.8158 1.35203 1.02559 0
M  V30 987 H 86.5878 2.90552 2.62097 0
M  V30 988 H 86.2108 1.54408 3.66393 0
M  V30 989 N 87.2079 -1.17134 1.05439 0
M  V30 990 C 88.4329 -1.91913 0.786396 0
M  V30 991 C 88.8579 -1.7643 -0.652234 0
M  V30 992 O 88.2159 -1.08372 -1.45345 0
M  V30 993 C 88.2639 -3.40921 1.17497 0
M  V30 994 O 87.3679 -4.11244 0.308589 0
M  V30 995 H 86.7089 -0.598215 0.288158 0
M  V30 996 H 89.2389 -1.48457 1.4079 0
M  V30 997 H 89.2489 -3.91668 1.14281 0
M  V30 998 H 87.9239 -3.5151 2.22292 0
M  V30 999 H 86.5009 -3.70731 0.40157 0
M  V30 1000 N 88.686 -0.835752 -1.33615 0
M  V30 1001 C 89.932 -0.430596 -1.98176 0
M  V30 1002 C 90.265 1.00684 -1.66061 0
M  V30 1003 O 89.54 1.70339 -0.938877 0
M  V30 1004 C 89.823 -0.648065 -3.5422 0
M  V30 1005 C 89.676 -2.13255 -3.96033 0
M  V30 1006 C 90.995 -0.0922113 -4.40003 0
M  V30 1007 H 88.114 -0.157924 -0.719881 0
M  V30 1008 H 90.756 -1.05069 -1.58305 0
M  V30 1009 H 88.906 -0.120237 -3.88314 0
M  V30 1010 H 90.578 -2.725 -3.72211 0
M  V30 1011 H 88.821 -2.61823 -3.45878 0
M  V30 1012 H 89.492 -2.23547 -5.04708 0
M  V30 1013 H 91.968 -0.543343 -4.12537 0
M  V30 1014 H 90.844 -0.274083 -5.48215 0
M  V30 1015 H 91.105 1.00378 -4.30554 0
M  V30 1016 N 90.1641 1.46063 -0.591896 0
M  V30 1017 C 91.4131 2.01547 -0.0786637 0
M  V30 1018 C 91.7261 1.46796 1.29268 0
M  V30 1019 O 92.9321 1.94157 1.89777 0
M  V30 1020 C 91.3881 3.59787 -0.0900024 0
M  V30 1021 C 90.9961 4.23534 -1.46023 0
M  V30 1022 C 92.7401 4.22895 0.368806 0
M  V30 1023 C 90.6471 5.73881 -1.4288 0
M  V30 1024 H 89.5771 0.753564 -0.0256388 0
M  V30 1025 H 92.2281 1.677 -0.744905 0
M  V30 1026 H 90.6101 3.90752 0.642586 0
M  V30 1027 H 91.7841 4.04167 -2.21328 0
M  V30 1028 H 90.0991 3.72558 -1.85982 0
M  V30 1029 H 92.6961 5.33116 0.411258 0
M  V30 1030 H 93.0391 3.9247 1.38827 0
M  V30 1031 H 93.5721 3.9659 -0.31001 0
M  V30 1032 H 90.3111 6.0898 -2.42536 0
M  V30 1033 H 89.8311 5.95486 -0.718095 0
M  V30 1034 H 91.5101 6.36776 -1.14565 0
M  V30 1035 N 91.6422 0.330177 1.54103 0
M  V30 1036 C 93.0532 -0.15652 1.86043 0
M  V30 1037 C 93.4042 -1.51086 1.2517 0
M  V30 1038 O 92.5292 -2.09023 0.560217 0
M  V30 1039 C 93.1242 -0.290784 3.3755 0
M  V30 1040 C 91.6832 -0.721705 3.69416 0
M  V30 1041 C 90.8302 0.152622 2.7688 0
M  V30 1042 H 93.7812 0.550237 1.48856 0
M  V30 1043 H 93.8022 -1.12058 3.63625 0
M  V30 1044 H 93.3142 0.695068 3.81825 0
M  V30 1045 H 91.4152 -1.71706 3.30678 0
M  V30 1046 H 91.5282 -0.520869 4.7626 0
M  V30 1047 H 89.8922 -0.372894 2.51956 0
M  V30 1048 H 90.6752 1.13536 3.23982 0
M  V30 1049 N 93.1203 -1.57491 0.0584922 0
M  V30 1050 C 94.0673 -2.11958 -0.913376 0
M  V30 1051 C 95.0373 -1.02875 -1.30407 0
M  V30 1052 O 96.2223 -1.30464 -1.39226 0
M  V30 1053 C 93.3623 -2.67497 -2.18035 0
M  V30 1054 C 92.4753 -3.90691 -1.84349 0
M  V30 1055 C 91.6103 -4.3452 -3.05559 0
M  V30 1056 C 90.6493 -5.50395 -2.67827 0
M  V30 1057 N 89.7863 -5.89244 -3.81754 0
M  V30 1058 H 94.6263 -2.94704 -0.442017 0
M  V30 1059 H 92.1633 -1.45643 -0.206545 0
M  V30 1060 H 94.1213 -2.978 -2.92183 0
M  V30 1061 H 92.7513 -1.87537 -2.62735 0
M  V30 1062 H 91.8033 -3.66934 -1.00319 0
M  V30 1063 H 93.1153 -4.7489 -1.5258 0
M  V30 1064 H 92.2693 -4.66414 -3.87998 0
M  V30 1065 H 91.0083 -3.49147 -3.40511 0
M  V30 1066 H 90.0133 -5.18165 -1.83806 0
M  V30 1067 H 91.2383 -6.3749 -2.34059 0
M  V30 1068 H 89.1843 -5.06823 -4.16493 0
M  V30 1069 H 89.1013 -6.68151 -3.53708 0
M  V30 1070 H 90.3693 -6.25756 -4.64811 0
M  V30 1071 N 94.5984 0.214957 -1.56127 0
M  V30 1072 C 95.8464 0.936518 -1.79091 0
M  V30 1073 C 96.1674 1.84606 -0.628148 0
M  V30 1074 O 95.4374 1.92664 0.35462 0
M  V30 1075 H 94.0174 0.3488 -0.660566 0
M  V30 1076 H 96.6794 0.22523 -1.93594 0
M  V30 1077 H 95.7754 1.53943 -2.71492 0
M  V30 1078 N 96.0765 1.50051 0.48192 0
M  V30 1079 C 97.0395 1.67584 1.5636 0
M  V30 1080 C 98.0395 0.546894 1.51214 0
M  V30 1081 O 99.2295 0.813725 1.54026 0
M  V30 1082 C 96.3615 1.691 2.96003 0
M  V30 1083 H 97.5545 2.64078 1.42136 0
M  V30 1084 H 95.1075 1.39369 0.707533 0
M  V30 1085 H 95.8425 0.742589 3.15684 0
M  V30 1086 H 95.6275 2.51105 3.01146 0
M  V30 1087 H 97.1175 1.84656 3.74556 0
M  V30 1088 N 97.5546 -0.734337 1.39446 0
M  V30 1089 C 98.4866 -1.85861 1.34121 0
M  V30 1090 C 99.4996 -1.60871 0.249864 0
M  V30 1091 O 100.689 -1.71093 0.508865 0
M  V30 1092 C 97.7886 -3.21899 1.05991 0
M  V30 1093 C 96.9616 -3.74239 2.26415 0
M  V30 1094 C 96.0206 -4.88841 1.94733 0
M  V30 1095 O 95.0466 -5.02468 2.67422 0
M  V30 1096 N 96.2486 -5.73261 0.913884 0
M  V30 1097 H 99.0136 -1.90934 2.31007 0
M  V30 1098 H 96.5746 -0.915102 1.33557 0
M  V30 1099 H 98.5666 -3.96136 0.828147 0
M  V30 1100 H 97.1366 -3.12091 0.178361 0
M  V30 1101 H 96.3566 -2.91347 2.65539 0
M  V30 1102 H 97.6446 -4.05942 3.06738 0
M  V30 1103 H 97.0426 -5.64842 0.311476 0
M  V30 1104 H 95.5996 -6.47563 0.742015 0
M  V30 1105 N 99.0327 -1.24633 -0.964593 0
M  V30 1106 C 99.9957 -1.0424 -2.04124 0
M  V30 1107 C 100.996 0.00137563 -1.608 0
M  V30 1108 O 102.186 -0.239883 -1.7254 0
M  V30 1109 C 99.3177 -0.580588 -3.3592 0
M  V30 1110 H 100.511 -1.99803 -2.23649 0
M  V30 1111 H 98.0637 -1.06899 -1.14027 0
M  V30 1112 H 98.7987 0.3781 -3.22088 0
M  V30 1113 H 98.5837 -1.33398 -3.6871 0
M  V30 1114 H 100.074 -0.459034 -4.15069 0
M  V30 1115 N 100.511 1.16574 -1.06058 0
M  V30 1116 C 101.751 1.88723 -0.78504 0
M  V30 1117 C 102.115 1.79706 0.676006 0
M  V30 1118 O 103.316 2.46757 1.06603 0
M  V30 1119 C 101.587 3.34338 -1.26304 0
M  V30 1120 S 103.146 4.24366 -1.1162 0
M  V30 1121 H 99.9638 0.651448 -0.284846 0
M  V30 1122 H 102.566 1.40732 -1.35701 0
M  V30 1123 H 101.27 3.38439 -2.32136 0
M  V30 1124 H 100.801 3.87378 -0.685719 0
M  V30 1125 H 102.816 4.96179 -0.0456539 0
M  V30 1126 N 101.989 0.842826 1.3317 0
M  V30 1127 C 102.921 0.236245 2.27979 0
M  V30 1128 C 103.934 -0.585282 1.51915 0
M  V30 1129 O 105.123 -0.411705 1.73687 0
M  V30 1130 C 102.223 -0.685717 3.3189 0
M  V30 1131 C 101.396 0.0973448 4.37292 0
M  V30 1132 C 100.455 -0.748565 5.20848 0
M  V30 1133 O 99.4809 -0.186339 5.68895 0
M  V30 1134 N 100.683 -2.06527 5.42519 0
M  V30 1135 H 103.448 1.05088 2.80672 0
M  V30 1136 H 101.009 0.701667 1.45905 0
M  V30 1137 H 103.001 -1.25669 3.84694 0
M  V30 1138 H 101.571 -1.40105 2.79445 0
M  V30 1139 H 100.791 0.849706 3.84933 0
M  V30 1140 H 102.079 0.635643 5.04814 0
M  V30 1141 H 101.477 -2.54554 5.05192 0
M  V30 1142 H 100.034 -2.58464 5.98364 0
M  V30 1143 N 103.467 -1.45747 0.599634 0
M  V30 1144 C 104.716 -2.01502 0.0893511 0
M  V30 1145 C 105.029 -1.4748 -1.28488 0
M  V30 1146 O 106.235 -1.95161 -1.88745 0
M  V30 1147 C 104.691 -3.59735 0.109082 0
M  V30 1148 C 104.299 -4.22754 1.48267 0
M  V30 1149 C 106.043 -4.23085 -0.346374 0
M  V30 1150 C 103.95 -5.73115 1.45921 0
M  V30 1151 H 102.88 -0.753417 0.0296347 0
M  V30 1152 H 105.531 -1.67303 0.753788 0
M  V30 1153 H 103.913 -3.91087 -0.621854 0
M  V30 1154 H 105.087 -4.02987 2.23468 0
M  V30 1155 H 103.402 -3.71567 1.87955 0
M  V30 1156 H 105.999 -5.33327 -0.38298 0
M  V30 1157 H 106.342 -3.93201 -1.36743 0
M  V30 1158 H 106.875 -3.9642 0.331038 0
M  V30 1159 H 103.614 -6.07685 2.45762 0
M  V30 1160 H 103.134 -5.95097 0.749665 0
M  V30 1161 H 104.813 -6.3616 1.17941 0
M  V30 1162 N 104.945 -0.338344 -1.53925 0
M  V30 1163 C 106.185 0.260168 -2.02737 0
M  V30 1164 C 106.549 1.48181 -1.22092 0
M  V30 1165 O 107.75 2.15416 -1.60777 0
M  V30 1166 C 106.021 0.571627 -3.52799 0
M  V30 1167 S 107.58 1.14769 -4.23525 0
M  V30 1168 H 104.398 0.077791 -0.706732 0
M  V30 1169 H 107 -0.474899 -1.89644 0
M  V30 1170 H 105.704 -0.325392 -4.09108 0
M  V30 1171 H 105.235 1.3365 -3.70002 0
M  V30 1172 H 107.25 2.43372 -4.32417 0
M  V30 1173 N 106.423 1.57458 -0.0668435 0
M  V30 1174 C 107.672 1.92477 0.602947 0
M  V30 1175 C 107.985 0.948419 1.71068 0
M  V30 1176 O 109.191 1.19124 2.43971 0
M  V30 1177 C 107.647 3.41903 1.12383 0
M  V30 1178 C 107.255 4.47975 0.04737 0
M  V30 1179 C 108.999 3.85931 1.76797 0
M  V30 1180 C 106.906 5.88529 0.582022 0
M  V30 1181 H 105.836 0.718387 0.22899 0
M  V30 1182 H 108.487 1.82978 -0.138276 0
M  V30 1183 H 106.869 3.46459 1.91787 0
M  V30 1184 H 108.043 4.55029 -0.726978 0
M  V30 1185 H 106.358 4.13384 -0.500243 0
M  V30 1186 H 108.955 4.88322 2.17821 0
M  V30 1187 H 109.298 3.23029 2.62599 0
M  V30 1188 H 109.831 3.83958 1.04024 0
M  V30 1189 H 106.57 6.55065 -0.238721 0
M  V30 1190 H 106.09 5.85004 1.324 0
M  V30 1191 H 107.769 6.38258 1.05999 0
M  V30 1192 N 107.901 -0.206675 1.56239 0
M  V30 1193 C 109.129 -0.945345 1.8404 0
M  V30 1194 C 109.544 -1.77336 0.647885 0
M  V30 1195 O 108.901 -1.78425 -0.383511 0
M  V30 1196 C 108.952 -1.8509 3.10522 0
M  V30 1197 O 108.673 -1.05634 4.25174 0
M  V30 1198 C 110.174 -2.70222 3.51418 0
M  V30 1199 H 107.394 -0.276372 0.61144 0
M  V30 1200 H 109.938 -0.217417 2.03341 0
M  V30 1201 H 108.093 -2.53259 2.93153 0
M  V30 1202 H 108.507 -1.67238 4.97124 0
M  V30 1203 H 109.981 -3.29438 4.42916 0
M  V30 1204 H 110.458 -3.43358 2.73864 0
M  V30 1205 H 111.064 -2.07443 3.71278 0
M  V30 1206 N 109.379 -1.50304 -0.473955 0
M  V30 1207 C 110.609 -1.64663 -1.24778 0
M  V30 1208 C 111.017 -0.328174 -1.86332 0
M  V30 1209 O 110.36 0.699536 -1.69859 0
M  V30 1210 C 110.422 -2.6778 -2.39863 0
M  V30 1211 C 110.086 -4.11413 -1.98969 0
M  V30 1212 C 111.083 -4.97372 -1.51385 0
M  V30 1213 C 108.768 -4.57312 -2.07777 0
M  V30 1214 C 110.762 -6.27277 -1.13148 0
M  V30 1215 C 108.449 -5.87223 -1.69152 0
M  V30 1216 C 109.447 -6.72031 -1.21915 0
M  V30 1217 O 109.135 -7.99518 -0.838237 0
M  V30 1218 H 108.867 -0.556602 -0.383627 0
M  V30 1219 H 111.421 -1.9726 -0.572491 0
M  V30 1220 H 109.651 -2.30419 -3.10554 0
M  V30 1221 H 111.34 -2.71388 -3.01833 0
M  V30 1222 H 112.106 -4.63128 -1.44004 0
M  V30 1223 H 107.985 -3.91449 -2.43493 0
M  V30 1224 H 111.529 -6.93425 -0.762077 0
M  V30 1225 H 107.426 -6.20989 -1.76191 0
M  V30 1226 H 108.194 -8.12764 -0.967339 0
M  V30 1227 N 110.857 0.726932 -1.39834 0
M  V30 1228 C 112.106 1.48214 -1.36805 0
M  V30 1229 C 112.419 1.95576 0.0305291 0
M  V30 1230 O 113.625 2.7088 0.183417 0
M  V30 1231 C 112.081 2.67854 -2.40379 0
M  V30 1232 C 111.689 2.27408 -3.85992 0
M  V30 1233 C 113.433 3.45641 -2.46439 0
M  V30 1234 C 111.34 3.43819 -4.81189 0
M  V30 1235 H 110.27 0.556606 -0.508631 0
M  V30 1236 H 112.921 0.792216 -1.65518 0
M  V30 1237 H 111.303 3.3896 -2.04749 0
M  V30 1238 H 112.477 1.63795 -4.30706 0
M  V30 1239 H 110.792 1.62692 -3.83302 0
M  V30 1240 H 113.389 4.32244 -3.14753 0
M  V30 1241 H 113.732 3.88669 -1.49139 0
M  V30 1242 H 114.265 2.8157 -2.81004 0
M  V30 1243 H 111.004 3.05834 -5.79781 0
M  V30 1244 H 110.524 4.06385 -4.41148 0
M  V30 1245 H 112.203 4.10043 -5.00474 0
M  V30 1246 N 112.336 1.25143 0.95797 0
M  V30 1247 C 113.576 1.10893 1.71703 0
M  V30 1248 C 113.94 -0.34478 1.88879 0
M  V30 1249 O 115.141 -0.609014 2.6181 0
M  V30 1250 C 113.412 1.83889 3.06463 0
M  V30 1251 S 114.971 1.85491 3.97666 0
M  V30 1252 H 111.789 0.396428 0.590226 0
M  V30 1253 H 114.391 1.58618 1.14283 0
M  V30 1254 H 113.095 2.88756 2.9163 0
M  V30 1255 H 112.626 1.36538 3.68946 0
M  V30 1256 H 114.641 0.929553 4.87415 0
M  V30 1257 N 113.814 -1.1601 1.06675 0
M  V30 1258 C 114.724 -2.24156 0.692179 0
M  V30 1259 C 115.74 -1.71507 -0.293513 0
M  V30 1260 O 116.916 -2.009 -0.141861 0
M  V30 1261 C 113.981 -3.46587 0.0884131 0
M  V30 1262 C 113.042 -4.14257 1.12646 0
M  V30 1263 C 112.275 -5.30844 0.551416 0
M  V30 1264 O 112.498 -5.66858 -0.634656 0
M  V30 1265 O 111.432 -5.87848 1.29298 0
M  V30 1266 H 115.258 -2.58513 1.59388 0
M  V30 1267 H 112.843 -1.23599 0.83926 0
M  V30 1268 H 114.725 -4.20679 -0.246361 0
M  V30 1269 H 113.4 -3.13994 -0.786712 0
M  V30 1270 H 112.307 -3.42118 1.51348 0
M  V30 1271 H 113.64 -4.50914 1.97325 0
M  V30 1272 N 115.292 -0.849877 -1.32721 0
M  V30 1273 C 116.202 -0.293791 -2.32753 0
M  V30 1274 C 117.218 0.585906 -1.63839 0
M  V30 1275 O 118.394 0.487413 -1.95413 0
M  V30 1276 C 115.459 0.512752 -3.42887 0
M  V30 1277 C 114.52 -0.39252 -4.27502 0
M  V30 1278 C 113.753 0.375625 -5.32377 0
M  V30 1279 O 113.976 1.60613 -5.4732 0
M  V30 1280 O 112.91 -0.256094 -6.01355 0
M  V30 1281 H 116.736 -1.12242 -2.82197 0
M  V30 1282 H 114.321 -0.612685 -1.36259 0
M  V30 1283 H 116.203 0.970704 -4.10067 0
M  V30 1284 H 114.878 1.31826 -2.95641 0
M  V30 1285 H 113.785 -0.898547 -3.63149 0
M  V30 1286 H 115.118 -1.16309 -4.7826 0
M  V30 1287 N 116.77 1.45427 -0.607355 0
M  V30 1288 C 118.047 1.9557 -0.0344566 0
M  V30 1289 C 118.427 1.54979 1.43334 0
M  V30 1290 O 117.775 0.812241 2.13576 0
M  V30 1291 C 117.985 3.48226 -0.232321 0
M  V30 1292 C 119.333 4.2445 -0.113001 0
M  V30 1293 O 120.357 3.55829 -0.162431 0
M  V30 1294 O 119.216 5.465 0.00209442 0
M  V30 1295 H 116.31 0.826222 0.0358667 0
M  V30 1296 H 118.856 1.55594 -0.6774 0
M  V30 1297 H 117.628 3.70739 -1.25174 0
M  V30 1298 H 117.251 3.95092 0.445896 0
M  V30 1299 N 118.248 0.346503 1.53744 0
M  V30 1300 C 119.473 -0.253074 2.0585 0
M  V30 1301 C 119.898 -1.43202 1.21962 0
M  V30 1302 O 119.256 -1.79783 0.234073 0
M  V30 1303 C 119.304 -0.643193 3.54817 0
M  V30 1304 O 118.408 -1.74286 3.73762 0
M  V30 1305 H 117.749 -0.0413583 0.662711 0
M  V30 1306 H 120.279 0.501574 1.98357 0
M  V30 1307 H 120.289 -0.919526 3.97503 0
M  V30 1308 H 118.964 0.218966 4.15323 0
M  V30 1309 H 117.541 -1.46356 3.42979 0
M  V30 1310 N 119.726 -1.57421 0.075193 0
M  V30 1311 C 120.956 -1.97659 -0.601203 0
M  V30 1312 C 121.364 -0.952427 -1.63479 0
M  V30 1313 O 120.707 0.0688241 -1.83571 0
M  V30 1314 C 120.769 -3.34218 -1.32434 0
M  V30 1315 C 120.433 -4.5484 -0.443826 0
M  V30 1316 C 121.43 -5.19034 0.299969 0
M  V30 1317 C 119.115 -5.00952 -0.367709 0
M  V30 1318 C 121.109 -6.27695 1.10807 0
M  V30 1319 C 118.796 -6.09484 0.444058 0
M  V30 1320 C 119.794 -6.72719 1.18061 0
M  V30 1321 O 119.482 -7.79161 1.97898 0
M  V30 1322 H 119.214 -0.65494 -0.167422 0
M  V30 1323 H 121.768 -2.04886 0.145157 0
M  V30 1324 H 119.998 -3.23615 -2.11685 0
M  V30 1325 H 121.687 -3.59038 -1.89331 0
M  V30 1326 H 122.453 -4.84351 0.250776 0
M  V30 1327 H 118.332 -4.51509 -0.930638 0
M  V30 1328 H 121.876 -6.76982 1.68347 0
M  V30 1329 H 117.773 -6.43601 0.494803 0
M  V30 1330 H 118.541 -7.96055 1.90367 0
M  V30 1331 N 121.204 0.198386 -1.56346 0
M  V30 1332 C 122.134 1.24865 -1.9731 0
M  V30 1333 C 123.115 1.47651 -0.844576 0
M  V30 1334 O 124.3 1.59444 -1.10866 0
M  V30 1335 C 121.43 2.59358 -2.30977 0
M  V30 1336 C 120.384 2.5119 -3.46537 0
M  V30 1337 C 119.71 3.89926 -3.65871 0
M  V30 1338 C 121.01 2.03977 -4.80823 0
M  V30 1339 H 122.704 0.908252 -2.85291 0
M  V30 1340 H 120.25 0.435462 -1.37258 0
M  V30 1341 H 122.203 3.33011 -2.58228 0
M  V30 1342 H 120.927 2.95132 -1.39874 0
M  V30 1343 H 119.586 1.79993 -3.19371 0
M  V30 1344 H 119.234 4.23046 -2.72105 0
M  V30 1345 H 118.934 3.85336 -4.4361 0
M  V30 1346 H 120.458 4.65205 -3.95495 0
M  V30 1347 H 121.872 2.67386 -5.07127 0
M  V30 1348 H 120.269 2.10397 -5.62008 0
M  V30 1349 H 121.339 0.992861 -4.74626 0
M  V30 1350 N 122.682 1.50554 0.465978 0
M  V30 1351 C 123.645 1.69233 1.54574 0
M  V30 1352 C 124.645 0.562901 1.50626 0
M  V30 1353 O 125.835 0.830016 1.53155 0
M  V30 1354 C 122.967 1.7223 2.94193 0
M  V30 1355 H 124.16 2.65571 1.39327 0
M  V30 1356 H 121.713 1.40111 0.692711 0
M  V30 1357 H 122.448 0.77603 3.14878 0
M  V30 1358 H 122.233 2.54285 2.98466 0
M  V30 1359 H 123.723 1.88618 3.72576 0
M  V30 1360 N 124.16 -0.719506 1.40217 0
M  V30 1361 C 125.408 -1.47641 1.3801 0
M  V30 1362 C 125.729 -1.94992 -0.018145 0
M  V30 1363 O 124.999 -1.70073 -0.972207 0
M  V30 1364 H 123.579 -0.547744 0.507923 0
M  V30 1365 H 126.241 -0.853187 1.75233 0
M  V30 1366 H 125.337 -2.35112 2.05253 0
M  V30 1367 N 125.638 -1.25649 -0.95132 0
M  V30 1368 C 126.866 -1.13343 -1.73092 0
M  V30 1369 C 127.281 0.312434 -1.86197 0
M  V30 1370 O 126.638 1.21465 -1.36207 0
M  V30 1371 C 126.689 -1.78602 -3.14299 0
M  V30 1372 O 126.41 -3.17537 -3.01831 0
M  V30 1373 C 127.911 -1.72119 -4.08522 0
M  V30 1374 H 125.131 -0.395181 -0.542285 0
M  V30 1375 H 127.675 -1.66076 -1.19328 0
M  V30 1376 H 125.83 -1.29832 -3.64996 0
M  V30 1377 H 126.244 -3.49676 -3.90931 0
M  V30 1378 H 127.718 -2.22435 -5.052 0
M  V30 1379 H 128.195 -0.685635 -4.33815 0
M  V30 1380 H 128.801 -2.20393 -3.63741 0
M  V30 1381 N 127.117 1.15442 -1.07289 0
M  V30 1382 C 128.047 2.22312 -0.714107 0
M  V30 1383 C 129.028 1.67467 0.298155 0
M  V30 1384 O 130.213 1.93445 0.171048 0
M  V30 1385 C 127.343 3.47124 -0.110448 0
M  V30 1386 C 126.297 4.14926 -1.04979 0
M  V30 1387 C 125.623 5.33807 -0.308924 0
M  V30 1388 C 126.923 4.64762 -2.38314 0
M  V30 1389 H 128.617 2.5258 -1.6076 0
M  V30 1390 H 126.163 1.21404 -0.77441 0
M  V30 1391 H 128.116 4.21124 0.152482 0
M  V30 1392 H 126.84 3.16187 0.81812 0
M  V30 1393 H 125.499 3.42866 -1.29764 0
M  V30 1394 H 125.147 4.99126 0.623084 0
M  V30 1395 H 124.847 5.80113 -0.935036 0
M  V30 1396 H 126.371 6.10576 -0.0537771 0
M  V30 1397 H 127.785 5.30292 -2.1786 0
M  V30 1398 H 126.182 5.21728 -2.96514 0
M  V30 1399 H 127.252 3.80434 -3.00663 0
M  V30 1400 N 128.595 0.856903 1.32268 0
M  V30 1401 C 129.843 0.460474 1.96784 0
M  V30 1402 C 130.164 -0.987701 1.68135 0
M  V30 1403 O 129.434 -1.69058 0.989765 0
M  V30 1404 H 128.014 0.167289 0.728027 0
M  V30 1405 H 130.676 1.09383 1.61312 0
M  V30 1406 H 129.772 0.60739 3.06133 0
M  V30 1407 N 130.073 -1.45103 0.615059 0
M  V30 1408 C 131.003 -2.33339 -0.0865619 0
M  V30 1409 C 131.984 -1.4727 -0.851209 0
M  V30 1410 O 133.169 -1.76026 -0.820281 0
M  V30 1411 C 130.299 -3.30095 -1.07956 0
M  V30 1412 C 129.253 -4.25858 -0.427628 0
M  V30 1413 C 128.579 -5.12361 -1.5294 0
M  V30 1414 C 129.879 -5.18165 0.655944 0
M  V30 1415 H 131.573 -2.92254 0.650224 0
M  V30 1416 H 129.119 -1.40532 0.314138 0
M  V30 1417 H 131.072 -3.90698 -1.57901 0
M  V30 1418 H 129.796 -2.69355 -1.84703 0
M  V30 1419 H 128.455 -3.66564 0.0510292 0
M  V30 1420 H 128.103 -4.47984 -2.28734 0
M  V30 1421 H 127.803 -5.77238 -1.09865 0
M  V30 1422 H 129.327 -5.75833 -2.03098 0
M  V30 1423 H 130.741 -5.72796 0.240257 0
M  V30 1424 H 129.138 -5.91559 1.00888 0
M  V30 1425 H 130.208 -4.60144 1.52957 0
M  V30 1426 N 131.551 -0.354651 -1.53558 0
M  V30 1427 C 132.776 0.242153 -2.05981 0
M  V30 1428 C 133.201 1.42553 -1.2272 0
M  V30 1429 O 132.559 1.79656 -0.243604 0
M  V30 1430 C 132.607 0.624367 -3.55154 0
M  V30 1431 O 131.711 1.72301 -3.74681 0
M  V30 1432 H 131.052 0.0378432 -0.662921 0
M  V30 1433 H 133.582 -0.512087 -1.98088 0
M  V30 1434 H 133.592 0.898433 -3.97985 0
M  V30 1435 H 132.267 -0.240989 -4.15201 0
M  V30 1436 H 130.844 1.44535 -3.4375 0
M  V30 1437 N 133.029 1.57378 -0.0835403 0
M  V30 1438 C 133.992 2.12252 0.864959 0
M  V30 1439 C 134.992 1.04916 1.21858 0
M  V30 1440 O 136.182 1.30853 1.14991 0
M  V30 1441 C 133.314 2.63358 2.16461 0
M  V30 1442 H 134.507 2.97371 0.388676 0
M  V30 1443 H 132.06 1.55423 0.165317 0
M  V30 1444 H 132.795 1.81727 2.686 0
M  V30 1445 H 132.58 3.41826 1.92087 0
M  V30 1446 H 134.07 3.05847 2.84337 0
M  V30 1447 N 134.507 -0.190092 1.56449 0
M  V30 1448 C 135.784 -0.935886 1.71757 0
M  V30 1449 C 136.164 -2.01173 0.639726 0
M  V30 1450 O 135.512 -2.25827 -0.348502 0
M  V30 1451 C 135.722 -1.51775 3.1427 0
M  V30 1452 C 137.07 -1.99794 3.74656 0
M  V30 1453 O 138.094 -1.61607 3.1743 0
M  V30 1454 O 136.953 -2.70079 4.751 0
M  V30 1455 H 134.047 -0.439229 0.700719 0
M  V30 1456 H 136.593 -0.179395 1.68749 0
M  V30 1457 H 135.365 -0.742505 3.84191 0
M  V30 1458 H 134.988 -2.33894 3.21527 0
M  V30 1459 N 135.985 -1.50799 -0.457987 0
M  V30 1460 C 136.917 -1.66786 -1.57211 0
M  V30 1461 C 137.93 -0.548962 -1.53265 0
M  V30 1462 O 139.119 -0.8226 -1.58416 0
M  V30 1463 C 136.219 -1.64834 -2.96113 0
M  V30 1464 C 135.392 -2.92971 -3.24787 0
M  V30 1465 C 134.451 -2.83485 -4.43309 0
M  V30 1466 O 133.477 -3.5744 -4.42973 0
M  V30 1467 N 134.679 -1.97929 -5.45714 0
M  V30 1468 H 137.444 -2.62889 -1.43909 0
M  V30 1469 H 135.005 -1.48427 -0.646617 0
M  V30 1470 H 136.997 -1.56084 -3.7339 0
M  V30 1471 H 135.567 -0.764118 -3.03117 0
M  V30 1472 H 134.787 -3.15749 -2.36 0
M  V30 1473 H 136.075 -3.77834 -3.40762 0
M  V30 1474 H 135.473 -1.37182 -5.48815 0
M  V30 1475 H 134.03 -1.95073 -6.21924 0
M  V30 1476 N 137.463 0.71206 -1.40597 0
M  V30 1477 C 138.691 1.50111 -1.42388 0
M  V30 1478 C 139.106 1.88784 -0.0245395 0
M  V30 1479 O 138.463 1.55681 0.952351 0
M  V30 1480 C 138.514 2.7742 -2.31776 0
M  V30 1481 O 138.235 2.40382 -3.66262 0
M  V30 1482 C 139.736 3.7129 -2.42196 0
M  V30 1483 H 136.956 0.46314 -0.485533 0
M  V30 1484 H 139.5 0.878068 -1.8469 0
M  V30 1485 H 137.655 3.36001 -1.92827 0
M  V30 1486 H 138.069 3.22324 -4.13772 0
M  V30 1487 H 139.543 4.57448 -3.08943 0
M  V30 1488 H 140.02 4.14641 -1.44809 0
M  V30 1489 H 140.626 3.18619 -2.81712 0
M  V30 1490 N 138.941 1.26152 0.944643 0
M  V30 1491 C 140.166 1.14363 1.7302 0
M  V30 1492 C 140.591 -0.29772 1.85729 0
M  V30 1493 O 139.949 -1.2157 1.34501 0
M  V30 1494 C 139.997 1.81378 3.11664 0
M  V30 1495 O 139.101 1.10022 3.97453 0
M  V30 1496 H 138.442 0.398694 0.53098 0
M  V30 1497 H 140.972 1.66906 1.18337 0
M  V30 1498 H 140.982 1.88064 3.62072 0
M  V30 1499 H 139.657 2.86237 3.0173 0
M  V30 1500 H 138.234 1.11287 3.55907 0
M  V30 1501 N 140.419 -1.14872 1.07899 0
M  V30 1502 C 141.667 -1.85422 0.803941 0
M  V30 1503 C 141.988 -1.83051 -0.67211 0
M  V30 1504 O 141.258 -1.27532 -1.48703 0
M  V30 1505 H 139.838 -0.686537 0.294408 0
M  V30 1506 H 142.5 -1.39226 1.3639 0
M  V30 1507 H 141.596 -2.90399 1.14346 0
M  V30 1508 N 141.898 -0.863906 -1.31812 0
M  V30 1509 C 142.846 -0.30422 -2.30602 0
M  V30 1510 C 143.84 0.577419 -1.59255 0
M  V30 1511 O 145.046 0.464194 -1.73912 0
M  V30 1512 H 141.421 -0.0796877 -0.747766 0
M  V30 1513 H 143.392 -1.15148 -2.75288 0
M  V30 1514 C 142.141 0.484617 -3.44306 0
M  V30 1515 H 141.464 -0.18451 -3.99374 0
M  V30 1516 H 142.904 0.841664 -4.15562 0
M  V30 1517 C 141.363 1.6735 -2.92396 0
M  V30 1518 O 141.893 2.77273 -2.90659 0
M  V30 1519 N 140.099 1.50362 -2.48676 0
M  V30 1520 H 139.646 0.609402 -2.50288 0
M  V30 1521 H 139.604 2.30051 -2.14299 0
M  V30 1522 N 143.376 1.44774 -0.622745 0
M  V30 1523 C 144.606 2.06187 -0.130532 0
M  V30 1524 C 145.014 1.46547 1.19669 0
M  V30 1525 O 144.357 0.579636 1.74316 0
M  V30 1526 C 144.419 3.59437 0.0674983 0
M  V30 1527 C 144.083 4.41496 -1.18026 0
M  V30 1528 C 145.08 4.75512 -2.102 0
M  V30 1529 C 142.765 4.82007 -1.41333 0
M  V30 1530 C 144.759 5.48912 -3.23998 0
M  V30 1531 C 142.446 5.55157 -2.55429 0
M  V30 1532 C 143.444 5.88528 -3.46589 0
M  V30 1533 O 143.132 6.60191 -4.58697 0
M  V30 1534 H 142.864 0.672045 -0.0730162 0
M  V30 1535 H 145.418 1.86768 -0.854802 0
M  V30 1536 H 143.648 3.77314 0.846825 0
M  V30 1537 H 145.337 4.02642 0.513209 0
M  V30 1538 H 146.103 4.4476 -1.93425 0
M  V30 1539 H 141.982 4.55457 -0.712709 0
M  V30 1540 H 145.526 5.74877 -3.95174 0
M  V30 1541 H 141.423 5.85324 -2.72151 0
M  V30 1542 H 142.191 6.78654 -4.57571 0
M  V30 1543 N 144.854 0.36279 1.53368 0
M  V30 1544 C 145.784 -0.476976 2.28576 0
M  V30 1545 C 146.765 -1.08631 1.30894 0
M  V30 1546 O 147.95 -1.10409 1.59761 0
M  V30 1547 C 145.08 -1.61828 3.07293 0
M  V30 1548 C 144.034 -1.13633 4.1264 0
M  V30 1549 C 143.36 -2.36766 4.79423 0
M  V30 1550 C 144.66 -0.223061 5.21823 0
M  V30 1551 H 146.354 0.150474 2.99022 0
M  V30 1552 H 143.9 0.0738103 1.43811 0
M  V30 1553 H 145.853 -2.21237 3.58653 0
M  V30 1554 H 144.577 -2.27292 2.34533 0
M  V30 1555 H 143.236 -0.564945 3.62221 0
M  V30 1556 H 142.884 -3.0068 4.03238 0
M  V30 1557 H 142.584 -2.05192 5.50609 0
M  V30 1558 H 144.108 -2.96865 5.33576 0
M  V30 1559 H 145.522 -0.724545 5.68703 0
M  V30 1560 H 143.919 0.001678 6.001 0
M  V30 1561 H 144.989 0.735553 4.79289 0
M  V30 1562 N 146.332 -1.57332 0.0918853 0
M  V30 1563 C 147.28 -2.15075 -0.885747 0
M  V30 1564 C 148.274 -1.09277 -1.29441 0
M  V30 1565 O 149.48 -1.27627 -1.26931 0
M  V30 1566 H 145.855 -0.687966 -0.303656 0
M  V30 1567 H 147.826 -2.96047 -0.373995 0
M  V30 1568 C 146.575 -2.74325 -2.13638 0
M  V30 1569 H 145.898 -3.55418 -1.8308 0
M  V30 1570 H 147.338 -3.183 -2.80109 0
M  V30 1571 C 145.797 -1.70062 -2.90827 0
M  V30 1572 O 146.327 -1.13763 -3.85254 0
M  V30 1573 N 144.533 -1.40628 -2.54307 0
M  V30 1574 H 144.08 -1.866 -1.7759 0
M  V30 1575 H 144.038 -0.711043 -3.06254 0
M  V30 1576 N 147.81 0.181792 -1.56548 0
M  V30 1577 C 148.743 1.25366 -1.90679 0
M  V30 1578 C 149.721 1.43299 -0.768376 0
M  V30 1579 O 150.905 1.58475 -1.02068 0
M  V30 1580 C 148.032 2.61826 -2.1486 0
M  V30 1581 C 147.078 2.60688 -3.37556 0
M  V30 1582 S 147.911 2.10804 -4.92262 0
M  V30 1583 C 149.067 3.49062 -5.19525 0
M  V30 1584 H 149.3 0.962277 -2.81296 0
M  V30 1585 H 146.833 0.385892 -1.495 0
M  V30 1586 H 148.791 3.40371 -2.29473 0
M  V30 1587 H 147.452 2.88169 -1.24969 0
M  V30 1588 H 146.645 3.61058 -3.51643 0
M  V30 1589 H 146.247 1.90232 -3.22006 0
M  V30 1590 H 148.539 4.45003 -5.10861 0
M  V30 1591 H 149.482 3.39859 -6.2121 0
M  V30 1592 H 149.89 3.4459 -4.47122 0
M  V30 1593 N 149.288 1.51039 0.449983 0
M  V30 1594 C 150.22 1.67617 1.56324 0
M  V30 1595 C 151.233 0.557083 1.52972 0
M  V30 1596 O 152.422 0.830989 1.57977 0
M  V30 1597 C 149.522 1.66402 2.95235 0
M  V30 1598 C 148.695 2.9469 3.23229 0
M  V30 1599 C 147.754 2.85832 4.41799 0
M  V30 1600 O 146.78 3.59785 4.41071 0
M  V30 1601 N 147.982 2.00821 5.44657 0
M  V30 1602 H 150.747 2.63648 1.42512 0
M  V30 1603 H 148.308 1.48767 0.638737 0
M  V30 1604 H 150.3 1.58062 3.72557 0
M  V30 1605 H 148.87 0.780182 3.02708 0
M  V30 1606 H 148.09 3.16996 2.34323 0
M  V30 1607 H 149.378 3.79636 3.38754 0
M  V30 1608 H 148.776 1.40091 5.48079 0
M  V30 1609 H 147.333 1.98368 6.20881 0
M  V30 1610 N 150.766 -0.704594 1.40972 0
M  V30 1611 C 152.043 -1.45847 1.30338 0
M  V30 1612 C 152.423 -2.10973 -0.0732344 0
M  V30 1613 O 151.771 -2.00997 -1.08685 0
M  V30 1614 C 151.981 -2.48525 2.45023 0
M  V30 1615 C 153.329 -3.1404 2.8577 0
M  V30 1616 O 154.353 -2.58848 2.44696 0
M  V30 1617 O 153.212 -4.13981 3.56766 0
M  V30 1618 H 150.306 -0.649092 0.512454 0
M  V30 1619 H 152.852 -0.735836 1.52917 0
M  V30 1620 H 151.624 -1.98994 3.36923 0
M  V30 1621 H 151.247 -3.2831 2.24272 0
M  V30 1622 N 152.244 -1.26651 -0.937939 0
M  V30 1623 C 153.469 -1.15279 -1.72411 0
M  V30 1624 C 153.894 0.287866 -1.85884 0
M  V30 1625 O 153.252 1.20855 -1.35143 0
M  V30 1626 C 153.3 -1.83028 -3.10698 0
M  V30 1627 O 152.404 -1.12128 -3.96864 0
M  V30 1628 H 151.745 -0.401504 -0.528858 0
M  V30 1629 H 154.275 -1.67531 -1.1745 0
M  V30 1630 H 154.285 -1.89981 -3.6107 0
M  V30 1631 H 152.96 -2.87833 -3.00208 0
M  V30 1632 H 151.537 -1.13173 -3.55312 0
M  V30 1633 N 153.722 1.14298 -1.08507 0
M  V30 1634 C 154.654 2.1907 -0.673859 0
M  V30 1635 C 155.667 1.60381 0.279577 0
M  V30 1636 O 156.856 1.78374 0.0670754 0
M  V30 1637 C 153.956 3.38888 0.0290979 0
M  V30 1638 C 153.129 4.27103 -0.943494 0
M  V30 1639 C 152.188 5.25477 -0.275676 0
M  V30 1640 O 151.214 5.61709 -0.920401 0
M  V30 1641 N 152.416 5.7227 0.974013 0
M  V30 1642 H 155.181 2.54965 -1.57521 0
M  V30 1643 H 152.742 1.29528 -0.971287 0
M  V30 1644 H 154.734 4.01761 0.48683 0
M  V30 1645 H 153.304 3.01309 0.832555 0
M  V30 1646 H 152.524 3.61149 -1.58004 0
M  V30 1647 H 153.812 4.82905 -1.60251 0
M  V30 1648 H 153.21 5.44965 1.51755 0
M  V30 1649 H 151.767 6.37127 1.37522 0
M  V30 1650 N 155.201 0.870884 1.31352 0
M  V30 1651 C 156.449 0.48132 1.96285 0
M  V30 1652 C 156.77 -0.969813 1.69173 0
M  V30 1653 O 156.04 -1.67998 1.00764 0
M  V30 1654 H 154.62 0.175002 0.726212 0
M  V30 1655 H 157.282 1.11087 1.60143 0
M  V30 1656 H 156.378 0.639825 3.05471 0
M  V30 1657 N 156.679 -1.44442 0.630414 0
M  V30 1658 C 157.925 -2.02351 0.134816 0
M  V30 1659 C 158.258 -1.4947 -1.23986 0
M  V30 1660 O 157.533 -0.678475 -1.82283 0
M  V30 1661 C 157.816 -3.59898 0.120707 0
M  V30 1662 C 157.669 -4.23063 1.52767 0
M  V30 1663 C 158.988 -4.36585 -0.555127 0
M  V30 1664 H 156.107 -0.73527 0.0504646 0
M  V30 1665 H 158.749 -1.72022 0.806751 0
M  V30 1666 H 156.899 -3.85868 -0.451477 0
M  V30 1667 H 158.571 -4.08202 2.14869 0
M  V30 1668 H 156.814 -3.80586 2.08175 0
M  V30 1669 H 157.485 -5.32071 1.46984 0
M  V30 1670 H 159.961 -4.16044 -0.0685429 0
M  V30 1671 H 158.837 -5.46294 -0.534185 0
M  V30 1672 H 159.098 -4.11138 -1.62535 0
M  V30 1673 N 158.157 -0.370918 -1.53173 0
M  V30 1674 C 159.087 0.464847 -2.28826 0
M  V30 1675 C 160.068 1.07936 -1.31468 0
M  V30 1676 O 161.253 1.0956 -1.60344 0
M  V30 1677 C 158.383 1.60196 -3.08147 0
M  V30 1678 C 157.337 1.11443 -4.13237 0
M  V30 1679 C 156.663 2.3422 -4.80672 0
M  V30 1680 C 157.963 0.195384 -5.21934 0
M  V30 1681 H 159.657 -0.166329 -2.98938 0
M  V30 1682 H 157.203 -0.0814359 -1.4377 0
M  V30 1683 H 159.156 2.19332 -3.59822 0
M  V30 1684 H 157.88 2.26045 -2.35735 0
M  V30 1685 H 156.539 0.545727 -3.62515 0
M  V30 1686 H 156.187 2.98537 -4.04827 0
M  V30 1687 H 155.887 2.02269 -5.51689 0
M  V30 1688 H 157.411 2.94032 -5.35143 0
M  V30 1689 H 158.825 0.694375 -5.69079 0
M  V30 1690 H 157.222 -0.0335027 -6.00091 0
M  V30 1691 H 158.292 -0.760961 -4.78892 0
M  V30 1692 N 159.635 1.57281 -0.100228 0
M  V30 1693 C 160.86 1.99302 0.573881 0
M  V30 1694 C 161.285 0.979059 1.60611 0
M  V30 1695 O 160.643 -0.0517803 1.81226 0
M  V30 1696 C 160.691 3.40274 1.19358 0
M  V30 1697 O 159.795 3.41676 2.30935 0
M  V30 1698 H 159.136 0.647944 0.145138 0
M  V30 1699 H 161.666 2.03779 -0.183156 0
M  V30 1700 H 161.676 3.78078 1.53365 0
M  V30 1701 H 160.351 4.13594 0.437385 0
M  V30 1702 H 158.928 3.15672 1.98509 0
M  V30 1703 N 161.113 -0.173488 1.56642 0
M  V30 1704 C 162.338 -0.910149 1.86363 0
M  V30 1705 C 162.763 -1.75132 0.686318 0
M  V30 1706 O 162.121 -1.77595 -0.364643 0
M  V30 1707 C 162.169 -1.76447 3.14482 0
M  V30 1708 O 161.273 -2.86584 2.96553 0
M  V30 1709 H 160.614 -0.255086 0.613047 0
M  V30 1710 H 163.144 -0.172283 2.03873 0
M  V30 1711 H 163.154 -2.16483 3.45831 0
M  V30 1712 H 161.829 -1.14658 3.99783 0
M  V30 1713 H 160.406 -2.50146 2.76553 0
M  V30 1714 N 162.591 -1.51276 -0.441967 0
M  V30 1715 C 163.838 -1.63715 -1.19179 0
M  V30 1716 C 164.166 -0.351175 -1.91303 0
M  V30 1717 O 163.421 0.664524 -1.84072 0
M  V30 1718 C 163.72 -2.78746 -2.23686 0
M  V30 1719 C 163.386 -4.18189 -1.68607 0
M  V30 1720 C 162.048 -4.56125 -1.53308 0
M  V30 1721 C 164.4 -5.05222 -1.28062 0
M  V30 1722 C 161.728 -5.78804 -0.959317 0
M  V30 1723 C 164.08 -6.28476 -0.721162 0
M  V30 1724 C 162.744 -6.65188 -0.55504 0
M  V30 1725 H 162.014 -0.599076 -0.436106 0
M  V30 1726 H 164.661 -1.85296 -0.48351 0
M  V30 1727 H 162.966 -2.51369 -3.00535 0
M  V30 1728 H 164.663 -2.8557 -2.81515 0
M  V30 1729 H 161.253 -3.88277 -1.8149 0
M  V30 1730 H 165.437 -4.76524 -1.38704 0
M  V30 1731 H 160.693 -6.05899 -0.81833 0
M  V30 1732 H 164.867 -6.95259 -0.398458 0
M  V30 1733 H 162.494 -7.60123 -0.108311 0
M  V30 1734 N 164.069 0.697108 -1.41344 0
M  V30 1735 C 165.48 1.27697 -1.36199 0
M  V30 1736 C 165.831 1.9615 -0.0443463 0
M  V30 1737 O 164.956 1.98689 0.857419 0
M  V30 1738 C 165.551 2.32223 -2.46694 0
M  V30 1739 C 164.11 2.8579 -2.44952 0
M  V30 1740 C 163.257 1.59807 -2.26621 0
M  V30 1741 H 166.208 0.491968 -1.50882 0
M  V30 1742 H 166.229 3.1348 -2.15664 0
M  V30 1743 H 165.741 1.82373 -3.42581 0
M  V30 1744 H 163.842 3.3982 -1.52817 0
M  V30 1745 H 163.955 3.36325 -3.41207 0
M  V30 1746 H 162.319 1.8556 -1.7447 0
M  V30 1747 H 163.102 1.11956 -3.24532 0
M  V30 1748 N 165.547 1.27147 0.931209 0
M  V30 1749 C 166.51 1.09615 2.01289 0
M  V30 1750 C 167.51 0.0412581 1.60747 0
M  V30 1751 O 168.7 0.285545 1.71844 0
M  V30 1752 C 165.832 0.669447 3.34262 0
M  V30 1753 H 167.025 2.05662 2.18273 0
M  V30 1754 H 164.578 1.09885 1.11153 0
M  V30 1755 H 165.313 -0.292572 3.22978 0
M  V30 1756 H 165.098 1.43127 3.65044 0
M  V30 1757 H 166.588 0.568921 4.13706 0
M  V30 1758 N 167.025 -1.13721 1.09112 0
M  V30 1759 C 168.436 -1.6648 0.845068 0
M  V30 1760 C 168.787 -1.85911 -0.62701 0
M  V30 1761 O 167.912 -1.57556 -1.48341 0
M  V30 1762 C 168.507 -3.02413 1.52748 0
M  V30 1763 C 167.066 -3.52176 1.32849 0
M  V30 1764 C 166.213 -2.27492 1.58564 0
M  V30 1765 H 169.164 -0.976872 1.25072 0
M  V30 1766 H 169.185 -3.68223 0.958752 0
M  V30 1767 H 168.697 -2.88238 2.59885 0
M  V30 1768 H 166.798 -3.7156 0.278137 0
M  V30 1769 H 166.911 -4.32499 2.0611 0
M  V30 1770 H 165.275 -2.33923 1.00758 0
M  V30 1771 H 166.058 -2.15886 2.66924 0
M  V30 1772 N 168.503 -0.877838 -1.30888 0
M  V30 1773 C 169.435 -0.296607 -2.27273 0
M  V30 1774 C 170.448 0.544799 -1.53414 0
M  V30 1775 O 171.637 0.365511 -1.74718 0
M  V30 1776 C 168.737 0.597481 -3.33592 0
M  V30 1777 C 167.91 -0.213251 -4.3688 0
M  V30 1778 C 166.969 0.610208 -5.2265 0
M  V30 1779 O 165.995 0.035441 -5.69189 0
M  V30 1780 N 167.197 1.92071 -5.47804 0
M  V30 1781 H 169.962 -1.12492 -2.77787 0
M  V30 1782 H 167.523 -0.740105 -1.43993 0
M  V30 1783 H 169.515 1.15425 -3.87891 0
M  V30 1784 H 168.085 1.32647 -2.83061 0
M  V30 1785 H 167.305 -0.951466 -3.82545 0
M  V30 1786 H 168.593 -0.769262 -5.02951 0
M  V30 1787 H 167.991 2.4107 -5.11763 0
M  V30 1788 H 166.548 2.42508 -6.05007 0
M  V30 1789 N 169.982 1.44106 -0.638065 0
M  V30 1790 C 170.945 2.29138 0.0531013 0
M  V30 1791 C 171.945 1.41409 0.765506 0
M  V30 1792 O 173.135 1.63206 0.609046 0
M  V30 1793 C 170.267 3.23144 1.08584 0
M  V30 1794 H 171.46 2.91739 -0.694883 0
M  V30 1795 H 169.013 1.51134 -0.398538 0
M  V30 1796 H 169.748 2.65408 1.86357 0
M  V30 1797 H 169.533 3.87804 0.578852 0
M  V30 1798 H 171.023 3.87004 1.56899 0
M  V30 1799 N 171.46 0.379036 1.52974 0
M  V30 1800 C 172.706 -0.206727 2.01744 0
M  V30 1801 C 173.039 -1.47314 1.26539 0
M  V30 1802 O 172.314 -1.91084 0.362903 0
M  V30 1803 C 172.597 -0.485066 3.56818 0
M  V30 1804 C 172.45 0.795919 4.42702 0
M  V30 1805 C 173.769 -1.28003 4.21074 0
M  V30 1806 H 170.888 -0.0736607 0.73331 0
M  V30 1807 H 173.53 0.506581 1.83122 0
M  V30 1808 H 171.68 -1.09272 3.72816 0
M  V30 1809 H 173.352 1.43307 4.38476 0
M  V30 1810 H 171.595 1.41344 4.10127 0
M  V30 1811 H 172.266 0.555947 5.49193 0
M  V30 1812 H 174.742 -0.765867 4.08991 0
M  V30 1813 H 173.618 -1.44352 5.29579 0
M  V30 1814 H 173.879 -2.29236 3.78026 0
M  V30 1815 N 172.938 -1.57226 0.108567 0
M  V30 1816 C 173.87 -2.11809 -0.875752 0
M  V30 1817 C 174.883 -1.05839 -1.23701 0
M  V30 1818 O 176.072 -1.33245 -1.18778 0
M  V30 1819 C 173.172 -2.59411 -2.18081 0
M  V30 1820 C 172.345 -3.89364 -1.99284 0
M  V30 1821 C 171.404 -4.22672 -3.13424 0
M  V30 1822 O 170.43 -4.91668 -2.86795 0
M  V30 1823 N 171.632 -3.79154 -4.3957 0
M  V30 1824 H 174.397 -2.9689 -0.409477 0
M  V30 1825 H 171.958 -1.61721 -0.076158 0
M  V30 1826 H 173.95 -2.7873 -2.93414 0
M  V30 1827 H 172.52 -1.79268 -2.5609 0
M  V30 1828 H 171.74 -3.79059 -1.08203 0
M  V30 1829 H 173.028 -4.74358 -1.84017 0
M  V30 1830 H 172.426 -3.23486 -4.64083 0
M  V30 1831 H 170.983 -4.03602 -5.11809 0
M  V30 1832 N 174.416 0.165178 -1.56732 0
M  V30 1833 C 175.693 0.908443 -1.73224 0
M  V30 1834 C 176.073 2.0013 -0.67165 0
M  V30 1835 O 175.421 2.26353 0.31253 0
M  V30 1836 C 175.631 1.46756 -3.16644 0
M  V30 1837 C 176.979 1.93809 -3.77787 0
M  V30 1838 O 178.003 1.56537 -3.1996 0
M  V30 1839 O 176.862 2.62486 -4.79336 0
M  V30 1840 H 173.956 0.428025 -0.707618 0
M  V30 1841 H 176.502 0.152526 -1.69013 0
M  V30 1842 H 175.274 0.68129 -3.85323 0
M  V30 1843 H 174.897 2.28749 -3.25207 0
M  V30 1844 N 175.894 1.51508 0.433938 0
M  V30 1845 C 176.842 1.73646 1.54757 0
M  V30 1846 C 177.836 0.602854 1.5831 0
M  V30 1847 O 179.042 0.784318 1.62014 0
M  V30 1848 H 175.417 0.548718 0.51421 0
M  V30 1849 H 177.388 2.66991 1.33261 0
M  V30 1850 C 176.137 1.88172 2.92381 0
M  V30 1851 H 175.46 2.74808 2.90381 0
M  V30 1852 H 176.9 2.07672 3.6966 0
M  V30 1853 C 175.359 0.64239 3.30719 0
M  V30 1854 O 175.889 -0.201362 4.01195 0
M  V30 1855 N 174.095 0.485489 2.86516 0
M  V30 1856 H 173.642 1.17318 2.29334 0
M  V30 1857 H 173.6 -0.342482 3.12529 0
M  V30 1858 N 177.372 -0.689602 1.41712 0
M  V30 1859 C 178.783 -1.26973 1.36875 0
M  V30 1860 C 179.134 -1.96124 0.054748 0
M  V30 1861 O 178.259 -1.99141 -0.84687 0
M  V30 1862 C 178.854 -2.30912 2.47922 0
M  V30 1863 C 177.413 -2.84486 2.46464 0
M  V30 1864 C 176.56 -1.58603 2.27465 0
M  V30 1865 H 179.511 -0.48396 1.51141 0
M  V30 1866 H 179.532 -3.12331 2.17323 0
M  V30 1867 H 179.044 -1.80554 3.43543 0
M  V30 1868 H 177.145 -3.39005 1.54617 0
M  V30 1869 H 177.258 -3.34511 3.42986 0
M  V30 1870 H 175.622 -1.84632 1.75451 0
M  V30 1871 H 176.405 -1.10233 3.25121 0
M  V30 1872 N 178.85 -1.27639 -0.924453 0
M  V30 1873 C 179.813 -1.10681 -2.00705 0
M  V30 1874 C 180.813 -0.0497823 -1.60723 0
M  V30 1875 O 182.003 -0.294654 -1.7169 0
M  V30 1876 C 179.135 -0.687164 -3.33902 0
M  V30 1877 H 180.328 -2.06817 -2.17179 0
M  V30 1878 H 177.881 -1.10473 -1.10569 0
M  V30 1879 H 178.616 0.275439 -3.23128 0
M  V30 1880 H 178.401 -1.45061 -3.6428 0
M  V30 1881 H 179.891 -0.590853 -4.13399 0
M  V30 1882 N 180.328 1.1314 -1.09713 0
M  V30 1883 C 181.261 2.17735 -0.683137 0
M  V30 1884 C 182.239 1.59582 0.311841 0
M  V30 1885 O 183.423 1.87298 0.212514 0
M  V30 1886 C 180.55 3.38699 -0.00684324 0
M  V30 1887 C 179.596 4.1546 -0.964102 0
M  V30 1888 S 180.429 4.74733 -2.47767 0
M  V30 1889 C 181.585 5.9904 -1.81387 0
M  V30 1890 H 181.818 2.52515 -1.56918 0
M  V30 1891 H 179.351 1.24484 -0.913404 0
M  V30 1892 H 181.309 4.08765 0.377044 0
M  V30 1893 H 179.97 3.02214 0.85589 0
M  V30 1894 H 179.163 5.02093 -0.43803 0
M  V30 1895 H 178.765 3.51066 -1.28953 0
M  V30 1896 H 181.057 6.67846 -1.13967 0
M  V30 1897 H 182 6.56261 -2.65947 0
M  V30 1898 H 182.408 5.4976 -1.28155 0
M  V30 1899 N 181.806 0.884767 1.30421 0
M  V30 1900 C 183.217 0.553656 1.78302 0
M  V30 1901 C 183.568 -0.930153 1.7275 0
M  V30 1902 O 182.693 -1.72681 1.30423 0
M  V30 1903 C 183.288 0.998234 3.2376 0
M  V30 1904 C 181.847 0.71854 3.69478 0
M  V30 1905 C 180.994 1.18132 2.50879 0
M  V30 1906 H 183.945 1.06901 1.17294 0
M  V30 1907 H 183.966 0.327118 3.79091 0
M  V30 1908 H 183.478 2.0782 3.27769 0
M  V30 1909 H 181.579 -0.349444 3.70958 0
M  V30 1910 H 181.692 1.30595 4.60958 0
M  V30 1911 H 180.056 0.600669 2.47516 0
M  V30 1912 H 180.839 2.26902 2.57624 0
M  V30 1913 N 183.284 -1.43765 0.645699 0
M  V30 1914 C 184.512 -2.06253 0.163556 0
M  V30 1915 C 184.927 -1.48352 -1.16778 0
M  V30 1916 O 184.284 -0.611932 -1.71935 0
M  V30 1917 C 184.335 -3.61453 0.0583186 0
M  V30 1918 O 184.056 -4.172 1.33702 0
M  V30 1919 C 185.557 -4.41002 -0.450795 0
M  V30 1920 H 182.777 -0.665413 0.0864077 0
M  V30 1921 H 185.321 -1.84396 0.884222 0
M  V30 1922 H 183.476 -3.82522 -0.612865 0
M  V30 1923 H 183.89 -5.10791 1.19131 0
M  V30 1924 H 185.364 -5.49966 -0.473403 0
M  V30 1925 H 185.841 -4.13488 -1.48068 0
M  V30 1926 H 186.447 -4.24886 0.187637 0
M  V30 1927 N 184.763 -0.387143 -1.52771 0
M  V30 1928 C 185.988 0.198407 -2.06449 0
M  V30 1929 C 186.413 1.39918 -1.25716 0
M  V30 1930 O 185.771 1.79099 -0.281657 0
M  V30 1931 C 185.819 0.548893 -3.56398 0
M  V30 1932 O 184.923 1.64315 -3.78252 0
M  V30 1933 H 184.264 0.0237731 -0.663574 0
M  V30 1934 H 186.794 -0.553989 -1.96957 0
M  V30 1935 H 186.804 0.813812 -3.99801 0
M  V30 1936 H 185.479 -0.329005 -4.14597 0
M  V30 1937 H 184.056 1.37211 -3.46738 0
M  V30 1938 N 186.241 1.57166 -0.116904 0
M  V30 1939 C 187.466 1.999 0.55271 0
M  V30 1940 C 187.891 0.996039 1.59564 0
M  V30 1941 O 187.249 -0.032556 1.81271 0
M  V30 1942 C 187.297 3.4152 1.15742 0
M  V30 1943 O 186.401 3.44106 2.27299 0
M  V30 1944 H 185.742 0.649447 0.138258 0
M  V30 1945 H 188.272 2.03573 -0.204759 0
M  V30 1946 H 188.282 3.79684 1.49346 0
M  V30 1947 H 186.957 4.14034 0.393493 0
M  V30 1948 H 185.534 3.17759 1.9515 0
M  V30 1949 N 187.719 -0.156864 1.56817 0
M  V30 1950 C 188.967 -0.869404 1.82444 0
M  V30 1951 C 189.288 -1.82147 0.69623 0
M  V30 1952 O 188.558 -1.93847 -0.28287 0
M  V30 1953 H 187.138 -0.324043 0.673056 0
M  V30 1954 H 189.8 -0.153224 1.94297 0
M  V30 1955 H 188.896 -1.43761 2.77019 0
M  V30 1956 N 189.197 -1.51736 -0.425897 0
M  V30 1957 C 190.422 -1.69082 -1.20108 0
M  V30 1958 C 190.847 -0.392398 -1.83962 0
M  V30 1959 O 190.205 0.64858 -1.69302 0
M  V30 1960 C 190.253 -2.81604 -2.25237 0
M  V30 1961 O 189.357 -2.46004 -3.30992 0
M  V30 1962 H 188.698 -0.563408 -0.35138 0
M  V30 1963 H 191.228 -1.98358 -0.501512 0
M  V30 1964 H 191.238 -3.06025 -2.69838 0
M  V30 1965 H 189.913 -3.75817 -1.78142 0
M  V30 1966 H 188.49 -2.32195 -2.91787 0
M  V30 1967 N 190.675 0.682077 -1.42076 0
M  V30 1968 C 191.585 1.82535 -1.47371 0
M  V30 1969 C 192.601 1.7017 -0.363079 0
M  V30 1970 O 193.777 1.91848 -0.612875 0
M  V30 1971 C 190.842 3.18624 -1.36674 0
M  V30 1972 C 189.903 3.42999 -2.58167 0
M  V30 1973 C 189.136 4.72595 -2.4797 0
M  V30 1974 O 189.359 5.50006 -1.5116 0
M  V30 1975 O 188.293 4.98054 -3.37974 0
M  V30 1976 H 192.119 1.81023 -2.43853 0
M  V30 1977 H 189.704 0.836887 -1.2376 0
M  V30 1978 H 191.586 3.99847 -1.33043 0
M  V30 1979 H 190.261 3.20789 -0.433138 0
M  V30 1980 H 189.168 2.61653 -2.67373 0
M  V30 1981 H 190.501 3.45659 -3.50401 0
M  V30 1982 N 192.153 1.28127 0.917671 0
M  V30 1983 C 193.401 1.14825 1.66312 0
M  V30 1984 C 193.722 -0.304379 1.9261 0
M  V30 1985 O 192.992 -1.21149 1.53947 0
M  V30 1986 H 191.572 0.421953 0.616413 0
M  V30 1987 H 194.234 1.608 1.10134 0
M  V30 1988 H 193.33 1.68489 2.62712 0
M  V30 1989 N 193.631 -1.12557 1.10312 0
M  V30 1990 C 194.579 -2.20325 0.745629 0
M  V30 1991 C 195.573 -1.67429 -0.25763 0
M  V30 1992 O 196.779 -1.79612 -0.118132 0
M  V30 1993 H 193.154 -0.718118 0.223182 0
M  V30 1994 H 195.125 -2.47733 1.66346 0
M  V30 1995 C 193.874 -3.47168 0.192262 0
M  V30 1996 H 193.197 -3.88215 0.955475 0
M  V30 1997 H 194.637 -4.23995 -0.0198274 0
M  V30 1998 C 193.096 -3.19298 -1.07472 0
M  V30 1999 O 193.626 -3.3891 -2.15645 0
M  V30 2000 N 191.832 -2.73113 -0.992847 0
M  V30 2001 H 191.379 -2.57354 -0.112474 0
M  V30 2002 H 191.337 -2.54842 -1.84127 0
M  V30 2003 N 195.109 -0.891671 -1.2995 0
M  V30 2004 C 196.355 -0.514261 -1.96171 0
M  V30 2005 C 196.688 0.935506 -1.70182 0
M  V30 2006 O 195.963 1.66204 -1.01028 0
M  V30 2007 C 196.246 -0.797719 -3.51153 0
M  V30 2008 C 196.099 -2.2986 -3.86632 0
M  V30 2009 C 197.418 -0.278749 -4.39216 0
M  V30 2010 H 194.537 -0.188314 -0.712535 0
M  V30 2011 H 197.179 -1.11689 -1.53706 0
M  V30 2012 H 195.329 -0.284826 -3.87455 0
M  V30 2013 H 197.001 -2.88042 -3.60319 0
M  V30 2014 H 195.244 -2.76257 -3.34462 0
M  V30 2015 H 195.915 -2.44753 -4.94773 0
M  V30 2016 H 198.391 -0.717825 -4.09862 0
M  V30 2017 H 197.267 -0.506353 -5.46559 0
M  V30 2018 H 197.528 0.820266 -4.34424 0
M  V30 2019 N 196.587 1.43421 -0.653314 0
M  V30 2020 C 197.534 2.30768 0.0382271 0
M  V30 2021 C 198.504 1.44755 0.814576 0
M  V30 2022 O 199.689 1.73624 0.791162 0
M  V30 2023 C 196.829 3.30336 0.998599 0
M  V30 2024 C 195.942 4.31448 0.218342 0
M  V30 2025 C 195.077 5.18098 1.17252 0
M  V30 2026 C 194.116 6.10902 0.382702 0
M  V30 2027 N 193.253 6.90176 1.28848 0
M  V30 2028 H 198.093 2.89357 -0.712511 0
M  V30 2029 H 195.63 1.42548 -0.363128 0
M  V30 2030 H 197.588 3.86572 1.56901 0
M  V30 2031 H 196.218 2.73397 1.71621 0
M  V30 2032 H 195.27 3.77506 -0.46836 0
M  V30 2033 H 196.582 4.97227 -0.395812 0
M  V30 2034 H 195.736 5.7896 1.81356 0
M  V30 2035 H 194.475 4.52444 1.82058 0
M  V30 2036 H 193.48 5.49128 -0.27169 0
M  V30 2037 H 194.705 6.78598 -0.260957 0
M  V30 2038 H 192.651 6.27171 1.92334 0
M  V30 2039 H 192.568 7.52478 0.728887 0
M  V30 2040 H 193.836 7.55543 1.91766 0
M  V30 2041 N 198.065 0.39524 1.52563 0
M  V30 2042 C 198.995 -0.428384 2.29537 0
M  V30 2043 C 199.976 -1.05831 1.33169 0
M  V30 2044 O 201.161 -1.06995 1.62067 0
M  V30 2045 C 198.291 -1.55274 3.10656 0
M  V30 2046 C 197.245 -1.04855 4.14957 0
M  V30 2047 C 196.571 -2.26543 4.84337 0
M  V30 2048 C 197.871 -0.112324 5.22179 0
M  V30 2049 H 199.565 0.213867 2.98635 0
M  V30 2050 H 197.111 0.104298 1.43622 0
M  V30 2051 H 199.064 -2.1358 3.63265 0
M  V30 2052 H 197.788 -2.22266 2.39302 0
M  V30 2053 H 196.447 -0.487985 3.63338 0
M  V30 2054 H 196.095 -2.92059 4.09525 0
M  V30 2055 H 195.795 -1.93466 5.54837 0
M  V30 2056 H 197.319 -2.85481 5.39753 0
M  V30 2057 H 198.733 -0.603752 5.70112 0
M  V30 2058 H 197.13 0.128968 5.99961 0
M  V30 2059 H 198.2 0.837052 4.77621 0
M  V30 2060 N 199.544 -1.57102 0.125237 0
M  V30 2061 C 200.784 -1.97294 -0.534259 0
M  V30 2062 C 201.148 -1.0074 -1.63449 0
M  V30 2063 O 202.349 -1.29893 -2.35332 0
M  V30 2064 C 200.62 -3.41705 -1.04748 0
M  V30 2065 S 202.179 -4.03913 -1.71463 0
M  V30 2066 H 198.997 -0.689517 -0.173458 0
M  V30 2067 H 201.599 -1.94349 0.211797 0
M  V30 2068 H 200.303 -4.09723 -0.235649 0
M  V30 2069 H 199.834 -3.48315 -1.82867 0
M  V30 2070 H 201.849 -3.95182 -3.00077 0
M  V30 2071 N 201.022 0.148545 -1.56898 0
M  V30 2072 C 202.247 0.880385 -1.87787 0
M  V30 2073 C 202.672 1.74018 -0.714093 0
M  V30 2074 O 202.03 1.78153 0.336343 0
M  V30 2075 C 202.078 1.71422 -3.17249 0
M  V30 2076 O 201.182 2.8183 -3.01074 0
M  V30 2077 H 200.523 0.245301 -0.617028 0
M  V30 2078 H 203.053 0.139826 -2.04122 0
M  V30 2079 H 203.063 2.10954 -3.49231 0
M  V30 2080 H 201.738 1.08284 -4.01556 0
M  V30 2081 H 200.315 2.45715 -2.80497 0
M  V30 2082 N 202.5 1.5196 0.417844 0
M  V30 2083 C 203.43 1.77634 1.51554 0
M  V30 2084 C 204.411 0.626918 1.58126 0
M  V30 2085 O 205.596 0.871632 1.7354 0
M  V30 2086 C 202.726 1.91911 2.8946 0
M  V30 2087 C 201.68 3.07463 2.97743 0
M  V30 2088 C 201.006 3.06951 4.37819 0
M  V30 2089 C 202.306 4.47082 2.70027 0
M  V30 2090 H 204 2.6955 1.3032 0
M  V30 2091 H 201.546 1.29706 0.625492 0
M  V30 2092 H 203.499 2.08455 3.6623 0
M  V30 2093 H 202.223 0.966598 3.11969 0
M  V30 2094 H 200.882 2.90656 2.23416 0
M  V30 2095 H 200.53 2.09438 4.57323 0
M  V30 2096 H 200.23 3.84556 4.44286 0
M  V30 2097 H 201.754 3.25613 5.16535 0
M  V30 2098 H 203.168 4.6414 3.36522 0
M  V30 2099 H 201.565 5.2654 2.87881 0
M  V30 2100 H 202.635 4.55777 1.65514 0
M  V30 2101 N 203.978 -0.674533 1.42435 0
M  V30 2102 C 204.888 -1.81751 1.48337 0
M  V30 2103 C 205.904 -1.69975 0.372099 0
M  V30 2104 O 207.08 -1.91521 0.62304 0
M  V30 2105 C 204.145 -3.17895 1.38361 0
M  V30 2106 C 203.206 -3.41625 2.59982 0
M  V30 2107 C 202.439 -4.71274 2.50473 0
M  V30 2108 O 202.662 -5.49197 1.54075 0
M  V30 2109 O 201.596 -4.96254 3.4061 0
M  V30 2110 H 205.422 -1.79728 2.44809 0
M  V30 2111 H 203.007 -0.830312 1.24202 0
M  V30 2112 H 204.889 -3.99136 1.35161 0
M  V30 2113 H 203.564 -3.20555 0.450144 0
M  V30 2114 H 202.471 -2.60231 2.68757 0
M  V30 2115 H 203.804 -3.43796 3.52229 0
M  V30 2116 N 205.456 -1.28612 -0.910864 0
M  V30 2117 C 206.366 -1.14643 -2.0468 0
M  V30 2118 C 207.382 -0.0723121 -1.7385 0
M  V30 2119 O 208.558 -0.282178 -1.99413 0
M  V30 2120 C 205.623 -0.812561 -3.37044 0
M  V30 2121 C 204.684 -1.96935 -3.81465 0
M  V30 2122 C 203.917 -1.65131 -5.07511 0
M  V30 2123 O 204.14 -0.567013 -5.67575 0
M  V30 2124 O 203.074 -2.49585 -5.47714 0
M  V30 2125 H 206.9 -2.1001 -2.19384 0
M  V30 2126 H 204.485 -1.07958 -1.03274 0
M  V30 2127 H 206.367 -0.640441 -4.16505 0
M  V30 2128 H 205.042 0.111426 -3.23508 0
M  V30 2129 H 203.949 -2.19664 -3.02818 0
M  V30 2130 H 205.282 -2.87414 -3.99567 0
M  V30 2131 N 206.934 1.1197 -1.10907 0
M  V30 2132 C 207.897 2.16031 -0.765707 0
M  V30 2133 C 208.897 1.59393 0.212235 0
M  V30 2134 O 210.087 1.74196 -0.0115441 0
M  V30 2135 C 207.219 3.40632 -0.135053 0
M  V30 2136 H 208.412 2.47919 -1.68748 0
M  V30 2137 H 205.965 1.27061 -0.910226 0
M  V30 2138 H 206.7 3.14348 0.797218 0
M  V30 2139 H 206.485 3.8302 -0.838937 0
M  V30 2140 H 207.975 4.17505 0.0892469 0
M  V30 2141 N 208.412 0.89855 1.29475 0
M  V30 2142 C 209.344 0.332726 2.26772 0
M  V30 2143 C 210.357 -0.520323 1.54261 0
M  V30 2144 O 211.546 -0.337668 1.75277 0
M  V30 2145 C 208.646 -0.544334 3.345 0
M  V30 2146 C 207.819 0.282728 4.36485 0
M  V30 2147 C 206.878 -0.526982 5.23555 0
M  V30 2148 O 205.904 0.0551165 5.69173 0
M  V30 2149 N 207.106 -1.83331 5.5079 0
M  V30 2150 H 209.871 1.16897 2.75962 0
M  V30 2151 H 207.432 0.762919 1.42798 0
M  V30 2152 H 209.424 -1.09239 3.89678 0
M  V30 2153 H 207.994 -1.28127 2.85136 0
M  V30 2154 H 207.214 1.01221 3.80983 0
M  V30 2155 H 208.502 0.84918 5.01664 0
M  V30 2156 H 207.9 -2.32898 5.15534 0
M  V30 2157 H 206.457 -2.32852 6.08788 0
M  V30 2158 N 209.89 -1.43072 0.660911 0
M  V30 2159 C 211.306 -1.56169 0.329173 0
M  V30 2160 C 211.506 -1.64317 -1.16629 0
M  V30 2161 O 210.562 -1.60245 -1.95135 0
M  V30 2162 C 211.875 -2.81873 1.04729 0
M  V30 2163 C 213.423 -2.95627 1.02828 0
M  V30 2164 C 213.898 -4.24174 1.72744 0
M  V30 2165 N 215.389 -4.31055 1.69545 0
M  V30 2166 C 216.124 -5.29304 2.20511 0
M  V30 2167 N 215.62 -6.33786 2.79799 0
M  V30 2168 N 217.413 -5.21008 2.10966 0
M  V30 2169 H 209.564 -1.36027 1.63127 0
M  V30 2170 H 211.827 -0.653823 0.686454 0
M  V30 2171 H 211.533 -2.81942 2.10242 0
M  V30 2172 H 211.407 -3.72338 0.603702 0
M  V30 2173 H 213.794 -2.95094 -0.0184742 0
M  V30 2174 H 213.875 -2.06431 1.51063 0
M  V30 2175 H 213.519 -4.25467 2.7738 0
M  V30 2176 H 213.449 -5.1228 1.2197 0
M  V30 2177 H 215.94 -3.56174 1.26288 0
M  V30 2178 H 216.253 -7.05086 3.16344 0
M  V30 2179 H 214.598 -6.34387 2.83863 0
M  V30 2180 H 217.789 -4.38301 1.64347 0
M  V30 2181 H 217.962 -5.97416 2.50993 0
M  V30 2182 N 211.368 -0.403325 -1.52352 0
M  V30 2183 C 212.617 0.175668 -2.00934 0
M  V30 2184 C 212.93 1.46718 -1.29356 0
M  V30 2185 O 214.136 2.12708 -1.68724 0
M  V30 2186 C 212.592 0.363612 -3.58058 0
M  V30 2187 C 212.2 -0.915472 -4.38547 0
M  V30 2188 C 213.944 0.89821 -4.14888 0
M  V30 2189 C 211.851 -0.695035 -5.87302 0
M  V30 2190 H 210.781 0.0694234 -0.750797 0
M  V30 2191 H 213.432 -0.527879 -1.75743 0
M  V30 2192 H 211.814 1.12935 -3.79555 0
M  V30 2193 H 212.988 -1.68691 -4.28812 0
M  V30 2194 H 211.303 -1.37606 -3.93006 0
M  V30 2195 H 213.9 1.07907 -5.23699 0
M  V30 2196 H 214.243 1.87126 -3.71873 0
M  V30 2197 H 214.776 0.191681 -3.97338 0
M  V30 2198 H 211.515 -1.63948 -6.34666 0
M  V30 2199 H 211.035 0.0372116 -5.99788 0
M  V30 2200 H 212.714 -0.33497 -6.46132 0
M  V30 2201 N 212.846 1.57033 -0.133567 0
M  V30 2202 C 214.092 1.96764 0.515326 0
M  V30 2203 C 214.447 1.01653 1.63353 0
M  V30 2204 O 213.74 0.0491374 1.91537 0
M  V30 2205 C 213.934 3.40674 1.08057 0
M  V30 2206 C 213.763 4.49696 0.0186522 0
M  V30 2207 C 212.533 5.03567 -0.418174 0
M  V30 2208 C 214.731 5.08536 -0.767809 0
M  V30 2209 N 212.713 5.9618 -1.46434 0
M  V30 2210 C 214.084 5.97231 -1.6648 0
M  V30 2211 C 216.139 4.9115 -0.817087 0
M  V30 2212 C 214.842 6.70401 -2.60681 0
M  V30 2213 C 216.868 5.65012 -1.74687 0
M  V30 2214 C 216.23 6.53403 -2.63141 0
M  V30 2215 H 212.329 0.765919 0.157771 0
M  V30 2216 H 214.913 1.93395 -0.22506 0
M  V30 2217 H 213.084 3.44662 1.79061 0
M  V30 2218 H 214.816 3.67495 1.69497 0
M  V30 2219 H 211.571 4.73594 -0.0229803 0
M  V30 2220 H 211.995 6.47191 -1.98678 0
M  V30 2221 H 216.637 4.22543 -0.147326 0
M  V30 2222 H 214.355 7.38245 -3.28664 0
M  V30 2223 H 217.941 5.53559 -1.79063 0
M  V30 2224 H 216.821 7.09556 -3.33917 0
M  V30 2225 N 214.325 -0.140222 1.56975 0
M  V30 2226 C 215.272 -1.17292 1.98774 0
M  V30 2227 C 216.242 -1.4232 0.856408 0
M  V30 2228 O 217.427 -1.54541 1.119 0
M  V30 2229 C 214.567 -2.49973 2.37923 0
M  V30 2230 C 213.68 -2.32062 3.64378 0
M  V30 2231 C 212.815 -3.57825 3.926 0
M  V30 2232 C 211.854 -3.3498 5.12303 0
M  V30 2233 N 210.991 -4.52891 5.36502 0
M  V30 2234 H 215.831 -0.809472 2.86795 0
M  V30 2235 H 213.368 -0.388237 1.41884 0
M  V30 2236 H 215.326 -3.27346 2.58652 0
M  V30 2237 H 213.956 -2.84252 1.52972 0
M  V30 2238 H 213.008 -1.45711 3.51387 0
M  V30 2239 H 214.32 -2.11145 4.51906 0
M  V30 2240 H 213.474 -4.43624 4.13863 0
M  V30 2241 H 212.213 -3.81753 3.03506 0
M  V30 2242 H 211.218 -2.4757 4.90906 0
M  V30 2243 H 212.443 -3.12444 6.02956 0
M  V30 2244 H 210.389 -4.76979 4.50363 0
M  V30 2245 H 210.306 -4.35001 6.18312 0
M  V30 2246 H 211.574 -5.39884 5.62268 0
M  V30 2247 N 215.803 -1.52179 -0.40978 0
M  V30 2248 C 216.735 -1.71703 -1.51825 0
M  V30 2249 C 217.748 -0.597445 -1.51441 0
M  V30 2250 O 218.937 -0.872582 -1.55719 0
M  V30 2251 C 216.037 -1.74171 -2.90719 0
M  V30 2252 C 215.21 -3.03156 -3.15302 0
M  V30 2253 C 214.269 -2.97445 -4.34065 0
M  V30 2254 O 213.295 -3.71352 -4.31377 0
M  V30 2255 N 214.497 -2.15191 -5.39141 0
M  V30 2256 H 217.262 -2.67334 -1.35472 0
M  V30 2257 H 214.823 -1.50409 -0.599069 0
M  V30 2258 H 216.815 -1.67884 -3.68235 0
M  V30 2259 H 215.385 -0.860166 -3.00533 0
M  V30 2260 H 214.605 -3.23097 -2.25836 0
M  V30 2261 H 215.893 -3.88484 -3.28569 0
M  V30 2262 H 215.291 -1.54573 -5.44173 0
M  V30 2263 H 213.848 -2.1476 -6.15403 0
M  V30 2264 N 217.281 0.66697 -1.42791 0
M  V30 2265 C 218.228 1.7803 -1.4688 0
M  V30 2266 C 219.198 1.6299 -0.319919 0
M  V30 2267 O 220.383 1.83432 -0.525118 0
M  V30 2268 C 217.523 3.1611 -1.38451 0
M  V30 2269 C 216.636 3.42381 -2.63437 0
M  V30 2270 C 215.771 4.70232 -2.47094 0
M  V30 2271 C 214.81 4.89564 -3.67415 0
M  V30 2272 N 213.947 6.08661 -3.49966 0
M  V30 2273 H 218.787 1.7387 -2.42019 0
M  V30 2274 H 216.324 0.84868 -1.20149 0
M  V30 2275 H 218.282 3.95914 -1.31561 0
M  V30 2276 H 216.912 3.19374 -0.469033 0
M  V30 2277 H 215.964 2.56774 -2.80662 0
M  V30 2278 H 217.276 3.52557 -3.52853 0
M  V30 2279 H 216.43 5.5814 -2.37834 0
M  V30 2280 H 215.169 4.62353 -1.5518 0
M  V30 2281 H 214.174 4.00096 -3.77099 0
M  V30 2282 H 215.399 4.99282 -4.6032 0
M  V30 2283 H 213.345 6.0194 -2.60776 0
M  V30 2284 H 213.262 6.19733 -4.32975 0
M  V30 2285 H 214.53 6.99226 -3.44532 0
M  V30 2286 N 218.759 1.29093 0.90403 0
M  V30 2287 C 219.984 1.19809 1.69294 0
M  V30 2288 C 220.409 -0.238481 1.86582 0
M  V30 2289 O 219.767 -1.1723 1.383 0
M  V30 2290 C 219.815 1.91202 3.05736 0
M  V30 2291 O 218.919 1.22611 3.93752 0
M  V30 2292 H 218.26 0.415385 0.518027 0
M  V30 2293 H 220.79 1.70586 1.12967 0
M  V30 2294 H 220.8 1.99487 3.55906 0
M  V30 2295 H 219.475 2.95692 2.92471 0
M  V30 2296 H 218.052 1.22554 3.52186 0
M  V30 2297 N 220.237 -1.11381 1.11499 0
M  V30 2298 C 221.2 -2.15622 0.777153 0
M  V30 2299 C 222.2 -1.59504 -0.203779 0
M  V30 2300 O 223.39 -1.74188 0.020782 0
M  V30 2301 C 220.522 -3.40556 0.153116 0
M  V30 2302 H 221.715 -2.47021 1.70061 0
M  V30 2303 H 219.268 -1.26577 0.916952 0
M  V30 2304 H 220.003 -3.14767 -0.780536 0
M  V30 2305 H 219.788 -3.8257 0.859238 0
M  V30 2306 H 221.278 -4.17546 -0.0671044 0
M  V30 2307 N 221.715 -0.905404 -1.28997 0
M  V30 2308 C 222.625 -0.392246 -2.31298 0
M  V30 2309 C 223.641 0.515889 -1.66176 0
M  V30 2310 O 224.817 0.404093 -1.97304 0
M  V30 2311 C 221.882 0.36686 -3.44754 0
M  V30 2312 C 220.943 -0.573485 -4.25452 0
M  V30 2313 C 220.176 0.149488 -5.33491 0
M  V30 2314 O 220.399 1.37255 -5.5364 0
M  V30 2315 O 219.333 -0.510919 -5.99728 0
M  V30 2316 H 223.159 -1.2411 -2.77183 0
M  V30 2317 H 220.744 -0.669926 -1.33538 0
M  V30 2318 H 222.626 0.795907 -4.13816 0
M  V30 2319 H 221.301 1.19169 -3.00966 0
M  V30 2320 H 220.208 -1.05176 -3.59011 0
M  V30 2321 H 221.541 -1.36489 -4.72897 0
M  V30 2322 N 223.193 1.4272 -0.668489 0
M  V30 2323 C 224.442 2.00846 -0.185389 0
M  V30 2324 C 224.755 1.53442 1.21305 0
M  V30 2325 O 225.961 2.03944 1.79218 0
M  V30 2326 C 224.417 3.58805 -0.280591 0
M  V30 2327 C 224.025 4.15198 -1.68268 0
M  V30 2328 C 225.769 4.24255 0.14412 0
M  V30 2329 C 223.676 5.655 -1.73099 0
M  V30 2330 H 222.606 0.751145 -0.0655475 0
M  V30 2331 H 225.257 1.63516 -0.832752 0
M  V30 2332 H 223.639 3.93608 0.434553 0
M  V30 2333 H 224.813 3.91866 -2.42441 0
M  V30 2334 H 223.128 3.62176 -2.05469 0
M  V30 2335 H 225.725 5.34547 0.128086 0
M  V30 2336 H 226.068 3.99277 1.17827 0
M  V30 2337 H 226.601 3.94389 -0.519798 0
M  V30 2338 H 223.34 5.95268 -2.74475 0
M  V30 2339 H 222.86 5.90842 -1.03274 0
M  V30 2340 H 224.539 6.29808 -1.48158 0
M  V30 2341 N 224.671 0.411399 1.52136 0
M  V30 2342 C 225.901 -0.16284 2.05957 0
M  V30 2343 C 226.309 -1.3922 1.28119 0
M  V30 2344 O 225.652 -1.80768 0.326881 0
M  V30 2345 C 225.714 -0.575946 3.54856 0
M  V30 2346 C 225.378 0.542998 4.53763 0
M  V30 2347 C 226.375 1.40726 5.00492 0
M  V30 2348 C 224.06 0.716337 4.97166 0
M  V30 2349 C 226.054 2.4298 5.8927 0
M  V30 2350 C 223.741 1.74218 5.8574 0
M  V30 2351 C 224.739 2.59731 6.31687 0
M  V30 2352 O 224.427 3.60558 7.18507 0
M  V30 2353 H 224.159 -0.0229125 0.675612 0
M  V30 2354 H 226.713 0.581634 1.96993 0
M  V30 2355 H 224.943 -1.37274 3.61515 0
M  V30 2356 H 226.632 -1.07836 3.91313 0
M  V30 2357 H 227.398 1.28476 4.67674 0
M  V30 2358 H 223.277 0.0603857 4.6096 0
M  V30 2359 H 226.821 3.0976 6.25055 0
M  V30 2360 H 222.718 1.86498 6.17971 0
M  V30 2361 H 223.486 3.56829 7.36624 0
M  V30 2362 N 226.149 -1.5696 0.141893 0
M  V30 2363 C 227.56 -1.82797 -0.379776 0
M  V30 2364 C 227.911 -1.06033 -1.6508 0
M  V30 2365 O 227.036 -0.304011 -2.14254 0
M  V30 2366 C 227.631 -3.31578 -0.695802 0
M  V30 2367 C 226.19 -3.58014 -1.16201 0
M  V30 2368 C 225.337 -2.76699 -0.182455 0
M  V30 2369 H 228.288 -1.54406 0.366675 0
M  V30 2370 H 228.309 -3.47454 -1.55099 0
M  V30 2371 H 227.821 -3.87421 0.229449 0
M  V30 2372 H 225.922 -3.07553 -2.10338 0
M  V30 2373 H 226.035 -4.66501 -1.09151 0
M  V30 2374 H 224.399 -2.45618 -0.674072 0
M  V30 2375 H 225.182 -3.35311 0.736297 0
M  V30 2376 N 227.627 0.131896 -1.57047 0
M  V30 2377 C 228.876 0.84044 -1.83356 0
M  V30 2378 C 229.189 1.81646 -0.725535 0
M  V30 2379 O 230.395 2.57025 -0.874659 0
M  V30 2380 C 228.851 1.54528 -3.25037 0
M  V30 2381 C 228.459 0.610902 -4.43815 0
M  V30 2382 C 230.203 2.23972 -3.60606 0
M  V30 2383 C 228.11 1.31823 -5.76521 0
M  V30 2384 H 227.04 0.317599 -0.683847 0
M  V30 2385 H 229.691 0.0931561 -1.83263 0
M  V30 2386 H 228.073 2.33873 -3.19561 0
M  V30 2387 H 229.247 -0.148407 -4.60561 0
M  V30 2388 H 227.562 0.0241016 -4.16393 0
M  V30 2389 H 230.159 2.77558 -4.57018 0
M  V30 2390 H 230.502 3.01173 -2.87403 0
M  V30 2391 H 231.035 1.51529 -3.6781 0
M  V30 2392 H 227.774 0.587771 -6.52859 0
M  V30 2393 H 227.294 2.04987 -5.63685 0
M  V30 2394 H 228.973 1.855 -6.19838 0
M  V30 2395 N 229.106 1.52395 0.401703 0
M  V30 2396 C 230.039 1.70999 1.51111 0
M  V30 2397 C 231.017 0.55765 1.52738 0
M  V30 2398 O 232.201 0.785912 1.71335 0
M  V30 2399 C 229.328 1.75607 2.8962 0
M  V30 2400 C 228.374 2.97227 3.05873 0
M  V30 2401 S 229.207 4.57439 2.78405 0
M  V30 2402 C 230.363 4.64844 4.19131 0
M  V30 2403 H 230.596 2.6483 1.35102 0
M  V30 2404 H 228.129 1.42527 0.593762 0
M  V30 2405 H 230.087 1.78947 3.69443 0
M  V30 2406 H 228.748 0.828914 3.02965 0
M  V30 2407 H 227.941 2.96955 4.07227 0
M  V30 2408 H 227.543 2.91813 2.33925 0
M  V30 2409 H 229.835 4.42677 5.12877 0
M  V30 2410 H 230.778 5.66807 4.24424 0
M  V30 2411 H 231.186 3.93804 4.04448 0
M  V30 2412 N 230.584 -0.659388 1.43143 0
M  V30 2413 C 231.861 -1.41627 1.34912 0
M  V30 2414 C 232.241 -2.11099 -0.00607785 0
M  V30 2415 O 231.589 -2.04353 -1.02236 0
M  V30 2416 C 231.799 -2.40604 2.52805 0
M  V30 2417 C 233.147 -3.04789 2.95616 0
M  V30 2418 O 234.171 -2.50932 2.52807 0
M  V30 2419 O 233.03 -4.02421 3.69756 0
M  V30 2420 H 230.124 -0.63246 0.532844 0
M  V30 2421 H 232.67 -0.686814 1.5518 0
M  V30 2422 H 231.442 -1.88174 3.43083 0
M  V30 2423 H 231.065 -3.21009 2.34604 0
M  V30 2424 N 232.062 -1.29571 -0.897171 0
M  V30 2425 C 233.009 -1.14916 -2.00158 0
M  V30 2426 C 233.979 -0.0418149 -1.66047 0
M  V30 2427 O 235.164 -0.209793 -1.89643 0
M  V30 2428 C 232.304 -0.834307 -3.34863 0
M  V30 2429 C 231.417 -2.02234 -3.8174 0
M  V30 2430 C 230.552 -1.64664 -5.05034 0
M  V30 2431 C 229.591 -2.80033 -5.44286 0
M  V30 2432 N 228.728 -2.42843 -6.58765 0
M  V30 2433 H 233.568 -2.09403 -2.12025 0
M  V30 2434 H 231.105 -1.042 -1.0383 0
M  V30 2435 H 233.063 -0.632436 -4.12379 0
M  V30 2436 H 231.693 0.0736656 -3.22716 0
M  V30 2437 H 230.745 -2.33583 -3.00238 0
M  V30 2438 H 232.057 -2.88673 -4.06779 0
M  V30 2439 H 231.211 -1.4078 -5.9014 0
M  V30 2440 H 229.95 -0.753766 -4.8184 0
M  V30 2441 H 228.955 -3.04596 -4.57713 0
M  V30 2442 H 230.18 -3.69989 -5.6946 0
M  V30 2443 H 228.126 -1.56046 -6.3717 0
M  V30 2444 H 228.043 -3.22815 -6.83613 0
M  V30 2445 H 229.311 -2.22285 -7.47134 0
M  V30 2446 N 233.54 1.10788 -1.12088 0
M  V30 2447 C 234.765 1.87002 -0.896949 0
M  V30 2448 C 235.19 1.79933 0.548261 0
M  V30 2449 O 234.548 1.16662 1.38779 0
M  V30 2450 C 234.596 3.3349 -1.37174 0
M  V30 2451 O 233.7 4.08745 -0.547831 0
M  V30 2452 H 233.041 0.580397 -0.322545 0
M  V30 2453 H 235.571 1.39996 -1.49206 0
M  V30 2454 H 235.581 3.84339 -1.36922 0
M  V30 2455 H 234.256 3.37951 -2.42408 0
M  V30 2456 H 232.833 3.6776 -0.617034 0
M  V30 2457 N 235.018 0.912232 1.28515 0
M  V30 2458 C 236.243 0.559774 1.99703 0
M  V30 2459 C 236.668 -0.851393 1.67729 0
M  V30 2460 O 236.026 -1.56875 0.908834 0
M  V30 2461 C 236.074 0.773874 3.52198 0
M  V30 2462 O 235.178 -0.167842 4.12058 0
M  V30 2463 H 234.519 0.21723 0.627461 0
M  V30 2464 H 237.049 1.22725 1.63706 0
M  V30 2465 H 237.059 0.683386 4.02236 0
M  V30 2466 H 235.734 1.80261 3.74805 0
M  V30 2467 H 234.311 -0.0287509 3.72889 0
M  V30 2468 N 236.496 -1.42363 0.676048 0
M  V30 2469 C 237.912 -1.55811 0.345718 0
M  V30 2470 C 238.112 -1.65544 -1.14879 0
M  V30 2471 O 237.168 -1.62306 -1.93424 0
M  V30 2472 C 238.481 -2.80746 1.07713 0
M  V30 2473 C 240.029 -2.9452 1.05958 0
M  V30 2474 C 240.504 -4.22318 1.77233 0
M  V30 2475 N 241.995 -4.29233 1.74108 0
M  V30 2476 C 242.73 -5.26935 2.26113 0
M  V30 2477 N 242.226 -6.30783 2.86505 0
M  V30 2478 N 244.019 -5.18741 2.1648 0
M  V30 2479 H 236.17 -1.34289 1.6456 0
M  V30 2480 H 238.433 -0.646506 0.69335 0
M  V30 2481 H 238.139 -2.79696 2.13221 0
M  V30 2482 H 238.013 -3.71676 0.64316 0
M  V30 2483 H 240.4 -2.95097 0.0128255 0
M  V30 2484 H 240.481 -2.04817 1.53244 0
M  V30 2485 H 240.125 -4.22502 2.81877 0
M  V30 2486 H 240.055 -5.10958 1.27396 0
M  V30 2487 H 242.546 -3.54814 1.30059 0
M  V30 2488 H 242.859 -7.01691 3.23805 0
M  V30 2489 H 241.204 -6.31341 2.90575 0
M  V30 2490 H 244.395 -4.36533 1.68987 0
M  V30 2491 H 244.568 -5.94721 2.57316 0
M  V30 2492 N 237.974 -0.419461 -1.51915 0
M  V30 2493 C 239.202 0.152136 -2.0634 0
M  V30 2494 C 239.617 1.37988 -1.28859 0
M  V30 2495 O 238.974 1.79243 -0.343232 0
M  V30 2496 C 239.025 0.492266 -3.58133 0
M  V30 2497 O 238.746 -0.686736 -4.32684 0
M  V30 2498 C 240.247 1.11648 -4.2901 0
M  V30 2499 H 237.467 0.0158325 -0.670813 0
M  V30 2500 H 240.011 -0.593394 -1.95702 0
M  V30 2501 H 238.166 1.18769 -3.68745 0
M  V30 2502 H 238.58 -0.400341 -5.2297 0
M  V30 2503 H 240.054 1.3046 -5.36362 0
M  V30 2504 H 240.531 2.09251 -3.86148 0
M  V30 2505 H 241.137 0.460958 -4.22795 0
M  V30 2506 N 239.452 1.56882 -0.150215 0
M  V30 2507 C 240.868 1.58263 0.20617 0
M  V30 2508 C 241.068 1.16464 1.64434 0
M  V30 2509 O 240.124 0.866422 2.3717 0
M  V30 2510 C 241.437 3.00649 -0.0555025 0
M  V30 2511 C 242.985 3.12999 0.00795388 0
M  V30 2512 C 243.46 4.5744 -0.226429 0
M  V30 2513 N 244.951 4.62875 -0.173469 0
M  V30 2514 C 245.686 5.72454 -0.329288 0
M  V30 2515 N 245.182 6.90669 -0.543005 0
M  V30 2516 N 246.975 5.61467 -0.266666 0
M  V30 2517 H 239.126 1.82345 -1.08922 0
M  V30 2518 H 241.389 0.844149 -0.431413 0
M  V30 2519 H 241.095 3.3563 -1.05096 0
M  V30 2520 H 240.969 3.71337 0.66246 0
M  V30 2521 H 243.356 2.77857 0.993966 0
M  V30 2522 H 243.437 2.4479 -0.742388 0
M  V30 2523 H 243.081 4.93287 -1.20956 0
M  V30 2524 H 243.011 5.2378 0.544274 0
M  V30 2525 H 245.502 3.77898 -0.0130709 0
M  V30 2526 H 245.815 7.70045 -0.651922 0
M  V30 2527 H 244.16 6.92581 -0.579366 0
M  V30 2528 H 247.351 4.67992 -0.100441 0
M  V30 2529 H 247.524 6.46816 -0.391535 0
M  V30 2530 N 240.93 -0.123565 1.57115 0
M  V30 2531 C 241.86 -1.15309 2.03042 0
M  V30 2532 C 242.841 -1.43454 0.914061 0
M  V30 2533 O 244.026 -1.53973 1.18347 0
M  V30 2534 C 241.156 -2.48043 2.43089 0
M  V30 2535 C 240.11 -2.3437 3.58127 0
M  V30 2536 C 239.436 -3.72026 3.84059 0
M  V30 2537 C 240.736 -1.80804 4.90007 0
M  V30 2538 H 242.43 -0.771102 2.893 0
M  V30 2539 H 239.976 -0.369479 1.39179 0
M  V30 2540 H 241.929 -3.20311 2.73823 0
M  V30 2541 H 240.653 -2.88122 1.53796 0
M  V30 2542 H 239.312 -1.64551 3.27595 0
M  V30 2543 H 238.96 -4.09582 2.91979 0
M  V30 2544 H 238.66 -3.63732 4.6149 0
M  V30 2545 H 240.184 -4.45806 4.1724 0
M  V30 2546 H 241.598 -2.42886 5.19307 0
M  V30 2547 H 239.995 -1.83343 5.71407 0
M  V30 2548 H 241.065 -0.76528 4.78823 0
M  V30 2549 N 242.408 -1.52605 -0.393616 0
M  V30 2550 C 243.371 -1.76415 -1.46323 0
M  V30 2551 C 244.371 -0.634126 -1.47768 0
M  V30 2552 O 245.561 -0.902142 -1.4902 0
M  V30 2553 C 242.693 -1.8607 -2.85641 0
M  V30 2554 H 243.886 -2.71916 -1.26498 0
M  V30 2555 H 241.439 -1.43257 -0.625073 0
M  V30 2556 H 242.174 -0.925378 -3.10817 0
M  V30 2557 H 241.959 -2.68235 -2.85993 0
M  V30 2558 H 243.449 -2.06179 -3.63153 0
M  V30 2559 N 243.887 0.651787 -1.4349 0
M  V30 2560 C 244.817 1.77621 -1.51569 0
M  V30 2561 C 245.798 1.66022 -0.370253 0
M  V30 2562 O 246.983 1.85095 -0.587658 0
M  V30 2563 C 244.113 3.16056 -1.43966 0
M  V30 2564 C 243.067 3.4242 -2.56774 0
M  V30 2565 C 242.393 4.8067 -2.34223 0
M  V30 2566 C 243.693 3.37023 -3.99015 0
M  V30 2567 H 245.387 1.71117 -2.45681 0
M  V30 2568 H 242.933 0.821825 -1.18246 0
M  V30 2569 H 244.886 3.94472 -1.48221 0
M  V30 2570 H 243.61 3.23293 -0.463586 0
M  V30 2571 H 242.269 2.66375 -2.51873 0
M  V30 2572 H 241.917 4.84585 -1.34856 0
M  V30 2573 H 241.617 4.9927 -3.09844 0
M  V30 2574 H 243.141 5.61342 -2.40265 0
M  V30 2575 H 244.555 4.05374 -4.05395 0
M  V30 2576 H 242.952 3.67159 -4.74673 0
M  V30 2577 H 244.022 2.3518 -4.2405 0
M  V30 2578 N 245.365 1.30045 0.890287 0
M  V30 2579 C 246.614 1.17929 1.63633 0
M  V30 2580 C 246.927 -0.266204 1.9378 0
M  V30 2581 O 248.133 -0.508804 2.6669 0
M  V30 2582 C 246.589 2.06317 2.94892 0
M  V30 2583 C 246.197 3.55745 2.72305 0
M  V30 2584 C 247.941 2.0295 3.72843 0
M  V30 2585 C 245.848 4.36205 3.99348 0
M  V30 2586 H 244.778 0.437782 0.613892 0
M  V30 2587 H 247.429 1.54754 0.986075 0
M  V30 2588 H 245.811 1.6237 3.61182 0
M  V30 2589 H 246.985 4.07805 2.1455 0
M  V30 2590 H 245.3 3.6088 2.07737 0
M  V30 2591 H 247.897 2.60319 4.67053 0
M  V30 2592 H 248.24 1.0117 4.0382 0
M  V30 2593 H 248.773 2.4499 3.13408 0
M  V30 2594 H 245.512 5.38659 3.73533 0
M  V30 2595 H 245.032 3.8891 4.56628 0
M  V30 2596 H 246.711 4.47362 4.67415 0
M  V30 2597 N 246.843 -1.10192 1.12674 0
M  V30 2598 C 248.092 -1.81573 0.8783 0
M  V30 2599 C 248.405 -1.86249 -0.597557 0
M  V30 2600 O 249.611 -2.5386 -0.962681 0
M  V30 2601 C 248.067 -3.26149 1.52167 0
M  V30 2602 C 247.675 -3.29763 3.03249 0
M  V30 2603 C 249.419 -4.0234 1.3536 0
M  V30 2604 C 247.326 -4.68815 3.60508 0
M  V30 2605 H 246.256 -0.680394 0.324931 0
M  V30 2606 H 248.907 -1.23902 1.35353 0
M  V30 2607 H 247.289 -3.83832 0.974104 0
M  V30 2608 H 248.463 -2.8189 3.6452 0
M  V30 2609 H 246.778 -2.67059 3.19481 0
M  V30 2610 H 249.375 -5.05058 1.75559 0
M  V30 2611 H 249.718 -4.15235 0.297554 0
M  V30 2612 H 250.251 -3.51079 1.87052 0
M  V30 2613 H 246.99 -4.61121 4.65884 0
M  V30 2614 H 246.51 -5.17045 3.04014 0
M  V30 2615 H 248.189 -5.37785 3.59717 0
M  V30 2616 N 248.321 -0.919034 -1.28029 0
M  V30 2617 C 249.561 -0.562107 -1.96519 0
M  V30 2618 C 249.925 0.878784 -1.70708 0
M  V30 2619 O 251.126 1.34355 -2.32813 0
M  V30 2620 C 249.397 -0.868953 -3.46676 0
M  V30 2621 S 250.956 -0.619237 -4.34409 0
M  V30 2622 H 247.774 -0.2078 -0.679956 0
M  V30 2623 H 250.376 -1.18562 -1.55446 0
M  V30 2624 H 249.08 -1.91547 -3.62957 0
M  V30 2625 H 248.611 -0.234301 -3.92702 0
M  V30 2626 H 250.626 0.526995 -4.93394 0
M  V30 2627 N 249.799 1.42003 -0.683588 0
M  V30 2628 C 250.747 2.326 0.000815408 0
M  V30 2629 C 251.741 1.50308 0.781278 0
M  V30 2630 O 252.947 1.66322 0.688251 0
M  V30 2631 H 249.322 0.751758 0.0190616 0
M  V30 2632 H 251.293 2.88011 -0.780528 0
M  V30 2633 C 250.042 3.34978 0.93195 0
M  V30 2634 H 249.365 3.98345 0.340817 0
M  V30 2635 H 250.805 4.00936 1.37936 0
M  V30 2636 C 249.264 2.67925 2.04249 0
M  V30 2637 O 249.794 2.51788 3.12995 0
M  V30 2638 N 248 2.2681 1.81675 0
M  V30 2639 H 247.547 2.40135 0.932363 0
M  V30 2640 H 247.505 1.8228 2.56167 0
M  V30 2641 N 251.277 0.427512 1.51691 0
M  V30 2642 C 252.187 -0.39527 2.31246 0
M  V30 2643 C 253.203 -1.03674 1.39742 0
M  V30 2644 O 254.379 -1.03425 1.72816 0
M  V30 2645 C 251.444 -1.48706 3.13189 0
M  V30 2646 C 250.505 -0.866743 4.20459 0
M  V30 2647 C 249.738 -1.90651 4.98486 0
M  V30 2648 O 249.961 -3.12733 4.77026 0
M  V30 2649 O 248.895 -1.5025 5.82845 0
M  V30 2650 H 252.721 0.253918 3.02637 0
M  V30 2651 H 250.306 0.190274 1.48183 0
M  V30 2652 H 252.188 -2.12047 3.64162 0
M  V30 2653 H 250.863 -2.12051 2.44573 0
M  V30 2654 H 249.77 -0.195544 3.73589 0
M  V30 2655 H 251.103 -0.276934 4.9142 0
M  V30 2656 N 252.755 -1.56801 0.158532 0
M  V30 2657 C 253.665 -2.20916 -0.789518 0
M  V30 2658 C 254.681 -1.1969 -1.26294 0
M  V30 2659 O 255.857 -1.52308 -1.31773 0
M  V30 2660 C 252.922 -2.82727 -2.00665 0
M  V30 2661 C 251.983 -3.99114 -1.58134 0
M  V30 2662 C 251.216 -4.57968 -2.74045 0
M  V30 2663 O 251.439 -4.15704 -3.90572 0
M  V30 2664 O 250.373 -5.48047 -2.48855 0
M  V30 2665 H 254.199 -3.02464 -0.273681 0
M  V30 2666 H 251.784 -1.4924 -0.0690548 0
M  V30 2667 H 253.666 -3.21968 -2.71872 0
M  V30 2668 H 252.341 -2.04184 -2.51179 0
M  V30 2669 H 251.248 -3.64567 -0.839155 0
M  V30 2670 H 252.581 -4.79212 -1.12325 0
M  V30 2671 N 254.233 0.115231 -1.57178 0
M  V30 2672 C 255.48 0.822351 -1.8505 0
M  V30 2673 C 255.808 1.79701 -0.744168 0
M  V30 2674 O 255.063 1.93909 0.26414 0
M  V30 2675 C 255.362 1.60324 -3.19423 0
M  V30 2676 C 255.028 0.772536 -4.44233 0
M  V30 2677 C 253.69 0.543468 -4.78121 0
M  V30 2678 C 256.042 0.193746 -5.2084 0
M  V30 2679 C 253.37 -0.274583 -5.86057 0
M  V30 2680 C 255.722 -0.611517 -6.29637 0
M  V30 2681 C 254.386 -0.850867 -6.62055 0
M  V30 2682 H 253.656 0.30092 -0.677147 0
M  V30 2683 H 256.303 0.0845802 -1.91313 0
M  V30 2684 H 254.608 2.41203 -3.08753 0
M  V30 2685 H 256.305 2.1544 -3.38211 0
M  V30 2686 H 252.895 0.96117 -4.17683 0
M  V30 2687 H 257.079 0.357926 -4.95008 0
M  V30 2688 H 252.335 -0.469206 -6.09597 0
M  V30 2689 H 256.509 -1.06697 -6.88178 0
M  V30 2690 H 254.136 -1.48657 -7.45523 0
M  V30 2691 N 255.711 1.52812 0.385517 0
M  V30 2692 C 256.988 1.5861 1.14465 0
M  V30 2693 C 257.368 0.381402 2.07626 0
M  V30 2694 O 256.716 -0.629999 2.19643 0
M  V30 2695 C 256.926 2.92664 1.90128 0
M  V30 2696 C 258.274 3.46526 2.45367 0
M  V30 2697 O 259.298 2.94562 2.0028 0
M  V30 2698 O 258.157 4.37323 3.27736 0
M  V30 2699 H 255.251 0.639855 0.523941 0
M  V30 2700 H 257.797 1.65149 0.390389 0
M  V30 2701 H 256.569 3.71788 1.22022 0
M  V30 2702 H 256.192 2.89527 2.72507 0
M  V30 2703 N 257.189 -0.644168 1.43834 0
M  V30 2704 C 258.414 -1.43642 1.49605 0
M  V30 2705 C 258.839 -1.8773 0.117913 0
M  V30 2706 O 258.197 -1.57938 -0.890239 0
M  V30 2707 C 258.245 -2.6416 2.45463 0
M  V30 2708 O 257.349 -3.63538 1.94714 0
M  V30 2709 H 256.69 -0.430329 0.50568 0
M  V30 2710 H 259.22 -0.787448 1.8884 0
M  V30 2711 H 259.23 -3.11864 2.63068 0
M  V30 2712 H 257.905 -2.31414 3.45572 0
M  V30 2713 H 256.482 -3.2273 1.86814 0
M  V30 2714 N 258.668 -1.30515 -0.883378 0
M  V30 2715 C 259.917 -1.18795 -1.63005 0
M  V30 2716 C 260.23 0.255923 -1.93919 0
M  V30 2717 O 261.436 0.494654 -2.66956 0
M  V30 2718 C 259.892 -2.07878 -2.93794 0
M  V30 2719 C 259.5 -3.57184 -2.70414 0
M  V30 2720 C 261.244 -2.04924 -3.71761 0
M  V30 2721 C 259.151 -4.38317 -3.97029 0
M  V30 2722 H 258.081 -0.441031 -0.611562 0
M  V30 2723 H 260.732 -1.55275 -0.977854 0
M  V30 2724 H 259.114 -1.64283 -3.60315 0
M  V30 2725 H 260.288 -4.08937 -2.12384 0
M  V30 2726 H 258.603 -3.61976 -2.0582 0
M  V30 2727 H 261.2 -2.62792 -4.65665 0
M  V30 2728 H 261.543 -1.0331 -4.03277 0
M  V30 2729 H 262.076 -2.46649 -3.12104 0
M  V30 2730 H 258.815 -5.40632 -3.70671 0
M  V30 2731 H 258.335 -3.91326 -4.54559 0
M  V30 2732 H 260.014 -4.49834 -4.65036 0
M  V30 2733 N 260.146 1.09593 -1.13257 0
M  V30 2734 C 261.557 1.63229 -0.906274 0
M  V30 2735 C 261.908 1.8811 0.557578 0
M  V30 2736 O 261.033 1.62953 1.42391 0
M  V30 2737 C 261.628 2.96535 -1.63867 0
M  V30 2738 C 260.187 3.47003 -1.45828 0
M  V30 2739 C 259.334 2.2145 -1.66898 0
M  V30 2740 H 262.285 0.92978 -1.28611 0
M  V30 2741 H 262.306 3.64411 -1.09476 0
M  V30 2742 H 261.818 2.78394 -2.70404 0
M  V30 2743 H 259.919 3.70272 -0.415848 0
M  V30 2744 H 260.032 4.24551 -2.2202 0
M  V30 2745 H 258.396 2.30022 -1.09371 0
M  V30 2746 H 259.179 2.0583 -2.74752 0
M  V30 2747 N 261.624 0.925811 1.2754 0
M  V30 2748 C 263.04 0.625767 1.46821 0
M  V30 2749 C 263.24 -0.825506 1.83814 0
M  V30 2750 O 262.296 -1.60356 1.95044 0
M  V30 2751 C 263.609 1.57402 2.56213 0
M  V30 2752 C 265.157 1.58204 2.70075 0
M  V30 2753 C 265.632 2.51721 3.82623 0
M  V30 2754 N 267.123 2.49917 3.89994 0
M  V30 2755 C 267.858 3.18968 4.76494 0
M  V30 2756 N 267.354 3.97391 5.67496 0
M  V30 2757 N 269.147 3.07996 4.70208 0
M  V30 2758 H 261.298 1.86409 1.01811 0
M  V30 2759 H 263.561 0.800213 0.508295 0
M  V30 2760 H 263.267 2.60925 2.35819 0
M  V30 2761 H 263.141 1.31428 3.53563 0
M  V30 2762 H 265.528 0.554124 2.89851 0
M  V30 2763 H 265.609 1.88226 1.73218 0
M  V30 2764 H 265.253 3.54622 3.63601 0
M  V30 2765 H 265.183 2.18996 4.78903 0
M  V30 2766 H 267.674 1.9296 3.24923 0
M  V30 2767 H 267.987 4.4707 6.30356 0
M  V30 2768 H 266.332 4.01495 5.67298 0
M  V30 2769 H 269.523 2.46223 3.9811 0
M  V30 2770 H 269.696 3.6208 5.37403 0
M  V30 2771 N 263.102 -1.41638 0.69111 0
M  V30 2772 C 264.518 -1.55435 0.362224 0
M  V30 2773 C 264.718 -1.66754 -1.13117 0
M  V30 2774 O 263.774 -1.64348 -1.91692 0
M  V30 2775 C 265.087 -2.79588 1.10684 0
M  V30 2776 C 266.635 -2.9338 1.09075 0
M  V30 2777 C 267.11 -4.20414 1.81703 0
M  V30 2778 N 268.601 -4.27362 1.7865 0
M  V30 2779 C 269.336 -5.24507 2.31689 0
M  V30 2780 N 268.832 -6.27708 2.93179 0
M  V30 2781 N 270.625 -5.16416 2.2197 0
M  V30 2782 H 262.776 -1.32536 1.65976 0
M  V30 2783 H 265.039 -0.639115 0.700168 0
M  V30 2784 H 264.745 -2.77419 2.16175 0
M  V30 2785 H 264.619 -3.70973 0.682545 0
M  V30 2786 H 267.006 -2.95067 0.0441238 0
M  V30 2787 H 267.087 -2.0318 1.55407 0
M  V30 2788 H 266.731 -4.19488 2.86343 0
M  V30 2789 H 266.661 -5.09578 1.32808 0
M  V30 2790 H 269.152 -3.53415 1.33815 0
M  V30 2791 H 269.465 -6.98217 3.31229 0
M  V30 2792 H 267.81 -6.28223 2.97255 0
M  V30 2793 H 271.001 -4.34716 1.73607 0
M  V30 2794 H 271.174 -5.91958 2.63609 0
M  V30 2795 N 264.58 -0.43555 -1.51462 0
M  V30 2796 C 265.808 0.130242 -2.0649 0
M  V30 2797 C 266.223 1.36614 -1.30315 0
M  V30 2798 O 265.58 1.78869 -0.362223 0
M  V30 2799 C 265.631 0.454253 -3.58635 0
M  V30 2800 O 265.352 -0.73259 -4.31931 0
M  V30 2801 C 266.853 1.07091 -4.3017 0
M  V30 2802 H 264.073 0.00871669 -0.670943 0
M  V30 2803 H 266.617 -0.614117 -1.95061 0
M  V30 2804 H 264.772 1.14851 -3.69984 0
M  V30 2805 H 265.186 -0.455787 -5.22516 0
M  V30 2806 H 266.66 1.24764 -5.37716 0
M  V30 2807 H 267.137 2.05144 -3.88346 0
M  V30 2808 H 267.743 0.416089 -4.2326 0
M  V30 2809 N 266.058 1.56714 -0.166846 0
M  V30 2810 C 267.306 1.96358 0.478305 0
M  V30 2811 C 267.627 1.0537 1.6408 0
M  V30 2812 O 266.897 0.119154 1.95537 0
M  V30 2813 H 265.477 0.725065 0.179692 0
M  V30 2814 H 268.139 1.93329 -0.246985 0
M  V30 2815 H 267.235 3.00547 0.841292 0
M  V30 2816 N 267.536 -0.106894 1.57237 0
M  V30 2817 C 268.499 -1.11466 2.0027 0
M  V30 2818 C 269.499 -1.33623 0.894519 0
M  V30 2819 O 270.689 -1.29935 1.16028 0
M  V30 2820 C 267.821 -2.46646 2.35327 0
M  V30 2821 H 269.014 -0.744516 2.90512 0
M  V30 2822 H 266.567 -0.351576 1.52295 0
M  V30 2823 H 267.302 -2.88558 1.48003 0
M  V30 2824 H 267.087 -2.31915 3.16161 0
M  V30 2825 H 268.577 -3.19151 2.69318 0
M  V30 2826 N 269.014 -1.53014 -0.377408 0
M  V30 2827 C 269.924 -1.81557 -1.48574 0
M  V30 2828 C 270.94 -0.703102 -1.59162 0
M  V30 2829 O 272.116 -0.99192 -1.75279 0
M  V30 2830 C 269.181 -1.9889 -2.83978 0
M  V30 2831 C 268.242 -3.22801 -2.83016 0
M  V30 2832 C 267.475 -3.39298 -4.11962 0
M  V30 2833 O 267.698 -2.60345 -5.0752 0
M  V30 2834 O 266.632 -4.32604 -4.18494 0
M  V30 2835 H 270.458 -2.75695 -1.27382 0
M  V30 2836 H 268.043 -1.38248 -0.566373 0
M  V30 2837 H 269.925 -2.11931 -3.6423 0
M  V30 2838 H 268.6 -1.07942 -3.05172 0
M  V30 2839 H 267.507 -3.15193 -2.01505 0
M  V30 2840 H 268.84 -4.13632 -2.66775 0
M  V30 2841 N 270.492 0.636531 -1.44174 0
M  V30 2842 C 271.738 1.39826 -1.4689 0
M  V30 2843 C 272.071 1.93947 -0.0990585 0
M  V30 2844 O 271.346 1.73325 0.882544 0
M  V30 2845 C 271.629 2.56751 -2.5249 0
M  V30 2846 C 271.482 2.08014 -3.98811 0
M  V30 2847 C 272.801 3.58946 -2.54649 0
M  V30 2848 H 269.92 0.507075 -0.53483 0
M  V30 2849 H 272.562 0.720188 -1.75822 0
M  V30 2850 H 270.712 3.14597 -2.2795 0
M  V30 2851 H 272.384 1.5504 -4.34466 0
M  V30 2852 H 270.627 1.39242 -4.10846 0
M  V30 2853 H 271.298 2.92169 -4.68339 0
M  V30 2854 H 273.774 3.1089 -2.76563 0
M  V30 2855 H 272.65 4.38286 -3.3045 0
M  V30 2856 H 272.911 4.12655 -1.58646 0
M  V30 2857 N 271.97 1.30982 0.876444 0
M  V30 2858 C 273.247 1.10942 1.61094 0
M  V30 2859 C 273.627 -0.338223 2.08373 0
M  V30 2860 O 272.975 -1.33122 1.85717 0
M  V30 2861 C 273.185 2.11789 2.77392 0
M  V30 2862 C 274.533 2.43965 3.47514 0
M  V30 2863 O 275.557 2.10166 2.87591 0
M  V30 2864 O 274.416 3.01817 4.55597 0
M  V30 2865 H 271.51 0.42667 0.708436 0
M  V30 2866 H 274.056 1.42438 0.922474 0
M  V30 2867 H 272.828 3.09194 2.39823 0
M  V30 2868 H 272.451 1.81161 3.5393 0
M  V30 2869 N 273.449 -1.08991 1.13837 0
M  V30 2870 C 274.698 -1.80631 0.897509 0
M  V30 2871 C 275.011 -1.86872 -0.57777 0
M  V30 2872 O 276.217 -2.54866 -0.935701 0
M  V30 2873 C 274.673 -3.24517 1.55618 0
M  V30 2874 C 274.281 -3.26529 3.0673 0
M  V30 2875 C 276.025 -4.00882 1.3962 0
M  V30 2876 C 273.932 -4.64965 3.65461 0
M  V30 2877 H 272.862 -0.67691 0.332129 0
M  V30 2878 H 275.513 -1.2246 1.3666 0
M  V30 2879 H 273.895 -3.82778 1.01476 0
M  V30 2880 H 275.069 -2.78008 3.67489 0
M  V30 2881 H 273.384 -2.63656 3.22296 0
M  V30 2882 H 275.981 -5.03167 1.80906 0
M  V30 2883 H 276.324 -4.14896 0.341578 0
M  V30 2884 H 276.857 -3.49075 1.90766 0
M  V30 2885 H 273.596 -4.56153 4.70749 0
M  V30 2886 H 273.116 -5.13792 3.09481 0
M  V30 2887 H 274.795 -5.3394 3.654 0
M  V30 2888 N 274.927 -0.932562 -1.27047 0
M  V30 2889 C 276.155 -0.592031 -1.98249 0
M  V30 2890 C 276.57 0.831062 -1.69525 0
M  V30 2891 O 275.927 1.55299 -0.958561 0
M  V30 2892 C 275.978 -0.814279 -3.5221 0
M  V30 2893 O 275.699 -2.18139 -3.7993 0
M  V30 2894 C 277.2 -0.483121 -4.4066 0
M  V30 2895 H 274.42 -0.223896 -0.632544 0
M  V30 2896 H 276.964 -1.25091 -1.61779 0
M  V30 2897 H 275.119 -0.20213 -3.86872 0
M  V30 2898 H 275.533 -2.235 -4.74498 0
M  V30 2899 H 277.007 -0.689298 -5.47679 0
M  V30 2900 H 277.484 0.581546 -4.35333 0
M  V30 2901 H 278.09 -1.07362 -4.11526 0
M  V30 2902 N 276.405 1.4127 -0.698611 0
M  V30 2903 C 277.653 2.00782 -0.230409 0
M  V30 2904 C 277.974 1.5562 1.17505 0
M  V30 2905 O 277.244 0.78815 1.79346 0
M  V30 2906 H 275.824 0.742464 -0.0821944 0
M  V30 2907 H 278.486 1.72852 -0.90045 0
M  V30 2908 H 277.582 3.11095 -0.25021 0
M  V30 2909 N 277.883 0.443576 1.51229 0
M  V30 2910 C 278.816 -0.410089 2.24485 0
M  V30 2911 C 279.794 -1.01949 1.26669 0
M  V30 2912 O 280.978 -1.06075 1.55821 0
M  V30 2913 C 278.105 -1.57211 3.00004 0
M  V30 2914 C 277.151 -1.08279 4.12526 0
M  V30 2915 S 277.984 -0.0197476 5.35496 0
M  V30 2916 C 279.14 -1.18629 6.14555 0
M  V30 2917 H 279.373 0.211832 2.96544 0
M  V30 2918 H 276.906 0.228156 1.52705 0
M  V30 2919 H 278.864 -2.23825 3.44111 0
M  V30 2920 H 277.525 -2.16547 2.27522 0
M  V30 2921 H 276.718 -1.95193 4.64667 0
M  V30 2922 H 276.32 -0.494797 3.70713 0
M  V30 2923 H 278.612 -2.10344 6.4402 0
M  V30 2924 H 279.555 -0.70472 7.04584 0
M  V30 2925 H 279.963 -1.42768 5.46148 0
M  V30 2926 N 279.361 -1.56624 0.175154 0
M  V30 2927 C 280.589 -2.01374 -0.474971 0
M  V30 2928 C 281.004 -1.05537 -1.56548 0
M  V30 2929 O 280.361 -0.0568668 -1.82411 0
M  V30 2930 C 280.412 -3.45923 -1.04975 0
M  V30 2931 O 280.133 -4.381 -0.00276605 0
M  V30 2932 C 281.634 -4.06093 -1.77773 0
M  V30 2933 H 278.854 -0.659962 -0.121206 0
M  V30 2934 H 281.398 -2.02601 0.27801 0
M  V30 2935 H 279.553 -3.45458 -1.75321 0
M  V30 2936 H 279.967 -5.22753 -0.427681 0
M  V30 2937 H 281.441 -5.09147 -2.13245 0
M  V30 2938 H 281.918 -3.48405 -2.67414 0
M  V30 2939 H 282.524 -4.10272 -1.12059 0
M  V30 2940 N 280.839 0.0985539 -1.57292 0
M  V30 2941 C 281.772 1.15082 -1.97057 0
M  V30 2942 C 282.75 1.39025 -0.843255 0
M  V30 2943 O 283.934 1.52842 -1.10325 0
M  V30 2944 C 281.061 2.50069 -2.28437 0
M  V30 2945 C 280.107 2.42428 -3.509 0
M  V30 2946 S 280.94 1.84414 -5.02744 0
M  V30 2947 C 282.096 3.21032 -5.37298 0
M  V30 2948 H 282.329 0.811815 -2.86002 0
M  V30 2949 H 279.862 0.306102 -1.51335 0
M  V30 2950 H 281.82 3.27729 -2.47192 0
M  V30 2951 H 280.481 2.8114 -1.40069 0
M  V30 2952 H 279.674 3.41911 -3.70288 0
M  V30 2953 H 279.276 1.72896 -3.31637 0
M  V30 2954 H 281.568 4.17297 -5.33731 0
M  V30 2955 H 282.511 3.06452 -6.38352 0
M  V30 2956 H 282.919 3.20404 -4.64759 0
M  V30 2957 N 282.317 1.53212 0.369288 0
M  V30 2958 C 283.247 1.82365 1.45826 0
M  V30 2959 C 284.228 0.676907 1.56051 0
M  V30 2960 O 285.413 0.926401 1.70679 0
M  V30 2961 C 282.543 2.01023 2.83208 0
M  V30 2962 C 281.497 3.1678 2.8781 0
M  V30 2963 C 280.823 3.20724 4.27832 0
M  V30 2964 C 282.123 4.55447 2.55667 0
M  V30 2965 H 283.817 2.73559 1.21678 0
M  V30 2966 H 281.363 1.3163 0.583911 0
M  V30 2967 H 283.316 2.20001 3.59413 0
M  V30 2968 H 282.04 1.06536 3.08736 0
M  V30 2969 H 280.699 2.97616 2.14056 0
M  V30 2970 H 280.347 2.23882 4.50429 0
M  V30 2971 H 280.047 3.98496 4.31827 0
M  V30 2972 H 281.571 3.41881 5.05915 0
M  V30 2973 H 282.985 4.74611 3.21586 0
M  V30 2974 H 281.382 5.35432 2.70984 0
M  V30 2975 H 282.452 4.60812 1.5093 0
M  V30 2976 N 283.795 -0.628877 1.44509 0
M  V30 2977 C 284.725 -1.75187 1.54376 0
M  V30 2978 C 285.706 -1.65411 0.396618 0
M  V30 2979 O 286.891 -1.84137 0.617031 0
M  V30 2980 C 284.021 -3.13725 1.48976 0
M  V30 2981 C 282.975 -3.38291 2.62189 0
M  V30 2982 C 282.301 -4.76883 2.41841 0
M  V30 2983 C 283.601 -3.30632 4.04326 0
M  V30 2984 H 285.295 -1.67187 2.48373 0
M  V30 2985 H 282.841 -0.802909 1.19538 0
M  V30 2986 H 284.794 -3.92064 1.54478 0
M  V30 2987 H 283.518 -3.22515 0.514961 0
M  V30 2988 H 282.177 -2.62334 2.56079 0
M  V30 2989 H 281.825 -4.82378 1.42548 0
M  V30 2990 H 281.525 -4.94278 3.17747 0
M  V30 2991 H 283.049 -5.57449 2.49165 0
M  V30 2992 H 284.463 -3.98873 4.11793 0
M  V30 2993 H 282.86 -3.59561 4.80454 0
M  V30 2994 H 283.93 -2.28404 4.27738 0
M  V30 2995 N 285.273 -1.31445 -0.869486 0
M  V30 2996 C 286.205 -1.14955 -1.98287 0
M  V30 2997 C 287.218 -0.0885037 -1.62559 0
M  V30 2998 O 288.407 -0.336044 -1.75308 0
M  V30 2999 C 285.507 -0.734255 -3.3085 0
M  V30 3000 C 284.68 -1.88042 -3.94917 0
M  V30 3001 C 283.739 -1.4511 -5.05796 0
M  V30 3002 O 282.765 -2.16082 -5.2659 0
M  V30 3003 N 283.967 -0.338763 -5.79511 0
M  V30 3004 H 286.732 -2.10856 -2.12979 0
M  V30 3005 H 284.293 -1.23786 -1.04349 0
M  V30 3006 H 286.285 -0.42975 -4.02412 0
M  V30 3007 H 284.855 0.133158 -3.12316 0
M  V30 3008 H 284.075 -2.35222 -3.1633 0
M  V30 3009 H 285.363 -2.6481 -4.34457 0
M  V30 3010 H 284.761 0.252274 -5.65137 0
M  V30 3011 H 283.318 -0.0937925 -6.51733 0
M  V30 3012 N 286.751 1.08385 -1.14413 0
M  V30 3013 C 287.699 2.17406 -0.826888 0
M  V30 3014 C 288.693 1.6827 0.195312 0
M  V30 3015 O 289.899 1.79927 0.0513892 0
M  V30 3016 H 286.274 0.70934 -0.249681 0
M  V30 3017 H 288.245 2.41388 -1.75426 0
M  V30 3018 C 286.994 3.46215 -0.320979 0
M  V30 3019 H 286.317 3.84401 -1.0989 0
M  V30 3020 H 287.757 4.23777 -0.137549 0
M  V30 3021 C 286.216 3.23067 0.955472 0
M  V30 3022 O 286.746 3.4668 2.02918 0
M  V30 3023 N 284.952 2.7661 0.890798 0
M  V30 3024 H 284.499 2.57594 0.0168815 0
M  V30 3025 H 284.457 2.61501 1.74542 0
M  V30 3026 N 288.23 0.939286 1.26551 0
M  V30 3027 C 289.16 0.465044 2.28822 0
M  V30 3028 C 290.141 -0.480692 1.63167 0
M  V30 3029 O 291.326 -0.382955 1.90387 0
M  V30 3030 C 288.456 -0.27234 3.46231 0
M  V30 3031 C 287.41 0.58666 4.2396 0
M  V30 3032 C 286.736 -0.280573 5.33963 0
M  V30 3033 C 288.036 1.85704 4.88171 0
M  V30 3034 H 289.73 1.31979 2.68741 0
M  V30 3035 H 287.276 0.636061 1.29191 0
M  V30 3036 H 289.229 -0.615133 4.16886 0
M  V30 3037 H 287.953 -1.16121 3.0526 0
M  V30 3038 H 286.612 0.91232 3.55067 0
M  V30 3039 H 286.26 -1.16874 4.89234 0
M  V30 3040 H 285.96 0.29076 5.8688 0
M  V30 3041 H 287.484 -0.618678 6.07458 0
M  V30 3042 H 288.898 1.58161 5.51052 0
M  V30 3043 H 287.295 2.37279 5.51197 0
M  V30 3044 H 288.365 2.56957 4.11219 0
M  V30 3045 N 289.708 -1.40897 0.706093 0
M  V30 3046 C 290.956 -2.00657 0.241054 0
M  V30 3047 C 291.277 -1.56241 -1.16678 0
M  V30 3048 O 290.547 -0.79765 -1.78926 0
M  V30 3049 H 289.127 -0.742018 0.0861308 0
M  V30 3050 H 291.789 -1.72372 0.909604 0
M  V30 3051 H 290.885 -3.10958 0.266705 0
M  V30 3052 N 291.186 -0.45159 -1.50991 0
M  V30 3053 C 292.416 0.108177 -2.06317 0
M  V30 3054 C 292.824 1.35774 -1.31765 0
M  V30 3055 O 292.167 1.79838 -0.374694 0
M  V30 3056 C 292.229 0.481659 -3.56259 0
M  V30 3057 C 291.893 -0.663114 -4.52163 0
M  V30 3058 C 292.89 -1.53947 -4.96585 0
M  V30 3059 C 290.575 -0.8479 -4.95092 0
M  V30 3060 C 292.569 -2.58518 -5.82621 0
M  V30 3061 C 290.256 -1.89686 -5.80915 0
M  V30 3062 C 291.254 -2.76388 -6.24579 0
M  V30 3063 O 290.942 -3.79482 -7.08695 0
M  V30 3064 H 290.674 0.00499183 -0.675982 0
M  V30 3065 H 293.228 -0.633659 -1.95381 0
M  V30 3066 H 291.458 1.27641 -3.65027 0
M  V30 3067 H 293.147 0.974233 -3.94035 0
M  V30 3068 H 293.913 -1.4083 -4.64103 0
M  V30 3069 H 289.792 -0.18258 -4.60638 0
M  V30 3070 H 293.336 -3.26224 -6.16623 0
M  V30 3071 H 289.233 -2.02817 -6.12809 0
M  V30 3072 H 290.001 -3.76234 -7.26905 0
M  V30 3073 N 292.664 1.56529 -0.183458 0
M  V30 3074 C 293.889 2.02064 0.467428 0
M  V30 3075 C 294.314 1.06282 1.55196 0
M  V30 3076 O 293.672 0.0443565 1.81246 0
M  V30 3077 C 293.72 3.46122 1.01153 0
M  V30 3078 O 292.824 3.53437 2.12499 0
M  V30 3079 H 292.165 0.654726 0.110588 0
M  V30 3080 H 294.695 2.02521 -0.290917 0
M  V30 3081 H 294.705 3.85676 1.33108 0
M  V30 3082 H 293.38 4.15331 0.217533 0
M  V30 3083 H 291.957 3.2575 1.81497 0
M  V30 3084 N 294.142 -0.090211 1.57342 0
M  V30 3085 C 295.388 -0.793982 1.86611 0
M  V30 3086 C 295.721 -1.78142 0.773252 0
M  V30 3087 O 294.996 -1.93271 -0.218304 0
M  V30 3088 C 295.279 -1.51839 3.26523 0
M  V30 3089 C 295.132 -0.548609 4.46442 0
M  V30 3090 C 296.451 -2.46779 3.64401 0
M  V30 3091 H 293.57 -0.287186 0.678744 0
M  V30 3092 H 296.212 -0.0575076 1.89913 0
M  V30 3093 H 294.362 -2.14617 3.23839 0
M  V30 3094 H 296.034 0.0725513 4.61243 0
M  V30 3095 H 294.277 0.137614 4.33582 0
M  V30 3096 H 294.948 -1.09271 5.41076 0
M  V30 3097 H 297.424 -1.94089 3.68061 0
M  V30 3098 H 296.3 -2.94479 4.63221 0
M  V30 3099 H 296.561 -3.30758 2.93346 0
M  V30 3100 N 295.62 -1.53406 -0.361157 0
M  V30 3101 C 296.897 -1.60411 -1.11927 0
M  V30 3102 C 297.277 -0.414385 -2.06993 0
M  V30 3103 O 296.625 0.594976 -2.20618 0
M  V30 3104 C 296.835 -2.95652 -1.85448 0
M  V30 3105 C 298.183 -3.50386 -2.39823 0
M  V30 3106 O 299.207 -2.97711 -1.95568 0
M  V30 3107 O 298.066 -4.42482 -3.20737 0
M  V30 3108 H 295.16 -0.64811 -0.513695 0
M  V30 3109 H 297.706 -1.65749 -0.364065 0
M  V30 3110 H 296.478 -3.73682 -1.16091 0
M  V30 3111 H 296.101 -2.93825 -2.67866 0
M  V30 3112 N 297.098 0.621204 -1.44841 0
M  V30 3113 C 298.344 1.3826 -1.48365 0
M  V30 3114 C 298.677 1.93831 -0.119624 0
M  V30 3115 O 297.952 1.74251 0.864111 0
M  V30 3116 C 298.235 2.54058 -2.55199 0
M  V30 3117 C 298.088 2.03772 -4.00995 0
M  V30 3118 C 299.407 3.56225 -2.58442 0
M  V30 3119 H 296.526 0.501374 -0.540179 0
M  V30 3120 H 299.168 0.7015 -1.76576 0
M  V30 3121 H 297.318 3.12162 -2.31274 0
M  V30 3122 H 298.99 1.50423 -4.36086 0
M  V30 3123 H 297.233 1.34876 -4.12299 0
M  V30 3124 H 297.904 2.87185 -4.71411 0
M  V30 3125 H 300.38 3.07939 -2.79844 0
M  V30 3126 H 299.256 4.34756 -3.3508 0
M  V30 3127 H 299.517 4.10949 -1.63013 0
M  V30 3128 N 298.576 1.31904 0.862503 0
M  V30 3129 C 299.523 1.20182 1.9704 0
M  V30 3130 C 300.493 0.0858247 1.65878 0
M  V30 3131 O 301.678 0.26 1.8902 0
M  V30 3132 C 298.818 0.922797 3.32533 0
M  V30 3133 C 297.931 2.12284 3.76244 0
M  V30 3134 C 297.066 1.77996 5.00491 0
M  V30 3135 C 296.105 2.94366 5.36671 0
M  V30 3136 N 295.242 2.60223 6.52095 0
M  V30 3137 H 300.082 2.14951 2.06398 0
M  V30 3138 H 297.619 1.06917 1.01031 0
M  V30 3139 H 299.577 0.741548 4.10557 0
M  V30 3140 H 298.207 0.0119227 3.22798 0
M  V30 3141 H 297.259 2.41461 2.9394 0
M  V30 3142 H 298.571 2.99357 3.98982 0
M  V30 3143 H 297.725 1.56377 5.862 0
M  V30 3144 H 296.464 0.881252 4.79672 0
M  V30 3145 H 295.469 3.16625 4.49476 0
M  V30 3146 H 296.694 3.84957 5.59451 0
M  V30 3147 H 294.64 1.72884 6.32809 0
M  V30 3148 H 294.557 3.40827 6.74814 0
M  V30 3149 H 295.825 2.42016 7.40978 0
M  V30 3150 N 300.054 -1.07777 1.14986 0
M  V30 3151 C 301.001 -2.14867 0.842672 0
M  V30 3152 C 301.971 -1.6486 -0.202552 0
M  V30 3153 O 303.156 -1.90668 -0.0710568 0
M  V30 3154 C 300.296 -3.43486 0.333363 0
M  V30 3155 C 299.409 -4.07306 1.43965 0
M  V30 3156 C 298.544 -5.23744 0.886914 0
M  V30 3157 C 297.583 -5.79517 1.97043 0
M  V30 3158 N 296.72 -6.87291 1.4344 0
M  V30 3159 H 301.56 -2.40485 1.75986 0
M  V30 3160 H 299.097 -1.1801 0.878179 0
M  V30 3161 H 301.055 -4.17195 0.0198163 0
M  V30 3162 H 299.685 -3.18133 -0.546916 0
M  V30 3163 H 298.737 -3.31293 1.86946 0
M  V30 3164 H 300.049 -4.44771 2.25788 0
M  V30 3165 H 299.203 -6.04419 0.525651 0
M  V30 3166 H 297.942 -4.87685 0.0377957 0
M  V30 3167 H 296.947 -4.97491 2.34057 0
M  V30 3168 H 298.172 -6.17632 2.82325 0
M  V30 3169 H 296.118 -6.5318 0.607567 0
M  V30 3170 H 296.035 -7.23617 2.18895 0
M  V30 3171 H 297.303 -7.71682 1.10124 0
M  V30 3172 N 301.532 -0.945985 -1.26051 0
M  V30 3173 C 302.48 -0.450259 -2.282 0
M  V30 3174 C 303.474 0.47497 -1.62605 0
M  V30 3175 O 304.68 0.352653 -1.76512 0
M  V30 3176 H 301.055 -0.127081 -0.741184 0
M  V30 3177 H 303.026 -1.32422 -2.67408 0
M  V30 3178 C 301.775 0.26467 -3.46691 0
M  V30 3179 H 301.098 -0.438123 -3.97392 0
M  V30 3180 H 302.538 0.575678 -4.20074 0
M  V30 3181 C 300.997 1.48416 -3.02447 0
M  V30 3182 O 301.527 2.58227 -3.07704 0
M  V30 3183 N 299.733 1.34243 -2.57735 0
M  V30 3184 H 299.28 0.448994 -2.53657 0
M  V30 3185 H 299.238 2.15957 -2.28495 0
M  V30 3186 N 303.011 1.40521 -0.713556 0
M  V30 3187 C 303.941 2.33381 -0.0743864 0
M  V30 3188 C 304.922 1.52784 0.747735 0
M  V30 3189 O 306.107 1.81258 0.697071 0
M  V30 3190 C 303.237 3.36748 0.849598 0
M  V30 3191 C 302.191 4.27793 0.133247 0
M  V30 3192 C 301.517 5.21679 1.17281 0
M  V30 3193 C 302.817 5.12415 -1.01134 0
M  V30 3194 H 304.511 2.87081 -0.850007 0
M  V30 3195 H 302.057 1.38034 -0.410201 0
M  V30 3196 H 304.01 4.00648 1.30612 0
M  V30 3197 H 302.734 2.81439 1.65709 0
M  V30 3198 H 301.393 3.65342 -0.303426 0
M  V30 3199 H 301.041 4.62677 1.9733 0
M  V30 3200 H 300.741 5.83435 0.698397 0
M  V30 3201 H 302.265 5.88456 1.62947 0
M  V30 3202 H 303.679 5.69781 -0.634274 0
M  V30 3203 H 302.076 5.83203 -1.41399 0
M  V30 3204 H 303.146 4.48514 -1.84292 0
M  V30 3205 N 304.489 0.459591 1.5075 0
M  V30 3206 C 305.717 -0.0973749 2.06671 0
M  V30 3207 C 306.132 -1.34524 1.32472 0
M  V30 3208 O 305.489 -1.7827 0.390634 0
M  V30 3209 C 305.54 -0.39714 3.59312 0
M  V30 3210 O 305.261 0.801214 4.30711 0
M  V30 3211 C 306.762 -1.00234 4.31819 0
M  V30 3212 H 303.982 0.00195854 0.670997 0
M  V30 3213 H 306.526 0.645072 1.94059 0
M  V30 3214 H 304.681 -1.08951 3.71764 0
M  V30 3215 H 305.095 0.538857 5.21725 0
M  V30 3216 H 306.569 -1.16193 5.39632 0
M  V30 3217 H 307.046 -1.98939 3.91561 0
M  V30 3218 H 307.652 -0.348699 4.23868 0
M  V30 3219 N 305.967 -1.56429 0.191757 0
M  V30 3220 C 306.93 -2.17707 -0.716688 0
M  V30 3221 C 307.93 -1.13061 -1.14341 0
M  V30 3222 O 309.12 -1.38464 -1.05704 0
M  V30 3223 C 306.252 -2.77644 -1.97804 0
M  V30 3224 H 307.445 -2.99342 -0.1829 0
M  V30 3225 H 304.998 -1.56193 -0.0578566 0
M  V30 3226 H 305.733 -1.99799 -2.55443 0
M  V30 3227 H 305.518 -3.54246 -1.68083 0
M  V30 3228 H 307.008 -3.24708 -2.62592 0
M  V30 3229 N 307.445 0.0818655 -1.57387 0
M  V30 3230 C 308.67 0.799946 -1.91352 0
M  V30 3231 C 309.095 1.70833 -0.787258 0
M  V30 3232 O 308.453 1.79419 0.26048 0
M  V30 3233 C 308.501 1.57812 -3.24234 0
M  V30 3234 O 307.605 2.68806 -3.12757 0
M  V30 3235 H 306.946 0.21891 -0.626877 0
M  V30 3236 H 309.476 0.0531256 -2.04531 0
M  V30 3237 H 309.486 1.95952 -3.57864 0
M  V30 3238 H 308.161 0.911548 -4.05788 0
M  V30 3239 H 306.738 2.33597 -2.90666 0
M  V30 3240 N 308.923 1.53595 0.353017 0
M  V30 3241 C 310.2 1.61002 1.11075 0
M  V30 3242 C 310.58 0.425356 2.0677 0
M  V30 3243 O 309.928 -0.583267 2.2093 0
M  V30 3244 C 310.138 2.96631 1.83877 0
M  V30 3245 C 311.486 3.51653 2.37961 0
M  V30 3246 O 312.51 2.98743 1.93987 0
M  V30 3247 O 311.369 4.44177 3.18386 0
M  V30 3248 H 308.463 0.650825 0.510251 0
M  V30 3249 H 311.009 1.6594 0.35527 0
M  V30 3250 H 309.781 3.74293 1.14108 0
M  V30 3251 H 309.404 2.95242 2.66304 0
M  V30 3252 N 310.401 -0.613514 1.45168 0
M  V30 3253 C 311.334 -1.73809 1.47871 0
M  V30 3254 C 312.312 -1.59097 0.33568 0
M  V30 3255 O 313.496 -1.8074 0.535299 0
M  V30 3256 C 310.623 -3.11574 1.32813 0
M  V30 3257 C 309.669 -3.4489 2.50905 0
M  V30 3258 S 310.502 -3.40393 4.13392 0
M  V30 3259 C 311.658 -4.80749 4.00789 0
M  V30 3260 H 311.891 -1.71252 2.43023 0
M  V30 3261 H 309.424 -0.789658 1.32679 0
M  V30 3262 H 311.382 -3.91065 1.24812 0
M  V30 3263 H 310.043 -3.11652 0.391418 0
M  V30 3264 H 309.236 -4.45183 2.36279 0
M  V30 3265 H 308.838 -2.72901 2.55736 0
M  V30 3266 H 311.13 -5.7041 3.65567 0
M  V30 3267 H 312.073 -5.00431 5.00974 0
M  V30 3268 H 312.481 -4.56151 3.32545 0
M  V30 3269 N 311.879 -1.3236 -0.855495 0
M  V30 3270 C 313.107 -1.2587 -1.64208 0
M  V30 3271 C 313.522 0.173457 -1.88002 0
M  V30 3272 O 312.879 1.11027 -1.44842 0
M  V30 3273 C 312.93 -2.01424 -3.00184 0
M  V30 3274 O 312.651 -3.39051 -2.77445 0
M  V30 3275 C 314.152 -2.01948 -3.94629 0
M  V30 3276 H 311.372 -0.434318 -0.511477 0
M  V30 3277 H 313.916 -1.74469 -1.0668 0
M  V30 3278 H 312.071 -1.56549 -3.5436 0
M  V30 3279 H 312.485 -3.77711 -3.63916 0
M  V30 3280 H 313.959 -2.59297 -4.87308 0
M  V30 3281 H 314.436 -1.00554 -4.27534 0
M  V30 3282 H 315.042 -2.46767 -3.4639 0
M  V30 3283 N 313.357 1.07166 -1.15556 0
M  V30 3284 C 314.585 1.83514 -0.955519 0
M  V30 3285 C 315 1.82163 0.49621 0
M  V30 3286 O 314.357 1.23441 1.34419 0
M  V30 3287 C 314.408 3.30515 -1.46432 0
M  V30 3288 O 314.129 3.31937 -2.85918 0
M  V30 3289 C 315.63 4.23625 -1.30603 0
M  V30 3290 H 312.85 0.578926 -0.339244 0
M  V30 3291 H 315.394 1.35265 -1.53374 0
M  V30 3292 H 313.549 3.76106 -0.928584 0
M  V30 3293 H 313.963 4.23794 -3.09029 0
M  V30 3294 H 315.437 5.24831 -1.71047 0
M  V30 3295 H 315.914 4.38485 -0.250441 0
M  V30 3296 H 316.52 3.83871 -1.83094 0
M  V30 3297 N 314.835 0.952656 1.25548 0
M  V30 3298 C 315.745 0.47782 2.29682 0
M  V30 3299 C 316.761 -0.453859 1.67977 0
M  V30 3300 O 317.937 -0.330587 1.98668 0
M  V30 3301 C 315.002 -0.238655 3.45878 0
M  V30 3302 C 314.063 0.730994 4.23031 0
M  V30 3303 C 313.296 0.0486165 5.33678 0
M  V30 3304 O 313.519 -1.16612 5.58353 0
M  V30 3305 O 312.453 0.733152 5.97418 0
M  V30 3306 H 316.279 1.34312 2.72386 0
M  V30 3307 H 313.864 0.719026 1.30959 0
M  V30 3308 H 315.746 -0.641774 4.16484 0
M  V30 3309 H 314.421 -1.07916 3.05181 0
M  V30 3310 H 313.328 1.18428 3.5486 0
M  V30 3311 H 314.661 1.53946 4.67506 0
M  V30 3312 N 316.313 -1.40141 0.720998 0
M  V30 3313 C 317.243 -2.33339 0.0867621 0
M  V30 3314 C 318.224 -1.53178 -0.739622 0
M  V30 3315 O 319.409 -1.81625 -0.687449 0
M  V30 3316 C 316.539 -3.37194 -0.831728 0
M  V30 3317 C 315.493 -4.27857 -0.110558 0
M  V30 3318 C 314.819 -5.22294 -1.14513 0
M  V30 3319 C 316.119 -5.11872 1.0385 0
M  V30 3320 H 317.813 -2.86626 0.865219 0
M  V30 3321 H 315.359 -1.37814 0.417516 0
M  V30 3322 H 317.312 -4.01335 -1.28485 0
M  V30 3323 H 316.036 -2.82314 -1.64214 0
M  V30 3324 H 314.695 -3.65176 0.322797 0
M  V30 3325 H 314.343 -4.63717 -1.94874 0
M  V30 3326 H 314.043 -5.83797 -0.667446 0
M  V30 3327 H 315.567 -5.89312 -1.59824 0
M  V30 3328 H 316.981 -5.69436 0.664482 0
M  V30 3329 H 315.378 -5.82445 1.4449 0
M  V30 3330 H 316.448 -4.4753 1.86668 0
M  V30 3331 N 317.792 -0.46758 -1.50504 0
M  V30 3332 C 318.702 0.33382 -2.32213 0
M  V30 3333 C 319.718 0.999323 -1.42441 0
M  V30 3334 O 320.894 0.988068 -1.75497 0
M  V30 3335 C 317.959 1.4035 -3.17022 0
M  V30 3336 C 317.02 0.754961 -4.2261 0
M  V30 3337 C 316.253 1.77367 -5.03365 0
M  V30 3338 O 316.476 2.99976 -4.8515 0
M  V30 3339 O 315.41 1.34744 -5.86624 0
M  V30 3340 H 319.236 -0.334067 -3.01857 0
M  V30 3341 H 316.821 -0.229496 -1.47627 0
M  V30 3342 H 318.703 2.02318 -3.69656 0
M  V30 3343 H 317.378 2.05492 -2.5011 0
M  V30 3344 H 316.285 0.0964244 -3.73976 0
M  V30 3345 H 317.618 0.146545 -4.91982 0
M  V30 3346 N 319.27 1.56325 -0.20005 0
M  V30 3347 C 320.233 2.18084 0.705132 0
M  V30 3348 C 321.233 1.13666 1.1374 0
M  V30 3349 O 322.423 1.39023 1.04968 0
M  V30 3350 C 319.555 2.78689 1.96329 0
M  V30 3351 H 320.748 2.99435 0.167023 0
M  V30 3352 H 318.301 1.56221 0.0495725 0
M  V30 3353 H 319.036 2.0115 2.5438 0
M  V30 3354 H 318.821 3.55133 1.66202 0
M  V30 3355 H 320.311 3.26096 2.60866 0
M  V30 3356 N 320.748 -0.0735177 1.57428 0
M  V30 3357 C 321.995 -0.772999 1.87166 0
M  V30 3358 C 322.323 -1.77665 0.791551 0
M  V30 3359 O 321.578 -1.94541 -0.212636 0
M  V30 3360 C 321.877 -1.51799 3.23561 0
M  V30 3361 C 321.543 -0.654484 4.46125 0
M  V30 3362 C 320.205 -0.416511 4.79394 0
M  V30 3363 C 322.557 -0.0555862 5.2117 0
M  V30 3364 C 319.885 0.429869 5.85123 0
M  V30 3365 C 322.237 0.778239 6.27795 0
M  V30 3366 C 320.901 1.0261 6.59566 0
M  V30 3367 H 320.171 -0.282861 0.684888 0
M  V30 3368 H 322.818 -0.0338272 1.9147 0
M  V30 3369 H 321.123 -2.32932 3.1504 0
M  V30 3370 H 322.82 -2.06397 3.43804 0
M  V30 3371 H 319.41 -0.850091 4.20085 0
M  V30 3372 H 323.594 -0.226558 4.95783 0
M  V30 3373 H 318.85 0.630665 6.08139 0
M  V30 3374 H 323.024 1.24906 6.85107 0
M  V30 3375 H 320.651 1.68371 7.4132 0
M  V30 3376 N 322.226 -1.5378 -0.344866 0
M  V30 3377 C 323.189 -1.80981 -1.40637 0
M  V30 3378 C 324.189 -0.680816 -1.45676 0
M  V30 3379 O 325.379 -0.949095 -1.46075 0
M  V30 3380 C 322.511 -1.95063 -2.79577 0
M  V30 3381 H 323.704 -2.75803 -1.17783 0
M  V30 3382 H 321.257 -1.45173 -0.579181 0
M  V30 3383 H 321.992 -1.02379 -3.07716 0
M  V30 3384 H 321.777 -2.77198 -2.77315 0
M  V30 3385 H 323.267 -2.17629 -3.56409 0
M  V30 3386 N 323.704 0.605807 -1.45491 0
M  V30 3387 C 324.654 1.71074 -1.50724 0
M  V30 3388 C 325.638 1.5658 -0.37033 0
M  V30 3389 O 326.83 1.65887 -0.617299 0
M  V30 3390 C 323.959 3.0983 -1.47852 0
M  V30 3391 C 323.045 3.29704 -2.66751 0
M  V30 3392 N 323.436 3.19831 -3.91844 0
M  V30 3393 C 321.734 3.60579 -2.62486 0
M  V30 3394 C 322.435 3.41083 -4.71208 0
M  V30 3395 N 321.411 3.65157 -4.02693 0
M  V30 3396 H 325.213 1.61937 -2.45263 0
M  V30 3397 H 322.727 0.80912 -1.40808 0
M  V30 3398 H 324.724 3.89101 -1.49686 0
M  V30 3399 H 323.384 3.20115 -0.543714 0
M  V30 3400 H 324.395 2.98194 -4.23439 0
M  V30 3401 H 321.072 3.7769 -1.77922 0
M  V30 3402 H 322.462 3.38828 -5.80211 0
M  V30 3403 N 325.182 1.32811 0.848464 0
M  V30 3404 C 326.598 1.11937 1.13764 0
M  V30 3405 C 326.798 -0.0960789 2.01271 0
M  V30 3406 O 325.854 -0.779165 2.40178 0
M  V30 3407 C 327.167 2.402 1.809 0
M  V30 3408 C 328.715 2.46016 1.93508 0
M  V30 3409 C 329.19 3.74215 2.64059 0
M  V30 3410 N 330.681 3.75232 2.71579 0
M  V30 3411 C 331.416 4.71134 3.26833 0
M  V30 3412 N 330.912 5.77406 3.8285 0
M  V30 3413 N 332.705 4.58623 3.24995 0
M  V30 3414 H 324.856 2.1073 0.265855 0
M  V30 3415 H 327.119 0.930671 0.180431 0
M  V30 3416 H 326.825 3.29093 1.24058 0
M  V30 3417 H 326.699 2.51628 2.81004 0
M  V30 3418 H 329.086 1.57577 2.49506 0
M  V30 3419 H 329.167 2.38536 0.923811 0
M  V30 3420 H 328.811 4.63031 2.08722 0
M  V30 3421 H 328.741 3.78968 3.65637 0
M  V30 3422 H 331.232 2.98423 2.31845 0
M  V30 3423 H 331.545 6.46632 4.23187 0
M  V30 3424 H 329.89 5.81152 3.81165 0
M  V30 3425 H 333.081 3.74762 2.80484 0
M  V30 3426 H 333.254 5.33535 3.67756 0
M  V30 3427 N 326.66 -1.06551 1.16123 0
M  V30 3428 C 328.071 -1.60768 0.949232 0
M  V30 3429 C 328.422 -1.89523 -0.507508 0
M  V30 3430 O 327.547 -1.66671 -1.38021 0
M  V30 3431 C 328.142 -2.92086 1.71671 0
M  V30 3432 C 326.701 -3.43015 1.54977 0
M  V30 3433 C 325.848 -2.16947 1.72711 0
M  V30 3434 H 328.799 -0.895354 1.31031 0
M  V30 3435 H 328.82 -3.6138 1.19099 0
M  V30 3436 H 328.332 -2.71127 2.7769 0
M  V30 3437 H 326.433 -3.69039 0.513873 0
M  V30 3438 H 326.546 -4.18516 2.33198 0
M  V30 3439 H 324.91 -2.27041 1.15431 0
M  V30 3440 H 325.693 -1.98473 2.80113 0
M  V30 3441 N 328.138 -0.959301 -1.25041 0
M  V30 3442 C 329.048 -0.489994 -2.29426 0
M  V30 3443 C 330.064 0.444944 -1.68215 0
M  V30 3444 O 331.24 0.320046 -1.98841 0
M  V30 3445 C 328.305 0.220309 -3.45999 0
M  V30 3446 C 327.366 -0.753418 -4.22637 0
M  V30 3447 C 326.599 -0.076918 -5.33645 0
M  V30 3448 O 326.822 1.13649 -5.58963 0
M  V30 3449 O 325.756 -0.764824 -5.97021 0
M  V30 3450 H 329.582 -1.35755 -2.71669 0
M  V30 3451 H 327.167 -0.725961 -1.30576 0
M  V30 3452 H 329.049 0.619677 -4.16819 0
M  V30 3453 H 327.724 1.06296 -3.0575 0
M  V30 3454 H 326.631 -1.20308 -3.54227 0
M  V30 3455 H 327.964 -1.56423 -4.66683 0
M  V30 3456 N 329.616 1.39756 -0.72842 0
M  V30 3457 C 330.566 2.2792 -0.0603424 0
M  V30 3458 C 331.55 1.43922 0.719399 0
M  V30 3459 O 332.742 1.66895 0.589489 0
M  V30 3460 C 329.871 3.32582 0.851104 0
M  V30 3461 C 328.957 4.24049 0.0658641 0
M  V30 3462 N 329.348 4.96653 -0.957578 0
M  V30 3463 C 327.646 4.45013 0.296509 0
M  V30 3464 C 328.347 5.63836 -1.43052 0
M  V30 3465 N 327.323 5.38397 -0.750315 0
M  V30 3466 H 331.125 2.81504 -0.84455 0
M  V30 3467 H 328.639 1.5236 -0.562155 0
M  V30 3468 H 330.636 3.94603 1.34514 0
M  V30 3469 H 329.296 2.80558 1.63454 0
M  V30 3470 H 330.307 5.00297 -1.33877 0
M  V30 3471 H 326.984 4.03943 1.05527 0
M  V30 3472 H 328.374 6.31974 -2.28163 0
M  V30 3473 N 331.094 0.475555 1.50254 0
M  V30 3474 C 332.041 -0.316293 2.28622 0
M  V30 3475 C 333.011 -0.983227 1.33873 0
M  V30 3476 O 334.196 -0.994805 1.62814 0
M  V30 3477 C 331.336 -1.38975 3.1588 0
M  V30 3478 C 330.449 -0.737146 4.25664 0
M  V30 3479 C 329.584 -1.78887 5.00173 0
M  V30 3480 C 328.623 -1.11676 6.01826 0
M  V30 3481 N 327.76 -2.11154 6.69596 0
M  V30 3482 H 332.6 0.358297 2.95838 0
M  V30 3483 H 330.137 0.188541 1.45887 0
M  V30 3484 H 332.095 -2.02383 3.64825 0
M  V30 3485 H 330.725 -2.03344 2.50701 0
M  V30 3486 H 329.777 0.0096065 3.80399 0
M  V30 3487 H 331.089 -0.206816 4.98371 0
M  V30 3488 H 330.243 -2.49865 5.52859 0
M  V30 3489 H 328.982 -2.35302 4.27182 0
M  V30 3490 H 327.987 -0.392633 5.48396 0
M  V30 3491 H 329.212 -0.55945 6.76792 0
M  V30 3492 H 327.158 -2.66577 5.99394 0
M  V30 3493 H 327.075 -1.63118 7.38193 0
M  V30 3494 H 328.343 -2.81497 7.26897 0
M  V30 3495 N 332.573 -1.56217 0.208337 0
M  V30 3496 C 333.801 -2.02337 -0.43215 0
M  V30 3497 C 334.216 -1.08834 -1.54275 0
M  V30 3498 O 333.573 -0.0955462 -1.8225 0
M  V30 3499 C 333.624 -3.48072 -0.976138 0
M  V30 3500 O 333.345 -4.38007 0.0901621 0
M  V30 3501 C 334.846 -4.09773 -1.69119 0
M  V30 3502 H 332.066 -0.662385 -0.10718 0
M  V30 3503 H 334.61 -2.01966 0.320923 0
M  V30 3504 H 332.765 -3.49099 -1.67954 0
M  V30 3505 H 333.179 -5.23543 -0.316701 0
M  V30 3506 H 334.653 -5.13556 -2.02397 0
M  V30 3507 H 335.13 -3.53999 -2.59964 0
M  V30 3508 H 335.736 -4.12556 -1.03332 0
M  V30 3509 N 334.051 0.0651679 -1.57465 0
M  V30 3510 C 335.276 0.779605 -1.9219 0
M  V30 3511 C 335.701 1.69988 -0.805333 0
M  V30 3512 O 335.059 1.79685 0.241435 0
M  V30 3513 C 335.107 1.54364 -3.2589 0
M  V30 3514 O 334.211 2.65474 -3.1559 0
M  V30 3515 H 333.552 0.212249 -0.629163 0
M  V30 3516 H 336.082 0.0314294 -2.04576 0
M  V30 3517 H 336.092 1.92146 -3.59922 0
M  V30 3518 H 334.767 0.868457 -4.06732 0
M  V30 3519 H 333.344 2.30501 -2.93128 0
M  V30 3520 N 335.529 1.53961 0.336706 0
M  V30 3521 C 336.806 1.62171 1.09361 0
M  V30 3522 C 337.186 0.447263 2.06307 0
M  V30 3523 O 336.534 -0.559802 2.21537 0
M  V30 3524 C 336.744 2.98565 1.80721 0
M  V30 3525 C 338.092 3.54157 2.34218 0
M  V30 3526 O 339.116 3.00784 1.90807 0
M  V30 3527 O 337.975 4.47528 3.13657 0
M  V30 3528 H 335.069 0.6562 0.503319 0
M  V30 3529 H 337.615 1.66307 0.33765 0
M  V30 3530 H 336.387 3.75482 1.10132 0
M  V30 3531 H 336.01 2.9805 2.63158 0
M  V30 3532 N 337.007 -0.598083 1.45811 0
M  V30 3533 C 338.232 -1.3881 1.54099 0
M  V30 3534 C 338.657 -1.8726 0.177578 0
M  V30 3535 O 338.015 -1.6069 -0.839541 0
M  V30 3536 C 338.063 -2.56217 2.53743 0
M  V30 3537 O 337.167 -3.5716 2.06182 0
M  V30 3538 H 336.508 -0.414024 0.519115 0
M  V30 3539 H 339.038 -0.726971 1.91249 0
M  V30 3540 H 339.048 -3.03337 2.72856 0
M  V30 3541 H 337.723 -2.20303 3.5276 0
M  V30 3542 H 336.3 -3.16624 1.96987 0
M  V30 3543 N 338.485 -1.33259 -0.841409 0
M  V30 3544 C 339.713 -1.27605 -1.62864 0
M  V30 3545 C 340.128 0.153507 -1.88175 0
M  V30 3546 O 339.485 1.09485 -1.46011 0
M  V30 3547 C 339.536 -2.04596 -2.98031 0
M  V30 3548 O 339.257 -3.41975 -2.73834 0
M  V30 3549 C 340.758 -2.06122 -3.92465 0
M  V30 3550 H 337.978 -0.439718 -0.506842 0
M  V30 3551 H 340.522 -1.75591 -1.04824 0
M  V30 3552 H 338.677 -1.60299 -3.5268 0
M  V30 3553 H 339.091 -3.81549 -3.59889 0
M  V30 3554 H 340.565 -2.64451 -4.84531 0
M  V30 3555 H 341.042 -1.05083 -4.26444 0
M  V30 3556 H 341.648 -2.50427 -3.43753 0
M  V30 3557 N 339.963 1.05934 -1.16686 0
M  V30 3558 C 341.21 1.788 -0.950622 0
M  V30 3559 C 341.538 1.87384 0.521305 0
M  V30 3560 O 340.793 1.36438 1.40297 0
M  V30 3561 C 341.092 3.23105 -1.52767 0
M  V30 3562 C 340.758 3.34594 -3.02254 0
M  V30 3563 C 339.42 3.37437 -3.43059 0
M  V30 3564 C 341.772 3.36219 -3.98254 0
M  V30 3565 C 339.1 3.39525 -4.78477 0
M  V30 3566 C 341.452 3.39845 -5.33562 0
M  V30 3567 C 340.116 3.40971 -5.73842 0
M  V30 3568 H 339.386 0.654275 -0.347857 0
M  V30 3569 H 342.033 1.24555 -1.45459 0
M  V30 3570 H 340.338 3.80227 -0.94524 0
M  V30 3571 H 342.035 3.7809 -1.336 0
M  V30 3572 H 338.625 3.3309 -2.6972 0
M  V30 3573 H 342.809 3.33231 -3.67792 0
M  V30 3574 H 338.065 3.38703 -5.09009 0
M  V30 3575 H 342.239 3.4005 -6.07733 0
M  V30 3576 H 339.866 3.42342 -6.78753 0
M  V30 3577 N 341.441 0.965919 1.2453 0
M  V30 3578 C 342.371 0.513476 2.27784 0
M  V30 3579 C 343.352 -0.445974 1.6415 0
M  V30 3580 O 344.537 -0.342485 1.91156 0
M  V30 3581 C 341.667 -0.198839 3.4673 0
M  V30 3582 C 340.621 0.676456 4.2262 0
M  V30 3583 C 339.947 -0.167248 5.34438 0
M  V30 3584 C 341.247 1.96017 4.84123 0
M  V30 3585 H 342.941 1.3765 2.65881 0
M  V30 3586 H 340.487 0.663321 1.27813 0
M  V30 3587 H 342.44 -0.526567 4.18097 0
M  V30 3588 H 341.164 -1.0962 3.07654 0
M  V30 3589 H 339.823 0.98743 3.53052 0
M  V30 3590 H 339.471 -1.0647 4.91603 0
M  V30 3591 H 339.171 0.415181 5.86131 0
M  V30 3592 H 340.695 -0.489688 6.08633 0
M  V30 3593 H 342.109 1.69814 5.47573 0
M  V30 3594 H 340.506 2.48918 5.4604 0
M  V30 3595 H 341.576 2.65622 4.05676 0
M  V30 3596 N 342.919 -1.39368 0.735821 0
M  V30 3597 C 344.165 -2.00794 0.284544 0
M  V30 3598 C 344.498 -1.58255 -1.12557 0
M  V30 3599 O 343.773 -0.811819 -1.76748 0
M  V30 3600 C 344.056 -3.58011 0.387337 0
M  V30 3601 C 343.909 -4.10566 1.83728 0
M  V30 3602 C 345.228 -4.395 -0.22975 0
M  V30 3603 H 342.347 -0.729501 0.104866 0
M  V30 3604 H 344.989 -1.65564 0.93213 0
M  V30 3605 H 343.139 -3.88154 -0.164006 0
M  V30 3606 H 344.811 -3.91139 2.44556 0
M  V30 3607 H 343.054 -3.64095 2.35833 0
M  V30 3608 H 343.725 -5.19702 1.86047 0
M  V30 3609 H 346.201 -4.15406 0.240257 0
M  V30 3610 H 345.077 -5.48752 -0.127485 0
M  V30 3611 H 345.338 -4.22062 -1.3159 0
M  V30 3612 N 344.397 -0.483516 -1.5 0
M  V30 3613 C 345.644 0.0671597 -2.02389 0
M  V30 3614 C 345.972 1.38597 -1.36459 0
M  V30 3615 O 345.227 1.89634 -0.483458 0
M  V30 3616 C 345.526 0.286226 -3.56252 0
M  V30 3617 C 345.192 -0.952416 -4.40726 0
M  V30 3618 C 343.854 -1.29199 -4.63531 0
M  V30 3619 C 346.206 -1.77655 -4.89988 0
M  V30 3620 C 343.534 -2.45553 -5.32842 0
M  V30 3621 C 345.886 -2.93147 -5.60578 0
M  V30 3622 C 344.55 -3.27505 -5.81633 0
M  V30 3623 H 343.82 0.0245755 -0.740592 0
M  V30 3624 H 346.467 -0.640124 -1.80485 0
M  V30 3625 H 344.772 1.07587 -3.76739 0
M  V30 3626 H 346.469 0.726473 -3.94365 0
M  V30 3627 H 343.059 -0.677881 -4.23205 0
M  V30 3628 H 347.243 -1.52737 -4.72213 0
M  V30 3629 H 342.499 -2.72431 -5.47349 0
M  V30 3630 H 346.673 -3.57344 -5.97727 0
M  V30 3631 H 344.3 -4.1777 -6.35116 0
M  V30 3632 N 345.875 1.56104 -0.216619 0
M  V30 3633 C 346.808 2.16026 0.735395 0
M  V30 3634 C 347.786 1.1032 1.1945 0
M  V30 3635 O 348.97 1.38549 1.27814 0
M  V30 3636 C 346.097 2.73656 1.99575 0
M  V30 3637 C 345.143 3.92146 1.67702 0
M  V30 3638 S 345.976 5.29397 0.806145 0
M  V30 3639 C 347.132 5.90463 2.07617 0
M  V30 3640 H 347.365 2.96439 0.226072 0
M  V30 3641 H 344.898 1.544 -0.00136639 0
M  V30 3642 H 346.856 3.075 2.71945 0
M  V30 3643 H 345.517 1.93245 2.47619 0
M  V30 3644 H 344.71 4.30954 2.61332 0
M  V30 3645 H 344.312 3.59423 1.03398 0
M  V30 3646 H 346.604 6.06136 3.02664 0
M  V30 3647 H 347.547 6.86589 1.73207 0
M  V30 3648 H 347.955 5.19252 2.21445 0
M  V30 3649 N 347.353 -0.0568162 1.57498 0
M  V30 3650 C 348.578 -0.769402 1.92601 0
M  V30 3651 C 349.003 -1.69559 0.814336 0
M  V30 3652 O 348.361 -1.79811 -0.231903 0
M  V30 3653 C 348.409 -1.52634 3.26704 0
M  V30 3654 O 347.513 -2.63797 3.16994 0
M  V30 3655 H 346.854 -0.208909 0.63028 0
M  V30 3656 H 349.384 -0.0205798 2.0459 0
M  V30 3657 H 349.394 -1.90234 3.60936 0
M  V30 3658 H 348.069 -0.846875 4.07186 0
M  V30 3659 H 346.646 -2.28943 2.94346 0
M  V30 3660 N 348.832 -1.54138 -0.328536 0
M  V30 3661 C 349.782 -1.79557 -1.4051 0
M  V30 3662 C 350.766 -0.651373 -1.47126 0
M  V30 3663 O 351.958 -0.911226 -1.51742 0
M  V30 3664 C 349.087 -2.02196 -2.77438 0
M  V30 3665 C 348.173 -3.22724 -2.75155 0
M  V30 3666 N 348.564 -4.43881 -2.42494 0
M  V30 3667 C 346.862 -3.24196 -3.06289 0
M  V30 3668 C 347.563 -5.25797 -2.48822 0
M  V30 3669 N 346.539 -4.62862 -2.8506 0
M  V30 3670 H 350.341 -2.70814 -1.1418 0
M  V30 3671 H 347.855 -1.53265 -0.536991 0
M  V30 3672 H 349.852 -2.18546 -3.55026 0
M  V30 3673 H 348.512 -1.12191 -3.04702 0
M  V30 3674 H 349.523 -4.70969 -2.15428 0
M  V30 3675 H 346.2 -2.44208 -3.38627 0
M  V30 3676 H 347.59 -6.32535 -2.26603 0
M  V30 3677 N 350.31 0.590341 -1.46126 0
M  V30 3678 C 351.558 1.34616 -1.50742 0
M  V30 3679 C 351.879 1.94363 -0.157486 0
M  V30 3680 O 351.149 1.78136 0.815136 0
M  V30 3681 H 349.729 0.499789 -0.555175 0
M  V30 3682 H 352.391 0.691953 -1.82203 0
M  V30 3683 H 351.487 2.15678 -2.25587 0
M  V30 3684 N 351.788 1.33704 0.83433 0
M  V30 3685 C 353.037 1.24763 1.58484 0
M  V30 3686 C 353.35 -0.183775 1.94735 0
M  V30 3687 O 354.556 -0.395234 2.68608 0
M  V30 3688 C 353.012 2.18638 2.85876 0
M  V30 3689 C 352.62 3.66974 2.56971 0
M  V30 3690 C 354.364 2.18581 3.63899 0
M  V30 3691 C 352.271 4.5275 3.80488 0
M  V30 3692 H 351.201 0.463425 0.594772 0
M  V30 3693 H 353.852 1.58797 0.919551 0
M  V30 3694 H 352.234 1.77542 3.5397 0
M  V30 3695 H 353.408 4.16538 1.9706 0
M  V30 3696 H 351.723 3.69366 1.92244 0
M  V30 3697 H 354.32 2.79894 4.55591 0
M  V30 3698 H 354.663 1.18207 3.99165 0
M  V30 3699 H 355.196 2.58062 3.02735 0
M  V30 3700 H 351.935 5.54017 3.5035 0
M  V30 3701 H 351.455 4.07927 4.39722 0
M  V30 3702 H 353.134 4.66784 4.4802 0
M  V30 3703 N 353.266 -1.05314 1.17247 0
M  V30 3704 C 354.682 -1.30452 0.919473 0
M  V30 3705 C 354.882 -1.9703 -0.42209 0
M  V30 3706 O 353.938 -2.24311 -1.15935 0
M  V30 3707 C 355.251 -2.17551 2.07586 0
M  V30 3708 C 356.799 -2.30937 2.11275 0
M  V30 3709 C 357.274 -3.21396 3.26296 0
M  V30 3710 N 358.765 -3.28981 3.26076 0
M  V30 3711 C 359.5 -3.99095 4.11716 0
M  V30 3712 N 358.996 -4.71648 5.07465 0
M  V30 3713 N 360.789 -3.95247 3.9967 0
M  V30 3714 H 352.94 -0.604988 2.03602 0
M  V30 3715 H 355.203 -0.329368 0.888944 0
M  V30 3716 H 354.909 -1.75921 3.0454 0
M  V30 3717 H 354.783 -3.18182 2.02584 0
M  V30 3718 H 357.17 -2.71809 1.14907 0
M  V30 3719 H 357.251 -1.2994 2.20339 0
M  V30 3720 H 356.895 -2.81238 4.22927 0
M  V30 3721 H 356.825 -4.22395 3.14467 0
M  V30 3722 H 359.316 -2.77286 2.5675 0
M  V30 3723 H 359.629 -5.22705 5.6921 0
M  V30 3724 H 357.974 -4.70594 5.11435 0
M  V30 3725 H 361.165 -3.37691 3.24164 0
M  V30 3726 H 361.338 -4.4962 4.66632 0
M  V30 3727 N 354.744 -0.972509 -1.24016 0
M  V30 3728 C 355.654 -0.5143 -2.28893 0
M  V30 3729 C 356.67 0.427078 -1.68677 0
M  V30 3730 O 357.846 0.298939 -1.99169 0
M  V30 3731 C 354.911 0.183598 -3.46214 0
M  V30 3732 C 353.972 -0.798202 -4.21814 0
M  V30 3733 C 353.205 -0.133514 -5.33533 0
M  V30 3734 O 353.428 1.07714 -5.60137 0
M  V30 3735 O 352.362 -0.828103 -5.96176 0
M  V30 3736 H 356.188 -1.38629 -2.70214 0
M  V30 3737 H 353.773 -0.739769 -1.29799 0
M  V30 3738 H 355.655 0.575433 -4.17453 0
M  V30 3739 H 354.33 1.03048 -3.0686 0
M  V30 3740 H 353.237 -1.24059 -3.52931 0
M  V30 3741 H 354.57 -1.61364 -4.64997 0
M  V30 3742 N 356.222 1.38976 -0.743202 0
M  V30 3743 C 357.47 1.99948 -0.29417 0
M  V30 3744 C 357.791 1.59279 1.12495 0
M  V30 3745 O 357.061 0.844808 1.76748 0
M  V30 3746 H 355.641 0.739473 -0.105774 0
M  V30 3747 H 358.303 1.699 -0.954986 0
M  V30 3748 H 357.399 3.10142 -0.349056 0
M  V30 3749 N 357.7 0.491464 1.49741 0
M  V30 3750 C 358.949 -0.0582189 2.01616 0
M  V30 3751 C 359.262 -1.38927 1.3769 0
M  V30 3752 O 360.468 -2.02509 1.80838 0
M  V30 3753 C 358.924 -0.154235 3.59569 0
M  V30 3754 C 358.532 1.1696 4.32463 0
M  V30 3755 C 360.276 -0.65479 4.1942 0
M  V30 3756 C 358.183 1.03627 5.8225 0
M  V30 3757 H 357.113 -0.0255317 0.753568 0
M  V30 3758 H 359.764 0.629445 1.72367 0
M  V30 3759 H 358.146 -0.906138 3.85493 0
M  V30 3760 H 359.32 1.93405 4.18248 0
M  V30 3761 H 357.635 1.60285 3.84315 0
M  V30 3762 H 360.232 -0.771903 5.29099 0
M  V30 3763 H 360.575 -1.65127 3.8215 0
M  V30 3764 H 361.108 0.040304 3.9778 0
M  V30 3765 H 357.847 2.00672 6.24028 0
M  V30 3766 H 357.367 0.312546 5.98985 0
M  V30 3767 H 359.046 0.711114 6.4308 0
M  V30 3768 N 359.178 -1.55987 0.224894 0
M  V30 3769 C 360.418 -2.00293 -0.407706 0
M  V30 3770 C 360.782 -1.1093 -1.56711 0
M  V30 3771 O 361.983 -1.44597 -2.26595 0
M  V30 3772 C 360.254 -3.47675 -0.82805 0
M  V30 3773 S 361.813 -4.14 -1.45429 0
M  V30 3774 H 358.631 -0.699152 -0.129256 0
M  V30 3775 H 361.233 -1.92609 0.334967 0
M  V30 3776 H 359.937 -4.10392 0.0253964 0
M  V30 3777 H 359.468 -3.59239 -1.60345 0
M  V30 3778 H 361.483 -4.13465 -2.74337 0
M  V30 3779 N 360.656 0.0484629 -1.57525 0
M  V30 3780 C 361.904 0.741657 -1.88 0
M  V30 3781 C 362.225 1.76918 -0.820054 0
M  V30 3782 O 361.495 1.95335 0.148661 0
M  V30 3783 H 360.075 0.276908 -0.69378 0
M  V30 3784 H 362.737 0.019013 -1.94891 0
M  V30 3785 H 361.833 1.24336 -2.86264 0
M  V30 3786 N 362.134 1.5431 0.320358 0
M  V30 3787 C 363.081 1.83918 1.39438 0
M  V30 3788 C 364.051 0.686525 1.51248 0
M  V30 3789 O 365.236 0.933269 1.66417 0
M  V30 3790 C 362.376 2.075 2.75749 0
M  V30 3791 C 361.489 3.35177 2.72544 0
M  V30 3792 C 360.624 3.48704 4.00723 0
M  V30 3793 C 359.663 4.70244 3.91838 0
M  V30 3794 N 358.8 4.80679 5.11754 0
M  V30 3795 H 363.64 2.75544 1.13489 0
M  V30 3796 H 361.177 1.36459 0.549309 0
M  V30 3797 H 363.135 2.19166 3.54996 0
M  V30 3798 H 361.765 1.19163 3 0
M  V30 3799 H 360.817 3.32233 1.85271 0
M  V30 3800 H 362.129 4.24534 2.61863 0
M  V30 3801 H 361.283 3.59928 4.88402 0
M  V30 3802 H 360.022 2.57445 4.14214 0
M  V30 3803 H 359.027 4.59072 3.02544 0
M  V30 3804 H 360.252 5.6289 3.7991 0
M  V30 3805 H 358.198 3.92337 5.25745 0
M  V30 3806 H 358.115 5.64007 5.0342 0
M  V30 3807 H 359.383 4.96239 6.01138 0
M  V30 3808 N 363.613 -0.582584 1.46437 0
M  V30 3809 C 364.56 -1.69164 1.5701 0
M  V30 3810 C 365.53 -1.60847 0.414403 0
M  V30 3811 O 366.715 -1.80058 0.631171 0
M  V30 3812 C 363.855 -3.075 1.56646 0
M  V30 3813 C 362.968 -3.2644 2.82951 0
M  V30 3814 C 362.103 -4.55026 2.7409 0
M  V30 3815 C 361.142 -4.6731 3.95333 0
M  V30 3816 N 360.279 -5.87221 3.84858 0
M  V30 3817 H 365.119 -1.59464 2.51744 0
M  V30 3818 H 362.656 -0.777186 1.24893 0
M  V30 3819 H 364.614 -3.8757 1.5442 0
M  V30 3820 H 363.244 -3.16096 0.654439 0
M  V30 3821 H 362.296 -2.39974 2.95155 0
M  V30 3822 H 363.608 -3.31385 3.72808 0
M  V30 3823 H 362.762 -5.43324 2.6997 0
M  V30 3824 H 361.501 -4.52519 1.81873 0
M  V30 3825 H 360.506 -3.77429 3.99784 0
M  V30 3826 H 361.731 -4.71595 4.88646 0
M  V30 3827 H 359.677 -5.85712 2.95427 0
M  V30 3828 H 359.594 -5.93435 4.6837 0
M  V30 3829 H 360.862 -6.7795 3.84713 0
M  V30 3830 N 365.091 -1.34144 -0.827227 0
M  V30 3831 C 366.041 -1.21923 -1.92663 0
M  V30 3832 C 367.025 -0.119294 -1.60457 0
M  V30 3833 O 368.217 -0.348539 -1.73534 0
M  V30 3834 C 365.346 -0.972492 -3.29238 0
M  V30 3835 C 364.432 -2.1154 -3.67576 0
M  V30 3836 N 364.823 -3.36627 -3.77512 0
M  V30 3837 C 363.121 -2.02468 -3.97395 0
M  V30 3838 C 363.822 -4.11658 -4.1099 0
M  V30 3839 N 362.798 -3.40207 -4.23981 0
M  V30 3840 H 366.6 -2.16721 -1.98517 0
M  V30 3841 H 364.114 -1.2632 -1.02064 0
M  V30 3842 H 366.111 -0.865847 -4.0781 0
M  V30 3843 H 364.771 -0.0331509 -3.24683 0
M  V30 3844 H 365.782 -3.71234 -3.61118 0
M  V30 3845 H 362.459 -1.16265 -4.00985 0
M  V30 3846 H 363.849 -5.19657 -4.25918 0
M  V30 3847 N 366.569 1.04691 -1.17803 0
M  V30 3848 C 367.794 1.81984 -0.994813 0
M  V30 3849 C 368.219 1.82586 0.452112 0
M  V30 3850 O 367.577 1.23854 1.324 0
M  V30 3851 C 367.625 3.2575 -1.54659 0
M  V30 3852 O 366.729 4.05267 -0.763728 0
M  V30 3853 H 366.07 0.562483 -0.352857 0
M  V30 3854 H 368.6 1.3189 -1.56417 0
M  V30 3855 H 368.61 3.76541 -1.57102 0
M  V30 3856 H 367.285 3.24627 -2.59981 0
M  V30 3857 H 365.862 3.63972 -0.811108 0
M  V30 3858 N 368.047 0.979072 1.23499 0
M  V30 3859 C 368.957 0.526431 2.28617 0
M  V30 3860 C 369.973 -0.418126 1.68901 0
M  V30 3861 O 371.149 -0.288372 1.99325 0
M  V30 3862 C 368.214 -0.165235 3.46306 0
M  V30 3863 C 367.275 0.82056 4.21385 0
M  V30 3864 C 366.508 0.161807 5.33455 0
M  V30 3865 O 366.731 -1.04742 5.60701 0
M  V30 3866 O 365.665 0.859708 5.95729 0
M  V30 3867 H 369.491 1.4006 2.69475 0
M  V30 3868 H 367.076 0.746643 1.29405 0
M  V30 3869 H 368.958 -0.553287 4.17752 0
M  V30 3870 H 367.633 -1.01419 3.07402 0
M  V30 3871 H 366.54 1.25929 3.52268 0
M  V30 3872 H 367.873 1.63828 4.64135 0
M  V30 3873 N 369.525 -1.3858 0.750561 0
M  V30 3874 C 370.457 -2.29057 0.0810714 0
M  V30 3875 C 371.47 -1.47596 -0.686973 0
M  V30 3876 O 372.659 -1.70495 -0.528563 0
M  V30 3877 C 369.759 -3.26475 -0.909247 0
M  V30 3878 C 368.932 -4.36945 -0.199478 0
M  V30 3879 C 367.991 -5.14572 -1.10011 0
M  V30 3880 O 367.017 -5.66321 -0.57177 0
M  V30 3881 N 368.219 -5.27262 -2.42849 0
M  V30 3882 H 370.984 -2.87153 0.858087 0
M  V30 3883 H 368.545 -1.50328 0.60109 0
M  V30 3884 H 370.537 -3.75285 -1.51471 0
M  V30 3885 H 369.107 -2.69298 -1.58736 0
M  V30 3886 H 368.327 -3.8981 0.586664 0
M  V30 3887 H 369.615 -5.07963 0.291783 0
M  V30 3888 H 369.013 -4.86763 -2.88233 0
M  V30 3889 H 367.57 -5.79456 -2.98453 0
M  V30 3890 N 371.003 -0.499398 -1.49478 0
M  V30 3891 C 372.249 0.0457576 -2.02748 0
M  V30 3892 C 372.582 1.36793 -1.37846 0
M  V30 3893 O 371.857 1.87596 -0.513601 0
M  V30 3894 C 372.14 0.199986 -3.59544 0
M  V30 3895 C 371.993 -1.1452 -4.34977 0
M  V30 3896 C 373.312 0.94137 -4.29914 0
M  V30 3897 H 370.431 0.0151552 -0.736844 0
M  V30 3898 H 373.073 -0.650498 -1.78518 0
M  V30 3899 H 371.223 0.793007 -3.8032 0
M  V30 3900 H 372.895 -1.77697 -4.25701 0
M  V30 3901 H 371.138 -1.73488 -3.97598 0
M  V30 3902 H 371.809 -0.990607 -5.43039 0
M  V30 3903 H 374.285 0.43844 -4.13784 0
M  V30 3904 H 373.161 1.01812 -5.39375 0
M  V30 3905 H 373.422 1.98471 -3.95046 0
M  V30 3906 N 372.481 1.55866 -0.233164 0
M  V30 3907 C 373.892 1.847 0.272554 0
M  V30 3908 C 374.243 1.15477 1.58617 0
M  V30 3909 O 373.368 0.42841 2.12117 0
M  V30 3910 C 373.963 3.35071 0.501299 0
M  V30 3911 C 372.522 3.6418 0.951304 0
M  V30 3912 C 371.669 2.77292 0.0208209 0
M  V30 3913 H 374.62 1.52005 -0.456074 0
M  V30 3914 H 374.641 3.55906 1.34577 0
M  V30 3915 H 374.153 3.85424 -0.454936 0
M  V30 3916 H 372.254 3.19293 1.92049 0
M  V30 3917 H 372.367 4.72071 0.817675 0
M  V30 3918 H 370.731 2.49131 0.529723 0
M  V30 3919 H 371.514 3.30448 -0.93054 0
M  V30 3920 N 373.959 -0.0401083 1.57549 0
M  V30 3921 C 375.236 -0.767917 1.79896 0
M  V30 3922 C 375.616 -1.9416 0.82856 0
M  V30 3923 O 374.964 -2.2812 -0.131671 0
M  V30 3924 C 375.174 -1.2113 3.27305 0
M  V30 3925 C 376.522 -1.63175 3.91994 0
M  V30 3926 O 377.546 -1.30616 3.31388 0
M  V30 3927 O 376.405 -2.23565 4.98679 0
M  V30 3928 H 373.499 -0.370441 0.739393 0
M  V30 3929 H 376.045 -0.017737 1.69691 0
M  V30 3930 H 374.817 -0.372937 3.89519 0
M  V30 3931 H 374.44 -2.02183 3.42356 0
M  V30 3932 N 375.437 -1.54477 -0.31217 0
M  V30 3933 C 376.686 -1.72438 -1.04633 0
M  V30 3934 C 376.999 -0.511163 -1.88803 0
M  V30 3935 O 378.205 -0.572341 -2.65399 0
M  V30 3936 C 376.661 -3.05043 -1.9099 0
M  V30 3937 C 376.269 -4.33806 -1.11877 0
M  V30 3938 C 378.013 -3.32364 -2.64073 0
M  V30 3939 C 375.92 -5.57467 -1.97445 0
M  V30 3940 H 374.85 -0.642647 -0.394361 0
M  V30 3941 H 377.501 -1.80966 -0.303929 0
M  V30 3942 H 375.883 -2.90451 -2.69173 0
M  V30 3943 H 377.057 -4.59199 -0.383843 0
M  V30 3944 H 375.372 -4.13336 -0.504252 0
M  V30 3945 H 377.969 -4.21951 -3.28423 0
M  V30 3946 H 378.312 -2.50745 -3.32314 0
M  V30 3947 H 378.845 -3.47875 -1.92944 0
M  V30 3948 H 375.584 -6.41722 -1.33692 0
M  V30 3949 H 375.104 -5.36277 -2.6864 0
M  V30 3950 H 376.783 -5.94303 -2.5576 0
M  V30 3951 N 376.915 0.57481 -1.46744 0
M  V30 3952 C 377.845 1.69337 -1.60771 0
M  V30 3953 C 378.826 1.63825 -0.457736 0
M  V30 3954 O 380.011 1.8172 -0.684947 0
M  V30 3955 C 377.141 3.0798 -1.60517 0
M  V30 3956 C 376.095 3.28327 -2.74564 0
M  V30 3957 C 375.421 4.67578 -2.59373 0
M  V30 3958 C 376.721 3.15398 -4.16319 0
M  V30 3959 H 378.415 1.57853 -2.54407 0
M  V30 3960 H 375.961 0.75799 -1.22436 0
M  V30 3961 H 377.914 3.86061 -1.68923 0
M  V30 3962 H 376.638 3.20381 -0.634305 0
M  V30 3963 H 375.297 2.52649 -2.65639 0
M  V30 3964 H 374.945 4.76755 -1.60353 0
M  V30 3965 H 374.645 4.82144 -3.35873 0
M  V30 3966 H 376.169 5.47817 -2.69682 0
M  V30 3967 H 377.583 3.83315 -4.26313 0
M  V30 3968 H 375.98 3.41482 -4.93468 0
M  V30 3969 H 377.05 2.12372 -4.3592 0
M  V30 3970 N 378.394 1.34581 0.820102 0
M  V30 3971 C 379.326 1.22236 1.93884 0
M  V30 3972 C 380.339 0.148776 1.62119 0
M  V30 3973 O 381.528 0.400877 1.7394 0
M  V30 3974 C 378.628 0.856542 3.27897 0
M  V30 3975 C 377.801 2.02569 3.87666 0
M  V30 3976 C 376.86 1.63782 5.00062 0
M  V30 3977 O 375.886 2.35477 5.18208 0
M  V30 3978 N 377.088 0.553611 5.77854 0
M  V30 3979 H 379.853 2.18615 2.05006 0
M  V30 3980 H 377.414 1.27573 0.99683 0
M  V30 3981 H 379.406 0.578806 4.0054 0
M  V30 3982 H 377.976 -0.0171518 3.12595 0
M  V30 3983 H 377.196 2.468 3.07382 0
M  V30 3984 H 378.484 2.80752 4.24329 0
M  V30 3985 H 377.882 -0.0423528 5.65684 0
M  V30 3986 H 376.439 0.335614 6.50935 0
M  V30 3987 N 379.872 -1.04064 1.18357 0
M  V30 3988 C 380.802 -2.14001 0.934113 0
M  V30 3989 C 381.783 -1.69616 -0.128186 0
M  V30 3990 O 382.968 -1.94185 0.0244093 0
M  V30 3991 C 380.098 -3.44253 0.459066 0
M  V30 3992 C 379.052 -4.02261 1.46185 0
M  V30 3993 C 378.378 -5.27992 0.844322 0
M  V30 3994 C 379.678 -4.38432 2.83856 0
M  V30 3995 H 381.372 -2.35127 1.85352 0
M  V30 3996 H 378.918 -1.12998 0.892604 0
M  V30 3997 H 380.871 -4.20522 0.271907 0
M  V30 3998 H 379.595 -3.22813 -0.495912 0
M  V30 3999 H 378.254 -3.28074 1.63595 0
M  V30 4000 H 377.902 -5.02862 -0.117845 0
M  V30 4001 H 377.602 -5.67765 1.51384 0
M  V30 4002 H 379.126 -6.06938 0.667693 0
M  V30 4003 H 380.54 -5.05688 2.70098 0
M  V30 4004 H 378.937 -4.89254 3.47491 0
M  V30 4005 H 380.007 -3.4826 3.37406 0
M  V30 4006 N 381.35 -0.985608 -1.22978 0
M  V30 4007 C 382.298 -0.522631 -2.26652 0
M  V30 4008 C 383.292 0.422998 -1.64034 0
M  V30 4009 O 384.498 0.296319 -1.77544 0
M  V30 4010 H 380.873 -0.150597 -0.736766 0
M  V30 4011 H 382.844 -1.40863 -2.63059 0
M  V30 4012 C 381.593 0.154238 -3.47358 0
M  V30 4013 H 380.916 -0.564329 -3.95797 0
M  V30 4014 H 382.356 0.441744 -4.21693 0
M  V30 4015 C 380.815 1.38719 -3.07016 0
M  V30 4016 O 381.345 2.48307 -3.15764 0
M  V30 4017 N 379.551 1.25975 -2.61875 0
M  V30 4018 H 379.098 0.368068 -2.54957 0
M  V30 4019 H 379.056 2.08578 -2.3525 0
M  V30 4020 N 382.828 1.3818 -0.7579 0
M  V30 4021 C 383.791 2.28764 -0.141286 0
M  V30 4022 C 384.791 1.47388 0.642907 0
M  V30 4023 O 385.981 1.67781 0.468536 0
M  V30 4024 C 383.113 3.31184 0.808069 0
M  V30 4025 H 384.306 2.848 -0.939633 0
M  V30 4026 H 381.859 1.47212 -0.525191 0
M  V30 4027 H 382.594 2.80247 1.63193 0
M  V30 4028 H 382.379 3.91314 0.248104 0
M  V30 4029 H 383.869 3.98909 1.23536 0
M  V30 4030 N 384.306 0.507319 1.49211 0
M  V30 4031 C 385.555 -0.0368315 2.01666 0
M  V30 4032 C 385.868 -1.37459 1.39156 0
M  V30 4033 O 387.074 -2.00579 1.82976 0
M  V30 4034 C 385.53 -0.116089 3.59713 0
M  V30 4035 C 385.138 1.2154 4.31198 0
M  V30 4036 C 386.882 -0.610268 4.2009 0
M  V30 4037 C 384.789 1.09796 5.81119 0
M  V30 4038 H 383.719 -0.0175376 0.753796 0
M  V30 4039 H 386.37 0.647691 1.71689 0
M  V30 4040 H 384.752 -0.8652 3.86433 0
M  V30 4041 H 385.926 1.9783 4.16173 0
M  V30 4042 H 384.241 1.64352 3.82593 0
M  V30 4043 H 386.838 -0.715742 5.29888 0
M  V30 4044 H 387.181 -1.61064 3.8388 0
M  V30 4045 H 387.714 0.0824916 3.97714 0
M  V30 4046 H 384.453 2.0728 6.21864 0
M  V30 4047 H 383.973 0.376058 5.9862 0
M  V30 4048 H 385.652 0.779281 6.4229 0
M  V30 4049 N 385.784 -1.5574 0.241426 0
M  V30 4050 C 387.031 -1.9881 -0.384836 0
M  V30 4051 C 387.359 -1.12947 -1.58346 0
M  V30 4052 O 386.614 -0.178993 -1.9488 0
M  V30 4053 C 386.913 -3.47308 -0.843317 0
M  V30 4054 C 386.579 -4.50223 0.246946 0
M  V30 4055 C 385.241 -4.78088 0.546399 0
M  V30 4056 C 387.593 -5.11841 0.983282 0
M  V30 4057 C 384.921 -5.64846 1.58636 0
M  V30 4058 C 387.273 -5.99727 2.01272 0
M  V30 4059 C 385.937 -6.25927 2.31888 0
M  V30 4060 H 385.207 -0.727496 -0.140821 0
M  V30 4061 H 387.854 -1.8831 0.348106 0
M  V30 4062 H 386.159 -3.55112 -1.65537 0
M  V30 4063 H 387.856 -3.78017 -1.33806 0
M  V30 4064 H 384.446 -4.286 0.00340639 0
M  V30 4065 H 388.63 -4.90366 0.765182 0
M  V30 4066 H 383.886 -5.83403 1.82896 0
M  V30 4067 H 388.06 -6.46517 2.58823 0
M  V30 4068 H 385.687 -6.92949 3.12611 0
M  V30 4069 N 387.262 0.0317525 -1.57568 0
M  V30 4070 C 388.21 1.05165 -2.07468 0
M  V30 4071 C 389.204 1.3761 -0.98792 0
M  V30 4072 O 390.41 1.36546 -1.17282 0
M  V30 4073 H 386.785 0.35666 -0.66204 0
M  V30 4074 H 388.756 0.604958 -2.92203 0
M  V30 4075 C 387.505 2.34488 -2.56731 0
M  V30 4076 H 386.828 2.10383 -3.39969 0
M  V30 4077 H 388.268 3.04203 -2.95358 0
M  V30 4078 C 386.727 3.03266 -1.46736 0
M  V30 4079 O 387.257 3.92988 -0.832069 0
M  V30 4080 N 385.463 2.6455 -1.20256 0
M  V30 4081 H 385.01 1.91674 -1.72102 0
M  V30 4082 H 384.968 3.10886 -0.468737 0
M  V30 4083 N 388.74 1.54641 0.303973 0
M  V30 4084 C 389.673 1.80263 1.3993 0
M  V30 4085 C 390.651 0.653657 1.48883 0
M  V30 4086 O 391.835 0.893284 1.6599 0
M  V30 4087 C 388.962 1.9367 2.77866 0
M  V30 4088 C 388.008 3.16078 2.86351 0
M  V30 4089 S 388.841 4.74219 2.4875 0
M  V30 4090 C 389.997 4.90558 3.88721 0
M  V30 4091 H 390.23 2.72886 1.17986 0
M  V30 4092 H 387.763 1.46014 0.501918 0
M  V30 4093 H 389.721 2.0208 3.57315 0
M  V30 4094 H 388.382 1.01991 2.9708 0
M  V30 4095 H 387.575 3.22252 3.87517 0
M  V30 4096 H 387.177 3.06099 2.14893 0
M  V30 4097 H 389.469 4.74398 4.83687 0
M  V30 4098 H 390.412 5.92651 3.87518 0
M  V30 4099 H 390.82 4.18728 3.78585 0
M  V30 4100 N 390.218 -0.567019 1.47046 0
M  V30 4101 C 391.148 -1.68482 1.61667 0
M  V30 4102 C 392.129 -1.6358 0.466418 0
M  V30 4103 O 393.314 -1.81354 0.694574 0
M  V30 4104 C 390.444 -3.07124 1.62148 0
M  V30 4105 C 389.398 -3.26867 2.76301 0
M  V30 4106 C 388.724 -4.66196 2.61849 0
M  V30 4107 C 390.024 -3.13186 4.17986 0
M  V30 4108 H 391.718 -1.56502 2.5524 0
M  V30 4109 H 389.264 -0.751486 1.22836 0
M  V30 4110 H 391.217 -3.8516 1.70968 0
M  V30 4111 H 389.941 -3.2004 0.651287 0
M  V30 4112 H 388.6 -2.51237 2.66975 0
M  V30 4113 H 388.248 -4.75898 1.62879 0
M  V30 4114 H 387.948 -4.80356 3.38425 0
M  V30 4115 H 389.472 -5.46379 2.72584 0
M  V30 4116 H 390.886 -3.81049 4.2834 0
M  V30 4117 H 389.283 -3.3886 4.95272 0
M  V30 4118 H 390.353 -2.10057 4.3704 0
M  V30 4119 N 391.696 -1.35014 -0.812953 0
M  V30 4120 C 392.644 -1.27435 -1.94585 0
M  V30 4121 C 393.638 -0.170494 -1.6854 0
M  V30 4122 O 394.844 -0.336085 -1.76835 0
M  V30 4123 H 391.219 -0.396144 -0.639198 0
M  V30 4124 H 393.19 -2.23158 -1.98098 0
M  V30 4125 C 391.939 -1.05677 -3.31252 0
M  V30 4126 H 391.262 -1.89853 -3.51846 0
M  V30 4127 H 392.702 -1.04413 -4.10943 0
M  V30 4128 C 391.161 0.239615 -3.36047 0
M  V30 4129 O 391.691 1.23759 -3.8216 0
M  V30 4130 N 389.897 0.276186 -2.89285 0
M  V30 4131 H 389.444 -0.53653 -2.51951 0
M  V30 4132 H 389.402 1.14332 -2.92875 0
M  V30 4133 N 393.175 1.03435 -1.18907 0
M  V30 4134 C 394.403 1.80381 -1.01342 0
M  V30 4135 C 394.818 1.83649 0.438005 0
M  V30 4136 O 394.175 1.27655 1.30424 0
M  V30 4137 C 394.226 3.25689 -1.56873 0
M  V30 4138 O 393.947 3.22673 -2.96334 0
M  V30 4139 C 395.448 4.19255 -1.44014 0
M  V30 4140 H 392.668 0.56784 -0.35749 0
M  V30 4141 H 395.212 1.30317 -1.576 0
M  V30 4142 H 393.367 3.72962 -1.04777 0
M  V30 4143 H 393.781 4.13748 -3.22355 0
M  V30 4144 H 395.255 5.19123 -1.87657 0
M  V30 4145 H 395.732 4.37467 -0.389815 0
M  V30 4146 H 396.338 3.77851 -1.95214 0
M  V30 4147 N 394.653 0.992116 1.22453 0
M  V30 4148 C 395.6 0.541731 2.24352 0
M  V30 4149 C 396.57 -0.425519 1.60557 0
M  V30 4150 O 397.755 -0.330453 1.87917 0
M  V30 4151 C 394.895 -0.138248 3.44823 0
M  V30 4152 C 394.008 0.870649 4.23136 0
M  V30 4153 C 393.143 0.164269 5.30946 0
M  V30 4154 C 392.182 1.16159 6.00977 0
M  V30 4155 N 391.319 0.483568 7.00433 0
M  V30 4156 H 396.159 1.41541 2.62241 0
M  V30 4157 H 393.696 0.709013 1.28885 0
M  V30 4158 H 395.654 -0.5494 4.13567 0
M  V30 4159 H 394.284 -0.975721 3.077 0
M  V30 4160 H 393.336 1.40013 3.53696 0
M  V30 4161 H 394.648 1.63014 4.7141 0
M  V30 4162 H 393.802 -0.303653 6.0594 0
M  V30 4163 H 392.541 -0.627733 4.83643 0
M  V30 4164 H 391.546 1.64015 5.24766 0
M  V30 4165 H 392.771 1.95445 6.50368 0
M  V30 4166 H 390.717 -0.289012 6.55363 0
M  V30 4167 H 390.634 1.18152 7.4671 0
M  V30 4168 H 391.902 0.0384219 7.79491 0
M  V30 4169 N 396.131 -1.37776 0.765217 0
M  V30 4170 C 397.079 -2.32209 0.134798 0
M  V30 4171 C 398.073 -1.54607 -0.692315 0
M  V30 4172 O 399.279 -1.70052 -0.590109 0
M  V30 4173 H 395.654 -0.751591 0.0248005 0
M  V30 4174 H 397.625 -2.8297 0.947119 0
M  V30 4175 C 396.374 -3.39841 -0.735063 0
M  V30 4176 H 395.697 -3.99654 -0.107991 0
M  V30 4177 H 397.137 -4.08296 -1.14326 0
M  V30 4178 C 395.596 -2.79378 -1.88281 0
M  V30 4179 O 396.126 -2.69608 -2.97783 0
M  V30 4180 N 394.332 -2.37016 -1.68142 0
M  V30 4181 H 393.879 -2.45162 -0.790772 0
M  V30 4182 H 393.837 -1.96905 -2.45104 0
M  V30 4183 N 397.609 -0.515225 -1.4894 0
M  V30 4184 C 398.849 0.0223983 -2.04388 0
M  V30 4185 C 399.213 1.32961 -1.38511 0
M  V30 4186 O 400.414 1.95236 -1.8476 0
M  V30 4187 C 398.685 0.157056 -3.57055 0
M  V30 4188 S 400.244 0.646875 -4.34006 0
M  V30 4189 H 397.062 -0.00500662 -0.710982 0
M  V30 4190 H 399.664 -0.69243 -1.82827 0
M  V30 4191 H 398.368 -0.799412 -4.02539 0
M  V30 4192 H 397.899 0.896704 -3.83044 0
M  V30 4193 H 399.914 1.91381 -4.57808 0
M  V30 4194 N 399.087 1.5561 -0.249682 0
M  V30 4195 C 400.498 1.84979 0.252949 0
M  V30 4196 C 400.849 1.17153 1.57384 0
M  V30 4197 O 399.974 0.450884 2.11651 0
M  V30 4198 C 400.569 3.35584 0.465732 0
M  V30 4199 C 399.128 3.65169 0.912624 0
M  V30 4200 C 398.275 2.77299 -0.00859085 0
M  V30 4201 H 401.226 1.51513 -0.47217 0
M  V30 4202 H 401.247 3.57313 1.30795 0
M  V30 4203 H 400.759 3.8492 -0.49579 0
M  V30 4204 H 398.86 3.21312 1.88652 0
M  V30 4205 H 398.973 4.72912 0.767559 0
M  V30 4206 H 397.337 2.49678 0.50327 0
M  V30 4207 H 398.12 3.29442 -0.965537 0
M  V30 4208 N 400.565 -0.0233959 1.57583 0
M  V30 4209 C 401.79 -0.728376 1.94189 0
M  V30 4210 C 402.215 -1.67793 0.850119 0
M  V30 4211 O 401.573 -1.80262 -0.19371 0
M  V30 4212 C 401.621 -1.45669 3.29868 0
M  V30 4213 O 400.725 -2.57013 3.22518 0
M  V30 4214 H 400.066 -0.195493 0.63457 0
M  V30 4215 H 402.596 0.0228214 2.04587 0
M  V30 4216 H 402.606 -1.82535 3.6489 0
M  V30 4217 H 401.281 -0.760314 4.08891 0
M  V30 4218 H 399.858 -2.22648 2.99136 0
M  V30 4219 N 402.043 -1.548 -0.295768 0
M  V30 4220 C 402.973 -1.89115 -1.36959 0
M  V30 4221 C 403.954 -0.75059 -1.52644 0
M  V30 4222 O 405.139 -1.00678 -1.66065 0
M  V30 4223 C 402.269 -2.14307 -2.73295 0
M  V30 4224 C 401.223 -3.30151 -2.72368 0
M  V30 4225 C 400.549 -3.40772 -4.12042 0
M  V30 4226 C 401.849 -4.67126 -2.33646 0
M  V30 4227 H 403.543 -2.79053 -1.08488 0
M  V30 4228 H 401.089 -1.34266 -0.520443 0
M  V30 4229 H 403.042 -2.36898 -3.48507 0
M  V30 4230 H 401.766 -1.21145 -3.03301 0
M  V30 4231 H 400.425 -3.0749 -1.99613 0
M  V30 4232 H 400.073 -2.45117 -4.39234 0
M  V30 4233 H 399.773 -4.18645 -4.12322 0
M  V30 4234 H 401.297 -3.6563 -4.89027 0
M  V30 4235 H 402.711 -4.89414 -2.98575 0
M  V30 4236 H 401.108 -5.47751 -2.45129 0
M  V30 4237 H 402.178 -4.67489 -1.28772 0
M  V30 4238 N 403.521 0.559213 -1.47345 0
M  V30 4239 C 404.468 1.66645 -1.59682 0
M  V30 4240 C 405.438 1.60168 -0.43994 0
M  V30 4241 O 406.623 1.79031 -0.659736 0
M  V30 4242 C 403.763 3.04969 -1.61518 0
M  V30 4243 C 402.876 3.21897 -2.88108 0
M  V30 4244 C 402.011 4.50608 -2.81294 0
M  V30 4245 C 401.05 4.60961 -4.02717 0
M  V30 4246 N 400.187 5.81024 -3.94151 0
M  V30 4247 H 405.027 1.55439 -2.54249 0
M  V30 4248 H 402.564 0.757219 -1.26113 0
M  V30 4249 H 404.522 3.85064 -1.60566 0
M  V30 4250 H 403.152 3.15015 -0.704645 0
M  V30 4251 H 402.204 2.35248 -2.98936 0
M  V30 4252 H 403.516 3.25412 -3.78032 0
M  V30 4253 H 402.67 5.3896 -2.7858 0
M  V30 4254 H 401.409 4.49568 -1.89049 0
M  V30 4255 H 400.414 3.71021 -4.05738 0
M  V30 4256 H 401.639 4.63761 -4.96087 0
M  V30 4257 H 399.585 5.80938 -3.04708 0
M  V30 4258 H 399.502 5.85909 -4.77752 0
M  V30 4259 H 400.77 6.71744 -3.9545 0
M  V30 4260 N 404.999 1.35443 0.805782 0
M  V30 4261 C 406.276 1.19325 1.54987 0
M  V30 4262 C 406.656 -0.227294 2.09873 0
M  V30 4263 O 406.004 -1.2309 1.92512 0
M  V30 4264 C 406.214 2.26196 2.65775 0
M  V30 4265 C 407.562 2.62043 3.34094 0
M  V30 4266 O 408.586 2.25115 2.76046 0
M  V30 4267 O 407.445 3.25542 4.38958 0
M  V30 4268 H 404.539 0.463623 0.684823 0
M  V30 4269 H 407.085 1.47127 0.845674 0
M  V30 4270 H 405.857 3.21471 2.23096 0
M  V30 4271 H 405.48 1.99667 3.43829 0
M  V30 4272 N 406.477 -1.02803 1.19454 0
M  V30 4273 C 407.424 -2.11099 0.933046 0
M  V30 4274 C 408.394 -1.65571 -0.132447 0
M  V30 4275 O 409.579 -1.90797 0.00987576 0
M  V30 4276 C 406.719 -3.41763 0.478747 0
M  V30 4277 C 405.832 -4.00833 1.6111 0
M  V30 4278 C 404.967 -5.19511 1.10825 0
M  V30 4279 C 404.006 -5.70639 2.21445 0
M  V30 4280 N 403.143 -6.80589 1.72461 0
M  V30 4281 H 407.983 -2.32804 1.86028 0
M  V30 4282 H 405.52 -1.14179 0.927441 0
M  V30 4283 H 407.478 -4.16736 0.196745 0
M  V30 4284 H 406.108 -3.20166 -0.411493 0
M  V30 4285 H 405.16 -3.23066 2.00829 0
M  V30 4286 H 406.472 -4.34794 2.4445 0
M  V30 4287 H 405.626 -6.01645 0.781533 0
M  V30 4288 H 404.365 -4.87086 0.244606 0
M  V30 4289 H 403.37 -4.87116 2.54947 0
M  V30 4290 H 404.595 -6.05102 3.08267 0
M  V30 4291 H 402.541 -6.50016 0.884056 0
M  V30 4292 H 402.458 -7.13681 2.49389 0
M  V30 4293 H 403.726 -7.66317 1.42755 0
M  V30 4294 N 407.956 -0.998596 -1.21925 0
M  V30 4295 C 409.367 -0.711939 -1.72593 0
M  V30 4296 C 409.718 0.770842 -1.80423 0
M  V30 4297 O 408.843 1.60237 -1.4544 0
M  V30 4298 C 409.438 -1.28567 -3.13458 0
M  V30 4299 C 407.997 -1.04828 -3.61508 0
M  V30 4300 C 407.144 -1.4024 -2.39224 0
M  V30 4301 H 410.095 -1.17027 -1.07193 0
M  V30 4302 H 410.116 -0.667098 -3.74607 0
M  V30 4303 H 409.628 -2.36486 -3.07727 0
M  V30 4304 H 407.729 0.0140383 -3.72597 0
M  V30 4305 H 407.842 -1.71566 -4.47328 0
M  V30 4306 H 406.206 -0.821077 -2.41103 0
M  V30 4307 H 406.989 -2.49176 -2.36149 0
M  V30 4308 N 409.434 1.37368 -0.772513 0
M  V30 4309 C 410.381 2.30262 -0.157488 0
M  V30 4310 C 411.351 1.51137 0.688965 0
M  V30 4311 O 412.536 1.79704 0.641168 0
M  V30 4312 C 409.676 3.37611 0.715045 0
M  V30 4313 C 408.789 4.31746 -0.148098 0
M  V30 4314 C 407.924 5.26171 0.729213 0
M  V30 4315 C 406.963 6.11948 -0.136418 0
M  V30 4316 N 406.1 6.98613 0.698914 0
M  V30 4317 H 410.94 2.82277 -0.955179 0
M  V30 4318 H 408.477 1.38957 -0.482631 0
M  V30 4319 H 410.435 3.98479 1.23575 0
M  V30 4320 H 409.065 2.86959 1.47833 0
M  V30 4321 H 408.117 3.72178 -0.786613 0
M  V30 4322 H 409.429 4.92084 -0.81579 0
M  V30 4323 H 408.583 5.92247 1.31637 0
M  V30 4324 H 407.322 4.66246 1.43059 0
M  V30 4325 H 406.327 5.4485 -0.736102 0
M  V30 4326 H 407.552 6.73945 -0.835134 0
M  V30 4327 H 405.498 6.41215 1.38489 0
M  V30 4328 H 405.415 7.55948 0.0885358 0
M  V30 4329 H 406.683 7.69077 1.27044 0
M  V30 4330 N 410.912 0.523116 1.48665 0
M  V30 4331 C 412.158 -0.0134963 2.02796 0
M  V30 4332 C 412.491 -1.34582 1.40004 0
M  V30 4333 O 411.766 -1.86756 0.543381 0
M  V30 4334 C 412.049 -0.14276 3.59817 0
M  V30 4335 C 411.902 1.21425 4.331 0
M  V30 4336 C 413.221 -0.872856 4.31357 0
M  V30 4337 H 410.34 -0.00343074 0.736992 0
M  V30 4338 H 412.982 0.678816 1.7746 0
M  V30 4339 H 411.132 -0.732401 3.81534 0
M  V30 4340 H 412.804 1.84447 4.2282 0
M  V30 4341 H 411.047 1.79791 3.94788 0
M  V30 4342 H 411.718 1.07687 5.41394 0
M  V30 4343 H 414.194 -0.372555 4.14429 0
M  V30 4344 H 413.07 -0.932185 5.40927 0
M  V30 4345 H 413.331 -1.92161 3.98154 0
M  V30 4346 N 412.39 -1.55475 0.257931 0
M  V30 4347 C 413.639 -1.98383 -0.364275 0
M  V30 4348 C 413.952 -1.14952 -1.58258 0
M  V30 4349 O 415.158 -1.47924 -2.27664 0
M  V30 4350 C 413.614 -3.53037 -0.699479 0
M  V30 4351 C 413.222 -4.45223 0.498046 0
M  V30 4352 C 414.966 -4.04575 -1.28526 0
M  V30 4353 C 412.873 -5.91238 0.138383 0
M  V30 4354 H 411.803 -0.740911 -0.13988 0
M  V30 4355 H 414.454 -1.79936 0.359883 0
M  V30 4356 H 412.836 -3.6722 -1.48207 0
M  V30 4357 H 414.01 -4.42803 1.27522 0
M  V30 4358 H 412.325 -4.04226 0.999503 0
M  V30 4359 H 414.922 -5.11196 -1.56788 0
M  V30 4360 H 415.265 -3.5258 -2.21344 0
M  V30 4361 H 415.798 -3.93762 -0.565337 0
M  V30 4362 H 412.537 -6.47294 1.03398 0
M  V30 4363 H 412.057 -5.96768 -0.602374 0
M  V30 4364 H 413.736 -6.46413 -0.27553 0
M  V30 4365 N 413.868 0.0150385 -1.57593 0
M  V30 4366 C 415.117 0.702115 -1.89085 0
M  V30 4367 C 415.43 1.75764 -0.858277 0
M  V30 4368 O 416.636 2.49829 -1.0629 0
M  V30 4369 C 415.092 1.29992 -3.35604 0
M  V30 4370 C 414.7 0.280007 -4.47124 0
M  V30 4371 C 416.444 1.96606 -3.76227 0
M  V30 4372 C 414.351 0.886949 -5.84711 0
M  V30 4373 H 413.281 0.265997 -0.705522 0
M  V30 4374 H 415.932 -0.0430408 -1.8345 0
M  V30 4375 H 414.314 2.09525 -3.36029 0
M  V30 4376 H 415.488 -0.489631 -4.58191 0
M  V30 4377 H 413.803 -0.284835 -4.15425 0
M  V30 4378 H 416.4 2.42893 -4.76347 0
M  V30 4379 H 416.743 2.79024 -3.08952 0
M  V30 4380 H 417.276 1.23828 -3.78036 0
M  V30 4381 H 414.015 0.101876 -6.55421 0
M  V30 4382 H 413.535 1.6261 -5.77337 0
M  V30 4383 H 415.214 1.39011 -6.3189 0
M  V30 4384 N 415.346 1.54954 0.287554 0
M  V30 4385 C 416.595 1.74081 1.01877 0
M  V30 4386 C 416.908 0.541135 1.87966 0
M  V30 4387 O 418.114 0.614491 2.64455 0
M  V30 4388 C 416.57 3.08042 1.86113 0
M  V30 4389 C 416.178 4.35531 1.04961 0
M  V30 4390 C 417.922 3.36523 2.58752 0
M  V30 4391 C 415.829 5.60538 1.88551 0
M  V30 4392 H 414.759 0.64884 0.384087 0
M  V30 4393 H 417.41 1.81426 0.275101 0
M  V30 4394 H 415.792 2.94696 2.64519 0
M  V30 4395 H 416.966 4.59751 0.31074 0
M  V30 4396 H 415.281 4.14085 0.43843 0
M  V30 4397 H 417.878 4.27122 3.21668 0
M  V30 4398 H 418.221 2.56 3.28283 0
M  V30 4399 H 418.754 3.50901 1.87386 0
M  V30 4400 H 415.493 6.43767 1.23466 0
M  V30 4401 H 415.013 5.40483 2.60074 0
M  V30 4402 H 416.692 5.98297 2.46273 0
M  V30 4403 N 416.824 -0.551391 1.4764 0
M  V30 4404 C 417.756 -1.67333 1.56628 0
M  V30 4405 C 418.769 -1.56398 0.452045 0
M  V30 4406 O 419.958 -1.6325 0.721926 0
M  V30 4407 C 417.058 -3.05841 1.45994 0
M  V30 4408 C 416.231 -3.42472 2.72088 0
M  V30 4409 C 415.29 -4.60168 2.55209 0
M  V30 4410 O 414.316 -4.64458 3.2904 0
M  V30 4411 N 415.518 -5.57024 1.63416 0
M  V30 4412 H 418.283 -1.60066 2.53375 0
M  V30 4413 H 415.844 -0.738169 1.44093 0
M  V30 4414 H 417.836 -3.8242 1.32428 0
M  V30 4415 H 416.406 -3.07302 0.573071 0
M  V30 4416 H 415.626 -2.55284 3.00373 0
M  V30 4417 H 416.914 -3.63723 3.55785 0
M  V30 4418 H 416.312 -5.56319 1.02594 0
M  V30 4419 H 414.869 -6.32906 1.558 0
M  V30 4420 N 418.302 -1.35869 -0.798587 0
M  V30 4421 C 419.265 -1.29307 -1.89242 0
M  V30 4422 C 420.265 -0.202747 -1.59517 0
M  V30 4423 O 421.455 -0.456957 -1.681 0
M  V30 4424 C 418.587 -1.00229 -3.25833 0
M  V30 4425 H 419.78 -2.26576 -1.96478 0
M  V30 4426 H 417.333 -1.20509 -0.995358 0
M  V30 4427 H 418.068 -0.033801 -3.24282 0
M  V30 4428 H 417.853 -1.79121 -3.48795 0
M  V30 4429 H 419.343 -0.98219 -4.05885 0
M  V30 4430 N 419.78 1.02168 -1.19998 0
M  V30 4431 C 421.02 1.77232 -1.01825 0
M  V30 4432 C 421.384 1.86833 0.442428 0
M  V30 4433 O 422.585 2.58293 0.744189 0
M  V30 4434 C 420.856 3.15601 -1.67722 0
M  V30 4435 S 422.415 4.06765 -1.64584 0
M  V30 4436 H 419.233 0.610021 -0.365233 0
M  V30 4437 H 421.835 1.22368 -1.52467 0
M  V30 4438 H 420.539 3.06235 -2.73218 0
M  V30 4439 H 420.07 3.7554 -1.17189 0
M  V30 4440 H 422.085 4.91586 -0.67511 0
M  V30 4441 N 421.258 1.00505 1.21394 0
M  V30 4442 C 422.674 0.717873 1.42544 0
M  V30 4443 C 422.874 -0.706936 1.88692 0
M  V30 4444 O 421.93 -1.47627 2.04847 0
M  V30 4445 C 423.243 1.73377 2.45684 0
M  V30 4446 C 424.791 1.75059 2.59467 0
M  V30 4447 C 425.266 2.75545 3.6584 0
M  V30 4448 N 426.757 2.74213 3.73311 0
M  V30 4449 C 427.492 3.48626 4.55245 0
M  V30 4450 N 426.988 4.32678 5.41075 0
M  V30 4451 N 428.781 3.37276 4.49668 0
M  V30 4452 H 420.932 1.92506 0.897503 0
M  V30 4453 H 423.195 0.830919 0.456375 0
M  V30 4454 H 422.901 2.75395 2.18748 0
M  V30 4455 H 422.775 1.53647 3.44489 0
M  V30 4456 H 425.162 0.737337 2.8574 0
M  V30 4457 H 425.243 1.98861 1.60897 0
M  V30 4458 H 424.887 3.77028 3.40313 0
M  V30 4459 H 424.817 2.49009 4.64007 0
M  V30 4460 H 427.308 2.13234 3.11993 0
M  V30 4461 H 427.621 4.86253 6.00648 0
M  V30 4462 H 425.966 4.3676 5.40616 0
M  V30 4463 H 429.157 2.71043 3.81646 0
M  V30 4464 H 429.33 3.95524 5.13288 0
M  V30 4465 N 422.737 -1.36956 0.779787 0
M  V30 4466 C 423.985 -1.99097 0.347079 0
M  V30 4467 C 424.306 -1.62206 -1.08232 0
M  V30 4468 O 423.576 -0.891373 -1.74446 0
M  V30 4469 H 422.156 -0.736409 0.125342 0
M  V30 4470 H 424.818 -1.67308 0.999696 0
M  V30 4471 H 423.914 -3.09107 0.431162 0
M  V30 4472 N 424.215 -0.530993 -1.48385 0
M  V30 4473 C 425.492 0.0671788 -1.95485 0
M  V30 4474 C 425.872 1.51191 -1.47324 0
M  V30 4475 O 425.22 2.17507 -0.700202 0
M  V30 4476 C 425.43 -0.0511206 -3.48963 0
M  V30 4477 C 426.778 0.107632 -4.24464 0
M  V30 4478 O 427.802 0.0226248 -3.56193 0
M  V30 4479 O 426.661 0.285972 -5.45751 0
M  V30 4480 H 423.755 0.0787365 -0.823243 0
M  V30 4481 H 426.301 -0.595662 -1.58902 0
M  V30 4482 H 425.073 -1.05747 -3.7674 0
M  V30 4483 H 424.696 0.650525 -3.92242 0
M  V30 4484 N 425.693 1.55336 -0.266172 0
M  V30 4485 C 426.918 2.04258 0.359661 0
M  V30 4486 C 427.343 1.14359 1.49344 0
M  V30 4487 O 426.701 0.140369 1.80756 0
M  V30 4488 C 426.749 3.50997 0.826635 0
M  V30 4489 O 425.853 3.64204 1.93466 0
M  V30 4490 H 425.194 0.659668 0.075727 0
M  V30 4491 H 427.724 2.00694 -0.39786 0
M  V30 4492 H 427.734 3.9219 1.12477 0
M  V30 4493 H 426.409 4.159 -0.00293032 0
M  V30 4494 H 424.986 3.34913 1.63974 0
M  V30 4495 N 427.171 -0.0066808 1.57599 0
M  V30 4496 C 428.582 -0.550379 1.78403 0
M  V30 4497 C 428.933 -1.74339 0.900014 0
M  V30 4498 O 428.058 -2.16166 0.100713 0
M  V30 4499 C 428.653 -1.00523 3.23544 0
M  V30 4500 C 427.212 -1.49428 3.45468 0
M  V30 4501 C 426.359 -0.442444 2.73748 0
M  V30 4502 H 429.31 0.219508 1.57175 0
M  V30 4503 H 429.331 -1.87157 3.31289 0
M  V30 4504 H 428.843 -0.136735 3.87859 0
M  V30 4505 H 426.944 -2.3839 2.86358 0
M  V30 4506 H 427.057 -1.52635 4.54136 0
M  V30 4507 H 425.421 -0.902578 2.38171 0
M  V30 4508 H 426.204 0.416973 3.40758 0
M  V30 4509 N 428.649 -1.55105 -0.279332 0
M  V30 4510 C 429.897 -1.75066 -1.00977 0
M  V30 4511 C 430.218 -0.551276 -1.87045 0
M  V30 4512 O 429.488 0.433984 -1.91032 0
M  V30 4513 H 428.068 -0.645578 -0.375816 0
M  V30 4514 H 430.73 -1.92497 -0.305089 0
M  V30 4515 H 429.826 -2.64894 -1.65038 0
M  V30 4516 N 430.127 0.543554 -1.4793 0
M  V30 4517 C 431.373 1.30201 -1.55485 0
M  V30 4518 C 431.706 1.92925 -0.222201 0
M  V30 4519 O 430.981 1.78586 0.77053 0
M  V30 4520 C 431.264 2.40174 -2.68307 0
M  V30 4521 C 431.117 1.8223 -4.11233 0
M  V30 4522 C 432.436 3.42024 -2.76961 0
M  V30 4523 H 429.555 0.472036 -0.565996 0
M  V30 4524 H 432.197 0.606914 -1.80046 0
M  V30 4525 H 430.347 2.99463 -2.47495 0
M  V30 4526 H 432.019 1.27096 -4.43446 0
M  V30 4527 H 430.262 1.12832 -4.18869 0
M  V30 4528 H 430.933 2.61793 -4.85972 0
M  V30 4529 H 433.409 2.92672 -2.95774 0
M  V30 4530 H 432.285 4.16383 -3.57654 0
M  V30 4531 H 432.546 4.0173 -1.84568 0
M  V30 4532 N 431.605 1.3629 0.791371 0
M  V30 4533 C 432.851 1.30605 1.55146 0
M  V30 4534 C 433.184 -0.115042 1.93859 0
M  V30 4535 O 432.459 -1.06798 1.62556 0
M  V30 4536 C 432.742 2.22692 2.82985 0
M  V30 4537 C 432.595 3.73489 2.50651 0
M  V30 4538 C 433.914 2.13588 3.84796 0
M  V30 4539 H 431.033 0.475761 0.562868 0
M  V30 4540 H 433.675 1.66825 0.909358 0
M  V30 4541 H 431.825 1.91933 3.37778 0
M  V30 4542 H 433.497 4.14758 2.01924 0
M  V30 4543 H 431.74 3.93021 1.83622 0
M  V30 4544 H 432.411 4.3333 3.41949 0
M  V30 4545 H 434.887 2.40659 3.39445 0
M  V30 4546 H 433.763 2.80195 4.71998 0
M  V30 4547 H 434.024 1.12256 4.27611 0
M  V30 4548 N 433.083 -1.0153 1.20538 0
M  V30 4549 C 434.329 -1.75517 1.02787 0
M  V30 4550 C 434.684 -1.87411 -0.435289 0
M  V30 4551 O 433.977 -1.38982 -1.31889 0
M  V30 4552 C 434.171 -3.17213 1.64654 0
M  V30 4553 C 434 -3.19134 3.16834 0
M  V30 4554 C 432.77 -3.26301 3.85818 0
M  V30 4555 C 434.968 -3.05077 4.14044 0
M  V30 4556 N 432.95 -3.17739 5.25276 0
M  V30 4557 C 434.321 -3.04299 5.40187 0
M  V30 4558 C 436.376 -2.89303 4.05226 0
M  V30 4559 C 435.079 -2.89365 6.58529 0
M  V30 4560 C 437.105 -2.75723 5.23193 0
M  V30 4561 C 436.467 -2.75612 6.48242 0
M  V30 4562 H 432.566 -0.652919 0.430373 0
M  V30 4563 H 435.15 -1.20755 1.52729 0
M  V30 4564 H 433.321 -3.70266 1.17294 0
M  V30 4565 H 435.053 -3.79637 1.40208 0
M  V30 4566 H 431.808 -3.33078 3.36684 0
M  V30 4567 H 432.232 -3.16829 5.98288 0
M  V30 4568 H 436.874 -2.88201 3.09354 0
M  V30 4569 H 434.592 -2.89216 7.54573 0
M  V30 4570 H 438.178 -2.64533 5.18183 0
M  V30 4571 H 437.058 -2.65224 7.37988 0
M  V30 4572 N 434.561 -1.01147 -1.20859 0
M  V30 4573 C 435.808 -0.697865 -1.90095 0
M  V30 4574 C 436.136 0.772014 -1.78522 0
M  V30 4575 O 435.391 1.57595 -1.16027 0
M  V30 4576 C 435.69 -1.0727 -3.40922 0
M  V30 4577 C 435.356 -2.53792 -3.72693 0
M  V30 4578 C 434.018 -2.93829 -3.81075 0
M  V30 4579 C 436.37 -3.48674 -3.87397 0
M  V30 4580 C 433.698 -4.27696 -4.01613 0
M  V30 4581 C 436.05 -4.82223 -4.09444 0
M  V30 4582 C 434.714 -5.21973 -4.16054 0
M  V30 4583 H 433.984 -0.255367 -0.695607 0
M  V30 4584 H 436.631 -1.27111 -1.43231 0
M  V30 4585 H 434.936 -0.417799 -3.89566 0
M  V30 4586 H 436.633 -0.807818 -3.92779 0
M  V30 4587 H 433.223 -2.21768 -3.66765 0
M  V30 4588 H 437.407 -3.18904 -3.80281 0
M  V30 4589 H 432.663 -4.58055 -4.04964 0
M  V30 4590 H 436.837 -5.55672 -4.19763 0
M  V30 4591 H 434.464 -6.25717 -4.31721 0
M  V30 4592 N 436.039 1.36541 -0.78704 0
M  V30 4593 C 436.986 2.30082 -0.181901 0
M  V30 4594 C 437.956 1.5186 0.672896 0
M  V30 4595 O 439.141 1.80374 0.622072 0
M  V30 4596 C 436.281 3.3835 0.679197 0
M  V30 4597 C 435.394 4.31565 -0.193882 0
M  V30 4598 C 434.529 5.26915 0.673364 0
M  V30 4599 C 433.568 6.11769 -0.201315 0
M  V30 4600 N 432.705 6.99315 0.624777 0
M  V30 4601 H 437.545 2.81248 -0.985064 0
M  V30 4602 H 435.082 1.38437 -0.497342 0
M  V30 4603 H 437.04 3.99767 1.19341 0
M  V30 4604 H 435.67 2.8851 1.44781 0
M  V30 4605 H 434.722 3.71323 -0.826044 0
M  V30 4606 H 436.034 4.91191 -0.867937 0
M  V30 4607 H 435.188 5.9361 1.25348 0
M  V30 4608 H 433.927 4.67737 1.38105 0
M  V30 4609 H 432.932 5.44039 -0.793849 0
M  V30 4610 H 434.157 6.73022 -0.906568 0
M  V30 4611 H 432.103 6.42648 1.3168 0
M  V30 4612 H 432.02 7.56 0.00835237 0
M  V30 4613 H 433.288 7.70382 1.18879 0
M  V30 4614 N 437.518 0.538854 1.48102 0
M  V30 4615 C 438.795 -0.0568108 1.95517 0
M  V30 4616 C 439.175 -1.50408 1.48124 0
M  V30 4617 O 438.523 -2.17133 0.711727 0
M  V30 4618 C 438.733 0.0696262 3.48931 0
M  V30 4619 C 440.081 -0.0851202 4.24515 0
M  V30 4620 O 441.105 -0.0037347 3.562 0
M  V30 4621 O 439.964 -0.257025 5.45895 0
M  V30 4622 H 437.058 -0.0743695 0.823649 0
M  V30 4623 H 439.604 0.604081 1.58584 0
M  V30 4624 H 438.376 1.07744 3.76174 0
M  V30 4625 H 437.999 -0.629714 3.92582 0
M  V30 4626 N 438.996 -1.55193 0.274407 0
M  V30 4627 C 440.221 -2.04446 -0.348824 0
M  V30 4628 C 440.646 -1.15149 -1.48735 0
M  V30 4629 O 440.004 -0.149952 -1.80679 0
M  V30 4630 C 440.052 -3.51431 -0.808009 0
M  V30 4631 O 439.156 -3.65225 -1.91531 0
M  V30 4632 H 438.497 -0.66006 -0.0722276 0
M  V30 4633 H 441.027 -2.00481 0.408498 0
M  V30 4634 H 441.037 -3.92781 -1.10395 0
M  V30 4635 H 439.712 -4.15892 0.0249865 0
M  V30 4636 H 438.289 -3.35778 -1.62196 0
M  V30 4637 N 440.474 -0.00167713 -1.576 0
M  V30 4638 C 441.72 0.683832 -1.90923 0
M  V30 4639 C 442.053 1.7333 -0.875799 0
M  V30 4640 O 441.328 1.94215 0.10525 0
M  V30 4641 C 441.611 1.32543 -3.3482 0
M  V30 4642 C 441.464 0.287387 -4.48881 0
M  V30 4643 C 442.783 2.25114 -3.78169 0
M  V30 4644 H 439.902 0.247125 -0.694333 0
M  V30 4645 H 442.544 -0.0533149 -1.89925 0
M  V30 4646 H 440.694 1.95372 -3.35801 0
M  V30 4647 H 442.366 -0.341346 -4.60035 0
M  V30 4648 H 440.609 -0.39017 -4.32042 0
M  V30 4649 H 441.28 0.775393 -5.46527 0
M  V30 4650 H 443.756 1.723 -3.7875 0
M  V30 4651 H 442.632 2.66971 -4.79602 0
M  V30 4652 H 442.893 3.13092 -3.12131 0
M  V30 4653 N 441.952 1.55251 0.271103 0
M  V30 4654 C 443.2 1.75599 1.00047 0
M  V30 4655 C 443.521 0.561188 1.8675 0
M  V30 4656 O 442.791 -0.423846 1.9126 0
M  V30 4657 H 441.371 0.647562 0.372387 0
M  V30 4658 H 444.033 1.92656 0.294876 0
M  V30 4659 H 443.129 2.65766 1.6363 0
M  V30 4660 N 443.43 -0.535701 1.48216 0
M  V30 4661 C 444.676 -1.29375 1.56173 0
M  V30 4662 C 445.009 -1.92804 0.232429 0
M  V30 4663 O 444.284 -1.78992 -0.761048 0
M  V30 4664 C 444.567 -2.38747 2.69577 0
M  V30 4665 C 444.42 -1.80046 4.12193 0
M  V30 4666 C 445.739 -3.40551 2.78771 0
M  V30 4667 H 442.858 -0.469027 0.568491 0
M  V30 4668 H 445.5 -0.597358 1.80365 0
M  V30 4669 H 443.65 -2.98147 2.4908 0
M  V30 4670 H 445.322 -1.24742 4.44114 0
M  V30 4671 H 443.565 -1.10609 4.19462 0
M  V30 4672 H 444.236 -2.59212 4.87353 0
M  V30 4673 H 446.712 -2.91099 2.97322 0
M  V30 4674 H 445.588 -4.1448 3.59857 0
M  V30 4675 H 445.849 -4.00746 1.86696 0
M  V30 4676 N 444.908 -1.36708 -0.784132 0
M  V30 4677 C 446.133 -1.34565 -1.5782 0
M  V30 4678 C 446.558 0.0695257 -1.87971 0
M  V30 4679 O 445.916 1.04302 -1.48293 0
M  V30 4680 C 445.964 -2.17952 -2.87279 0
M  V30 4681 O 445.068 -1.57563 -3.81114 0
M  V30 4682 H 444.409 -0.460337 -0.478524 0
M  V30 4683 H 446.939 -1.80064 -0.971495 0
M  V30 4684 H 446.949 -2.30721 -3.365 0
M  V30 4685 H 445.624 -3.20823 -2.64661 0
M  V30 4686 H 444.201 -1.53764 -3.39722 0
M  V30 4687 N 446.386 1.0089 -1.21074 0
M  V30 4688 C 447.634 1.74262 -1.02358 0
M  V30 4689 C 447.955 1.89869 0.444393 0
M  V30 4690 O 447.225 1.44677 1.32081 0
M  V30 4691 H 445.805 0.645615 -0.375754 0
M  V30 4692 H 448.467 1.21596 -1.52317 0
M  V30 4693 H 447.563 2.74328 -1.4883 0
M  V30 4694 N 447.864 1.01787 1.20321 0
M  V30 4695 C 448.812 0.58254 2.25187 0
M  V30 4696 C 449.806 -0.379359 1.65098 0
M  V30 4697 O 451.012 -0.249142 1.78267 0
M  V30 4698 H 447.387 0.170078 0.732514 0
M  V30 4699 H 449.358 1.47788 2.59232 0
M  V30 4700 C 448.107 -0.0620885 3.47645 0
M  V30 4701 H 447.43 0.669069 3.94162 0
M  V30 4702 H 448.87 -0.329784 4.22716 0
M  V30 4703 C 447.329 -1.3053 3.10586 0
M  V30 4704 O 447.859 -2.39848 3.22236 0
M  V30 4705 N 446.065 -1.18988 2.65123 0
M  V30 4706 H 445.612 -0.300341 2.55843 0
M  V30 4707 H 445.57 -2.02267 2.40698 0
M  V30 4708 N 449.342 -1.36122 0.79427 0
M  V30 4709 C 450.272 -2.32551 0.210328 0
M  V30 4710 C 451.253 -1.56884 -0.657386 0
M  V30 4711 O 452.438 -1.85014 -0.590207 0
M  V30 4712 C 449.568 -3.41128 -0.651819 0
M  V30 4713 C 448.522 -4.27842 0.116395 0
M  V30 4714 C 447.848 -5.2763 -0.86666 0
M  V30 4715 C 449.148 -5.05647 1.30837 0
M  V30 4716 H 450.842 -2.81636 1.01594 0
M  V30 4717 H 448.388 -1.35407 0.489981 0
M  V30 4718 H 450.341 -4.07581 -1.07031 0
M  V30 4719 H 449.065 -2.90622 -1.49019 0
M  V30 4720 H 447.724 -3.62952 0.515915 0
M  V30 4721 H 447.372 -4.73395 -1.70019 0
M  V30 4722 H 447.072 -5.86514 -0.35705 0
M  V30 4723 H 448.596 -5.96955 -1.28361 0
M  V30 4724 H 450.01 -5.65113 0.965393 0
M  V30 4725 H 448.407 -5.73967 1.75161 0
M  V30 4726 H 449.477 -4.37006 2.10128 0
M  V30 4727 N 450.82 -0.546701 -1.47814 0
M  V30 4728 C 452.045 -0.021268 -2.07389 0
M  V30 4729 C 452.47 1.25822 -1.39822 0
M  V30 4730 O 451.828 1.75111 -0.46968 0
M  V30 4731 C 451.876 0.168502 -3.60206 0
M  V30 4732 O 450.98 1.23347 -3.93522 0
M  V30 4733 H 450.321 -0.0466108 -0.662362 0
M  V30 4734 H 452.851 -0.759387 -1.89985 0
M  V30 4735 H 452.861 0.385982 -4.0617 0
M  V30 4736 H 451.536 -0.766075 -4.08784 0
M  V30 4737 H 450.113 0.997319 -3.59316 0
M  V30 4738 N 452.299 1.55045 -0.282633 0
M  V30 4739 C 453.229 2.2579 0.595066 0
M  V30 4740 C 454.21 1.25074 1.15284 0
M  V30 4741 O 455.395 1.5381 1.18559 0
M  V30 4742 C 452.525 2.98472 1.77572 0
M  V30 4743 C 451.479 4.0618 1.34914 0
M  V30 4744 C 450.805 4.66477 2.6135 0
M  V30 4745 C 452.105 5.1996 0.493821 0
M  V30 4746 H 453.799 2.994 0.00505653 0
M  V30 4747 H 451.345 1.44 0.000992001 0
M  V30 4748 H 453.298 3.46677 2.39568 0
M  V30 4749 H 452.022 2.2241 2.39168 0
M  V30 4750 H 450.681 3.58797 0.752338 0
M  V30 4751 H 450.329 3.87074 3.2122 0
M  V30 4752 H 450.029 5.39207 2.33516 0
M  V30 4753 H 451.553 5.17435 3.24181 0
M  V30 4754 H 452.967 5.64172 1.01898 0
M  V30 4755 H 451.364 5.99299 0.310047 0
M  V30 4756 H 452.434 4.82462 -0.485593 0
M  V30 4757 N 453.777 0.010035 1.57597 0
M  V30 4758 C 455.188 -0.531426 1.78977 0
M  V30 4759 C 455.539 -1.73375 0.918454 0
M  V30 4760 O 454.664 -2.16047 0.123635 0
M  V30 4761 C 455.259 -0.97086 3.24592 0
M  V30 4762 C 453.818 -1.45756 3.47033 0
M  V30 4763 C 452.965 -0.413384 2.74201 0
M  V30 4764 H 455.916 0.236166 1.56933 0
M  V30 4765 H 455.937 -1.83633 3.33255 0
M  V30 4766 H 455.449 -0.0955893 3.87982 0
M  V30 4767 H 453.55 -2.35339 2.88871 0
M  V30 4768 H 453.663 -1.4781 4.55729 0
M  V30 4769 H 452.027 -0.877266 2.39115 0
M  V30 4770 H 452.81 0.453092 3.40297 0
M  V30 4771 N 455.255 -1.55392 -0.262866 0
M  V30 4772 C 456.483 -1.80513 -1.01108 0
M  V30 4773 C 456.898 -0.583533 -1.79556 0
M  V30 4774 O 456.255 0.447585 -1.76926 0
M  V30 4775 C 456.306 -3.03648 -1.96164 0
M  V30 4776 O 456.027 -4.2109 -1.20893 0
M  V30 4777 C 457.528 -3.41448 -2.82715 0
M  V30 4778 H 454.748 -0.601079 -0.298236 0
M  V30 4779 H 457.292 -2.02425 -0.290582 0
M  V30 4780 H 455.447 -2.83832 -2.63663 0
M  V30 4781 H 455.861 -4.90771 -1.85051 0
M  V30 4782 H 457.335 -4.30751 -3.45192 0
M  V30 4783 H 457.812 -2.61308 -3.53008 0
M  V30 4784 H 458.418 -3.63559 -2.20693 0
M  V30 4785 N 456.733 0.527833 -1.48498 0
M  V30 4786 C 457.961 1.30823 -1.6029 0
M  V30 4787 C 458.376 1.86945 -0.263974 0
M  V30 4788 O 457.733 1.6651 0.747034 0
M  V30 4789 C 457.784 2.45756 -2.65116 0
M  V30 4790 O 457.505 1.91946 -3.93813 0
M  V30 4791 C 459.006 3.37543 -2.87367 0
M  V30 4792 H 456.226 0.397763 -0.540394 0
M  V30 4793 H 458.77 0.636529 -1.94341 0
M  V30 4794 H 456.925 3.08806 -2.33917 0
M  V30 4795 H 457.339 2.67195 -4.51339 0
M  V30 4796 H 458.813 4.14532 -3.6451 0
M  V30 4797 H 459.29 3.92905 -1.9627 0
M  V30 4798 H 459.896 2.80283 -3.19878 0
M  V30 4799 N 458.211 1.37122 0.776871 0
M  V30 4800 C 459.121 1.34651 1.9211 0
M  V30 4801 C 460.137 0.246824 1.7224 0
M  V30 4802 O 461.313 0.48134 1.95563 0
M  V30 4803 C 458.378 1.14748 3.2716 0
M  V30 4804 C 457.439 2.34308 3.5972 0
M  V30 4805 C 456.672 2.15345 4.88326 0
M  V30 4806 O 456.895 1.13507 5.58992 0
M  V30 4807 O 455.829 3.03414 5.1983 0
M  V30 4808 H 459.655 2.31013 1.97146 0
M  V30 4809 H 457.24 1.17799 0.918901 0
M  V30 4810 H 459.122 1.05616 4.0795 0
M  V30 4811 H 457.797 0.214562 3.22988 0
M  V30 4812 H 456.704 2.49011 2.79185 0
M  V30 4813 H 458.037 3.26149 3.68629 0
M  V30 4814 N 459.689 -1.00246 1.21608 0
M  V30 4815 C 460.599 -2.12515 0.993709 0
M  V30 4816 C 461.615 -1.73913 -0.0549939 0
M  V30 4817 O 462.791 -2.00943 0.135619 0
M  V30 4818 C 459.856 -3.42083 0.563953 0
M  V30 4819 C 458.917 -3.94843 1.68516 0
M  V30 4820 C 458.15 -5.18226 1.27582 0
M  V30 4821 O 458.373 -5.70201 0.150506 0
M  V30 4822 O 457.307 -5.64497 2.0887 0
M  V30 4823 H 461.133 -2.34152 1.93407 0
M  V30 4824 H 458.718 -1.10891 1.00118 0
M  V30 4825 H 460.6 -4.20073 0.334194 0
M  V30 4826 H 459.275 -3.21828 -0.347665 0
M  V30 4827 H 458.182 -3.18068 1.96935 0
M  V30 4828 H 459.515 -4.19512 2.5743 0
M  V30 4829 N 461.167 -1.02423 -1.1978 0
M  V30 4830 C 462.414 -0.717988 -1.89344 0
M  V30 4831 C 462.742 0.753036 -1.79331 0
M  V30 4832 O 461.997 1.56355 -1.17692 0
M  V30 4833 C 462.296 -1.1088 -3.39765 0
M  V30 4834 C 461.962 -2.57731 -3.6998 0
M  V30 4835 C 460.624 -2.97854 -3.77937 0
M  V30 4836 C 462.976 -3.52763 -3.83677 0
M  V30 4837 C 460.304 -4.31931 -3.97054 0
M  V30 4838 C 462.656 -4.86538 -4.04306 0
M  V30 4839 C 461.32 -5.26356 -4.10494 0
M  V30 4840 H 460.59 -0.26273 -0.692859 0
M  V30 4841 H 463.237 -1.28623 -1.41875 0
M  V30 4842 H 461.542 -0.459094 -3.89101 0
M  V30 4843 H 463.239 -0.849432 -3.919 0
M  V30 4844 H 459.829 -2.25646 -3.64393 0
M  V30 4845 H 464.013 -3.2292 -3.76877 0
M  V30 4846 H 459.269 -4.62324 -4.00083 0
M  V30 4847 H 463.443 -5.60093 -4.13846 0
M  V30 4848 H 461.07 -6.3026 -4.2506 0
M  V30 4849 N 462.645 1.35699 -0.801477 0
M  V30 4850 C 463.555 2.33661 -0.209691 0
M  V30 4851 C 464.571 1.6162 0.644591 0
M  V30 4852 O 465.747 1.93529 0.557545 0
M  V30 4853 C 462.812 3.40816 0.636033 0
M  V30 4854 C 461.873 4.28639 -0.238147 0
M  V30 4855 C 461.106 5.30676 0.567307 0
M  V30 4856 O 461.329 5.41174 1.8024 0
M  V30 4857 O 460.263 6.01887 -0.0391336 0
M  V30 4858 H 464.089 2.8606 -1.01996 0
M  V30 4859 H 461.674 1.38379 -0.563164 0
M  V30 4860 H 463.556 4.06301 1.11791 0
M  V30 4861 H 462.231 2.90696 1.42399 0
M  V30 4862 H 461.138 3.66152 -0.767044 0
M  V30 4863 H 462.471 4.82143 -0.989915 0
M  V30 4864 N 464.123 0.554532 1.47522 0
M  V30 4865 C 465.4 -0.0360704 1.95567 0
M  V30 4866 C 465.78 -1.48828 1.49711 0
M  V30 4867 O 465.128 -2.16366 0.734717 0
M  V30 4868 C 465.338 0.106631 3.48837 0
M  V30 4869 C 466.686 -0.0400899 4.24581 0
M  V30 4870 O 467.71 0.0340453 3.56184 0
M  V30 4871 O 466.569 -0.199111 5.46137 0
M  V30 4872 H 463.663 -0.0656294 0.824392 0
M  V30 4873 H 466.209 0.620867 1.57935 0
M  V30 4874 H 464.981 1.11727 3.7501 0
M  V30 4875 H 464.604 -0.58804 3.93227 0
M  V30 4876 N 465.601 -1.54893 0.290851 0
M  V30 4877 C 466.878 -1.91991 -0.373989 0
M  V30 4878 C 467.258 -1.21694 -1.72493 0
M  V30 4879 O 466.606 -0.34917 -2.25816 0
M  V30 4880 C 466.816 -3.45419 -0.498703 0
M  V30 4881 C 468.164 -4.1748 -0.774298 0
M  V30 4882 O 469.188 -3.51398 -0.582908 0
M  V30 4883 O 468.047 -5.3445 -1.14129 0
M  V30 4884 H 465.141 -0.800593 -0.207315 0
M  V30 4885 H 467.687 -1.66297 0.338164 0
M  V30 4886 H 466.459 -3.88688 0.451392 0
M  V30 4887 H 466.082 -3.77117 -1.25972 0
M  V30 4888 N 467.08 -0.0183926 -1.57589 0
M  V30 4889 C 468.043 0.951986 -2.08494 0
M  V30 4890 C 469.043 1.26092 -0.997874 0
M  V30 4891 O 470.233 1.20304 -1.25987 0
M  V30 4892 C 467.365 2.27165 -2.54182 0
M  V30 4893 H 468.558 0.511307 -2.95509 0
M  V30 4894 H 466.111 0.229444 -1.54607 0
M  V30 4895 H 466.846 2.75884 -1.70465 0
M  V30 4896 H 466.631 2.06057 -3.33591 0
M  V30 4897 H 468.121 2.9674 -2.93828 0
M  V30 4898 N 468.558 1.5553 0.254621 0
M  V30 4899 C 469.807 1.76202 0.981612 0
M  V30 4900 C 470.12 0.580883 1.86776 0
M  V30 4901 O 471.326 0.670448 2.63092 0
M  V30 4902 C 469.782 3.11921 1.79537 0
M  V30 4903 C 469.39 4.37659 0.956991 0
M  V30 4904 C 471.134 3.41936 2.51555 0
M  V30 4905 C 469.041 5.64411 1.76619 0
M  V30 4906 H 467.971 0.656841 0.370237 0
M  V30 4907 H 470.622 1.81969 0.236556 0
M  V30 4908 H 469.004 3.00241 2.58208 0
M  V30 4909 H 470.178 4.60307 0.21315 0
M  V30 4910 H 468.493 4.14922 0.350497 0
M  V30 4911 H 471.09 4.33849 3.12536 0
M  V30 4912 H 471.433 2.62905 3.22779 0
M  V30 4913 H 471.966 3.54797 1.799 0
M  V30 4914 H 468.705 6.46241 1.09783 0
M  V30 4915 H 468.225 5.45877 2.48551 0
M  V30 4916 H 469.904 6.03386 2.33527 0
M  V30 4917 N 470.036 -0.519951 1.48776 0
M  V30 4918 C 470.983 -1.62352 1.64044 0
M  V30 4919 C 471.953 -1.58945 0.482251 0
M  V30 4920 O 473.138 -1.77219 0.706971 0
M  V30 4921 C 470.278 -3.00579 1.69547 0
M  V30 4922 C 469.391 -3.14145 2.96541 0
M  V30 4923 C 468.526 -4.42991 2.93142 0
M  V30 4924 C 467.565 -4.50122 4.14797 0
M  V30 4925 N 466.702 -5.7037 4.09418 0
M  V30 4926 H 471.542 -1.48643 2.58281 0
M  V30 4927 H 469.079 -0.723516 1.28077 0
M  V30 4928 H 471.037 -3.80671 1.70719 0
M  V30 4929 H 469.667 -3.13036 0.787918 0
M  V30 4930 H 468.719 -2.27239 3.05068 0
M  V30 4931 H 470.031 -3.15275 3.86527 0
M  V30 4932 H 469.185 -5.31385 2.92772 0
M  V30 4933 H 467.924 -4.44398 2.00902 0
M  V30 4934 H 466.929 -3.60133 4.15433 0
M  V30 4935 H 468.154 -4.50445 5.08208 0
M  V30 4936 H 466.1 -5.72655 3.20004 0
M  V30 4937 H 466.017 -5.73036 4.93119 0
M  V30 4938 H 467.285 -6.61023 4.13121 0
M  V30 4939 N 471.514 -1.37532 -0.769588 0
M  V30 4940 C 472.461 -1.3347 -1.88293 0
M  V30 4941 C 473.431 -0.199891 -1.64893 0
M  V30 4942 O 474.616 -0.389594 -1.8678 0
M  V30 4943 C 471.756 -1.14968 -3.25387 0
M  V30 4944 C 470.869 -2.37698 -3.60727 0
M  V30 4945 C 470.004 -2.12051 -4.8704 0
M  V30 4946 C 469.043 -3.30636 -5.15117 0
M  V30 4947 N 468.18 -3.04527 -6.3262 0
M  V30 4948 H 473.02 -2.28658 -1.911 0
M  V30 4949 H 470.557 -1.13622 -0.934257 0
M  V30 4950 H 472.515 -1.02261 -4.04473 0
M  V30 4951 H 471.145 -0.234263 -3.21949 0
M  V30 4952 H 470.197 -2.61137 -2.76608 0
M  V30 4953 H 471.509 -3.26131 -3.77413 0
M  V30 4954 H 470.663 -1.96388 -5.74035 0
M  V30 4955 H 469.402 -1.20959 -4.72462 0
M  V30 4956 H 468.407 -3.46836 -4.26597 0
M  V30 4957 H 469.632 -4.22582 -5.31603 0
M  V30 4958 H 467.578 -2.16067 -6.19396 0
M  V30 4959 H 467.495 -3.86503 -6.49732 0
M  V30 4960 H 468.763 -2.92485 -7.22546 0
M  V30 4961 N 472.992 0.995999 -1.22138 0
M  V30 4962 C 473.955 2.06711 -0.990109 0
M  V30 4963 C 474.955 1.60744 0.0422978 0
M  V30 4964 O 476.145 1.73095 -0.195895 0
M  V30 4965 C 473.277 3.37288 -0.49491 0
M  V30 4966 H 474.47 2.28661 -1.94047 0
M  V30 4967 H 472.023 1.16711 -1.03963 0
M  V30 4968 H 472.758 3.21022 0.459948 0
M  V30 4969 H 472.543 3.71986 -1.23971 0
M  V30 4970 H 474.033 4.16103 -0.353253 0
M  V30 4971 N 474.47 1.03057 1.19235 0
M  V30 4972 C 475.42 0.583386 2.2041 0
M  V30 4973 C 476.404 -0.368776 1.56617 0
M  V30 4974 O 477.596 -0.189471 1.75983 0
M  V30 4975 C 474.725 -0.0626534 3.43243 0
M  V30 4976 C 473.811 0.91205 4.14177 0
M  V30 4977 N 474.202 2.07514 4.61272 0
M  V30 4978 C 472.5 0.735859 4.39888 0
M  V30 4979 C 473.201 2.69003 5.15764 0
M  V30 4980 N 472.177 1.96954 5.06666 0
M  V30 4981 H 475.979 1.46988 2.54503 0
M  V30 4982 H 473.493 0.897785 1.35328 0
M  V30 4983 H 475.49 -0.400653 4.1497 0
M  V30 4984 H 474.15 -0.944813 3.1065 0
M  V30 4985 H 475.161 2.45448 4.56043 0
M  V30 4986 H 471.838 -0.0970656 4.17387 0
M  V30 4987 H 473.228 3.67514 5.6248 0
M  V30 4988 N 475.948 -1.35272 0.808662 0
M  V30 4989 C 477.197 -1.97963 0.386483 0
M  V30 4990 C 477.51 -1.64866 -1.05255 0
M  V30 4991 O 478.716 -2.20937 -1.57794 0
M  V30 4992 C 477.172 -3.54162 0.640096 0
M  V30 4993 C 476.78 -3.96166 2.0918 0
M  V30 4994 C 478.524 -4.23553 0.283376 0
M  V30 4995 C 476.431 -5.4522 2.29106 0
M  V30 4996 H 475.361 -0.740742 0.140774 0
M  V30 4997 H 478.012 -1.5431 0.993012 0
M  V30 4998 H 476.394 -3.95983 -0.0364117 0
M  V30 4999 H 477.568 -3.65491 2.80629 0
M  V30 5000 H 475.883 -3.3967 2.40859 0
M  V30 5001 H 478.48 -5.33124 0.410273 0
M  V30 5002 H 478.823 -4.09105 -0.770659 0
M  V30 5003 H 479.356 -3.8716 0.913884 0
M  V30 5004 H 476.095 -5.64638 3.32962 0
M  V30 5005 H 475.615 -5.77457 1.62184 0
M  V30 5006 H 477.294 -6.1171 2.1076 0
M  V30 5007 N 477.426 -0.562348 -1.47226 0
M  V30 5008 C 478.336 0.185466 -2.33866 0
M  V30 5009 C 479.352 0.906713 -1.48508 0
M  V30 5010 O 480.528 0.874458 -1.81425 0
M  V30 5011 C 477.593 1.19904 -3.25306 0
M  V30 5012 C 476.654 0.484669 -4.26555 0
M  V30 5013 C 475.887 1.44996 -5.13626 0
M  V30 5014 O 476.11 2.68515 -5.03245 0
M  V30 5015 O 475.044 0.971642 -5.94006 0
M  V30 5016 H 478.87 -0.525361 -2.99121 0
M  V30 5017 H 476.455 -0.322916 -1.45868 0
M  V30 5018 H 478.337 1.78399 -3.81774 0
M  V30 5019 H 477.012 1.8917 -2.62672 0
M  V30 5020 H 475.919 -0.141605 -3.73832 0
M  V30 5021 H 477.252 -0.166634 -4.91918 0
M  V30 5022 N 478.904 1.54736 -0.299062 0
M  V30 5023 C 479.851 2.23448 0.577899 0
M  V30 5024 C 480.821 1.21637 1.13109 0
M  V30 5025 O 482.006 1.50252 1.17597 0
M  V30 5026 C 479.146 2.9774 1.74484 0
M  V30 5027 C 478.259 4.1432 1.22323 0
M  V30 5028 C 477.394 4.76199 2.35388 0
M  V30 5029 C 476.433 5.84927 1.80351 0
M  V30 5030 N 475.57 6.4077 2.86982 0
M  V30 5031 H 480.41 2.97996 -0.0146545 0
M  V30 5032 H 477.947 1.47088 -0.0190013 0
M  V30 5033 H 479.905 3.39045 2.43114 0
M  V30 5034 H 478.535 2.25572 2.30905 0
M  V30 5035 H 477.587 3.7797 0.429249 0
M  V30 5036 H 478.899 4.92659 0.780309 0
M  V30 5037 H 478.053 5.20346 3.11969 0
M  V30 5038 H 476.792 3.97188 2.83006 0
M  V30 5039 H 475.797 5.40207 1.02259 0
M  V30 5040 H 477.022 6.65821 1.3364 0
M  V30 5041 H 474.968 5.64643 3.33938 0
M  V30 5042 H 474.885 7.1445 2.4718 0
M  V30 5043 H 476.153 6.89574 3.63466 0
M  V30 5044 N 480.382 0.0267497 1.57577 0
M  V30 5045 C 481.659 -0.690926 1.82991 0
M  V30 5046 C 482.039 -1.90471 0.910164 0
M  V30 5047 O 481.387 -2.28474 -0.0347985 0
M  V30 5048 C 481.597 -1.07139 3.32148 0
M  V30 5049 C 482.945 -1.46402 3.98562 0
M  V30 5050 O 483.969 -1.16443 3.36629 0
M  V30 5051 O 482.828 -2.02214 5.07712 0
M  V30 5052 H 479.922 -0.338747 0.75444 0
M  V30 5053 H 482.468 0.0542506 1.69613 0
M  V30 5054 H 481.24 -0.207394 3.9075 0
M  V30 5055 H 480.863 -1.87481 3.50623 0
M  V30 5056 N 481.861 -1.55662 -0.24637 0
M  V30 5057 C 483.108 -1.77519 -0.974335 0
M  V30 5058 C 483.436 -0.591165 -1.85298 0
M  V30 5059 O 482.691 0.425497 -1.91018 0
M  V30 5060 C 482.99 -3.04885 -1.86494 0
M  V30 5061 C 482.656 -4.36209 -1.14161 0
M  V30 5062 C 481.318 -4.71896 -0.941701 0
M  V30 5063 C 483.67 -5.17391 -0.628957 0
M  V30 5064 C 480.998 -5.86299 -0.216852 0
M  V30 5065 C 483.35 -6.32546 0.0824273 0
M  V30 5066 C 482.014 -6.66853 0.293807 0
M  V30 5067 H 481.284 -0.649588 -0.356535 0
M  V30 5068 H 483.931 -1.89934 -0.244394 0
M  V30 5069 H 482.236 -2.87484 -2.66196 0
M  V30 5070 H 483.933 -3.18994 -2.42989 0
M  V30 5071 H 480.523 -4.08174 -1.30736 0
M  V30 5072 H 484.707 -4.90276 -0.770943 0
M  V30 5073 H 479.963 -6.11385 -0.0426124 0
M  V30 5074 H 484.137 -6.94693 0.487292 0
M  V30 5075 H 481.764 -7.55349 0.857428 0
M  V30 5076 N 483.339 0.512053 -1.4905 0
M  V30 5077 C 484.588 1.26343 -1.57227 0
M  V30 5078 C 484.901 1.93876 -0.259155 0
M  V30 5079 O 486.107 2.70612 -0.219358 0
M  V30 5080 C 484.563 2.29343 -2.77362 0
M  V30 5081 C 484.171 1.67799 -4.15388 0
M  V30 5082 C 485.915 3.05378 -2.94864 0
M  V30 5083 C 483.822 2.68845 -5.2676 0
M  V30 5084 H 482.752 0.475231 -0.585382 0
M  V30 5085 H 485.403 0.53862 -1.75417 0
M  V30 5086 H 483.785 3.04938 -2.52643 0
M  V30 5087 H 484.959 0.982715 -4.50199 0
M  V30 5088 H 483.274 1.04194 -4.03153 0
M  V30 5089 H 485.871 3.80921 -3.75238 0
M  V30 5090 H 486.214 3.62327 -2.05 0
M  V30 5091 H 486.747 2.36898 -3.19569 0
M  V30 5092 H 483.486 2.16692 -6.18647 0
M  V30 5093 H 483.006 3.36647 -4.96416 0
M  V30 5094 H 484.685 3.31487 -5.5563 0
M  V30 5095 N 484.817 1.37938 0.762283 0
M  V30 5096 C 485.78 1.34279 1.85747 0
M  V30 5097 C 486.78 0.244969 1.58923 0
M  V30 5098 O 487.97 0.501365 1.66829 0
M  V30 5099 C 485.102 1.08833 3.23061 0
M  V30 5100 H 486.295 2.31705 1.90401 0
M  V30 5101 H 483.848 1.23105 0.963057 0
M  V30 5102 H 484.583 0.119767 3.24079 0
M  V30 5103 H 484.368 1.88306 3.43923 0
M  V30 5104 H 485.858 1.08946 4.03138 0
M  V30 5105 N 486.295 -0.989507 1.22664 0
M  V30 5106 C 487.542 -1.72953 1.05325 0
M  V30 5107 C 487.87 -1.90104 -0.411168 0
M  V30 5108 O 487.125 -1.44386 -1.32103 0
M  V30 5109 C 487.424 -3.13649 1.71345 0
M  V30 5110 C 487.09 -3.16403 3.21248 0
M  V30 5111 C 485.752 -3.16862 3.62149 0
M  V30 5112 C 488.104 -3.12428 4.17179 0
M  V30 5113 C 485.432 -3.11051 4.97458 0
M  V30 5114 C 487.784 -3.08159 5.52468 0
M  V30 5115 C 486.448 -3.06935 5.92746 0
M  V30 5116 H 485.718 -0.632881 0.385412 0
M  V30 5117 H 488.365 -1.15863 1.52473 0
M  V30 5118 H 486.67 -3.74069 1.16532 0
M  V30 5119 H 488.367 -3.69658 1.55416 0
M  V30 5120 H 484.957 -3.16798 2.88682 0
M  V30 5121 H 489.141 -3.11221 3.86595 0
M  V30 5122 H 484.397 -3.0845 5.27891 0
M  V30 5123 H 488.571 -3.04039 6.26525 0
M  V30 5124 H 486.198 -3.02186 6.97558 0
M  V30 5125 N 487.773 -1.03688 -1.18687 0
M  V30 5126 C 489.013 -0.746858 -1.90267 0
M  V30 5127 C 489.377 0.712075 -1.78307 0
M  V30 5128 O 490.578 1.11553 -2.44559 0
M  V30 5129 C 488.849 -1.19543 -3.36815 0
M  V30 5130 S 490.408 -1.03047 -4.26529 0
M  V30 5131 H 487.226 -0.271663 -0.657054 0
M  V30 5132 H 489.828 -1.32838 -1.43437 0
M  V30 5133 H 488.532 -2.2527 -3.43047 0
M  V30 5134 H 488.063 -0.607533 -3.88681 0
M  V30 5135 H 490.078 0.0543232 -4.9617 0
M  V30 5136 N 489.251 1.34841 -0.815825 0
M  V30 5137 C 490.476 2.03261 -0.41226 0
M  V30 5138 C 490.901 1.61055 0.971751 0
M  V30 5139 O 490.259 0.7917 1.63101 0
M  V30 5140 C 490.307 3.56914 -0.514289 0
M  V30 5141 O 489.411 4.09728 0.468675 0
M  V30 5142 H 488.752 0.641664 -0.170771 0
M  V30 5143 H 491.282 1.72241 -1.10427 0
M  V30 5144 H 491.292 4.06156 -0.387457 0
M  V30 5145 H 489.967 3.86982 -1.52375 0
M  V30 5146 H 488.544 3.71681 0.301316 0
M  V30 5147 N 490.729 0.570148 1.46925 0
M  V30 5148 C 491.954 0.0542592 2.07329 0
M  V30 5149 C 492.379 -1.23582 1.41806 0
M  V30 5150 O 491.737 -1.74341 0.497479 0
M  V30 5151 C 491.785 -0.111175 3.60429 0
M  V30 5152 O 490.889 -1.17071 3.95434 0
M  V30 5153 H 490.23 0.0571425 0.661537 0
M  V30 5154 H 492.76 0.789516 1.88753 0
M  V30 5155 H 492.77 -0.321315 4.06733 0
M  V30 5156 H 491.445 0.831012 4.07513 0
M  V30 5157 H 490.022 -0.940029 3.60857 0
M  V30 5158 N 492.207 -1.54576 0.307264 0
M  V30 5159 C 493.435 -2.04675 -0.302597 0
M  V30 5160 C 493.85 -1.18425 -1.47041 0
M  V30 5161 O 493.207 -0.211257 -1.81273 0
M  V30 5162 C 493.258 -3.53575 -0.752801 0
M  V30 5163 O 492.979 -4.36547 0.368536 0
M  V30 5164 C 494.48 -4.19699 -1.42717 0
M  V30 5165 H 491.7 -0.66786 -0.0648374 0
M  V30 5166 H 494.244 -1.99516 0.448716 0
M  V30 5167 H 492.399 -3.59074 -1.45412 0
M  V30 5168 H 492.813 -5.24497 0.0168937 0
M  V30 5169 H 494.287 -5.25388 -1.69327 0
M  V30 5170 H 494.764 -3.69815 -2.36925 0
M  V30 5171 H 495.37 -4.18293 -0.768856 0
M  V30 5172 N 493.685 -0.035106 -1.57561 0
M  V30 5173 C 495.096 0.502885 -1.798 0
M  V30 5174 C 495.447 1.71892 -0.945921 0
M  V30 5175 O 494.572 2.15822 -0.157991 0
M  V30 5176 C 495.167 0.919097 -3.26095 0
M  V30 5177 C 493.726 1.40216 -3.49308 0
M  V30 5178 C 492.873 0.369709 -2.74824 0
M  V30 5179 H 495.824 -0.261102 -1.56537 0
M  V30 5180 H 495.845 1.78308 -3.36135 0
M  V30 5181 H 495.357 0.0338526 -3.88085 0
M  V30 5182 H 493.458 2.30714 -2.92578 0
M  V30 5183 H 493.571 1.40541 -4.58023 0
M  V30 5184 H 491.935 0.839113 -2.40481 0
M  V30 5185 H 492.718 -0.507173 -3.39533 0
M  V30 5186 N 495.163 1.55791 0.238111 0
M  V30 5187 C 496.44 1.68798 0.98826 0
M  V30 5188 C 496.82 0.577562 2.03045 0
M  V30 5189 O 496.168 -0.41778 2.24648 0
M  V30 5190 C 496.378 3.09454 1.61367 0
M  V30 5191 C 497.726 3.68335 2.11221 0
M  V30 5192 O 498.75 3.1231 1.71292 0
M  V30 5193 O 497.609 4.6657 2.84561 0
M  V30 5194 H 494.703 0.686881 0.460568 0
M  V30 5195 H 497.249 1.68118 0.231202 0
M  V30 5196 H 496.021 3.81726 0.860295 0
M  V30 5197 H 495.644 3.14182 2.4367 0
M  V30 5198 N 496.642 -0.504142 1.49319 0
M  V30 5199 C 497.59 -1.62689 1.66238 0
M  V30 5200 C 498.584 -1.6095 0.528349 0
M  V30 5201 O 499.79 -1.65496 0.707887 0
M  V30 5202 H 496.165 -0.539247 0.524134 0
M  V30 5203 H 498.136 -1.45571 2.60484 0
M  V30 5204 C 496.885 -3.00841 1.74328 0
M  V30 5205 H 496.208 -3.02884 2.60963 0
M  V30 5206 H 497.648 -3.78945 1.90202 0
M  V30 5207 C 496.107 -3.33355 0.487416 0
M  V30 5208 O 496.637 -3.99819 -0.388294 0
M  V30 5209 N 494.843 -2.88469 0.351306 0
M  V30 5210 H 494.39 -2.34557 1.06492 0
M  V30 5211 H 494.348 -3.10591 -0.487899 0
M  V30 5212 N 498.12 -1.38341 -0.754957 0
M  V30 5213 C 499.366 -1.34672 -1.51628 0
M  V30 5214 C 499.699 0.0636036 -1.94096 0
M  V30 5215 O 498.974 1.0245 -1.6533 0
M  V30 5216 C 499.257 -2.30116 -2.76981 0
M  V30 5217 C 499.11 -3.80003 -2.4066 0
M  V30 5218 C 500.429 -2.23715 -3.78998 0
M  V30 5219 H 497.548 -0.490517 -0.550056 0
M  V30 5220 H 500.19 -1.69178 -0.864807 0
M  V30 5221 H 498.34 -2.00821 -3.3257 0
M  V30 5222 H 500.012 -4.19966 -1.90856 0
M  V30 5223 H 498.255 -3.97751 -1.73137 0
M  V30 5224 H 498.926 -4.42244 -3.30339 0
M  V30 5225 H 501.402 -2.49574 -3.32945 0
M  V30 5226 H 500.278 -2.9261 -4.64403 0
M  V30 5227 H 500.539 -1.23554 -4.24484 0
M  V30 5228 N 499.598 0.982988 -1.23187 0
M  V30 5229 C 500.823 1.76455 -1.08988 0
M  V30 5230 C 501.248 1.84726 0.354691 0
M  V30 5231 O 500.606 1.30699 1.25649 0
M  V30 5232 C 500.654 3.17094 -1.71708 0
M  V30 5233 O 499.758 4.00648 -0.977477 0
M  V30 5234 H 499.099 0.542988 -0.382177 0
M  V30 5235 H 501.629 1.23413 -1.63188 0
M  V30 5236 H 501.639 3.67684 -1.76841 0
M  V30 5237 H 500.314 3.10389 -2.76823 0
M  V30 5238 H 498.891 3.59161 -1.0029 0
M  V30 5239 N 501.076 1.04316 1.18135 0
M  V30 5240 C 502.322 0.758899 1.88712 0
M  V30 5241 C 502.677 -0.705863 1.78984 0
M  V30 5242 O 501.97 -1.50874 1.18101 0
M  V30 5243 C 502.164 1.16271 3.37958 0
M  V30 5244 C 501.993 2.66518 3.62213 0
M  V30 5245 C 500.763 3.33702 3.79436 0
M  V30 5246 C 502.961 3.64739 3.62588 0
M  V30 5247 N 500.943 4.72904 3.91452 0
M  V30 5248 C 502.314 4.89627 3.80348 0
M  V30 5249 C 504.369 3.58333 3.4569 0
M  V30 5250 C 503.072 6.08879 3.8296 0
M  V30 5251 C 505.098 4.77016 3.49586 0
M  V30 5252 C 504.46 6.00724 3.67845 0
M  V30 5253 H 500.559 0.329795 0.709055 0
M  V30 5254 H 503.143 1.33334 1.4188 0
M  V30 5255 H 501.314 0.616319 3.83479 0
M  V30 5256 H 503.046 0.829205 3.96114 0
M  V30 5257 H 499.801 2.84105 3.78921 0
M  V30 5258 H 500.225 5.45258 4.01277 0
M  V30 5259 H 504.867 2.63663 3.30517 0
M  V30 5260 H 502.585 7.03903 3.96921 0
M  V30 5261 H 506.171 4.73703 3.37782 0
M  V30 5262 H 505.051 6.91022 3.70753 0
M  V30 5263 N 502.554 -1.34406 0.822964 0
M  V30 5264 C 503.97 -1.51275 0.508727 0
M  V30 5265 C 504.17 -1.76776 -0.967083 0
M  V30 5266 O 503.226 -1.81871 -1.75155 0
M  V30 5267 C 504.539 -2.67765 1.36829 0
M  V30 5268 C 506.087 -2.81647 1.36542 0
M  V30 5269 C 506.562 -4.01181 2.20947 0
M  V30 5270 N 508.053 -4.08388 2.18571 0
M  V30 5271 C 508.788 -5.00036 2.80627 0
M  V30 5272 N 508.284 -5.96906 3.51674 0
M  V30 5273 N 510.077 -4.92908 2.70181 0
M  V30 5274 H 502.228 -1.16113 1.77852 0
M  V30 5275 H 504.491 -0.56947 0.757897 0
M  V30 5276 H 504.197 -2.55551 2.41633 0
M  V30 5277 H 504.071 -3.62779 1.03303 0
M  V30 5278 H 506.458 -2.93303 0.325163 0
M  V30 5279 H 506.539 -1.87443 1.74066 0
M  V30 5280 H 506.183 -3.90286 3.25022 0
M  V30 5281 H 506.113 -4.94599 1.80774 0
M  V30 5282 H 508.604 -3.39051 1.66891 0
M  V30 5283 H 508.917 -6.63468 3.96271 0
M  V30 5284 H 507.262 -5.9703 3.5578 0
M  V30 5285 H 510.453 -4.1619 2.14251 0
M  V30 5286 H 510.626 -5.64137 3.18831 0
M  V30 5287 N 504.032 -0.577932 -1.46621 0
M  V30 5288 C 504.982 0.178869 -2.27297 0
M  V30 5289 C 505.966 0.866279 -1.35589 0
M  V30 5290 O 507.158 0.761163 -1.59798 0
M  V30 5291 C 504.287 1.19499 -3.2183 0
M  V30 5292 C 503.373 0.50994 -4.21023 0
M  V30 5293 N 503.764 -0.43177 -5.03954 0
M  V30 5294 C 502.062 0.761287 -4.39455 0
M  V30 5295 C 502.763 -0.831693 -5.75724 0
M  V30 5296 N 501.739 -0.181897 -5.43296 0
M  V30 5297 H 505.541 -0.544859 -2.88805 0
M  V30 5298 H 503.055 -0.399373 -1.57413 0
M  V30 5299 H 505.052 1.75131 -3.78332 0
M  V30 5300 H 503.712 1.91959 -2.61881 0
M  V30 5301 H 504.723 -0.807045 -5.11573 0
M  V30 5302 H 501.4 1.47282 -3.90659 0
M  V30 5303 H 502.79 -1.6067 -6.52407 0
M  V30 5304 N 505.51 1.54411 -0.315457 0
M  V30 5305 C 506.921 1.85885 0.174265 0
M  V30 5306 C 507.272 1.23723 1.52273 0
M  V30 5307 O 506.397 0.540246 2.09548 0
M  V30 5308 C 506.992 3.37257 0.322981 0
M  V30 5309 C 505.551 3.68711 0.756922 0
M  V30 5310 C 504.698 2.77013 -0.126195 0
M  V30 5311 H 507.649 1.49374 -0.536007 0
M  V30 5312 H 507.67 3.62539 1.15522 0
M  V30 5313 H 507.182 3.82471 -0.658602 0
M  V30 5314 H 505.283 3.29024 1.74854 0
M  V30 5315 H 505.396 4.75741 0.566291 0
M  V30 5316 H 503.76 2.51588 0.39692 0
M  V30 5317 H 504.543 3.25051 -1.1044 0
M  V30 5318 N 506.988 0.0434614 1.5754 0
M  V30 5319 C 508.216 -0.641835 1.96693 0
M  V30 5320 C 508.631 -1.64832 0.920652 0
M  V30 5321 O 507.988 -1.82247 -0.095993 0
M  V30 5322 C 508.039 -1.33557 3.35924 0
M  V30 5323 O 507.76 -0.369403 4.3654 0
M  V30 5324 C 509.261 -2.11135 3.89791 0
M  V30 5325 H 506.481 -0.176013 0.647503 0
M  V30 5326 H 509.025 0.107478 2.04217 0
M  V30 5327 H 507.18 -2.03617 3.29574 0
M  V30 5328 H 507.594 -0.863674 5.1734 0
M  V30 5329 H 509.068 -2.55107 4.89514 0
M  V30 5330 H 509.545 -2.95634 3.24803 0
M  V30 5331 H 510.151 -1.46002 3.99454 0
M  V30 5332 N 508.466 -1.55915 -0.229846 0
M  V30 5333 C 509.399 -1.86734 -1.3117 0
M  V30 5334 C 510.377 -0.723947 -1.45595 0
M  V30 5335 O 511.561 -0.971462 -1.61539 0
M  V30 5336 C 508.688 -2.06707 -2.68309 0
M  V30 5337 C 507.734 -3.2938 -2.70944 0
M  V30 5338 S 508.567 -4.85547 -2.25842 0
M  V30 5339 C 509.723 -5.08546 -3.64873 0
M  V30 5340 H 509.956 -2.78204 -1.04832 0
M  V30 5341 H 507.489 -1.48243 -0.431681 0
M  V30 5342 H 509.447 -2.18898 -3.47267 0
M  V30 5343 H 508.108 -1.16049 -2.91876 0
M  V30 5344 H 507.301 -3.40374 -3.71701 0
M  V30 5345 H 506.903 -3.16004 -2.00044 0
M  V30 5346 H 509.195 -4.96935 -4.60502 0
M  V30 5347 H 510.138 -6.10465 -3.58801 0
M  V30 5348 H 510.546 -4.36314 -3.58176 0
M  V30 5349 N 509.944 0.496216 -1.49584 0
M  V30 5350 C 511.192 1.24756 -1.58998 0
M  V30 5351 C 511.513 1.92968 -0.280775 0
M  V30 5352 O 510.783 1.82959 0.700198 0
M  V30 5353 H 509.363 0.463471 -0.585836 0
M  V30 5354 H 512.025 0.574678 -1.86235 0
M  V30 5355 H 511.121 2.00895 -2.38847 0
M  V30 5356 N 511.423 1.38739 0.74761 0
M  V30 5357 C 512.648 1.38702 1.54197 0
M  V30 5358 C 513.073 -0.019664 1.8809 0
M  V30 5359 O 512.431 -1.00333 1.51006 0
M  V30 5360 C 512.479 2.25492 2.814 0
M  V30 5361 O 511.583 1.67613 3.76802 0
M  V30 5362 H 510.924 0.472863 0.466151 0
M  V30 5363 H 513.454 1.82577 0.923413 0
M  V30 5364 H 513.464 2.39561 3.30264 0
M  V30 5365 H 512.139 3.27727 2.56062 0
M  V30 5366 H 510.716 1.62718 3.35526 0
M  V30 5367 N 512.901 -0.976442 1.23707 0
M  V30 5368 C 514.147 -1.72081 1.07312 0
M  V30 5369 C 514.48 -1.90275 -0.388476 0
M  V30 5370 O 513.755 -1.4579 -1.28746 0
M  V30 5371 C 514.038 -3.11675 1.80363 0
M  V30 5372 C 513.891 -3.01027 3.3422 0
M  V30 5373 C 515.21 -4.1117 1.5693 0
M  V30 5374 H 512.329 -0.624583 0.391236 0
M  V30 5375 H 514.971 -1.13649 1.52263 0
M  V30 5376 H 513.121 -3.61559 1.42153 0
M  V30 5377 H 514.793 -2.58637 3.81975 0
M  V30 5378 H 513.036 -2.3744 3.63049 0
M  V30 5379 H 513.707 -3.9988 3.80525 0
M  V30 5380 H 516.183 -3.7011 1.90151 0
M  V30 5381 H 515.059 -5.06928 2.10513 0
M  V30 5382 H 515.32 -4.392 0.505548 0
M  V30 5383 N 514.379 -1.04941 -1.1758 0
M  V30 5384 C 515.626 -0.757989 -1.87779 0
M  V30 5385 C 515.954 0.714827 -1.80888 0
M  V30 5386 O 515.209 1.53824 -1.20982 0
M  V30 5387 C 515.508 -1.18062 -3.37337 0
M  V30 5388 C 515.174 -2.65521 -3.6443 0
M  V30 5389 C 513.836 -3.05804 -3.71534 0
M  V30 5390 C 516.188 -3.60822 -3.76108 0
M  V30 5391 C 513.516 -4.40256 -3.87803 0
M  V30 5392 C 515.868 -4.95005 -3.93895 0
M  V30 5393 C 514.532 -5.34945 -3.99237 0
M  V30 5394 H 513.802 -0.277368 -0.68713 0
M  V30 5395 H 516.449 -1.31603 -1.39115 0
M  V30 5396 H 514.754 -0.541525 -3.8804 0
M  V30 5397 H 516.451 -0.932368 -3.9001 0
M  V30 5398 H 513.041 -2.33324 -3.59524 0
M  V30 5399 H 517.225 -3.30841 -3.69943 0
M  V30 5400 H 512.481 -4.70707 -3.90186 0
M  V30 5401 H 516.655 -5.68746 -4.01872 0
M  V30 5402 H 514.282 -6.39135 -4.11596 0
M  V30 5403 N 515.857 1.33968 -0.830081 0
M  V30 5404 C 517.106 1.97323 -0.417928 0
M  V30 5405 C 517.419 1.6652 1.02618 0
M  V30 5406 O 518.625 2.2342 1.54259 0
M  V30 5407 C 517.081 3.53099 -0.696359 0
M  V30 5408 C 516.689 3.92788 -2.15457 0
M  V30 5409 C 518.433 4.23049 -0.350724 0
M  V30 5410 C 516.34 5.41506 -2.37751 0
M  V30 5411 H 515.27 0.738409 -0.152541 0
M  V30 5412 H 517.921 1.52711 -1.01744 0
M  V30 5413 H 516.303 3.95991 -0.0265904 0
M  V30 5414 H 517.477 3.6098 -2.86408 0
M  V30 5415 H 515.792 3.35795 -2.46232 0
M  V30 5416 H 518.389 5.32403 -0.495036 0
M  V30 5417 H 518.732 4.10279 0.705476 0
M  V30 5418 H 519.265 3.85657 -0.975362 0
M  V30 5419 H 516.004 5.5927 -3.41903 0
M  V30 5420 H 515.524 5.74804 -1.7135 0
M  V30 5421 H 517.203 6.0828 -2.20465 0
M  V30 5422 N 517.335 0.585699 1.46312 0
M  V30 5423 C 518.583 0.072278 2.01971 0
M  V30 5424 C 518.904 -1.29345 1.45928 0
M  V30 5425 O 518.174 -1.84973 0.645109 0
M  V30 5426 H 516.754 0.023729 0.746623 0
M  V30 5427 H 519.416 0.762155 1.7938 0
M  V30 5428 H 518.512 0.00552767 3.121 0
M  V30 5429 N 518.813 -1.54241 0.323641 0
M  V30 5430 C 520.229 -1.59574 -0.0290018 0
M  V30 5431 C 520.429 -1.34017 -1.50472 0
M  V30 5432 O 519.485 -1.12464 -2.26071 0
M  V30 5433 C 520.798 -2.98169 0.389295 0
M  V30 5434 C 522.346 -3.11148 0.339958 0
M  V30 5435 C 522.821 -4.5209 0.733418 0
M  V30 5436 N 524.312 -4.5808 0.686827 0
M  V30 5437 C 525.047 -5.65248 0.963464 0
M  V30 5438 N 524.543 -6.80355 1.30724 0
M  V30 5439 N 526.336 -5.55025 0.88902 0
M  V30 5440 H 518.487 -1.6911 1.28512 0
M  V30 5441 H 520.75 -0.790972 0.522558 0
M  V30 5442 H 520.456 -3.21871 1.41746 0
M  V30 5443 H 520.33 -3.76399 -0.245657 0
M  V30 5444 H 522.717 -2.87182 -0.679002 0
M  V30 5445 H 522.798 -2.35023 1.00985 0
M  V30 5446 H 522.442 -4.76788 1.75029 0
M  V30 5447 H 522.372 -5.26584 0.0412189 0
M  V30 5448 H 524.863 -3.75411 0.43298 0
M  V30 5449 H 525.176 -7.58029 1.5037 0
M  V30 5450 H 523.521 -6.81851 1.3455 0
M  V30 5451 H 526.712 -4.63977 0.619939 0
M  V30 5452 H 526.885 -6.38458 1.10797 0
M  V30 5453 N 520.291 -0.0518155 -1.57515 0
M  V30 5454 C 521.221 0.920283 -2.146 0
M  V30 5455 C 522.202 1.32406 -1.06783 0
M  V30 5456 O 523.387 1.39866 -1.34726 0
M  V30 5457 C 520.517 2.1949 -2.6915 0
M  V30 5458 C 519.471 1.93116 -3.81956 0
M  V30 5459 C 518.797 3.27037 -4.23026 0
M  V30 5460 C 520.097 1.25225 -5.07066 0
M  V30 5461 H 521.791 0.444801 -2.96077 0
M  V30 5462 H 519.337 0.212508 -1.42423 0
M  V30 5463 H 521.29 2.87894 -3.07725 0
M  V30 5464 H 520.014 2.69244 -1.84865 0
M  V30 5465 H 518.673 1.27123 -3.43854 0
M  V30 5466 H 518.321 3.74595 -3.3569 0
M  V30 5467 H 518.021 3.10189 -4.99056 0
M  V30 5468 H 519.545 3.96673 -4.64202 0
M  V30 5469 H 520.959 1.83666 -5.43083 0
M  V30 5470 H 519.356 1.18702 -5.88243 0
M  V30 5471 H 520.426 0.228382 -4.84362 0
M  V30 5472 N 521.769 1.56035 0.221574 0
M  V30 5473 C 523.018 1.78245 0.944016 0
M  V30 5474 C 523.331 0.620371 1.85501 0
M  V30 5475 O 524.537 0.726103 2.6161 0
M  V30 5476 C 522.993 3.15659 1.7288 0
M  V30 5477 C 522.601 4.39591 0.863942 0
M  V30 5478 C 524.345 3.47195 2.44246 0
M  V30 5479 C 522.252 5.6803 1.64607 0
M  V30 5480 H 521.182 0.664547 0.356222 0
M  V30 5481 H 523.833 1.8243 0.197904 0
M  V30 5482 H 522.215 3.0565 2.51781 0
M  V30 5483 H 523.389 4.60655 0.115464 0
M  V30 5484 H 521.704 4.15572 0.262407 0
M  V30 5485 H 524.301 4.40381 3.03263 0
M  V30 5486 H 524.644 2.69693 3.1713 0
M  V30 5487 H 525.177 3.58533 1.72334 0
M  V30 5488 H 521.916 6.48425 0.960507 0
M  V30 5489 H 521.436 5.51027 2.36917 0
M  V30 5490 H 523.115 6.08203 2.20675 0
M  V30 5491 N 523.247 -0.488276 1.49845 0
M  V30 5492 C 524.157 -1.61451 1.70207 0
M  V30 5493 C 525.173 -1.63877 0.584846 0
M  V30 5494 O 526.349 -1.82063 0.861107 0
M  V30 5495 C 523.414 -2.9776 1.77594 0
M  V30 5496 C 522.475 -3.05861 3.01243 0
M  V30 5497 C 521.708 -4.35668 3.08268 0
M  V30 5498 O 521.931 -5.25197 2.22541 0
M  V30 5499 O 520.865 -4.49005 4.00847 0
M  V30 5500 H 524.691 -1.47199 2.65643 0
M  V30 5501 H 522.276 -0.665939 1.33737 0
M  V30 5502 H 524.158 -3.7875 1.84732 0
M  V30 5503 H 522.833 -3.12248 0.8534 0
M  V30 5504 H 521.74 -2.24012 2.99616 0
M  V30 5505 H 523.073 -2.96304 3.9302 0
M  V30 5506 N 524.725 -1.39134 -0.740242 0
M  V30 5507 C 525.675 -1.33928 -1.84519 0
M  V30 5508 C 526.659 -0.221097 -1.59374 0
M  V30 5509 O 527.851 -0.458195 -1.70967 0
M  V30 5510 C 524.98 -1.17991 -3.22387 0
M  V30 5511 C 524.066 -2.34488 -3.53378 0
M  V30 5512 N 524.457 -3.59954 -3.5534 0
M  V30 5513 C 522.755 -2.27331 -3.83714 0
M  V30 5514 C 523.456 -4.36962 -3.83978 0
M  V30 5515 N 522.432 -3.66482 -4.01487 0
M  V30 5516 H 526.234 -2.28907 -1.84333 0
M  V30 5517 H 523.748 -1.32555 -0.938237 0
M  V30 5518 H 525.745 -1.12345 -4.01478 0
M  V30 5519 H 524.405 -0.23957 -3.23815 0
M  V30 5520 H 525.416 -3.93448 -3.36778 0
M  V30 5521 H 522.093 -1.41531 -3.92779 0
M  V30 5522 H 523.483 -5.45692 -3.92008 0
M  V30 5523 N 526.204 0.969867 -1.24223 0
M  V30 5524 C 527.137 2.06279 -0.975926 0
M  V30 5525 C 528.115 1.62353 0.0895385 0
M  V30 5526 O 529.299 1.88442 -0.0469418 0
M  V30 5527 C 526.426 3.35391 -0.472315 0
M  V30 5528 C 525.472 3.98266 -1.526 0
M  V30 5529 S 526.305 4.36172 -3.10667 0
M  V30 5530 C 527.461 5.68423 -2.62003 0
M  V30 5531 H 527.694 2.28551 -1.90137 0
M  V30 5532 H 525.227 1.10748 -1.07584 0
M  V30 5533 H 527.185 4.10068 -0.188376 0
M  V30 5534 H 525.846 3.1111 0.432378 0
M  V30 5535 H 525.039 4.91307 -1.12399 0
M  V30 5536 H 524.641 3.30009 -1.75983 0
M  V30 5537 H 526.933 6.45842 -2.0468 0
M  V30 5538 H 527.876 6.13478 -3.53625 0
M  V30 5539 H 528.284 5.26928 -2.02502 0
M  V30 5540 N 527.682 1.05563 1.17022 0
M  V30 5541 C 528.614 0.617888 2.20714 0
M  V30 5542 C 529.627 -0.320303 1.59618 0
M  V30 5543 O 530.816 -0.112449 1.78145 0
M  V30 5544 C 527.916 -0.115333 3.38704 0
M  V30 5545 C 527.089 0.834493 4.29366 0
M  V30 5546 C 526.148 0.141855 5.26009 0
M  V30 5547 O 525.174 0.777151 5.6387 0
M  V30 5548 N 526.376 -1.11934 5.69606 0
M  V30 5549 H 529.141 1.50981 2.58892 0
M  V30 5550 H 526.702 0.938008 1.31958 0
M  V30 5551 H 528.694 -0.588918 4.00392 0
M  V30 5552 H 527.264 -0.908967 2.99093 0
M  V30 5553 H 526.484 1.48762 3.65053 0
M  V30 5554 H 527.772 1.4791 4.86827 0
M  V30 5555 H 527.17 -1.65574 5.40927 0
M  V30 5556 H 525.727 -1.53692 6.33421 0
M  V30 5557 N 529.16 -1.33526 0.837174 0
M  V30 5558 C 530.07 -2.33023 0.271568 0
M  V30 5559 C 531.086 -1.63272 -0.601514 0
M  V30 5560 O 532.262 -1.94939 -0.506038 0
M  V30 5561 C 529.327 -3.42382 -0.545448 0
M  V30 5562 C 528.388 -4.27857 0.351709 0
M  V30 5563 C 527.621 -5.31994 -0.426409 0
M  V30 5564 O 527.844 -5.45763 -1.65828 0
M  V30 5565 O 526.778 -6.01572 0.1987 0
M  V30 5566 H 530.604 -2.83256 1.09545 0
M  V30 5567 H 528.189 -1.36837 0.599655 0
M  V30 5568 H 530.071 -4.09122 -1.00979 0
M  V30 5569 H 528.746 -2.94369 -1.34641 0
M  V30 5570 H 527.653 -3.6399 0.863853 0
M  V30 5571 H 528.986 -4.79349 1.1174 0
M  V30 5572 N 530.638 -0.59345 -1.46 0
M  V30 5573 C 531.868 -0.0889642 -2.06408 0
M  V30 5574 C 532.276 1.22597 -1.44106 0
M  V30 5575 O 531.619 1.75448 -0.544398 0
M  V30 5576 C 531.681 0.139902 -3.59228 0
M  V30 5577 C 531.345 -1.09107 -4.43784 0
M  V30 5578 C 532.342 -2.00577 -4.79651 0
M  V30 5579 C 530.027 -1.31593 -4.84756 0
M  V30 5580 C 532.021 -3.12873 -5.55328 0
M  V30 5581 C 529.708 -2.44192 -5.60191 0
M  V30 5582 C 530.706 -3.34661 -5.95392 0
M  V30 5583 O 530.394 -4.45302 -6.69299 0
M  V30 5584 H 530.126 -0.0594613 -0.67338 0
M  V30 5585 H 532.68 -0.817 -1.88452 0
M  V30 5586 H 530.91 0.922672 -3.75531 0
M  V30 5587 H 532.599 0.594228 -4.01527 0
M  V30 5588 H 533.365 -1.84425 -4.48567 0
M  V30 5589 H 529.244 -0.620801 -4.56801 0
M  V30 5590 H 532.788 -3.83511 -5.82722 0
M  V30 5591 H 528.685 -2.60303 -5.90688 0
M  V30 5592 H 529.453 -4.43805 -6.87735 0
M  V30 5593 N 532.116 1.54067 -0.331816 0
M  V30 5594 C 533.079 2.23275 0.517768 0
M  V30 5595 C 534.079 1.22897 1.03697 0
M  V30 5596 O 535.269 1.47419 0.928084 0
M  V30 5597 C 532.401 2.94326 1.72004 0
M  V30 5598 H 533.594 2.99773 -0.0873507 0
M  V30 5599 H 531.147 1.56079 -0.0830042 0
M  V30 5600 H 531.882 2.21986 2.36417 0
M  V30 5601 H 531.667 3.67941 1.35507 0
M  V30 5602 H 533.157 3.47031 2.32291 0
M  V30 5603 N 533.594 0.0601682 1.57485 0
M  V30 5604 C 534.834 -0.615384 1.94916 0
M  V30 5605 C 535.198 -1.67475 0.938948 0
M  V30 5606 O 536.399 -2.40502 1.20051 0
M  V30 5607 C 534.67 -1.18788 3.37082 0
M  V30 5608 S 536.229 -1.88018 3.96478 0
M  V30 5609 H 533.047 -0.201821 0.681754 0
M  V30 5610 H 535.649 0.131252 1.95059 0
M  V30 5611 H 534.353 -0.404869 4.08398 0
M  V30 5612 H 533.884 -1.97114 3.40455 0
M  V30 5613 H 535.899 -3.16161 3.82435 0
M  V30 5614 N 535.072 -1.5615 -0.213296 0
M  V30 5615 C 536.297 -1.83986 -0.957282 0
M  V30 5616 C 536.722 -0.641526 -1.76822 0
M  V30 5617 O 536.08 0.409722 -1.7661 0
M  V30 5618 C 536.128 -3.09889 -1.84393 0
M  V30 5619 O 535.232 -2.89163 -2.94038 0
M  V30 5620 H 534.573 -0.606357 -0.270605 0
M  V30 5621 H 537.103 -2.03369 -0.224111 0
M  V30 5622 H 537.113 -3.40209 -2.25215 0
M  V30 5623 H 535.788 -3.96735 -1.24795 0
M  V30 5624 H 534.365 -2.70097 -2.57103 0
M  V30 5625 N 536.55 0.480323 -1.50102 0
M  V30 5626 C 537.79 1.24301 -1.62261 0
M  V30 5627 C 538.154 1.89452 -0.311758 0
M  V30 5628 O 539.355 2.67022 -0.308696 0
M  V30 5629 C 537.626 2.26588 -2.76392 0
M  V30 5630 S 539.185 3.11919 -3.08629 0
M  V30 5631 H 536.003 0.42215 -0.57211 0
M  V30 5632 H 538.605 0.541591 -1.87848 0
M  V30 5633 H 537.309 1.7729 -3.70131 0
M  V30 5634 H 536.84 3.01371 -2.52862 0
M  V30 5635 H 538.855 4.27598 -2.51742 0
M  V30 5636 N 538.028 1.39524 0.732853 0
M  V30 5637 C 539.305 1.27373 1.48444 0
M  V30 5638 C 539.685 -0.115725 2.10783 0
M  V30 5639 O 539.033 -1.12713 1.98766 0
M  V30 5640 C 539.243 2.39966 2.53412 0
M  V30 5641 C 540.591 2.79384 3.19733 0
M  V30 5642 O 541.615 2.39431 2.63725 0
M  V30 5643 O 540.474 3.48353 4.21085 0
M  V30 5644 H 537.568 0.499272 0.659285 0
M  V30 5645 H 540.114 1.51403 0.766496 0
M  V30 5646 H 538.886 3.32845 2.05742 0
M  V30 5647 H 538.509 2.17612 3.32762 0
M  V30 5648 N 539.506 -0.963266 1.24736 0
M  V30 5649 C 540.752 -1.70933 1.09131 0
M  V30 5650 C 541.085 -1.90676 -0.368273 0
M  V30 5651 O 540.36 -1.47147 -1.27193 0
M  V30 5652 C 540.643 -3.09744 1.83658 0
M  V30 5653 C 540.496 -2.97465 3.37394 0
M  V30 5654 C 541.815 -4.09483 1.61282 0
M  V30 5655 H 538.934 -0.620398 0.397838 0
M  V30 5656 H 541.576 -1.12028 1.53459 0
M  V30 5657 H 539.726 -3.60031 1.4598 0
M  V30 5658 H 541.398 -2.54571 3.84696 0
M  V30 5659 H 539.641 -2.33576 3.65547 0
M  V30 5660 H 540.312 -3.95822 3.84745 0
M  V30 5661 H 542.788 -3.68073 1.94066 0
M  V30 5662 H 541.664 -5.04666 2.15878 0
M  V30 5663 H 541.925 -4.38639 0.552102 0
M  V30 5664 N 540.985 -1.06182 -1.16461 0
M  V30 5665 C 541.895 -0.682671 -2.24448 0
M  V30 5666 C 542.911 0.30078 -1.71381 0
M  V30 5667 O 544.087 0.150376 -2.00838 0
M  V30 5668 C 541.152 -0.0737202 -3.46622 0
M  V30 5669 C 540.213 -1.10889 -4.14731 0
M  V30 5670 C 539.446 -0.528908 -5.31073 0
M  V30 5671 O 539.669 0.65868 -5.66584 0
M  V30 5672 O 538.603 -1.26805 -5.88391 0
M  V30 5673 H 542.429 -1.58291 -2.59187 0
M  V30 5674 H 540.014 -0.834013 -1.23954 0
M  V30 5675 H 541.896 0.264192 -4.20571 0
M  V30 5676 H 540.571 0.800015 -3.13658 0
M  V30 5677 H 539.478 -1.49896 -3.42756 0
M  V30 5678 H 540.811 -1.95412 -4.51747 0
M  V30 5679 N 542.463 1.3308 -0.844243 0
M  V30 5680 C 543.373 2.32876 -0.283922 0
M  V30 5681 C 544.389 1.63589 0.592846 0
M  V30 5682 O 545.565 1.95205 0.495693 0
M  V30 5683 C 542.63 3.42667 0.527283 0
M  V30 5684 C 541.691 4.27664 -0.374394 0
M  V30 5685 C 540.924 5.32212 0.39819 0
M  V30 5686 O 541.147 5.46635 1.62932 0
M  V30 5687 O 540.081 6.01458 -0.2306 0
M  V30 5688 H 543.907 2.82671 -1.11045 0
M  V30 5689 H 541.492 1.36518 -0.606903 0
M  V30 5690 H 543.374 4.09652 0.988078 0
M  V30 5691 H 542.049 2.95079 1.33078 0
M  V30 5692 H 540.956 3.63526 -0.883144 0
M  V30 5693 H 542.289 4.78749 -1.1428 0
M  V30 5694 N 543.941 0.601185 1.45683 0
M  V30 5695 C 545.19 0.0914953 2.01492 0
M  V30 5696 C 545.503 -1.28331 1.47616 0
M  V30 5697 O 546.709 -1.88537 1.95362 0
M  V30 5698 C 545.165 0.11291 3.59723 0
M  V30 5699 C 544.773 1.48717 4.22596 0
M  V30 5700 C 546.517 -0.341871 4.23121 0
M  V30 5701 C 544.424 1.46531 5.7296 0
M  V30 5702 H 543.354 0.0304365 0.753385 0
M  V30 5703 H 546.005 0.755568 1.67223 0
M  V30 5704 H 544.387 -0.617692 3.91153 0
M  V30 5705 H 545.561 2.23897 4.02749 0
M  V30 5706 H 543.876 1.88351 3.71366 0
M  V30 5707 H 546.473 -0.377304 5.33367 0
M  V30 5708 H 546.816 -1.36325 3.93346 0
M  V30 5709 H 547.349 0.335256 3.96385 0
M  V30 5710 H 544.088 2.46408 6.07423 0
M  V30 5711 H 543.608 0.755997 5.95017 0
M  V30 5712 H 545.287 1.18618 6.36034 0
M  V30 5713 N 545.419 -1.53889 0.339982 0
M  V30 5714 C 546.666 -2.00855 -0.257621 0
M  V30 5715 C 546.994 -1.22788 -1.50842 0
M  V30 5716 O 546.249 -0.302567 -1.93347 0
M  V30 5717 C 546.548 -3.51968 -0.620735 0
M  V30 5718 C 546.214 -4.47741 0.532771 0
M  V30 5719 C 544.876 -4.73645 0.849339 0
M  V30 5720 C 547.228 -5.04551 1.3068 0
M  V30 5721 C 544.556 -5.53614 1.94237 0
M  V30 5722 C 546.908 -5.85713 2.39005 0
M  V30 5723 C 545.572 -6.09912 2.71225 0
M  V30 5724 H 544.842 -0.734979 -0.0942703 0
M  V30 5725 H 547.489 -1.85714 0.467159 0
M  V30 5726 H 545.794 -3.64921 -1.42618 0
M  V30 5727 H 547.491 -3.85762 -1.09495 0
M  V30 5728 H 544.081 -4.27711 0.275973 0
M  V30 5729 H 548.265 -4.84507 1.07549 0
M  V30 5730 H 543.521 -5.7059 2.19628 0
M  V30 5731 H 547.695 -6.28748 2.99415 0
M  V30 5732 H 545.322 -6.71665 3.56047 0
M  V30 5733 N 546.897 -0.0685191 -1.57451 0
M  V30 5734 C 548.313 0.288101 -1.56978 0
M  V30 5735 C 548.513 1.70262 -1.07765 0
M  V30 5736 O 547.569 2.4135 -0.742054 0
M  V30 5737 C 548.882 0.100745 -3.00531 0
M  V30 5738 C 550.43 0.170531 -3.12535 0
M  V30 5739 C 550.905 0.0114944 -4.57999 0
M  V30 5740 N 552.396 0.0672065 -4.63151 0
M  V30 5741 C 553.131 -0.0314813 -5.73391 0
M  V30 5742 N 552.627 -0.183503 -6.92557 0
M  V30 5743 N 554.42 0.0253489 -5.62094 0
M  V30 5744 H 546.571 -0.993026 -1.87757 0
M  V30 5745 H 548.834 -0.386981 -0.865419 0
M  V30 5746 H 548.54 -0.875197 -3.40636 0
M  V30 5747 H 548.414 0.854457 -3.67395 0
M  V30 5748 H 550.801 1.13696 -2.72318 0
M  V30 5749 H 550.882 -0.614229 -2.48316 0
M  V30 5750 H 550.526 -0.951684 -4.98904 0
M  V30 5751 H 550.456 0.815617 -5.20245 0
M  V30 5752 H 552.947 0.183246 -3.77455 0
M  V30 5753 H 553.26 -0.251041 -7.72392 0
M  V30 5754 H 551.605 -0.218822 -6.94655 0
M  V30 5755 H 554.796 0.142794 -4.67882 0
M  V30 5756 H 554.969 -0.0550166 -6.47977 0
M  V30 5757 N 548.375 1.56261 0.205012 0
M  V30 5758 C 549.322 1.93754 1.25411 0
M  V30 5759 C 550.292 0.796826 1.45739 0
M  V30 5760 O 551.477 1.05414 1.59036 0
M  V30 5761 C 548.617 2.27383 2.59598 0
M  V30 5762 C 547.73 3.5447 2.46931 0
M  V30 5763 C 546.865 3.77468 3.73753 0
M  V30 5764 C 545.904 4.98014 3.55877 0
M  V30 5765 N 545.041 5.17316 4.74688 0
M  V30 5766 H 549.881 2.83203 0.92737 0
M  V30 5767 H 547.418 1.40158 0.446574 0
M  V30 5768 H 549.376 2.44895 3.37761 0
M  V30 5769 H 548.006 1.41088 2.90335 0
M  V30 5770 H 547.058 3.45061 1.60116 0
M  V30 5771 H 548.37 4.42789 2.29651 0
M  V30 5772 H 547.524 3.95165 4.60358 0
M  V30 5773 H 546.263 2.87461 3.93976 0
M  V30 5774 H 545.268 4.80249 2.67657 0
M  V30 5775 H 546.493 5.8952 3.37109 0
M  V30 5776 H 544.439 4.30255 4.95194 0
M  V30 5777 H 544.356 5.99796 4.60197 0
M  V30 5778 H 545.624 5.39463 5.62672 0
M  V30 5779 N 549.853 -0.472356 1.50355 0
M  V30 5780 C 551.099 -1.22634 1.6152 0
M  V30 5781 C 551.432 -1.91645 0.313995 0
M  V30 5782 O 550.707 -1.82059 -0.684446 0
M  V30 5783 C 550.99 -2.27099 2.7946 0
M  V30 5784 C 550.843 -1.62402 4.19459 0
M  V30 5785 C 552.162 -3.28421 2.92964 0
M  V30 5786 H 549.281 -0.444494 0.587873 0
M  V30 5787 H 551.923 -0.520321 1.82737 0
M  V30 5788 H 550.073 -2.87314 2.61501 0
M  V30 5789 H 551.745 -1.05793 4.49005 0
M  V30 5790 H 549.988 -0.927184 4.23776 0
M  V30 5791 H 550.659 -2.38309 4.97909 0
M  V30 5792 H 553.135 -2.78227 3.09401 0
M  V30 5793 H 552.011 -3.98845 3.77113 0
M  V30 5794 H 552.272 -3.92467 2.03525 0
M  V30 5795 N 551.331 -1.39911 -0.725443 0
M  V30 5796 C 552.747 -1.21725 -1.03224 0
M  V30 5797 C 552.947 -0.0855224 -2.01318 0
M  V30 5798 O 552.003 0.55976 -2.46217 0
M  V30 5799 C 553.316 -2.55511 -1.58539 0
M  V30 5800 C 554.864 -2.62439 -1.70572 0
M  V30 5801 C 555.339 -3.9647 -2.29294 0
M  V30 5802 N 556.83 -3.98159 -2.36692 0
M  V30 5803 C 557.565 -4.98647 -2.83088 0
M  V30 5804 N 557.061 -6.0953 -3.2931 0
M  V30 5805 N 558.854 -4.8602 -2.82384 0
M  V30 5806 H 551.005 -2.12267 -0.075048 0
M  V30 5807 H 553.268 -0.943136 -0.0959066 0
M  V30 5808 H 552.974 -3.38926 -0.939249 0
M  V30 5809 H 552.848 -2.75905 -2.57208 0
M  V30 5810 H 555.235 -1.79401 -2.34306 0
M  V30 5811 H 555.316 -2.45885 -0.705297 0
M  V30 5812 H 554.96 -4.79942 -1.66186 0
M  V30 5813 H 554.89 -4.10349 -3.30032 0
M  V30 5814 H 557.381 -3.18085 -2.04035 0
M  V30 5815 H 557.694 -6.82106 -3.6325 0
M  V30 5816 H 556.039 -6.1311 -3.27294 0
M  V30 5817 H 559.23 -3.98493 -2.45603 0
M  V30 5818 H 559.403 -5.64478 -3.18226 0
M  V30 5819 N 552.809 0.956637 -1.25245 0
M  V30 5820 C 554.056 1.701 -1.09874 0
M  V30 5821 C 554.384 1.91128 0.36062 0
M  V30 5822 O 553.639 1.47837 1.28229 0
M  V30 5823 C 553.938 3.08996 -1.79601 0
M  V30 5824 C 553.604 3.07774 -3.29523 0
M  V30 5825 C 552.266 3.07149 -3.70423 0
M  V30 5826 C 554.618 3.01257 -4.25316 0
M  V30 5827 C 551.946 2.97752 -5.0553 0
M  V30 5828 C 554.298 2.93403 -5.60444 0
M  V30 5829 C 552.962 2.91111 -6.00675 0
M  V30 5830 H 552.232 0.62244 -0.402056 0
M  V30 5831 H 554.879 1.1178 -1.55491 0
M  V30 5832 H 553.184 3.70848 -1.26408 0
M  V30 5833 H 554.881 3.65407 -1.65162 0
M  V30 5834 H 551.471 3.09032 -2.9698 0
M  V30 5835 H 555.655 3.00861 -3.9471 0
M  V30 5836 H 550.911 2.94346 -5.35883 0
M  V30 5837 H 555.085 2.87321 -6.34366 0
M  V30 5838 H 552.712 2.83586 -7.05325 0
M  V30 5839 N 554.287 1.06798 1.15896 0
M  V30 5840 C 555.512 0.808739 1.90982 0
M  V30 5841 C 555.937 -0.6316 1.77179 0
M  V30 5842 O 555.295 -1.4407 1.10061 0
M  V30 5843 C 555.343 1.21468 3.39526 0
M  V30 5844 O 554.447 0.356562 4.10856 0
M  V30 5845 H 553.788 0.29512 0.594811 0
M  V30 5846 H 556.318 1.42513 1.46804 0
M  V30 5847 H 556.328 1.18844 3.90308 0
M  V30 5848 H 555.003 2.26379 3.48891 0
M  V30 5849 H 553.58 0.444808 3.70238 0
M  V30 5850 N 555.766 -1.3263 0.851289 0
M  V30 5851 C 557.013 -1.97368 0.453023 0
M  V30 5852 C 557.341 -1.67384 -0.990596 0
M  V30 5853 O 556.596 -0.952665 -1.70947 0
M  V30 5854 C 556.895 -3.51713 0.635015 0
M  V30 5855 C 556.561 -4.01676 2.04859 0
M  V30 5856 C 555.223 -4.15031 2.43522 0
M  V30 5857 C 557.575 -4.28206 2.97135 0
M  V30 5858 C 554.903 -4.52257 3.73739 0
M  V30 5859 C 557.255 -4.66889 4.26846 0
M  V30 5860 C 555.919 -4.7845 4.65448 0
M  V30 5861 H 555.189 -0.722219 0.165773 0
M  V30 5862 H 557.836 -1.58092 1.0807 0
M  V30 5863 H 556.141 -3.91726 -0.0759081 0
M  V30 5864 H 557.838 -3.99823 0.306964 0
M  V30 5865 H 554.428 -3.91764 1.73836 0
M  V30 5866 H 558.612 -4.174 2.68498 0
M  V30 5867 H 553.868 -4.59402 4.03435 0
M  V30 5868 H 558.042 -4.86372 4.98413 0
M  V30 5869 H 555.669 -5.07052 5.66395 0
M  V30 5870 N 557.244 -0.608902 -1.45362 0
M  V30 5871 C 558.154 0.110969 -2.34337 0
M  V30 5872 C 559.17 0.859007 -1.51318 0
M  V30 5873 O 560.346 0.816296 -1.84116 0
M  V30 5874 C 557.411 1.09494 -3.28956 0
M  V30 5875 C 556.472 0.348718 -4.27881 0
M  V30 5876 C 555.705 1.28582 -5.17979 0
M  V30 5877 O 555.928 2.52369 -5.11533 0
M  V30 5878 O 554.862 0.782172 -5.96796 0
M  V30 5879 H 558.688 -0.620258 -2.97299 0
M  V30 5880 H 556.273 -0.36916 -1.44767 0
M  V30 5881 H 558.155 1.66163 -3.87257 0
M  V30 5882 H 556.83 1.80717 -2.68557 0
M  V30 5883 H 555.737 -0.260465 -3.73192 0
M  V30 5884 H 557.07 -0.323049 -4.91139 0
M  V30 5885 N 558.722 1.53707 -0.348139 0
M  V30 5886 C 559.654 2.22725 0.540946 0
M  V30 5887 C 560.667 1.2354 1.06027 0
M  V30 5888 O 561.856 1.49867 0.96964 0
M  V30 5889 C 558.956 2.89756 1.75768 0
M  V30 5890 C 558.129 4.15297 1.37285 0
M  V30 5891 C 557.188 4.65697 2.44976 0
M  V30 5892 O 556.214 5.29798 2.08092 0
M  V30 5893 N 557.416 4.42017 3.763 0
M  V30 5894 H 560.181 2.99658 -0.0501592 0
M  V30 5895 H 557.742 1.60979 -0.17248 0
M  V30 5896 H 559.734 3.20388 2.47252 0
M  V30 5897 H 558.304 2.16382 2.25605 0
M  V30 5898 H 557.524 3.9116 0.488584 0
M  V30 5899 H 558.812 4.96948 1.09179 0
M  V30 5900 H 558.21 3.9076 4.09051 0
M  V30 5901 H 556.767 4.77242 4.4394 0
M  V30 5902 N 560.2 0.0768682 1.57412 0
M  V30 5903 C 561.611 -0.455037 1.8107 0
M  V30 5904 C 561.962 -1.69323 0.991162 0
M  V30 5905 O 561.087 -2.15328 0.215156 0
M  V30 5906 C 561.682 -0.832316 3.28417 0
M  V30 5907 C 560.241 -1.30906 3.52903 0
M  V30 5908 C 559.388 -0.296714 2.75708 0
M  V30 5909 H 562.339 0.302514 1.5579 0
M  V30 5910 H 562.36 -1.69333 3.40744 0
M  V30 5911 H 561.872 0.0690532 3.88039 0
M  V30 5912 H 559.973 -2.22875 2.98592 0
M  V30 5913 H 560.086 -1.28348 4.61588 0
M  V30 5914 H 558.45 -0.775059 2.42621 0
M  V30 5915 H 559.233 0.597015 3.38069 0
M  V30 5916 N 561.678 -1.56367 -0.196722 0
M  V30 5917 C 562.955 -1.71359 -0.943159 0
M  V30 5918 C 563.335 -0.631192 -2.01443 0
M  V30 5919 O 562.683 0.358071 -2.25677 0
M  V30 5920 C 562.893 -3.13623 -1.53106 0
M  V30 5921 C 564.241 -3.73806 -2.01381 0
M  V30 5922 O 565.265 -3.16742 -1.62951 0
M  V30 5923 O 564.124 -4.73951 -2.7209 0
M  V30 5924 H 561.218 -0.698851 -0.442195 0
M  V30 5925 H 563.764 -1.68672 -0.186547 0
M  V30 5926 H 562.536 -3.83873 -0.758785 0
M  V30 5927 H 562.159 -3.20532 -2.35255 0
M  V30 5928 N 563.156 0.464375 -1.50603 0
M  V30 5929 C 564.404 1.21356 -1.61608 0
M  V30 5930 C 564.725 1.92329 -0.321643 0
M  V30 5931 O 563.995 1.84403 0.661232 0
M  V30 5932 H 562.575 0.45094 -0.595535 0
M  V30 5933 H 565.237 0.535046 -1.87412 0
M  V30 5934 H 564.333 1.95783 -2.43054 0
M  V30 5935 N 564.634 1.40294 0.718013 0
M  V30 5936 C 566.05 1.2227 1.02577 0
M  V30 5937 C 566.25 0.0961976 2.0127 0
M  V30 5938 O 565.306 -0.546695 2.46511 0
M  V30 5939 C 566.619 2.56348 1.57182 0
M  V30 5940 C 568.167 2.6334 1.69178 0
M  V30 5941 C 568.642 3.9768 2.27188 0
M  V30 5942 N 570.133 3.99409 2.34578 0
M  V30 5943 C 570.868 5.00141 2.8044 0
M  V30 5944 N 570.364 6.11268 3.26073 0
M  V30 5945 N 572.157 4.87511 2.79802 0
M  V30 5946 H 564.308 2.12304 0.0637899 0
M  V30 5947 H 566.571 0.943632 0.0909036 0
M  V30 5948 H 566.277 3.3942 0.921262 0
M  V30 5949 H 566.151 2.77266 2.55741 0
M  V30 5950 H 568.538 1.80641 2.33351 0
M  V30 5951 H 568.619 2.46255 0.692247 0
M  V30 5952 H 568.263 4.80817 1.63638 0
M  V30 5953 H 568.193 4.12093 3.27852 0
M  V30 5954 H 570.684 3.19162 2.02346 0
M  V30 5955 H 570.997 6.84023 3.59628 0
M  V30 5956 H 569.342 6.14837 3.24038 0
M  V30 5957 H 572.533 3.9979 2.43487 0
M  V30 5958 H 572.706 5.66158 3.15228 0
M  V30 5959 N 566.112 -0.949982 1.2575 0
M  V30 5960 C 567.075 -2.02894 1.06615 0
M  V30 5961 C 568.075 -1.60791 0.0173905 0
M  V30 5962 O 569.265 -1.72249 0.260003 0
M  V30 5963 C 566.397 -3.35219 0.619751 0
M  V30 5964 H 567.59 -2.21302 2.02399 0
M  V30 5965 H 565.143 -1.12772 1.08223 0
M  V30 5966 H 565.878 -3.22508 -0.340486 0
M  V30 5967 H 565.663 -3.67129 1.37692 0
M  V30 5968 H 567.153 -4.14505 0.507443 0
M  V30 5969 N 567.59 -1.07411 -1.15328 0
M  V30 5970 C 568.522 -0.652924 -2.19703 0
M  V30 5971 C 569.535 0.294869 -1.60107 0
M  V30 5972 O 570.724 0.0840932 -1.78302 0
M  V30 5973 C 567.824 0.061434 -3.38844 0
M  V30 5974 C 566.997 -0.902696 -4.27984 0
M  V30 5975 C 566.056 -0.225521 -5.25717 0
M  V30 5976 O 565.082 -0.86676 -5.62562 0
M  V30 5977 N 566.284 1.02858 -5.71315 0
M  V30 5978 H 569.049 -1.55081 -2.56457 0
M  V30 5979 H 566.61 -0.958883 -1.30449 0
M  V30 5980 H 568.602 0.525145 -4.01278 0
M  V30 5981 H 567.172 0.861269 -3.00501 0
M  V30 5982 H 566.392 -1.54551 -3.6264 0
M  V30 5983 H 567.68 -1.55636 -4.84412 0
M  V30 5984 H 567.078 1.56948 -5.43492 0
M  V30 5985 H 565.635 1.43596 -6.35786 0
M  V30 5986 N 569.068 1.32177 -0.85831 0
M  V30 5987 C 570.001 2.26823 -0.25035 0
M  V30 5988 C 570.979 1.50571 0.61378 0
M  V30 5989 O 572.163 1.79682 0.569777 0
M  V30 5990 C 569.29 3.32472 0.646556 0
M  V30 5991 C 568.336 4.26255 -0.144675 0
M  V30 5992 S 569.169 5.13608 -1.5155 0
M  V30 5993 C 570.325 6.22778 -0.624408 0
M  V30 5994 H 570.558 2.7804 -1.05267 0
M  V30 5995 H 568.091 1.39764 -0.656152 0
M  V30 5996 H 570.049 3.93817 1.15837 0
M  V30 5997 H 568.71 2.80031 1.42272 0
M  V30 5998 H 567.903 5.01114 0.538613 0
M  V30 5999 H 567.505 3.69346 -0.588198 0
M  V30 6000 H 569.797 6.77287 0.169846 0
M  V30 6001 H 570.74 6.95233 -1.34376 0
M  V30 6002 H 571.148 5.64156 -0.197128 0
M  V30 6003 N 570.547 0.616602 1.45037 0
M  V30 6004 C 571.958 0.199359 1.85633 0
M  V30 6005 C 572.309 -1.24588 1.51566 0
M  V30 6006 O 571.434 -1.94594 0.94668 0
M  V30 6007 C 572.029 0.355033 3.36935 0
M  V30 6008 C 570.588 -0.00758748 3.76399 0
M  V30 6009 C 569.735 0.675256 2.68953 0
M  V30 6010 H 572.686 0.822708 1.3571 0
M  V30 6011 H 572.707 -0.410201 3.78282 0
M  V30 6012 H 572.219 1.40699 3.61698 0
M  V30 6013 H 570.32 -1.05837 3.57252 0
M  V30 6014 H 570.433 0.392346 4.77491 0
M  V30 6015 H 568.797 0.111992 2.54454 0
M  V30 6016 H 569.58 1.72952 2.96551 0
M  V30 6017 N 572.025 -1.5352 0.356285 0
M  V30 6018 C 573.253 -2.05534 -0.237328 0
M  V30 6019 C 573.668 -1.23043 -1.43199 0
M  V30 6020 O 573.025 -0.268821 -1.80509 0
M  V30 6021 C 573.076 -3.55791 -0.639933 0
M  V30 6022 O 572.797 -4.35154 0.507233 0
M  V30 6023 C 574.298 -4.24027 -1.29292 0
M  V30 6024 H 571.518 -0.669585 -0.0435572 0
M  V30 6025 H 574.062 -1.97988 0.511963 0
M  V30 6026 H 572.217 -3.63518 -1.33915 0
M  V30 6027 H 572.631 -5.24178 0.18375 0
M  V30 6028 H 574.105 -5.30509 -1.52527 0
M  V30 6029 H 574.582 -3.77166 -2.25039 0
M  V30 6030 H 575.188 -4.20527 -0.63539 0
M  V30 6031 N 573.503 -0.0852151 -1.57369 0
M  V30 6032 C 574.731 0.58946 -1.98325 0
M  V30 6033 C 575.146 1.62333 -0.96403 0
M  V30 6034 O 574.503 1.82438 0.0476395 0
M  V30 6035 C 574.554 1.24604 -3.39347 0
M  V30 6036 O 574.275 0.253532 -4.37366 0
M  V30 6037 C 575.776 2.00726 -3.95252 0
M  V30 6038 H 572.996 0.158783 -0.651942 0
M  V30 6039 H 575.54 -0.161584 -2.03861 0
M  V30 6040 H 573.695 1.94808 -3.34856 0
M  V30 6041 H 574.109 0.726207 -5.19448 0
M  V30 6042 H 575.583 2.42039 -4.96106 0
M  V30 6043 H 576.06 2.86919 -3.32527 0
M  V30 6044 H 576.666 1.3536 -4.03185 0
M  V30 6045 N 574.981 1.5647 0.188427 0
M  V30 6046 C 575.891 1.98285 1.2538 0
M  V30 6047 C 576.907 0.891535 1.49424 0
M  V30 6048 O 578.083 1.19782 1.61908 0
M  V30 6049 C 575.148 2.31965 2.57669 0
M  V30 6050 C 574.209 3.54838 2.41638 0
M  V30 6051 C 573.442 3.86901 3.67618 0
M  V30 6052 O 573.665 3.20163 4.72072 0
M  V30 6053 O 572.599 4.80309 3.62749 0
M  V30 6054 H 576.425 2.89145 0.928912 0
M  V30 6055 H 574.01 1.44112 0.393955 0
M  V30 6056 H 575.892 2.54673 3.35737 0
M  V30 6057 H 574.567 1.44271 2.89771 0
M  V30 6058 H 573.474 3.37369 1.61658 0
M  V30 6059 H 574.807 4.43019 2.14465 0
M  V30 6060 N 576.459 -0.456382 1.50847 0
M  V30 6061 C 577.875 -0.791345 1.386 0
M  V30 6062 C 578.075 -1.9633 0.453498 0
M  V30 6063 O 577.131 -2.52308 -0.0984353 0
M  V30 6064 C 578.444 -1.08959 2.80265 0
M  V30 6065 C 579.992 -1.19517 2.89283 0
M  V30 6066 C 580.467 -1.52647 4.31814 0
M  V30 6067 N 581.958 -1.59609 4.34832 0
M  V30 6068 C 582.693 -1.86777 5.42127 0
M  V30 6069 N 582.189 -2.11866 6.59609 0
M  V30 6070 N 583.982 -1.88402 5.29586 0
M  V30 6071 H 576.133 0.315746 2.1004 0
M  V30 6072 H 578.396 0.0787916 0.94472 0
M  V30 6073 H 578.102 -0.301355 3.50407 0
M  V30 6074 H 577.976 -2.02211 3.18419 0
M  V30 6075 H 580.363 -1.97406 2.19351 0
M  V30 6076 H 580.444 -0.242111 2.54652 0
M  V30 6077 H 580.088 -0.752922 5.02288 0
M  V30 6078 H 580.018 -2.49127 4.63943 0
M  V30 6079 H 582.509 -1.42201 3.50125 0
M  V30 6080 H 582.822 -2.31912 7.37182 0
M  V30 6081 H 581.167 -2.09228 6.62758 0
M  V30 6082 H 584.358 -1.68307 4.36795 0
M  V30 6083 H 584.531 -2.09238 6.13289 0
M  V30 6084 N 577.937 -1.40673 -0.710563 0
M  V30 6085 C 579.183 -1.39428 -1.47267 0
M  V30 6086 C 579.516 0.00182129 -1.942 0
M  V30 6087 O 578.791 0.971387 -1.68506 0
M  V30 6088 C 579.074 -2.38812 -2.6952 0
M  V30 6089 C 578.927 -3.87467 -2.28449 0
M  V30 6090 C 580.246 -2.3566 -3.71689 0
M  V30 6091 H 577.365 -0.507768 -0.534173 0
M  V30 6092 H 580.007 -1.71843 -0.810547 0
M  V30 6093 H 578.157 -2.113 -3.26013 0
M  V30 6094 H 579.829 -4.25825 -1.77399 0
M  V30 6095 H 578.072 -4.03058 -1.60395 0
M  V30 6096 H 578.743 -4.5253 -3.16103 0
M  V30 6097 H 581.219 -2.6004 -3.24836 0
M  V30 6098 H 580.095 -3.07237 -4.54859 0
M  V30 6099 H 580.356 -1.36996 -4.20339 0
M  V30 6100 N 579.415 0.9433 -1.26252 0
M  V30 6101 C 580.643 1.72367 -1.14443 0
M  V30 6102 C 581.058 1.86392 0.300572 0
M  V30 6103 O 580.415 1.36978 1.20596 0
M  V30 6104 C 580.466 3.13155 -1.806 0
M  V30 6105 O 580.187 2.99803 -3.19452 0
M  V30 6106 C 581.688 4.07417 -1.74717 0
M  V30 6107 H 578.908 0.539758 -0.398626 0
M  V30 6108 H 581.452 1.18268 -1.66832 0
M  V30 6109 H 579.607 3.64162 -1.32154 0
M  V30 6110 H 580.021 3.88697 -3.52158 0
M  V30 6111 H 581.495 5.03773 -2.25647 0
M  V30 6112 H 581.972 4.3337 -0.713244 0
M  V30 6113 H 582.578 3.6233 -2.22704 0
M  V30 6114 N 580.893 1.08022 1.14757 0
M  V30 6115 C 581.823 0.728248 2.21853 0
M  V30 6116 C 582.804 -0.287486 1.67653 0
M  V30 6117 O 583.989 -0.158727 1.9355 0
M  V30 6118 C 581.119 0.132549 3.47047 0
M  V30 6119 C 580.073 1.07619 4.14249 0
M  V30 6120 C 579.399 0.342907 5.33599 0
M  V30 6121 C 580.699 2.41268 4.63235 0
M  V30 6122 H 582.393 1.62365 2.51551 0
M  V30 6123 H 579.939 0.782125 1.20908 0
M  V30 6124 H 581.892 -0.125665 4.21213 0
M  V30 6125 H 580.616 -0.797971 3.16702 0
M  V30 6126 H 579.275 1.31944 3.42033 0
M  V30 6127 H 578.923 -0.59129 4.99513 0
M  V30 6128 H 578.623 0.971955 5.79506 0
M  V30 6129 H 580.147 0.0926538 6.1053 0
M  V30 6130 H 581.561 2.21232 5.28894 0
M  V30 6131 H 579.958 2.9983 5.19829 0
M  V30 6132 H 581.028 3.03079 3.78512 0
M  V30 6133 N 582.371 -1.3172 0.865308 0
M  V30 6134 C 583.599 -2.01057 0.488251 0
M  V30 6135 C 584.014 -1.64979 -0.918 0
M  V30 6136 O 583.371 -0.876597 -1.60069 0
M  V30 6137 C 583.422 -3.55964 0.630224 0
M  V30 6138 O 583.143 -3.90749 1.98109 0
M  V30 6139 C 584.644 -4.42574 0.253567 0
M  V30 6140 H 581.864 -0.64332 0.190736 0
M  V30 6141 H 584.408 -1.68058 1.16519 0
M  V30 6142 H 582.563 -3.874 0.000895422 0
M  V30 6143 H 582.977 -4.85467 1.9855 0
M  V30 6144 H 584.451 -5.50521 0.403875 0
M  V30 6145 H 584.928 -4.31724 -0.806895 0
M  V30 6146 H 585.534 -4.16547 0.858404 0
M  V30 6147 N 583.85 -0.624285 -1.44708 0
M  V30 6148 C 585.266 -0.289322 -1.56956 0
M  V30 6149 C 585.466 1.20773 -1.61295 0
M  V30 6150 O 584.522 1.9915 -1.55227 0
M  V30 6151 C 585.835 -0.975215 -2.84447 0
M  V30 6152 C 587.383 -0.952709 -2.98148 0
M  V30 6153 C 587.858 -1.61893 -4.28433 0
M  V30 6154 N 589.349 -1.5852 -4.35231 0
M  V30 6155 C 590.084 -2.06969 -5.34744 0
M  V30 6156 N 589.58 -2.63579 -6.40701 0
M  V30 6157 N 591.373 -1.97638 -5.26209 0
M  V30 6158 H 583.524 -1.59612 -1.40135 0
M  V30 6159 H 585.787 -0.669592 -0.671081 0
M  V30 6160 H 585.493 -2.02999 -2.87201 0
M  V30 6161 H 585.367 -0.508749 -3.73753 0
M  V30 6162 H 587.754 0.093568 -2.94952 0
M  V30 6163 H 587.835 -1.4576 -2.10209 0
M  V30 6164 H 587.479 -2.66463 -4.32389 0
M  V30 6165 H 587.409 -1.08893 -5.15218 0
M  V30 6166 H 589.899 -1.17183 -3.59272 0
M  V30 6167 H 590.213 -2.98298 -7.12908 0
M  V30 6168 H 588.558 -2.67626 -6.41406 0
M  V30 6169 H 591.749 -1.5314 -4.42341 0
M  V30 6170 H 591.922 -2.35708 -6.03611 0
M  V30 6171 N 585.328 1.53329 -0.364422 0
M  V30 6172 C 586.568 2.0315 0.22572 0
M  V30 6173 C 586.932 1.24589 1.46087 0
M  V30 6174 O 588.133 1.64411 2.12656 0
M  V30 6175 C 586.404 3.53718 0.511663 0
M  V30 6176 S 587.963 4.25412 1.07564 0
M  V30 6177 H 584.781 0.70795 0.0657843 0
M  V30 6178 H 587.383 1.88811 -0.507019 0
M  V30 6179 H 586.087 4.08497 -0.394784 0
M  V30 6180 H 585.618 3.72217 1.27351 0
M  V30 6181 H 587.633 4.36486 2.35997 0
M  V30 6182 N 586.806 0.0935595 1.57322 0
M  V30 6183 C 588.053 -0.570509 1.94297 0
M  V30 6184 C 588.381 -1.68286 0.97519 0
M  V30 6185 O 587.636 -1.95699 -0.00548655 0
M  V30 6186 C 587.935 -1.16692 3.37813 0
M  V30 6187 C 587.601 -0.178509 4.50547 0
M  V30 6188 C 586.263 0.0933475 4.81109 0
M  V30 6189 C 588.615 0.496472 5.1883 0
M  V30 6190 C 585.943 1.0469 5.77284 0
M  V30 6191 C 588.295 1.43849 6.16028 0
M  V30 6192 C 586.959 1.71859 6.44997 0
M  V30 6193 H 586.229 -0.208764 0.710984 0
M  V30 6194 H 588.876 0.169066 1.90752 0
M  V30 6195 H 587.181 -1.98271 3.37929 0
M  V30 6196 H 588.878 -1.6884 3.63722 0
M  V30 6197 H 585.468 -0.400584 4.26724 0
M  V30 6198 H 589.652 0.299584 4.95395 0
M  V30 6199 H 584.908 1.27094 5.98044 0
M  V30 6200 H 589.082 1.96734 6.68034 0
M  V30 6201 H 586.709 2.45906 7.19329 0
M  V30 6202 N 588.284 -1.56567 -0.180126 0
M  V30 6203 C 589.514 -1.85349 -0.912647 0
M  V30 6204 C 589.922 -0.675795 -1.76719 0
M  V30 6205 O 589.265 0.3645 -1.80047 0
M  V30 6206 C 589.327 -3.08431 -1.84691 0
M  V30 6207 C 588.991 -4.41694 -1.17284 0
M  V30 6208 C 589.988 -5.17062 -0.542532 0
M  V30 6209 C 587.673 -4.8843 -1.17223 0
M  V30 6210 C 589.667 -6.37351 0.0793953 0
M  V30 6211 C 587.354 -6.08652 -0.54647 0
M  V30 6212 C 588.352 -6.82955 0.0782458 0
M  V30 6213 O 588.04 -8.00897 0.694158 0
M  V30 6214 H 587.772 -0.619286 -0.271036 0
M  V30 6215 H 590.326 -2.0454 -0.187768 0
M  V30 6216 H 588.556 -2.85163 -2.61188 0
M  V30 6217 H 590.245 -3.23733 -2.44851 0
M  V30 6218 H 591.011 -4.8204 -0.535045 0
M  V30 6219 H 586.89 -4.30542 -1.64788 0
M  V30 6220 H 590.434 -6.95287 0.567612 0
M  V30 6221 H 586.331 -6.4314 -0.55151 0
M  V30 6222 H 587.099 -8.16352 0.592537 0
M  V30 6223 N 589.762 0.448376 -1.51087 0
M  V30 6224 C 590.692 1.55102 -1.74544 0
M  V30 6225 C 591.673 1.59357 -0.594932 0
M  V30 6226 O 592.858 1.75261 -0.836491 0
M  V30 6227 C 589.988 2.93268 -1.86041 0
M  V30 6228 C 588.942 3.03877 -3.01402 0
M  V30 6229 C 588.268 4.43914 -2.98068 0
M  V30 6230 C 589.568 2.7898 -4.41551 0
M  V30 6231 H 591.262 1.35724 -2.66869 0
M  V30 6232 H 588.808 0.651498 -1.28419 0
M  V30 6233 H 590.761 3.70356 -2.01034 0
M  V30 6234 H 589.485 3.13853 -0.903548 0
M  V30 6235 H 588.144 2.29227 -2.86096 0
M  V30 6236 H 587.792 4.6145 -2.00182 0
M  V30 6237 H 587.492 4.51944 -3.75527 0
M  V30 6238 H 589.016 5.22991 -3.1514 0
M  V30 6239 H 590.43 3.45805 -4.57265 0
M  V30 6240 H 588.827 2.98431 -5.20633 0
M  V30 6241 H 589.897 1.74663 -4.5235 0
M  V30 6242 N 591.24 1.41047 0.703093 0
M  V30 6243 C 592.487 1.4 1.46309 0
M  V30 6244 C 592.815 0.00654574 1.94499 0
M  V30 6245 O 592.07 -0.980255 1.6938 0
M  V30 6246 C 592.369 2.34686 2.6955 0
M  V30 6247 C 592.035 3.81684 2.40058 0
M  V30 6248 C 590.697 4.21731 2.31725 0
M  V30 6249 C 593.049 4.74525 2.15581 0
M  V30 6250 C 590.377 5.52637 1.97001 0
M  V30 6251 C 592.729 6.05744 1.82366 0
M  V30 6252 C 591.393 6.44819 1.72524 0
M  V30 6253 H 590.663 0.512295 0.535382 0
M  V30 6254 H 593.31 1.73792 0.804275 0
M  V30 6255 H 591.615 1.94122 3.40329 0
M  V30 6256 H 593.312 2.31152 3.27673 0
M  V30 6257 H 589.902 3.49963 2.47435 0
M  V30 6258 H 594.086 4.44395 2.20968 0
M  V30 6259 H 589.342 5.81802 1.87928 0
M  V30 6260 H 593.516 6.77189 1.62444 0
M  V30 6261 H 591.143 7.46168 1.45385 0
M  V30 6262 N 592.718 -0.936591 1.26751 0
M  V30 6263 C 594.129 -1.49816 1.1141 0
M  V30 6264 C 594.48 -1.9383 -0.304015 0
M  V30 6265 O 593.605 -1.80346 -1.196 0
M  V30 6266 C 594.2 -2.72271 2.01629 0
M  V30 6267 C 592.759 -3.2468 1.9042 0
M  V30 6268 C 591.906 -1.97444 1.94708 0
M  V30 6269 H 594.857 -0.751604 1.39773 0
M  V30 6270 H 594.878 -3.46741 1.56688 0
M  V30 6271 H 594.39 -2.40205 3.04833 0
M  V30 6272 H 592.491 -3.61525 0.901674 0
M  V30 6273 H 592.604 -3.91476 2.76195 0
M  V30 6274 H 590.968 -2.13545 1.38818 0
M  V30 6275 H 591.751 -1.67703 2.9955 0
M  V30 6276 N 594.196 -1.08629 -1.14182 0
M  V30 6277 C 595.444 -0.815731 -1.84906 0
M  V30 6278 C 595.765 0.660441 -1.83475 0
M  V30 6279 O 595.035 1.47888 -1.28476 0
M  V30 6280 H 593.615 -0.298773 -0.684648 0
M  V30 6281 H 596.277 -1.37274 -1.38354 0
M  V30 6282 H 595.373 -1.16193 -2.89665 0
M  V30 6283 N 595.674 1.31259 -0.872281 0
M  V30 6284 C 596.624 2.26 -0.301295 0
M  V30 6285 C 597.608 1.50729 0.562991 0
M  V30 6286 O 598.8 1.72198 0.40949 0
M  V30 6287 C 595.929 3.39724 0.494227 0
M  V30 6288 C 595.015 4.22363 -0.383432 0
M  V30 6289 N 595.406 4.83724 -1.47799 0
M  V30 6290 C 593.704 4.45652 -0.176278 0
M  V30 6291 C 594.405 5.45523 -2.01939 0
M  V30 6292 N 593.381 5.27428 -1.31608 0
M  V30 6293 H 597.183 2.70981 -1.13782 0
M  V30 6294 H 594.697 1.45552 -0.720294 0
M  V30 6295 H 596.694 4.06626 0.919828 0
M  V30 6296 H 595.354 2.96286 1.32834 0
M  V30 6297 H 596.365 4.83313 -1.8609 0
M  V30 6298 H 593.042 4.12845 0.621698 0
M  V30 6299 H 594.432 6.04268 -2.93786 0
M  V30 6300 O 597.191 0.771905 1.41859 0
M  V30 6301 H 597.882 0.335971 1.90764 0
M  V30 END ATOM
M  V30 BEGIN BOND
M  V30 END BOND
M  V30 END CTAB
M  END
$$$$
