drugbank_target|P29401 Transketolase (DB09130)
 OpenBabel12092119233D

  0  0  0     0  0            999 V3000
M  V30 BEGIN CTAB
M  V30 COUNTS 9555 9648 0 0 0
M  V30 BEGIN ATOM
M  V30 1 H -0.908 1.98254 -0.117106 0
M  V30 2 N 0 1.576 0 0
M  V30 3 C 0.933 2.03868 1.02534 0
M  V30 4 C 1.911 0.928543 1.3348 0
M  V30 5 O 3.095 1.19667 1.45644 0
M  V30 6 C 0.222 2.43627 2.35294 0
M  V30 7 C -0.732 3.65373 2.2001 0
M  V30 8 S 0.101 5.13292 1.52614 0
M  V30 9 C 1.257 5.56322 2.86805 0
M  V30 10 H 1.49 2.90518 0.631377 0
M  V30 11 H -0.977 1.52953 0.210867 0
M  V30 12 H 0.981 2.67203 3.11629 0
M  V30 13 H -0.358 1.57376 2.7183 0
M  V30 14 H -1.165 3.90944 3.18086 0
M  V30 15 H -1.563 3.418 1.51819 0
M  V30 16 H 0.729 5.58782 3.83104 0
M  V30 17 H 1.672 6.56266 2.65933 0
M  V30 18 H 2.08 4.83886 2.90714 0
M  V30 19 N 1.4781 -0.272755 1.55222 0
M  V30 20 C 2.3881 -1.35918 1.91216 0
M  V30 21 C 3.4041 -1.54026 0.809436 0
M  V30 22 O 4.5801 -1.68148 1.10852 0
M  V30 23 C 1.6451 -2.69834 2.17693 0
M  V30 24 C 0.7061 -2.6047 3.41253 0
M  V30 25 C -0.0609 -3.88 3.66458 0
M  V30 26 O 0.1621 -4.88693 2.94169 0
M  V30 27 O -0.9039 -3.88189 4.59992 0
M  V30 28 H 2.9221 -1.0839 2.83699 0
M  V30 29 H 0.5071 -0.471301 1.41771 0
M  V30 30 H 2.3891 -3.49017 2.36147 0
M  V30 31 H 1.0641 -2.97148 1.28392 0
M  V30 32 H -0.0289 -1.79663 3.28134 0
M  V30 33 H 1.3041 -2.38106 4.30774 0
M  V30 34 N 2.9562 -1.48159 -0.537278 0
M  V30 35 C 4.1812 -1.59707 -1.32319 0
M  V30 36 C 4.6062 -0.254859 -1.86365 0
M  V30 37 O 3.9642 0.772378 -1.64024 0
M  V30 38 C 4.0122 -2.6412 -2.45505 0
M  V30 39 O 3.1162 -2.20774 -3.48328 0
M  V30 40 H 2.4572 -0.535791 -0.392204 0
M  V30 41 H 4.9872 -1.94092 -0.647268 0
M  V30 42 H 4.9972 -2.85166 -2.91795 0
M  V30 43 H 3.6722 -3.61567 -2.05528 0
M  V30 44 H 2.2492 -2.09911 -3.08207 0
M  V30 45 N 4.4343 0.785586 -1.36625 0
M  V30 46 C 5.6643 1.5722 -1.34036 0
M  V30 47 C 6.0723 1.89033 0.0795062 0
M  V30 48 O 5.4153 1.50881 1.04789 0
M  V30 49 C 5.4773 2.91759 -2.10041 0
M  V30 50 C 5.1413 2.82654 -3.59104 0
M  V30 51 C 6.1383 2.54634 -4.53274 0
M  V30 52 C 3.8233 3.01111 -4.02042 0
M  V30 53 C 5.8173 2.45177 -5.88359 0
M  V30 54 C 3.5043 2.91276 -5.37216 0
M  V30 55 C 4.5023 2.63348 -6.30188 0
M  V30 56 O 4.1903 2.53514 -7.6288 0
M  V30 57 H 3.9223 0.494177 -0.461265 0
M  V30 58 H 6.4763 0.982632 -1.8037 0
M  V30 59 H 4.7063 3.52781 -1.58375 0
M  V30 60 H 6.3953 3.53059 -2.00261 0
M  V30 61 H 7.1613 2.40073 -4.21414 0
M  V30 62 H 3.0403 3.21854 -3.30047 0
M  V30 63 H 6.5843 2.23299 -6.60896 0
M  V30 64 H 2.4813 3.054 -5.68684 0
M  V30 65 H 3.2493 2.68967 -7.73045 0
M  V30 66 N 5.9124 1.20967 1.01018 0
M  V30 67 C 6.8624 0.93182 2.08089 0
M  V30 68 C 7.8464 -0.110898 1.60517 0
M  V30 69 O 9.0384 0.0973392 1.76732 0
M  V30 70 C 6.1674 0.492719 3.39746 0
M  V30 71 C 5.2534 1.56922 3.94 0
M  V30 72 N 5.6444 2.79312 4.21686 0
M  V30 73 C 3.9424 1.43688 4.2222 0
M  V30 74 C 4.6434 3.48797 4.65527 0
M  V30 75 N 3.6194 2.76224 4.68189 0
M  V30 76 H 7.4214 1.86175 2.27412 0
M  V30 77 H 4.9354 1.10463 1.19045 0
M  V30 78 H 6.9324 0.275044 4.15992 0
M  V30 79 H 5.5924 -0.430509 3.21833 0
M  V30 80 H 6.6034 3.15903 4.10397 0
M  V30 81 H 3.2804 0.578548 4.13472 0
M  V30 82 H 4.6704 4.53561 4.95714 0
M  V30 83 N 7.3905 -1.2043 1.01659 0
M  V30 84 C 8.3375 -2.23215 0.586822 0
M  V30 85 C 9.3075 -1.61382 -0.393085 0
M  V30 86 O 10.4925 -1.88544 -0.292525 0
M  V30 87 C 7.6325 -3.45032 -0.0687464 0
M  V30 88 C 6.7455 -4.21296 0.955724 0
M  V30 89 C 5.8805 -5.30507 0.271208 0
M  V30 90 C 4.9195 -5.98515 1.28244 0
M  V30 91 N 4.0565 -6.99316 0.62459 0
M  V30 92 H 8.8965 -2.59336 1.46796 0
M  V30 93 H 6.4335 -1.27431 0.734836 0
M  V30 94 H 8.3915 -4.1459 -0.465965 0
M  V30 95 H 7.0215 -3.09604 -0.913529 0
M  V30 96 H 6.0735 -3.50803 1.4711 0
M  V30 97 H 7.3855 -4.6803 1.72479 0
M  V30 98 H 6.5395 -6.06428 -0.18151 0
M  V30 99 H 5.2785 -4.8481 -0.530163 0
M  V30 100 H 4.2835 -5.21355 1.74554 0
M  V30 101 H 5.5085 -6.46298 2.08509 0
M  V30 102 H 3.4545 -6.55812 -0.156914 0
M  V30 103 H 3.3715 -7.44178 1.33172 0
M  V30 104 H 4.6395 -7.79255 0.195462 0
M  V30 105 N 8.8686 -0.792821 -1.36206 0
M  V30 106 C 10.2796 -0.429513 -1.81692 0
M  V30 107 C 10.6306 1.04695 -1.65932 0
M  V30 108 O 9.7556 1.81256 -1.18218 0
M  V30 109 C 10.3506 -0.772831 -3.29868 0
M  V30 110 C 8.9096 -0.462307 -3.7355 0
M  V30 111 C 8.0566 -1.00569 -2.5842 0
M  V30 112 H 11.0076 -0.985672 -1.24379 0
M  V30 113 H 11.0286 -0.0651928 -3.80444 0
M  V30 114 H 10.5406 -1.84747 -3.41307 0
M  V30 115 H 8.6416 0.604158 -3.67669 0
M  V30 116 H 8.7546 -0.985299 -4.68859 0
M  V30 117 H 7.1186 -0.428734 -2.51066 0
M  V30 118 H 7.9016 -2.08616 -2.72643 0
M  V30 119 N 10.3467 1.47872 -0.545128 0
M  V30 120 C 11.6237 1.9554 0.0485222 0
M  V30 121 C 12.0037 1.4876 1.49779 0
M  V30 122 O 11.3517 0.720925 2.16829 0
M  V30 123 C 11.5617 3.48898 -0.084417 0
M  V30 124 C 12.9097 4.24547 0.0671239 0
M  V30 125 O 13.9337 3.56198 -0.0113649 0
M  V30 126 O 12.7927 5.45999 0.233882 0
M  V30 127 H 9.8867 0.823957 0.0708773 0
M  V30 128 H 12.4327 1.58327 -0.610798 0
M  V30 129 H 11.2047 3.75714 -1.09337 0
M  V30 130 H 10.8277 3.92845 0.613066 0
M  V30 131 N 11.8248 0.280983 1.55075 0
M  V30 132 C 12.7568 -0.637268 2.20163 0
M  V30 133 C 13.7698 -1.11298 1.18813 0
M  V30 134 O 14.9588 -1.03388 1.4551 0
M  V30 135 C 12.0588 -1.88199 2.81841 0
M  V30 136 C 11.2318 -1.55211 4.08936 0
M  V30 137 C 10.2908 -2.64991 4.54606 0
M  V30 138 O 9.3168 -2.30929 5.2025 0
M  V30 139 N 10.5188 -3.95161 4.25238 0
M  V30 140 H 13.2838 -0.0801694 2.99593 0
M  V30 141 H 10.8448 0.102329 1.61576 0
M  V30 142 H 12.8368 -2.60948 3.09335 0
M  V30 143 H 11.4068 -2.34799 2.06369 0
M  V30 144 H 10.6268 -0.658185 3.88666 0
M  V30 145 H 11.9148 -1.30681 4.91732 0
M  V30 146 H 11.3128 -4.25653 3.72607 0
M  V30 147 H 9.8698 -4.6427 4.5749 0
M  V30 148 N 13.3029 -1.57598 0.00835791 0
M  V30 149 C 14.2349 -2.05811 -1.00868 0
M  V30 150 C 15.2479 -0.977579 -1.30182 0
M  V30 151 O 16.4369 -1.25421 -1.27011 0
M  V30 152 C 13.5369 -2.45016 -2.34137 0
M  V30 153 C 12.7099 -3.75903 -2.23643 0
M  V30 154 C 11.7689 -4.01884 -3.3967 0
M  V30 155 O 10.7949 -4.72433 -3.17483 0
M  V30 156 N 11.9969 -3.50432 -4.62793 0
M  V30 157 H 14.7619 -2.93684 -0.597458 0
M  V30 158 H 12.3229 -1.60909 -0.178852 0
M  V30 159 H 14.3149 -2.59506 -3.10546 0
M  V30 160 H 12.8849 -1.62618 -2.66972 0
M  V30 161 H 12.1049 -3.7141 -1.32091 0
M  V30 162 H 13.3929 -4.61695 -2.13812 0
M  V30 163 H 12.7909 -2.93317 -4.83716 0
M  V30 164 H 11.3479 -3.70236 -5.3644 0
M  V30 165 N 14.781 0.264519 -1.55364 0
M  V30 166 C 15.728 1.32717 -1.88825 0
M  V30 167 C 16.698 1.48675 -0.740605 0
M  V30 168 O 17.883 1.62945 -0.992657 0
M  V30 169 C 15.023 2.68089 -2.17307 0
M  V30 170 C 14.136 2.60284 -3.44785 0
M  V30 171 C 13.271 3.87892 -3.62924 0
M  V30 172 C 12.31 3.74631 -4.84064 0
M  V30 173 N 11.447 4.94092 -4.98816 0
M  V30 174 H 16.287 1.03481 -2.79456 0
M  V30 175 H 13.824 0.499757 -1.3835 0
M  V30 176 H 15.782 3.46864 -2.31821 0
M  V30 177 H 14.412 2.95509 -1.299 0
M  V30 178 H 13.464 1.73173 -3.38697 0
M  V30 179 H 14.776 2.46388 -4.33698 0
M  V30 180 H 13.93 4.75109 -3.77302 0
M  V30 181 H 12.669 4.04664 -2.7221 0
M  V30 182 H 11.674 2.85797 -4.69681 0
M  V30 183 H 12.899 3.5937 -5.76221 0
M  V30 184 H 10.845 5.11259 -4.11036 0
M  V30 185 H 10.762 4.8276 -5.81789 0
M  V30 186 H 12.03 5.82857 -5.17588 0
M  V30 187 N 16.2591 1.48442 0.529413 0
M  V30 188 C 17.1891 1.65902 1.64313 0
M  V30 189 C 18.1701 0.507897 1.6234 0
M  V30 190 O 19.3551 0.740503 1.79528 0
M  V30 191 C 16.4851 1.69911 3.02898 0
M  V30 192 C 15.4391 2.8453 3.19729 0
M  V30 193 C 14.7651 2.73629 4.59381 0
M  V30 194 C 16.0651 4.25821 3.02447 0
M  V30 195 H 17.7591 2.5914 1.49955 0
M  V30 196 H 15.3051 1.24709 0.719982 0
M  V30 197 H 17.2581 1.80715 3.80684 0
M  V30 198 H 15.9821 0.732524 3.18279 0
M  V30 199 H 14.6411 2.73283 2.44361 0
M  V30 200 H 14.2891 1.74938 4.71599 0
M  V30 201 H 13.9891 3.50541 4.71588 0
M  V30 202 H 15.5131 2.86401 5.39265 0
M  V30 203 H 16.9271 4.37898 3.70024 0
M  V30 204 H 15.3241 5.03735 3.26146 0
M  V30 205 H 16.3941 4.42244 1.98867 0
M  V30 206 N 17.7372 -0.778329 1.37039 0
M  V30 207 C 18.6692 -1.90034 1.2814 0
M  V30 208 C 19.6822 -1.61585 0.198558 0
M  V30 209 O 20.8712 -1.72625 0.454175 0
M  V30 210 C 17.9712 -3.25108 0.956968 0
M  V30 211 C 17.1442 -3.81253 2.14394 0
M  V30 212 C 16.2032 -4.94789 1.79082 0
M  V30 213 O 15.2292 -5.10721 2.51301 0
M  V30 214 N 16.4312 -5.75878 0.731043 0
M  V30 215 H 19.1962 -1.98186 2.24816 0
M  V30 216 H 16.7572 -0.957129 1.30578 0
M  V30 217 H 18.7492 -3.9857 0.701701 0
M  V30 218 H 17.3192 -3.125 0.0789812 0
M  V30 219 H 16.5392 -2.99647 2.56135 0
M  V30 220 H 17.8272 -4.15495 2.93668 0
M  V30 221 H 17.2252 -5.65547 0.131618 0
M  V30 222 H 15.7822 -6.49596 0.535622 0
M  V30 223 N 19.2153 -1.21501 -1.00376 0
M  V30 224 C 20.1783 -0.976927 -2.07337 0
M  V30 225 C 21.1783 0.0525322 -1.60714 0
M  V30 226 O 22.3683 -0.184869 -1.73216 0
M  V30 227 C 19.5003 -0.473423 -3.37597 0
M  V30 228 H 20.6933 -1.92587 -2.29892 0
M  V30 229 H 18.2463 -1.03217 -1.17371 0
M  V30 230 H 18.9813 0.480379 -3.20722 0
M  V30 231 H 18.7663 -1.216 -3.72768 0
M  V30 232 H 20.2563 -0.32675 -4.1632 0
M  V30 233 N 20.6934 1.19889 -1.02296 0
M  V30 234 C 21.6234 2.25141 -0.619174 0
M  V30 235 C 22.6044 1.66051 0.368915 0
M  V30 236 O 23.7894 1.92546 0.252941 0
M  V30 237 C 20.9194 3.4728 0.0368783 0
M  V30 238 C 19.8734 4.19005 -0.872865 0
M  V30 239 C 19.1994 5.34637 -0.0822402 0
M  V30 240 C 20.4994 4.74452 -2.18387 0
M  V30 241 H 22.1934 2.59171 -1.49903 0
M  V30 242 H 19.7394 1.24579 -0.722222 0
M  V30 243 H 21.6924 4.20098 0.330958 0
M  V30 244 H 20.4164 3.12433 0.95149 0
M  V30 245 H 19.0754 3.48061 -1.15105 0
M  V30 246 H 18.7234 4.96034 0.83422 0
M  V30 247 H 18.4234 5.83557 -0.688149 0
M  V30 248 H 19.9474 6.10255 0.205238 0
M  V30 249 H 21.3614 5.39055 -1.95172 0
M  V30 250 H 19.7584 5.33834 -2.74119 0
M  V30 251 H 20.8284 3.92844 -2.84257 0
M  V30 252 N 22.1715 0.800033 1.35784 0
M  V30 253 C 23.1185 0.203848 2.29898 0
M  V30 254 C 24.0885 -0.658375 1.52495 0
M  V30 255 O 25.2735 -0.604832 1.8096 0
M  V30 256 C 22.4135 -0.64688 3.38983 0
M  V30 257 C 21.5265 0.235054 4.3136 0
M  V30 258 C 20.6615 -0.623054 5.27533 0
M  V30 259 C 19.7005 0.259682 6.11549 0
M  V30 260 N 18.8375 -0.558019 6.99879 0
M  V30 261 H 23.6775 1.01186 2.80295 0
M  V30 262 H 21.2145 0.51053 1.37957 0
M  V30 263 H 23.1725 -1.15521 4.00887 0
M  V30 264 H 21.8025 -1.42021 2.89879 0
M  V30 265 H 20.8545 0.861438 3.70518 0
M  V30 266 H 22.1665 0.914768 4.9034 0
M  V30 267 H 21.3205 -1.19678 5.94779 0
M  V30 268 H 20.0595 -1.33636 4.69034 0
M  V30 269 H 19.0645 0.845726 5.43256 0
M  V30 270 H 20.2895 0.970748 6.72126 0
M  V30 271 H 18.2355 -1.25542 6.43875 0
M  V30 272 H 18.1525 0.0637872 7.55973 0
M  V30 273 H 19.4205 -1.11523 7.71481 0
M  V30 274 N 23.6496 -1.47581 0.552962 0
M  V30 275 C 24.9266 -1.95563 -0.0381515 0
M  V30 276 C 25.3066 -1.49552 -1.48988 0
M  V30 277 O 24.6546 -0.732414 -2.16444 0
M  V30 278 C 24.8646 -3.48848 0.102919 0
M  V30 279 C 26.2126 -4.24577 -0.0446082 0
M  V30 280 O 27.2366 -3.56187 0.0302548 0
M  V30 281 O 26.0956 -5.46116 -0.204923 0
M  V30 282 H 23.1896 -0.824321 -0.0665067 0
M  V30 283 H 25.7356 -1.58001 0.619186 0
M  V30 284 H 24.5076 -3.75129 1.11328 0
M  V30 285 H 24.1306 -3.93165 -0.592224 0
M  V30 286 N 25.1277 -0.289203 -1.54924 0
M  V30 287 C 26.3557 0.326463 -2.04308 0
M  V30 288 C 26.7707 1.48413 -1.16701 0
M  V30 289 O 26.1277 1.81507 -0.190087 0
M  V30 290 C 26.1787 0.794014 -3.52672 0
M  V30 291 O 25.8997 -0.317564 -4.36948 0
M  V30 292 C 27.4007 1.47605 -4.18004 0
M  V30 293 H 24.6207 0.0726272 -0.667058 0
M  V30 294 H 27.1647 -0.425401 -2.00026 0
M  V30 295 H 25.3197 1.49593 -3.57352 0
M  V30 296 H 25.7337 0.0443186 -5.24481 0
M  V30 297 H 27.2077 1.75447 -5.23376 0
M  V30 298 H 27.6847 2.41224 -3.67025 0
M  V30 299 H 28.2907 0.81762 -4.17367 0
M  V30 300 N 26.6058 1.57591 -0.0167156 0
M  V30 301 C 27.5688 2.08393 0.954204 0
M  V30 302 C 28.5688 0.996531 1.26198 0
M  V30 303 O 29.7588 1.25858 1.20438 0
M  V30 304 C 26.8908 2.5394 2.27436 0
M  V30 305 H 28.0838 2.95455 0.514451 0
M  V30 306 H 25.6368 1.54582 0.231089 0
M  V30 307 H 26.3718 1.70171 2.76066 0
M  V30 308 H 26.1568 3.33371 2.06412 0
M  V30 309 H 27.6468 2.93512 2.97053 0
M  V30 310 N 28.0839 -0.256276 1.55502 0
M  V30 311 C 29.0319 -1.33694 1.90338 0
M  V30 312 C 30.0259 -1.50299 0.781441 0
M  V30 313 O 31.2319 -1.51885 0.965966 0
M  V30 314 H 27.6069 -0.447483 0.60437 0
M  V30 315 H 29.5779 -1.01574 2.8058 0
M  V30 316 C 28.3269 -2.68724 2.20642 0
M  V30 317 H 27.6499 -2.56743 3.06469 0
M  V30 318 H 29.0899 -3.43237 2.48926 0
M  V30 319 C 27.5489 -3.21101 1.01959 0
M  V30 320 O 28.0789 -4.0084 0.262762 0
M  V30 321 N 26.2849 -2.79003 0.812746 0
M  V30 322 H 25.8319 -2.14271 1.42989 0
M  V30 323 H 25.7899 -3.14393 0.0203076 0
M  V30 324 N 29.562 -1.4872 -0.521534 0
M  V30 325 C 30.978 -1.35028 -0.850855 0
M  V30 326 C 31.178 -0.367712 -1.98116 0
M  V30 327 O 30.234 0.208037 -2.51642 0
M  V30 328 C 31.547 -2.75263 -1.21041 0
M  V30 329 C 33.095 -2.83813 -1.31981 0
M  V30 330 C 33.57 -4.24769 -1.71276 0
M  V30 331 N 35.061 -4.27482 -1.78363 0
M  V30 332 C 35.796 -5.33494 -2.1017 0
M  V30 333 N 35.292 -6.49775 -2.40343 0
M  V30 334 N 37.085 -5.20894 -2.11248 0
M  V30 335 H 29.236 -2.11214 0.22413 0
M  V30 336 H 31.499 -0.947252 0.0376439 0
M  V30 337 H 31.205 -3.48765 -0.453415 0
M  V30 338 H 31.079 -3.09327 -2.15863 0
M  V30 339 H 33.466 -2.10561 -2.06756 0
M  V30 340 H 33.547 -2.53358 -0.352596 0
M  V30 341 H 33.191 -4.9854 -0.970588 0
M  V30 342 H 33.121 -4.52673 -2.69062 0
M  V30 343 H 35.612 -3.43611 -1.57288 0
M  V30 344 H 35.925 -7.26402 -2.63743 0
M  V30 345 H 34.27 -6.53035 -2.37844 0
M  V30 346 H 37.461 -4.29065 -1.87139 0
M  V30 347 H 37.634 -6.03612 -2.35704 0
M  V30 348 N 31.0401 0.771051 -1.3745 0
M  V30 349 C 31.9701 1.89827 -1.3597 0
M  V30 350 C 32.9511 1.68562 -0.228216 0
M  V30 351 O 34.1361 1.8941 -0.428675 0
M  V30 352 C 31.2661 3.2712 -1.16662 0
M  V30 353 C 30.2201 3.6295 -2.2683 0
M  V30 354 C 29.5461 4.98791 -1.92644 0
M  V30 355 C 30.8461 3.69627 -3.69017 0
M  V30 356 H 32.5401 1.91323 -2.30295 0
M  V30 357 H 30.0861 0.919082 -1.10855 0
M  V30 358 H 32.0391 4.05615 -1.14256 0
M  V30 359 H 30.7631 3.26059 -0.187926 0
M  V30 360 H 29.4221 2.86763 -2.28392 0
M  V30 361 H 29.0701 4.94271 -0.933021 0
M  V30 362 H 28.7701 5.23733 -2.66416 0
M  V30 363 H 30.2941 5.79685 -1.91826 0
M  V30 364 H 31.7081 4.38273 -3.69581 0
M  V30 365 H 30.1051 4.06067 -4.41848 0
M  V30 366 H 31.1751 2.70273 -4.02592 0
M  V30 367 N 32.5182 1.22032 0.997298 0
M  V30 368 C 33.9342 0.979326 1.26021 0
M  V30 369 C 34.1342 -0.32972 1.98784 0
M  V30 370 O 33.1902 -1.05345 2.29475 0
M  V30 371 C 34.5032 2.17509 2.07631 0
M  V30 372 C 36.0512 2.21817 2.2083 0
M  V30 373 C 36.5262 3.40933 3.05825 0
M  V30 374 N 38.0172 3.41067 3.13412 0
M  V30 375 C 38.7522 4.29885 3.79455 0
M  V30 376 N 38.2482 5.28914 4.47462 0
M  V30 377 N 40.0412 4.17673 3.76173 0
M  V30 378 H 32.1922 2.06202 0.509352 0
M  V30 379 H 34.4552 0.90334 0.287541 0
M  V30 380 H 34.1612 3.12415 1.61524 0
M  V30 381 H 34.0352 2.17206 3.08385 0
M  V30 382 H 36.4222 1.27462 2.66153 0
M  V30 383 H 36.5032 2.2616 1.1952 0
M  V30 384 H 36.1472 4.35586 2.61203 0
M  V30 385 H 36.0772 3.33829 4.07266 0
M  V30 386 H 38.5682 2.69406 2.65007 0
M  V30 387 H 38.8812 5.92973 4.95583 0
M  V30 388 H 37.2262 5.32831 4.46224 0
M  V30 389 H 40.4172 3.39564 3.22202 0
M  V30 390 H 40.5902 4.87098 4.27363 0
M  V30 391 N 33.9963 -1.19345 1.0293 0
M  V30 392 C 35.2453 -1.88363 0.721256 0
M  V30 393 C 35.5583 -1.80514 -0.753254 0
M  V30 394 O 36.7643 -2.44788 -1.17436 0
M  V30 395 C 35.2203 -3.37872 1.23978 0
M  V30 396 C 34.8283 -3.54278 2.74211 0
M  V30 397 C 36.5723 -4.12365 1.00775 0
M  V30 398 C 34.4793 -4.97682 3.19479 0
M  V30 399 H 33.4093 -0.705484 0.266098 0
M  V30 400 H 36.0603 -1.34928 1.24365 0
M  V30 401 H 34.4423 -3.90707 0.6453 0
M  V30 402 H 35.6163 -3.11769 3.39318 0
M  V30 403 H 33.9313 -2.93174 2.95699 0
M  V30 404 H 36.5283 -5.18119 1.32123 0
M  V30 405 H 36.8713 -4.16263 -0.0554308 0
M  V30 406 H 37.4043 -3.65668 1.56625 0
M  V30 407 H 34.1433 -4.98945 4.25128 0
M  V30 408 H 33.6633 -5.4095 2.591 0
M  V30 409 H 35.3423 -5.66337 3.12845 0
M  V30 410 N 35.4744 -0.807222 -1.35358 0
M  V30 411 C 36.6994 -0.399309 -2.0352 0
M  V30 412 C 37.1244 0.981986 -1.60433 0
M  V30 413 O 36.4824 1.63601 -0.781299 0
M  V30 414 C 36.5304 -0.491552 -3.57234 0
M  V30 415 O 35.6344 0.494754 -4.09421 0
M  V30 416 H 34.9754 -0.166682 -0.642739 0
M  V30 417 H 37.5054 -1.09328 -1.72941 0
M  V30 418 H 37.5154 -0.361588 -4.06395 0
M  V30 419 H 36.1904 -1.49907 -3.87944 0
M  V30 420 H 34.7674 0.324977 -3.71481 0
M  V30 421 N 36.9525 1.47285 -0.560781 0
M  V30 422 C 38.1775 2.07359 -0.0410566 0
M  V30 423 C 38.6025 1.41017 1.24483 0
M  V30 424 O 37.9605 0.486368 1.74654 0
M  V30 425 C 38.0085 3.6035 0.134123 0
M  V30 426 O 37.1125 3.94681 1.19587 0
M  V30 427 H 36.4535 0.661887 -0.0529291 0
M  V30 428 H 38.9835 1.89252 -0.777482 0
M  V30 429 H 38.9935 4.0652 0.347207 0
M  V30 430 H 37.6685 4.08034 -0.805047 0
M  V30 431 H 36.2455 3.60251 0.962987 0
M  V30 432 N 38.4306 0.297415 1.54768 0
M  V30 433 C 39.6796 -0.313669 1.99246 0
M  V30 434 C 39.9926 -1.55281 1.18942 0
M  V30 435 O 41.1986 -2.23825 1.5367 0
M  V30 436 C 39.6546 -0.609407 3.54703 0
M  V30 437 C 39.2626 0.611192 4.43811 0
M  V30 438 C 41.0066 -1.18188 4.07715 0
M  V30 439 C 38.9136 0.288805 5.90694 0
M  V30 440 H 37.8436 -0.120979 0.744231 0
M  V30 441 H 40.4946 0.40556 1.78962 0
M  V30 442 H 38.8766 -1.38813 3.70873 0
M  V30 443 H 40.0506 1.3875 4.39414 0
M  V30 444 H 38.3656 1.10205 4.01552 0
M  V30 445 H 40.9626 -1.43727 5.15021 0
M  V30 446 H 41.3056 -2.12299 3.58099 0
M  V30 447 H 41.8386 -0.464944 3.95074 0
M  V30 448 H 38.5776 1.19838 6.44453 0
M  V30 449 H 38.0976 -0.450305 5.98107 0
M  V30 450 H 39.7766 -0.110933 6.46905 0
M  V30 451 N 39.9087 -1.5758 0.0250728 0
M  V30 452 C 40.8407 -2.06869 -0.986796 0
M  V30 453 C 41.8537 -0.991332 -1.29137 0
M  V30 454 O 43.0427 -1.26761 -1.25674 0
M  V30 455 C 40.1427 -2.47486 -2.31525 0
M  V30 456 C 39.3157 -3.78253 -2.19643 0
M  V30 457 C 38.3747 -4.05464 -3.35388 0
M  V30 458 O 37.4007 -4.75774 -3.12454 0
M  V30 459 N 38.6027 -3.55321 -4.59051 0
M  V30 460 H 41.3677 -2.94302 -0.566276 0
M  V30 461 H 38.9287 -1.6109 -0.161776 0
M  V30 462 H 40.9207 -2.62785 -3.07776 0
M  V30 463 H 39.4907 -1.65441 -2.65232 0
M  V30 464 H 38.7107 -3.7279 -1.28144 0
M  V30 465 H 39.9987 -4.63936 -2.08903 0
M  V30 466 H 39.3967 -2.98431 -4.80578 0
M  V30 467 H 37.9537 -3.75905 -5.32483 0
M  V30 468 N 41.3868 0.248026 -1.55636 0
M  V30 469 C 42.3498 1.29044 -1.89421 0
M  V30 470 C 43.3498 1.41134 -0.770581 0
M  V30 471 O 44.5398 1.39854 -1.03858 0
M  V30 472 C 41.6718 2.66831 -2.12165 0
M  V30 473 H 42.8648 1.00305 -2.82629 0
M  V30 474 H 40.4178 0.487265 -1.48511 0
M  V30 475 H 41.1528 3.00711 -1.21422 0
M  V30 476 H 40.9378 2.59438 -2.93997 0
M  V30 477 H 42.4278 3.42103 -2.3949 0
M  V30 478 N 42.8649 1.48995 0.513639 0
M  V30 479 C 44.0929 1.61531 1.29288 0
M  V30 480 C 44.5079 0.281801 1.86685 0
M  V30 481 O 43.8649 -0.731111 1.67215 0
M  V30 482 C 43.9159 2.67449 2.43215 0
M  V30 483 O 43.6369 3.95626 1.88179 0
M  V30 484 C 45.1379 2.90575 3.34785 0
M  V30 485 H 42.3579 0.544165 0.392588 0
M  V30 486 H 44.9019 1.9494 0.617956 0
M  V30 487 H 43.0569 2.36853 3.0656 0
M  V30 488 H 43.4709 4.53868 2.62876 0
M  V30 489 H 44.9449 3.68449 4.11035 0
M  V30 490 H 45.4219 2.00011 3.91015 0
M  V30 491 H 46.0279 3.22538 2.77218 0
M  V30 492 N 44.343 -0.763751 1.37857 0
M  V30 493 C 45.571 -1.55293 1.36718 0
M  V30 494 C 45.986 -1.88745 -0.0455434 0
M  V30 495 O 45.343 -1.52039 -1.00947 0
M  V30 496 C 45.394 -2.85831 2.2132 0
M  V30 497 O 45.115 -2.5381 3.57089 0
M  V30 498 C 46.616 -3.80023 2.28249 0
M  V30 499 H 43.836 -0.480841 0.468009 0
M  V30 500 H 46.38 -0.946009 1.81303 0
M  V30 501 H 44.535 -3.42926 1.80223 0
M  V30 502 H 44.949 -3.37459 4.01524 0
M  V30 503 H 46.423 -4.68599 2.91752 0
M  V30 504 H 46.9 -4.1973 1.2932 0
M  V30 505 H 47.506 -3.28855 2.69693 0
M  V30 506 N 45.8211 -1.22559 -0.990812 0
M  V30 507 C 46.7841 -0.998863 -2.0629 0
M  V30 508 C 47.7841 0.0354834 -1.60761 0
M  V30 509 O 48.9741 -0.203231 -1.7301 0
M  V30 510 C 46.1061 -0.509203 -3.37076 0
M  V30 511 H 47.2991 -1.95014 -2.27837 0
M  V30 512 H 44.8521 -1.04456 -1.16269 0
M  V30 513 H 45.5871 0.446335 -3.21214 0
M  V30 514 H 45.3721 -1.25547 -3.71457 0
M  V30 515 H 46.8621 -0.370888 -4.1595 0
M  V30 516 N 47.2992 1.18797 -1.03562 0
M  V30 517 C 48.2622 2.20464 -0.626769 0
M  V30 518 C 49.2622 1.57721 0.313173 0
M  V30 519 O 50.4522 1.73917 0.0992615 0
M  V30 520 C 47.5842 3.40802 0.0818498 0
M  V30 521 H 48.7772 2.58149 -1.5264 0
M  V30 522 H 46.3302 1.32593 -0.827578 0
M  V30 523 H 47.0652 3.08642 0.995518 0
M  V30 524 H 46.8502 3.8758 -0.593652 0
M  V30 525 H 48.3402 4.16092 0.354584 0
M  V30 526 N 48.7773 0.814389 1.34928 0
M  V30 527 C 50.0253 0.397636 1.9815 0
M  V30 528 C 50.3463 -1.04069 1.64908 0
M  V30 529 O 49.6163 -1.72121 0.93548 0
M  V30 530 H 48.1963 0.144043 0.732981 0
M  V30 531 H 50.8583 1.04195 1.6471 0
M  V30 532 H 49.9543 0.509688 3.0791 0
M  V30 533 N 50.2554 -1.46986 0.568584 0
M  V30 534 C 51.4804 -2.07335 0.0520528 0
M  V30 535 C 51.9054 -1.41675 -1.23733 0
M  V30 536 O 51.2634 -0.495623 -1.74394 0
M  V30 537 C 51.3114 -3.60417 -0.11501 0
M  V30 538 O 50.4154 -3.95309 -1.17492 0
M  V30 539 H 49.7564 -0.661597 0.0564385 0
M  V30 540 H 52.2864 -1.88837 0.787507 0
M  V30 541 H 52.2964 -4.06698 -0.325644 0
M  V30 542 H 50.9714 -4.07601 0.826675 0
M  V30 543 H 49.5484 -3.60757 -0.943869 0
M  V30 544 N 51.7335 -0.305618 -1.54608 0
M  V30 545 C 52.9815 0.301701 -1.99835 0
M  V30 546 C 53.3025 1.54054 -1.19551 0
M  V30 547 O 52.5725 1.93702 -0.292658 0
M  V30 548 H 51.1525 0.114468 -0.738178 0
M  V30 549 H 53.8145 -0.418016 -1.90364 0
M  V30 550 H 52.9105 0.570548 -3.06841 0
M  V30 551 N 53.2116 1.57565 -0.0334293 0
M  V30 552 C 54.1616 2.06978 0.956237 0
M  V30 553 C 55.1456 0.971193 1.28283 0
M  V30 554 O 56.3376 1.23471 1.26822 0
M  V30 555 C 53.4666 2.60393 2.23719 0
M  V30 556 C 52.5526 3.7719 1.93877 0
M  V30 557 N 52.9436 4.87639 1.34321 0
M  V30 558 C 51.2416 3.85758 2.23845 0
M  V30 559 C 51.9426 5.68825 1.21709 0
M  V30 560 N 50.9186 5.1587 1.71404 0
M  V30 561 H 54.7206 2.89773 0.490815 0
M  V30 562 H 52.2346 1.61492 0.171478 0
M  V30 563 H 54.2316 2.94088 2.95496 0
M  V30 564 H 52.8916 1.79031 2.70884 0
M  V30 565 H 53.9026 5.07803 1.01767 0
M  V30 566 H 50.5796 3.1531 2.73653 0
M  V30 567 H 51.9696 6.67631 0.75621 0
M  V30 568 N 54.6897 -0.239769 1.55765 0
M  V30 569 C 56.1007 -0.808263 1.68297 0
M  V30 570 C 56.4517 -1.85736 0.632181 0
M  V30 571 O 55.5767 -2.15277 -0.220204 0
M  V30 572 C 56.1717 -1.47284 3.05111 0
M  V30 573 C 54.7307 -1.98895 3.19559 0
M  V30 574 C 53.8777 -0.842575 2.64189 0
M  V30 575 H 56.8287 -0.0154422 1.58692 0
M  V30 576 H 56.8497 -2.34111 2.99954 0
M  V30 577 H 56.3617 -0.709053 3.81568 0
M  V30 578 H 54.4627 -2.78132 2.47938 0
M  V30 579 H 54.5757 -2.18143 4.26556 0
M  V30 580 H 52.9397 -1.24501 2.22197 0
M  V30 581 H 53.7227 -0.0917552 3.43177 0
M  V30 582 N 56.1678 -1.49265 -0.50573 0
M  V30 583 C 57.3958 -1.62215 -1.28429 0
M  V30 584 C 57.8108 -0.291697 -1.86533 0
M  V30 585 O 57.1678 0.722233 -1.67601 0
M  V30 586 C 57.2188 -2.68735 -2.41793 0
M  V30 587 O 56.9398 -3.96619 -1.86078 0
M  V30 588 C 58.4408 -2.92346 -3.3324 0
M  V30 589 H 55.6608 -0.546239 -0.389697 0
M  V30 590 H 58.2048 -1.95265 -0.607609 0
M  V30 591 H 56.3598 -2.38476 -3.053 0
M  V30 592 H 56.7738 -4.55256 -2.60465 0
M  V30 593 H 58.2478 -3.70623 -4.09075 0
M  V30 594 H 58.7248 -2.02081 -3.89948 0
M  V30 595 H 59.3308 -3.24003 -2.75503 0
M  V30 596 N 57.6459 0.756429 -1.3826 0
M  V30 597 C 58.8709 1.55077 -1.37717 0
M  V30 598 C 59.2959 1.88073 0.03164 0
M  V30 599 O 58.6539 1.50364 1.01293 0
M  V30 600 C 58.7019 2.8283 -2.23695 0
M  V30 601 O 57.8059 3.77862 -1.6521 0
M  V30 602 H 57.1469 0.469152 -0.469885 0
M  V30 603 H 59.6769 0.935019 -1.81985 0
M  V30 604 H 59.6869 3.31783 -2.37453 0
M  V30 605 H 58.3619 2.58144 -3.2609 0
M  V30 606 H 56.9389 3.36555 -1.60578 0
M  V30 607 N 59.124 1.23083 0.984299 0
M  V30 608 C 60.364 1.07226 1.74017 0
M  V30 609 C 60.728 -0.384766 1.88105 0
M  V30 610 O 61.929 -0.664411 2.60459 0
M  V30 611 C 60.2 1.77348 3.10294 0
M  V30 612 S 61.759 1.77014 4.01512 0
M  V30 613 H 58.577 0.383819 0.598502 0
M  V30 614 H 61.179 1.56158 1.17622 0
M  V30 615 H 59.883 2.82506 2.97689 0
M  V30 616 H 59.414 1.28682 3.71759 0
M  V30 617 H 61.429 0.825956 4.89277 0
M  V30 618 N 60.6021 -1.18246 1.0419 0
M  V30 619 C 61.8421 -1.89948 0.754916 0
M  V30 620 C 62.2061 -1.78608 -0.70451 0
M  V30 621 O 63.4071 -2.4503 -1.10516 0
M  V30 622 C 61.6781 -3.36305 1.20969 0
M  V30 623 S 63.2371 -4.26088 1.04854 0
M  V30 624 H 60.0551 -0.655897 0.274446 0
M  V30 625 H 62.6571 -1.42873 1.33445 0
M  V30 626 H 61.3611 -3.42089 2.26722 0
M  V30 627 H 60.8921 -3.8842 0.624004 0
M  V30 628 H 62.9071 -4.96189 -0.0332896 0
M  V30 629 N 62.0802 -0.821533 -1.34494 0
M  V30 630 C 63.3052 -0.420873 -2.03085 0
M  V30 631 C 63.7302 0.964915 -1.61465 0
M  V30 632 O 63.0882 1.62763 -0.798607 0
M  V30 633 C 63.1362 -0.529414 -3.56693 0
M  V30 634 O 62.2402 0.451302 -4.09923 0
M  V30 635 H 61.5812 -0.173489 -0.640935 0
M  V30 636 H 64.1112 -1.11157 -1.71771 0
M  V30 637 H 64.1212 -0.404671 -4.05988 0
M  V30 638 H 62.7962 -1.54014 -3.86332 0
M  V30 639 H 61.3732 0.285558 -3.71805 0
M  V30 640 N 63.5583 1.46682 -0.576371 0
M  V30 641 C 64.5213 2.28707 0.150239 0
M  V30 642 C 65.5213 1.38035 0.824794 0
M  V30 643 O 66.7113 1.60476 0.677719 0
M  V30 644 C 63.8433 3.18248 1.22192 0
M  V30 645 H 65.0363 2.94423 -0.570521 0
M  V30 646 H 62.5893 1.52688 -0.334078 0
M  V30 647 H 63.3243 2.57265 1.97447 0
M  V30 648 H 63.1093 3.85 0.742812 0
M  V30 649 H 64.5993 3.80001 1.73172 0
M  V30 650 N 65.0364 0.313813 1.54444 0
M  V30 651 C 65.9994 -0.54379 2.22656 0
M  V30 652 C 66.9994 -1.05124 1.21678 0
M  V30 653 O 68.1894 -0.945225 1.46325 0
M  V30 654 C 65.3214 -1.75427 2.92298 0
M  V30 655 H 66.5144 0.0523599 2.99854 0
M  V30 656 H 64.0674 0.0647834 1.56166 0
M  V30 657 H 64.8024 -2.38991 2.19211 0
M  V30 658 H 64.5874 -1.39791 3.66334 0
M  V30 659 H 66.0774 -2.36325 3.44297 0
M  V30 660 N 66.5145 -1.57545 0.0417849 0
M  V30 661 C 67.4245 -2.14451 -0.951213 0
M  V30 662 C 68.4405 -1.09992 -1.34825 0
M  V30 663 O 69.6165 -1.42114 -1.42708 0
M  V30 664 C 66.6815 -2.67063 -2.21084 0
M  V30 665 C 65.7425 -3.86284 -1.87304 0
M  V30 666 C 64.9755 -4.36378 -3.07261 0
M  V30 667 O 65.1985 -3.85587 -4.20332 0
M  V30 668 O 64.1325 -5.28077 -2.88822 0
M  V30 669 H 67.9585 -2.99601 -0.497287 0
M  V30 670 H 65.5435 -1.48317 -0.179567 0
M  V30 671 H 67.4255 -3.00914 -2.95006 0
M  V30 672 H 66.1005 -1.84989 -2.65633 0
M  V30 673 H 65.0075 -3.57338 -1.10727 0
M  V30 674 H 66.3405 -4.6956 -1.47562 0
M  V30 675 N 67.9926 0.231505 -1.5589 0
M  V30 676 C 69.2416 0.955346 -1.7764 0
M  V30 677 C 69.5546 1.85893 -0.608546 0
M  V30 678 O 70.7606 2.62067 -0.70943 0
M  V30 679 C 69.2166 1.74886 -3.14552 0
M  V30 680 C 68.8246 0.891915 -4.39032 0
M  V30 681 C 70.5686 2.46452 -3.45633 0
M  V30 682 C 68.4756 1.68221 -5.66971 0
M  V30 683 H 67.4056 0.360446 -0.662265 0
M  V30 684 H 70.0566 0.209516 -1.823 0
M  V30 685 H 68.4386 2.53723 -3.04041 0
M  V30 686 H 69.6126 0.144793 -4.60572 0
M  V30 687 H 67.9276 0.288863 -4.15397 0
M  V30 688 H 70.5246 3.06061 -4.38441 0
M  V30 689 H 70.8676 3.18841 -2.67668 0
M  V30 690 H 71.4006 1.74613 -3.57428 0
M  V30 691 H 68.1396 1.00178 -6.478 0
M  V30 692 H 67.6596 2.4042 -5.49507 0
M  V30 693 H 69.3386 2.24544 -6.06786 0
M  V30 694 N 69.4707 1.49531 0.497807 0
M  V30 695 C 70.4037 1.61043 1.6168 0
M  V30 696 C 71.3817 0.459386 1.55976 0
M  V30 697 O 72.5657 0.675358 1.75986 0
M  V30 698 C 69.6927 1.56833 3.00202 0
M  V30 699 C 68.7387 2.77173 3.24156 0
M  V30 700 S 69.5717 4.38808 3.06933 0
M  V30 701 C 70.7277 4.37248 4.47845 0
M  V30 702 H 70.9607 2.55702 1.51671 0
M  V30 703 H 68.4937 1.38462 0.683201 0
M  V30 704 H 70.4517 1.55089 3.80076 0
M  V30 705 H 69.1127 0.634561 3.07623 0
M  V30 706 H 68.3057 2.70456 4.25288 0
M  V30 707 H 67.9077 2.76346 2.5201 0
M  V30 708 H 70.1997 4.09164 5.39992 0
M  V30 709 H 71.1427 5.38668 4.59612 0
M  V30 710 H 71.5507 3.67286 4.28674 0
M  V30 711 N 70.9488 -0.749086 1.3866 0
M  V30 712 C 71.9118 -1.84457 1.36045 0
M  V30 713 C 72.9118 -1.58682 0.260122 0
M  V30 714 O 74.1018 -1.66343 0.517261 0
M  V30 715 C 71.2338 -3.22008 1.11911 0
M  V30 716 H 72.4268 -1.88182 2.33512 0
M  V30 717 H 69.9798 -0.951266 1.24019 0
M  V30 718 H 70.7148 -3.2395 0.150686 0
M  V30 719 H 70.4998 -3.42111 1.91579 0
M  V30 720 H 71.9898 -4.0208 1.12788 0
M  V30 721 N 72.4269 -1.23603 -0.977757 0
M  V30 722 C 73.6729 -1.07129 -1.72195 0
M  V30 723 C 74.0059 0.390501 -1.90233 0
M  V30 724 O 73.2809 1.28902 -1.45653 0
M  V30 725 C 73.5639 -1.80031 -3.11867 0
M  V30 726 C 73.4169 -3.33899 -3.01383 0
M  V30 727 C 74.7359 -1.56492 -4.11337 0
M  V30 728 H 71.8549 -0.390571 -0.624999 0
M  V30 729 H 74.4969 -1.52142 -1.13811 0
M  V30 730 H 72.6469 -1.41768 -3.6171 0
M  V30 731 H 74.3189 -3.81699 -2.59043 0
M  V30 732 H 72.5619 -3.62796 -2.37827 0
M  V30 733 H 73.2329 -3.801 -4.00285 0
M  V30 734 H 75.7089 -1.89757 -3.70313 0
M  V30 735 H 74.5849 -2.09973 -5.07151 0
M  V30 736 H 74.8459 -0.500874 -4.39254 0
M  V30 737 N 73.905 1.17692 -1.04816 0
M  V30 738 C 74.835 2.23777 -0.666791 0
M  V30 739 C 75.816 1.66796 0.33361 0
M  V30 740 O 77.001 1.93039 0.212042 0
M  V30 741 C 74.131 3.47281 -0.0367933 0
M  V30 742 C 73.085 4.17059 -0.961546 0
M  V30 743 C 72.411 5.34342 -0.195626 0
M  V30 744 C 73.711 4.69713 -2.28402 0
M  V30 745 H 75.405 2.55933 -1.55367 0
M  V30 746 H 72.951 1.23019 -0.748484 0
M  V30 747 H 74.904 4.20706 0.241775 0
M  V30 748 H 73.628 3.14381 0.885004 0
M  V30 749 H 72.287 3.45541 -1.22462 0
M  V30 750 H 71.935 4.97692 0.728816 0
M  V30 751 H 71.635 5.81966 -0.811775 0
M  V30 752 H 73.159 6.10553 0.0757473 0
M  V30 753 H 74.573 5.34794 -2.06563 0
M  V30 754 H 72.97 5.279 -2.8538 0
M  V30 755 H 74.04 3.86726 -2.92525 0
M  V30 756 N 75.3831 0.828654 1.34056 0
M  V30 757 C 76.6301 0.419458 1.98108 0
M  V30 758 C 76.9581 -1.01886 1.65679 0
M  V30 759 O 76.2131 -1.72539 0.923512 0
M  V30 760 C 76.5121 0.575226 3.52741 0
M  V30 761 C 76.1781 1.98012 4.05095 0
M  V30 762 C 74.8401 2.36442 4.19104 0
M  V30 763 C 77.1921 2.89824 4.33188 0
M  V30 764 C 74.5201 3.66009 4.58535 0
M  V30 765 C 76.8721 4.1886 4.74066 0
M  V30 766 C 75.5361 4.5726 4.86281 0
M  V30 767 H 74.8061 0.153491 0.724929 0
M  V30 768 H 77.4531 1.05371 1.59904 0
M  V30 769 H 75.7581 -0.142385 3.91541 0
M  V30 770 H 77.4551 0.239057 4.00287 0
M  V30 771 H 74.0451 1.67162 3.94658 0
M  V30 772 H 78.2291 2.61375 4.21897 0
M  V30 773 H 73.4851 3.95579 4.66184 0
M  V30 774 H 77.6591 4.90086 4.94761 0
M  V30 775 H 75.2861 5.57707 5.16592 0
M  V30 776 N 76.8612 -1.46375 0.584142 0
M  V30 777 C 78.1082 -2.02378 0.0702675 0
M  V30 778 C 78.4362 -1.45545 -1.29023 0
M  V30 779 O 77.6912 -0.610967 -1.85918 0
M  V30 780 C 77.9902 -3.57373 -0.0439342 0
M  V30 781 C 77.6562 -4.33252 1.24915 0
M  V30 782 C 76.3182 -4.53701 1.60341 0
M  V30 783 C 78.6702 -4.7681 2.1048 0
M  V30 784 C 75.9982 -5.1496 2.81128 0
M  V30 785 C 78.3502 -5.39404 3.30494 0
M  V30 786 C 77.0142 -5.5808 3.66201 0
M  V30 787 H 76.2842 -0.740554 0.0257127 0
M  V30 788 H 78.9312 -1.75727 0.761065 0
M  V30 789 H 77.2362 -3.83169 -0.817869 0
M  V30 790 H 78.9332 -3.98384 -0.457318 0
M  V30 791 H 75.5232 -4.17633 0.963364 0
M  V30 792 H 79.7072 -4.60766 1.84414 0
M  V30 793 H 74.9632 -5.27611 3.08928 0
M  V30 794 H 79.1372 -5.72114 3.97063 0
M  V30 795 H 76.7642 -6.05318 4.59885 0
M  V30 796 N 78.3393 -0.321999 -1.54275 0
M  V30 797 C 79.2893 0.560185 -2.21011 0
M  V30 798 C 80.2733 1.08283 -1.19011 0
M  V30 799 O 81.4653 1.02011 -1.44647 0
M  V30 800 C 78.5943 1.72137 -2.97025 0
M  V30 801 C 77.6803 1.21369 -4.06363 0
M  V30 802 N 78.0713 0.425566 -5.04007 0
M  V30 803 C 76.3693 1.49255 -4.20284 0
M  V30 804 C 77.0703 0.152601 -5.815 0
M  V30 805 N 76.0463 0.738294 -5.38563 0
M  V30 806 H 79.8483 -0.049265 -2.93859 0
M  V30 807 H 77.3623 -0.127779 -1.61897 0
M  V30 808 H 79.3593 2.36512 -3.43319 0
M  V30 809 H 78.0193 2.33431 -2.25699 0
M  V30 810 H 79.0303 0.068551 -5.17855 0
M  V30 811 H 75.7073 2.11145 -3.60172 0
M  V30 812 H 77.0973 -0.481764 -6.70171 0
M  V30 813 N 79.8174 1.5752 -0.0501392 0
M  V30 814 C 81.0454 1.96963 0.633492 0
M  V30 815 C 81.4604 0.927631 1.6444 0
M  V30 816 O 80.8174 -0.0882665 1.82286 0
M  V30 817 C 80.8684 3.36487 1.32132 0
M  V30 818 O 80.5894 4.36693 0.350894 0
M  V30 819 C 82.0904 3.90682 2.09481 0
M  V30 820 H 79.3104 0.648244 0.173266 0
M  V30 821 H 81.8544 2.0417 -0.116134 0
M  V30 822 H 80.0094 3.30434 2.02218 0
M  V30 823 H 80.4234 5.17702 0.841735 0
M  V30 824 H 81.8974 4.90591 2.5303 0
M  V30 825 H 82.3744 3.26053 2.94255 0
M  V30 826 H 82.9804 4.00069 1.44307 0
M  V30 827 N 81.2955 -0.223234 1.56011 0
M  V30 828 C 82.2285 -1.30377 1.87289 0
M  V30 829 C 83.2065 -1.45286 0.730112 0
M  V30 830 O 84.3905 -1.61126 0.978302 0
M  V30 831 C 81.5175 -2.67431 2.07843 0
M  V30 832 C 80.5635 -2.69546 3.30526 0
M  V30 833 S 81.3965 -2.23781 4.865 0
M  V30 834 C 82.5525 -3.62714 5.10088 0
M  V30 835 H 82.7855 -1.03652 2.78646 0
M  V30 836 H 80.3185 -0.425393 1.48424 0
M  V30 837 H 82.2765 -3.46336 2.20368 0
M  V30 838 H 80.9375 -2.91381 1.17285 0
M  V30 839 H 80.1305 -3.70255 3.41947 0
M  V30 840 H 79.7325 -1.98703 3.16849 0
M  V30 841 H 82.0245 -4.58391 4.98883 0
M  V30 842 H 82.9675 -3.5621 6.11981 0
M  V30 843 H 83.3755 -3.56323 4.37829 0
M  V30 844 N 82.7736 -1.49793 -0.48987 0
M  V30 845 C 84.1896 -1.36803 -0.822022 0
M  V30 846 C 84.3896 -0.409652 -1.97292 0
M  V30 847 O 83.4456 0.154614 -2.52026 0
M  V30 848 C 84.7586 -2.77768 -1.15175 0
M  V30 849 C 86.3066 -2.86549 -1.25931 0
M  V30 850 C 86.7816 -4.28306 -1.62228 0
M  V30 851 N 88.2726 -4.31169 -1.69256 0
M  V30 852 C 89.0076 -5.37832 -1.98807 0
M  V30 853 N 88.5036 -6.54726 -2.26507 0
M  V30 854 N 90.2966 -5.25258 -2.00152 0
M  V30 855 H 82.4476 -2.10691 0.268881 0
M  V30 856 H 84.7106 -0.946241 0.057728 0
M  V30 857 H 84.4166 -3.49648 -0.379335 0
M  V30 858 H 84.2906 -3.13836 -2.09253 0
M  V30 859 H 86.6776 -2.14899 -2.02243 0
M  V30 860 H 86.7586 -2.54049 -0.298776 0
M  V30 861 H 86.4026 -5.00486 -0.864622 0
M  V30 862 H 86.3326 -4.58279 -2.594 0
M  V30 863 H 88.8236 -3.4687 -1.49965 0
M  V30 864 H 89.1366 -7.31833 -2.48276 0
M  V30 865 H 87.4816 -6.57933 -2.23939 0
M  V30 866 H 90.6726 -4.32938 -1.77996 0
M  V30 867 H 90.8456 -6.08476 -2.22848 0
M  V30 868 N 84.2517 0.741722 -1.39055 0
M  V30 869 C 85.4817 1.52876 -1.3897 0
M  V30 870 C 85.8897 1.8919 0.0193266 0
M  V30 871 O 85.2327 1.54138 0.999356 0
M  V30 872 C 85.2947 2.84929 -2.19216 0
M  V30 873 C 84.9587 2.71086 -3.67915 0
M  V30 874 C 85.9557 2.40084 -4.61146 0
M  V30 875 C 83.6407 2.88168 -4.11418 0
M  V30 876 C 85.6347 2.26335 -5.95862 0
M  V30 877 C 83.3217 2.74037 -5.46211 0
M  V30 878 C 84.3197 2.43166 -6.38247 0
M  V30 879 O 84.0077 2.29115 -7.70559 0
M  V30 880 H 83.7397 0.479252 -0.476753 0
M  V30 881 H 86.2937 0.924751 -1.83405 0
M  V30 882 H 84.5237 3.47564 -1.69518 0
M  V30 883 H 86.2127 3.46509 -2.11392 0
M  V30 884 H 86.9787 2.26545 -4.28838 0
M  V30 885 H 82.8577 3.11191 -3.40119 0
M  V30 886 H 86.4017 2.0216 -6.67665 0
M  V30 887 H 82.2987 2.87153 -5.78112 0
M  V30 888 H 83.0667 2.44237 -7.81211 0
M  V30 889 N 85.7298 1.2412 0.971189 0
M  V30 890 C 86.6768 1.0305 2.06517 0
M  V30 891 C 87.6468 -0.0550666 1.66009 0
M  V30 892 O 88.8318 0.0988688 1.90544 0
M  V30 893 C 85.9718 0.637653 3.39158 0
M  V30 894 C 85.0848 1.79633 3.92882 0
M  V30 895 C 84.2198 1.34939 5.13775 0
M  V30 896 C 83.2588 2.47823 5.59687 0
M  V30 897 N 82.3958 2.04022 6.71803 0
M  V30 898 H 87.2358 1.96685 2.23873 0
M  V30 899 H 84.7728 0.979694 1.09729 0
M  V30 900 H 86.7308 0.390931 4.15364 0
M  V30 901 H 85.3608 -0.261693 3.21737 0
M  V30 902 H 84.4128 2.15681 3.13346 0
M  V30 903 H 85.7248 2.64466 4.22918 0
M  V30 904 H 84.8788 1.06134 5.97345 0
M  V30 905 H 83.6178 0.471557 4.85415 0
M  V30 906 H 82.6228 2.77392 4.74693 0
M  V30 907 H 83.8478 3.36158 5.90063 0
M  V30 908 H 81.7938 1.18632 6.45184 0
M  V30 909 H 81.7108 2.82409 7.01271 0
M  V30 910 H 82.9788 1.78347 7.58823 0
M  V30 911 N 87.2079 -1.17134 1.05439 0
M  V30 912 C 88.4329 -1.91913 0.786396 0
M  V30 913 C 88.8579 -1.7643 -0.652234 0
M  V30 914 O 88.2159 -1.08372 -1.45345 0
M  V30 915 C 88.2639 -3.40921 1.17497 0
M  V30 916 O 87.3679 -4.11244 0.308589 0
M  V30 917 H 86.7089 -0.598215 0.288158 0
M  V30 918 H 89.2389 -1.48457 1.4079 0
M  V30 919 H 89.2489 -3.91668 1.14281 0
M  V30 920 H 87.9239 -3.5151 2.22292 0
M  V30 921 H 86.5009 -3.70731 0.40157 0
M  V30 922 N 88.686 -0.835752 -1.33615 0
M  V30 923 C 89.618 -0.224151 -2.28101 0
M  V30 924 C 90.631 0.593331 -1.51603 0
M  V30 925 O 91.82 0.420911 -1.73466 0
M  V30 926 C 88.92 0.703309 -3.31522 0
M  V30 927 C 88.093 -0.0741528 -4.37337 0
M  V30 928 C 87.152 0.776176 -5.20444 0
M  V30 929 O 86.178 0.216506 -5.68788 0
M  V30 930 N 87.38 2.09401 -5.41416 0
M  V30 931 H 90.145 -1.03598 -2.81225 0
M  V30 932 H 87.706 -0.69392 -1.46275 0
M  V30 933 H 89.698 1.27707 -3.84022 0
M  V30 934 H 88.268 1.41585 -2.78698 0
M  V30 935 H 87.488 -0.82928 -3.85378 0
M  V30 936 H 88.776 -0.608863 -5.05144 0
M  V30 937 H 88.174 2.57229 -5.03835 0
M  V30 938 H 86.731 2.61633 -5.96985 0
M  V30 939 N 90.1641 1.46063 -0.591896 0
M  V30 940 C 91.4411 1.95595 -0.0137119 0
M  V30 941 C 91.8211 1.5345 1.4497 0
M  V30 942 O 91.1691 0.789543 2.14426 0
M  V30 943 C 91.3791 3.48453 -0.195373 0
M  V30 944 C 92.7271 4.24546 -0.0679765 0
M  V30 945 O 93.7511 3.55982 -0.124681 0
M  V30 946 O 92.6101 5.46467 0.0600579 0
M  V30 947 H 89.7041 0.825795 0.0446279 0
M  V30 948 H 92.2501 1.56303 -0.660859 0
M  V30 949 H 91.0221 3.72045 -1.21235 0
M  V30 950 H 90.6451 3.94597 0.487775 0
M  V30 951 N 91.6422 0.330177 1.54103 0
M  V30 952 C 93.0532 -0.15652 1.86043 0
M  V30 953 C 93.4042 -1.51086 1.2517 0
M  V30 954 O 92.5292 -2.09023 0.560217 0
M  V30 955 C 93.1242 -0.290784 3.3755 0
M  V30 956 C 91.6832 -0.721705 3.69416 0
M  V30 957 C 90.8302 0.152622 2.7688 0
M  V30 958 H 93.7812 0.550237 1.48856 0
M  V30 959 H 93.8022 -1.12058 3.63625 0
M  V30 960 H 93.3142 0.695068 3.81825 0
M  V30 961 H 91.4152 -1.71706 3.30678 0
M  V30 962 H 91.5282 -0.520869 4.7626 0
M  V30 963 H 89.8922 -0.372894 2.51956 0
M  V30 964 H 90.6752 1.13536 3.23982 0
M  V30 965 N 93.1203 -1.57491 0.0584922 0
M  V30 966 C 94.5363 -1.56792 -0.298091 0
M  V30 967 C 94.7363 -1.06679 -1.70944 0
M  V30 968 O 93.7923 -0.726672 -2.41818 0
M  V30 969 C 95.1053 -3.00461 -0.119879 0
M  V30 970 C 96.6533 -3.1242 -0.190428 0
M  V30 971 C 97.1283 -4.57982 -0.0406567 0
M  V30 972 N 98.6193 -4.63099 -0.0966958 0
M  V30 973 C 99.3543 -5.734 -0.00502943 0
M  V30 974 N 98.8503 -6.9266 0.139402 0
M  V30 975 N 100.643 -5.62067 -0.0611391 0
M  V30 976 H 92.7943 -1.88386 0.98105 0
M  V30 977 H 95.0573 -0.867865 0.381463 0
M  V30 978 H 94.7633 -3.41187 0.85349 0
M  V30 979 H 94.6373 -3.66843 -0.877833 0
M  V30 980 H 97.0243 -2.71589 -1.15427 0
M  V30 981 H 97.1053 -2.48702 0.598405 0
M  V30 982 H 96.7493 -4.995 0.919897 0
M  V30 983 H 96.6793 -5.19715 -0.848727 0
M  V30 984 H 99.1703 -3.77331 -0.207277 0
M  V30 985 H 99.4833 -7.72536 0.201855 0
M  V30 986 H 97.8283 -6.94781 0.174586 0
M  V30 987 H 101.019 -4.67782 -0.172583 0
M  V30 988 H 101.192 -6.47999 0.0137562 0
M  V30 989 N 94.5984 0.214957 -1.56127 0
M  V30 990 C 95.5464 1.28601 -1.93816 0
M  V30 991 C 96.5404 1.48175 -0.821016 0
M  V30 992 O 97.7464 1.49271 -1.0059 0
M  V30 993 H 94.1214 0.431302 -0.616022 0
M  V30 994 H 96.0924 0.940991 -2.83175 0
M  V30 995 C 94.8414 2.62779 -2.27689 0
M  V30 996 H 94.1644 2.48527 -3.13168 0
M  V30 997 H 95.6044 3.36517 -2.57939 0
M  V30 998 C 94.0634 3.18285 -1.10436 0
M  V30 999 O 94.5934 4.00002 -0.368945 0
M  V30 1000 N 92.7994 2.7675 -0.886433 0
M  V30 1001 H 92.3464 2.10404 -1.48619 0
M  V30 1002 H 92.3044 3.14229 -0.103656 0
M  V30 1003 N 96.0765 1.50051 0.48192 0
M  V30 1004 C 97.4875 1.5348 1.06305 0
M  V30 1005 C 97.8385 0.331997 1.93371 0
M  V30 1006 O 96.9635 -0.556256 2.09129 0
M  V30 1007 C 97.5585 2.7813 1.93466 0
M  V30 1008 C 96.1175 2.84275 2.46707 0
M  V30 1009 C 95.2645 2.47637 1.24785 0
M  V30 1010 H 98.2155 1.56472 0.264995 0
M  V30 1011 H 98.2365 2.59372 2.78399 0
M  V30 1012 H 97.7485 3.65654 1.30072 0
M  V30 1013 H 95.8495 2.01077 3.13686 0
M  V30 1014 H 95.9625 3.8691 2.82555 0
M  V30 1015 H 94.3265 1.99835 1.57918 0
M  V30 1016 H 95.1095 3.37457 0.630694 0
M  V30 1017 N 97.5546 -0.734337 1.39446 0
M  V30 1018 C 98.5046 -1.83949 1.34709 0
M  V30 1019 C 99.4886 -1.59279 0.227851 0
M  V30 1020 O 100.681 -1.70771 0.465438 0
M  V30 1021 C 97.8096 -3.21884 1.19356 0
M  V30 1022 C 96.8956 -3.52381 2.35984 0
M  V30 1023 N 97.2866 -3.53811 3.61457 0
M  V30 1024 C 95.5846 -3.82747 2.28956 0
M  V30 1025 C 96.2856 -3.82122 4.38586 0
M  V30 1026 N 95.2616 -3.9993 3.68181 0
M  V30 1027 H 99.0636 -1.83361 2.29687 0
M  V30 1028 H 96.5776 -0.932609 1.32952 0
M  V30 1029 H 98.5746 -4.00998 1.14046 0
M  V30 1030 H 97.2346 -3.23711 0.253295 0
M  V30 1031 H 98.2456 -3.35107 3.94872 0
M  V30 1032 H 94.9226 -3.92175 1.43194 0
M  V30 1033 H 96.3126 -3.89691 5.47349 0
M  V30 1034 N 99.0327 -1.24633 -0.964593 0
M  V30 1035 C 99.9807 -1.03917 -2.08096 0
M  V30 1036 C 100.975 0.0268581 -1.69379 0
M  V30 1037 O 102.181 -0.127952 -1.79545 0
M  V30 1038 H 98.5557 -0.319044 -0.680966 0
M  V30 1039 H 100.527 -1.98581 -2.22729 0
M  V30 1040 C 99.2757 -0.663983 -3.41301 0
M  V30 1041 H 98.5987 -1.47605 -3.71555 0
M  V30 1042 H 100.039 -0.558663 -4.20303 0
M  V30 1043 C 98.4977 0.629169 -3.30973 0
M  V30 1044 O 99.0277 1.67404 -3.65156 0
M  V30 1045 N 97.2337 0.611057 -2.84103 0
M  V30 1046 H 96.7807 -0.239593 -2.56483 0
M  V30 1047 H 96.7387 1.47647 -2.77575 0
M  V30 1048 N 100.511 1.16574 -1.06058 0
M  V30 1049 C 101.788 1.83048 -0.689416 0
M  V30 1050 C 102.168 1.94122 0.829443 0
M  V30 1051 O 101.516 1.48249 1.7388 0
M  V30 1052 C 101.726 3.20186 -1.38859 0
M  V30 1053 C 103.074 3.95989 -1.53226 0
M  V30 1054 O 104.098 3.29696 -1.3483 0
M  V30 1055 O 102.957 5.14813 -1.83384 0
M  V30 1056 H 100.051 0.790258 -0.243764 0
M  V30 1057 H 102.597 1.23797 -1.16071 0
M  V30 1058 H 101.369 3.07146 -2.4244 0
M  V30 1059 H 100.992 3.87112 -0.907216 0
M  V30 1060 N 101.989 0.842826 1.3317 0
M  V30 1061 C 103.405 0.531128 1.50503 0
M  V30 1062 C 103.605 -0.940734 1.78192 0
M  V30 1063 O 102.661 -1.72436 1.84451 0
M  V30 1064 C 103.974 1.40789 2.65705 0
M  V30 1065 C 105.522 1.40708 2.79589 0
M  V30 1066 C 105.997 2.26878 3.97857 0
M  V30 1067 N 107.488 2.24609 4.05099 0
M  V30 1068 C 108.223 2.88019 4.95815 0
M  V30 1069 N 107.719 3.60496 5.9162 0
M  V30 1070 N 109.512 2.77469 4.88843 0
M  V30 1071 H 101.663 1.79557 1.1346 0
M  V30 1072 H 103.926 0.766267 0.558156 0
M  V30 1073 H 103.632 2.454 2.51936 0
M  V30 1074 H 103.506 1.08677 3.61205 0
M  V30 1075 H 105.893 0.368668 2.92788 0
M  V30 1076 H 105.974 1.76829 1.84838 0
M  V30 1077 H 105.618 3.3078 3.85418 0
M  V30 1078 H 105.548 1.88096 4.91861 0
M  V30 1079 H 108.039 1.71906 3.36536 0
M  V30 1080 H 108.352 4.06076 6.57512 0
M  V30 1081 H 106.697 3.64604 5.91683 0
M  V30 1082 H 109.888 2.20406 4.12963 0
M  V30 1083 H 110.061 3.2717 5.59342 0
M  V30 1084 N 103.467 -1.45747 0.599634 0
M  V30 1085 C 104.714 -2.02292 0.0917284 0
M  V30 1086 C 105.042 -1.46906 -1.27472 0
M  V30 1087 O 104.297 -0.630652 -1.8526 0
M  V30 1088 C 104.596 -3.57399 -0.00602758 0
M  V30 1089 C 104.262 -4.31902 1.29503 0
M  V30 1090 C 102.924 -4.51974 1.65144 0
M  V30 1091 C 105.276 -4.74551 2.15525 0
M  V30 1092 C 102.604 -5.11949 2.86574 0
M  V30 1093 C 104.956 -5.35868 3.36196 0
M  V30 1094 C 103.62 -5.54165 3.72099 0
M  V30 1095 H 102.89 -0.740239 0.0335658 0
M  V30 1096 H 105.537 -1.7491 0.779661 0
M  V30 1097 H 103.842 -3.84014 -0.777183 0
M  V30 1098 H 105.539 -3.98846 -0.415038 0
M  V30 1099 H 102.129 -4.16588 1.00761 0
M  V30 1100 H 106.313 -4.58784 1.8929 0
M  V30 1101 H 101.569 -5.24305 3.14507 0
M  V30 1102 H 105.743 -5.6787 4.03109 0
M  V30 1103 H 103.37 -6.00406 4.6628 0
M  V30 1104 N 104.945 -0.338344 -1.53925 0
M  V30 1105 C 106.191 0.260143 -2.01125 0
M  V30 1106 C 106.524 1.50617 -1.22589 0
M  V30 1107 O 105.799 1.91979 -0.312113 0
M  V30 1108 C 106.082 0.579499 -3.55407 0
M  V30 1109 C 105.935 -0.678264 -4.44657 0
M  V30 1110 C 107.254 1.39122 -4.17532 0
M  V30 1111 H 104.373 0.0930772 -0.731099 0
M  V30 1112 H 107.015 -0.457852 -1.84401 0
M  V30 1113 H 105.165 1.19118 -3.69788 0
M  V30 1114 H 106.837 -1.31631 -4.42121 0
M  V30 1115 H 105.08 -1.3042 -4.13731 0
M  V30 1116 H 105.751 -0.410143 -5.50474 0
M  V30 1117 H 108.227 0.874035 -4.06817 0
M  V30 1118 H 107.103 1.58342 -5.25565 0
M  V30 1119 H 107.364 2.39178 -3.71815 0
M  V30 1120 N 106.423 1.57458 -0.0668435 0
M  V30 1121 C 107.353 2.15468 0.899764 0
M  V30 1122 C 108.334 1.08042 1.31381 0
M  V30 1123 O 109.519 1.36054 1.38574 0
M  V30 1124 C 106.649 2.71232 2.16911 0
M  V30 1125 C 105.603 3.83781 1.89463 0
M  V30 1126 C 104.929 4.26127 3.22986 0
M  V30 1127 C 106.229 5.08238 1.20381 0
M  V30 1128 H 107.923 2.96488 0.416529 0
M  V30 1129 H 105.469 1.4262 0.198908 0
M  V30 1130 H 107.422 3.10458 2.84945 0
M  V30 1131 H 106.146 1.87426 2.67468 0
M  V30 1132 H 104.805 3.45051 1.23836 0
M  V30 1133 H 104.453 3.39249 3.71374 0
M  V30 1134 H 104.153 5.01993 3.05413 0
M  V30 1135 H 105.677 4.67966 3.92225 0
M  V30 1136 H 107.091 5.44811 1.78475 0
M  V30 1137 H 105.488 5.89349 1.13083 0
M  V30 1138 H 106.558 4.84558 0.182153 0
M  V30 1139 N 107.901 -0.206675 1.56239 0
M  V30 1140 C 109.126 -0.949474 1.8439 0
M  V30 1141 C 109.551 -1.76549 0.649016 0
M  V30 1142 O 108.909 -1.76782 -0.402231 0
M  V30 1143 C 108.957 -1.83078 3.10668 0
M  V30 1144 O 108.061 -2.9281 2.90407 0
M  V30 1145 H 107.402 -0.268033 0.607499 0
M  V30 1146 H 109.932 -0.215488 2.03462 0
M  V30 1147 H 109.942 -2.2377 3.41161 0
M  V30 1148 H 108.617 -1.23112 3.97261 0
M  V30 1149 H 107.194 -2.55956 2.71184 0
M  V30 1150 N 109.379 -1.50304 -0.473955 0
M  V30 1151 C 110.326 -1.68959 -1.57231 0
M  V30 1152 C 111.296 -0.530899 -1.57387 0
M  V30 1153 O 112.481 -0.761133 -1.74961 0
M  V30 1154 C 109.621 -1.7871 -2.95223 0
M  V30 1155 C 108.734 -3.06061 -3.04878 0
M  V30 1156 C 107.869 -3.06626 -4.33767 0
M  V30 1157 C 106.908 -4.28443 -4.37154 0
M  V30 1158 N 106.045 -4.26763 -5.5751 0
M  V30 1159 H 110.885 -2.6273 -1.40631 0
M  V30 1160 H 108.422 -1.30241 -0.683789 0
M  V30 1161 H 110.38 -1.82344 -3.75242 0
M  V30 1162 H 109.01 -0.883806 -3.10465 0
M  V30 1163 H 108.062 -3.11911 -2.17751 0
M  V30 1164 H 109.374 -3.96039 -3.0324 0
M  V30 1165 H 108.528 -3.08973 -5.22131 0
M  V30 1166 H 107.267 -2.14473 -4.3801 0
M  V30 1167 H 106.272 -4.2631 -3.47188 0
M  V30 1168 H 107.497 -5.2182 -4.34605 0
M  V30 1169 H 105.443 -3.37462 -5.62544 0
M  V30 1170 H 105.36 -5.10507 -5.57601 0
M  V30 1171 H 106.628 -4.33253 -6.48006 0
M  V30 1172 N 110.857 0.726932 -1.39834 0
M  V30 1173 C 112.105 1.4837 -1.37225 0
M  V30 1174 C 112.426 1.94979 0.0284857 0
M  V30 1175 O 111.696 1.69555 0.981213 0
M  V30 1176 H 110.276 0.55043 -0.505011 0
M  V30 1177 H 112.938 0.862468 -1.74778 0
M  V30 1178 H 112.034 2.36198 -2.04003 0
M  V30 1179 N 112.336 1.25143 0.95797 0
M  V30 1180 C 113.286 1.01924 2.0395 0
M  V30 1181 C 114.27 -0.0427175 1.60843 0
M  V30 1182 O 115.462 0.17221 1.7616 0
M  V30 1183 C 112.591 0.636373 3.3735 0
M  V30 1184 C 111.677 1.73492 3.8699 0
M  V30 1185 N 112.068 2.96945 4.0946 0
M  V30 1186 C 110.366 1.61467 4.15746 0
M  V30 1187 C 111.067 3.68228 4.50315 0
M  V30 1188 N 110.043 2.95833 4.56053 0
M  V30 1189 H 113.845 1.95653 2.19311 0
M  V30 1190 H 111.359 1.15413 1.14253 0
M  V30 1191 H 113.356 0.451233 4.14451 0
M  V30 1192 H 112.016 -0.293621 3.2337 0
M  V30 1193 H 113.027 3.33025 3.96629 0
M  V30 1194 H 109.704 0.753394 4.10646 0
M  V30 1195 H 111.094 4.74178 4.76031 0
M  V30 1196 N 113.814 -1.1601 1.06675 0
M  V30 1197 C 114.777 -2.18724 0.685001 0
M  V30 1198 C 115.777 -1.58496 -0.271246 0
M  V30 1199 O 116.967 -1.74119 -0.0531156 0
M  V30 1200 C 114.099 -3.40899 0.00853648 0
M  V30 1201 H 115.292 -2.54011 1.59431 0
M  V30 1202 H 112.845 -1.30352 0.862441 0
M  V30 1203 H 113.58 -3.11173 -0.913337 0
M  V30 1204 H 113.365 -3.8587 0.696204 0
M  V30 1205 H 114.855 -4.16886 -0.24414 0
M  V30 1206 N 115.292 -0.849877 -1.32721 0
M  V30 1207 C 116.255 -0.296122 -2.27279 0
M  V30 1208 C 117.255 0.541458 -1.5141 0
M  V30 1209 O 118.445 0.353658 -1.70572 0
M  V30 1210 C 115.577 0.581579 -3.35902 0
M  V30 1211 H 116.77 -1.13064 -2.77771 0
M  V30 1212 H 114.323 -0.62383 -1.43311 0
M  V30 1213 H 115.058 1.43809 -2.9067 0
M  V30 1214 H 114.843 -0.0178814 -3.92096 0
M  V30 1215 H 116.333 0.961951 -4.0637 0
M  V30 1216 N 116.77 1.45427 -0.607355 0
M  V30 1217 C 118.181 1.85756 -0.187535 0
M  V30 1218 C 118.532 1.5077 1.25551 0
M  V30 1219 O 117.657 0.93427 1.95193 0
M  V30 1220 C 118.252 3.37154 -0.333572 0
M  V30 1221 C 116.811 3.76387 0.0315542 0
M  V30 1222 C 115.958 2.69377 -0.658117 0
M  V30 1223 H 118.909 1.36231 -0.81405 0
M  V30 1224 H 118.93 3.78014 0.43428 0
M  V30 1225 H 118.442 3.62586 -1.38393 0
M  V30 1226 H 116.543 3.56571 1.0811 0
M  V30 1227 H 116.656 4.77731 -0.361935 0
M  V30 1228 H 115.02 2.5452 -0.0957873 0
M  V30 1229 H 115.803 2.97646 -1.7106 0
M  V30 1230 N 118.248 0.346503 1.53744 0
M  V30 1231 C 119.497 -0.250122 2.00143 0
M  V30 1232 C 119.81 -1.51418 1.23822 0
M  V30 1233 O 121.016 -2.18823 1.60713 0
M  V30 1234 C 119.472 -0.496252 3.56462 0
M  V30 1235 C 119.08 0.752077 4.41642 0
M  V30 1236 C 120.824 -1.05157 4.11269 0
M  V30 1237 C 118.731 0.476583 5.89477 0
M  V30 1238 H 117.661 -0.0972409 0.747703 0
M  V30 1239 H 120.312 0.46229 1.77581 0
M  V30 1240 H 118.694 -1.26944 3.75102 0
M  V30 1241 H 119.868 1.5266 4.34778 0
M  V30 1242 H 118.183 1.22925 3.97842 0
M  V30 1243 H 120.78 -1.27269 5.19333 0
M  V30 1244 H 121.123 -2.00799 3.64672 0
M  V30 1245 H 121.656 -0.339019 3.96353 0
M  V30 1246 H 118.395 1.4028 6.40314 0
M  V30 1247 H 117.915 -0.259794 5.99237 0
M  V30 1248 H 119.594 0.0949315 6.4693 0
M  V30 1249 N 119.726 -1.57421 0.075193 0
M  V30 1250 C 120.656 -2.15942 -0.888324 0
M  V30 1251 C 121.637 -1.08737 -1.30806 0
M  V30 1252 O 122.822 -1.36787 -1.37851 0
M  V30 1253 C 119.952 -2.72379 -2.1547 0
M  V30 1254 C 118.906 -3.8478 -1.87425 0
M  V30 1255 C 118.232 -4.27834 -3.20721 0
M  V30 1256 C 119.532 -5.08869 -1.17684 0
M  V30 1257 H 121.226 -2.96705 -0.400799 0
M  V30 1258 H 118.772 -1.42723 -0.191342 0
M  V30 1259 H 120.725 -3.11965 -2.83295 0
M  V30 1260 H 119.449 -1.88841 -2.6647 0
M  V30 1261 H 118.108 -3.45703 -1.22004 0
M  V30 1262 H 117.756 -3.41214 -3.6957 0
M  V30 1263 H 117.456 -5.03605 -3.02746 0
M  V30 1264 H 118.98 -4.70039 -3.89738 0
M  V30 1265 H 120.394 -5.4575 -1.75584 0
M  V30 1266 H 118.791 -5.8994 -1.09956 0
M  V30 1267 H 119.861 -4.84648 -0.156453 0
M  V30 1268 N 121.204 0.198386 -1.56346 0
M  V30 1269 C 122.434 0.934215 -1.84271 0
M  V30 1270 C 122.842 1.77496 -0.655125 0
M  V30 1271 O 122.185 1.7961 0.385488 0
M  V30 1272 C 122.247 1.88278 -3.06254 0
M  V30 1273 C 121.911 1.22431 -4.40295 0
M  V30 1274 C 122.908 0.602839 -5.16393 0
M  V30 1275 C 120.593 1.22915 -4.87029 0
M  V30 1276 C 122.587 -0.0050083 -6.374 0
M  V30 1277 C 120.274 0.617465 -6.07973 0
M  V30 1278 C 121.272 0.00146341 -6.83 0
M  V30 1279 O 120.96 -0.600642 -8.01653 0
M  V30 1280 H 120.692 0.278245 -0.616081 0
M  V30 1281 H 123.246 0.211626 -2.04307 0
M  V30 1282 H 121.476 2.64498 -2.82095 0
M  V30 1283 H 123.165 2.48612 -3.20853 0
M  V30 1284 H 123.931 0.591265 -4.81382 0
M  V30 1285 H 119.81 1.69801 -4.28589 0
M  V30 1286 H 123.354 -0.48643 -6.95902 0
M  V30 1287 H 119.251 0.62653 -6.42452 0
M  V30 1288 H 120.019 -0.497225 -8.16988 0
M  V30 1289 N 122.682 1.50554 0.465978 0
M  V30 1290 C 123.645 1.69233 1.54574 0
M  V30 1291 C 124.645 0.562901 1.50626 0
M  V30 1292 O 125.835 0.830016 1.53155 0
M  V30 1293 C 122.967 1.7223 2.94193 0
M  V30 1294 H 124.16 2.65571 1.39327 0
M  V30 1295 H 121.713 1.40111 0.692711 0
M  V30 1296 H 122.448 0.77603 3.14878 0
M  V30 1297 H 122.233 2.54285 2.98466 0
M  V30 1298 H 123.723 1.88618 3.72576 0
M  V30 1299 N 124.16 -0.719506 1.40217 0
M  V30 1300 C 125.406 -1.48152 1.38488 0
M  V30 1301 C 125.739 -1.94195 -0.0141867 0
M  V30 1302 O 125.014 -1.67884 -0.982096 0
M  V30 1303 C 125.297 -2.71035 2.37091 0
M  V30 1304 C 125.15 -2.30912 3.86005 0
M  V30 1305 C 126.469 -3.73182 2.33288 0
M  V30 1306 H 123.588 -0.537395 0.504357 0
M  V30 1307 H 126.23 -0.821472 1.71324 0
M  V30 1308 H 124.38 -3.27352 2.0922 0
M  V30 1309 H 126.052 -1.80107 4.24687 0
M  V30 1310 H 124.295 -1.62958 4.02029 0
M  V30 1311 H 124.966 -3.18978 4.50508 0
M  V30 1312 H 127.442 -3.26485 2.57966 0
M  V30 1313 H 126.318 -4.56806 3.04334 0
M  V30 1314 H 126.579 -4.21202 1.34317 0
M  V30 1315 N 125.638 -1.25649 -0.95132 0
M  V30 1316 C 126.884 -1.11766 -1.69941 0
M  V30 1317 C 127.239 0.33735 -1.89419 0
M  V30 1318 O 126.532 1.24491 -1.45645 0
M  V30 1319 C 126.726 -1.80909 -3.08231 0
M  V30 1320 C 126.555 -3.32984 -3.02245 0
M  V30 1321 C 125.325 -4.02247 -3.05819 0
M  V30 1322 C 127.523 -4.29332 -2.83157 0
M  V30 1323 N 125.505 -5.41072 -2.90024 0
M  V30 1324 C 126.876 -5.55265 -2.75828 0
M  V30 1325 C 128.931 -4.19707 -2.67863 0
M  V30 1326 C 127.634 -6.72671 -2.54767 0
M  V30 1327 C 129.66 -5.36809 -2.48173 0
M  V30 1328 C 129.022 -6.61683 -2.41567 0
M  V30 1329 H 125.121 -0.463708 -0.629682 0
M  V30 1330 H 127.705 -1.58796 -1.12659 0
M  V30 1331 H 125.876 -1.36369 -3.63673 0
M  V30 1332 H 127.608 -1.59739 -3.71841 0
M  V30 1333 H 124.363 -3.53531 -3.15139 0
M  V30 1334 H 124.787 -6.13938 -2.85323 0
M  V30 1335 H 129.429 -3.23907 -2.71743 0
M  V30 1336 H 127.147 -7.68577 -2.49629 0
M  V30 1337 H 130.733 -5.31224 -2.37259 0
M  V30 1338 H 129.613 -7.50768 -2.26531 0
M  V30 1339 N 127.117 1.15442 -1.07289 0
M  V30 1340 C 128.08 2.18358 -0.696591 0
M  V30 1341 C 129.08 1.58637 0.262837 0
M  V30 1342 O 130.27 1.74145 0.0438809 0
M  V30 1343 C 127.402 3.4089 -0.0266151 0
M  V30 1344 H 128.595 2.53162 -1.60776 0
M  V30 1345 H 126.148 1.29893 -0.869342 0
M  V30 1346 H 126.883 3.11653 0.896822 0
M  V30 1347 H 126.668 3.85495 -0.716657 0
M  V30 1348 H 128.158 4.17009 0.222028 0
M  V30 1349 N 128.595 0.856903 1.32268 0
M  V30 1350 C 129.505 0.306131 2.32594 0
M  V30 1351 C 130.521 -0.577209 1.64147 0
M  V30 1352 O 131.697 -0.477043 1.95669 0
M  V30 1353 C 128.762 -0.494561 3.43154 0
M  V30 1354 C 127.823 0.415186 4.27288 0
M  V30 1355 C 127.056 -0.347387 5.32568 0
M  V30 1356 O 127.279 -1.57708 5.48165 0
M  V30 1357 O 126.213 0.287982 6.01211 0
M  V30 1358 H 130.039 1.13737 2.81598 0
M  V30 1359 H 127.624 0.619902 1.35932 0
M  V30 1360 H 129.506 -0.948944 4.10576 0
M  V30 1361 H 128.181 -1.30257 2.96336 0
M  V30 1362 H 127.088 0.917793 3.62667 0
M  V30 1363 H 128.421 1.18844 4.77637 0
M  V30 1364 N 130.073 -1.45103 0.615059 0
M  V30 1365 C 131.036 -2.29025 -0.0895485 0
M  V30 1366 C 132.036 -1.40174 -0.787906 0
M  V30 1367 O 133.226 -1.62217 -0.634933 0
M  V30 1368 C 130.358 -3.21376 -1.13711 0
M  V30 1369 H 131.551 -2.92807 0.648382 0
M  V30 1370 H 129.104 -1.51749 0.374444 0
M  V30 1371 H 129.839 -2.6241 -1.90556 0
M  V30 1372 H 129.624 -3.86834 -0.640475 0
M  V30 1373 H 131.114 -3.84459 -1.63036 0
M  V30 1374 N 131.551 -0.354651 -1.53558 0
M  V30 1375 C 132.799 0.237972 -2.00694 0
M  V30 1376 C 133.12 1.50173 -1.24391 0
M  V30 1377 O 132.39 1.92673 -0.354135 0
M  V30 1378 H 130.97 0.0909256 -0.741446 0
M  V30 1379 H 133.632 -0.478368 -1.88938 0
M  V30 1380 H 132.728 0.47264 -3.085 0
M  V30 1381 N 133.029 1.57378 -0.0835403 0
M  V30 1382 C 134.276 1.9393 0.58287 0
M  V30 1383 C 134.604 0.964455 1.68904 0
M  V30 1384 O 133.859 -0.0179474 1.95692 0
M  V30 1385 C 134.158 3.37063 1.1884 0
M  V30 1386 C 133.824 4.50424 0.207194 0
M  V30 1387 C 132.486 4.81159 -0.0627115 0
M  V30 1388 C 134.838 5.19136 -0.463426 0
M  V30 1389 C 132.166 5.77939 -1.01012 0
M  V30 1390 C 134.518 6.16931 -1.39924 0
M  V30 1391 C 133.182 6.46078 -1.67749 0
M  V30 1392 H 132.452 0.70964 0.213287 0
M  V30 1393 H 135.099 1.90856 -0.156916 0
M  V30 1394 H 133.404 3.3666 2.00418 0
M  V30 1395 H 135.101 3.6264 1.71153 0
M  V30 1396 H 131.691 4.2646 0.427747 0
M  V30 1397 H 135.875 4.95576 -0.268034 0
M  V30 1398 H 131.131 5.98842 -1.23283 0
M  V30 1399 H 135.305 6.69273 -1.92476 0
M  V30 1400 H 132.932 7.2088 -2.41321 0
M  V30 1401 N 134.507 -0.190092 1.56449 0
M  V30 1402 C 135.437 -1.23816 1.97969 0
M  V30 1403 C 136.418 -1.47201 0.852395 0
M  V30 1404 O 137.603 -1.58854 1.1171 0
M  V30 1405 C 134.733 -2.5813 2.3235 0
M  V30 1406 C 133.687 -2.49348 3.47864 0
M  V30 1407 C 133.013 -3.8798 3.67934 0
M  V30 1408 C 134.313 -2.01424 4.81898 0
M  V30 1409 H 136.007 -0.89311 2.85769 0
M  V30 1410 H 133.553 -0.428177 1.37487 0
M  V30 1411 H 135.506 -3.31637 2.59991 0
M  V30 1412 H 134.23 -2.94386 1.41438 0
M  V30 1413 H 132.889 -1.78297 3.20321 0
M  V30 1414 H 132.537 -4.21597 2.74344 0
M  V30 1415 H 132.237 -3.82978 4.45648 0
M  V30 1416 H 133.761 -4.63101 3.97957 0
M  V30 1417 H 135.175 -2.64693 5.08538 0
M  V30 1418 H 133.572 -2.07413 5.63116 0
M  V30 1419 H 134.642 -0.967677 4.75146 0
M  V30 1420 N 135.985 -1.50799 -0.457987 0
M  V30 1421 C 136.948 -1.7005 -1.53674 0
M  V30 1422 C 137.948 -0.570881 -1.50325 0
M  V30 1423 O 139.138 -0.838126 -1.52712 0
M  V30 1424 C 136.27 -1.73788 -2.93276 0
M  V30 1425 H 137.463 -2.66306 -1.37917 0
M  V30 1426 H 135.016 -1.40477 -0.685271 0
M  V30 1427 H 135.751 -0.792717 -3.14462 0
M  V30 1428 H 135.536 -2.55864 -2.97113 0
M  V30 1429 H 137.026 -1.90591 -3.71571 0
M  V30 1430 N 137.463 0.71206 -1.40597 0
M  V30 1431 C 138.373 1.8562 -1.43466 0
M  V30 1432 C 139.389 1.70902 -0.326902 0
M  V30 1433 O 140.565 1.93105 -0.572043 0
M  V30 1434 C 137.63 3.21451 -1.29884 0
M  V30 1435 C 136.691 3.48398 -2.50833 0
M  V30 1436 C 135.924 4.77749 -2.3789 0
M  V30 1437 O 136.147 5.53089 -1.39459 0
M  V30 1438 O 135.081 5.05111 -3.27333 0
M  V30 1439 H 138.907 1.86155 -2.39958 0
M  V30 1440 H 136.492 0.86295 -1.21957 0
M  V30 1441 H 138.374 4.02579 -1.24531 0
M  V30 1442 H 137.049 3.21636 -0.364997 0
M  V30 1443 H 135.956 2.67265 -2.61763 0
M  V30 1444 H 137.289 3.53014 -3.4299 0
M  V30 1445 N 138.941 1.26152 0.944643 0
M  V30 1446 C 139.904 1.07474 2.0244 0
M  V30 1447 C 140.904 0.0242064 1.60782 0
M  V30 1448 O 142.094 0.267302 1.72137 0
M  V30 1449 C 139.226 0.633956 3.34953 0
M  V30 1450 H 140.419 2.03336 2.20442 0
M  V30 1451 H 137.972 1.087 1.12312 0
M  V30 1452 H 138.707 -0.326811 3.22649 0
M  V30 1453 H 138.492 1.39247 3.66542 0
M  V30 1454 H 139.982 0.52501 4.14287 0
M  V30 1455 N 140.419 -1.14872 1.07899 0
M  V30 1456 C 141.329 -2.2341 0.715915 0
M  V30 1457 C 142.345 -1.71808 -0.275306 0
M  V30 1458 O 143.521 -2.01039 -0.120545 0
M  V30 1459 C 140.586 -3.46474 0.125168 0
M  V30 1460 C 139.647 -4.13039 1.17034 0
M  V30 1461 C 138.88 -5.30229 0.607688 0
M  V30 1462 O 139.103 -5.675 -0.574497 0
M  V30 1463 O 138.037 -5.86444 1.35526 0
M  V30 1464 H 141.863 -2.56808 1.62121 0
M  V30 1465 H 139.448 -1.22702 0.852322 0
M  V30 1466 H 141.33 -4.20917 -0.201729 0
M  V30 1467 H 140.005 -3.14811 -0.753364 0
M  V30 1468 H 138.912 -3.40493 1.54968 0
M  V30 1469 H 140.245 -4.48796 2.02097 0
M  V30 1470 N 141.898 -0.863906 -1.31812 0
M  V30 1471 C 142.828 -0.330843 -2.31144 0
M  V30 1472 C 143.809 0.575005 -1.60087 0
M  V30 1473 O 144.994 0.493304 -1.8783 0
M  V30 1474 C 142.124 0.47374 -3.44054 0
M  V30 1475 C 141.078 -0.338481 -4.26659 0
M  V30 1476 C 140.404 0.591412 -5.31419 0
M  V30 1477 C 141.704 -1.56926 -4.98168 0
M  V30 1478 H 143.398 -1.16086 -2.75979 0
M  V30 1479 H 140.944 -0.559657 -1.32679 0
M  V30 1480 H 142.897 0.857143 -4.12591 0
M  V30 1481 H 141.621 1.33721 -2.9797 0
M  V30 1482 H 140.28 -0.703754 -3.59782 0
M  V30 1483 H 139.928 1.45199 -4.81587 0
M  V30 1484 H 139.628 0.0519022 -5.87577 0
M  V30 1485 H 141.152 0.97179 -6.02817 0
M  V30 1486 H 142.566 -1.25764 -5.59336 0
M  V30 1487 H 140.963 -2.04739 -5.64094 0
M  V30 1488 H 142.033 -2.32544 -4.25501 0
M  V30 1489 N 143.376 1.44774 -0.622745 0
M  V30 1490 C 144.306 2.33382 0.0741861 0
M  V30 1491 C 145.287 1.47719 0.843387 0
M  V30 1492 O 146.472 1.76458 0.810934 0
M  V30 1493 C 143.602 3.30663 1.06204 0
M  V30 1494 C 142.556 4.26079 0.405037 0
M  V30 1495 C 141.882 5.13165 1.5022 0
M  V30 1496 C 143.182 5.1781 -0.683414 0
M  V30 1497 H 144.876 2.91905 -0.665713 0
M  V30 1498 H 142.422 1.40363 -0.321587 0
M  V30 1499 H 144.375 3.9153 1.55827 0
M  V30 1500 H 143.099 2.70331 1.83272 0
M  V30 1501 H 141.758 3.66532 -0.0704683 0
M  V30 1502 H 141.406 4.49191 2.26355 0
M  V30 1503 H 141.106 5.77812 1.06803 0
M  V30 1504 H 142.63 5.76902 2.00041 0
M  V30 1505 H 144.044 5.72661 -0.270631 0
M  V30 1506 H 142.441 5.91015 -1.04023 0
M  V30 1507 H 143.511 4.59326 -1.55395 0
M  V30 1508 N 144.854 0.36279 1.53368 0
M  V30 1509 C 145.802 -0.500155 2.27159 0
M  V30 1510 C 146.796 -1.08575 1.3003 0
M  V30 1511 O 148.002 -1.02927 1.47668 0
M  V30 1512 H 144.377 -0.180009 0.730138 0
M  V30 1513 H 146.348 0.14401 2.98052 0
M  V30 1514 C 145.097 -1.62937 3.07159 0
M  V30 1515 H 144.42 -1.18806 3.8174 0
M  V30 1516 H 145.86 -2.20795 3.61975 0
M  V30 1517 C 144.319 -2.57007 2.17829 0
M  V30 1518 O 144.849 -3.59752 1.78721 0
M  V30 1519 N 143.055 -2.26131 1.82518 0
M  V30 1520 H 142.602 -1.42616 2.14519 0
M  V30 1521 H 142.56 -2.89327 1.23034 0
M  V30 1522 N 146.332 -1.57332 0.0918853 0
M  V30 1523 C 147.262 -2.16872 -0.865371 0
M  V30 1524 C 148.243 -1.10118 -1.29646 0
M  V30 1525 O 149.428 -1.38242 -1.36392 0
M  V30 1526 C 146.558 -2.74649 -2.12569 0
M  V30 1527 C 145.512 -3.86747 -1.83333 0
M  V30 1528 C 144.838 -4.31212 -3.16166 0
M  V30 1529 C 146.138 -5.10089 -1.1228 0
M  V30 1530 H 147.832 -2.97114 -0.369307 0
M  V30 1531 H 145.378 -1.42918 -0.176194 0
M  V30 1532 H 147.331 -3.14952 -2.7997 0
M  V30 1533 H 146.055 -1.91657 -2.64452 0
M  V30 1534 H 144.714 -3.46978 -1.18331 0
M  V30 1535 H 144.362 -3.45115 -3.6593 0
M  V30 1536 H 144.062 -5.06788 -2.97388 0
M  V30 1537 H 145.586 -4.74146 -3.84731 0
M  V30 1538 H 147 -5.47582 -1.69785 0
M  V30 1539 H 145.397 -5.91073 -1.03693 0
M  V30 1540 H 146.467 -4.84786 -0.105041 0
M  V30 1541 N 147.81 0.181792 -1.56548 0
M  V30 1542 C 149.226 0.53316 -1.50431 0
M  V30 1543 C 149.426 1.85184 -0.794297 0
M  V30 1544 O 148.482 2.50058 -0.350318 0
M  V30 1545 C 149.795 0.575597 -2.9514 0
M  V30 1546 C 151.343 0.663519 -3.05886 0
M  V30 1547 C 151.818 0.736946 -4.52032 0
M  V30 1548 N 153.309 0.800118 -4.56237 0
M  V30 1549 C 154.044 0.877327 -5.66649 0
M  V30 1550 N 153.54 0.916016 -6.86718 0
M  V30 1551 N 155.333 0.915542 -5.54594 0
M  V30 1552 H 147.484 -0.683025 -2.01118 0
M  V30 1553 H 149.747 -0.244988 -0.915797 0
M  V30 1554 H 149.453 -0.324482 -3.502 0
M  V30 1555 H 149.327 1.42572 -3.49218 0
M  V30 1556 H 151.714 1.55403 -2.50867 0
M  V30 1557 H 151.795 -0.21307 -2.54911 0
M  V30 1558 H 151.439 -0.149262 -5.07681 0
M  V30 1559 H 151.369 1.62953 -5.00753 0
M  V30 1560 H 153.86 0.778926 -3.69785 0
M  V30 1561 H 154.173 0.975813 -7.66614 0
M  V30 1562 H 152.518 0.884469 -6.89349 0
M  V30 1563 H 155.709 0.882245 -4.59711 0
M  V30 1564 H 155.882 0.972253 -6.40665 0
M  V30 1565 N 149.288 1.51039 0.449983 0
M  V30 1566 C 150.235 1.71439 1.54523 0
M  V30 1567 C 151.205 0.555871 1.56522 0
M  V30 1568 O 152.39 0.788871 1.73728 0
M  V30 1569 C 149.53 1.83384 2.92343 0
M  V30 1570 C 148.643 3.10873 2.9997 0
M  V30 1571 C 147.778 3.13488 4.28834 0
M  V30 1572 C 146.817 4.35343 4.30282 0
M  V30 1573 N 145.954 4.35579 5.5065 0
M  V30 1574 H 150.794 2.64934 1.36433 0
M  V30 1575 H 148.331 1.31312 0.662982 0
M  V30 1576 H 150.289 1.88291 3.72293 0
M  V30 1577 H 148.919 0.933086 3.0902 0
M  V30 1578 H 147.971 3.15336 2.12761 0
M  V30 1579 H 149.283 4.00814 2.96901 0
M  V30 1580 H 148.437 3.17241 5.17149 0
M  V30 1581 H 147.176 2.21414 4.34543 0
M  V30 1582 H 146.181 4.3178 3.40362 0
M  V30 1583 H 147.406 5.28668 4.26248 0
M  V30 1584 H 145.352 3.46369 5.57104 0
M  V30 1585 H 145.269 5.19313 5.49409 0
M  V30 1586 H 146.537 4.43507 6.41032 0
M  V30 1587 N 150.766 -0.704594 1.40972 0
M  V30 1588 C 152.015 -1.46018 1.39146 0
M  V30 1589 C 152.328 -1.956 0.000589254 0
M  V30 1590 O 153.534 -2.71137 -0.1403 0
M  V30 1591 C 151.99 -2.63996 2.4461 0
M  V30 1592 C 151.598 -2.21238 3.89561 0
M  V30 1593 C 153.342 -3.41677 2.51907 0
M  V30 1594 C 151.249 -3.3612 4.86598 0
M  V30 1595 H 150.179 -0.548444 0.517422 0
M  V30 1596 H 152.83 -0.765784 1.66757 0
M  V30 1597 H 151.212 -3.3566 2.10115 0
M  V30 1598 H 152.386 -1.56923 4.33257 0
M  V30 1599 H 150.701 -1.56574 3.85841 0
M  V30 1600 H 153.298 -4.27182 3.2159 0
M  V30 1601 H 153.641 -3.86247 1.55303 0
M  V30 1602 H 154.174 -2.77064 2.85448 0
M  V30 1603 H 150.913 -2.96572 5.84573 0
M  V30 1604 H 150.433 -3.99315 4.47557 0
M  V30 1605 H 152.112 -4.02029 5.06934 0
M  V30 1606 N 152.244 -1.26651 -0.937939 0
M  V30 1607 C 153.469 -1.15279 -1.72411 0
M  V30 1608 C 153.894 0.287866 -1.85884 0
M  V30 1609 O 153.252 1.20855 -1.35143 0
M  V30 1610 C 153.3 -1.83028 -3.10698 0
M  V30 1611 O 152.404 -1.12128 -3.96864 0
M  V30 1612 H 151.745 -0.401504 -0.528858 0
M  V30 1613 H 154.275 -1.67531 -1.1745 0
M  V30 1614 H 154.285 -1.89981 -3.6107 0
M  V30 1615 H 152.96 -2.87833 -3.00208 0
M  V30 1616 H 151.537 -1.13173 -3.55312 0
M  V30 1617 N 153.722 1.14298 -1.08507 0
M  V30 1618 C 154.947 1.8976 -0.837001 0
M  V30 1619 C 155.372 1.78097 0.605228 0
M  V30 1620 O 154.73 1.12188 1.4242 0
M  V30 1621 C 154.778 3.37685 -1.26495 0
M  V30 1622 O 153.882 4.10281 -0.417514 0
M  V30 1623 H 153.223 0.590365 -0.303917 0
M  V30 1624 H 155.753 1.44672 -1.44676 0
M  V30 1625 H 155.763 3.88501 -1.24625 0
M  V30 1626 H 154.438 3.45492 -2.31534 0
M  V30 1627 H 153.015 3.69536 -0.499722 0
M  V30 1628 N 155.201 0.870884 1.31352 0
M  V30 1629 C 156.478 0.402907 1.91405 0
M  V30 1630 C 156.858 -1.11512 1.79244 0
M  V30 1631 O 156.206 -1.94411 1.2007 0
M  V30 1632 C 156.416 0.885301 3.37585 0
M  V30 1633 C 157.764 0.911971 4.14691 0
M  V30 1634 O 158.788 0.831016 3.46371 0
M  V30 1635 O 157.647 1.02927 5.3672 0
M  V30 1636 H 154.741 0.120698 0.818145 0
M  V30 1637 H 157.287 0.958857 1.40014 0
M  V30 1638 H 156.059 1.92889 3.40455 0
M  V30 1639 H 155.682 0.307714 3.96407 0
M  V30 1640 N 156.679 -1.44442 0.630414 0
M  V30 1641 C 157.609 -2.33418 -0.0618083 0
M  V30 1642 C 158.59 -1.48165 -0.835541 0
M  V30 1643 O 159.775 -1.76886 -0.801564 0
M  V30 1644 C 156.905 -3.31222 -1.04449 0
M  V30 1645 C 155.859 -4.26288 -0.382436 0
M  V30 1646 C 155.185 -5.13954 -1.47497 0
M  V30 1647 C 156.485 -5.1744 0.710865 0
M  V30 1648 H 158.179 -2.91548 0.681184 0
M  V30 1649 H 155.725 -1.40191 0.329026 0
M  V30 1650 H 157.678 -3.92351 -1.53748 0
M  V30 1651 H 156.402 -2.71299 -1.81836 0
M  V30 1652 H 155.061 -3.6649 0.0899054 0
M  V30 1653 H 154.709 -4.50385 -2.2397 0
M  V30 1654 H 154.409 -5.7837 -1.03737 0
M  V30 1655 H 155.933 -5.77955 -1.96979 0
M  V30 1656 H 157.347 -5.72509 0.300996 0
M  V30 1657 H 155.744 -5.90455 1.07156 0
M  V30 1658 H 156.814 -4.58496 1.57829 0
M  V30 1659 N 158.157 -0.370918 -1.53173 0
M  V30 1660 C 159.434 0.273754 -1.93675 0
M  V30 1661 C 159.814 1.65938 -1.3049 0
M  V30 1662 O 159.162 2.23698 -0.465999 0
M  V30 1663 C 159.372 0.318602 -3.47543 0
M  V30 1664 C 160.72 0.556392 -4.20939 0
M  V30 1665 O 161.744 0.399587 -3.53952 0
M  V30 1666 O 160.603 0.862133 -5.39657 0
M  V30 1667 H 157.697 0.165448 -0.810281 0
M  V30 1668 H 160.243 -0.42409 -1.64315 0
M  V30 1669 H 159.015 -0.652687 -3.85818 0
M  V30 1670 H 158.638 1.06212 -3.83151 0
M  V30 1671 N 159.635 1.57281 -0.100228 0
M  V30 1672 C 160.883 1.94153 0.561157 0
M  V30 1673 C 161.204 0.983157 1.68401 0
M  V30 1674 O 160.474 0.0361132 1.95867 0
M  V30 1675 H 159.054 0.716791 0.210283 0
M  V30 1676 H 161.716 1.94202 -0.164765 0
M  V30 1677 H 160.812 2.96709 0.968008 0
M  V30 1678 N 161.113 -0.173488 1.56642 0
M  V30 1679 C 162.063 -1.21941 1.92651 0
M  V30 1680 C 163.047 -1.39912 0.794577 0
M  V30 1681 O 164.239 -1.41919 1.05773 0
M  V30 1682 C 161.368 -2.55935 2.28806 0
M  V30 1683 C 160.454 -2.41667 3.48508 0
M  V30 1684 N 160.845 -1.9711 4.65813 0
M  V30 1685 C 159.143 -2.72499 3.53072 0
M  V30 1686 C 159.844 -1.95253 5.47952 0
M  V30 1687 N 158.82 -2.37575 4.88937 0
M  V30 1688 H 162.622 -0.866581 2.80834 0
M  V30 1689 H 160.136 -0.381776 1.57849 0
M  V30 1690 H 162.133 -3.31511 2.52797 0
M  V30 1691 H 160.793 -2.92022 1.41961 0
M  V30 1692 H 161.804 -1.67481 4.90072 0
M  V30 1693 H 158.481 -3.12639 2.767 0
M  V30 1694 H 159.871 -1.6252 6.51948 0
M  V30 1695 N 162.591 -1.51276 -0.441967 0
M  V30 1696 C 164.002 -1.56244 -1.02199 0
M  V30 1697 C 164.353 -0.383149 -1.92422 0
M  V30 1698 O 163.478 0.500613 -2.1053 0
M  V30 1699 C 164.073 -2.83162 -1.86024 0
M  V30 1700 C 162.632 -2.90716 -2.39084 0
M  V30 1701 C 161.779 -2.50858 -1.18175 0
M  V30 1702 H 164.73 -1.5712 -0.223416 0
M  V30 1703 H 164.751 -2.66663 -2.71425 0
M  V30 1704 H 164.263 -3.68974 -1.20331 0
M  V30 1705 H 162.364 -2.09323 -3.08244 0
M  V30 1706 H 162.477 -3.94266 -2.72198 0
M  V30 1707 H 160.841 -2.03951 -1.52565 0
M  V30 1708 H 161.624 -3.3901 -0.541001 0
M  V30 1709 N 164.069 0.697108 -1.41344 0
M  V30 1710 C 165.315 1.4593 -1.40827 0
M  V30 1711 C 165.648 1.94193 -0.0167098 0
M  V30 1712 O 164.923 1.69425 0.955263 0
M  V30 1713 C 165.206 2.67229 -2.41373 0
M  V30 1714 C 165.059 2.24741 -3.8963 0
M  V30 1715 C 166.378 3.69423 -2.39196 0
M  V30 1716 H 163.497 0.529303 -0.512842 0
M  V30 1717 H 166.139 0.794112 -1.72609 0
M  V30 1718 H 164.289 3.23982 -2.14401 0
M  V30 1719 H 165.961 1.73327 -4.27499 0
M  V30 1720 H 164.204 1.56542 -4.0457 0
M  V30 1721 H 164.875 3.1177 -4.55525 0
M  V30 1722 H 167.351 3.2234 -2.63128 0
M  V30 1723 H 166.227 4.51907 -3.11563 0
M  V30 1724 H 166.488 4.19012 -1.41001 0
M  V30 1725 N 165.547 1.27147 0.931209 0
M  V30 1726 C 166.958 1.12044 1.49342 0
M  V30 1727 C 167.309 -0.295795 1.93957 0
M  V30 1728 O 166.434 -1.18835 1.80852 0
M  V30 1729 C 167.029 2.02781 2.71414 0
M  V30 1730 C 165.588 1.91794 3.2387 0
M  V30 1731 C 164.735 1.95543 1.96617 0
M  V30 1732 H 167.686 1.40091 0.745672 0
M  V30 1733 H 167.707 1.58156 3.46074 0
M  V30 1734 H 167.219 3.05848 2.38911 0
M  V30 1735 H 165.32 0.916992 3.6114 0
M  V30 1736 H 165.433 2.77852 3.90302 0
M  V30 1737 H 163.797 1.39722 2.12955 0
M  V30 1738 H 164.58 3.00259 1.66432 0
M  V30 1739 N 167.025 -1.13721 1.09112 0
M  V30 1740 C 167.972 -2.19031 0.727591 0
M  V30 1741 C 168.942 -1.63555 -0.289656 0
M  V30 1742 O 170.127 -1.90023 -0.172026 0
M  V30 1743 C 167.267 -3.4477 0.15082 0
M  V30 1744 C 166.38 -4.14365 1.22172 0
M  V30 1745 C 165.515 -5.27709 0.608042 0
M  V30 1746 C 164.554 -5.89147 1.66047 0
M  V30 1747 N 163.691 -6.93929 1.06806 0
M  V30 1748 H 168.531 -2.49475 1.62991 0
M  V30 1749 H 166.068 -1.22499 0.81439 0
M  V30 1750 H 168.026 -4.16714 -0.201358 0
M  V30 1751 H 166.656 -3.14787 -0.714783 0
M  V30 1752 H 165.708 -3.40737 1.69122 0
M  V30 1753 H 167.02 -4.56114 2.01895 0
M  V30 1754 H 166.174 -6.06355 0.204523 0
M  V30 1755 H 164.913 -4.872 -0.220769 0
M  V30 1756 H 163.918 -5.09198 2.07357 0
M  V30 1757 H 165.143 -6.31729 2.49189 0
M  V30 1758 H 163.089 -6.55483 0.260476 0
M  V30 1759 H 163.006 -7.34202 1.8023 0
M  V30 1760 H 164.274 -7.76434 0.690644 0
M  V30 1761 N 168.503 -0.877838 -1.30888 0
M  V30 1762 C 169.435 -0.296607 -2.27273 0
M  V30 1763 C 170.448 0.544799 -1.53414 0
M  V30 1764 O 171.637 0.365511 -1.74718 0
M  V30 1765 C 168.737 0.597481 -3.33592 0
M  V30 1766 C 167.91 -0.213251 -4.3688 0
M  V30 1767 C 166.969 0.610208 -5.2265 0
M  V30 1768 O 165.995 0.035441 -5.69189 0
M  V30 1769 N 167.197 1.92071 -5.47804 0
M  V30 1770 H 169.962 -1.12492 -2.77787 0
M  V30 1771 H 167.523 -0.740105 -1.43993 0
M  V30 1772 H 169.515 1.15425 -3.87891 0
M  V30 1773 H 168.085 1.32647 -2.83061 0
M  V30 1774 H 167.305 -0.951466 -3.82545 0
M  V30 1775 H 168.593 -0.769262 -5.02951 0
M  V30 1776 H 167.991 2.4107 -5.11763 0
M  V30 1777 H 166.548 2.42508 -6.05007 0
M  V30 1778 N 169.982 1.44106 -0.638065 0
M  V30 1779 C 170.945 2.29138 0.0531013 0
M  V30 1780 C 171.945 1.41409 0.765506 0
M  V30 1781 O 173.135 1.63206 0.609046 0
M  V30 1782 C 170.267 3.23144 1.08584 0
M  V30 1783 H 171.46 2.91739 -0.694883 0
M  V30 1784 H 169.013 1.51134 -0.398538 0
M  V30 1785 H 169.748 2.65408 1.86357 0
M  V30 1786 H 169.533 3.87804 0.578852 0
M  V30 1787 H 171.023 3.87004 1.56899 0
M  V30 1788 N 171.46 0.379036 1.52974 0
M  V30 1789 C 172.707 -0.206421 2.01445 0
M  V30 1790 C 173.035 -1.47668 1.26587 0
M  V30 1791 O 172.29 -1.92514 0.351675 0
M  V30 1792 C 172.589 -0.53096 3.53434 0
M  V30 1793 C 172.255 0.646546 4.46241 0
M  V30 1794 C 170.917 0.969604 4.7133 0
M  V30 1795 C 173.269 1.43479 5.01062 0
M  V30 1796 C 170.597 2.08263 5.48492 0
M  V30 1797 C 172.949 2.53834 5.7944 0
M  V30 1798 C 171.613 2.86659 6.02812 0
M  V30 1799 H 170.883 -0.0755349 0.73714 0
M  V30 1800 H 173.53 0.514271 1.84465 0
M  V30 1801 H 171.835 -1.33285 3.68432 0
M  V30 1802 H 173.532 -0.996417 3.88423 0
M  V30 1803 H 170.122 0.384734 4.2687 0
M  V30 1804 H 174.306 1.19844 4.81613 0
M  V30 1805 H 169.562 2.34078 5.64816 0
M  V30 1806 H 173.736 3.15319 6.20924 0
M  V30 1807 H 171.363 3.73026 6.62387 0
M  V30 1808 N 172.938 -1.57226 0.108567 0
M  V30 1809 C 174.166 -1.99179 -0.559954 0
M  V30 1810 C 174.581 -0.988022 -1.60884 0
M  V30 1811 O 173.938 0.0205512 -1.82488 0
M  V30 1812 C 173.989 -3.41159 -1.19552 0
M  V30 1813 O 173.71 -4.37694 -0.188577 0
M  V30 1814 C 175.211 -3.98188 -1.94837 0
M  V30 1815 H 172.431 -0.654228 -0.149088 0
M  V30 1816 H 174.975 -2.03598 0.19183 0
M  V30 1817 H 173.13 -3.37711 -1.89815 0
M  V30 1818 H 173.544 -5.20469 -0.649014 0
M  V30 1819 H 175.018 -4.99644 -2.34648 0
M  V30 1820 H 175.495 -3.3675 -2.81951 0
M  V30 1821 H 176.101 -4.0515 -1.2936 0
M  V30 1822 N 174.416 0.165178 -1.56732 0
M  V30 1823 C 175.693 0.908443 -1.73224 0
M  V30 1824 C 176.073 2.0013 -0.67165 0
M  V30 1825 O 175.421 2.26353 0.31253 0
M  V30 1826 C 175.631 1.46756 -3.16644 0
M  V30 1827 C 176.979 1.93809 -3.77787 0
M  V30 1828 O 178.003 1.56537 -3.1996 0
M  V30 1829 O 176.862 2.62486 -4.79336 0
M  V30 1830 H 173.956 0.428025 -0.707618 0
M  V30 1831 H 176.502 0.152526 -1.69013 0
M  V30 1832 H 175.274 0.68129 -3.85323 0
M  V30 1833 H 174.897 2.28749 -3.25207 0
M  V30 1834 N 175.894 1.51508 0.433938 0
M  V30 1835 C 177.14 1.64588 1.18484 0
M  V30 1836 C 177.473 0.362666 1.90784 0
M  V30 1837 O 176.748 -0.637892 1.83742 0
M  V30 1838 C 177.031 2.85149 2.19913 0
M  V30 1839 C 176.884 4.23456 1.51674 0
M  V30 1840 C 178.203 3.01227 3.20858 0
M  V30 1841 H 175.322 0.598994 0.429389 0
M  V30 1842 H 177.964 1.84002 0.473647 0
M  V30 1843 H 176.114 2.68729 2.80566 0
M  V30 1844 H 177.786 4.51552 0.943322 0
M  V30 1845 H 176.029 4.25998 0.819035 0
M  V30 1846 H 176.7 5.03812 2.2556 0
M  V30 1847 H 179.176 3.16382 2.70263 0
M  V30 1848 H 178.052 3.87141 3.89118 0
M  V30 1849 H 178.313 2.13447 3.8716 0
M  V30 1850 N 177.372 -0.689602 1.41712 0
M  V30 1851 C 178.335 -1.78521 1.43746 0
M  V30 1852 C 179.335 -1.57436 0.327191 0
M  V30 1853 O 180.525 -1.64 0.587348 0
M  V30 1854 C 177.657 -3.16971 1.25467 0
M  V30 1855 H 178.85 -1.78108 2.41283 0
M  V30 1856 H 176.403 -0.89781 1.27942 0
M  V30 1857 H 177.138 -3.23019 0.287948 0
M  V30 1858 H 176.923 -3.33678 2.05917 0
M  V30 1859 H 178.413 -3.96935 1.2974 0
M  V30 1860 N 178.85 -1.27639 -0.924453 0
M  V30 1861 C 180.078 -1.16989 -1.70649 0
M  V30 1862 C 180.493 0.272869 -1.86818 0
M  V30 1863 O 179.85 1.18549 -1.38753 0
M  V30 1864 C 179.901 -1.85229 -3.10439 0
M  V30 1865 O 179.622 -3.23868 -2.95028 0
M  V30 1866 C 181.123 -1.80746 -4.04779 0
M  V30 1867 H 178.343 -0.406595 -0.53378 0
M  V30 1868 H 180.887 -1.68569 -1.15778 0
M  V30 1869 H 179.042 -1.37545 -3.6216 0
M  V30 1870 H 179.456 -3.57889 -3.83426 0
M  V30 1871 H 180.93 -2.33101 -5.00368 0
M  V30 1872 H 181.407 -0.777499 -4.32263 0
M  V30 1873 H 182.013 -2.28059 -3.58984 0
M  V30 1874 N 180.328 1.1314 -1.09713 0
M  V30 1875 C 181.576 1.84119 -0.833338 0
M  V30 1876 C 181.897 1.84097 0.642904 0
M  V30 1877 O 181.167 1.29881 1.46655 0
M  V30 1878 H 179.747 0.681766 -0.305293 0
M  V30 1879 H 182.409 1.37038 -1.38588 0
M  V30 1880 H 181.505 2.88543 -1.18951 0
M  V30 1881 N 181.806 0.884767 1.30421 0
M  V30 1882 C 183.031 0.517288 2.00845 0
M  V30 1883 C 183.456 -0.886779 1.65885 0
M  V30 1884 O 182.814 -1.58768 0.875354 0
M  V30 1885 C 182.862 0.698994 3.5376 0
M  V30 1886 O 181.966 -0.255208 4.1161 0
M  V30 1887 H 181.307 0.203872 0.631927 0
M  V30 1888 H 183.837 1.19225 1.66272 0
M  V30 1889 H 183.847 0.597912 4.03595 0
M  V30 1890 H 182.522 1.72271 3.78544 0
M  V30 1891 H 181.099 -0.10784 3.72744 0
M  V30 1892 N 183.284 -1.43765 0.645699 0
M  V30 1893 C 184.214 -2.33471 -0.0370477 0
M  V30 1894 C 185.195 -1.49042 -0.819779 0
M  V30 1895 O 186.38 -1.77726 -0.782758 0
M  V30 1896 C 183.51 -3.32311 -1.0093 0
M  V30 1897 C 182.464 -4.2667 -0.337201 0
M  V30 1898 C 181.79 -5.1549 -1.42037 0
M  V30 1899 C 183.09 -5.16657 0.765706 0
M  V30 1900 H 184.784 -2.90809 0.712069 0
M  V30 1901 H 182.33 -1.39834 0.343876 0
M  V30 1902 H 184.283 -3.9396 -1.49578 0
M  V30 1903 H 183.007 -2.73213 -1.78948 0
M  V30 1904 H 181.666 -3.66374 0.128771 0
M  V30 1905 H 181.314 -4.52735 -2.1918 0
M  V30 1906 H 181.014 -5.79438 -0.975966 0
M  V30 1907 H 182.538 -5.80012 -1.90838 0
M  V30 1908 H 183.952 -5.72158 0.361702 0
M  V30 1909 H 182.349 -5.89286 1.13413 0
M  V30 1910 H 183.419 -4.56796 1.62683 0
M  V30 1911 N 184.763 -0.387143 -1.52771 0
M  V30 1912 C 186.011 0.195349 -2.01154 0
M  V30 1913 C 186.332 1.475 -1.27549 0
M  V30 1914 O 185.602 1.91878 -0.394924 0
M  V30 1915 H 184.182 0.075178 -0.743207 0
M  V30 1916 H 186.844 -0.518337 -1.87881 0
M  V30 1917 H 185.94 0.407096 -3.09434 0
M  V30 1918 N 186.241 1.57166 -0.116904 0
M  V30 1919 C 187.173 2.12271 0.864507 0
M  V30 1920 C 188.186 1.06494 1.23138 0
M  V30 1921 O 189.375 1.33873 1.18069 0
M  V30 1922 C 186.475 2.60564 2.16702 0
M  V30 1923 C 185.648 3.90416 1.97216 0
M  V30 1924 C 184.707 4.24329 3.11178 0
M  V30 1925 O 183.733 4.93182 2.84184 0
M  V30 1926 N 184.935 3.8148 4.37554 0
M  V30 1927 H 187.7 2.97102 0.393726 0
M  V30 1928 H 185.261 1.61759 0.0675805 0
M  V30 1929 H 187.253 2.80282 2.91932 0
M  V30 1930 H 185.823 1.80623 2.55135 0
M  V30 1931 H 185.043 3.79627 1.06192 0
M  V30 1932 H 186.331 4.75327 1.81499 0
M  V30 1933 H 185.729 3.25943 4.62361 0
M  V30 1934 H 184.286 4.06311 5.09661 0
M  V30 1935 N 187.719 -0.156864 1.56817 0
M  V30 1936 C 188.967 -0.869404 1.82444 0
M  V30 1937 C 189.288 -1.82147 0.69623 0
M  V30 1938 O 188.558 -1.93847 -0.28287 0
M  V30 1939 H 187.138 -0.324043 0.673056 0
M  V30 1940 H 189.8 -0.153224 1.94297 0
M  V30 1941 H 188.896 -1.43761 2.77019 0
M  V30 1942 N 189.197 -1.51736 -0.425897 0
M  V30 1943 C 190.127 -1.76827 -1.52494 0
M  V30 1944 C 191.108 -0.618524 -1.58456 0
M  V30 1945 O 192.293 -0.862416 -1.74 0
M  V30 1946 C 189.423 -1.90374 -2.90474 0
M  V30 1947 C 188.377 -3.0588 -2.99369 0
M  V30 1948 C 187.703 -3.04625 -4.3944 0
M  V30 1949 C 189.003 -4.45644 -2.72394 0
M  V30 1950 H 190.697 -2.68855 -1.31748 0
M  V30 1951 H 188.243 -1.29372 -0.632362 0
M  V30 1952 H 190.196 -2.0651 -3.6733 0
M  V30 1953 H 188.92 -0.95004 -3.12477 0
M  V30 1954 H 187.579 -2.89467 -2.24954 0
M  V30 1955 H 187.227 -2.0701 -4.58428 0
M  V30 1956 H 186.927 -3.82195 -4.46319 0
M  V30 1957 H 188.451 -3.22869 -5.18255 0
M  V30 1958 H 189.865 -4.62348 -3.38979 0
M  V30 1959 H 188.262 -5.25006 -2.9067 0
M  V30 1960 H 189.332 -4.54893 -1.67929 0
M  V30 1961 N 190.675 0.682077 -1.42076 0
M  V30 1962 C 191.923 1.4393 -1.41876 0
M  V30 1963 C 192.244 1.94971 -0.0335599 0
M  V30 1964 O 191.514 1.72591 0.926773 0
M  V30 1965 H 190.094 0.534085 -0.522267 0
M  V30 1966 H 192.756 0.806427 -1.77434 0
M  V30 1967 H 191.852 2.29588 -2.11414 0
M  V30 1968 N 192.153 1.28127 0.917671 0
M  V30 1969 C 193.116 1.11744 2.00115 0
M  V30 1970 C 194.116 0.0583052 1.60694 0
M  V30 1971 O 195.306 0.303755 1.71531 0
M  V30 1972 C 192.438 0.704862 3.33533 0
M  V30 1973 H 193.631 2.07966 2.16079 0
M  V30 1974 H 191.184 1.11058 1.09981 0
M  V30 1975 H 191.919 -0.258299 3.2327 0
M  V30 1976 H 191.704 1.4699 3.63505 0
M  V30 1977 H 193.194 0.612768 4.1308 0
M  V30 1978 N 193.631 -1.12557 1.10312 0
M  V30 1979 C 194.594 -2.16434 0.75424 0
M  V30 1980 C 195.594 -1.59278 -0.220685 0
M  V30 1981 O 196.784 -1.742 0.00230591 0
M  V30 1982 C 193.916 -3.40699 0.116987 0
M  V30 1983 H 195.109 -2.48811 1.67431 0
M  V30 1984 H 192.662 -1.27542 0.903475 0
M  V30 1985 H 193.397 -3.13921 -0.813877 0
M  V30 1986 H 193.182 -3.83459 0.818613 0
M  V30 1987 H 194.672 -4.17451 -0.111387 0
M  V30 1988 N 195.109 -0.891671 -1.2995 0
M  V30 1989 C 196.349 -0.520296 -1.97667 0
M  V30 1990 C 196.713 0.914797 -1.68806 0
M  V30 1991 O 197.914 1.39263 -2.29911 0
M  V30 1992 C 196.185 -0.795222 -3.48441 0
M  V30 1993 S 197.744 -0.526953 -4.35624 0
M  V30 1994 H 194.562 -0.19333 -0.684211 0
M  V30 1995 H 197.164 -1.15238 -1.57926 0
M  V30 1996 H 195.868 -1.83805 -3.66938 0
M  V30 1997 H 195.399 -0.15095 -3.9311 0
M  V30 1998 H 197.414 0.631533 -4.92165 0
M  V30 1999 N 196.587 1.43421 -0.653314 0
M  V30 2000 C 197.835 2.01414 -0.166415 0
M  V30 2001 C 198.156 1.51803 1.22397 0
M  V30 2002 O 197.426 0.730693 1.81763 0
M  V30 2003 H 196.006 0.744703 -0.0585319 0
M  V30 2004 H 198.668 1.75629 -0.845003 0
M  V30 2005 H 197.764 3.11734 -0.151111 0
M  V30 2006 N 198.065 0.39524 1.52563 0
M  V30 2007 C 198.998 -0.4813 2.23067 0
M  V30 2008 C 199.976 -1.05927 1.23362 0
M  V30 2009 O 201.16 -1.10979 1.52368 0
M  V30 2010 C 198.287 -1.66676 2.9485 0
M  V30 2011 C 197.333 -1.21348 4.08873 0
M  V30 2012 S 198.166 -0.190102 5.35162 0
M  V30 2013 C 199.322 -1.38121 6.1047 0
M  V30 2014 H 199.555 0.117381 2.97068 0
M  V30 2015 H 197.088 0.179458 1.53354 0
M  V30 2016 H 199.046 -2.3466 3.36816 0
M  V30 2017 H 197.707 -2.23676 2.20518 0
M  V30 2018 H 196.9 -2.09877 4.58222 0
M  V30 2019 H 196.502 -0.612486 3.68951 0
M  V30 2020 H 198.794 -2.30726 6.37002 0
M  V30 2021 H 199.737 -0.928521 7.01986 0
M  V30 2022 H 200.145 -1.60071 5.41329 0
M  V30 2023 N 199.544 -1.57102 0.125237 0
M  V30 2024 C 200.507 -2.14471 -0.80838 0
M  V30 2025 C 201.507 -1.0811 -1.19033 0
M  V30 2026 O 202.697 -1.33856 -1.11482 0
M  V30 2027 C 199.829 -2.69005 -2.09402 0
M  V30 2028 H 201.022 -2.98297 -0.309696 0
M  V30 2029 H 198.575 -1.55807 -0.124051 0
M  V30 2030 H 199.31 -1.88785 -2.63687 0
M  V30 2031 H 199.095 -3.46799 -1.82957 0
M  V30 2032 H 200.585 -3.13278 -2.76128 0
M  V30 2033 N 201.022 0.148545 -1.56898 0
M  V30 2034 C 202.252 0.875118 -1.8715 0
M  V30 2035 C 202.66 1.75322 -0.711262 0
M  V30 2036 O 202.003 1.80745 0.328151 0
M  V30 2037 C 202.065 1.7844 -3.12089 0
M  V30 2038 C 201.729 1.08361 -4.43967 0
M  V30 2039 C 202.726 0.438247 -5.1805 0
M  V30 2040 C 200.411 1.07358 -4.90693 0
M  V30 2041 C 202.405 -0.20779 -6.37061 0
M  V30 2042 C 200.092 0.42373 -6.09629 0
M  V30 2043 C 201.09 -0.215829 -6.82659 0
M  V30 2044 O 200.778 -0.855378 -7.99336 0
M  V30 2045 H 200.51 0.258504 -0.624621 0
M  V30 2046 H 203.064 0.14652 -2.04877 0
M  V30 2047 H 201.294 2.55389 -2.90367 0
M  V30 2048 H 202.983 2.38279 -3.286 0
M  V30 2049 H 203.749 0.437817 -4.8302 0
M  V30 2050 H 199.628 1.5608 -4.33774 0
M  V30 2051 H 203.172 -0.70758 -6.94002 0
M  V30 2052 H 199.069 0.421822 -6.4412 0
M  V30 2053 H 199.837 -0.756892 -8.14993 0
M  V30 2054 N 202.5 1.5196 0.417844 0
M  V30 2055 C 203.728 1.69426 1.18753 0
M  V30 2056 C 204.143 0.399955 1.84515 0
M  V30 2057 O 203.5 -0.623288 1.71527 0
M  V30 2058 C 203.551 2.82375 2.25714 0
M  V30 2059 O 203.272 4.06793 1.62638 0
M  V30 2060 C 204.773 3.11277 3.15628 0
M  V30 2061 H 201.993 0.568031 0.357186 0
M  V30 2062 H 204.537 1.98475 0.49273 0
M  V30 2063 H 202.692 2.5587 2.90877 0
M  V30 2064 H 203.106 4.69667 2.3348 0
M  V30 2065 H 204.58 3.93843 3.86771 0
M  V30 2066 H 205.057 2.24473 3.77503 0
M  V30 2067 H 205.663 3.39515 2.56144 0
M  V30 2068 N 203.978 -0.674533 1.42435 0
M  V30 2069 C 205.226 -1.43175 1.42637 0
M  V30 2070 C 205.547 -1.94951 0.0438992 0
M  V30 2071 O 204.817 -1.7308 -0.917607 0
M  V30 2072 H 203.397 -0.531307 0.525092 0
M  V30 2073 H 206.059 -0.797006 1.77859 0
M  V30 2074 H 205.155 -2.28463 2.12629 0
M  V30 2075 N 205.456 -1.28612 -0.910864 0
M  V30 2076 C 206.403 -1.12786 -2.01365 0
M  V30 2077 C 207.373 -0.024201 -1.66082 0
M  V30 2078 O 208.558 -0.189667 -1.89855 0
M  V30 2079 C 205.698 -0.798743 -3.35729 0
M  V30 2080 C 204.811 -1.98173 -3.83864 0
M  V30 2081 C 203.946 -1.59298 -5.06752 0
M  V30 2082 C 202.985 -2.74245 -5.47226 0
M  V30 2083 N 202.122 -2.35842 -6.61304 0
M  V30 2084 H 206.962 -2.07142 -2.14234 0
M  V30 2085 H 204.499 -1.03093 -1.0493 0
M  V30 2086 H 206.457 -0.588662 -4.13026 0
M  V30 2087 H 205.087 0.10789 -3.2262 0
M  V30 2088 H 204.139 -2.30386 -3.02699 0
M  V30 2089 H 205.451 -2.84343 -4.09818 0
M  V30 2090 H 204.605 -1.34513 -5.916 0
M  V30 2091 H 203.344 -0.702618 -4.82612 0
M  V30 2092 H 202.349 -2.99725 -4.60918 0
M  V30 2093 H 203.574 -3.63928 -5.73353 0
M  V30 2094 H 201.52 -1.49279 -6.38789 0
M  V30 2095 H 201.437 -3.15546 -6.86998 0
M  V30 2096 H 202.705 -2.14348 -7.4945 0
M  V30 2097 N 206.934 1.1197 -1.10907 0
M  V30 2098 C 208.164 1.8713 -0.875553 0
M  V30 2099 C 208.572 1.8016 0.577843 0
M  V30 2100 O 207.915 1.17699 1.41042 0
M  V30 2101 C 207.977 3.37005 -1.2517 0
M  V30 2102 C 207.641 3.67748 -2.71313 0
M  V30 2103 C 208.638 3.65698 -3.69542 0
M  V30 2104 C 206.323 3.96928 -3.07821 0
M  V30 2105 C 208.317 3.92395 -5.023 0
M  V30 2106 C 206.004 4.23284 -4.40765 0
M  V30 2107 C 207.002 4.21005 -5.37814 0
M  V30 2108 O 206.69 4.46704 -6.68364 0
M  V30 2109 H 206.422 0.598786 -0.313737 0
M  V30 2110 H 208.976 1.42568 -1.47863 0
M  V30 2111 H 207.206 3.82146 -0.591741 0
M  V30 2112 H 208.895 3.93519 -0.994877 0
M  V30 2113 H 209.661 3.43211 -3.42682 0
M  V30 2114 H 205.54 3.97841 -2.32902 0
M  V30 2115 H 209.084 3.90531 -5.78041 0
M  V30 2116 H 204.981 4.45246 -4.67361 0
M  V30 2117 H 205.749 4.64299 -6.74069 0
M  V30 2118 N 208.412 0.89855 1.29475 0
M  V30 2119 C 209.659 0.523882 1.95606 0
M  V30 2120 C 209.987 -0.929608 1.70847 0
M  V30 2121 O 209.242 -1.67401 1.01367 0
M  V30 2122 C 209.541 0.761398 3.49195 0
M  V30 2123 C 209.207 2.19207 3.94029 0
M  V30 2124 C 207.869 2.58326 4.05982 0
M  V30 2125 C 210.221 3.12379 4.17216 0
M  V30 2126 C 207.549 3.898 4.38489 0
M  V30 2127 C 209.901 4.43401 4.51197 0
M  V30 2128 C 208.565 4.82394 4.61359 0
M  V30 2129 H 207.835 0.191702 0.715773 0
M  V30 2130 H 210.482 1.13699 1.54094 0
M  V30 2131 H 208.787 0.0653622 3.91745 0
M  V30 2132 H 210.484 0.450904 3.98457 0
M  V30 2133 H 207.074 1.87846 3.85242 0
M  V30 2134 H 211.258 2.83371 4.07449 0
M  V30 2135 H 206.514 4.19734 4.44559 0
M  V30 2136 H 210.688 5.15623 4.68087 0
M  V30 2137 H 208.315 5.84306 4.86303 0
M  V30 2138 N 209.89 -1.43072 0.660911 0
M  V30 2139 C 211.167 -1.95307 0.107017 0
M  V30 2140 C 211.547 -1.60192 -1.37484 0
M  V30 2141 O 210.895 -0.890949 -2.10415 0
M  V30 2142 C 211.105 -3.47124 0.361402 0
M  V30 2143 C 212.453 -4.23738 0.270455 0
M  V30 2144 O 213.477 -3.54981 0.294382 0
M  V30 2145 O 212.336 -5.46131 0.200737 0
M  V30 2146 H 209.43 -0.826984 -0.00517729 0
M  V30 2147 H 211.976 -1.52972 0.734681 0
M  V30 2148 H 210.748 -3.65837 1.38848 0
M  V30 2149 H 210.371 -3.96475 -0.298953 0
M  V30 2150 N 211.368 -0.403325 -1.52352 0
M  V30 2151 C 212.315 0.425011 -2.26853 0
M  V30 2152 C 213.285 1.04598 -1.29029 0
M  V30 2153 O 214.47 1.07135 -1.57882 0
M  V30 2154 C 211.61 1.53888 -3.08889 0
M  V30 2155 C 210.723 0.939396 -4.21663 0
M  V30 2156 C 209.858 2.02547 -4.91068 0
M  V30 2157 C 208.897 1.40263 -5.95813 0
M  V30 2158 N 208.034 2.4286 -6.58759 0
M  V30 2159 H 212.874 -0.21674 -2.97211 0
M  V30 2160 H 210.411 -0.118722 -1.4662 0
M  V30 2161 H 212.369 2.19558 -3.54753 0
M  V30 2162 H 210.999 2.15074 -2.40714 0
M  V30 2163 H 210.051 0.171898 -3.80011 0
M  V30 2164 H 211.363 0.44436 -4.96817 0
M  V30 2165 H 210.517 2.75958 -5.40308 0
M  V30 2166 H 209.256 2.55415 -4.15469 0
M  V30 2167 H 208.261 0.653833 -5.45898 0
M  V30 2168 H 209.486 0.881719 -6.73352 0
M  V30 2169 H 207.432 2.94871 -5.85992 0
M  V30 2170 H 207.349 1.98152 -7.2957 0
M  V30 2171 H 208.617 3.15858 -7.12639 0
M  V30 2172 N 212.846 1.57033 -0.133567 0
M  V30 2173 C 213.809 2.14897 0.796995 0
M  V30 2174 C 214.809 1.0874 1.18458 0
M  V30 2175 O 215.999 1.34446 1.1077 0
M  V30 2176 C 213.131 2.70112 2.07973 0
M  V30 2177 H 214.324 2.98457 0.293873 0
M  V30 2178 H 211.877 1.55871 0.115787 0
M  V30 2179 H 212.612 1.9018 2.62682 0
M  V30 2180 H 212.397 3.47764 1.81115 0
M  V30 2181 H 213.887 3.14738 2.74462 0
M  V30 2182 N 214.325 -0.140222 1.56975 0
M  V30 2183 C 215.55 -0.870414 1.88251 0
M  V30 2184 C 215.975 -1.73637 0.723312 0
M  V30 2185 O 215.333 -1.78329 -0.32689 0
M  V30 2186 C 215.381 -1.69737 3.18154 0
M  V30 2187 O 214.485 -2.80229 3.02565 0
M  V30 2188 H 213.826 -0.242025 0.61832 0
M  V30 2189 H 216.356 -0.128999 2.04193 0
M  V30 2190 H 216.366 -2.09099 3.50345 0
M  V30 2191 H 215.041 -1.06152 4.02125 0
M  V30 2192 H 213.618 -2.44224 2.81796 0
M  V30 2193 N 215.803 -1.52179 -0.40978 0
M  V30 2194 C 217.033 -1.69807 -1.17682 0
M  V30 2195 C 217.441 -0.406908 -1.84773 0
M  V30 2196 O 216.784 0.626863 -1.72673 0
M  V30 2197 C 216.846 -2.77712 -2.2829 0
M  V30 2198 C 216.51 -4.19481 -1.81341 0
M  V30 2199 C 217.507 -5.03345 -1.30154 0
M  V30 2200 C 215.192 -4.65713 -1.88194 0
M  V30 2201 C 217.186 -6.31511 -0.864416 0
M  V30 2202 C 214.873 -5.93869 -1.44093 0
M  V30 2203 C 215.871 -6.76597 -0.933023 0
M  V30 2204 O 215.559 -8.02354 -0.49838 0
M  V30 2205 H 215.291 -0.572372 -0.359675 0
M  V30 2206 H 217.845 -1.99511 -0.488311 0
M  V30 2207 H 216.075 -2.43383 -3.00502 0
M  V30 2208 H 217.764 -2.83946 -2.90051 0
M  V30 2209 H 218.53 -4.68819 -1.24232 0
M  V30 2210 H 214.409 -4.01424 -2.26671 0
M  V30 2211 H 217.953 -6.96033 -0.467286 0
M  V30 2212 H 213.85 -6.27903 -1.49694 0
M  V30 2213 H 214.618 -8.16135 -0.621747 0
M  V30 2214 N 217.281 0.66697 -1.42791 0
M  V30 2215 C 218.697 0.981027 -1.25889 0
M  V30 2216 C 218.897 2.00793 -0.168695 0
M  V30 2217 O 217.953 2.48321 0.45747 0
M  V30 2218 C 219.266 1.47838 -2.61848 0
M  V30 2219 C 220.814 1.59575 -2.69267 0
M  V30 2220 C 221.289 2.12704 -4.05612 0
M  V30 2221 N 222.78 2.20026 -4.07606 0
M  V30 2222 C 223.515 2.62227 -5.09926 0
M  V30 2223 N 223.011 3.03824 -6.22626 0
M  V30 2224 N 224.804 2.62045 -4.97281 0
M  V30 2225 H 216.955 -0.0127891 -2.12396 0
M  V30 2226 H 219.218 0.0568258 -0.946295 0
M  V30 2227 H 218.924 0.798299 -3.4252 0
M  V30 2228 H 218.798 2.45579 -2.86305 0
M  V30 2229 H 221.185 2.26687 -1.88936 0
M  V30 2230 H 221.266 0.60302 -2.48591 0
M  V30 2231 H 220.91 1.46198 -4.86404 0
M  V30 2232 H 220.84 3.12782 -4.23645 0
M  V30 2233 H 223.331 1.90708 -3.2625 0
M  V30 2234 H 223.644 3.34734 -6.96544 0
M  V30 2235 H 221.989 3.01662 -6.26119 0
M  V30 2236 H 225.18 2.28916 -4.08308 0
M  V30 2237 H 225.353 2.94613 -5.77154 0
M  V30 2238 N 218.759 1.29093 0.90403 0
M  V30 2239 C 220.005 1.16986 1.65656 0
M  V30 2240 C 220.338 -0.278925 1.92186 0
M  V30 2241 O 219.613 -1.2019 1.5292 0
M  V30 2242 C 219.896 1.97908 3.0084 0
M  V30 2243 C 219.749 3.50903 2.81403 0
M  V30 2244 C 221.068 1.80208 4.01513 0
M  V30 2245 H 218.187 0.426346 0.601164 0
M  V30 2246 H 220.829 1.58518 1.04747 0
M  V30 2247 H 218.979 1.62616 3.52829 0
M  V30 2248 H 220.651 3.96153 2.36348 0
M  V30 2249 H 218.894 3.76045 2.1627 0
M  V30 2250 H 219.565 4.02791 3.77443 0
M  V30 2251 H 222.041 2.11025 3.58619 0
M  V30 2252 H 220.917 2.39184 4.94047 0
M  V30 2253 H 221.178 0.756119 4.35586 0
M  V30 2254 N 220.237 -1.11381 1.11499 0
M  V30 2255 C 221.467 -1.86663 0.885464 0
M  V30 2256 C 221.875 -1.80464 -0.568281 0
M  V30 2257 O 221.218 -1.18445 -1.40415 0
M  V30 2258 C 221.28 -3.36337 1.26956 0
M  V30 2259 C 220.944 -3.66304 2.73259 0
M  V30 2260 C 221.941 -3.63733 3.71476 0
M  V30 2261 C 219.626 -3.9529 3.09921 0
M  V30 2262 C 221.62 -3.89725 5.04374 0
M  V30 2263 C 219.307 -4.20941 4.43004 0
M  V30 2264 C 220.305 -4.18147 5.40039 0
M  V30 2265 O 219.993 -4.43153 6.70724 0
M  V30 2266 H 219.725 -0.597114 0.316908 0
M  V30 2267 H 222.279 -1.41782 1.48617 0
M  V30 2268 H 220.509 -3.81826 0.611999 0
M  V30 2269 H 222.198 -3.92986 1.01573 0
M  V30 2270 H 222.964 -3.41389 3.44498 0
M  V30 2271 H 218.843 -3.966 2.35009 0
M  V30 2272 H 222.387 -3.8746 5.80104 0
M  V30 2273 H 218.284 -4.42761 4.69716 0
M  V30 2274 H 219.052 -4.60717 6.76522 0
M  V30 2275 N 221.715 -0.905404 -1.28997 0
M  V30 2276 C 222.955 -0.541232 -1.97104 0
M  V30 2277 C 223.319 0.896841 -1.69767 0
M  V30 2278 O 224.52 1.36817 -2.31375 0
M  V30 2279 C 222.791 -0.832134 -3.47578 0
M  V30 2280 S 224.35 -0.573127 -4.35041 0
M  V30 2281 H 221.168 -0.200576 -0.682122 0
M  V30 2282 H 223.77 -1.16906 -1.56694 0
M  V30 2283 H 222.474 -1.87687 -3.64968 0
M  V30 2284 H 222.005 -0.192636 -3.92928 0
M  V30 2285 H 224.02 0.579297 -4.92807 0
M  V30 2286 N 223.193 1.4272 -0.668489 0
M  V30 2287 C 224.123 2.335 -0.000100175 0
M  V30 2288 C 225.104 1.50328 0.795964 0
M  V30 2289 O 226.289 1.78949 0.754385 0
M  V30 2290 C 223.419 3.33874 0.956302 0
M  V30 2291 C 222.373 4.27152 0.269278 0
M  V30 2292 C 221.699 5.17684 1.33818 0
M  V30 2293 C 222.999 5.15373 -0.847805 0
M  V30 2294 H 224.693 2.89639 -0.758244 0
M  V30 2295 H 222.239 1.39269 -0.366079 0
M  V30 2296 H 224.192 3.9629 1.43292 0
M  V30 2297 H 222.916 2.76025 1.74579 0
M  V30 2298 H 221.575 3.66123 -0.187042 0
M  V30 2299 H 221.223 4.56165 2.1195 0
M  V30 2300 H 220.923 5.80918 0.883659 0
M  V30 2301 H 222.447 5.82974 1.81586 0
M  V30 2302 H 223.861 5.7151 -0.452681 0
M  V30 2303 H 222.258 5.87407 -1.22773 0
M  V30 2304 H 223.328 4.5415 -1.69929 0
M  V30 2305 N 224.671 0.411399 1.52136 0
M  V30 2306 C 225.601 -0.404015 2.29978 0
M  V30 2307 C 226.582 -1.04412 1.34284 0
M  V30 2308 O 227.767 -1.0527 1.63192 0
M  V30 2309 C 224.897 -1.5197 3.12286 0
M  V30 2310 C 223.851 -1.00448 4.16046 0
M  V30 2311 C 223.177 -2.21393 4.86712 0
M  V30 2312 C 224.477 -0.0569336 5.22269 0
M  V30 2313 H 226.171 0.245529 2.98392 0
M  V30 2314 H 223.717 0.119525 1.43503 0
M  V30 2315 H 225.67 -2.09715 3.6551 0
M  V30 2316 H 224.394 -2.19716 2.41646 0
M  V30 2317 H 223.053 -0.449421 3.63835 0
M  V30 2318 H 222.701 -2.87699 4.12599 0
M  V30 2319 H 222.401 -1.87571 5.56858 0
M  V30 2320 H 223.925 -2.7974 5.4275 0
M  V30 2321 H 225.339 -0.54325 5.7072 0
M  V30 2322 H 223.736 0.192594 5.99791 0
M  V30 2323 H 224.806 0.887663 4.76706 0
M  V30 2324 N 226.149 -1.5696 0.141893 0
M  V30 2325 C 227.397 -1.95573 -0.509484 0
M  V30 2326 C 227.718 -1.02746 -1.65736 0
M  V30 2327 O 226.988 -0.0880311 -1.95702 0
M  V30 2328 H 225.568 -0.722115 -0.191205 0
M  V30 2329 H 228.23 -1.93697 0.216196 0
M  V30 2330 H 227.326 -2.99171 -0.889 0
M  V30 2331 N 227.627 0.131896 -1.57047 0
M  V30 2332 C 228.904 0.871495 -1.75112 0
M  V30 2333 C 229.284 1.9866 -0.713949 0
M  V30 2334 O 228.632 2.26965 0.264447 0
M  V30 2335 C 228.842 1.40007 -3.19686 0
M  V30 2336 C 230.19 1.85752 -3.81813 0
M  V30 2337 O 231.214 1.49715 -3.23209 0
M  V30 2338 O 230.073 2.5226 -4.84796 0
M  V30 2339 H 227.167 0.412919 -0.716538 0
M  V30 2340 H 229.713 0.116641 -1.69299 0
M  V30 2341 H 228.485 0.599404 -3.86682 0
M  V30 2342 H 228.108 2.218 -3.29986 0
M  V30 2343 N 229.106 1.52395 0.401703 0
M  V30 2344 C 230.354 1.66488 1.14569 0
M  V30 2345 C 230.675 0.400897 1.90835 0
M  V30 2346 O 229.945 -0.584415 1.8698 0
M  V30 2347 H 228.525 0.613672 0.425929 0
M  V30 2348 H 231.187 1.89464 0.457093 0
M  V30 2349 H 230.283 2.50942 1.85566 0
M  V30 2350 N 230.584 -0.659388 1.43143 0
M  V30 2351 C 231.494 -1.80167 1.50256 0
M  V30 2352 C 232.51 -1.69571 0.390106 0
M  V30 2353 O 233.686 -1.90849 0.643319 0
M  V30 2354 C 230.751 -3.16409 1.41725 0
M  V30 2355 C 229.812 -3.38848 2.63591 0
M  V30 2356 C 229.045 -4.68591 2.55458 0
M  V30 2357 O 229.268 -5.47532 1.59891 0
M  V30 2358 O 228.202 -4.92614 3.45854 0
M  V30 2359 H 232.028 -1.77121 2.46702 0
M  V30 2360 H 229.613 -0.817092 1.25076 0
M  V30 2361 H 231.495 -3.9768 1.39387 0
M  V30 2362 H 230.17 -3.20059 0.484118 0
M  V30 2363 H 229.077 -2.57366 2.71502 0
M  V30 2364 H 230.41 -3.4004 3.55856 0
M  V30 2365 N 232.062 -1.29571 -0.897171 0
M  V30 2366 C 232.992 -1.17473 -2.01798 0
M  V30 2367 C 233.973 -0.068323 -1.69963 0
M  V30 2368 O 235.158 -0.248239 -1.92607 0
M  V30 2369 C 232.288 -0.853099 -3.36659 0
M  V30 2370 C 231.242 -1.9161 -3.82713 0
M  V30 2371 C 230.568 -1.44773 -5.14728 0
M  V30 2372 C 231.868 -3.32535 -4.02763 0
M  V30 2373 H 233.562 -2.11237 -2.12177 0
M  V30 2374 H 231.108 -1.01699 -1.01948 0
M  V30 2375 H 233.061 -0.755165 -4.14578 0
M  V30 2376 H 231.785 0.120236 -3.26379 0
M  V30 2377 H 230.444 -2.00346 -3.07013 0
M  V30 2378 H 230.092 -0.462995 -5.00865 0
M  V30 2379 H 229.792 -2.15865 -5.46513 0
M  V30 2380 H 231.316 -1.36334 -5.95185 0
M  V30 2381 H 232.73 -3.26626 -4.71156 0
M  V30 2382 H 231.127 -4.01607 -4.45905 0
M  V30 2383 H 232.197 -3.75326 -3.07016 0
M  V30 2384 N 233.54 1.10788 -1.12088 0
M  V30 2385 C 234.765 1.87002 -0.896949 0
M  V30 2386 C 235.19 1.79933 0.548261 0
M  V30 2387 O 234.548 1.16662 1.38779 0
M  V30 2388 C 234.596 3.3349 -1.37174 0
M  V30 2389 O 233.7 4.08745 -0.547831 0
M  V30 2390 H 233.041 0.580397 -0.322545 0
M  V30 2391 H 235.571 1.39996 -1.49206 0
M  V30 2392 H 235.581 3.84339 -1.36922 0
M  V30 2393 H 234.256 3.37951 -2.42408 0
M  V30 2394 H 232.833 3.6776 -0.617034 0
M  V30 2395 N 235.018 0.912232 1.28515 0
M  V30 2396 C 235.928 0.404506 2.31086 0
M  V30 2397 C 236.944 -0.50707 1.66448 0
M  V30 2398 O 238.12 -0.393624 1.97516 0
M  V30 2399 C 235.185 -0.348572 3.44943 0
M  V30 2400 C 234.246 0.59604 4.25142 0
M  V30 2401 C 233.479 -0.121194 5.33562 0
M  V30 2402 O 233.702 -1.34317 5.5436 0
M  V30 2403 O 232.636 0.542716 5.99448 0
M  V30 2404 H 236.462 1.25579 2.76521 0
M  V30 2405 H 234.047 0.676998 1.33181 0
M  V30 2406 H 235.929 -0.77395 4.14232 0
M  V30 2407 H 234.604 -1.17571 3.01594 0
M  V30 2408 H 233.511 1.07079 3.58448 0
M  V30 2409 H 234.844 1.38995 4.72167 0
M  V30 2410 N 236.496 -1.42363 0.676048 0
M  V30 2411 C 237.744 -2.01123 0.198437 0
M  V30 2412 C 238.065 -1.53731 -1.19966 0
M  V30 2413 O 237.335 -0.759518 -1.80577 0
M  V30 2414 H 235.915 -0.743678 0.0703721 0
M  V30 2415 H 238.577 -1.74263 0.872837 0
M  V30 2416 H 237.673 -3.11454 0.200686 0
M  V30 2417 N 237.974 -0.419461 -1.51915 0
M  V30 2418 C 239.199 0.154572 -2.06823 0
M  V30 2419 C 239.624 1.3722 -1.28656 0
M  V30 2420 O 238.982 1.78461 -0.319583 0
M  V30 2421 C 239.03 0.473172 -3.57482 0
M  V30 2422 O 238.134 1.56255 -3.81652 0
M  V30 2423 H 237.475 0.0096924 -0.663929 0
M  V30 2424 H 240.005 -0.595642 -1.95738 0
M  V30 2425 H 240.015 0.728825 -4.01438 0
M  V30 2426 H 238.69 -0.416873 -4.13805 0
M  V30 2427 H 237.267 1.29825 -3.49571 0
M  V30 2428 N 239.452 1.56882 -0.150215 0
M  V30 2429 C 240.698 1.96518 0.500834 0
M  V30 2430 C 241.031 1.03527 1.64304 0
M  V30 2431 O 240.306 0.0782751 1.94342 0
M  V30 2432 C 240.589 3.45822 1.00395 0
M  V30 2433 C 240.442 4.49591 -0.136983 0
M  V30 2434 C 241.761 3.97704 1.88467 0
M  V30 2435 H 238.88 0.714535 0.18058 0
M  V30 2436 H 241.522 1.88577 -0.232091 0
M  V30 2437 H 239.672 3.5272 1.62851 0
M  V30 2438 H 241.344 4.5477 -0.77343 0
M  V30 2439 H 239.587 4.26441 -0.795652 0
M  V30 2440 H 240.258 5.51402 0.256815 0
M  V30 2441 H 242.734 3.93304 1.35834 0
M  V30 2442 H 241.61 5.0263 2.20578 0
M  V30 2443 H 241.871 3.40252 2.82279 0
M  V30 2444 N 240.93 -0.123565 1.57115 0
M  V30 2445 C 242.176 -0.828428 1.85765 0
M  V30 2446 C 242.531 -1.77709 0.737371 0
M  V30 2447 O 241.824 -1.89787 -0.262978 0
M  V30 2448 C 242.018 -1.62016 3.18568 0
M  V30 2449 C 241.847 -0.749663 4.43407 0
M  V30 2450 C 240.617 -0.406251 5.03664 0
M  V30 2451 C 242.815 -0.0693505 5.14253 0
M  V30 2452 N 240.797 0.475389 6.12057 0
M  V30 2453 C 242.168 0.671474 6.16353 0
M  V30 2454 C 244.223 0.00754393 4.97899 0
M  V30 2455 C 242.926 1.48197 7.03868 0
M  V30 2456 C 244.952 0.804845 5.85898 0
M  V30 2457 C 244.314 1.53388 6.87497 0
M  V30 2458 H 240.413 -0.280219 0.73007 0
M  V30 2459 H 242.997 -0.0924183 1.94481 0
M  V30 2460 H 241.168 -2.32724 3.10957 0
M  V30 2461 H 242.9 -2.27 3.35042 0
M  V30 2462 H 239.655 -0.747446 4.67665 0
M  V30 2463 H 240.079 0.907924 6.70884 0
M  V30 2464 H 244.721 -0.541741 4.19315 0
M  V30 2465 H 242.439 2.04242 7.81864 0
M  V30 2466 H 246.025 0.866642 5.75309 0
M  V30 2467 H 244.905 2.1409 7.5441 0
M  V30 2468 N 242.408 -1.52605 -0.393616 0
M  V30 2469 C 243.318 -1.79971 -1.50492 0
M  V30 2470 C 244.334 -0.686181 -1.59899 0
M  V30 2471 O 245.51 -0.973274 -1.76322 0
M  V30 2472 C 242.575 -1.95867 -2.86072 0
M  V30 2473 C 241.636 -3.19781 -2.86424 0
M  V30 2474 C 240.869 -3.34909 -4.15538 0
M  V30 2475 O 241.092 -2.54948 -5.10253 0
M  V30 2476 O 240.026 -4.28141 -4.23059 0
M  V30 2477 H 243.852 -2.74328 -1.30299 0
M  V30 2478 H 241.437 -1.3764 -0.581005 0
M  V30 2479 H 243.319 -2.08056 -3.66457 0
M  V30 2480 H 241.994 -1.04699 -3.063 0
M  V30 2481 H 240.901 -3.13038 -2.04837 0
M  V30 2482 H 242.234 -4.1078 -2.71147 0
M  V30 2483 N 243.887 0.651787 -1.4349 0
M  V30 2484 C 244.85 1.74647 -1.48429 0
M  V30 2485 C 245.85 1.56513 -0.368817 0
M  V30 2486 O 247.04 1.62385 -0.630623 0
M  V30 2487 C 244.172 3.13533 -1.33827 0
M  V30 2488 H 245.365 1.71649 -2.4592 0
M  V30 2489 H 242.918 0.863573 -1.30277 0
M  V30 2490 H 243.653 3.22142 -0.37349 0
M  V30 2491 H 243.438 3.28101 -2.14691 0
M  V30 2492 H 244.928 3.93356 -1.40218 0
M  V30 2493 N 245.365 1.30045 0.890287 0
M  V30 2494 C 246.298 1.10301 1.99772 0
M  V30 2495 C 247.276 0.0121631 1.62595 0
M  V30 2496 O 248.46 0.16469 1.87779 0
M  V30 2497 C 245.587 0.681125 3.31781 0
M  V30 2498 C 244.633 1.77206 3.87944 0
M  V30 2499 S 245.466 3.37335 4.15891 0
M  V30 2500 C 246.622 2.97036 5.50927 0
M  V30 2501 H 246.855 2.04057 2.16213 0
M  V30 2502 H 244.388 1.14299 1.03804 0
M  V30 2503 H 246.346 0.444439 4.08087 0
M  V30 2504 H 245.007 -0.236981 3.13205 0
M  V30 2505 H 244.2 1.42903 4.83316 0
M  V30 2506 H 243.802 1.96275 3.18358 0
M  V30 2507 H 246.094 2.44666 6.31779 0
M  V30 2508 H 247.037 3.91296 5.90164 0
M  V30 2509 H 247.445 2.35057 5.13233 0
M  V30 2510 N 246.843 -1.10192 1.12674 0
M  V30 2511 C 247.806 -2.14786 0.799979 0
M  V30 2512 C 248.806 -1.59711 -0.18685 0
M  V30 2513 O 249.996 -1.74156 0.0392558 0
M  V30 2514 C 247.128 -3.40374 0.189228 0
M  V30 2515 H 248.321 -2.45203 1.72671 0
M  V30 2516 H 245.874 -1.25597 0.930326 0
M  V30 2517 H 246.609 -3.15577 -0.747107 0
M  V30 2518 H 246.394 -3.81637 0.899766 0
M  V30 2519 H 247.884 -4.17594 -0.0228143 0
M  V30 2520 N 248.321 -0.919034 -1.28029 0
M  V30 2521 C 249.568 -0.554934 -1.94748 0
M  V30 2522 C 249.896 0.90231 -1.72304 0
M  V30 2523 O 249.151 1.65767 -1.04018 0
M  V30 2524 C 249.45 -0.816855 -3.4794 0
M  V30 2525 C 249.116 -2.25448 -3.90492 0
M  V30 2526 C 247.778 -2.64752 -4.01821 0
M  V30 2527 C 250.13 -3.18977 -4.12193 0
M  V30 2528 C 247.458 -3.96727 -4.32232 0
M  V30 2529 C 249.81 -4.50523 -4.44086 0
M  V30 2530 C 248.474 -4.89673 -4.53626 0
M  V30 2531 H 247.744 -0.203065 -0.712633 0
M  V30 2532 H 250.391 -1.16136 -1.52265 0
M  V30 2533 H 248.696 -0.127677 -3.91592 0
M  V30 2534 H 250.393 -0.514238 -3.97689 0
M  V30 2535 H 246.983 -1.93952 -3.82205 0
M  V30 2536 H 251.167 -2.89817 -4.02889 0
M  V30 2537 H 246.423 -4.26754 -4.37825 0
M  V30 2538 H 250.597 -5.23005 -4.59825 0
M  V30 2539 H 248.224 -5.91969 -4.76946 0
M  V30 2540 N 249.799 1.42003 -0.683588 0
M  V30 2541 C 250.762 2.29191 -0.0198243 0
M  V30 2542 C 251.762 1.43773 0.72013 0
M  V30 2543 O 252.952 1.65061 0.556815 0
M  V30 2544 C 250.084 3.26435 0.982487 0
M  V30 2545 H 251.277 2.8938 -0.787345 0
M  V30 2546 H 248.83 1.49789 -0.446418 0
M  V30 2547 H 249.565 2.71203 1.77819 0
M  V30 2548 H 249.35 3.89449 0.455182 0
M  V30 2549 H 250.84 3.918 1.44508 0
M  V30 2550 N 251.277 0.427512 1.51691 0
M  V30 2551 C 252.502 -0.143601 2.06902 0
M  V30 2552 C 252.927 -1.36536 1.29382 0
M  V30 2553 O 252.285 -1.78289 0.329043 0
M  V30 2554 C 252.333 -0.454207 3.57728 0
M  V30 2555 O 251.437 -1.54228 3.82475 0
M  V30 2556 H 250.778 -0.00617128 0.663971 0
M  V30 2557 H 253.308 0.606014 1.95419 0
M  V30 2558 H 253.318 -0.707525 4.01818 0
M  V30 2559 H 251.993 0.438812 4.13579 0
M  V30 2560 H 250.57 -1.2797 3.50254 0
M  V30 2561 N 252.755 -1.56801 0.158532 0
M  V30 2562 C 254.004 -1.95665 -0.489702 0
M  V30 2563 C 254.317 -1.04654 -1.65248 0
M  V30 2564 O 255.523 -1.33146 -2.3661 0
M  V30 2565 C 253.979 -3.47874 -0.922582 0
M  V30 2566 C 253.587 -4.47489 0.213893 0
M  V30 2567 C 255.331 -3.95583 -1.53996 0
M  V30 2568 C 253.238 -5.90921 -0.237903 0
M  V30 2569 H 252.168 -0.730516 -0.186716 0
M  V30 2570 H 254.819 -1.81861 0.244722 0
M  V30 2571 H 253.201 -3.57051 -1.71261 0
M  V30 2572 H 254.375 -4.50017 0.991036 0
M  V30 2573 H 252.69 -4.09764 0.740407 0
M  V30 2574 H 255.287 -5.0019 -1.8898 0
M  V30 2575 H 255.63 -3.37789 -2.43319 0
M  V30 2576 H 256.163 -3.8937 -0.814611 0
M  V30 2577 H 252.902 -6.52559 0.620236 0
M  V30 2578 H 252.422 -5.91729 -0.980676 0
M  V30 2579 H 254.101 -6.43352 -0.686067 0
M  V30 2580 N 254.233 0.115231 -1.57178 0
M  V30 2581 C 255.463 0.835224 -1.88964 0
M  V30 2582 C 255.871 1.73774 -0.74829 0
M  V30 2583 O 255.214 1.81401 0.289739 0
M  V30 2584 C 255.276 1.7178 -3.15804 0
M  V30 2585 C 254.94 0.989198 -4.46166 0
M  V30 2586 C 255.937 0.328263 -5.18863 0
M  V30 2587 C 253.622 0.969256 -4.9286 0
M  V30 2588 C 255.616 -0.342873 -6.36477 0
M  V30 2589 C 253.303 0.294324 -6.10391 0
M  V30 2590 C 254.301 -0.360582 -6.82048 0
M  V30 2591 O 253.989 -1.02474 -7.97342 0
M  V30 2592 H 253.721 0.245197 -0.629964 0
M  V30 2593 H 256.275 0.10303 -2.05141 0
M  V30 2594 H 254.505 2.49173 -2.95719 0
M  V30 2595 H 256.194 2.31255 -3.33581 0
M  V30 2596 H 256.96 0.335263 -4.8384 0
M  V30 2597 H 252.839 1.46844 -4.36987 0
M  V30 2598 H 256.383 -0.854629 -6.92345 0
M  V30 2599 H 252.28 0.285099 -6.4487 0
M  V30 2600 H 253.048 -0.929594 -8.13204 0
M  V30 2601 N 255.711 1.52812 0.385517 0
M  V30 2602 C 256.658 1.77838 1.47113 0
M  V30 2603 C 257.628 0.621757 1.54024 0
M  V30 2604 O 258.813 0.861846 1.70226 0
M  V30 2605 C 255.953 1.95618 2.84302 0
M  V30 2606 C 255.066 3.23316 2.86515 0
M  V30 2607 C 254.201 3.31394 4.15152 0
M  V30 2608 C 253.24 4.53201 4.1143 0
M  V30 2609 N 252.377 4.58542 5.3168 0
M  V30 2610 H 257.217 2.70482 1.25073 0
M  V30 2611 H 254.754 1.34006 0.606692 0
M  V30 2612 H 256.712 2.03912 3.63972 0
M  V30 2613 H 255.342 1.06331 3.04784 0
M  V30 2614 H 254.394 3.24076 1.99195 0
M  V30 2615 H 255.706 4.13045 2.79634 0
M  V30 2616 H 254.86 3.3889 5.03228 0
M  V30 2617 H 253.599 2.39645 4.24761 0
M  V30 2618 H 252.604 4.45827 3.21742 0
M  V30 2619 H 253.829 5.46271 4.03442 0
M  V30 2620 H 251.775 3.69686 5.41912 0
M  V30 2621 H 251.692 5.42148 5.26889 0
M  V30 2622 H 252.96 4.70296 6.21644 0
M  V30 2623 N 257.189 -0.644168 1.43834 0
M  V30 2624 C 258.119 -1.76814 1.52509 0
M  V30 2625 C 259.1 -1.65823 0.379052 0
M  V30 2626 O 260.285 -1.84781 0.597466 0
M  V30 2627 C 257.415 -3.15288 1.4564 0
M  V30 2628 C 256.369 -3.41053 2.58586 0
M  V30 2629 C 255.695 -4.79421 2.36769 0
M  V30 2630 C 256.995 -3.34902 4.00797 0
M  V30 2631 H 258.689 -1.69812 2.46586 0
M  V30 2632 H 256.235 -0.815542 1.1868 0
M  V30 2633 H 258.188 -3.93681 1.50311 0
M  V30 2634 H 256.912 -3.23043 0.480725 0
M  V30 2635 H 255.571 -2.65035 2.53282 0
M  V30 2636 H 255.219 -4.83863 1.37424 0
M  V30 2637 H 254.919 -4.9762 3.12487 0
M  V30 2638 H 256.443 -5.6006 2.43238 0
M  V30 2639 H 257.857 -4.03218 4.07539 0
M  V30 2640 H 256.254 -3.64637 4.76613 0
M  V30 2641 H 257.324 -2.32928 4.25291 0
M  V30 2642 N 258.668 -1.30515 -0.883378 0
M  V30 2643 C 259.945 -1.10086 -1.6168 0
M  V30 2644 C 260.325 0.349269 -2.08191 0
M  V30 2645 O 259.673 1.34105 -1.85008 0
M  V30 2646 C 259.883 -2.10315 -2.78511 0
M  V30 2647 C 261.231 -2.42119 -3.48803 0
M  V30 2648 O 262.255 -2.08638 -2.88702 0
M  V30 2649 O 261.114 -2.99396 -4.57192 0
M  V30 2650 H 258.208 -0.422907 -0.710689 0
M  V30 2651 H 260.754 -1.41947 -0.930015 0
M  V30 2652 H 259.526 -3.07917 -2.41459 0
M  V30 2653 H 259.149 -1.79282 -3.54886 0
M  V30 2654 N 260.146 1.09593 -1.13257 0
M  V30 2655 C 261.094 2.18271 -0.803783 0
M  V30 2656 C 262.088 1.68054 0.213148 0
M  V30 2657 O 263.294 1.79862 0.0704699 0
M  V30 2658 H 259.669 0.711949 -0.242143 0
M  V30 2659 H 261.64 2.43235 -1.72856 0
M  V30 2660 C 260.389 3.46536 -0.28424 0
M  V30 2661 H 259.712 3.85545 -1.05807 0
M  V30 2662 H 261.152 4.23899 -0.0925945 0
M  V30 2663 C 259.611 3.22036 0.989684 0
M  V30 2664 O 260.141 3.44509 2.06584 0
M  V30 2665 N 258.347 2.7565 0.920086 0
M  V30 2666 H 257.894 2.57562 0.0442019 0
M  V30 2667 H 257.852 2.59635 1.77306 0
M  V30 2668 N 261.624 0.925811 1.2754 0
M  V30 2669 C 262.554 0.440748 2.29303 0
M  V30 2670 C 263.535 -0.497971 1.62648 0
M  V30 2671 O 264.72 -0.403126 1.8997 0
M  V30 2672 C 261.85 -0.309048 3.45922 0
M  V30 2673 C 260.804 0.54166 4.24559 0
M  V30 2674 C 260.13 -0.337191 5.33636 0
M  V30 2675 C 261.43 1.80516 4.90114 0
M  V30 2676 H 263.124 1.29121 2.70126 0
M  V30 2677 H 260.67 0.622323 1.29858 0
M  V30 2678 H 262.623 -0.659315 4.1621 0
M  V30 2679 H 261.347 -1.19352 3.04011 0
M  V30 2680 H 260.006 0.874609 3.56014 0
M  V30 2681 H 259.654 -1.22056 4.87966 0
M  V30 2682 H 259.354 0.228497 5.87156 0
M  V30 2683 H 260.878 -0.683072 6.06767 0
M  V30 2684 H 262.292 1.52307 5.52698 0
M  V30 2685 H 260.689 2.3142 5.53683 0
M  V30 2686 H 261.759 2.52581 4.13921 0
M  V30 2687 N 263.102 -1.41638 0.69111 0
M  V30 2688 C 264.348 -2.01598 0.220519 0
M  V30 2689 C 264.681 -1.54594 -1.17535 0
M  V30 2690 O 263.956 -0.755177 -1.79241 0
M  V30 2691 C 264.239 -3.59062 0.273243 0
M  V30 2692 C 264.092 -4.16203 1.70573 0
M  V30 2693 C 265.411 -4.38546 -0.369457 0
M  V30 2694 H 262.53 -0.732468 0.0816045 0
M  V30 2695 H 265.172 -1.68445 0.878986 0
M  V30 2696 H 263.322 -3.87435 -0.287411 0
M  V30 2697 H 264.994 -3.98722 2.31989 0
M  V30 2698 H 263.237 -3.71414 2.2413 0
M  V30 2699 H 263.908 -5.25358 1.69419 0
M  V30 2700 H 266.384 -4.1596 0.107977 0
M  V30 2701 H 265.26 -5.48069 -0.302002 0
M  V30 2702 H 265.521 -4.17662 -1.44951 0
M  V30 2703 N 264.58 -0.43555 -1.51462 0
M  V30 2704 C 265.543 0.365137 -2.26273 0
M  V30 2705 C 266.543 0.951227 -1.29647 0
M  V30 2706 O 267.733 0.825958 -1.53374 0
M  V30 2707 C 264.865 1.51645 -3.05314 0
M  V30 2708 H 266.058 -0.290474 -2.9849 0
M  V30 2709 H 263.611 -0.188676 -1.55157 0
M  V30 2710 H 264.346 2.20816 -2.3751 0
M  V30 2711 H 264.131 1.10238 -3.76284 0
M  V30 2712 H 265.621 2.08218 -3.61987 0
M  V30 2713 N 266.058 1.56714 -0.166846 0
M  V30 2714 C 267.307 1.95922 0.479318 0
M  V30 2715 C 267.62 1.05529 1.6469 0
M  V30 2716 O 268.826 1.34399 2.35901 0
M  V30 2717 C 267.282 3.48359 0.90412 0
M  V30 2718 C 266.89 4.47369 -0.237621 0
M  V30 2719 C 268.634 3.96394 1.51896 0
M  V30 2720 C 266.541 5.91039 0.206561 0
M  V30 2721 H 265.471 0.731495 0.18284 0
M  V30 2722 H 268.122 1.81728 -0.254363 0
M  V30 2723 H 266.504 3.57955 1.69365 0
M  V30 2724 H 267.678 4.49485 -1.01489 0
M  V30 2725 H 265.993 4.09366 -0.762128 0
M  V30 2726 H 268.59 5.01186 1.86325 0
M  V30 2727 H 268.933 3.39075 2.41524 0
M  V30 2728 H 269.466 3.89796 0.79395 0
M  V30 2729 H 266.205 6.52221 -0.654834 0
M  V30 2730 H 265.725 5.9224 0.949282 0
M  V30 2731 H 267.404 6.43707 0.651939 0
M  V30 2732 N 267.536 -0.106894 1.57237 0
M  V30 2733 C 268.466 -1.13148 2.04254 0
M  V30 2734 C 269.447 -1.42476 0.929224 0
M  V30 2735 O 270.632 -1.52709 1.19973 0
M  V30 2736 C 267.762 -2.4545 2.45706 0
M  V30 2737 C 266.716 -2.30558 3.60592 0
M  V30 2738 C 266.042 -3.67931 3.87983 0
M  V30 2739 C 267.342 -1.75597 4.91897 0
M  V30 2740 H 269.036 -0.740374 2.90101 0
M  V30 2741 H 266.582 -0.354696 1.39563 0
M  V30 2742 H 268.535 -3.17389 2.77205 0
M  V30 2743 H 267.259 -2.86475 1.56843 0
M  V30 2744 H 265.918 -1.61067 3.29322 0
M  V30 2745 H 265.566 -4.06462 2.96306 0
M  V30 2746 H 265.266 -3.58817 4.65322 0
M  V30 2747 H 266.79 -4.41356 4.21945 0
M  V30 2748 H 268.204 -2.37364 5.21854 0
M  V30 2749 H 266.601 -1.77272 5.73319 0
M  V30 2750 H 267.671 -0.714451 4.79608 0
M  V30 2751 N 269.014 -1.53014 -0.377408 0
M  V30 2752 C 270.291 -1.59215 -1.13622 0
M  V30 2753 C 270.671 -0.392407 -2.07421 0
M  V30 2754 O 270.019 0.618342 -2.19975 0
M  V30 2755 C 270.229 -2.93669 -1.88573 0
M  V30 2756 C 271.577 -3.47822 -2.43526 0
M  V30 2757 O 272.601 -2.9562 -1.98715 0
M  V30 2758 O 271.46 -4.39055 -3.25412 0
M  V30 2759 H 268.554 -0.642625 -0.52054 0
M  V30 2760 H 271.1 -1.65353 -0.381625 0
M  V30 2761 H 269.872 -3.7243 -1.20048 0
M  V30 2762 H 269.495 -2.90968 -2.70968 0
M  V30 2763 N 270.492 0.636531 -1.44174 0
M  V30 2764 C 271.741 1.39213 -1.45954 0
M  V30 2765 C 272.054 1.95374 -0.0939119 0
M  V30 2766 O 273.26 2.71498 0.0107767 0
M  V30 2767 C 271.716 2.52025 -2.56927 0
M  V30 2768 C 271.324 2.024 -3.99673 0
M  V30 2769 C 273.068 3.29269 -2.67922 0
M  V30 2770 C 270.975 3.12521 -5.0208 0
M  V30 2771 H 269.905 0.523132 -0.542999 0
M  V30 2772 H 272.556 0.685349 -1.70221 0
M  V30 2773 H 270.938 3.25253 -2.25891 0
M  V30 2774 H 272.112 1.36073 -4.40251 0
M  V30 2775 H 270.427 1.37987 -3.92872 0
M  V30 2776 H 273.024 4.11352 -3.41605 0
M  V30 2777 H 273.367 3.78397 -1.73555 0
M  V30 2778 H 273.9 2.63129 -2.98342 0
M  V30 2779 H 270.639 2.68343 -5.98057 0
M  V30 2780 H 270.159 3.77507 -4.66099 0
M  V30 2781 H 271.838 3.77385 -5.25538 0
M  V30 2782 N 271.97 1.30982 0.876444 0
M  V30 2783 C 272.918 1.18006 2.00443 0
M  V30 2784 C 273.912 0.0898871 1.69161 0
M  V30 2785 O 275.118 0.251333 1.78237 0
M  V30 2786 H 271.493 0.365196 0.65737 0
M  V30 2787 H 273.464 2.13453 2.0852 0
M  V30 2788 C 272.213 0.897521 3.35916 0
M  V30 2789 H 271.536 1.7285 3.60504 0
M  V30 2790 H 272.976 0.846874 4.15456 0
M  V30 2791 C 271.435 -0.399674 3.34521 0
M  V30 2792 O 271.965 -1.41852 3.7582 0
M  V30 2793 N 270.171 -0.413893 2.87637 0
M  V30 2794 H 269.718 0.41571 2.54224 0
M  V30 2795 H 269.676 -1.28175 2.87086 0
M  V30 2796 N 273.449 -1.08991 1.13837 0
M  V30 2797 C 274.865 -1.33312 0.877506 0
M  V30 2798 C 275.065 -1.95587 -0.48456 0
M  V30 2799 O 274.121 -2.20509 -1.23013 0
M  V30 2800 C 275.434 -2.24045 2.0056 0
M  V30 2801 C 276.982 -2.37542 2.03821 0
M  V30 2802 C 277.457 -3.31614 3.15905 0
M  V30 2803 N 278.948 -3.39189 3.15445 0
M  V30 2804 C 279.683 -4.11992 3.98811 0
M  V30 2805 N 279.179 -4.87553 4.92203 0
M  V30 2806 N 280.972 -4.07762 3.86894 0
M  V30 2807 H 273.123 -0.669456 2.01574 0
M  V30 2808 H 275.386 -0.357482 0.878015 0
M  V30 2809 H 275.092 -1.85521 2.98789 0
M  V30 2810 H 274.966 -3.24466 1.92359 0
M  V30 2811 H 277.353 -2.75327 1.06202 0
M  V30 2812 H 277.434 -1.36884 2.16093 0
M  V30 2813 H 277.078 -2.94551 4.13766 0
M  V30 2814 H 277.008 -4.32186 3.0087 0
M  V30 2815 H 279.499 -2.85314 2.47799 0
M  V30 2816 H 279.812 -5.40549 5.52292 0
M  V30 2817 H 278.157 -4.86627 4.96205 0
M  V30 2818 H 281.348 -3.47833 3.13257 0
M  V30 2819 H 281.521 -4.64238 4.52092 0
M  V30 2820 N 274.927 -0.932562 -1.27047 0
M  V30 2821 C 275.857 -0.452902 -2.29066 0
M  V30 2822 C 276.838 0.489338 -1.62909 0
M  V30 2823 O 278.023 0.393046 -1.90181 0
M  V30 2824 C 275.153 0.290698 -3.46081 0
M  V30 2825 C 274.107 -0.564168 -4.24265 0
M  V30 2826 C 273.433 0.308886 -5.33807 0
M  V30 2827 C 274.733 -1.83112 -4.89149 0
M  V30 2828 H 276.427 -1.30552 -2.69437 0
M  V30 2829 H 273.973 -0.629201 -1.29526 0
M  V30 2830 H 275.926 0.637233 -4.16554 0
M  V30 2831 H 274.65 1.17738 -3.0464 0
M  V30 2832 H 273.309 -0.893477 -3.55545 0
M  V30 2833 H 272.957 1.19467 -4.88607 0
M  V30 2834 H 272.657 -0.259633 -5.87026 0
M  V30 2835 H 274.181 0.650884 -6.07121 0
M  V30 2836 H 275.595 -1.55236 -5.51883 0
M  V30 2837 H 273.992 -2.34353 -5.52448 0
M  V30 2838 H 275.062 -2.54772 -4.12576 0
M  V30 2839 N 276.405 1.4127 -0.698611 0
M  V30 2840 C 277.653 2.00782 -0.230409 0
M  V30 2841 C 277.974 1.5562 1.17505 0
M  V30 2842 O 277.244 0.78815 1.79346 0
M  V30 2843 H 275.824 0.742464 -0.0821944 0
M  V30 2844 H 278.486 1.72852 -0.90045 0
M  V30 2845 H 277.582 3.11095 -0.25021 0
M  V30 2846 N 277.883 0.443576 1.51229 0
M  V30 2847 C 278.815 -0.400608 2.25672 0
M  V30 2848 C 279.828 -0.980945 1.29928 0
M  V30 2849 O 281.017 -0.874024 1.55638 0
M  V30 2850 C 278.117 -1.57304 3.00181 0
M  V30 2851 C 277.29 -1.11046 4.23069 0
M  V30 2852 C 276.349 -2.15374 4.80105 0
M  V30 2853 O 275.375 -1.74554 5.41774 0
M  V30 2854 N 276.577 -3.47922 4.64683 0
M  V30 2855 H 279.342 0.23745 2.98758 0
M  V30 2856 H 276.903 0.272809 1.59585 0
M  V30 2857 H 278.895 -2.26733 3.35223 0
M  V30 2858 H 277.465 -2.11632 2.30066 0
M  V30 2859 H 276.685 -0.243019 3.9345 0
M  V30 2860 H 277.973 -0.778888 5.02803 0
M  V30 2861 H 277.371 -3.83815 4.15575 0
M  V30 2862 H 275.928 -4.13228 5.0407 0
M  V30 2863 N 279.361 -1.56624 0.175154 0
M  V30 2864 C 280.586 -2.01813 -0.478137 0
M  V30 2865 C 281.011 -1.05457 -1.55757 0
M  V30 2866 O 280.369 -0.0347439 -1.81267 0
M  V30 2867 C 280.417 -3.45581 -1.02987 0
M  V30 2868 O 279.521 -3.52305 -2.14371 0
M  V30 2869 H 278.862 -0.65413 -0.114059 0
M  V30 2870 H 281.392 -2.02673 0.280173 0
M  V30 2871 H 281.402 -3.84965 -1.35151 0
M  V30 2872 H 280.077 -4.1521 -0.239556 0
M  V30 2873 H 278.654 -3.24783 -1.83222 0
M  V30 2874 N 280.839 0.0985539 -1.57292 0
M  V30 2875 C 282.116 0.834155 -1.76921 0
M  V30 2876 C 282.496 1.97101 -0.755928 0
M  V30 2877 O 281.844 2.27474 0.216245 0
M  V30 2878 C 282.054 1.33194 -3.22584 0
M  V30 2879 C 283.402 1.77611 -3.85668 0
M  V30 2880 O 284.426 1.42825 -3.26312 0
M  V30 2881 O 283.285 2.4192 -4.90038 0
M  V30 2882 H 280.379 0.397628 -0.725135 0
M  V30 2883 H 282.925 0.0807044 -1.69508 0
M  V30 2884 H 281.697 0.517248 -3.87866 0
M  V30 2885 H 281.32 2.1475 -3.34616 0
M  V30 2886 N 282.317 1.53212 0.369288 0
M  V30 2887 C 283.728 1.60943 0.946276 0
M  V30 2888 C 284.079 0.47452 1.90375 0
M  V30 2889 O 283.204 -0.399597 2.12679 0
M  V30 2890 C 283.799 2.91715 1.72302 0
M  V30 2891 C 282.358 3.01792 2.24941 0
M  V30 2892 C 281.505 2.56211 1.06072 0
M  V30 2893 H 284.456 1.58007 0.148198 0
M  V30 2894 H 284.477 2.79309 2.58393 0
M  V30 2895 H 283.989 3.74295 1.0259 0
M  V30 2896 H 282.09 2.23791 2.97906 0
M  V30 2897 H 282.203 4.06803 2.53077 0
M  V30 2898 H 280.567 2.10998 1.4266 0
M  V30 2899 H 281.35 3.41206 0.378639 0
M  V30 2900 N 283.795 -0.628877 1.44509 0
M  V30 2901 C 284.758 -1.72263 1.51188 0
M  V30 2902 C 285.758 -1.55907 0.39367 0
M  V30 2903 O 286.948 -1.61361 0.656377 0
M  V30 2904 C 284.08 -3.11365 1.38798 0
M  V30 2905 H 285.273 -1.67714 2.4862 0
M  V30 2906 H 282.826 -0.842737 1.31634 0
M  V30 2907 H 283.561 -3.21507 0.424693 0
M  V30 2908 H 283.346 -3.24644 2.19884 0
M  V30 2909 H 284.836 -3.91075 1.46458 0
M  V30 2910 N 285.273 -1.31445 -0.869486 0
M  V30 2911 C 286.684 -1.19042 -1.43826 0
M  V30 2912 C 287.035 0.202919 -1.95148 0
M  V30 2913 O 286.16 1.10071 -1.86315 0
M  V30 2914 C 286.755 -2.15499 -2.6143 0
M  V30 2915 C 285.314 -2.07028 -3.14351 0
M  V30 2916 C 284.461 -2.04701 -1.87063 0
M  V30 2917 H 287.412 -1.43489 -0.677984 0
M  V30 2918 H 287.433 -1.74488 -3.38134 0
M  V30 2919 H 286.945 -3.16899 -2.24046 0
M  V30 2920 H 285.046 -1.08825 -3.56354 0
M  V30 2921 H 285.159 -2.96157 -3.766 0
M  V30 2922 H 283.523 -1.49724 -2.06046 0
M  V30 2923 H 284.306 -3.07857 -1.51917 0
M  V30 2924 N 286.751 1.08385 -1.14413 0
M  V30 2925 C 287.681 2.17321 -0.854044 0
M  V30 2926 C 288.662 1.69024 0.191049 0
M  V30 2927 O 289.847 1.94141 0.0476779 0
M  V30 2928 C 286.977 3.45719 -0.330983 0
M  V30 2929 C 285.931 4.07409 -1.31155 0
M  V30 2930 C 285.257 5.30762 -0.64778 0
M  V30 2931 C 286.557 4.48665 -2.67388 0
M  V30 2932 H 288.251 2.41845 -1.76498 0
M  V30 2933 H 285.797 1.16233 -0.850051 0
M  V30 2934 H 287.75 4.21241 -0.115645 0
M  V30 2935 H 286.474 3.2075 0.615381 0
M  V30 2936 H 285.133 3.33919 -1.51306 0
M  V30 2937 H 284.781 5.02078 0.304398 0
M  V30 2938 H 284.481 5.72992 -1.30207 0
M  V30 2939 H 286.005 6.08998 -0.441972 0
M  V30 2940 H 287.419 5.15364 -2.51143 0
M  V30 2941 H 285.816 5.01814 -3.29093 0
M  V30 2942 H 286.886 3.60543 -3.24248 0
M  V30 2943 N 288.23 0.939286 1.26551 0
M  V30 2944 C 289.162 0.404704 2.25599 0
M  V30 2945 C 290.175 -0.470983 1.55838 0
M  V30 2946 O 291.364 -0.281734 1.76263 0
M  V30 2947 C 288.464 -0.43764 3.36062 0
M  V30 2948 C 287.637 0.421449 4.35365 0
M  V30 2949 C 286.696 -0.36015 5.24966 0
M  V30 2950 O 285.722 0.236167 5.6871 0
M  V30 2951 N 286.924 -1.65715 5.56344 0
M  V30 2952 H 289.689 1.25618 2.72103 0
M  V30 2953 H 287.25 0.807963 1.40298 0
M  V30 2954 H 289.242 -0.967866 3.92956 0
M  V30 2955 H 287.812 -1.18991 2.89067 0
M  V30 2956 H 287.032 1.1329 3.7757 0
M  V30 2957 H 288.32 1.00835 4.98708 0
M  V30 2958 H 287.718 -2.16378 5.22682 0
M  V30 2959 H 286.275 -2.13366 6.15888 0
M  V30 2960 N 289.708 -1.40897 0.706093 0
M  V30 2961 C 290.658 -2.27987 0.0240746 0
M  V30 2962 C 291.642 -1.42759 -0.742204 0
M  V30 2963 O 292.834 -1.65936 -0.615966 0
M  V30 2964 C 289.963 -3.31186 -0.903907 0
M  V30 2965 C 289.049 -4.2389 -0.133318 0
M  V30 2966 N 289.44 -4.98113 0.878444 0
M  V30 2967 C 287.738 -4.44485 -0.367269 0
M  V30 2968 C 288.439 -5.6604 1.34064 0
M  V30 2969 N 287.415 -5.39522 0.664565 0
M  V30 2970 H 291.217 -2.82812 0.799658 0
M  V30 2971 H 288.731 -1.53235 0.537845 0
M  V30 2972 H 290.728 -3.92413 -1.40775 0
M  V30 2973 H 289.388 -2.77922 -1.67897 0
M  V30 2974 H 290.399 -5.02364 1.25901 0
M  V30 2975 H 287.076 -4.02213 -1.1194 0
M  V30 2976 H 288.466 -6.35524 2.1808 0
M  V30 2977 N 291.186 -0.45159 -1.50991 0
M  V30 2978 C 292.118 0.388634 -2.25881 0
M  V30 2979 C 293.131 0.974041 -1.30446 0
M  V30 2980 O 294.32 0.865758 -1.56099 0
M  V30 2981 C 291.42 1.5571 -3.01011 0
M  V30 2982 C 290.593 1.08801 -4.23652 0
M  V30 2983 C 289.652 2.12825 -4.8124 0
M  V30 2984 O 288.678 1.71678 -5.42693 0
M  V30 2985 N 289.88 3.45453 -4.66522 0
M  V30 2986 H 292.645 -0.25329 -2.98628 0
M  V30 2987 H 290.206 -0.281268 -1.59438 0
M  V30 2988 H 292.198 2.24952 -3.3642 0
M  V30 2989 H 290.768 2.10409 -2.31186 0
M  V30 2990 H 289.988 0.22215 -3.93574 0
M  V30 2991 H 291.276 0.752213 -5.03209 0
M  V30 2992 H 290.674 3.81605 -4.17605 0
M  V30 2993 H 289.231 4.10549 -5.06254 0
M  V30 2994 N 292.664 1.56529 -0.183458 0
M  V30 2995 C 293.597 2.14417 0.781052 0
M  V30 2996 C 294.575 1.07761 1.21763 0
M  V30 2997 O 295.759 1.35807 1.30724 0
M  V30 2998 C 292.886 2.69361 2.05335 0
M  V30 2999 C 291.932 3.885 1.75982 0
M  V30 3000 S 292.765 5.27568 0.918256 0
M  V30 3001 C 293.921 5.85926 2.20095 0
M  V30 3002 H 294.154 2.95893 0.2889 0
M  V30 3003 H 291.687 1.54368 0.0313844 0
M  V30 3004 H 293.645 3.01662 2.78406 0
M  V30 3005 H 292.306 1.87949 2.51663 0
M  V30 3006 H 291.499 4.25314 2.70415 0
M  V30 3007 H 291.101 3.57149 1.10999 0
M  V30 3008 H 293.393 5.99579 3.15453 0
M  V30 3009 H 294.336 6.82761 1.87731 0
M  V30 3010 H 294.744 5.14438 2.32409 0
M  V30 3011 N 294.142 -0.090211 1.57342 0
M  V30 3012 C 295.419 -0.824761 1.77361 0
M  V30 3013 C 295.799 -1.96698 0.76637 0
M  V30 3014 O 295.147 -2.27586 -0.204179 0
M  V30 3015 C 295.357 -1.31481 3.23286 0
M  V30 3016 C 296.705 -1.75563 3.86604 0
M  V30 3017 O 297.729 -1.41093 3.27065 0
M  V30 3018 O 296.588 -2.39317 4.91314 0
M  V30 3019 H 293.682 -0.393776 0.727234 0
M  V30 3020 H 296.228 -0.0717138 1.69548 0
M  V30 3021 H 295 -0.496671 3.88135 0
M  V30 3022 H 294.623 -2.12973 3.35751 0
M  V30 3023 N 295.62 -1.53406 -0.361157 0
M  V30 3024 C 296.869 -1.69022 -1.10066 0
M  V30 3025 C 297.182 -0.450838 -1.90333 0
M  V30 3026 O 298.388 -0.487617 -2.67085 0
M  V30 3027 C 296.844 -2.98812 -2.00598 0
M  V30 3028 C 296.452 -4.30027 -1.25621 0
M  V30 3029 C 298.196 -3.23795 -2.74513 0
M  V30 3030 C 296.103 -5.50903 -2.1508 0
M  V30 3031 H 295.033 -0.629776 -0.414606 0
M  V30 3032 H 297.684 -1.79907 -0.361348 0
M  V30 3033 H 296.066 -2.8174 -2.78278 0
M  V30 3034 H 297.24 -4.57745 -0.529739 0
M  V30 3035 H 295.555 -4.11522 -0.635496 0
M  V30 3036 H 298.152 -4.11289 -3.41681 0
M  V30 3037 H 298.495 -2.40045 -3.40123 0
M  V30 3038 H 299.028 -3.41561 -2.03914 0
M  V30 3039 H 295.767 -6.37143 -1.54041 0
M  V30 3040 H 295.287 -5.27459 -2.85565 0
M  V30 3041 H 296.966 -5.85865 -2.74538 0
M  V30 3042 N 297.098 0.621204 -1.44841 0
M  V30 3043 C 298.328 1.40548 -1.51426 0
M  V30 3044 C 298.736 1.88673 -0.141083 0
M  V30 3045 O 298.079 1.62053 0.865128 0
M  V30 3046 C 298.141 2.65325 -2.42576 0
M  V30 3047 C 297.805 2.3893 -3.89566 0
M  V30 3048 C 298.802 2.00138 -4.79834 0
M  V30 3049 C 296.487 2.52263 -4.3436 0
M  V30 3050 C 298.481 1.75021 -6.129 0
M  V30 3051 C 296.168 2.2676 -5.67471 0
M  V30 3052 C 297.166 1.88199 -6.56559 0
M  V30 3053 O 296.854 1.62986 -7.87204 0
M  V30 3054 H 296.586 0.437122 -0.515655 0
M  V30 3055 H 299.14 0.765987 -1.90583 0
M  V30 3056 H 297.37 3.31947 -1.98364 0
M  V30 3057 H 299.059 3.27347 -2.39998 0
M  V30 3058 H 299.825 1.89386 -4.46495 0
M  V30 3059 H 295.704 2.81246 -3.65269 0
M  V30 3060 H 299.248 1.44848 -6.82396 0
M  V30 3061 H 295.145 2.37125 -6.00368 0
M  V30 3062 H 295.913 1.7715 -7.991 0
M  V30 3063 N 298.576 1.31904 0.862503 0
M  V30 3064 C 299.508 1.16005 1.97675 0
M  V30 3065 C 300.521 0.0971234 1.6251 0
M  V30 3066 O 301.71 0.345337 1.75128 0
M  V30 3067 C 298.81 0.751791 3.30456 0
M  V30 3068 C 297.983 1.90133 3.93914 0
M  V30 3069 C 297.042 1.4779 5.05019 0
M  V30 3070 O 296.068 2.18872 5.25437 0
M  V30 3071 N 297.27 0.369491 5.79323 0
M  V30 3072 H 300.035 2.11982 2.11857 0
M  V30 3073 H 297.596 1.24337 1.03691 0
M  V30 3074 H 299.588 0.451084 4.02178 0
M  V30 3075 H 298.158 -0.116593 3.12382 0
M  V30 3076 H 297.378 2.36896 3.15078 0
M  V30 3077 H 298.666 2.67111 4.33047 0
M  V30 3078 H 298.064 -0.222299 5.65263 0
M  V30 3079 H 296.621 0.128354 6.51674 0
M  V30 3080 N 300.054 -1.07777 1.14986 0
M  V30 3081 C 301.001 -2.14867 0.842672 0
M  V30 3082 C 301.971 -1.6486 -0.202552 0
M  V30 3083 O 303.156 -1.90668 -0.0710568 0
M  V30 3084 C 300.296 -3.43486 0.333363 0
M  V30 3085 C 299.409 -4.07306 1.43965 0
M  V30 3086 C 298.544 -5.23744 0.886914 0
M  V30 3087 C 297.583 -5.79517 1.97043 0
M  V30 3088 N 296.72 -6.87291 1.4344 0
M  V30 3089 H 301.56 -2.40485 1.75986 0
M  V30 3090 H 299.097 -1.1801 0.878179 0
M  V30 3091 H 301.055 -4.17195 0.0198163 0
M  V30 3092 H 299.685 -3.18133 -0.546916 0
M  V30 3093 H 298.737 -3.31293 1.86946 0
M  V30 3094 H 300.049 -4.44771 2.25788 0
M  V30 3095 H 299.203 -6.04419 0.525651 0
M  V30 3096 H 297.942 -4.87685 0.0377957 0
M  V30 3097 H 296.947 -4.97491 2.34057 0
M  V30 3098 H 298.172 -6.17632 2.82325 0
M  V30 3099 H 296.118 -6.5318 0.607567 0
M  V30 3100 H 296.035 -7.23617 2.18895 0
M  V30 3101 H 297.303 -7.71682 1.10124 0
M  V30 3102 N 301.532 -0.945985 -1.26051 0
M  V30 3103 C 302.948 -0.649045 -1.45807 0
M  V30 3104 C 303.148 0.796158 -1.85104 0
M  V30 3105 O 302.204 1.57233 -1.97571 0
M  V30 3106 C 303.517 -1.61458 -2.53677 0
M  V30 3107 C 305.065 -1.62481 -2.67524 0
M  V30 3108 C 305.54 -2.57776 -3.7857 0
M  V30 3109 N 307.031 -2.5609 -3.85969 0
M  V30 3110 C 307.766 -3.26508 -4.7136 0
M  V30 3111 N 307.262 -4.0637 -5.61102 0
M  V30 3112 N 309.055 -3.15437 -4.65248 0
M  V30 3113 H 301.206 -1.88005 -0.988328 0
M  V30 3114 H 303.469 -0.808198 -0.4955 0
M  V30 3115 H 303.175 -2.64644 -2.31638 0
M  V30 3116 H 303.049 -1.37036 -3.51427 0
M  V30 3117 H 305.436 -0.600167 -2.88933 0
M  V30 3118 H 305.517 -1.90958 -1.70202 0
M  V30 3119 H 305.161 -3.60361 -3.57913 0
M  V30 3120 H 305.091 -2.26587 -4.75359 0
M  V30 3121 H 307.582 -1.98105 -3.21812 0
M  V30 3122 H 307.895 -4.57042 -6.23164 0
M  V30 3123 H 306.24 -4.10469 -5.60839 0
M  V30 3124 H 309.431 -2.52525 -3.94143 0
M  V30 3125 H 309.604 -3.70584 -5.31575 0
M  V30 3126 N 303.011 1.40521 -0.713556 0
M  V30 3127 C 304.251 2.02783 -0.256584 0
M  V30 3128 C 304.615 1.55352 1.12827 0
M  V30 3129 O 305.816 2.09663 1.68211 0
M  V30 3130 C 304.087 3.5586 -0.331414 0
M  V30 3131 S 305.646 4.38773 0.0488703 0
M  V30 3132 H 302.464 0.703655 -0.101934 0
M  V30 3133 H 305.066 1.71674 -0.935325 0
M  V30 3134 H 303.77 3.87874 -1.34098 0
M  V30 3135 H 303.301 3.91695 0.365873 0
M  V30 3136 H 305.316 4.79633 1.2715 0
M  V30 3137 N 304.489 0.459591 1.5075 0
M  V30 3138 C 305.399 -0.34613 2.32033 0
M  V30 3139 C 306.415 -1.00686 1.41909 0
M  V30 3140 O 307.591 -0.997361 1.7497 0
M  V30 3141 C 304.656 -1.42029 3.16273 0
M  V30 3142 C 303.717 -0.777362 4.22203 0
M  V30 3143 C 302.95 -1.80034 5.02418 0
M  V30 3144 O 303.173 -3.02544 4.83553 0
M  V30 3145 O 302.107 -1.37853 5.85901 0
M  V30 3146 H 305.933 0.318054 3.0203 0
M  V30 3147 H 303.518 0.221663 1.47746 0
M  V30 3148 H 305.4 -2.04275 3.68578 0
M  V30 3149 H 304.075 -2.06815 2.49016 0
M  V30 3150 H 302.982 -0.116256 3.73919 0
M  V30 3151 H 304.315 -0.172634 4.91897 0
M  V30 3152 N 305.967 -1.56429 0.191757 0
M  V30 3153 C 306.93 -2.17707 -0.716688 0
M  V30 3154 C 307.93 -1.13061 -1.14341 0
M  V30 3155 O 309.12 -1.38464 -1.05704 0
M  V30 3156 C 306.252 -2.77644 -1.97804 0
M  V30 3157 H 307.445 -2.99342 -0.1829 0
M  V30 3158 H 304.998 -1.56193 -0.0578566 0
M  V30 3159 H 305.733 -1.99799 -2.55443 0
M  V30 3160 H 305.518 -3.54246 -1.68083 0
M  V30 3161 H 307.008 -3.24708 -2.62592 0
M  V30 3162 N 307.445 0.0818655 -1.57387 0
M  V30 3163 C 308.692 0.782914 -1.86753 0
M  V30 3164 C 309.02 1.78082 -0.782118 0
M  V30 3165 O 308.275 1.94426 0.22295 0
M  V30 3166 C 308.574 1.53513 -3.22752 0
M  V30 3167 C 308.24 0.678134 -4.45771 0
M  V30 3168 C 306.902 0.441929 -4.79166 0
M  V30 3169 C 309.254 0.0832243 -5.21134 0
M  V30 3170 C 306.582 -0.398833 -5.85343 0
M  V30 3171 C 308.934 -0.744935 -6.28199 0
M  V30 3172 C 307.598 -0.991107 -6.60101 0
M  V30 3173 H 306.868 0.286489 -0.683378 0
M  V30 3174 H 309.515 0.0439808 -1.91449 0
M  V30 3175 H 307.82 2.34599 -3.138 0
M  V30 3176 H 309.517 2.08218 -3.42705 0
M  V30 3177 H 306.107 0.872357 -4.19628 0
M  V30 3178 H 310.291 0.252847 -4.95655 0
M  V30 3179 H 305.547 -0.598405 -6.08465 0
M  V30 3180 H 309.721 -1.21271 -6.8576 0
M  V30 3181 H 307.348 -1.64437 -7.42202 0
M  V30 3182 N 308.923 1.53595 0.353017 0
M  V30 3183 C 310.171 1.70049 1.09215 0
M  V30 3184 C 310.492 0.461406 1.89463 0
M  V30 3185 O 309.762 -0.524633 1.88744 0
M  V30 3186 H 308.342 0.626912 0.40619 0
M  V30 3187 H 311.004 1.90822 0.396585 0
M  V30 3188 H 310.1 2.56718 1.77488 0
M  V30 3189 N 310.401 -0.613514 1.45168 0
M  V30 3190 C 311.647 -1.37279 1.50087 0
M  V30 3191 C 312.002 -1.91902 0.138294 0
M  V30 3192 O 311.295 -1.71764 -0.84899 0
M  V30 3193 C 311.489 -2.54347 2.51083 0
M  V30 3194 C 311.318 -2.11186 3.97027 0
M  V30 3195 C 310.088 -1.97636 4.65046 0
M  V30 3196 C 312.286 -1.69016 4.85735 0
M  V30 3197 N 310.268 -1.48224 5.95737 0
M  V30 3198 C 311.639 -1.30976 6.06008 0
M  V30 3199 C 313.694 -1.56555 4.72647 0
M  V30 3200 C 312.397 -0.817197 7.14643 0
M  V30 3201 C 314.423 -1.08702 5.81324 0
M  V30 3202 C 313.785 -0.716233 7.00749 0
M  V30 3203 H 309.884 -0.496478 0.60418 0
M  V30 3204 H 312.468 -0.701988 1.81605 0
M  V30 3205 H 310.639 -3.19031 2.21527 0
M  V30 3206 H 312.371 -3.21208 2.46187 0
M  V30 3207 H 309.126 -2.18638 4.20112 0
M  V30 3208 H 309.55 -1.25767 6.65216 0
M  V30 3209 H 314.192 -1.83849 3.80736 0
M  V30 3210 H 311.91 -0.531797 8.06348 0
M  V30 3211 H 315.496 -0.994943 5.7323 0
M  V30 3212 H 314.376 -0.351642 7.83411 0
M  V30 3213 N 311.879 -1.3236 -0.855495 0
M  V30 3214 C 312.829 -1.17809 -1.95205 0
M  V30 3215 C 313.813 -0.0852319 -1.60674 0
M  V30 3216 O 315.005 -0.311651 -1.74235 0
M  V30 3217 C 312.134 -0.902437 -3.31226 0
M  V30 3218 C 311.22 -2.03695 -3.7198 0
M  V30 3219 N 311.611 -3.28544 -3.84568 0
M  V30 3220 C 309.909 -1.93993 -4.016 0
M  V30 3221 C 310.61 -4.02847 -4.19629 0
M  V30 3222 N 309.586 -3.31138 -4.31102 0
M  V30 3223 H 313.388 -2.12462 -2.0307 0
M  V30 3224 H 310.902 -1.24127 -1.0472 0
M  V30 3225 H 312.899 -0.77915 -4.09554 0
M  V30 3226 H 311.559 0.0357267 -3.2468 0
M  V30 3227 H 312.57 -3.6349 -3.68911 0
M  V30 3228 H 309.247 -1.07733 -4.03361 0
M  V30 3229 H 310.637 -5.10506 -4.36845 0
M  V30 3230 N 313.357 1.07166 -1.15556 0
M  V30 3231 C 314.32 2.12589 -0.856644 0
M  V30 3232 C 315.32 1.6015 0.14444 0
M  V30 3233 O 316.51 1.7399 -0.0854163 0
M  V30 3234 C 313.642 3.39753 -0.279405 0
M  V30 3235 H 314.835 2.40539 -1.79112 0
M  V30 3236 H 312.388 1.23086 -0.963298 0
M  V30 3237 H 313.123 3.17447 0.663174 0
M  V30 3238 H 312.908 3.79117 -1.00063 0
M  V30 3239 H 314.398 4.17507 -0.0879113 0
M  V30 3240 N 314.835 0.952656 1.25548 0
M  V30 3241 C 316.084 0.602053 1.92505 0
M  V30 3242 C 316.397 -0.864663 1.75451 0
M  V30 3243 O 317.603 -1.32514 2.36965 0
M  V30 3244 C 316.059 1.02607 3.44963 0
M  V30 3245 C 315.667 2.51519 3.70732 0
M  V30 3246 C 317.411 0.747905 4.1786 0
M  V30 3247 C 315.318 2.87732 5.16686 0
M  V30 3248 H 314.248 0.22146 0.720744 0
M  V30 3249 H 316.899 1.15684 1.42441 0
M  V30 3250 H 315.281 0.399712 3.93978 0
M  V30 3251 H 316.455 3.19157 3.32378 0
M  V30 3252 H 314.77 2.76786 3.11092 0
M  V30 3253 H 317.367 0.994647 5.25367 0
M  V30 3254 H 317.71 -0.315629 4.15102 0
M  V30 3255 H 318.243 1.33452 3.74747 0
M  V30 3256 H 314.982 3.93095 5.24554 0
M  V30 3257 H 314.502 2.24765 5.56094 0
M  V30 3258 H 316.181 2.76817 5.84792 0
M  V30 3259 N 316.313 -1.40141 0.720998 0
M  V30 3260 C 317.562 -2.0002 0.259804 0
M  V30 3261 C 317.875 -1.57839 -1.15526 0
M  V30 3262 O 319.081 -2.10455 -1.71525 0
M  V30 3263 C 317.537 -3.57516 0.413566 0
M  V30 3264 C 317.145 -4.08667 1.83562 0
M  V30 3265 C 318.889 -4.24498 0.0134387 0
M  V30 3266 C 316.796 -5.58686 1.93968 0
M  V30 3267 H 315.726 -0.748195 0.0933806 0
M  V30 3268 H 318.377 -1.60313 0.892866 0
M  V30 3269 H 316.759 -3.9495 -0.288169 0
M  V30 3270 H 317.933 -3.82598 2.56817 0
M  V30 3271 H 316.248 -3.543 2.1877 0
M  V30 3272 H 318.845 -5.34654 0.0703954 0
M  V30 3273 H 319.188 -4.03375 -1.02927 0
M  V30 3274 H 319.721 -3.92188 0.665815 0
M  V30 3275 H 316.46 -5.8467 2.96379 0
M  V30 3276 H 315.98 -5.86602 1.25131 0
M  V30 3277 H 317.659 -6.23875 1.71431 0
M  V30 3278 N 317.792 -0.46758 -1.50504 0
M  V30 3279 C 319.038 0.0887532 -2.02606 0
M  V30 3280 C 319.371 1.39686 -1.34913 0
M  V30 3281 O 318.646 1.88644 -0.473694 0
M  V30 3282 C 318.929 0.276206 -3.59039 0
M  V30 3283 C 318.782 -1.05267 -4.37309 0
M  V30 3284 C 320.101 1.03235 -4.27821 0
M  V30 3285 H 317.22 0.0307814 -0.736357 0
M  V30 3286 H 319.862 -0.612485 -1.79857 0
M  V30 3287 H 318.012 0.8735 -3.78553 0
M  V30 3288 H 319.684 -1.68628 -4.29374 0
M  V30 3289 H 317.927 -1.65015 -4.01189 0
M  V30 3290 H 318.598 -0.875197 -5.45018 0
M  V30 3291 H 321.074 0.526111 -4.12761 0
M  V30 3292 H 319.95 1.1323 -5.37094 0
M  V30 3293 H 320.211 2.06806 -3.90748 0
M  V30 3294 N 319.27 1.56325 -0.20005 0
M  V30 3295 C 320.547 1.89484 0.48529 0
M  V30 3296 C 320.927 1.1143 1.79294 0
M  V30 3297 O 320.275 0.216919 2.27468 0
M  V30 3298 C 320.485 3.41923 0.699243 0
M  V30 3299 C 321.833 4.12256 1.01638 0
M  V30 3300 O 322.857 3.47402 0.786792 0
M  V30 3301 O 321.716 5.26887 1.45095 0
M  V30 3302 H 318.81 0.787144 0.253639 0
M  V30 3303 H 321.356 1.67985 -0.240633 0
M  V30 3304 H 320.128 3.90658 -0.224008 0
M  V30 3305 H 319.751 3.69131 1.47744 0
M  V30 3306 N 320.748 -0.0735177 1.57428 0
M  V30 3307 C 321.996 -0.771472 1.86796 0
M  V30 3308 C 322.317 -1.78201 0.791804 0
M  V30 3309 O 321.587 -1.95074 -0.179718 0
M  V30 3310 H 320.167 -0.28791 0.689287 0
M  V30 3311 H 322.829 -0.0500161 1.94836 0
M  V30 3312 H 321.925 -1.28874 2.8425 0
M  V30 3313 N 322.226 -1.5378 -0.344866 0
M  V30 3314 C 323.176 -1.78057 -1.42407 0
M  V30 3315 C 324.16 -0.635732 -1.47808 0
M  V30 3316 O 325.352 -0.89508 -1.527 0
M  V30 3317 C 322.481 -1.99242 -2.79566 0
M  V30 3318 C 321.567 -3.19787 -2.78562 0
M  V30 3319 N 321.958 -4.41284 -2.47189 0
M  V30 3320 C 320.256 -3.2093 -3.0971 0
M  V30 3321 C 320.957 -5.23128 -2.54385 0
M  V30 3322 N 319.933 -4.59813 -2.89953 0
M  V30 3323 H 323.735 -2.69588 -1.17046 0
M  V30 3324 H 321.249 -1.52687 -0.553217 0
M  V30 3325 H 323.246 -2.14768 -3.57324 0
M  V30 3326 H 321.906 -1.08953 -3.05875 0
M  V30 3327 H 322.917 -4.68657 -2.20411 0
M  V30 3328 H 319.594 -2.40603 -3.41199 0
M  V30 3329 H 320.984 -6.30096 -2.333 0
M  V30 3330 N 323.704 0.605807 -1.45491 0
M  V30 3331 C 324.929 1.39625 -1.53361 0
M  V30 3332 C 325.354 1.87351 -0.167645 0
M  V30 3333 O 324.712 1.60243 0.848051 0
M  V30 3334 C 324.76 2.57559 -2.5238 0
M  V30 3335 O 323.864 3.58248 -2.04285 0
M  V30 3336 H 323.205 0.416771 -0.516912 0
M  V30 3337 H 325.735 0.737103 -1.90861 0
M  V30 3338 H 325.745 3.0478 -2.71244 0
M  V30 3339 H 324.42 2.22171 -3.51586 0
M  V30 3340 H 322.997 3.17664 -1.95305 0
M  V30 3341 N 325.182 1.32811 0.848464 0
M  V30 3342 C 326.428 1.23907 1.60546 0
M  V30 3343 C 326.761 -0.197161 1.93197 0
M  V30 3344 O 326.036 -1.13596 1.5788 0
M  V30 3345 C 326.319 2.10489 2.92175 0
M  V30 3346 C 326.172 3.62522 2.66266 0
M  V30 3347 C 327.491 1.97075 3.93509 0
M  V30 3348 H 324.61 0.451459 0.58254 0
M  V30 3349 H 327.252 1.62818 0.979296 0
M  V30 3350 H 325.402 1.77434 3.45614 0
M  V30 3351 H 327.074 4.05821 2.19334 0
M  V30 3352 H 325.317 3.84879 2.00126 0
M  V30 3353 H 325.988 4.18437 3.6002 0
M  V30 3354 H 328.464 2.26045 3.49346 0
M  V30 3355 H 327.34 2.59923 4.83457 0
M  V30 3356 H 327.601 0.940186 4.31987 0
M  V30 3357 N 326.66 -1.06551 1.16123 0
M  V30 3358 C 327.57 -2.17484 0.879662 0
M  V30 3359 C 328.586 -1.73377 -0.147104 0
M  V30 3360 O 329.762 -2.01379 0.0289128 0
M  V30 3361 C 326.827 -3.44591 0.381829 0
M  V30 3362 C 325.888 -4.0322 1.4735 0
M  V30 3363 C 325.121 -5.24261 0.999324 0
M  V30 3364 O 325.344 -5.70198 -0.151957 0
M  V30 3365 O 324.278 -5.74775 1.78653 0
M  V30 3366 H 328.104 -2.44075 1.80724 0
M  V30 3367 H 325.689 -1.16042 0.940992 0
M  V30 3368 H 327.571 -4.21254 0.111053 0
M  V30 3369 H 326.246 -3.19532 -0.51777 0
M  V30 3370 H 325.153 -3.2806 1.79798 0
M  V30 3371 H 326.486 -4.32568 2.34831 0
M  V30 3372 N 328.138 -0.959301 -1.25041 0
M  V30 3373 C 329.048 -0.489994 -2.29426 0
M  V30 3374 C 330.064 0.444944 -1.68215 0
M  V30 3375 O 331.24 0.320046 -1.98841 0
M  V30 3376 C 328.305 0.220309 -3.45999 0
M  V30 3377 C 327.366 -0.753418 -4.22637 0
M  V30 3378 C 326.599 -0.076918 -5.33645 0
M  V30 3379 O 326.822 1.13649 -5.58963 0
M  V30 3380 O 325.756 -0.764824 -5.97021 0
M  V30 3381 H 329.582 -1.35755 -2.71669 0
M  V30 3382 H 327.167 -0.725961 -1.30576 0
M  V30 3383 H 329.049 0.619677 -4.16819 0
M  V30 3384 H 327.724 1.06296 -3.0575 0
M  V30 3385 H 326.631 -1.20308 -3.54227 0
M  V30 3386 H 327.964 -1.56423 -4.66683 0
M  V30 3387 N 329.616 1.39756 -0.72842 0
M  V30 3388 C 330.546 2.33289 -0.0991354 0
M  V30 3389 C 331.527 1.53568 0.731489 0
M  V30 3390 O 332.712 1.81987 0.677807 0
M  V30 3391 C 329.842 3.3763 0.813834 0
M  V30 3392 C 328.796 4.2791 0.0878663 0
M  V30 3393 C 328.122 5.22894 1.11741 0
M  V30 3394 C 329.422 5.11314 -1.06563 0
M  V30 3395 H 331.116 2.86163 -0.880408 0
M  V30 3396 H 328.662 1.37591 -0.424819 0
M  V30 3397 H 330.615 4.0201 1.26355 0
M  V30 3398 H 329.339 2.83181 1.62715 0
M  V30 3399 H 327.998 3.65 -0.342159 0
M  V30 3400 H 327.646 4.64744 1.92412 0
M  V30 3401 H 327.346 5.84143 0.636477 0
M  V30 3402 H 328.87 5.90151 1.56697 0
M  V30 3403 H 330.284 5.69076 -0.694671 0
M  V30 3404 H 328.681 5.81671 -1.47577 0
M  V30 3405 H 329.751 4.46534 -1.89038 0
M  V30 3406 N 331.094 0.475555 1.50254 0
M  V30 3407 C 332.334 -0.0765802 2.04256 0
M  V30 3408 C 332.698 -1.36587 1.34937 0
M  V30 3409 O 333.899 -2.00066 1.79519 0
M  V30 3410 C 332.17 -0.251668 3.56513 0
M  V30 3411 S 333.729 -0.761716 4.32138 0
M  V30 3412 H 330.547 -0.0138456 0.710865 0
M  V30 3413 H 333.149 0.643714 1.84598 0
M  V30 3414 H 331.853 0.692404 4.04517 0
M  V30 3415 H 331.384 -0.997946 3.80532 0
M  V30 3416 H 333.399 -2.03451 4.52573 0
M  V30 3417 N 332.573 -1.56217 0.208337 0
M  V30 3418 C 333.52 -2.19699 -0.707192 0
M  V30 3419 C 334.49 -1.14836 -1.20008 0
M  V30 3420 O 335.675 -1.4314 -1.26157 0
M  V30 3421 C 332.815 -2.87061 -1.91546 0
M  V30 3422 C 331.928 -4.06483 -1.46271 0
M  V30 3423 C 331.063 -4.61665 -2.62752 0
M  V30 3424 C 330.102 -5.73417 -2.14147 0
M  V30 3425 N 329.239 -6.22948 -3.23853 0
M  V30 3426 H 334.079 -2.97575 -0.159111 0
M  V30 3427 H 331.616 -1.46948 -0.0667874 0
M  V30 3428 H 333.574 -3.24294 -2.62468 0
M  V30 3429 H 332.204 -2.11725 -2.43664 0
M  V30 3430 H 331.256 -3.74825 -0.648886 0
M  V30 3431 H 332.568 -4.87271 -1.06622 0
M  V30 3432 H 331.722 -5.01272 -3.41776 0
M  V30 3433 H 330.461 -3.80013 -3.05682 0
M  V30 3434 H 329.466 -5.33326 -1.33581 0
M  V30 3435 H 330.691 -6.56897 -1.72232 0
M  V30 3436 H 328.637 -5.44213 -3.6629 0
M  V30 3437 H 328.554 -6.98823 -2.88414 0
M  V30 3438 H 329.822 -6.6721 -4.03052 0
M  V30 3439 N 334.051 0.0651679 -1.57465 0
M  V30 3440 C 335.014 1.06117 -2.03155 0
M  V30 3441 C 336.014 1.31204 -0.929632 0
M  V30 3442 O 337.204 1.26813 -1.19432 0
M  V30 3443 C 334.336 2.4032 -2.41783 0
M  V30 3444 H 335.529 0.667231 -2.92383 0
M  V30 3445 H 333.082 0.311075 -1.53173 0
M  V30 3446 H 333.817 2.84532 -1.55601 0
M  V30 3447 H 333.602 2.23451 -3.22199 0
M  V30 3448 H 335.092 3.11898 -2.77685 0
M  V30 3449 N 335.529 1.53961 0.336706 0
M  V30 3450 C 336.776 1.71536 1.07618 0
M  V30 3451 C 337.104 0.482125 1.8843 0
M  V30 3452 O 336.359 -0.536142 1.88213 0
M  V30 3453 C 336.658 2.93493 2.03953 0
M  V30 3454 C 336.324 4.28811 1.39399 0
M  V30 3455 C 334.986 4.65602 1.21523 0
M  V30 3456 C 337.338 5.12844 0.929541 0
M  V30 3457 C 334.666 5.84037 0.558312 0
M  V30 3458 C 337.018 6.31951 0.286505 0
M  V30 3459 C 335.682 6.67432 0.0954869 0
M  V30 3460 H 334.952 0.627696 0.393801 0
M  V30 3461 H 337.599 1.88186 0.354715 0
M  V30 3462 H 335.904 2.71475 2.82504 0
M  V30 3463 H 337.601 3.04285 2.61174 0
M  V30 3464 H 334.191 3.99858 1.54311 0
M  V30 3465 H 338.375 4.84947 1.05548 0
M  V30 3466 H 333.631 6.10097 0.398995 0
M  V30 3467 H 337.805 6.96352 -0.0814376 0
M  V30 3468 H 335.432 7.59063 -0.415579 0
M  V30 3469 N 337.007 -0.598083 1.45811 0
M  V30 3470 C 338.255 -1.35413 1.50026 0
M  V30 3471 C 338.576 -1.94444 0.147177 0
M  V30 3472 O 337.846 -1.77701 -0.824571 0
M  V30 3473 H 336.426 -0.502727 0.552517 0
M  V30 3474 H 339.088 -0.701606 1.81834 0
M  V30 3475 H 338.184 -2.16871 2.2444 0
M  V30 3476 N 338.485 -1.33259 -0.841409 0
M  V30 3477 C 339.417 -1.19136 -1.95804 0
M  V30 3478 C 340.43 -0.122965 -1.62335 0
M  V30 3479 O 341.619 -0.373154 -1.74556 0
M  V30 3480 C 338.719 -0.804268 -3.29218 0
M  V30 3481 C 337.892 -1.96376 -3.90839 0
M  V30 3482 C 336.951 -1.55806 -5.02604 0
M  V30 3483 O 335.977 -2.27203 -5.21888 0
M  V30 3484 N 337.179 -0.461609 -5.78662 0
M  V30 3485 H 339.944 -2.15326 -2.08458 0
M  V30 3486 H 337.505 -1.25971 -1.017 0
M  V30 3487 H 339.497 -0.51501 -4.0141 0
M  V30 3488 H 338.067 0.0668809 -3.12528 0
M  V30 3489 H 337.287 -2.41879 -3.11269 0
M  V30 3490 H 338.575 -2.73966 -4.28742 0
M  V30 3491 H 337.973 0.132343 -5.65545 0
M  V30 3492 H 336.53 -0.232013 -6.51387 0
M  V30 3493 N 339.963 1.05934 -1.16686 0
M  V30 3494 C 340.926 2.11669 -0.879144 0
M  V30 3495 C 341.926 1.60294 0.127445 0
M  V30 3496 O 343.116 1.7389 -0.103865 0
M  V30 3497 C 340.248 3.39438 -0.315425 0
M  V30 3498 H 341.441 2.38626 -1.81653 0
M  V30 3499 H 338.994 1.22058 -0.976299 0
M  V30 3500 H 339.729 3.18132 0.629468 0
M  V30 3501 H 339.514 3.78034 -1.04079 0
M  V30 3502 H 341.004 4.17391 -0.132189 0
M  V30 3503 N 341.441 0.965919 1.2453 0
M  V30 3504 C 342.388 0.49402 2.25451 0
M  V30 3505 C 343.358 -0.45948 1.59618 0
M  V30 3506 O 344.543 -0.370238 1.87173 0
M  V30 3507 C 341.683 -0.211359 3.44452 0
M  V30 3508 C 340.796 0.7807 4.24887 0
M  V30 3509 C 339.931 0.0516105 5.31175 0
M  V30 3510 C 338.97 1.03385 6.03306 0
M  V30 3511 N 338.107 0.334887 7.01301 0
M  V30 3512 H 342.947 1.35946 2.65184 0
M  V30 3513 H 340.484 0.681515 1.3036 0
M  V30 3514 H 342.442 -0.637 4.12308 0
M  V30 3515 H 341.072 -1.04077 3.05562 0
M  V30 3516 H 340.124 1.32479 3.56586 0
M  V30 3517 H 341.436 1.52978 4.74762 0
M  V30 3518 H 340.59 -0.432114 6.05159 0
M  V30 3519 H 339.329 -0.730179 4.82203 0
M  V30 3520 H 338.334 1.52847 5.28127 0
M  V30 3521 H 339.559 1.81606 6.54367 0
M  V30 3522 H 337.505 -0.427959 6.54603 0
M  V30 3523 H 337.422 1.02287 7.49048 0
M  V30 3524 H 338.69 -0.126928 7.79397 0
M  V30 3525 N 342.919 -1.39368 0.735821 0
M  V30 3526 C 343.869 -2.27885 0.0724287 0
M  V30 3527 C 344.853 -1.44301 -0.711756 0
M  V30 3528 O 346.045 -1.67206 -0.58063 0
M  V30 3529 C 343.174 -3.33029 -0.833454 0
M  V30 3530 C 342.26 -4.24078 -0.0433749 0
M  V30 3531 N 342.651 -4.96138 0.983903 0
M  V30 3532 C 340.949 -4.45164 -0.272905 0
M  V30 3533 C 341.65 -5.63069 1.4604 0
M  V30 3534 N 340.626 -5.37991 0.778857 0
M  V30 3535 H 344.428 -2.81052 0.859467 0
M  V30 3536 H 341.942 -1.5206 0.570227 0
M  V30 3537 H 343.939 -3.95311 -1.32419 0
M  V30 3538 H 342.599 -2.81421 -1.61964 0
M  V30 3539 H 343.61 -4.9958 1.36528 0
M  V30 3540 H 340.287 -4.04497 -1.03383 0
M  V30 3541 H 341.677 -6.30755 2.31511 0
M  V30 3542 N 344.397 -0.483516 -1.5 0
M  V30 3543 C 345.329 0.340634 -2.26655 0
M  V30 3544 C 346.342 0.946152 -1.32483 0
M  V30 3545 O 347.531 0.832453 -1.579 0
M  V30 3546 C 344.631 1.4929 -3.04246 0
M  V30 3547 C 343.804 0.997903 -4.25865 0
M  V30 3548 C 342.863 2.02569 -4.85646 0
M  V30 3549 O 341.889 1.60128 -5.46212 0
M  V30 3550 N 343.091 3.3548 -4.73744 0
M  V30 3551 H 345.856 -0.316577 -2.98023 0
M  V30 3552 H 343.417 -0.315024 -1.58806 0
M  V30 3553 H 345.409 2.17766 -3.41116 0
M  V30 3554 H 343.979 2.05458 -2.35597 0
M  V30 3555 H 343.199 0.138617 -3.93956 0
M  V30 3556 H 344.487 0.645305 -5.04691 0
M  V30 3557 H 343.885 3.72661 -4.25605 0
M  V30 3558 H 342.442 3.99718 -5.14848 0
M  V30 3559 N 345.875 1.56104 -0.216619 0
M  V30 3560 C 347.286 1.844 0.292128 0
M  V30 3561 C 347.637 1.13788 1.59833 0
M  V30 3562 O 346.762 0.405888 2.12559 0
M  V30 3563 C 347.357 3.3452 0.53681 0
M  V30 3564 C 345.916 3.63151 0.989876 0
M  V30 3565 C 345.063 2.77255 0.0502302 0
M  V30 3566 H 348.014 1.52481 -0.439926 0
M  V30 3567 H 348.035 3.54459 1.38345 0
M  V30 3568 H 347.547 3.85885 -0.414031 0
M  V30 3569 H 345.648 3.17238 1.95425 0
M  V30 3570 H 345.761 4.71177 0.867698 0
M  V30 3571 H 344.125 2.48555 0.556117 0
M  V30 3572 H 344.908 3.31416 -0.89544 0
M  V30 3573 N 347.353 -0.0568162 1.57498 0
M  V30 3574 C 348.581 -0.765626 1.92213 0
M  V30 3575 C 348.996 -1.70353 0.813961 0
M  V30 3576 O 348.353 -1.81268 -0.211701 0
M  V30 3577 C 348.404 -1.5465 3.2675 0
M  V30 3578 O 348.125 -0.646278 4.33307 0
M  V30 3579 C 349.626 -2.35497 3.75574 0
M  V30 3580 H 346.846 -0.216835 0.634999 0
M  V30 3581 H 349.39 -0.0226146 2.04487 0
M  V30 3582 H 347.545 -2.24165 3.15957 0
M  V30 3583 H 347.959 -1.19093 5.108 0
M  V30 3584 H 349.433 -2.85722 4.72299 0
M  V30 3585 H 349.91 -3.15692 3.05344 0
M  V30 3586 H 350.516 -1.7111 3.8936 0
M  V30 3587 N 348.832 -1.54138 -0.328536 0
M  V30 3588 C 349.795 -1.82462 -1.38709 0
M  V30 3589 C 350.795 -0.696229 -1.44946 0
M  V30 3590 O 351.985 -0.964535 -1.4506 0
M  V30 3591 C 349.117 -1.98018 -2.77492 0
M  V30 3592 H 350.31 -2.77037 -1.14851 0
M  V30 3593 H 347.863 -1.45779 -0.563751 0
M  V30 3594 H 348.598 -1.05637 -3.06613 0
M  V30 3595 H 348.383 -2.80124 -2.74359 0
M  V30 3596 H 349.873 -2.21396 -3.54081 0
M  V30 3597 N 350.31 0.590341 -1.46126 0
M  V30 3598 C 351.559 1.34499 -1.50309 0
M  V30 3599 C 351.872 1.94977 -0.156021 0
M  V30 3600 O 353.078 2.71395 -0.0756037 0
M  V30 3601 C 351.534 2.43723 -2.64815 0
M  V30 3602 C 351.142 1.89582 -4.0591 0
M  V30 3603 C 352.886 3.20579 -2.78262 0
M  V30 3604 C 350.793 2.9639 -5.11769 0
M  V30 3605 H 349.723 0.505593 -0.559368 0
M  V30 3606 H 352.374 0.630848 -1.72315 0
M  V30 3607 H 350.756 3.17902 -2.36124 0
M  V30 3608 H 351.93 1.21997 -4.44357 0
M  V30 3609 H 350.245 1.25418 -3.97063 0
M  V30 3610 H 352.842 4.00276 -3.54519 0
M  V30 3611 H 353.185 3.72684 -1.85505 0
M  V30 3612 H 353.718 2.53505 -3.06562 0
M  V30 3613 H 350.457 2.49181 -6.06291 0
M  V30 3614 H 349.977 3.62487 -4.77873 0
M  V30 3615 H 351.656 3.60474 -5.37278 0
M  V30 3616 N 351.788 1.33704 0.83433 0
M  V30 3617 C 353.037 1.24763 1.58484 0
M  V30 3618 C 353.35 -0.183775 1.94735 0
M  V30 3619 O 354.556 -0.395234 2.68608 0
M  V30 3620 C 353.012 2.18638 2.85876 0
M  V30 3621 C 352.62 3.66974 2.56971 0
M  V30 3622 C 354.364 2.18581 3.63899 0
M  V30 3623 C 352.271 4.5275 3.80488 0
M  V30 3624 H 351.201 0.463425 0.594772 0
M  V30 3625 H 353.852 1.58797 0.919551 0
M  V30 3626 H 352.234 1.77542 3.5397 0
M  V30 3627 H 353.408 4.16538 1.9706 0
M  V30 3628 H 351.723 3.69366 1.92244 0
M  V30 3629 H 354.32 2.79894 4.55591 0
M  V30 3630 H 354.663 1.18207 3.99165 0
M  V30 3631 H 355.196 2.58062 3.02735 0
M  V30 3632 H 351.935 5.54017 3.5035 0
M  V30 3633 H 351.455 4.07927 4.39722 0
M  V30 3634 H 353.134 4.66784 4.4802 0
M  V30 3635 N 353.266 -1.05314 1.17247 0
M  V30 3636 C 354.229 -2.112 0.890357 0
M  V30 3637 C 355.229 -1.60359 -0.118943 0
M  V30 3638 O 356.419 -1.73833 0.113086 0
M  V30 3639 C 353.551 -3.39266 0.333422 0
M  V30 3640 H 354.744 -2.37659 1.82916 0
M  V30 3641 H 352.297 -1.21538 0.982758 0
M  V30 3642 H 353.032 -3.18462 -0.612587 0
M  V30 3643 H 352.817 -3.77477 1.06082 0
M  V30 3644 H 354.307 -4.17315 0.154322 0
M  V30 3645 N 354.744 -0.972509 -1.24016 0
M  V30 3646 C 355.691 -0.505969 -2.25186 0
M  V30 3647 C 356.661 0.451009 -1.5986 0
M  V30 3648 O 357.846 0.360307 -1.87367 0
M  V30 3649 C 354.986 0.193089 -3.44559 0
M  V30 3650 C 354.099 -0.803222 -4.24467 0
M  V30 3651 C 353.234 -0.0797793 -5.3114 0
M  V30 3652 C 352.273 -1.06583 -6.02749 0
M  V30 3653 N 351.41 -0.372074 -7.01113 0
M  V30 3654 H 356.25 -1.37351 -2.64459 0
M  V30 3655 H 353.787 -0.688419 -1.29997 0
M  V30 3656 H 355.745 0.615125 -4.1264 0
M  V30 3657 H 354.375 1.02455 -3.06109 0
M  V30 3658 H 353.427 -1.34368 -3.55878 0
M  V30 3659 H 354.739 -1.55494 -4.73944 0
M  V30 3660 H 353.893 0.400015 -6.0538 0
M  V30 3661 H 352.632 0.704597 -4.82583 0
M  V30 3662 H 351.637 -1.55645 -5.27309 0
M  V30 3663 H 352.862 -1.85074 -6.53395 0
M  V30 3664 H 350.808 0.393238 -6.5482 0
M  V30 3665 H 350.725 -1.06258 -7.48495 0
M  V30 3666 H 351.993 0.0855932 -7.79453 0
M  V30 3667 N 356.222 1.38976 -0.743202 0
M  V30 3668 C 357.45 2.04636 -0.30525 0
M  V30 3669 C 357.865 1.56044 1.06281 0
M  V30 3670 O 357.222 0.728921 1.67311 0
M  V30 3671 C 357.273 3.60193 -0.307177 0
M  V30 3672 O 356.994 4.06998 -1.62124 0
M  V30 3673 C 358.495 4.4306 0.145928 0
M  V30 3674 H 355.715 0.65788 -0.132041 0
M  V30 3675 H 358.259 1.77866 -1.00915 0
M  V30 3676 H 356.414 3.85835 0.347898 0
M  V30 3677 H 356.828 5.01371 -1.54036 0
M  V30 3678 H 358.302 5.51921 0.0934183 0
M  V30 3679 H 358.779 4.22706 1.19231 0
M  V30 3680 H 359.385 4.22584 -0.479886 0
M  V30 3681 N 357.7 0.491464 1.49741 0
M  V30 3682 C 358.947 -0.0564256 2.02421 0
M  V30 3683 C 359.275 -1.37872 1.37192 0
M  V30 3684 O 358.53 -1.89375 0.493508 0
M  V30 3685 C 358.829 -0.267329 3.56399 0
M  V30 3686 C 358.495 0.975775 4.40215 0
M  V30 3687 C 357.157 1.31655 4.62839 0
M  V30 3688 C 359.509 1.80251 4.89039 0
M  V30 3689 C 356.837 2.48375 5.31532 0
M  V30 3690 C 359.189 2.96116 5.59015 0
M  V30 3691 C 357.853 3.30585 5.79888 0
M  V30 3692 H 357.123 -0.0206476 0.740712 0
M  V30 3693 H 359.77 0.649686 1.80143 0
M  V30 3694 H 358.075 -1.05588 3.77304 0
M  V30 3695 H 359.772 -0.705549 3.94744 0
M  V30 3696 H 356.362 0.700315 4.2284 0
M  V30 3697 H 360.546 1.55239 4.71396 0
M  V30 3698 H 355.802 2.7533 5.45897 0
M  V30 3699 H 359.976 3.60509 5.95824 0
M  V30 3700 H 357.603 4.21132 6.32892 0
M  V30 3701 N 359.178 -1.55987 0.224894 0
M  V30 3702 C 360.125 -2.20436 -0.68385 0
M  V30 3703 C 361.095 -1.16102 -1.18783 0
M  V30 3704 O 362.28 -1.4447 -1.24632 0
M  V30 3705 C 359.42 -2.89076 -1.88491 0
M  V30 3706 C 358.533 -4.08012 -1.41951 0
M  V30 3707 C 357.668 -4.64426 -2.5784 0
M  V30 3708 C 356.707 -5.75656 -2.08053 0
M  V30 3709 N 355.844 -6.26347 -3.17227 0
M  V30 3710 H 360.684 -2.97727 -0.12754 0
M  V30 3711 H 358.221 -1.47011 -0.0511978 0
M  V30 3712 H 360.179 -3.27059 -2.59014 0
M  V30 3713 H 358.809 -2.14298 -2.41405 0
M  V30 3714 H 357.861 -3.75492 -0.609095 0
M  V30 3715 H 359.173 -4.88375 -1.01447 0
M  V30 3716 H 358.327 -5.04869 -3.3644 0
M  V30 3717 H 357.066 -3.83233 -3.01635 0
M  V30 3718 H 356.071 -5.34712 -1.27916 0
M  V30 3719 H 357.296 -6.58686 -1.65255 0
M  V30 3720 H 355.242 -5.48067 -3.60497 0
M  V30 3721 H 355.159 -7.01843 -2.80986 0
M  V30 3722 H 356.427 -6.71447 -3.95953 0
M  V30 3723 N 360.656 0.0484629 -1.57525 0
M  V30 3724 C 361.904 0.741657 -1.88 0
M  V30 3725 C 362.225 1.76918 -0.820054 0
M  V30 3726 O 361.495 1.95335 0.148661 0
M  V30 3727 H 360.075 0.276908 -0.69378 0
M  V30 3728 H 362.737 0.019013 -1.94891 0
M  V30 3729 H 361.833 1.24336 -2.86264 0
M  V30 3730 N 362.134 1.5431 0.320358 0
M  V30 3731 C 363.55 1.45091 0.664889 0
M  V30 3732 C 363.75 0.626382 1.91517 0
M  V30 3733 O 362.806 0.126443 2.52183 0
M  V30 3734 C 364.119 2.88848 0.83591 0
M  V30 3735 C 365.667 2.9877 0.933046 0
M  V30 3736 C 366.142 4.43683 1.13621 0
M  V30 3737 N 367.633 4.47309 1.20287 0
M  V30 3738 C 368.368 5.56595 1.37801 0
M  V30 3739 N 367.864 6.75844 1.52338 0
M  V30 3740 N 369.657 5.44248 1.40535 0
M  V30 3741 H 361.808 2.06398 -0.501374 0
M  V30 3742 H 364.071 0.933963 -0.162534 0
M  V30 3743 H 363.777 3.51698 -0.0116092 0
M  V30 3744 H 363.651 3.35148 1.73078 0
M  V30 3745 H 366.038 2.36045 1.77107 0
M  V30 3746 H 366.119 2.55796 0.0145782 0
M  V30 3747 H 365.763 5.06995 0.303032 0
M  V30 3748 H 365.693 4.84269 2.0686 0
M  V30 3749 H 368.184 3.61388 1.10485 0
M  V30 3750 H 368.497 7.54892 1.65403 0
M  V30 3751 H 366.842 6.78746 1.4943 0
M  V30 3752 H 370.033 4.50038 1.28777 0
M  V30 3753 H 370.206 6.29473 1.53842 0
M  V30 3754 N 363.613 -0.582584 1.46437 0
M  V30 3755 C 364.861 -1.33814 1.51453 0
M  V30 3756 C 365.182 -1.94277 0.167792 0
M  V30 3757 O 364.452 -1.78566 -0.805677 0
M  V30 3758 H 363.032 -0.496838 0.557818 0
M  V30 3759 H 365.694 -0.682281 1.82568 0
M  V30 3760 H 364.79 -2.14479 2.26728 0
M  V30 3761 N 365.091 -1.34144 -0.827227 0
M  V30 3762 C 366.34 -1.25602 -1.5782 0
M  V30 3763 C 366.653 0.173445 -1.94829 0
M  V30 3764 O 367.859 0.380984 -2.68814 0
M  V30 3765 C 366.315 -2.20151 -2.84713 0
M  V30 3766 C 365.923 -3.68331 -2.55021 0
M  V30 3767 C 367.667 -2.20508 -3.62735 0
M  V30 3768 C 365.574 -4.54762 -3.78082 0
M  V30 3769 H 364.504 -0.466573 -0.592306 0
M  V30 3770 H 367.155 -1.59283 -0.911116 0
M  V30 3771 H 365.537 -1.79417 -3.53023 0
M  V30 3772 H 366.711 -4.17577 -1.94849 0
M  V30 3773 H 365.026 -3.7038 -1.90283 0
M  V30 3774 H 367.623 -2.82306 -4.54101 0
M  V30 3775 H 367.966 -1.20322 -3.98533 0
M  V30 3776 H 368.499 -2.59664 -3.01362 0
M  V30 3777 H 365.238 -5.55867 -3.47407 0
M  V30 3778 H 364.758 -4.10254 -4.37552 0
M  V30 3779 H 366.437 -4.69153 -4.45538 0
M  V30 3780 N 366.569 1.04691 -1.17803 0
M  V30 3781 C 367.797 1.81446 -0.99423 0
M  V30 3782 C 368.212 1.83174 0.457459 0
M  V30 3783 O 367.569 1.26265 1.31771 0
M  V30 3784 C 367.62 3.27334 -1.5341 0
M  V30 3785 O 367.341 3.25798 -2.92895 0
M  V30 3786 C 368.842 4.20759 -1.39559 0
M  V30 3787 H 366.062 0.571599 -0.351447 0
M  V30 3788 H 368.606 1.31982 -1.56208 0
M  V30 3789 H 366.761 3.74052 -1.00815 0
M  V30 3790 H 367.175 4.17144 -3.17949 0
M  V30 3791 H 368.649 5.21084 -1.82141 0
M  V30 3792 H 369.126 4.37856 -0.343394 0
M  V30 3793 H 369.732 3.79901 -1.91195 0
M  V30 3794 N 368.047 0.979072 1.23499 0
M  V30 3795 C 369.295 0.645941 1.91499 0
M  V30 3796 C 369.616 -0.822948 1.76784 0
M  V30 3797 O 368.886 -1.58854 1.14639 0
M  V30 3798 H 367.466 0.235919 0.708767 0
M  V30 3799 H 370.128 1.2426 1.50152 0
M  V30 3800 H 369.224 0.896411 2.9895 0
M  V30 3801 N 369.525 -1.3858 0.750561 0
M  V30 3802 C 370.771 -2.00481 0.305825 0
M  V30 3803 C 371.104 -1.5944 -1.10872 0
M  V30 3804 O 370.379 -0.83052 -1.75877 0
M  V30 3805 C 370.662 -3.5758 0.425287 0
M  V30 3806 C 370.515 -4.08594 1.88072 0
M  V30 3807 C 371.834 -4.39719 -0.183122 0
M  V30 3808 H 368.953 -0.728348 0.112598 0
M  V30 3809 H 371.595 -1.64566 0.949638 0
M  V30 3810 H 369.745 -3.88306 -0.122828 0
M  V30 3811 H 371.417 -3.88523 2.48691 0
M  V30 3812 H 369.66 -3.61574 2.39681 0
M  V30 3813 H 370.331 -5.177 1.91548 0
M  V30 3814 H 372.807 -4.15128 0.284303 0
M  V30 3815 H 371.683 -5.48856 -0.0692757 0
M  V30 3816 H 371.944 -4.23434 -1.27106 0
M  V30 3817 N 371.003 -0.499398 -1.49478 0
M  V30 3818 C 371.913 0.284489 -2.32869 0
M  V30 3819 C 372.929 0.968885 -1.44529 0
M  V30 3820 O 374.105 0.95062 -1.77553 0
M  V30 3821 C 371.17 1.33594 -3.19928 0
M  V30 3822 C 370.231 0.665149 -4.24116 0
M  V30 3823 C 369.464 1.6665 -5.07014 0
M  V30 3824 O 369.687 2.89618 -4.91404 0
M  V30 3825 O 368.621 1.22271 -5.8935 0
M  V30 3826 H 372.447 -0.39802 -3.01081 0
M  V30 3827 H 370.032 -0.260758 -1.47107 0
M  V30 3828 H 371.914 1.94431 -3.73864 0
M  V30 3829 H 370.589 2.0014 -2.54412 0
M  V30 3830 H 369.496 0.0170769 -3.74096 0
M  V30 3831 H 370.829 0.0421555 -4.92182 0
M  V30 3832 N 372.481 1.55866 -0.233164 0
M  V30 3833 C 373.758 1.90471 0.444988 0
M  V30 3834 C 374.138 1.15209 1.7689 0
M  V30 3835 O 373.486 0.265119 2.26957 0
M  V30 3836 C 373.696 3.4333 0.626559 0
M  V30 3837 C 375.044 4.14319 0.92871 0
M  V30 3838 O 376.068 3.48993 0.712926 0
M  V30 3839 O 374.927 5.29846 1.33887 0
M  V30 3840 H 372.021 0.792347 0.236885 0
M  V30 3841 H 374.567 1.67437 -0.276211 0
M  V30 3842 H 373.339 3.90095 -0.306822 0
M  V30 3843 H 372.962 3.72181 1.39881 0
M  V30 3844 N 373.959 -0.0401083 1.57549 0
M  V30 3845 C 374.906 -1.04413 2.05831 0
M  V30 3846 C 375.876 -1.36585 0.945184 0
M  V30 3847 O 377.061 -1.47112 1.21502 0
M  V30 3848 C 374.201 -2.34336 2.53339 0
M  V30 3849 C 373.314 -2.08419 3.78398 0
M  V30 3850 C 372.449 -3.32133 4.14561 0
M  V30 3851 C 371.488 -3.01721 5.3257 0
M  V30 3852 N 370.625 -4.17855 5.64218 0
M  V30 3853 H 375.465 -0.625442 2.91363 0
M  V30 3854 H 373.002 -0.297218 1.44066 0
M  V30 3855 H 374.96 -3.10234 2.78946 0
M  V30 3856 H 373.59 -2.73948 1.7074 0
M  V30 3857 H 372.642 -1.23069 3.59942 0
M  V30 3858 H 373.954 -1.81978 4.64419 0
M  V30 3859 H 373.108 -4.16406 4.41238 0
M  V30 3860 H 371.847 -3.61678 3.2717 0
M  V30 3861 H 370.852 -2.15849 5.05657 0
M  V30 3862 H 372.077 -2.73466 6.21605 0
M  V30 3863 H 370.023 -4.47372 4.79786 0
M  V30 3864 H 369.94 -3.94798 6.44725 0
M  V30 3865 H 371.208 -5.03033 5.95465 0
M  V30 3866 N 375.437 -1.54477 -0.31217 0
M  V30 3867 C 376.347 -1.87695 -1.4074 0
M  V30 3868 C 377.363 -0.769975 -1.56036 0
M  V30 3869 O 378.539 -1.06537 -1.70915 0
M  V30 3870 C 375.604 -2.10755 -2.75287 0
M  V30 3871 C 374.665 -3.34514 -2.69071 0
M  V30 3872 C 373.898 -3.56465 -3.97201 0
M  V30 3873 O 374.121 -2.81637 -4.96021 0
M  V30 3874 O 373.055 -4.49964 -3.9977 0
M  V30 3875 H 376.881 -2.80849 -1.15574 0
M  V30 3876 H 374.466 -1.40526 -0.507228 0
M  V30 3877 H 376.348 -2.27188 -3.54913 0
M  V30 3878 H 375.023 -1.20788 -3.0032 0
M  V30 3879 H 373.93 -3.23456 -1.87955 0
M  V30 3880 H 375.263 -4.24575 -2.48992 0
M  V30 3881 N 376.915 0.57481 -1.46744 0
M  V30 3882 C 378.14 1.36341 -1.56288 0
M  V30 3883 C 378.565 1.86954 -0.207347 0
M  V30 3884 O 377.923 1.62006 0.813871 0
M  V30 3885 C 377.971 2.52147 -2.57787 0
M  V30 3886 O 377.075 3.53834 -2.11838 0
M  V30 3887 H 376.416 0.405713 -0.525636 0
M  V30 3888 H 378.946 0.696453 -1.92382 0
M  V30 3889 H 378.956 2.98958 -2.77648 0
M  V30 3890 H 377.631 2.14663 -3.5622 0
M  V30 3891 H 376.208 3.1345 -2.01999 0
M  V30 3892 N 378.394 1.34581 0.820102 0
M  V30 3893 C 379.64 1.28294 1.57836 0
M  V30 3894 C 379.995 -0.145099 1.91852 0
M  V30 3895 O 379.288 -1.09209 1.57429 0
M  V30 3896 C 379.482 2.10997 2.8847 0
M  V30 3897 C 379.311 3.61698 2.67216 0
M  V30 3898 C 378.081 4.3097 2.63805 0
M  V30 3899 C 380.279 4.55638 2.38534 0
M  V30 3900 N 378.261 5.67502 2.34126 0
M  V30 3901 C 379.632 5.80194 2.18574 0
M  V30 3902 C 381.687 4.44523 2.24285 0
M  V30 3903 C 380.39 6.94886 1.8581 0
M  V30 3904 C 382.416 5.5905 1.92916 0
M  V30 3905 C 381.778 6.82627 1.73782 0
M  V30 3906 H 377.877 0.524697 0.579842 0
M  V30 3907 H 380.461 1.69323 0.961139 0
M  V30 3908 H 378.632 1.7226 3.48111 0
M  V30 3909 H 380.364 1.96333 3.53886 0
M  V30 3910 H 377.119 3.83438 2.77978 0
M  V30 3911 H 377.543 6.39525 2.22118 0
M  V30 3912 H 382.185 3.49599 2.37782 0
M  V30 3913 H 379.903 7.89789 1.7105 0
M  V30 3914 H 383.489 5.52396 1.82619 0
M  V30 3915 H 382.369 7.69748 1.49861 0
M  V30 3916 N 379.872 -1.04064 1.18357 0
M  V30 3917 C 380.822 -2.10393 0.878561 0
M  V30 3918 C 381.806 -1.60183 -0.151713 0
M  V30 3919 O 382.998 -1.76923 0.0523303 0
M  V30 3920 C 380.127 -3.4089 0.406096 0
M  V30 3921 C 379.213 -3.97866 1.46844 0
M  V30 3922 N 379.604 -4.28657 2.68489 0
M  V30 3923 C 377.902 -4.2574 1.32896 0
M  V30 3924 C 378.603 -4.74253 3.36836 0
M  V30 3925 N 377.579 -4.75068 2.64219 0
M  V30 3926 H 381.381 -2.32076 1.80327 0
M  V30 3927 H 378.895 -1.21818 1.07397 0
M  V30 3928 H 380.892 -4.16557 0.169088 0
M  V30 3929 H 379.552 -3.20633 -0.512275 0
M  V30 3930 H 380.563 -4.18304 3.05356 0
M  V30 3931 H 377.24 -4.1481 0.473134 0
M  V30 3932 H 378.63 -5.07096 4.40798 0
M  V30 3933 N 381.35 -0.985608 -1.22978 0
M  V30 3934 C 382.598 -0.656087 -1.91154 0
M  V30 3935 C 382.919 0.813561 -1.77218 0
M  V30 3936 O 382.189 1.58244 -1.1548 0
M  V30 3937 H 380.769 -0.239674 -0.707506 0
M  V30 3938 H 383.431 -1.25054 -1.49491 0
M  V30 3939 H 382.527 -0.912253 -2.9847 0
M  V30 3940 N 382.828 1.3818 -0.7579 0
M  V30 3941 C 383.775 2.30416 -0.133057 0
M  V30 3942 C 384.745 1.50398 0.704957 0
M  V30 3943 O 385.93 1.79014 0.660192 0
M  V30 3944 C 383.07 3.36834 0.750813 0
M  V30 3945 C 382.183 4.31879 -0.102297 0
M  V30 3946 C 381.318 5.25368 0.784979 0
M  V30 3947 C 380.357 6.12058 -0.0715046 0
M  V30 3948 N 379.494 6.97832 0.772972 0
M  V30 3949 H 384.334 2.83274 -0.925186 0
M  V30 3950 H 381.871 1.39461 -0.467866 0
M  V30 3951 H 383.829 3.97145 1.27794 0
M  V30 3952 H 382.459 2.85374 1.50868 0
M  V30 3953 H 381.511 3.72991 -0.747095 0
M  V30 3954 H 382.823 4.92921 -0.763552 0
M  V30 3955 H 381.977 5.90818 1.37911 0
M  V30 3956 H 380.716 4.64703 1.47996 0
M  V30 3957 H 379.721 5.456 -0.678272 0
M  V30 3958 H 380.946 6.74793 -0.763606 0
M  V30 3959 H 378.892 6.3971 1.45282 0
M  V30 3960 H 378.809 7.55812 0.168709 0
M  V30 3961 H 380.077 7.67687 1.35194 0
M  V30 3962 N 384.306 0.507319 1.49211 0
M  V30 3963 C 385.717 0.0611118 1.866 0
M  V30 3964 C 386.068 -1.35488 1.41907 0
M  V30 3965 O 385.193 -2.0108 0.799726 0
M  V30 3966 C 385.788 0.104125 3.3864 0
M  V30 3967 C 384.347 -0.28677 3.75306 0
M  V30 3968 C 383.494 0.473893 2.73221 0
M  V30 3969 H 386.445 0.719775 1.41439 0
M  V30 3970 H 386.466 -0.689672 3.74198 0
M  V30 3971 H 385.978 1.13482 3.71138 0
M  V30 3972 H 384.079 -1.32046 3.48417 0
M  V30 3973 H 384.192 0.0370745 4.79086 0
M  V30 3974 H 382.556 -0.0770644 2.54583 0
M  V30 3975 H 383.339 1.50478 3.08563 0
M  V30 3976 N 385.784 -1.5574 0.241426 0
M  V30 3977 C 386.714 -2.24133 -0.654722 0
M  V30 3978 C 387.695 -1.21974 -1.1856 0
M  V30 3979 O 388.88 -1.50612 -1.22595 0
M  V30 3980 C 386.01 -2.93659 -1.85423 0
M  V30 3981 C 384.964 -4.0246 -1.45636 0
M  V30 3982 C 384.29 -4.59383 -2.73626 0
M  V30 3983 C 385.59 -5.18468 -0.631506 0
M  V30 3984 H 387.284 -2.99281 -0.0844353 0
M  V30 3985 H 384.83 -1.43947 -0.0391707 0
M  V30 3986 H 386.783 -3.40203 -2.48676 0
M  V30 3987 H 385.507 -2.15991 -2.44981 0
M  V30 3988 H 384.166 -3.56676 -0.847202 0
M  V30 3989 H 383.814 -3.78422 -3.3137 0
M  V30 3990 H 383.514 -5.32826 -2.4773 0
M  V30 3991 H 385.038 -5.08658 -3.37786 0
M  V30 3992 H 386.452 -5.61272 -1.1682 0
M  V30 3993 H 384.849 -5.98266 -0.468831 0
M  V30 3994 H 385.919 -4.8358 0.357506 0
M  V30 3995 N 387.262 0.0317525 -1.57568 0
M  V30 3996 C 388.673 0.578692 -1.77505 0
M  V30 3997 C 389.024 1.75749 -0.872164 0
M  V30 3998 O 388.149 2.16298 -0.0663106 0
M  V30 3999 C 388.744 1.05658 -3.21904 0
M  V30 4000 C 387.303 1.54906 -3.43047 0
M  V30 4001 C 386.45 0.485939 -2.73009 0
M  V30 4002 H 389.401 -0.194475 -1.57504 0
M  V30 4003 H 389.422 1.92404 -3.28269 0
M  V30 4004 H 388.934 0.198422 -3.87592 0
M  V30 4005 H 387.035 2.42915 -2.82529 0
M  V30 4006 H 387.148 1.59841 -4.5165 0
M  V30 4007 H 385.512 0.940354 -2.36705 0
M  V30 4008 H 386.295 -0.362709 -3.41379 0
M  V30 4009 N 388.74 1.54641 0.303973 0
M  V30 4010 C 389.687 1.85386 1.37479 0
M  V30 4011 C 390.657 0.702528 1.50512 0
M  V30 4012 O 391.842 0.950867 1.65418 0
M  V30 4013 C 388.982 2.10413 2.73533 0
M  V30 4014 C 388.095 3.38049 2.68974 0
M  V30 4015 C 387.23 3.52934 3.97002 0
M  V30 4016 C 386.269 4.74373 3.86829 0
M  V30 4017 N 385.406 4.8608 5.06627 0
M  V30 4018 H 390.246 2.76732 1.1056 0
M  V30 4019 H 387.783 1.37034 0.534805 0
M  V30 4020 H 389.741 2.22919 3.52652 0
M  V30 4021 H 388.371 1.22338 2.98719 0
M  V30 4022 H 387.423 3.3418 1.81736 0
M  V30 4023 H 388.735 4.27288 2.57346 0
M  V30 4024 H 387.889 3.65088 4.84557 0
M  V30 4025 H 386.628 2.61824 4.1146 0
M  V30 4026 H 385.633 4.62255 2.97658 0
M  V30 4027 H 386.858 5.66888 3.73918 0
M  V30 4028 H 384.804 3.97891 5.21554 0
M  V30 4029 H 384.721 5.69315 4.9741 0
M  V30 4030 H 385.989 5.02587 5.95841 0
M  V30 4031 N 390.218 -0.567019 1.47046 0
M  V30 4032 C 391.166 -1.69593 1.59188 0
M  V30 4033 C 392.16 -1.63046 0.459609 0
M  V30 4034 O 393.366 -1.6835 0.637058 0
M  V30 4035 H 389.741 -0.560993 0.500791 0
M  V30 4036 H 391.712 -1.56488 2.54075 0
M  V30 4037 C 390.461 -3.07964 1.61411 0
M  V30 4038 H 389.784 -3.13679 2.47881 0
M  V30 4039 H 391.224 -3.86671 1.73958 0
M  V30 4040 C 389.683 -3.35123 0.34559 0
M  V30 4041 O 390.213 -3.97812 -0.557521 0
M  V30 4042 N 388.419 -2.89699 0.22864 0
M  V30 4043 H 387.966 -2.38863 0.964479 0
M  V30 4044 H 387.924 -3.08242 -0.619192 0
M  V30 4045 N 391.696 -1.35014 -0.812953 0
M  V30 4046 C 392.629 -1.21761 -1.93001 0
M  V30 4047 C 393.607 -0.10694 -1.62248 0
M  V30 4048 O 394.791 -0.273891 -1.865 0
M  V30 4049 C 391.918 -0.873404 -3.27245 0
M  V30 4050 C 390.964 -1.99523 -3.76952 0
M  V30 4051 S 391.797 -3.61009 -3.95516 0
M  V30 4052 C 392.953 -3.28651 -5.32672 0
M  V30 4053 H 393.186 -2.16315 -2.03948 0
M  V30 4054 H 390.719 -1.20156 -0.969631 0
M  V30 4055 H 392.677 -0.68161 -4.04802 0
M  V30 4056 H 391.338 0.053971 -3.14054 0
M  V30 4057 H 390.531 -1.70838 -4.74163 0
M  V30 4058 H 390.133 -2.14503 -3.06373 0
M  V30 4059 H 392.425 -2.81085 -6.1644 0
M  V30 4060 H 393.368 -4.25039 -5.66346 0
M  V30 4061 H 393.776 -2.6458 -4.98656 0
M  V30 4062 N 393.175 1.03435 -1.18907 0
M  V30 4063 C 394.138 2.09756 -0.923844 0
M  V30 4064 C 395.138 1.60528 0.093416 0
M  V30 4065 O 396.328 1.73631 -0.140727 0
M  V30 4066 C 393.46 3.38692 -0.387354 0
M  V30 4067 H 394.653 2.34719 -1.86674 0
M  V30 4068 H 392.206 1.19959 -1.00197 0
M  V30 4069 H 392.941 3.19396 0.561845 0
M  V30 4070 H 392.726 3.75742 -1.12074 0
M  V30 4071 H 394.216 4.17016 -0.220694 0
M  V30 4072 N 394.653 0.992116 1.22453 0
M  V30 4073 C 395.563 0.55065 2.28046 0
M  V30 4074 C 396.579 -0.400189 1.69335 0
M  V30 4075 O 397.755 -0.267215 1.99619 0
M  V30 4076 C 394.82 -0.128496 3.46462 0
M  V30 4077 C 393.881 0.865208 4.20491 0
M  V30 4078 C 393.114 0.218377 5.33253 0
M  V30 4079 O 393.337 -0.987894 5.6178 0
M  V30 4080 O 392.271 0.922845 5.94783 0
M  V30 4081 H 396.097 1.4291 2.67975 0
M  V30 4082 H 393.682 0.760326 1.28606 0
M  V30 4083 H 395.564 -0.508947 4.18315 0
M  V30 4084 H 394.239 -0.981526 3.0846 0
M  V30 4085 H 393.146 1.29658 3.50913 0
M  V30 4086 H 394.479 1.68741 4.62371 0
M  V30 4087 N 396.131 -1.37776 0.765217 0
M  V30 4088 C 397.063 -2.28958 0.105361 0
M  V30 4089 C 398.076 -1.48316 -0.67128 0
M  V30 4090 O 399.265 -1.71046 -0.51045 0
M  V30 4091 C 396.365 -3.27421 -0.874569 0
M  V30 4092 C 395.538 -4.37132 -0.153123 0
M  V30 4093 C 394.597 -5.1571 -1.04547 0
M  V30 4094 O 393.623 -5.66896 -0.511672 0
M  V30 4095 N 394.825 -5.29808 -2.37243 0
M  V30 4096 H 397.59 -2.86227 0.888495 0
M  V30 4097 H 395.151 -1.49682 0.617 0
M  V30 4098 H 397.143 -3.7687 -1.47483 0
M  V30 4099 H 395.713 -2.70967 -1.55871 0
M  V30 4100 H 394.933 -3.89166 0.627975 0
M  V30 4101 H 396.221 -5.07625 0.345643 0
M  V30 4102 H 395.619 -4.89793 -2.83054 0
M  V30 4103 H 394.176 -5.82589 -2.9229 0
M  V30 4104 N 397.609 -0.515225 -1.4894 0
M  V30 4105 C 398.858 0.0261361 -2.01683 0
M  V30 4106 C 399.171 1.36719 -1.39883 0
M  V30 4107 O 400.377 1.99606 -1.84037 0
M  V30 4108 C 398.833 0.0970111 -3.59769 0
M  V30 4109 C 398.441 -1.23825 -4.30548 0
M  V30 4110 C 400.185 0.587981 -4.20408 0
M  V30 4111 C 398.092 -1.12877 -5.80528 0
M  V30 4112 H 397.022 0.0135398 -0.753878 0
M  V30 4113 H 399.673 -0.656787 -1.71343 0
M  V30 4114 H 398.055 0.844694 -3.86886 0
M  V30 4115 H 399.229 -2.00034 -4.15118 0
M  V30 4116 H 397.544 -1.66379 -3.81716 0
M  V30 4117 H 400.141 0.68763 -5.3026 0
M  V30 4118 H 400.484 1.59026 -3.84729 0
M  V30 4119 H 401.017 -0.103582 -3.97665 0
M  V30 4120 H 397.756 -2.10575 -6.20756 0
M  V30 4121 H 397.276 -0.407799 -5.98412 0
M  V30 4122 H 398.955 -0.813332 -6.41868 0
M  V30 4123 N 399.087 1.5561 -0.249682 0
M  V30 4124 C 400.336 1.98187 0.37479 0
M  V30 4125 C 400.649 1.14111 1.58865 0
M  V30 4126 O 401.855 1.46714 2.28445 0
M  V30 4127 C 400.311 3.52661 0.718192 0
M  V30 4128 C 399.919 4.45481 -0.474428 0
M  V30 4129 C 401.663 4.03888 1.3067 0
M  V30 4130 C 399.57 5.91303 -0.107026 0
M  V30 4131 H 398.5 0.740159 0.143808 0
M  V30 4132 H 401.151 1.80125 -0.350336 0
M  V30 4133 H 399.533 3.66429 1.50152 0
M  V30 4134 H 400.707 4.43473 -1.25172 0
M  V30 4135 H 399.022 4.04751 -0.978052 0
M  V30 4136 H 401.619 5.10358 1.59496 0
M  V30 4137 H 401.962 3.51401 2.23211 0
M  V30 4138 H 402.495 3.93457 0.586211 0
M  V30 4139 H 399.234 6.47833 -0.999642 0
M  V30 4140 H 398.754 5.9644 0.634013 0
M  V30 4141 H 400.433 6.46258 0.309807 0
M  V30 4142 N 400.565 -0.0233959 1.57583 0
M  V30 4143 C 401.497 -1.04994 2.03737 0
M  V30 4144 C 402.51 -1.32125 0.951152 0
M  V30 4145 O 403.699 -1.29512 1.22837 0
M  V30 4146 C 400.799 -2.39026 2.40249 0
M  V30 4147 C 399.972 -2.31171 3.7132 0
M  V30 4148 C 399.031 -3.47698 3.94959 0
M  V30 4149 O 398.057 -3.26937 4.65941 0
M  V30 4150 N 399.259 -4.6976 3.41037 0
M  V30 4151 H 402.024 -0.656507 2.92421 0
M  V30 4152 H 399.585 -0.211235 1.60516 0
M  V30 4153 H 401.577 -3.15712 2.53196 0
M  V30 4154 H 400.147 -2.70194 1.57207 0
M  V30 4155 H 399.367 -1.39547 3.68674 0
M  V30 4156 H 400.655 -2.23071 4.57293 0
M  V30 4157 H 400.053 -4.89528 2.83512 0
M  V30 4158 H 398.61 -5.43791 3.59353 0
M  V30 4159 N 402.043 -1.548 -0.295768 0
M  V30 4160 C 402.953 -1.89177 -1.38742 0
M  V30 4161 C 403.969 -0.786481 -1.55211 0
M  V30 4162 O 405.145 -1.08344 -1.69775 0
M  V30 4163 C 402.21 -2.13663 -2.73036 0
M  V30 4164 C 401.271 -3.37349 -2.65508 0
M  V30 4165 C 400.504 -3.60658 -3.93398 0
M  V30 4166 O 400.727 -2.86882 -4.93006 0
M  V30 4167 O 399.661 -4.54179 -3.94975 0
M  V30 4168 H 403.487 -2.82059 -1.12589 0
M  V30 4169 H 401.072 -1.41056 -0.492295 0
M  V30 4170 H 402.954 -2.3094 -3.52484 0
M  V30 4171 H 401.629 -1.23967 -2.99022 0
M  V30 4172 H 400.536 -3.25431 -1.84514 0
M  V30 4173 H 401.869 -4.27192 -2.44474 0
M  V30 4174 N 403.521 0.559213 -1.47345 0
M  V30 4175 C 404.77 1.31281 -1.53128 0
M  V30 4176 C 405.083 1.94602 -0.197344 0
M  V30 4177 O 406.289 2.71173 -0.133154 0
M  V30 4178 C 404.745 2.38051 -2.69925 0
M  V30 4179 C 404.353 1.8093 -4.0984 0
M  V30 4180 C 406.097 3.14604 -2.84999 0
M  V30 4181 C 404.004 2.85468 -5.1794 0
M  V30 4182 H 402.934 0.493614 -0.569966 0
M  V30 4183 H 405.585 0.594155 -1.73615 0
M  V30 4184 H 403.967 3.12822 -2.42814 0
M  V30 4185 H 405.141 1.12544 -4.46845 0
M  V30 4186 H 403.456 1.16967 -3.99634 0
M  V30 4187 H 406.053 3.92666 -3.62929 0
M  V30 4188 H 406.396 3.68665 -1.93369 0
M  V30 4189 H 406.929 2.46945 -3.1187 0
M  V30 4190 H 403.668 2.36264 -6.1144 0
M  V30 4191 H 403.188 3.52269 -4.85455 0
M  V30 4192 H 404.867 3.48996 -5.44803 0
M  V30 4193 N 404.999 1.35443 0.805782 0
M  V30 4194 C 406.229 1.31687 1.59192 0
M  V30 4195 C 406.637 -0.10756 1.88894 0
M  V30 4196 O 405.98 -1.07017 1.49309 0
M  V30 4197 C 406.042 2.05686 2.94845 0
M  V30 4198 C 405.706 3.54868 2.87954 0
M  V30 4199 C 406.703 4.49444 2.61335 0
M  V30 4200 C 404.388 3.97528 3.07046 0
M  V30 4201 C 406.382 5.84655 2.53885 0
M  V30 4202 C 404.069 5.32833 2.99219 0
M  V30 4203 C 405.067 6.26209 2.72674 0
M  V30 4204 O 404.755 7.59032 2.64811 0
M  V30 4205 H 404.487 0.453878 0.50097 0
M  V30 4206 H 407.041 1.78892 1.0093 0
M  V30 4207 H 405.271 1.5312 3.55093 0
M  V30 4208 H 406.96 1.94998 3.55993 0
M  V30 4209 H 407.726 4.17804 2.46303 0
M  V30 4210 H 403.605 3.25233 3.26718 0
M  V30 4211 H 407.149 6.57508 2.33086 0
M  V30 4212 H 403.046 5.64087 3.13809 0
M  V30 4213 H 403.814 7.68967 2.80413 0
M  V30 4214 N 406.477 -1.02803 1.19454 0
M  V30 4215 C 407.702 -1.80378 1.02364 0
M  V30 4216 C 408.127 -1.83282 -0.423007 0
M  V30 4217 O 407.485 -1.25945 -1.30413 0
M  V30 4218 C 407.533 -3.23248 1.59821 0
M  V30 4219 O 406.637 -4.04 0.828105 0
M  V30 4220 H 405.978 -0.556799 0.361761 0
M  V30 4221 H 408.508 -1.29385 1.58495 0
M  V30 4222 H 408.518 -3.73994 1.63073 0
M  V30 4223 H 407.193 -3.2045 2.65113 0
M  V30 4224 H 405.77 -3.62635 0.86891 0
M  V30 4225 N 407.956 -0.998596 -1.21925 0
M  V30 4226 C 408.888 -0.511879 -2.23411 0
M  V30 4227 C 409.901 0.396094 -1.57908 0
M  V30 4228 O 411.09 0.197316 -1.77406 0
M  V30 4229 C 408.19 0.276802 -3.37768 0
M  V30 4230 C 407.363 -0.628687 -4.32858 0
M  V30 4231 C 406.422 0.109272 -5.26087 0
M  V30 4232 O 405.448 -0.507237 -5.66935 0
M  V30 4233 N 406.65 1.38983 -5.63617 0
M  V30 4234 H 409.415 -1.38457 -2.658 0
M  V30 4235 H 406.976 -0.873981 -1.36283 0
M  V30 4236 H 408.968 0.77928 -3.97126 0
M  V30 4237 H 407.538 1.05063 -2.94415 0
M  V30 4238 H 406.758 -1.31175 -3.71735 0
M  V30 4239 H 408.046 -1.24514 -4.93329 0
M  V30 4240 H 407.444 1.91194 -5.32411 0
M  V30 4241 H 406.001 1.83739 -6.25367 0
M  V30 4242 N 409.434 1.37368 -0.772513 0
M  V30 4243 C 410.683 1.98918 -0.333861 0
M  V30 4244 C 410.996 1.62017 1.09589 0
M  V30 4245 O 412.202 2.16676 1.63596 0
M  V30 4246 C 410.658 3.55735 -0.545971 0
M  V30 4247 C 410.266 4.01573 -1.98603 0
M  V30 4248 C 412.01 4.24156 -0.170979 0
M  V30 4249 C 409.917 5.51102 -2.1457 0
M  V30 4250 H 408.847 0.744214 -0.121085 0
M  V30 4251 H 411.498 1.56888 -0.95175 0
M  V30 4252 H 409.88 3.95748 0.141387 0
M  V30 4253 H 411.054 3.72803 -2.7084 0
M  V30 4254 H 409.369 3.45937 -2.31769 0
M  V30 4255 H 411.966 5.34024 -0.26878 0
M  V30 4256 H 412.309 4.06917 0.878855 0
M  V30 4257 H 412.842 3.89447 -0.810914 0
M  V30 4258 H 409.581 5.73268 -3.17875 0
M  V30 4259 H 409.101 5.81554 -1.46817 0
M  V30 4260 H 410.78 6.17083 -1.94468 0
M  V30 4261 N 410.912 0.523116 1.48665 0
M  V30 4262 C 411.844 -0.280421 2.27478 0
M  V30 4263 C 412.857 -0.910694 1.34945 0
M  V30 4264 O 414.046 -0.790295 1.60052 0
M  V30 4265 C 411.146 -1.41171 3.08097 0
M  V30 4266 C 410.319 -0.884642 4.28361 0
M  V30 4267 C 409.378 -1.89622 4.90846 0
M  V30 4268 O 408.404 -1.4559 5.50265 0
M  V30 4269 N 409.606 -3.22801 4.82472 0
M  V30 4270 H 412.371 0.395481 2.97079 0
M  V30 4271 H 409.932 0.357018 1.57915 0
M  V30 4272 H 411.924 -2.08645 3.4677 0
M  V30 4273 H 410.494 -1.99139 2.40961 0
M  V30 4274 H 409.714 -0.0341177 3.94185 0
M  V30 4275 H 411.002 -0.511268 5.06225 0
M  V30 4276 H 410.4 -3.61246 4.35336 0
M  V30 4277 H 408.957 -3.85927 5.25265 0
M  V30 4278 N 412.39 -1.55475 0.257931 0
M  V30 4279 C 413.615 -2.04064 -0.370488 0
M  V30 4280 C 414.04 -1.13565 -1.49948 0
M  V30 4281 O 413.398 -0.130781 -1.80828 0
M  V30 4282 C 413.446 -3.50554 -0.845237 0
M  V30 4283 O 412.55 -3.63173 -1.95394 0
M  V30 4284 H 411.891 -0.659257 -0.0792243 0
M  V30 4285 H 414.421 -2.00903 0.387212 0
M  V30 4286 H 414.431 -3.91588 -1.14555 0
M  V30 4287 H 413.106 -4.15896 -0.0191259 0
M  V30 4288 H 411.683 -3.34039 -1.65748 0
M  V30 4289 N 413.868 0.0150385 -1.57593 0
M  V30 4290 C 414.815 1.01126 -2.07466 0
M  V30 4291 C 415.785 1.35064 -0.966794 0
M  V30 4292 O 416.97 1.4516 -1.23827 0
M  V30 4293 C 414.11 2.30276 -2.57035 0
M  V30 4294 C 413.223 2.02373 -3.81666 0
M  V30 4295 C 412.358 3.25496 -4.19793 0
M  V30 4296 C 411.397 2.93211 -5.37303 0
M  V30 4297 N 410.534 4.08826 -5.70794 0
M  V30 4298 H 415.374 0.57901 -2.92321 0
M  V30 4299 H 412.911 0.27426 -1.44521 0
M  V30 4300 H 414.869 3.05757 -2.83846 0
M  V30 4301 H 413.499 2.71197 -1.75077 0
M  V30 4302 H 412.551 1.17327 -3.61854 0
M  V30 4303 H 413.863 1.74567 -4.67256 0
M  V30 4304 H 413.017 4.09333 -4.47807 0
M  V30 4305 H 411.756 3.56428 -3.32882 0
M  V30 4306 H 410.761 2.07777 -5.09027 0
M  V30 4307 H 411.986 2.63542 -6.25877 0
M  V30 4308 H 409.932 4.39682 -4.86842 0
M  V30 4309 H 409.849 3.84491 -6.50924 0
M  V30 4310 H 411.117 4.93496 -6.03392 0
M  V30 4311 N 415.346 1.54954 0.287554 0
M  V30 4312 C 416.293 1.86834 1.35505 0
M  V30 4313 C 417.263 0.718452 1.49758 0
M  V30 4314 O 418.448 0.968358 1.644 0
M  V30 4315 C 415.588 2.13303 2.71286 0
M  V30 4316 C 414.701 3.40883 2.65373 0
M  V30 4317 C 413.836 3.57125 3.93236 0
M  V30 4318 C 412.875 4.78449 3.81776 0
M  V30 4319 N 412.012 4.91426 5.01443 0
M  V30 4320 H 416.852 2.77889 1.07619 0
M  V30 4321 H 414.389 1.37593 0.520241 0
M  V30 4322 H 416.347 2.26646 3.50267 0
M  V30 4323 H 414.977 1.25499 2.97405 0
M  V30 4324 H 414.029 3.36088 1.78182 0
M  V30 4325 H 415.341 4.29993 2.52799 0
M  V30 4326 H 414.495 3.70207 4.80658 0
M  V30 4327 H 413.234 2.66173 4.0866 0
M  V30 4328 H 412.239 4.65386 2.92738 0
M  V30 4329 H 413.464 5.70822 3.67884 0
M  V30 4330 H 411.41 4.03401 5.17304 0
M  V30 4331 H 411.327 5.74559 4.91343 0
M  V30 4332 H 412.595 5.08879 5.90477 0
M  V30 4333 N 416.824 -0.551391 1.4764 0
M  V30 4334 C 417.771 -1.65796 1.60563 0
M  V30 4335 C 418.741 -1.59932 0.448428 0
M  V30 4336 O 419.926 -1.78679 0.669222 0
M  V30 4337 C 417.066 -3.04108 1.63133 0
M  V30 4338 C 416.179 -3.20365 2.89811 0
M  V30 4339 C 415.314 -4.49109 2.8368 0
M  V30 4340 C 414.353 -4.58819 4.05156 0
M  V30 4341 N 413.49 -5.78926 3.97227 0
M  V30 4342 H 418.33 -1.54088 2.5507 0
M  V30 4343 H 415.867 -0.75052 1.26513 0
M  V30 4344 H 417.825 -3.84207 1.62606 0
M  V30 4345 H 416.455 -3.14637 0.721341 0
M  V30 4346 H 415.507 -2.33659 3.00179 0
M  V30 4347 H 416.819 -3.23402 3.79753 0
M  V30 4348 H 415.973 -5.37475 2.81434 0
M  V30 4349 H 414.712 -4.4856 1.91431 0
M  V30 4350 H 413.717 -3.68864 4.077 0
M  V30 4351 H 414.942 -4.61124 4.98539 0
M  V30 4352 H 412.888 -5.79314 3.07785 0
M  V30 4353 H 412.805 -5.83367 4.80853 0
M  V30 4354 H 414.073 -6.69637 3.99007 0
M  V30 4355 N 418.302 -1.35869 -0.798587 0
M  V30 4356 C 419.551 -1.28921 -1.5512 0
M  V30 4357 C 419.864 0.13208 -1.95154 0
M  V30 4358 O 421.07 0.323879 -2.69561 0
M  V30 4359 C 419.526 -2.26141 -2.79979 0
M  V30 4360 C 419.134 -3.73658 -2.47151 0
M  V30 4361 C 420.878 -2.28152 -3.57976 0
M  V30 4362 C 418.785 -4.62679 -3.6835 0
M  V30 4363 H 417.715 -0.479031 -0.582276 0
M  V30 4364 H 420.366 -1.61179 -0.877125 0
M  V30 4365 H 418.748 -1.86865 -3.49138 0
M  V30 4366 H 419.922 -4.21616 -1.85947 0
M  V30 4367 H 418.237 -3.74333 -1.82383 0
M  V30 4368 H 420.834 -2.91875 -4.4801 0
M  V30 4369 H 421.177 -1.28748 -3.95891 0
M  V30 4370 H 421.71 -2.65998 -2.95787 0
M  V30 4371 H 418.449 -5.63111 -3.35538 0
M  V30 4372 H 417.969 -4.19442 -4.28752 0
M  V30 4373 H 419.648 -4.78498 -4.35487 0
M  V30 4374 N 419.78 1.02168 -1.19998 0
M  V30 4375 C 420.71 2.12488 -0.96804 0
M  V30 4376 C 421.691 1.69799 0.101185 0
M  V30 4377 O 422.876 1.94121 -0.0552993 0
M  V30 4378 C 420.006 3.43479 -0.513776 0
M  V30 4379 C 418.96 3.99884 -1.52566 0
M  V30 4380 C 418.286 5.26582 -0.928214 0
M  V30 4381 C 419.586 4.33861 -2.90795 0
M  V30 4382 H 421.28 2.32149 -1.89069 0
M  V30 4383 H 418.826 1.11564 -0.910468 0
M  V30 4384 H 420.779 4.20036 -0.338774 0
M  V30 4385 H 419.503 3.23561 0.444493 0
M  V30 4386 H 418.162 3.25429 -1.68794 0
M  V30 4387 H 417.81 5.02986 0.0378289 0
M  V30 4388 H 417.51 5.65284 -1.60397 0
M  V30 4389 H 419.034 6.05799 -0.764167 0
M  V30 4390 H 420.448 5.01327 -2.78109 0
M  V30 4391 H 418.845 4.83664 -3.55231 0
M  V30 4392 H 419.915 3.42848 -3.42904 0
M  V30 4393 N 421.258 1.00505 1.21394 0
M  V30 4394 C 422.221 0.570459 2.21987 0
M  V30 4395 C 423.221 -0.353211 1.56873 0
M  V30 4396 O 424.411 -0.14349 1.73608 0
M  V30 4397 C 421.543 -0.168555 3.40483 0
M  V30 4398 H 422.736 1.46021 2.6195 0
M  V30 4399 H 420.289 0.793565 1.34656 0
M  V30 4400 H 421.024 -1.07374 3.06009 0
M  V30 4401 H 420.809 0.494823 3.88965 0
M  V30 4402 H 422.299 -0.460362 4.15055 0
M  V30 4403 N 422.737 -1.36956 0.779787 0
M  V30 4404 C 423.965 -2.03755 0.359398 0
M  V30 4405 C 424.38 -1.58807 -1.02106 0
M  V30 4406 O 423.737 -0.773024 -1.6532 0
M  V30 4407 C 423.788 -3.59251 0.402568 0
M  V30 4408 O 423.509 -4.02557 1.72858 0
M  V30 4409 C 425.01 -4.43291 -0.0284068 0
M  V30 4410 H 422.23 -0.654148 0.149437 0
M  V30 4411 H 424.774 -1.75128 1.05595 0
M  V30 4412 H 422.929 -3.86621 -0.245478 0
M  V30 4413 H 423.343 -4.97111 1.67275 0
M  V30 4414 H 424.817 -5.51975 0.0529466 0
M  V30 4415 H 425.294 -4.25719 -1.07982 0
M  V30 4416 H 425.9 -4.21163 0.591758 0
M  V30 4417 N 424.215 -0.530993 -1.48385 0
M  V30 4418 C 425.626 -0.0907905 -1.86479 0
M  V30 4419 C 425.977 1.33213 -1.44044 0
M  V30 4420 O 425.102 1.99783 -0.831615 0
M  V30 4421 C 425.697 -0.157987 -3.38431 0
M  V30 4422 C 424.256 0.227026 -3.75715 0
M  V30 4423 C 423.403 -0.5173 -2.72432 0
M  V30 4424 H 426.354 -0.742186 -1.40276 0
M  V30 4425 H 426.375 0.630053 -3.75247 0
M  V30 4426 H 425.887 -1.19372 -3.69286 0
M  V30 4427 H 423.988 1.26486 -3.50474 0
M  V30 4428 H 424.101 -0.113288 -4.78966 0
M  V30 4429 H 422.465 0.0365527 -2.54674 0
M  V30 4430 H 423.248 -1.55368 -3.0613 0
M  V30 4431 N 425.693 1.55336 -0.266172 0
M  V30 4432 C 427.104 1.85236 0.233315 0
M  V30 4433 C 427.455 1.18816 1.56132 0
M  V30 4434 O 426.58 0.473307 2.11161 0
M  V30 4435 C 427.175 3.36059 0.430113 0
M  V30 4436 C 425.734 3.66116 0.873842 0
M  V30 4437 C 424.881 2.77274 -0.0380016 0
M  V30 4438 H 427.832 1.51004 -0.488214 0
M  V30 4439 H 427.853 3.58681 1.26998 0
M  V30 4440 H 427.365 3.84373 -0.536588 0
M  V30 4441 H 425.466 3.23295 1.85233 0
M  V30 4442 H 425.579 4.73699 0.717358 0
M  V30 4443 H 423.943 2.50198 0.476759 0
M  V30 4444 H 424.726 3.284 -1.00042 0
M  V30 4445 N 427.171 -0.0066808 1.57599 0
M  V30 4446 C 428.103 -1.02827 2.04839 0
M  V30 4447 C 429.116 -1.31108 0.965113 0
M  V30 4448 O 430.305 -1.28202 1.24203 0
M  V30 4449 C 427.405 -2.36464 2.42771 0
M  V30 4450 C 426.578 -2.27219 3.73751 0
M  V30 4451 C 425.637 -3.43489 3.98625 0
M  V30 4452 O 424.663 -3.21976 4.69382 0
M  V30 4453 N 425.865 -4.66116 3.46 0
M  V30 4454 H 428.63 -0.625455 2.93101 0
M  V30 4455 H 426.191 -0.194198 1.60731 0
M  V30 4456 H 428.183 -3.13008 2.56531 0
M  V30 4457 H 426.753 -2.68512 1.60063 0
M  V30 4458 H 425.973 -1.35629 3.70133 0
M  V30 4459 H 427.261 -2.18208 4.59633 0
M  V30 4460 H 426.659 -4.86493 2.88688 0
M  V30 4461 H 425.216 -5.39949 3.65101 0
M  V30 4462 N 428.649 -1.55105 -0.279332 0
M  V30 4463 C 429.559 -1.90638 -1.36727 0
M  V30 4464 C 430.575 -0.802899 -1.54368 0
M  V30 4465 O 431.751 -1.10138 -1.68616 0
M  V30 4466 C 428.816 -2.16547 -2.70755 0
M  V30 4467 C 427.877 -3.40146 -2.61915 0
M  V30 4468 C 427.11 -3.6481 -3.8955 0
M  V30 4469 O 427.333 -2.92095 -4.89935 0
M  V30 4470 O 426.267 -4.58343 -3.90135 0
M  V30 4471 H 430.093 -2.83237 -1.09591 0
M  V30 4472 H 427.678 -1.4157 -0.477306 0
M  V30 4473 H 429.56 -2.34665 -3.50014 0
M  V30 4474 H 428.235 -1.27131 -2.9769 0
M  V30 4475 H 427.142 -3.2737 -1.81052 0
M  V30 4476 H 428.475 -4.29761 -2.3993 0
M  V30 4477 N 430.127 0.543554 -1.4793 0
M  V30 4478 C 431.404 1.30458 -1.4574 0
M  V30 4479 C 431.784 2.1048 -0.161692 0
M  V30 4480 O 431.132 2.11831 0.856734 0
M  V30 4481 C 431.342 2.19754 -2.71126 0
M  V30 4482 C 432.69 2.80334 -3.18901 0
M  V30 4483 O 433.714 2.30049 -2.71948 0
M  V30 4484 O 432.573 3.71766 -4.00565 0
M  V30 4485 H 429.667 0.588117 -0.581418 0
M  V30 4486 H 432.213 0.561328 -1.60147 0
M  V30 4487 H 430.985 1.60316 -3.56952 0
M  V30 4488 H 430.608 3.01351 -2.59371 0
M  V30 4489 N 431.605 1.3629 0.791371 0
M  V30 4490 C 432.568 1.30309 1.88553 0
M  V30 4491 C 433.568 0.211204 1.59407 0
M  V30 4492 O 434.758 0.465865 1.67855 0
M  V30 4493 C 431.89 1.01956 3.25297 0
M  V30 4494 H 433.083 2.27614 1.95273 0
M  V30 4495 H 430.636 1.21035 0.988953 0
M  V30 4496 H 431.371 0.050998 3.2426 0
M  V30 4497 H 431.156 1.80968 3.4784 0
M  V30 4498 H 432.646 1.0037 4.05359 0
M  V30 4499 N 433.083 -1.0153 1.20538 0
M  V30 4500 C 434.494 -1.56598 1.01657 0
M  V30 4501 C 434.845 -1.91505 -0.426668 0
M  V30 4502 O 433.97 -1.72375 -1.30827 0
M  V30 4503 C 434.565 -2.84542 1.83905 0
M  V30 4504 C 433.124 -3.36133 1.69386 0
M  V30 4505 C 432.271 -2.09427 1.81757 0
M  V30 4506 H 435.222 -0.838974 1.34711 0
M  V30 4507 H 435.243 -3.56004 1.34319 0
M  V30 4508 H 434.755 -2.59105 2.8894 0
M  V30 4509 H 432.856 -3.66528 0.669933 0
M  V30 4510 H 432.969 -4.08248 2.50739 0
M  V30 4511 H 431.333 -2.21941 1.24957 0
M  V30 4512 H 432.116 -1.86414 2.88279 0
M  V30 4513 N 434.561 -1.01147 -1.20859 0
M  V30 4514 C 435.786 -0.716698 -1.94623 0
M  V30 4515 C 436.211 0.715415 -1.73964 0
M  V30 4516 O 435.569 1.49157 -1.03062 0
M  V30 4517 C 435.617 -1.0513 -3.44935 0
M  V30 4518 O 434.721 -0.160131 -4.12089 0
M  V30 4519 H 434.062 -0.266404 -0.608214 0
M  V30 4520 H 436.592 -1.35346 -1.53436 0
M  V30 4521 H 436.602 -1.00086 -3.95533 0
M  V30 4522 H 435.277 -2.09475 -3.59295 0
M  V30 4523 H 433.854 -0.267657 -3.71938 0
M  V30 4524 N 436.039 1.36541 -0.78704 0
M  V30 4525 C 437.285 1.99599 -0.358872 0
M  V30 4526 C 437.618 1.62323 1.06606 0
M  V30 4527 O 436.893 0.876858 1.73613 0
M  V30 4528 C 437.176 3.56327 -0.519944 0
M  V30 4529 C 437.029 4.03464 -1.98839 0
M  V30 4530 C 438.348 4.4005 0.0664737 0
M  V30 4531 H 435.467 0.725107 -0.131869 0
M  V30 4532 H 438.109 1.6199 -0.992936 0
M  V30 4533 H 436.259 3.88495 0.0198321 0
M  V30 4534 H 437.931 3.81793 -2.58905 0
M  V30 4535 H 436.174 3.55092 -2.49183 0
M  V30 4536 H 436.845 5.12439 -2.05207 0
M  V30 4537 H 439.321 4.14228 -0.394267 0
M  V30 4538 H 438.197 5.48847 -0.0762682 0
M  V30 4539 H 438.458 4.26655 1.15835 0
M  V30 4540 N 437.518 0.538854 1.48102 0
M  V30 4541 C 438.795 -0.0568108 1.95517 0
M  V30 4542 C 439.175 -1.50408 1.48124 0
M  V30 4543 O 438.523 -2.17133 0.711727 0
M  V30 4544 C 438.733 0.0696262 3.48931 0
M  V30 4545 C 440.081 -0.0851202 4.24515 0
M  V30 4546 O 441.105 -0.0037347 3.562 0
M  V30 4547 O 439.964 -0.257025 5.45895 0
M  V30 4548 H 437.058 -0.0743695 0.823649 0
M  V30 4549 H 439.604 0.604081 1.58584 0
M  V30 4550 H 438.376 1.07744 3.76174 0
M  V30 4551 H 437.999 -0.629714 3.92582 0
M  V30 4552 N 438.996 -1.55193 0.274407 0
M  V30 4553 C 440.245 -1.98758 -0.343213 0
M  V30 4554 C 440.558 -1.16624 -1.5703 0
M  V30 4555 O 441.764 -1.5033 -2.26082 0
M  V30 4556 C 440.22 -3.53759 -0.661996 0
M  V30 4557 C 439.828 -4.4467 0.54524 0
M  V30 4558 C 441.572 -4.05916 -1.24228 0
M  V30 4559 C 439.479 -5.91058 0.201084 0
M  V30 4560 H 438.409 -0.742353 -0.132014 0
M  V30 4561 H 441.06 -1.79545 0.378948 0
M  V30 4562 H 439.442 -3.68772 -1.44304 0
M  V30 4563 H 440.616 -4.41426 1.32212 0
M  V30 4564 H 438.931 -4.03143 1.04232 0
M  V30 4565 H 441.528 -5.12831 -1.51357 0
M  V30 4566 H 441.871 -3.54908 -2.17592 0
M  V30 4567 H 442.404 -3.9434 -0.523542 0
M  V30 4568 H 439.143 -6.46161 1.10258 0
M  V30 4569 H 438.663 -5.97373 -0.539045 0
M  V30 4570 H 440.342 -6.46669 -0.206954 0
M  V30 4571 N 440.474 -0.00167713 -1.576 0
M  V30 4572 C 441.437 0.974046 -2.07473 0
M  V30 4573 C 442.437 1.27143 -0.984444 0
M  V30 4574 O 443.627 1.21633 -1.24703 0
M  V30 4575 C 440.759 2.29849 -2.51759 0
M  V30 4576 H 441.952 0.54262 -2.9495 0
M  V30 4577 H 439.505 0.245829 -1.54355 0
M  V30 4578 H 440.24 2.77677 -1.67529 0
M  V30 4579 H 440.025 2.09584 -3.31386 0
M  V30 4580 H 441.515 2.9984 -2.90664 0
M  V30 4581 N 441.952 1.55251 0.271103 0
M  V30 4582 C 442.9 1.89054 1.35504 0
M  V30 4583 C 443.894 0.767064 1.51038 0
M  V30 4584 O 445.1 0.951429 1.528 0
M  V30 4585 H 441.475 0.600072 0.45323 0
M  V30 4586 H 443.446 2.79598 1.04247 0
M  V30 4587 C 442.195 2.18068 2.70817 0
M  V30 4588 H 441.518 3.04005 2.59656 0
M  V30 4589 H 442.958 2.4564 3.45597 0
M  V30 4590 C 441.417 0.988901 3.2206 0
M  V30 4591 O 441.947 0.224501 4.01072 0
M  V30 4592 N 440.153 0.786085 2.79766 0
M  V30 4593 H 439.7 1.40937 2.15626 0
M  V30 4594 H 439.658 -0.00969349 3.14399 0
M  V30 4595 N 443.43 -0.535701 1.48216 0
M  V30 4596 C 444.679 -1.28828 1.55197 0
M  V30 4597 C 444.992 -1.94263 0.228278 0
M  V30 4598 O 446.198 -2.70927 0.176278 0
M  V30 4599 C 444.654 -2.33727 2.73678 0
M  V30 4600 C 444.262 -1.74386 4.12666 0
M  V30 4601 C 446.006 -3.1003 2.89968 0
M  V30 4602 C 443.913 -2.77192 5.22416 0
M  V30 4603 H 442.843 -0.484484 0.577747 0
M  V30 4604 H 445.494 -0.56646 1.74538 0
M  V30 4605 H 443.876 -3.08919 2.4776 0
M  V30 4606 H 445.05 -1.05421 4.48579 0
M  V30 4607 H 443.365 -1.10595 4.01445 0
M  V30 4608 H 445.962 -3.86842 3.6913 0
M  V30 4609 H 446.305 -3.65542 1.9921 0
M  V30 4610 H 446.838 -2.41952 3.15759 0
M  V30 4611 H 443.577 -2.26507 6.15122 0
M  V30 4612 H 443.097 -3.44502 4.90998 0
M  V30 4613 H 444.776 -3.40285 5.50286 0
M  V30 4614 N 444.908 -1.36708 -0.784132 0
M  V30 4615 C 446.324 -1.17237 -1.08294 0
M  V30 4616 C 446.524 -5.93947e-05 -2.015 0
M  V30 4617 O 445.58 0.663686 -2.43622 0
M  V30 4618 C 446.893 -2.48557 -1.69233 0
M  V30 4619 C 448.441 -2.54968 -1.8155 0
M  V30 4620 C 448.916 -3.86388 -2.45904 0
M  V30 4621 N 450.407 -3.87762 -2.53367 0
M  V30 4622 C 451.142 -4.86191 -3.03983 0
M  V30 4623 N 450.638 -5.95015 -3.54866 0
M  V30 4624 N 452.431 -4.73606 -3.02743 0
M  V30 4625 H 444.582 -2.11758 -0.16501 0
M  V30 4626 H 446.845 -0.93822 -0.135822 0
M  V30 4627 H 446.551 -3.34638 -1.08215 0
M  V30 4628 H 446.425 -2.64748 -2.68679 0
M  V30 4629 H 448.812 -1.69302 -2.41704 0
M  V30 4630 H 448.893 -2.42672 -0.80895 0
M  V30 4631 H 448.537 -4.72462 -1.86392 0
M  V30 4632 H 448.467 -3.95982 -3.4714 0
M  V30 4633 H 450.958 -3.09145 -2.17343 0
M  V30 4634 H 451.271 -6.66086 -3.91854 0
M  V30 4635 H 449.616 -5.98676 -3.53003 0
M  V30 4636 H 452.807 -3.87717 -2.62284 0
M  V30 4637 H 452.98 -5.50473 -3.41881 0
M  V30 4638 N 446.386 1.0089 -1.21074 0
M  V30 4639 C 447.319 2.09279 -0.909806 0
M  V30 4640 C 448.297 1.61986 0.141145 0
M  V30 4641 O 449.481 1.88495 0.0130332 0
M  V30 4642 C 446.608 3.36723 -0.365374 0
M  V30 4643 C 445.654 4.02919 -1.39852 0
M  V30 4644 S 446.487 4.45835 -2.96633 0
M  V30 4645 C 447.643 5.76471 -2.43786 0
M  V30 4646 H 447.876 2.34484 -1.82769 0
M  V30 4647 H 445.409 1.14115 -1.04006 0
M  V30 4648 H 447.367 4.10459 -0.0578203 0
M  V30 4649 H 446.028 3.09577 0.531136 0
M  V30 4650 H 445.221 4.94634 -0.967117 0
M  V30 4651 H 444.823 3.35441 -1.65395 0
M  V30 4652 H 447.115 6.52027 -1.84029 0
M  V30 4653 H 448.058 6.24418 -3.33928 0
M  V30 4654 H 448.466 5.33104 -1.85636 0
M  V30 4655 N 447.864 1.01787 1.20321 0
M  V30 4656 C 449.275 0.739307 1.71438 0
M  V30 4657 C 449.626 -0.742041 1.81627 0
M  V30 4658 O 448.751 -1.57903 1.47971 0
M  V30 4659 C 449.346 1.33538 3.11373 0
M  V30 4660 C 447.905 1.10566 3.59795 0
M  V30 4661 C 447.052 1.44028 2.36962 0
M  V30 4662 H 450.003 1.18718 1.05317 0
M  V30 4663 H 450.024 0.726611 3.73498 0
M  V30 4664 H 449.536 2.41352 3.03926 0
M  V30 4665 H 447.637 0.0452405 3.72573 0
M  V30 4666 H 447.75 1.78661 4.44542 0
M  V30 4667 H 446.114 0.85933 2.39766 0
M  V30 4668 H 446.897 2.52901 2.32155 0
M  V30 4669 N 449.342 -1.36122 0.79427 0
M  V30 4670 C 450.567 -2.03891 0.379871 0
M  V30 4671 C 450.992 -1.59488 -0.997251 0
M  V30 4672 O 450.35 -0.765652 -1.64339 0
M  V30 4673 C 450.398 -3.57687 0.457442 0
M  V30 4674 O 449.502 -4.08931 -0.5338 0
M  V30 4675 H 448.843 -0.6443 0.160541 0
M  V30 4676 H 451.373 -1.73976 1.07673 0
M  V30 4677 H 451.383 -4.06721 0.322792 0
M  V30 4678 H 450.058 -3.89357 1.46199 0
M  V30 4679 H 448.635 -3.71154 -0.360409 0
M  V30 4680 N 450.82 -0.546701 -1.47814 0
M  V30 4681 C 451.75 0.195317 -2.32682 0
M  V30 4682 C 452.731 0.918981 -1.43139 0
M  V30 4683 O 453.916 0.901501 -1.72008 0
M  V30 4684 C 451.046 1.23237 -3.247 0
M  V30 4685 C 450 0.625818 -4.234 0
M  V30 4686 C 449.326 1.76674 -5.04669 0
M  V30 4687 C 450.626 -0.413515 -5.2066 0
M  V30 4688 H 452.32 -0.513184 -2.94969 0
M  V30 4689 H 449.866 -0.248241 -1.41844 0
M  V30 4690 H 451.819 1.75955 -3.82907 0
M  V30 4691 H 450.543 1.97067 -2.60446 0
M  V30 4692 H 449.202 0.120023 -3.66403 0
M  V30 4693 H 448.85 2.49383 -4.36826 0
M  V30 4694 H 448.55 1.36673 -5.71484 0
M  V30 4695 H 450.074 2.29738 -5.65732 0
M  V30 4696 H 451.488 0.0272042 -5.73294 0
M  V30 4697 H 449.885 -0.731825 -5.95621 0
M  V30 4698 H 450.955 -1.31325 -4.66778 0
M  V30 4699 N 452.299 1.55045 -0.282633 0
M  V30 4700 C 453.71 1.85473 0.213655 0
M  V30 4701 C 454.061 1.20465 1.54863 0
M  V30 4702 O 453.186 0.495676 2.10647 0
M  V30 4703 C 453.781 3.36496 0.394445 0
M  V30 4704 C 452.34 3.67022 0.834961 0
M  V30 4705 C 451.487 2.77218 -0.0674081 0
M  V30 4706 H 454.438 1.50478 -0.504202 0
M  V30 4707 H 454.459 3.60007 1.23186 0
M  V30 4708 H 453.971 3.83782 -0.577326 0
M  V30 4709 H 452.072 3.25241 1.81794 0
M  V30 4710 H 452.185 4.74433 0.667075 0
M  V30 4711 H 450.549 2.5069 0.450196 0
M  V30 4712 H 451.332 3.2732 -1.0352 0
M  V30 4713 N 453.777 0.010035 1.57597 0
M  V30 4714 C 455.002 -0.687021 1.95691 0
M  V30 4715 C 455.427 -1.65952 0.885519 0
M  V30 4716 O 454.785 -1.80633 -0.15543 0
M  V30 4717 C 454.833 -1.3864 3.32884 0
M  V30 4718 O 453.937 -2.50115 3.27897 0
M  V30 4719 H 453.278 -0.181989 0.638573 0
M  V30 4720 H 455.808 0.0662122 2.04493 0
M  V30 4721 H 455.818 -1.74754 3.6868 0
M  V30 4722 H 454.493 -0.673411 4.10412 0
M  V30 4723 H 453.07 -2.16253 3.03791 0
M  V30 4724 N 455.255 -1.55392 -0.262866 0
M  V30 4725 C 456.485 -1.80251 -1.00961 0
M  V30 4726 C 456.893 -0.58117 -1.80053 0
M  V30 4727 O 456.236 0.459427 -1.77862 0
M  V30 4728 C 456.298 -2.98207 -2.00781 0
M  V30 4729 C 455.962 -4.34856 -1.40533 0
M  V30 4730 C 456.959 -5.13459 -0.815853 0
M  V30 4731 C 454.644 -4.8153 -1.42948 0
M  V30 4732 C 456.638 -6.36875 -0.258562 0
M  V30 4733 C 454.325 -6.04899 -0.868334 0
M  V30 4734 C 455.323 -6.8241 -0.283884 0
M  V30 4735 O 455.011 -8.03451 0.268644 0
M  V30 4736 H 454.743 -0.604049 -0.303482 0
M  V30 4737 H 457.297 -2.03257 -0.295926 0
M  V30 4738 H 455.527 -2.70917 -2.75936 0
M  V30 4739 H 457.216 -3.10299 -2.61667 0
M  V30 4740 H 457.982 -4.78526 -0.789812 0
M  V30 4741 H 453.861 -4.21201 -1.87378 0
M  V30 4742 H 457.405 -6.97318 0.198257 0
M  V30 4743 H 453.302 -6.39312 -0.891649 0
M  V30 4744 H 454.07 -8.18346 0.158974 0
M  V30 4745 N 456.733 0.527833 -1.48498 0
M  V30 4746 C 457.68 1.6322 -1.6318 0
M  V30 4747 C 458.65 1.59199 -0.473815 0
M  V30 4748 O 459.835 1.77591 -0.697563 0
M  V30 4749 C 456.975 3.01474 -1.67951 0
M  V30 4750 C 456.088 3.15713 -2.94871 0
M  V30 4751 C 455.223 4.44539 -2.90789 0
M  V30 4752 C 454.262 4.52315 -4.12404 0
M  V30 4753 N 453.399 5.72533 -4.06387 0
M  V30 4754 H 458.239 1.50011 -2.57489 0
M  V30 4755 H 455.776 0.730298 -1.27691 0
M  V30 4756 H 457.734 3.81572 -1.68698 0
M  V30 4757 H 456.364 3.1345 -0.771306 0
M  V30 4758 H 455.416 2.28854 -3.03859 0
M  V30 4759 H 456.728 3.1732 -3.8485 0
M  V30 4760 H 455.882 5.3293 -2.89949 0
M  V30 4761 H 454.621 4.45457 -1.98542 0
M  V30 4762 H 453.626 3.62331 -4.13517 0
M  V30 4763 H 454.851 4.53134 -5.05812 0
M  V30 4764 H 452.797 5.74344 -3.16962 0
M  V30 4765 H 452.714 5.75643 -4.90073 0
M  V30 4766 H 453.982 6.63204 -4.0961 0
M  V30 4767 N 458.211 1.37122 0.776871 0
M  V30 4768 C 459.457 1.32243 1.53752 0
M  V30 4769 C 459.79 -0.0944745 1.9397 0
M  V30 4770 O 459.065 -1.05068 1.6368 0
M  V30 4771 C 459.348 2.25681 2.80607 0
M  V30 4772 C 459.201 3.76127 2.46676 0
M  V30 4773 C 460.52 2.17657 3.82509 0
M  V30 4774 H 457.639 0.481704 0.557791 0
M  V30 4775 H 460.281 1.6778 0.891612 0
M  V30 4776 H 458.431 1.95505 3.35723 0
M  V30 4777 H 460.103 4.16877 1.97513 0
M  V30 4778 H 458.346 3.94946 1.79443 0
M  V30 4779 H 459.017 4.36933 3.37333 0
M  V30 4780 H 461.493 2.44245 3.36873 0
M  V30 4781 H 460.369 2.85185 4.69 0
M  V30 4782 H 460.63 1.16785 4.26396 0
M  V30 4783 N 459.689 -1.00246 1.21608 0
M  V30 4784 C 460.937 -1.73717 1.0328 0
M  V30 4785 C 461.258 -1.90102 -0.434318 0
M  V30 4786 O 460.528 -1.45376 -1.31311 0
M  V30 4787 H 459.108 -0.643613 0.379172 0
M  V30 4788 H 461.77 -1.20787 1.52959 0
M  V30 4789 H 460.866 -2.73535 1.50283 0
M  V30 4790 N 461.167 -1.02423 -1.1978 0
M  V30 4791 C 462.444 -0.632802 -1.85081 0
M  V30 4792 C 462.824 0.888745 -1.9148 0
M  V30 4793 O 462.172 1.78357 -1.42832 0
M  V30 4794 C 462.382 -1.28947 -3.24305 0
M  V30 4795 C 463.73 -1.40976 -4.00513 0
M  V30 4796 O 464.754 -1.24628 -3.33686 0
M  V30 4797 O 463.613 -1.67467 -5.20209 0
M  V30 4798 H 460.707 -0.219348 -0.79738 0
M  V30 4799 H 463.253 -1.12209 -1.27307 0
M  V30 4800 H 462.025 -2.3288 -3.14456 0
M  V30 4801 H 461.648 -0.787748 -3.89718 0
M  V30 4802 N 462.645 1.35699 -0.801477 0
M  V30 4803 C 463.592 2.29876 -0.206294 0
M  V30 4804 C 464.562 1.52565 0.656752 0
M  V30 4805 O 465.747 1.81024 0.602906 0
M  V30 4806 C 462.887 3.39052 0.643272 0
M  V30 4807 C 462 4.31335 -0.239644 0
M  V30 4808 C 461.135 5.27599 0.61744 0
M  V30 4809 C 460.174 6.11521 -0.26619 0
M  V30 4810 N 459.311 6.99938 0.550571 0
M  V30 4811 H 464.151 2.80187 -1.01484 0
M  V30 4812 H 461.688 1.37902 -0.511997 0
M  V30 4813 H 463.646 4.0101 1.15094 0
M  V30 4814 H 462.276 2.9003 1.41713 0
M  V30 4815 H 461.328 3.70426 -0.865381 0
M  V30 4816 H 462.64 4.90243 -0.919985 0
M  V30 4817 H 461.794 5.94906 1.19045 0
M  V30 4818 H 460.533 4.69176 1.33137 0
M  V30 4819 H 459.538 5.43166 -0.851507 0
M  V30 4820 H 460.763 6.72022 -0.9779 0
M  V30 4821 H 458.709 6.44008 1.24856 0
M  V30 4822 H 458.626 7.55966 -0.071832 0
M  V30 4823 H 459.894 7.71599 1.10702 0
M  V30 4824 N 464.123 0.554532 1.47522 0
M  V30 4825 C 465.372 0.0273458 2.01681 0
M  V30 4826 C 465.685 -1.32962 1.43459 0
M  V30 4827 O 466.891 -1.94657 1.89265 0
M  V30 4828 C 465.347 -0.00159057 3.599 0
M  V30 4829 C 464.955 1.35197 4.27113 0
M  V30 4830 C 466.699 -0.476311 4.21819 0
M  V30 4831 C 464.606 1.28229 5.77331 0
M  V30 4832 H 463.536 0.00645269 0.753972 0
M  V30 4833 H 466.187 0.701985 1.69542 0
M  V30 4834 H 464.569 -0.741821 3.8899 0
M  V30 4835 H 465.743 2.1097 4.09668 0
M  V30 4836 H 464.058 1.76441 3.77171 0
M  V30 4837 H 466.655 -0.5468 5.31897 0
M  V30 4838 H 466.998 -1.4877 3.8881 0
M  V30 4839 H 467.531 0.20898 3.97251 0
M  V30 4840 H 464.27 2.26959 6.14955 0
M  V30 4841 H 463.79 0.566314 5.97121 0
M  V30 4842 H 465.469 0.983226 6.39485 0
M  V30 4843 N 465.601 -1.54893 0.290851 0
M  V30 4844 C 466.564 -2.21824 -0.576784 0
M  V30 4845 C 467.564 -1.20104 -1.06919 0
M  V30 4846 O 468.754 -1.44906 -0.966843 0
M  V30 4847 C 465.886 -2.89662 -1.79747 0
M  V30 4848 H 467.079 -2.99899 0.00784051 0
M  V30 4849 H 464.632 -1.56245 0.0415934 0
M  V30 4850 H 465.367 -2.15639 -2.42219 0
M  V30 4851 H 465.152 -3.64219 -1.45214 0
M  V30 4852 H 466.642 -3.4075 -2.4141 0
M  V30 4853 N 467.08 -0.0183926 -1.57589 0
M  V30 4854 C 468.308 0.673046 -1.95647 0
M  V30 4855 C 468.723 1.66275 -0.894312 0
M  V30 4856 O 468.08 1.82072 0.124975 0
M  V30 4857 C 468.131 1.38884 -3.33756 0
M  V30 4858 O 467.852 0.438806 -4.35897 0
M  V30 4859 C 469.353 2.1731 -3.86383 0
M  V30 4860 H 466.573 0.186292 -0.644621 0
M  V30 4861 H 469.117 -0.0749748 -2.04363 0
M  V30 4862 H 467.272 2.08835 -3.26293 0
M  V30 4863 H 467.686 0.945869 -5.15901 0
M  V30 4864 H 469.16 2.62863 -4.85394 0
M  V30 4865 H 469.637 3.00764 -3.20059 0
M  V30 4866 H 470.243 1.52339 -3.97081 0
M  V30 4867 N 468.558 1.5553 0.254621 0
M  V30 4868 C 469.974 1.4778 0.602753 0
M  V30 4869 C 470.174 0.707047 1.88688 0
M  V30 4870 O 469.23 0.233288 2.5142 0
M  V30 4871 C 470.543 2.92133 0.712648 0
M  V30 4872 C 472.091 3.02458 0.805488 0
M  V30 4873 C 472.566 4.48102 0.947009 0
M  V30 4874 N 474.057 4.52008 1.01207 0
M  V30 4875 C 474.792 5.61939 1.1407 0
M  V30 4876 N 474.288 6.81697 1.23536 0
M  V30 4877 N 476.081 5.49719 1.17325 0
M  V30 4878 H 468.232 2.04085 -0.588463 0
M  V30 4879 H 470.495 0.926229 -0.202001 0
M  V30 4880 H 470.201 3.51332 -0.160766 0
M  V30 4881 H 470.075 3.42187 1.58707 0
M  V30 4882 H 472.462 2.43344 1.66936 0
M  V30 4883 H 472.543 2.55627 -0.0939266 0
M  V30 4884 H 472.187 5.07824 0.087725 0
M  V30 4885 H 472.117 4.92607 1.86135 0
M  V30 4886 H 474.608 3.65749 0.950577 0
M  V30 4887 H 474.921 7.61228 1.33236 0
M  V30 4888 H 473.266 6.84473 1.20508 0
M  V30 4889 H 476.457 4.55095 1.09573 0
M  V30 4890 H 476.63 6.35432 1.27005 0
M  V30 4891 N 470.036 -0.519951 1.48776 0
M  V30 4892 C 470.983 -1.62352 1.64044 0
M  V30 4893 C 471.953 -1.58945 0.482251 0
M  V30 4894 O 473.138 -1.77219 0.706971 0
M  V30 4895 C 470.278 -3.00579 1.69547 0
M  V30 4896 C 469.391 -3.14145 2.96541 0
M  V30 4897 C 468.526 -4.42991 2.93142 0
M  V30 4898 C 467.565 -4.50122 4.14797 0
M  V30 4899 N 466.702 -5.7037 4.09418 0
M  V30 4900 H 471.542 -1.48643 2.58281 0
M  V30 4901 H 469.079 -0.723516 1.28077 0
M  V30 4902 H 471.037 -3.80671 1.70719 0
M  V30 4903 H 469.667 -3.13036 0.787918 0
M  V30 4904 H 468.719 -2.27239 3.05068 0
M  V30 4905 H 470.031 -3.15275 3.86527 0
M  V30 4906 H 469.185 -5.31385 2.92772 0
M  V30 4907 H 467.924 -4.44398 2.00902 0
M  V30 4908 H 466.929 -3.60133 4.15433 0
M  V30 4909 H 468.154 -4.50445 5.08208 0
M  V30 4910 H 466.1 -5.72655 3.20004 0
M  V30 4911 H 466.017 -5.73036 4.93119 0
M  V30 4912 H 467.285 -6.61023 4.13121 0
M  V30 4913 N 471.514 -1.37532 -0.769588 0
M  V30 4914 C 472.477 -1.33292 -1.86456 0
M  V30 4915 C 473.477 -0.236537 -1.59051 0
M  V30 4916 O 474.667 -0.492511 -1.67093 0
M  V30 4917 C 471.799 -1.07118 -3.23633 0
M  V30 4918 H 472.992 -2.30692 -1.91628 0
M  V30 4919 H 470.545 -1.22593 -0.969572 0
M  V30 4920 H 471.28 -0.102578 -3.24138 0
M  V30 4921 H 471.065 -1.86479 -3.44917 0
M  V30 4922 H 472.555 -1.06806 -4.03711 0
M  V30 4923 N 472.992 0.995999 -1.22138 0
M  V30 4924 C 474.222 1.76809 -1.06874 0
M  V30 4925 C 474.63 1.85265 0.383866 0
M  V30 4926 O 473.973 1.31969 1.27789 0
M  V30 4927 C 474.035 3.2186 -1.60144 0
M  V30 4928 C 473.699 3.36958 -3.0872 0
M  V30 4929 C 474.696 3.2452 -4.0618 0
M  V30 4930 C 472.381 3.62109 -3.48112 0
M  V30 4931 C 474.375 3.37013 -5.41019 0
M  V30 4932 C 472.062 3.74243 -4.831 0
M  V30 4933 C 473.06 3.61702 -5.79362 0
M  V30 4934 O 472.748 3.73436 -7.119 0
M  V30 4935 H 472.48 0.562207 -0.375365 0
M  V30 4936 H 475.034 1.26113 -1.62125 0
M  V30 4937 H 473.264 3.73734 -0.992981 0
M  V30 4938 H 474.953 3.80775 -1.40589 0
M  V30 4939 H 475.719 3.05004 -3.77091 0
M  V30 4940 H 471.598 3.70949 -2.73712 0
M  V30 4941 H 475.142 3.27141 -6.16137 0
M  V30 4942 H 471.039 3.93266 -5.11872 0
M  V30 4943 H 471.807 3.90328 -7.19435 0
M  V30 4944 N 474.47 1.03057 1.19235 0
M  V30 4945 C 475.718 0.726581 1.88587 0
M  V30 4946 C 476.039 -0.747227 1.80115 0
M  V30 4947 O 475.309 -1.53849 1.21274 0
M  V30 4948 H 473.889 0.265768 0.698124 0
M  V30 4949 H 476.551 1.30516 1.44746 0
M  V30 4950 H 475.647 1.0224 2.94879 0
M  V30 4951 N 475.948 -1.35272 0.808662 0
M  V30 4952 C 476.88 -2.28507 0.178149 0
M  V30 4953 C 477.893 -1.50377 -0.623754 0
M  V30 4954 O 479.082 -1.72583 -0.455774 0
M  V30 4955 C 476.182 -3.30038 -0.769959 0
M  V30 4956 C 475.355 -4.37398 -0.0139749 0
M  V30 4957 C 474.414 -5.18775 -0.880875 0
M  V30 4958 O 473.44 -5.68236 -0.331059 0
M  V30 4959 N 474.642 -5.37087 -2.20267 0
M  V30 4960 H 477.407 -2.83255 0.979106 0
M  V30 4961 H 474.968 -1.47643 0.664308 0
M  V30 4962 H 476.96 -3.81371 -1.35418 0
M  V30 4963 H 475.53 -2.75789 -1.47171 0
M  V30 4964 H 474.75 -3.86971 0.751468 0
M  V30 4965 H 476.038 -5.06268 0.506965 0
M  V30 4966 H 475.436 -4.9855 -2.67328 0
M  V30 4967 H 473.993 -5.91593 -2.73608 0
M  V30 4968 N 477.426 -0.562348 -1.47226 0
M  V30 4969 C 478.389 0.172056 -2.28553 0
M  V30 4970 C 479.389 0.837928 -1.37242 0
M  V30 4971 O 480.579 0.693001 -1.59822 0
M  V30 4972 C 477.711 1.25223 -3.17068 0
M  V30 4973 H 478.904 -0.542401 -2.94954 0
M  V30 4974 H 476.457 -0.319493 -1.53 0
M  V30 4975 H 477.192 1.99892 -2.55369 0
M  V30 4976 H 476.977 0.779515 -3.84273 0
M  V30 4977 H 478.467 1.76791 -3.78332 0
M  V30 4978 N 478.904 1.54736 -0.299062 0
M  V30 4979 C 479.834 2.26409 0.571085 0
M  V30 4980 C 480.815 1.2629 1.13951 0
M  V30 4981 O 482 1.55059 1.16921 0
M  V30 4982 C 479.13 3.00338 1.74396 0
M  V30 4983 C 478.084 4.07588 1.30599 0
M  V30 4984 C 477.41 4.69222 2.56387 0
M  V30 4985 C 478.71 5.20455 0.438645 0
M  V30 4986 H 480.404 2.99388 -0.0266991 0
M  V30 4987 H 477.95 1.43993 -0.0142812 0
M  V30 4988 H 479.903 3.49198 2.35878 0
M  V30 4989 H 478.627 2.24934 2.36796 0
M  V30 4990 H 477.286 3.59575 0.71424 0
M  V30 4991 H 476.934 3.9046 3.17097 0
M  V30 4992 H 476.634 5.41653 2.27784 0
M  V30 4993 H 478.158 5.20844 3.18675 0
M  V30 4994 H 479.572 5.65221 0.959085 0
M  V30 4995 H 477.969 5.99594 0.246466 0
M  V30 4996 H 479.039 4.8192 -0.536738 0
M  V30 4997 N 480.382 0.0267497 1.57577 0
M  V30 4998 C 481.345 -0.940916 2.08996 0
M  V30 4999 C 482.345 -1.25561 1.00455 0
M  V30 5000 O 483.535 -1.19634 1.26623 0
M  V30 5001 C 480.667 -2.25814 2.55384 0
M  V30 5002 H 481.86 -0.495628 2.95776 0
M  V30 5003 H 479.413 -0.221241 1.54726 0
M  V30 5004 H 480.148 -2.74976 1.71926 0
M  V30 5005 H 479.933 -2.04285 3.34679 0
M  V30 5006 H 481.423 -2.95178 2.95398 0
M  V30 5007 N 481.861 -1.55662 -0.24637 0
M  V30 5008 C 482.808 -1.90361 -1.30504 0
M  V30 5009 C 483.778 -0.757905 -1.47801 0
M  V30 5010 O 484.963 -1.01161 -1.61775 0
M  V30 5011 C 482.103 -2.2042 -2.65535 0
M  V30 5012 C 481.216 -3.47799 -2.56242 0
M  V30 5013 C 480.351 -3.67426 -3.8363 0
M  V30 5014 C 479.39 -4.88403 -3.68956 0
M  V30 5015 N 478.527 -5.04548 -4.88237 0
M  V30 5016 H 483.367 -2.80645 -1.00213 0
M  V30 5017 H 480.904 -1.38924 -0.483577 0
M  V30 5018 H 482.862 -2.35853 -3.44135 0
M  V30 5019 H 481.492 -1.3334 -2.93973 0
M  V30 5020 H 480.544 -3.40694 -1.69208 0
M  V30 5021 H 481.856 -4.36544 -2.4131 0
M  V30 5022 H 481.01 -3.82821 -4.70673 0
M  V30 5023 H 479.749 -2.76914 -4.01459 0
M  V30 5024 H 478.754 -4.72984 -2.80296 0
M  V30 5025 H 479.979 -5.80375 -3.52621 0
M  V30 5026 H 477.925 -4.16974 -5.06427 0
M  V30 5027 H 477.842 -5.87384 -4.75937 0
M  V30 5028 H 479.11 -5.24355 -5.76777 0
M  V30 5029 N 483.339 0.512053 -1.4905 0
M  V30 5030 C 484.269 1.62365 -1.67809 0
M  V30 5031 C 485.25 1.61737 -0.526809 0
M  V30 5032 O 486.435 1.78651 -0.761404 0
M  V30 5033 C 483.565 3.00895 -1.73435 0
M  V30 5034 C 482.519 3.16387 -2.88242 0
M  V30 5035 C 481.845 4.56157 -2.78971 0
M  V30 5036 C 483.145 2.97457 -4.29321 0
M  V30 5037 H 484.839 1.46921 -2.60873 0
M  V30 5038 H 482.385 0.705379 -1.2554 0
M  V30 5039 H 484.338 3.78549 -1.85145 0
M  V30 5040 H 483.062 3.17403 -0.769619 0
M  V30 5041 H 481.721 2.41155 -2.76116 0
M  V30 5042 H 481.369 4.69525 -1.8043 0
M  V30 5043 H 481.069 4.67465 -3.5602 0
M  V30 5044 H 482.593 5.35886 -2.92675 0
M  V30 5045 H 484.007 3.64888 -4.42187 0
M  V30 5046 H 482.404 3.20245 -5.07507 0
M  V30 5047 H 483.474 1.93692 -4.44535 0
M  V30 5048 N 484.817 1.37938 0.762283 0
M  V30 5049 C 486.065 1.33404 1.51815 0
M  V30 5050 C 486.386 -0.0780975 1.94844 0
M  V30 5051 O 485.656 -1.02405 1.67003 0
M  V30 5052 H 484.236 0.490839 0.563104 0
M  V30 5053 H 486.898 1.72527 0.906669 0
M  V30 5054 H 485.994 1.97926 2.41313 0
M  V30 5055 N 486.295 -0.989507 1.22664 0
M  V30 5056 C 487.245 -2.06478 0.967005 0
M  V30 5057 C 488.229 -1.60682 -0.0836374 0
M  V30 5058 O 489.421 -1.76541 0.127322 0
M  V30 5059 C 486.55 -3.38861 0.550313 0
M  V30 5060 C 485.636 -3.9128 1.63587 0
M  V30 5061 N 486.027 -4.16884 2.86429 0
M  V30 5062 C 484.325 -4.1972 1.50834 0
M  V30 5063 C 485.026 -4.5954 3.56648 0
M  V30 5064 N 484.002 -4.63434 2.84131 0
M  V30 5065 H 487.804 -2.24219 1.90008 0
M  V30 5066 H 485.318 -1.17153 1.12467 0
M  V30 5067 H 487.315 -4.15465 0.345612 0
M  V30 5068 H 485.975 -3.22518 -0.375822 0
M  V30 5069 H 486.986 -4.04976 3.22823 0
M  V30 5070 H 483.663 -4.1243 0.648643 0
M  V30 5071 H 485.053 -4.87944 4.61909 0
M  V30 5072 N 487.773 -1.03688 -1.18687 0
M  V30 5073 C 488.736 -0.629115 -2.20397 0
M  V30 5074 C 489.736 0.311495 -1.57754 0
M  V30 5075 O 490.926 0.0974107 -1.73927 0
M  V30 5076 C 488.058 0.0782231 -3.4081 0
M  V30 5077 H 489.251 -1.52915 -2.57987 0
M  V30 5078 H 486.804 -0.828988 -1.32505 0
M  V30 5079 H 487.539 0.992233 -3.08748 0
M  V30 5080 H 487.324 -0.597776 -3.87517 0
M  V30 5081 H 488.814 0.350156 -4.16129 0
M  V30 5082 N 489.251 1.34841 -0.815825 0
M  V30 5083 C 490.476 2.03261 -0.41226 0
M  V30 5084 C 490.901 1.61055 0.971751 0
M  V30 5085 O 490.259 0.7917 1.63101 0
M  V30 5086 C 490.307 3.56914 -0.514289 0
M  V30 5087 O 489.411 4.09728 0.468675 0
M  V30 5088 H 488.752 0.641664 -0.170771 0
M  V30 5089 H 491.282 1.72241 -1.10427 0
M  V30 5090 H 491.292 4.06156 -0.387457 0
M  V30 5091 H 489.967 3.86982 -1.52375 0
M  V30 5092 H 488.544 3.71681 0.301316 0
M  V30 5093 N 490.729 0.570148 1.46925 0
M  V30 5094 C 492.006 -0.0153259 1.95594 0
M  V30 5095 C 492.386 -1.47232 1.51281 0
M  V30 5096 O 491.734 -2.15574 0.757624 0
M  V30 5097 C 491.944 0.143624 3.48704 0
M  V30 5098 C 493.292 0.00494484 4.246 0
M  V30 5099 O 494.316 0.0718214 3.56128 0
M  V30 5100 O 493.175 -0.141175 5.46318 0
M  V30 5101 H 490.269 -0.0568819 0.825041 0
M  V30 5102 H 492.815 0.637583 1.57267 0
M  V30 5103 H 491.587 1.15699 3.73804 0
M  V30 5104 H 491.21 -0.5463 3.93829 0
M  V30 5105 N 492.207 -1.54576 0.307264 0
M  V30 5106 C 493.623 -1.59534 -0.0459251 0
M  V30 5107 C 493.823 -1.32414 -1.51884 0
M  V30 5108 O 492.879 -1.1006 -2.27251 0
M  V30 5109 C 494.192 -2.98566 0.357649 0
M  V30 5110 C 495.74 -3.11491 0.306937 0
M  V30 5111 C 496.215 -4.52842 0.685427 0
M  V30 5112 N 497.706 -4.58782 0.638203 0
M  V30 5113 C 498.441 -5.66238 0.903458 0
M  V30 5114 N 497.937 -6.81703 1.23501 0
M  V30 5115 N 499.73 -5.55937 0.830102 0
M  V30 5116 H 491.881 -1.70464 1.26712 0
M  V30 5117 H 494.144 -0.79647 0.514139 0
M  V30 5118 H 493.85 -3.23356 1.38325 0
M  V30 5119 H 493.724 -3.76117 -0.285565 0
M  V30 5120 H 496.111 -2.86446 -0.709424 0
M  V30 5121 H 496.192 -2.36081 0.984861 0
M  V30 5122 H 495.836 -4.78618 1.69963 0
M  V30 5123 H 495.766 -5.26598 -0.0146346 0
M  V30 5124 H 498.257 -3.75849 0.393138 0
M  V30 5125 H 498.57 -7.59582 1.42322 0
M  V30 5126 H 496.915 -6.8324 1.27311 0
M  V30 5127 H 500.106 -4.64608 0.570693 0
M  V30 5128 H 500.279 -6.39597 1.04019 0
M  V30 5129 N 493.685 -0.035106 -1.57561 0
M  V30 5130 C 494.934 0.641604 -1.91223 0
M  V30 5131 C 495.247 1.72944 -0.913761 0
M  V30 5132 O 496.453 2.46321 -1.14185 0
M  V30 5133 C 494.909 1.19249 -3.3957 0
M  V30 5134 C 494.517 0.137616 -4.47789 0
M  V30 5135 C 496.261 1.84537 -3.82291 0
M  V30 5136 C 494.168 0.700478 -5.87237 0
M  V30 5137 H 493.098 0.243417 -0.713627 0
M  V30 5138 H 495.749 -0.101382 -1.8322 0
M  V30 5139 H 494.131 1.98728 -3.42525 0
M  V30 5140 H 495.305 -0.635153 -4.56402 0
M  V30 5141 H 493.62 -0.416855 -4.14308 0
M  V30 5142 H 496.217 2.27616 -4.83834 0
M  V30 5143 H 496.56 2.69054 -3.17672 0
M  V30 5144 H 497.093 1.11739 -3.81784 0
M  V30 5145 H 493.832 -0.106693 -6.55413 0
M  V30 5146 H 493.352 1.4416 -5.82218 0
M  V30 5147 H 495.031 1.18837 -6.35993 0
M  V30 5148 N 495.163 1.55791 0.238111 0
M  V30 5149 C 496.412 1.77234 0.962868 0
M  V30 5150 C 496.725 0.600661 1.86149 0
M  V30 5151 O 497.931 0.698315 2.62366 0
M  V30 5152 C 496.387 3.13808 1.76218 0
M  V30 5153 C 495.995 4.3865 0.910518 0
M  V30 5154 C 497.739 3.44585 2.47914 0
M  V30 5155 C 495.646 5.66252 1.70623 0
M  V30 5156 H 494.576 0.660731 0.36325 0
M  V30 5157 H 497.227 1.8221 0.217242 0
M  V30 5158 H 495.609 3.02963 2.55009 0
M  V30 5159 H 496.783 4.60507 0.164316 0
M  V30 5160 H 495.098 4.15271 0.30647 0
M  V30 5161 H 497.695 4.3714 3.07917 0
M  V30 5162 H 498.038 2.66314 3.19973 0
M  V30 5163 H 498.571 3.56685 1.76127 0
M  V30 5164 H 495.31 6.47369 1.02923 0
M  V30 5165 H 494.83 5.48483 2.42748 0
M  V30 5166 H 496.509 6.05829 2.27114 0
M  V30 5167 N 496.642 -0.504142 1.49319 0
M  V30 5168 C 497.605 -1.5883 1.65244 0
M  V30 5169 C 498.605 -1.52009 0.524386 0
M  V30 5170 O 499.795 -1.55218 0.79077 0
M  V30 5171 C 496.927 -2.98481 1.64687 0
M  V30 5172 H 498.12 -1.4604 2.61939 0
M  V30 5173 H 495.673 -0.728144 1.38303 0
M  V30 5174 H 496.408 -3.16751 0.695644 0
M  V30 5175 H 496.193 -3.0484 2.46607 0
M  V30 5176 H 497.683 -3.77256 1.79075 0
M  V30 5177 N 498.12 -1.38341 -0.754957 0
M  V30 5178 C 499.05 -1.38176 -1.88227 0
M  V30 5179 C 500.031 -0.247873 -1.68284 0
M  V30 5180 O 501.216 -0.45075 -1.88896 0
M  V30 5181 C 498.346 -1.20471 -3.25736 0
M  V30 5182 C 497.3 -2.3105 -3.60278 0
M  V30 5183 C 496.626 -1.98452 -4.96509 0
M  V30 5184 C 497.926 -3.73305 -3.65295 0
M  V30 5185 H 499.62 -2.32512 -1.88622 0
M  V30 5186 H 497.166 -1.1192 -0.906082 0
M  V30 5187 H 499.119 -1.18982 -4.04254 0
M  V30 5188 H 497.843 -0.225965 -3.25817 0
M  V30 5189 H 496.502 -2.31723 -2.84078 0
M  V30 5190 H 496.15 -0.990641 -4.93148 0
M  V30 5191 H 495.85 -2.7251 -5.20588 0
M  V30 5192 H 497.374 -1.98578 -5.77407 0
M  V30 5193 H 498.788 -3.7467 -4.3393 0
M  V30 5194 H 497.185 -4.46557 -4.00883 0
M  V30 5195 H 498.255 -4.05719 -2.65556 0
M  V30 5196 N 499.598 0.982988 -1.23187 0
M  V30 5197 C 500.875 1.69814 -0.970707 0
M  V30 5198 C 501.255 2.04811 0.511424 0
M  V30 5199 O 500.603 1.73924 1.48198 0
M  V30 5200 C 500.813 2.94143 -1.87831 0
M  V30 5201 C 502.161 3.66712 -2.14026 0
M  V30 5202 O 503.185 3.04171 -1.8536 0
M  V30 5203 O 502.044 4.79258 -2.62629 0
M  V30 5204 H 499.138 0.741659 -0.365884 0
M  V30 5205 H 501.684 1.03844 -1.34218 0
M  V30 5206 H 500.456 2.64858 -2.88038 0
M  V30 5207 H 500.079 3.6785 -1.50905 0
M  V30 5208 N 501.076 1.04316 1.18135 0
M  V30 5209 C 502.324 0.746542 1.87806 0
M  V30 5210 C 502.645 -0.728082 1.80898 0
M  V30 5211 O 501.915 -1.52554 1.22899 0
M  V30 5212 H 500.495 0.273157 0.695265 0
M  V30 5213 H 503.157 1.32044 1.43354 0
M  V30 5214 H 502.253 1.05362 2.93778 0
M  V30 5215 N 502.554 -1.34406 0.822964 0
M  V30 5216 C 503.831 -1.92733 0.333641 0
M  V30 5217 C 504.211 -1.75107 -1.17901 0
M  V30 5218 O 503.559 -1.12983 -1.98613 0
M  V30 5219 C 503.769 -3.40557 0.763023 0
M  V30 5220 C 505.117 -4.17709 0.761879 0
M  V30 5221 O 506.141 -3.49141 0.705606 0
M  V30 5222 O 505 -5.40082 0.835109 0
M  V30 5223 H 502.094 -0.821964 0.0911249 0
M  V30 5224 H 504.64 -1.4338 0.907757 0
M  V30 5225 H 503.412 -3.47187 1.8049 0
M  V30 5226 H 503.035 -3.97259 0.164605 0
M  V30 5227 N 504.032 -0.577932 -1.46621 0
M  V30 5228 C 505.26 -0.0671642 -2.06791 0
M  V30 5229 C 505.675 1.23571 -1.42743 0
M  V30 5230 O 505.032 1.74602 -0.531062 0
M  V30 5231 C 505.083 0.110357 -3.61332 0
M  V30 5232 O 504.804 -1.14095 -4.22982 0
M  V30 5233 C 506.305 0.656025 -4.38419 0
M  V30 5234 H 503.525 -0.0552732 -0.66872 0
M  V30 5235 H 506.069 -0.797242 -1.8832 0
M  V30 5236 H 504.224 0.790637 -3.79246 0
M  V30 5237 H 504.638 -0.951742 -5.15793 0
M  V30 5238 H 506.112 0.729438 -5.47159 0
M  V30 5239 H 506.589 1.67195 -4.06131 0
M  V30 5240 H 507.195 0.0107692 -4.25299 0
M  V30 5241 N 505.51 1.54411 -0.315457 0
M  V30 5242 C 506.457 2.24048 0.554166 0
M  V30 5243 C 507.427 1.2283 1.11812 0
M  V30 5244 O 508.612 1.51491 1.15997 0
M  V30 5245 C 505.752 2.99574 1.71316 0
M  V30 5246 C 504.865 4.15594 1.17922 0
M  V30 5247 C 504 4.78669 2.30324 0
M  V30 5248 C 503.039 5.86807 1.74137 0
M  V30 5249 N 502.176 6.43777 2.8017 0
M  V30 5250 H 507.016 2.97964 -0.0462602 0
M  V30 5251 H 504.553 1.47059 -0.0346009 0
M  V30 5252 H 506.511 3.41604 2.39505 0
M  V30 5253 H 505.141 2.28008 2.285 0
M  V30 5254 H 504.193 3.78404 0.389136 0
M  V30 5255 H 505.505 4.93459 0.728012 0
M  V30 5256 H 504.659 5.23626 3.06433 0
M  V30 5257 H 503.398 4.00168 2.78778 0
M  V30 5258 H 502.403 5.41261 0.965236 0
M  V30 5259 H 503.628 6.67201 1.2657 0
M  V30 5260 H 501.574 5.68153 3.2793 0
M  V30 5261 H 501.491 7.17031 2.39588 0
M  V30 5262 H 502.759 6.9339 3.56132 0
M  V30 5263 N 506.988 0.0434614 1.5754 0
M  V30 5264 C 507.936 -0.951465 2.1225 0
M  V30 5265 C 508.93 -1.3274 1.05245 0
M  V30 5266 O 510.136 -1.30795 1.23663 0
M  V30 5267 H 506.511 -0.324667 0.678303 0
M  V30 5268 H 508.482 -0.464855 2.94757 0
M  V30 5269 C 507.231 -2.21972 2.67626 0
M  V30 5270 H 506.554 -1.93923 3.4962 0
M  V30 5271 H 507.994 -2.89765 3.09536 0
M  V30 5272 C 506.453 -2.95919 1.61038 0
M  V30 5273 O 506.983 -3.8857 1.01862 0
M  V30 5274 N 505.189 -2.58511 1.32741 0
M  V30 5275 H 504.736 -1.83244 1.81051 0
M  V30 5276 H 504.694 -3.08296 0.616531 0
M  V30 5277 N 508.466 -1.55915 -0.229846 0
M  V30 5278 C 509.691 -1.8296 -0.976743 0
M  V30 5279 C 510.116 -0.622735 -1.77493 0
M  V30 5280 O 509.474 0.428431 -1.76165 0
M  V30 5281 C 509.522 -3.07916 -1.8767 0
M  V30 5282 O 508.626 -2.86028 -2.97088 0
M  V30 5283 H 507.967 -0.603453 -0.277021 0
M  V30 5284 H 510.497 -2.0312 -0.245669 0
M  V30 5285 H 510.507 -3.37802 -2.2881 0
M  V30 5286 H 509.182 -3.95389 -1.28996 0
M  V30 5287 H 507.759 -2.67355 -2.59954 0
M  V30 5288 N 509.944 0.496216 -1.49584 0
M  V30 5289 C 511.172 1.27394 -1.63029 0
M  V30 5290 C 511.587 1.86344 -0.303569 0
M  V30 5291 O 510.944 1.68057 0.711547 0
M  V30 5292 C 510.995 2.40077 -2.70269 0
M  V30 5293 O 510.716 1.83549 -3.97796 0
M  V30 5294 C 512.217 3.31372 -2.94462 0
M  V30 5295 H 509.437 0.386211 -0.54871 0
M  V30 5296 H 511.981 0.595163 -1.95648 0
M  V30 5297 H 510.136 3.03775 -2.40415 0
M  V30 5298 H 510.55 2.57561 -4.56905 0
M  V30 5299 H 512.024 4.06707 -3.73221 0
M  V30 5300 H 512.501 3.88654 -2.0456 0
M  V30 5301 H 513.107 2.73435 -3.25751 0
M  V30 5302 N 511.423 1.38739 0.74761 0
M  V30 5303 C 512.67 1.35274 1.50689 0
M  V30 5304 C 512.998 -0.0553359 1.94421 0
M  V30 5305 O 512.253 -1.03365 1.66175 0
M  V30 5306 C 512.552 2.25992 2.7688 0
M  V30 5307 C 512.218 3.73854 2.5208 0
M  V30 5308 C 510.88 4.14145 2.45025 0
M  V30 5309 C 513.232 4.67427 2.30568 0
M  V30 5310 C 510.56 5.4609 2.14483 0
M  V30 5311 C 512.912 5.99635 2.01545 0
M  V30 5312 C 511.576 6.39004 1.92951 0
M  V30 5313 H 510.846 0.495003 0.55141 0
M  V30 5314 H 513.493 1.71145 0.859158 0
M  V30 5315 H 511.798 1.83196 3.46333 0
M  V30 5316 H 513.495 2.20611 3.34861 0
M  V30 5317 H 510.085 3.41913 2.58444 0
M  V30 5318 H 514.269 4.3714 2.34994 0
M  V30 5319 H 509.525 5.75528 2.06342 0
M  V30 5320 H 513.699 6.71678 1.83906 0
M  V30 5321 H 511.326 7.41165 1.6905 0
M  V30 5322 N 512.901 -0.976442 1.23707 0
M  V30 5323 C 514.126 -1.75875 1.09922 0
M  V30 5324 C 514.551 -1.84911 -0.34489 0
M  V30 5325 O 513.909 -1.31363 -1.24954 0
M  V30 5326 C 513.957 -3.16179 1.73388 0
M  V30 5327 O 513.061 -4.00124 0.99871 0
M  V30 5328 H 512.402 -0.540954 0.385052 0
M  V30 5329 H 514.932 -1.22546 1.6384 0
M  V30 5330 H 514.942 -3.66741 1.78788 0
M  V30 5331 H 513.617 -3.08917 2.78466 0
M  V30 5332 H 512.194 -3.58624 1.02193 0
M  V30 5333 N 514.379 -1.04941 -1.1758 0
M  V30 5334 C 515.289 -0.658826 -2.25159 0
M  V30 5335 C 516.305 0.318941 -1.71052 0
M  V30 5336 O 517.481 0.171669 -2.00667 0
M  V30 5337 C 514.546 -0.0369522 -3.4668 0
M  V30 5338 C 513.607 -1.06484 -4.15884 0
M  V30 5339 C 512.84 -0.472551 -5.31604 0
M  V30 5340 O 513.063 0.718736 -5.65854 0
M  V30 5341 O 511.997 -1.20557 -5.89703 0
M  V30 5342 H 515.823 -1.55533 -2.60851 0
M  V30 5343 H 513.408 -0.820819 -1.24832 0
M  V30 5344 H 515.29 0.308784 -4.20267 0
M  V30 5345 H 513.965 0.833238 -3.12792 0
M  V30 5346 H 512.872 -1.46253 -3.44327 0
M  V30 5347 H 514.205 -1.9061 -4.53794 0
M  V30 5348 N 515.857 1.33968 -0.830081 0
M  V30 5349 C 517.106 1.97323 -0.417928 0
M  V30 5350 C 517.419 1.6652 1.02618 0
M  V30 5351 O 518.625 2.2342 1.54259 0
M  V30 5352 C 517.081 3.53099 -0.696359 0
M  V30 5353 C 516.689 3.92788 -2.15457 0
M  V30 5354 C 518.433 4.23049 -0.350724 0
M  V30 5355 C 516.34 5.41506 -2.37751 0
M  V30 5356 H 515.27 0.738409 -0.152541 0
M  V30 5357 H 517.921 1.52711 -1.01744 0
M  V30 5358 H 516.303 3.95991 -0.0265904 0
M  V30 5359 H 517.477 3.6098 -2.86408 0
M  V30 5360 H 515.792 3.35795 -2.46232 0
M  V30 5361 H 518.389 5.32403 -0.495036 0
M  V30 5362 H 518.732 4.10279 0.705476 0
M  V30 5363 H 519.265 3.85657 -0.975362 0
M  V30 5364 H 516.004 5.5927 -3.41903 0
M  V30 5365 H 515.524 5.74804 -1.7135 0
M  V30 5366 H 517.203 6.0828 -2.20465 0
M  V30 5367 N 517.335 0.585699 1.46312 0
M  V30 5368 C 518.582 0.0724211 2.0237 0
M  V30 5369 C 518.91 -1.28868 1.45683 0
M  V30 5370 O 518.165 -1.85853 0.612945 0
M  V30 5371 C 518.464 -0.0401312 3.57377 0
M  V30 5372 C 518.13 1.25376 4.33119 0
M  V30 5373 C 516.792 1.60824 4.5353 0
M  V30 5374 C 519.144 2.10987 4.76586 0
M  V30 5375 C 516.472 2.81676 5.14661 0
M  V30 5376 C 518.824 3.31068 5.39052 0
M  V30 5377 C 517.488 3.66794 5.5769 0
M  V30 5378 H 516.758 0.0265007 0.740526 0
M  V30 5379 H 519.405 0.762935 1.75646 0
M  V30 5380 H 517.71 -0.813791 3.83255 0
M  V30 5381 H 519.407 -0.453078 3.98432 0
M  V30 5382 H 515.997 0.967808 4.1753 0
M  V30 5383 H 520.181 1.84904 4.60569 0
M  V30 5384 H 515.437 3.0949 5.27282 0
M  V30 5385 H 519.611 3.97672 5.71691 0
M  V30 5386 H 517.238 4.60529 6.04828 0
M  V30 5387 N 518.813 -1.54241 0.323641 0
M  V30 5388 C 519.76 -2.24339 -0.542277 0
M  V30 5389 C 520.73 -1.23421 -1.11159 0
M  V30 5390 O 521.915 -1.52104 -1.15192 0
M  V30 5391 C 519.055 -3.00479 -1.69725 0
M  V30 5392 C 518.168 -4.16214 -1.15716 0
M  V30 5393 C 517.303 -4.79884 -2.27783 0
M  V30 5394 C 516.342 -5.87722 -1.71023 0
M  V30 5395 N 515.479 -6.45254 -2.76752 0
M  V30 5396 H 520.319 -2.97935 0.0620613 0
M  V30 5397 H 517.856 -1.47039 0.0423993 0
M  V30 5398 H 519.814 -3.42869 -2.3769 0
M  V30 5399 H 518.444 -2.29217 -2.27288 0
M  V30 5400 H 517.496 -3.78605 -0.369063 0
M  V30 5401 H 518.808 -4.93838 -0.701832 0
M  V30 5402 H 517.962 -5.25243 -3.03651 0
M  V30 5403 H 516.701 -4.01641 -2.76652 0
M  V30 5404 H 515.706 -5.41765 -0.936518 0
M  V30 5405 H 516.931 -6.67863 -1.2303 0
M  V30 5406 H 514.877 -5.69884 -3.24912 0
M  V30 5407 H 514.794 -7.18292 -2.35782 0
M  V30 5408 H 516.062 -6.95269 -3.5245 0
M  V30 5409 N 520.291 -0.0518155 -1.57515 0
M  V30 5410 C 521.238 0.922352 -2.11569 0
M  V30 5411 C 522.208 1.30842 -1.02321 0
M  V30 5412 O 523.393 1.39778 -1.29872 0
M  V30 5413 C 520.533 2.19167 -2.6657 0
M  V30 5414 C 519.646 1.86003 -3.89906 0
M  V30 5415 C 518.781 3.07398 -4.33221 0
M  V30 5416 C 517.82 2.70158 -5.49255 0
M  V30 5417 N 516.957 3.84248 -5.8762 0
M  V30 5418 H 521.797 0.454506 -2.94514 0
M  V30 5419 H 519.334 0.212718 -1.45554 0
M  V30 5420 H 521.292 2.93443 -2.96559 0
M  V30 5421 H 519.922 2.63528 -1.86421 0
M  V30 5422 H 518.974 1.01874 -3.66505 0
M  V30 5423 H 520.286 1.54592 -4.74239 0
M  V30 5424 H 519.44 3.89972 -4.64765 0
M  V30 5425 H 518.179 3.41988 -3.477 0
M  V30 5426 H 517.184 1.86001 -5.17382 0
M  V30 5427 H 518.409 2.36759 -6.36492 0
M  V30 5428 H 516.355 4.18638 -5.05053 0
M  V30 5429 H 516.272 3.56538 -6.66646 0
M  V30 5430 H 517.54 4.6746 -6.2378 0
M  V30 5431 N 521.769 1.56035 0.221574 0
M  V30 5432 C 522.679 1.95581 1.29558 0
M  V30 5433 C 523.695 0.859639 1.51282 0
M  V30 5434 O 524.871 1.16321 1.64413 0
M  V30 5435 C 521.936 2.26447 2.62531 0
M  V30 5436 C 520.997 3.49632 2.4911 0
M  V30 5437 C 520.23 3.79017 3.75742 0
M  V30 5438 O 520.453 3.10077 4.78757 0
M  V30 5439 O 519.387 4.72507 3.72855 0
M  V30 5440 H 523.213 2.8711 0.990035 0
M  V30 5441 H 520.798 1.43244 0.424434 0
M  V30 5442 H 522.68 2.47494 3.41064 0
M  V30 5443 H 521.355 1.38092 2.92766 0
M  V30 5444 H 520.262 3.33864 1.68777 0
M  V30 5445 H 521.595 4.3837 2.23814 0
M  V30 5446 N 523.247 -0.488276 1.49845 0
M  V30 5447 C 524.197 -1.58556 1.63842 0
M  V30 5448 C 525.181 -1.53142 0.493586 0
M  V30 5449 O 526.373 -1.60457 0.747169 0
M  V30 5450 C 523.502 -2.97101 1.72005 0
M  V30 5451 C 522.588 -3.07463 2.92108 0
M  V30 5452 N 522.979 -2.87681 4.16021 0
M  V30 5453 C 521.277 -3.3858 2.90309 0
M  V30 5454 C 521.978 -3.0256 4.96822 0
M  V30 5455 N 520.954 -3.32002 4.30437 0
M  V30 5456 H 524.756 -1.41935 2.57355 0
M  V30 5457 H 522.27 -0.694668 1.46793 0
M  V30 5458 H 524.267 -3.75976 1.80132 0
M  V30 5459 H 522.927 -3.14782 0.796375 0
M  V30 5460 H 523.938 -2.63603 4.45796 0
M  V30 5461 H 520.615 -3.62357 2.07372 0
M  V30 5462 H 522.005 -2.9165 6.05301 0
M  V30 5463 N 524.725 -1.39134 -0.740242 0
M  V30 5464 C 526.136 -1.32208 -1.31825 0
M  V30 5465 C 526.487 0.0159919 -1.96193 0
M  V30 5466 O 525.612 0.918111 -1.95958 0
M  V30 5467 C 526.207 -2.39436 -2.39699 0
M  V30 5468 C 524.766 -2.36048 -2.93187 0
M  V30 5469 C 523.913 -2.21599 -1.66701 0
M  V30 5470 H 526.864 -1.49298 -0.538133 0
M  V30 5471 H 526.885 -2.05922 -3.19963 0
M  V30 5472 H 526.397 -3.36811 -1.92821 0
M  V30 5473 H 524.498 -1.42295 -3.44359 0
M  V30 5474 H 524.611 -3.30704 -3.46658 0
M  V30 5475 H 522.975 -1.68681 -1.90837 0
M  V30 5476 H 523.758 -3.20936 -1.21882 0
M  V30 5477 N 526.204 0.969867 -1.24223 0
M  V30 5478 C 527.481 1.68774 -0.988664 0
M  V30 5479 C 527.861 2.05342 0.489673 0
M  V30 5480 O 527.209 1.75486 1.46345 0
M  V30 5481 C 527.419 2.92135 -1.90941 0
M  V30 5482 C 528.767 3.64422 -2.17903 0
M  V30 5483 O 529.791 3.02188 -1.88576 0
M  V30 5484 O 528.65 4.76446 -2.67697 0
M  V30 5485 H 525.744 0.737736 -0.37373 0
M  V30 5486 H 528.29 1.02415 -1.35312 0
M  V30 5487 H 527.062 2.61788 -2.90831 0
M  V30 5488 H 526.685 3.66228 -1.54798 0
M  V30 5489 N 527.682 1.05563 1.17022 0
M  V30 5490 C 529.098 0.777684 1.39371 0
M  V30 5491 C 529.298 -0.626269 1.91521 0
M  V30 5492 O 528.354 -1.38806 2.10924 0
M  V30 5493 C 529.667 1.83642 2.3811 0
M  V30 5494 C 531.215 1.85907 2.51809 0
M  V30 5495 C 531.69 2.90813 3.53824 0
M  V30 5496 N 533.181 2.898 3.61345 0
M  V30 5497 C 533.916 3.6762 4.40049 0
M  V30 5498 N 533.412 4.55237 5.22237 0
M  V30 5499 N 535.205 3.56044 4.34959 0
M  V30 5500 H 527.356 1.9614 0.815047 0
M  V30 5501 H 529.619 0.849527 0.420722 0
M  V30 5502 H 529.325 2.84425 2.06871 0
M  V30 5503 H 529.199 1.6812 3.37662 0
M  V30 5504 H 531.586 0.857865 2.82356 0
M  V30 5505 H 531.667 2.05506 1.52318 0
M  V30 5506 H 531.311 3.91122 3.24015 0
M  V30 5507 H 531.241 2.68465 4.53028 0
M  V30 5508 H 533.732 2.26274 3.02669 0
M  V30 5509 H 534.045 5.11291 5.79484 0
M  V30 5510 H 532.39 4.59296 5.21605 0
M  V30 5511 H 535.581 2.86986 3.69806 0
M  V30 5512 H 535.754 4.16938 4.96051 0
M  V30 5513 N 529.16 -1.33526 0.837174 0
M  V30 5514 C 530.407 -1.97837 0.432064 0
M  V30 5515 C 530.735 -1.66324 -1.00829 0
M  V30 5516 O 529.99 -0.93448 -1.71948 0
M  V30 5517 C 530.289 -3.52367 0.597675 0
M  V30 5518 C 529.955 -4.03826 2.00587 0
M  V30 5519 C 528.617 -4.1759 2.39106 0
M  V30 5520 C 530.969 -4.31333 2.92576 0
M  V30 5521 C 528.297 -4.56195 3.68921 0
M  V30 5522 C 530.649 -4.7139 4.2187 0
M  V30 5523 C 529.313 -4.8336 4.60347 0
M  V30 5524 H 528.583 -0.723937 0.158104 0
M  V30 5525 H 531.23 -1.5923 1.06387 0
M  V30 5526 H 529.535 -3.91624 -0.117452 0
M  V30 5527 H 531.232 -4.00126 0.26454 0
M  V30 5528 H 527.822 -3.93586 1.69671 0
M  V30 5529 H 532.006 -4.20224 2.64056 0
M  V30 5530 H 527.262 -4.63655 3.9854 0
M  V30 5531 H 531.436 -4.91631 4.93226 0
M  V30 5532 H 529.063 -5.1303 5.60985 0
M  V30 5533 N 530.638 -0.59345 -1.46 0
M  V30 5534 C 531.887 -0.0808084 -2.01538 0
M  V30 5535 C 532.2 1.29112 -1.46934 0
M  V30 5536 O 533.406 1.8957 -1.94359 0
M  V30 5537 C 531.862 -0.0938311 -3.59778 0
M  V30 5538 C 531.47 -1.46474 -4.23379 0
M  V30 5539 C 533.214 0.364306 -4.22934 0
M  V30 5540 C 531.121 -1.4349 -5.73729 0
M  V30 5541 H 530.051 -0.0264407 -0.753536 0
M  V30 5542 H 532.702 -0.746689 -1.67621 0
M  V30 5543 H 531.084 0.638427 -3.9082 0
M  V30 5544 H 532.258 -2.21758 -4.03931 0
M  V30 5545 H 530.573 -1.86379 -3.7236 0
M  V30 5546 H 533.17 0.405584 -5.3316 0
M  V30 5547 H 533.513 1.38409 -3.92618 0
M  V30 5548 H 534.046 -0.31423 -3.96557 0
M  V30 5549 H 530.785 -2.43184 -6.08722 0
M  V30 5550 H 530.305 -0.724431 -5.95409 0
M  V30 5551 H 531.984 -1.15243 -6.36654 0
M  V30 5552 N 532.116 1.54067 -0.331816 0
M  V30 5553 C 533.026 2.28322 0.539104 0
M  V30 5554 C 534.042 1.32985 1.1221 0
M  V30 5555 O 535.218 1.6601 1.1403 0
M  V30 5556 C 532.283 3.03277 1.68 0
M  V30 5557 C 531.344 4.14216 1.12798 0
M  V30 5558 C 530.577 4.85588 2.2145 0
M  V30 5559 O 530.8 4.56536 3.41952 0
M  V30 5560 O 529.734 5.72309 1.86404 0
M  V30 5561 H 533.56 3.03632 -0.0641692 0
M  V30 5562 H 531.145 1.49083 -0.0972365 0
M  V30 5563 H 533.027 3.50189 2.34405 0
M  V30 5564 H 531.702 2.30834 2.2693 0
M  V30 5565 H 530.609 3.71635 0.428782 0
M  V30 5566 H 531.942 4.88727 0.583698 0
M  V30 5567 N 533.594 0.0601682 1.57485 0
M  V30 5568 C 534.834 -0.615384 1.94916 0
M  V30 5569 C 535.198 -1.67475 0.938948 0
M  V30 5570 O 536.399 -2.40502 1.20051 0
M  V30 5571 C 534.67 -1.18788 3.37082 0
M  V30 5572 S 536.229 -1.88018 3.96478 0
M  V30 5573 H 533.047 -0.201821 0.681754 0
M  V30 5574 H 535.649 0.131252 1.95059 0
M  V30 5575 H 534.353 -0.404869 4.08398 0
M  V30 5576 H 533.884 -1.97114 3.40455 0
M  V30 5577 H 535.899 -3.16161 3.82435 0
M  V30 5578 N 535.072 -1.5615 -0.213296 0
M  V30 5579 C 536.302 -1.83372 -0.951757 0
M  V30 5580 C 536.71 -0.638158 -1.78113 0
M  V30 5581 O 536.053 0.402609 -1.79234 0
M  V30 5582 C 536.115 -3.04444 -1.91192 0
M  V30 5583 C 535.779 -4.39107 -1.26627 0
M  V30 5584 C 536.776 -5.15794 -0.652087 0
M  V30 5585 C 534.461 -4.85834 -1.27556 0
M  V30 5586 C 536.455 -6.37376 -0.055814 0
M  V30 5587 C 534.142 -6.07356 -0.675451 0
M  V30 5588 C 535.14 -6.82967 -0.0666367 0
M  V30 5589 O 534.828 -8.0219 0.524119 0
M  V30 5590 H 534.56 -0.613398 -0.284111 0
M  V30 5591 H 537.114 -2.04096 -0.231112 0
M  V30 5592 H 535.344 -2.79559 -2.67178 0
M  V30 5593 H 537.033 -3.18466 -2.51662 0
M  V30 5594 H 537.799 -4.80796 -0.637172 0
M  V30 5595 H 533.678 -4.26949 -1.73883 0
M  V30 5596 H 537.222 -6.96334 0.420004 0
M  V30 5597 H 533.119 -6.41825 -0.687806 0
M  V30 5598 H 533.887 -8.17426 0.419243 0
M  V30 5599 N 536.55 0.480323 -1.50102 0
M  V30 5600 C 537.799 1.22979 -1.59872 0
M  V30 5601 C 538.112 1.93282 -0.30022 0
M  V30 5602 O 539.318 2.70086 -0.276709 0
M  V30 5603 C 537.774 2.23408 -2.82164 0
M  V30 5604 C 537.382 1.5895 -4.18854 0
M  V30 5605 C 539.126 2.99055 -3.01275 0
M  V30 5606 C 537.033 2.57611 -5.32344 0
M  V30 5607 H 535.963 0.462707 -0.59533 0
M  V30 5608 H 538.614 0.501291 -1.7652 0
M  V30 5609 H 536.996 2.99511 -2.59055 0
M  V30 5610 H 538.17 0.887 -4.52182 0
M  V30 5611 H 536.485 0.956191 -4.05273 0
M  V30 5612 H 539.082 3.72876 -3.83233 0
M  V30 5613 H 539.425 3.57897 -2.12639 0
M  V30 5614 H 539.958 2.30066 -3.24522 0
M  V30 5615 H 536.697 2.03521 -6.23105 0
M  V30 5616 H 536.217 3.26041 -5.03445 0
M  V30 5617 H 537.896 3.19627 -5.62537 0
M  V30 5618 N 538.028 1.39524 0.732853 0
M  V30 5619 C 538.991 1.38189 1.82857 0
M  V30 5620 C 539.991 0.278624 1.58368 0
M  V30 5621 O 541.181 0.536639 1.65728 0
M  V30 5622 C 538.313 1.15661 3.2068 0
M  V30 5623 H 539.506 2.35692 1.85444 0
M  V30 5624 H 537.059 1.2512 0.936728 0
M  V30 5625 H 537.794 0.188482 3.23752 0
M  V30 5626 H 537.579 1.95559 3.39852 0
M  V30 5627 H 539.069 1.17472 4.00737 0
M  V30 5628 N 539.506 -0.963266 1.24736 0
M  V30 5629 C 540.416 -2.09246 1.06082 0
M  V30 5630 C 541.432 -1.74 0.000363101 0
M  V30 5631 O 542.608 -2.0041 0.199479 0
M  V30 5632 C 539.673 -3.40115 0.672498 0
M  V30 5633 C 538.734 -3.89282 1.80993 0
M  V30 5634 C 537.967 -5.13905 1.44004 0
M  V30 5635 O 538.19 -5.69434 0.331835 0
M  V30 5636 O 537.124 -5.57566 2.26723 0
M  V30 5637 H 540.95 -2.27881 2.00759 0
M  V30 5638 H 538.535 -1.07649 1.03595 0
M  V30 5639 H 540.417 -4.18797 0.467668 0
M  V30 5640 H 539.092 -3.22771 -0.245102 0
M  V30 5641 H 537.999 -3.11642 2.06955 0
M  V30 5642 H 539.332 -4.1111 2.70646 0
M  V30 5643 N 540.985 -1.06182 -1.16461 0
M  V30 5644 C 541.917 -0.629584 -2.20383 0
M  V30 5645 C 542.93 0.311834 -1.59786 0
M  V30 5646 O 544.119 0.103 -1.78203 0
M  V30 5647 C 541.219 0.0973695 -3.3876 0
M  V30 5648 C 540.392 -0.857252 -4.28917 0
M  V30 5649 C 539.451 -0.169749 -5.25926 0
M  V30 5650 O 538.477 -0.807044 -5.6345 0
M  V30 5651 N 539.679 1.08911 -5.70192 0
M  V30 5652 H 542.444 -1.52352 -2.58087 0
M  V30 5653 H 540.005 -0.944993 -1.31459 0
M  V30 5654 H 541.997 0.567676 -4.00699 0
M  V30 5655 H 540.567 0.893093 -2.99571 0
M  V30 5656 H 539.787 -1.50696 -3.64259 0
M  V30 5657 H 541.075 -1.50489 -4.86035 0
M  V30 5658 H 540.473 1.62703 -5.41797 0
M  V30 5659 H 539.03 1.50331 -6.34227 0
M  V30 5660 N 542.463 1.3308 -0.844243 0
M  V30 5661 C 543.411 2.31028 -0.269954 0
M  V30 5662 C 544.405 1.58381 0.600997 0
M  V30 5663 O 545.611 1.73203 0.48996 0
M  V30 5664 H 541.986 0.748866 -0.0685782 0
M  V30 5665 H 543.957 2.76967 -1.11049 0
M  V30 5666 C 542.706 3.43549 0.535676 0
M  V30 5667 H 542.029 3.99604 -0.125202 0
M  V30 5668 H 543.469 4.14267 0.903262 0
M  V30 5669 C 541.928 2.8988 1.71672 0
M  V30 5670 O 542.458 2.86511 2.81557 0
M  V30 5671 N 540.664 2.46416 1.54037 0
M  V30 5672 H 540.211 2.49356 0.64649 0
M  V30 5673 H 540.169 2.1086 2.33207 0
M  V30 5674 N 543.941 0.601185 1.45683 0
M  V30 5675 C 544.874 -0.17013 2.27565 0
M  V30 5676 C 545.852 -0.879661 1.36751 0
M  V30 5677 O 547.036 -0.889827 1.66176 0
M  V30 5678 C 544.163 -1.24568 3.14961 0
M  V30 5679 C 543.209 -0.639978 4.21671 0
M  V30 5680 S 544.042 0.547275 5.32696 0
M  V30 5681 C 545.198 -0.529019 6.2366 0
M  V30 5682 H 545.431 0.524583 2.92635 0
M  V30 5683 H 542.964 0.388537 1.49431 0
M  V30 5684 H 544.922 -1.86138 3.65873 0
M  V30 5685 H 543.583 -1.91243 2.49169 0
M  V30 5686 H 542.776 -1.44903 4.8272 0
M  V30 5687 H 542.378 -0.0995558 3.73867 0
M  V30 5688 H 544.67 -1.40981 6.62669 0
M  V30 5689 H 545.613 0.0451599 7.08086 0
M  V30 5690 H 546.021 -0.84147 5.58193 0
M  V30 5691 N 545.419 -1.53889 0.339982 0
M  V30 5692 C 546.665 -2.01152 -0.258003 0
M  V30 5693 C 546.998 -1.22749 -1.50487 0
M  V30 5694 O 546.273 -0.314156 -1.91946 0
M  V30 5695 C 546.556 -3.55468 -0.575717 0
M  V30 5696 C 546.409 -4.44584 0.682996 0
M  V30 5697 C 547.728 -4.1768 -1.38677 0
M  V30 5698 H 544.847 -0.731198 -0.0922992 0
M  V30 5699 H 547.489 -1.84352 0.459814 0
M  V30 5700 H 545.639 -3.69914 -1.18725 0
M  V30 5701 H 547.311 -4.41981 1.32102 0
M  V30 5702 H 545.554 -4.13592 1.3086 0
M  V30 5703 H 546.225 -5.5043 0.416001 0
M  V30 5704 H 548.701 -4.0691 -0.869705 0
M  V30 5705 H 547.577 -5.25734 -1.57783 0
M  V30 5706 H 547.838 -3.72069 -2.38782 0
M  V30 5707 N 546.897 -0.0685191 -1.57451 0
M  V30 5708 C 548.122 0.613919 -1.98106 0
M  V30 5709 C 548.547 1.62551 -0.946501 0
M  V30 5710 O 547.905 1.81085 0.0882824 0
M  V30 5711 C 547.953 1.26189 -3.378 0
M  V30 5712 O 547.057 2.37773 -3.36954 0
M  V30 5713 H 546.398 0.158163 -0.644888 0
M  V30 5714 H 548.928 -0.142063 -2.04106 0
M  V30 5715 H 548.938 1.60951 -3.74912 0
M  V30 5716 H 547.613 0.520625 -4.12629 0
M  V30 5717 H 546.19 2.04829 -3.11608 0
M  V30 5718 N 548.375 1.56261 0.205012 0
M  V30 5719 C 549.624 1.79236 0.925058 0
M  V30 5720 C 549.937 0.640011 1.84833 0
M  V30 5721 O 551.143 0.753809 2.60826 0
M  V30 5722 C 549.599 3.17475 1.69522 0
M  V30 5723 C 549.207 4.40482 0.817269 0
M  V30 5724 C 550.951 3.49766 2.4055 0
M  V30 5725 C 548.858 5.69744 1.58573 0
M  V30 5726 H 547.788 0.668287 0.349153 0
M  V30 5727 H 550.439 1.82629 0.178544 0
M  V30 5728 H 548.821 3.08304 2.48526 0
M  V30 5729 H 549.995 4.60752 0.0665988 0
M  V30 5730 H 548.31 4.15827 0.218316 0
M  V30 5731 H 550.907 4.43573 2.98575 0
M  V30 5732 H 551.25 2.73041 3.14252 0
M  V30 5733 H 551.783 3.60341 1.68522 0
M  V30 5734 H 548.522 6.49407 0.891679 0
M  V30 5735 H 548.042 5.53509 2.31059 0
M  V30 5736 H 549.721 6.1051 2.14212 0
M  V30 5737 N 549.853 -0.472356 1.50355 0
M  V30 5738 C 550.816 -1.5529 1.68576 0
M  V30 5739 C 551.816 -1.50863 0.556511 0
M  V30 5740 O 553.006 -1.53505 0.823516 0
M  V30 5741 C 550.138 -2.94921 1.70981 0
M  V30 5742 H 551.331 -1.40451 2.64978 0
M  V30 5743 H 548.884 -0.698645 1.39816 0
M  V30 5744 H 549.619 -3.15204 0.762675 0
M  V30 5745 H 549.404 -2.99541 2.53017 0
M  V30 5746 H 550.894 -3.73372 1.87037 0
M  V30 5747 N 551.331 -1.39911 -0.725443 0
M  V30 5748 C 552.577 -1.37858 -1.48738 0
M  V30 5749 C 552.91 0.0224187 -1.94187 0
M  V30 5750 O 552.185 0.989204 -1.67466 0
M  V30 5751 C 552.468 -2.3594 -2.72038 0
M  V30 5752 C 552.321 -3.85023 -2.32546 0
M  V30 5753 C 553.64 -2.31704 -3.74167 0
M  V30 5754 H 550.759 -0.502074 -0.539528 0
M  V30 5755 H 553.401 -1.70974 -0.828728 0
M  V30 5756 H 551.551 -2.0783 -3.28236 0
M  V30 5757 H 553.223 -4.2392 -1.81905 0
M  V30 5758 H 551.466 -4.01334 -1.64661 0
M  V30 5759 H 552.137 -4.49152 -3.20884 0
M  V30 5760 H 554.613 -2.5658 -3.27576 0
M  V30 5761 H 553.489 -3.02395 -4.58092 0
M  V30 5762 H 553.75 -1.3253 -4.21768 0
M  V30 5763 N 552.809 0.956637 -1.25245 0
M  V30 5764 C 554.057 1.69764 -1.09657 0
M  V30 5765 C 554.378 1.91583 0.363464 0
M  V30 5766 O 553.648 1.50149 1.25825 0
M  V30 5767 H 552.228 0.629097 -0.402798 0
M  V30 5768 H 554.89 1.15026 -1.57337 0
M  V30 5769 H 553.986 2.67769 -1.60331 0
M  V30 5770 N 554.287 1.06798 1.15896 0
M  V30 5771 C 555.527 0.797041 1.8822 0
M  V30 5772 C 555.891 -0.664549 1.80133 0
M  V30 5773 O 557.092 -1.0503 2.47431 0
M  V30 5774 C 555.363 1.28431 3.33527 0
M  V30 5775 S 556.922 1.14319 4.23647 0
M  V30 5776 H 553.74 0.288988 0.649621 0
M  V30 5777 H 556.342 1.36594 1.39865 0
M  V30 5778 H 555.046 2.34286 3.36954 0
M  V30 5779 H 554.577 0.710371 3.86933 0
M  V30 5780 H 556.592 0.0772467 4.9614 0
M  V30 5781 N 555.766 -1.3263 0.851289 0
M  V30 5782 C 556.729 -2.27247 0.298541 0
M  V30 5783 C 557.729 -1.51467 -0.539847 0
M  V30 5784 O 558.919 -1.7061 -0.351843 0
M  V30 5785 C 556.051 -3.35964 -0.578004 0
M  V30 5786 H 557.244 -2.7765 1.13359 0
M  V30 5787 H 554.797 -1.43245 0.625354 0
M  V30 5788 H 555.532 -2.90823 -1.435 0
M  V30 5789 H 555.317 -3.92094 0.0220539 0
M  V30 5790 H 556.807 -4.06472 -0.957626 0
M  V30 5791 N 557.244 -0.608902 -1.45362 0
M  V30 5792 C 558.472 -0.111013 -2.06602 0
M  V30 5793 C 558.887 1.20516 -1.45332 0
M  V30 5794 O 558.244 1.73437 -0.567978 0
M  V30 5795 C 558.295 0.033688 -3.61484 0
M  V30 5796 O 558.016 -1.23041 -4.20467 0
M  V30 5797 C 559.517 0.562882 -4.39712 0
M  V30 5798 H 556.737 -0.0694453 -0.667397 0
M  V30 5799 H 559.281 -0.837008 -1.86586 0
M  V30 5800 H 557.436 0.710016 -3.80838 0
M  V30 5801 H 557.85 -1.06094 -5.13658 0
M  V30 5802 H 559.324 0.613213 -5.48583 0
M  V30 5803 H 559.801 1.58543 -4.09586 0
M  V30 5804 H 560.407 -0.0794454 -4.25226 0
M  V30 5805 N 558.722 1.53707 -0.348139 0
M  V30 5806 C 560.138 1.596 0.00361134 0
M  V30 5807 C 560.338 1.36394 1.4832 0
M  V30 5808 O 559.394 1.16046 2.24253 0
M  V30 5809 C 560.707 2.97512 -0.436682 0
M  V30 5810 C 562.255 3.10568 -0.389416 0
M  V30 5811 C 562.73 4.50866 -0.805249 0
M  V30 5812 N 564.221 4.56929 -0.759616 0
M  V30 5813 C 564.956 5.63643 -1.05327 0
M  V30 5814 N 564.452 6.78189 -1.41531 0
M  V30 5815 N 566.245 5.5354 -0.977207 0
M  V30 5816 H 558.396 1.67044 -1.31187 0
M  V30 5817 H 560.659 0.782559 -0.535075 0
M  V30 5818 H 560.365 3.19575 -1.46849 0
M  V30 5819 H 560.239 3.76742 0.185744 0
M  V30 5820 H 562.626 2.88226 0.633228 0
M  V30 5821 H 562.707 2.33387 -1.04711 0
M  V30 5822 H 562.351 4.73943 -1.82593 0
M  V30 5823 H 562.281 5.26452 -0.124989 0
M  V30 5824 H 564.772 3.74675 -0.49265 0
M  V30 5825 H 565.085 7.55541 -1.62411 0
M  V30 5826 H 563.43 6.79624 -1.45381 0
M  V30 5827 H 566.621 4.62932 -0.693675 0
M  V30 5828 H 566.794 6.36614 -1.2094 0
M  V30 5829 N 560.2 0.0768682 1.57412 0
M  V30 5830 C 561.148 -0.906229 2.1422 0
M  V30 5831 C 562.142 -1.30477 1.08037 0
M  V30 5832 O 563.348 -1.28143 1.2641 0
M  V30 5833 H 559.723 -0.310207 0.685037 0
M  V30 5834 H 561.694 -0.402228 2.95677 0
M  V30 5835 C 560.443 -2.16245 2.72274 0
M  V30 5836 H 559.766 -1.86463 3.53655 0
M  V30 5837 H 561.206 -2.83134 3.15613 0
M  V30 5838 C 559.665 -2.92437 1.67279 0
M  V30 5839 O 560.195 -3.86322 1.10081 0
M  V30 5840 N 558.401 -2.55637 1.38195 0
M  V30 5841 H 557.948 -1.79363 1.84897 0
M  V30 5842 H 557.906 -3.06919 0.681787 0
M  V30 5843 N 561.678 -1.56367 -0.196722 0
M  V30 5844 C 563.094 -1.49916 -0.54749 0
M  V30 5845 C 563.294 -0.77659 -1.85934 0
M  V30 5846 O 562.35 -0.32644 -2.50381 0
M  V30 5847 C 563.663 -2.94577 -0.603734 0
M  V30 5848 C 565.211 -3.05239 -0.692677 0
M  V30 5849 C 565.686 -4.51308 -0.780046 0
M  V30 5850 N 567.177 -4.55453 -0.843616 0
M  V30 5851 C 567.912 -5.65786 -0.931358 0
M  V30 5852 N 567.408 -6.85812 -0.981503 0
M  V30 5853 N 569.201 -5.53695 -0.968421 0
M  V30 5854 H 561.352 -2.01761 0.663803 0
M  V30 5855 H 563.615 -0.918094 0.236238 0
M  V30 5856 H 563.321 -3.50494 0.29105 0
M  V30 5857 H 563.195 -3.47841 -1.45898 0
M  V30 5858 H 565.582 -2.49372 -1.57789 0
M  V30 5859 H 565.663 -2.55103 0.188736 0
M  V30 5860 H 565.307 -5.078 0.100811 0
M  V30 5861 H 565.237 -4.99176 -1.67724 0
M  V30 5862 H 567.728 -3.69025 -0.814176 0
M  V30 5863 H 568.041 -7.65648 -1.04892 0
M  V30 5864 H 566.386 -6.88474 -0.950208 0
M  V30 5865 H 569.577 -4.58848 -0.926072 0
M  V30 5866 H 569.75 -6.39708 -1.03334 0
M  V30 5867 N 563.156 0.464375 -1.50603 0
M  V30 5868 C 564.384 1.23907 -1.65695 0
M  V30 5869 C 564.799 1.85658 -0.343027 0
M  V30 5870 O 564.156 1.69529 0.675739 0
M  V30 5871 C 564.207 2.3429 -2.75301 0
M  V30 5872 O 563.928 1.7507 -4.01599 0
M  V30 5873 C 565.429 3.25051 -3.01424 0
M  V30 5874 H 562.649 0.374485 -0.556778 0
M  V30 5875 H 565.193 0.55353 -1.96866 0
M  V30 5876 H 563.348 2.98607 -2.46804 0
M  V30 5877 H 563.762 2.47812 -4.62266 0
M  V30 5878 H 565.236 3.98699 -3.81763 0
M  V30 5879 H 565.713 3.84227 -2.12758 0
M  V30 5880 H 566.319 2.66463 -3.31477 0
M  V30 5881 N 564.634 1.40294 0.718013 0
M  V30 5882 C 565.88 1.38645 1.48005 0
M  V30 5883 C 566.213 -0.0121202 1.94196 0
M  V30 5884 O 565.488 -0.980309 1.67989 0
M  V30 5885 C 565.771 2.37379 2.70782 0
M  V30 5886 C 565.624 3.8625 2.30501 0
M  V30 5887 C 566.943 2.33685 3.72933 0
M  V30 5888 H 564.062 0.504928 0.536858 0
M  V30 5889 H 566.704 1.71411 0.819649 0
M  V30 5890 H 564.854 2.09568 3.27129 0
M  V30 5891 H 566.526 4.24879 1.79655 0
M  V30 5892 H 564.769 4.02202 1.6253 0
M  V30 5893 H 565.44 4.50847 3.18498 0
M  V30 5894 H 567.916 2.58314 3.2621 0
M  V30 5895 H 566.792 3.0482 4.56482 0
M  V30 5896 H 567.053 1.34765 4.21059 0
M  V30 5897 N 566.112 -0.949982 1.2575 0
M  V30 5898 C 567.523 -1.50989 1.09815 0
M  V30 5899 C 567.874 -1.93497 -0.324556 0
M  V30 5900 O 566.999 -1.79068 -1.21506 0
M  V30 5901 C 567.594 -2.74394 1.98729 0
M  V30 5902 C 566.153 -3.26682 1.86965 0
M  V30 5903 C 565.3 -1.99498 1.92603 0
M  V30 5904 H 568.251 -0.766387 1.38968 0
M  V30 5905 H 568.272 -3.48383 1.53001 0
M  V30 5906 H 567.784 -2.43425 3.02268 0
M  V30 5907 H 565.885 -3.62461 0.863279 0
M  V30 5908 H 565.998 -3.94383 2.72027 0
M  V30 5909 H 564.362 -2.15005 1.36546 0
M  V30 5910 H 565.145 -1.70871 2.97755 0
M  V30 5911 N 567.59 -1.07411 -1.15328 0
M  V30 5912 C 568.837 -0.797649 -1.86128 0
M  V30 5913 C 569.165 0.676298 -1.82364 0
M  V30 5914 O 568.42 1.51223 -1.24218 0
M  V30 5915 C 568.719 -1.25191 -3.34757 0
M  V30 5916 C 568.385 -2.73191 -3.58716 0
M  V30 5917 C 567.047 -3.13616 -3.64964 0
M  V30 5918 C 569.399 -3.68718 -3.6837 0
M  V30 5919 C 566.727 -4.48383 -3.78377 0
M  V30 5920 C 569.079 -5.03248 -3.83306 0
M  V30 5921 C 567.743 -5.43293 -3.878 0
M  V30 5922 H 567.013 -0.29188 -0.681092 0
M  V30 5923 H 569.66 -1.34524 -1.36292 0
M  V30 5924 H 567.965 -0.623712 -3.86804 0
M  V30 5925 H 569.662 -1.01489 -3.87945 0
M  V30 5926 H 566.252 -2.40898 -3.54494 0
M  V30 5927 H 570.436 -3.38614 -3.62842 0
M  V30 5928 H 565.692 -4.78877 -3.80114 0
M  V30 5929 H 569.866 -5.77142 -3.89718 0
M  V30 5930 H 567.493 -6.47721 -3.97946 0
M  V30 5931 N 569.068 1.32177 -0.85831 0
M  V30 5932 C 570.308 1.98927 -0.469822 0
M  V30 5933 C 570.672 1.66423 0.95746 0
M  V30 5934 O 571.873 2.26293 1.45069 0
M  V30 5935 C 570.144 3.50352 -0.706288 0
M  V30 5936 S 571.703 4.36824 -0.415918 0
M  V30 5937 H 568.521 0.688909 -0.175855 0
M  V30 5938 H 571.123 1.60807 -1.11181 0
M  V30 5939 H 569.827 3.71497 -1.74407 0
M  V30 5940 H 569.358 3.93367 -0.0508568 0
M  V30 5941 H 571.373 4.90398 0.756581 0
M  V30 5942 N 570.547 0.616602 1.45037 0
M  V30 5943 C 571.772 0.120192 2.07051 0
M  V30 5944 C 572.197 -1.19008 1.45666 0
M  V30 5945 O 571.555 -1.7267 0.552692 0
M  V30 5946 C 571.603 0.00354901 3.606 0
M  V30 5947 O 570.707 -1.04431 3.98958 0
M  V30 5948 H 570.048 0.0781599 0.659384 0
M  V30 5949 H 572.578 0.849167 1.86146 0
M  V30 5950 H 572.588 -0.191754 4.07549 0
M  V30 5951 H 571.263 0.960239 4.04663 0
M  V30 5952 H 569.84 -0.824749 3.63665 0
M  V30 5953 N 572.025 -1.5352 0.356285 0
M  V30 5954 C 573.253 -2.05534 -0.237328 0
M  V30 5955 C 573.668 -1.23043 -1.43199 0
M  V30 5956 O 573.025 -0.268821 -1.80509 0
M  V30 5957 C 573.076 -3.55791 -0.639933 0
M  V30 5958 O 572.797 -4.35154 0.507233 0
M  V30 5959 C 574.298 -4.24027 -1.29292 0
M  V30 5960 H 571.518 -0.669585 -0.0435572 0
M  V30 5961 H 574.062 -1.97988 0.511963 0
M  V30 5962 H 572.217 -3.63518 -1.33915 0
M  V30 5963 H 572.631 -5.24178 0.18375 0
M  V30 5964 H 574.105 -5.30509 -1.52527 0
M  V30 5965 H 574.582 -3.77166 -2.25039 0
M  V30 5966 H 575.188 -4.20527 -0.63539 0
M  V30 5967 N 573.503 -0.0852151 -1.57369 0
M  V30 5968 C 574.75 0.580806 -1.93992 0
M  V30 5969 C 575.078 1.68801 -0.966252 0
M  V30 5970 O 574.333 1.95694 0.0158649 0
M  V30 5971 C 574.632 1.18482 -3.3719 0
M  V30 5972 C 574.298 0.2024 -4.50446 0
M  V30 5973 C 572.96 -0.0678318 -4.81152 0
M  V30 5974 C 575.312 -0.46895 -5.19086 0
M  V30 5975 C 572.64 -1.01627 -5.77831 0
M  V30 5976 C 574.992 -1.4058 -6.16782 0
M  V30 5977 C 573.656 -1.68436 -6.45899 0
M  V30 5978 H 572.926 0.212532 -0.709867 0
M  V30 5979 H 575.573 -0.158947 -1.90839 0
M  V30 5980 H 573.878 2.0006 -3.36873 0
M  V30 5981 H 575.575 1.70767 -3.62822 0
M  V30 5982 H 572.165 0.423208 -4.26505 0
M  V30 5983 H 576.349 -0.273307 -4.95547 0
M  V30 5984 H 571.605 -1.2392 -5.9871 0
M  V30 5985 H 575.779 -1.93188 -6.69068 0
M  V30 5986 H 573.406 -2.42088 -7.20623 0
M  V30 5987 N 574.981 1.5647 0.188427 0
M  V30 5988 C 575.944 1.9421 1.21718 0
M  V30 5989 C 576.944 0.823901 1.38089 0
M  V30 5990 O 578.134 1.09122 1.35787 0
M  V30 5991 C 575.266 2.22197 2.58537 0
M  V30 5992 H 576.459 2.86252 0.894418 0
M  V30 5993 H 574.012 1.50263 0.430211 0
M  V30 5994 H 574.747 1.32814 2.95856 0
M  V30 5995 H 574.532 3.03688 2.48025 0
M  V30 5996 H 576.022 2.52376 3.3271 0
M  V30 5997 N 576.459 -0.456382 1.50847 0
M  V30 5998 C 577.422 -1.53493 1.70213 0
M  V30 5999 C 578.422 -1.50264 0.572481 0
M  V30 6000 O 579.612 -1.52623 0.839751 0
M  V30 6001 C 576.744 -2.93091 1.741 0
M  V30 6002 H 577.937 -1.37633 2.66453 0
M  V30 6003 H 575.49 -0.683776 1.4055 0
M  V30 6004 H 576.225 -3.14378 0.796063 0
M  V30 6005 H 576.01 -2.9684 2.5618 0
M  V30 6006 H 577.5 -3.71368 1.90987 0
M  V30 6007 N 577.937 -1.40673 -0.710563 0
M  V30 6008 C 579.184 -1.39222 -1.47049 0
M  V30 6009 C 579.512 0.0037691 -1.945 0
M  V30 6010 O 578.767 0.989224 -1.68857 0
M  V30 6011 C 579.066 -2.33253 -2.70791 0
M  V30 6012 C 578.732 -3.80406 -2.42079 0
M  V30 6013 C 577.394 -4.20496 -2.33959 0
M  V30 6014 C 579.746 -4.73375 -2.18094 0
M  V30 6015 C 577.074 -5.51584 -1.99929 0
M  V30 6016 C 579.426 -6.04768 -1.85576 0
M  V30 6017 C 578.09 -6.43895 -1.75941 0
M  V30 6018 H 577.36 -0.509449 -0.538092 0
M  V30 6019 H 580.007 -1.73363 -0.81348 0
M  V30 6020 H 578.312 -1.92314 -3.41354 0
M  V30 6021 H 580.009 -2.29412 -3.28894 0
M  V30 6022 H 576.599 -3.48645 -2.49288 0
M  V30 6023 H 580.783 -4.43217 -2.23321 0
M  V30 6024 H 576.039 -5.80797 -1.91011 0
M  V30 6025 H 580.213 -6.76318 -1.66033 0
M  V30 6026 H 577.84 -7.45387 -1.4934 0
M  V30 6027 N 579.415 0.9433 -1.26252 0
M  V30 6028 C 580.662 1.68925 -1.11672 0
M  V30 6029 C 580.99 1.91499 0.340329 0
M  V30 6030 O 580.245 1.49189 1.26653 0
M  V30 6031 C 580.544 3.07073 -1.82868 0
M  V30 6032 C 580.21 3.04262 -3.32769 0
M  V30 6033 C 578.872 3.03203 -3.7366 0
M  V30 6034 C 581.224 2.96729 -4.28487 0
M  V30 6035 C 578.552 2.92373 -5.0866 0
M  V30 6036 C 580.904 2.87442 -5.63525 0
M  V30 6037 C 579.568 2.84724 -6.03729 0
M  V30 6038 H 578.838 0.618141 -0.408635 0
M  V30 6039 H 581.485 1.10124 -1.56668 0
M  V30 6040 H 579.79 3.69486 -1.30335 0
M  V30 6041 H 581.487 3.63635 -1.69029 0
M  V30 6042 H 578.077 3.05865 -3.00241 0
M  V30 6043 H 582.261 2.96658 -3.97879 0
M  V30 6044 H 577.517 2.88645 -5.38975 0
M  V30 6045 H 581.691 2.80576 -6.37377 0
M  V30 6046 H 579.318 2.76089 -7.08293 0
M  V30 6047 N 580.893 1.08022 1.14757 0
M  V30 6048 C 582.121 0.828847 1.89572 0
M  V30 6049 C 582.536 -0.618621 1.78377 0
M  V30 6050 O 581.893 -1.42482 1.1404 0
M  V30 6051 C 581.944 1.23677 3.39685 0
M  V30 6052 O 581.665 2.62746 3.50566 0
M  V30 6053 C 583.166 1.01569 4.31507 0
M  V30 6054 H 580.386 0.299196 0.600602 0
M  V30 6055 H 582.93 1.43846 1.45357 0
M  V30 6056 H 581.085 0.671347 3.81539 0
M  V30 6057 H 581.499 2.79573 4.43778 0
M  V30 6058 H 582.973 1.35055 5.35223 0
M  V30 6059 H 583.45 -0.0475433 4.39174 0
M  V30 6060 H 584.056 1.56636 3.95405 0
M  V30 6061 N 582.371 -1.3172 0.865308 0
M  V30 6062 C 583.787 -1.4958 0.556596 0
M  V30 6063 C 583.987 -1.79763 -0.910353 0
M  V30 6064 O 583.043 -1.87351 -1.6928 0
M  V30 6065 C 584.356 -2.63277 1.45279 0
M  V30 6066 C 585.904 -2.77161 1.45433 0
M  V30 6067 C 586.379 -3.93949 2.33598 0
M  V30 6068 N 587.87 -4.01228 2.31453 0
M  V30 6069 C 588.605 -4.90855 2.96393 0
M  V30 6070 N 588.101 -5.85416 3.70486 0
M  V30 6071 N 589.894 -4.84063 2.85726 0
M  V30 6072 H 582.045 -1.10396 1.81456 0
M  V30 6073 H 584.308 -0.54507 0.775631 0
M  V30 6074 H 584.014 -2.47734 2.49641 0
M  V30 6075 H 583.888 -3.59309 1.14792 0
M  V30 6076 H 586.275 -2.9212 0.41831 0
M  V30 6077 H 586.356 -1.8181 1.79941 0
M  V30 6078 H 586 -3.79748 3.37274 0
M  V30 6079 H 585.93 -4.88598 1.96417 0
M  V30 6080 H 588.421 -3.3357 1.77593 0
M  V30 6081 H 588.734 -6.50525 4.17178 0
M  V30 6082 H 587.079 -5.85409 3.74594 0
M  V30 6083 H 590.27 -4.09163 2.27384 0
M  V30 6084 H 590.443 -5.53708 3.36617 0
M  V30 6085 N 583.85 -0.624285 -1.44708 0
M  V30 6086 C 584.812 0.0749638 -2.29077 0
M  V30 6087 C 585.812 0.778965 -1.40673 0
M  V30 6088 O 587.003 0.624591 -1.62618 0
M  V30 6089 C 584.135 1.11663 -3.22094 0
M  V30 6090 H 585.327 -0.667013 -2.92388 0
M  V30 6091 H 582.88 -0.384098 -1.51507 0
M  V30 6092 H 583.615 1.88881 -2.63618 0
M  V30 6093 H 583.401 0.61583 -3.87234 0
M  V30 6094 H 584.891 1.60585 -3.8549 0
M  V30 6095 N 585.328 1.53329 -0.364422 0
M  V30 6096 C 586.575 2.01239 0.225634 0
M  V30 6097 C 586.903 1.25172 1.48869 0
M  V30 6098 O 586.158 0.333289 1.92841 0
M  V30 6099 C 586.457 3.52911 0.564661 0
M  V30 6100 C 586.123 4.46837 -0.603936 0
M  V30 6101 C 584.785 4.72234 -0.924585 0
M  V30 6102 C 587.137 5.02409 -1.38691 0
M  V30 6103 C 584.465 5.50454 -2.0302 0
M  V30 6104 C 586.817 5.81836 -2.48293 0
M  V30 6105 C 585.481 6.0552 -2.80894 0
M  V30 6106 H 584.751 0.736386 0.0825654 0
M  V30 6107 H 587.398 1.84948 -0.496645 0
M  V30 6108 H 585.703 3.67144 1.36794 0
M  V30 6109 H 587.4 3.87455 1.03344 0
M  V30 6110 H 583.99 4.27217 -0.343983 0
M  V30 6111 H 588.174 4.82735 -1.15243 0
M  V30 6112 H 583.43 5.67024 -2.28678 0
M  V30 6113 H 587.604 6.23905 -3.0938 0
M  V30 6114 H 585.231 6.65916 -3.66688 0
M  V30 6115 N 586.806 0.0935595 1.57322 0
M  V30 6116 C 588.083 -0.612692 1.85756 0
M  V30 6117 C 588.463 -1.86439 0.99013 0
M  V30 6118 O 587.811 -2.28416 0.0621362 0
M  V30 6119 C 588.021 -0.929547 3.36393 0
M  V30 6120 C 589.369 -1.29366 4.04413 0
M  V30 6121 O 590.393 -1.02061 3.41265 0
M  V30 6122 O 589.252 -1.80498 5.15832 0
M  V30 6123 H 586.346 -0.306444 0.768128 0
M  V30 6124 H 588.892 0.126141 1.69231 0
M  V30 6125 H 587.664 -0.0414766 3.91278 0
M  V30 6126 H 587.287 -1.72441 3.5826 0
M  V30 6127 N 588.284 -1.56567 -0.180126 0
M  V30 6128 C 589.216 -1.92275 -1.24751 0
M  V30 6129 C 590.229 -0.814922 -1.40936 0
M  V30 6130 O 591.418 -1.09336 -1.41095 0
M  V30 6131 C 588.518 -2.15265 -2.61752 0
M  V30 6132 C 587.691 -3.46467 -2.66981 0
M  V30 6133 C 586.75 -3.58391 -3.85283 0
M  V30 6134 O 585.776 -4.31086 -3.7169 0
M  V30 6135 N 586.978 -2.92587 -5.01371 0
M  V30 6136 H 589.743 -2.84435 -0.944302 0
M  V30 6137 H 587.304 -1.57617 -0.369952 0
M  V30 6138 H 589.296 -2.20515 -3.39345 0
M  V30 6139 H 587.866 -1.29533 -2.845 0
M  V30 6140 H 587.086 -3.52953 -1.75549 0
M  V30 6141 H 588.374 -4.32819 -2.67479 0
M  V30 6142 H 587.772 -2.3338 -5.15316 0
M  V30 6143 H 586.329 -3.03444 -5.76858 0
M  V30 6144 N 589.762 0.448376 -1.51087 0
M  V30 6145 C 591.011 1.19561 -1.62444 0
M  V30 6146 C 591.324 1.92602 -0.341151 0
M  V30 6147 O 592.53 2.69439 -0.333936 0
M  V30 6148 C 590.986 2.17373 -2.8684 0
M  V30 6149 C 590.594 1.5003 -4.22131 0
M  V30 6150 C 592.338 2.92597 -3.0755 0
M  V30 6151 C 590.245 2.46262 -5.37689 0
M  V30 6152 H 589.175 0.449975 -0.605011 0
M  V30 6153 H 591.826 0.463735 -1.77544 0
M  V30 6154 H 590.208 2.93948 -2.65349 0
M  V30 6155 H 591.382 0.790886 -4.53962 0
M  V30 6156 H 589.697 0.870011 -4.0721 0
M  V30 6157 H 592.294 3.64663 -3.91056 0
M  V30 6158 H 592.637 3.53306 -2.20183 0
M  V30 6159 H 593.17 2.23131 -3.29329 0
M  V30 6160 H 589.909 1.90258 -6.27281 0
M  V30 6161 H 589.429 3.15289 -5.10248 0
M  V30 6162 H 591.108 3.07623 -5.6919 0
M  V30 6163 N 591.24 1.41047 0.703093 0
M  V30 6164 C 592.656 1.23351 1.01275 0
M  V30 6165 C 592.856 0.11754 2.01157 0
M  V30 6166 O 591.912 -0.520518 2.47077 0
M  V30 6167 C 593.225 2.58001 1.54454 0
M  V30 6168 C 594.773 2.65119 1.66376 0
M  V30 6169 C 595.248 4.00067 2.22958 0
M  V30 6170 N 596.739 4.01875 2.30328 0
M  V30 6171 C 597.474 5.03087 2.75119 0
M  V30 6172 N 596.97 6.14692 3.19571 0
M  V30 6173 N 598.763 4.90451 2.74616 0
M  V30 6174 H 590.914 2.1236 0.0412686 0
M  V30 6175 H 593.177 0.944543 0.08089 0
M  V30 6176 H 592.883 3.40378 0.88521 0
M  V30 6177 H 592.757 2.79962 2.52786 0
M  V30 6178 H 595.144 1.83106 2.31422 0
M  V30 6179 H 595.225 2.46975 0.666089 0
M  V30 6180 H 594.869 4.82526 1.58529 0
M  V30 6181 H 594.799 4.15547 3.23462 0
M  V30 6182 H 597.29 3.21291 1.98949 0
M  V30 6183 H 597.603 6.87799 3.52352 0
M  V30 6184 H 595.948 6.18239 3.17498 0
M  V30 6185 H 599.139 4.0235 2.39233 0
M  V30 6186 H 599.312 5.6947 3.09206 0
M  V30 6187 N 592.718 -0.936591 1.26751 0
M  V30 6188 C 593.651 -2.03619 1.03027 0
M  V30 6189 C 594.629 -1.62534 -0.0464619 0
M  V30 6190 O 595.813 -1.88251 0.0968873 0
M  V30 6191 C 592.94 -3.3402 0.561072 0
M  V30 6192 C 591.986 -3.9408 1.63105 0
M  V30 6193 S 592.819 -4.27782 3.22122 0
M  V30 6194 C 593.975 -5.61277 2.76982 0
M  V30 6195 H 594.208 -2.23429 1.96129 0
M  V30 6196 H 591.741 -1.07857 1.10482 0
M  V30 6197 H 593.699 -4.09424 0.297031 0
M  V30 6198 H 592.36 -3.12147 -0.349741 0
M  V30 6199 H 591.553 -4.88154 1.25386 0
M  V30 6200 H 591.155 -3.25227 1.84671 0
M  V30 6201 H 593.447 -6.40189 2.21731 0
M  V30 6202 H 594.39 -6.03887 3.69766 0
M  V30 6203 H 594.798 -5.21374 2.16402 0
M  V30 6204 N 594.196 -1.08629 -1.14182 0
M  V30 6205 C 595.159 -0.722027 -2.1753 0
M  V30 6206 C 596.159 0.244305 -1.58933 0
M  V30 6207 O 597.349 0.0235545 -1.74184 0
M  V30 6208 C 594.481 -0.0663966 -3.40835 0
M  V30 6209 H 595.674 -1.63719 -2.51269 0
M  V30 6210 H 593.227 -0.884442 -1.28869 0
M  V30 6211 H 593.962 0.860389 -3.12678 0
M  V30 6212 H 593.747 -0.761598 -3.84632 0
M  V30 6213 H 595.237 0.173346 -4.1724 0
M  V30 6214 N 595.674 1.31259 -0.872281 0
M  V30 6215 C 596.637 2.26744 -0.334656 0
M  V30 6216 C 597.637 1.52307 0.515681 0
M  V30 6217 O 598.827 1.71148 0.324656 0
M  V30 6218 C 595.959 3.36841 0.524482 0
M  V30 6219 H 597.152 2.75812 -1.17762 0
M  V30 6220 H 594.705 1.42232 -0.648064 0
M  V30 6221 H 595.44 2.93069 1.38855 0
M  V30 6222 H 595.225 3.92009 -0.0844299 0
M  V30 6223 H 596.715 4.07944 0.892838 0
M  V30 6224 N 597.152 0.631951 1.44375 0
M  V30 6225 C 598.401 0.134214 2.01253 0
M  V30 6226 C 598.714 -1.25171 1.50305 0
M  V30 6227 O 599.92 -1.8435 1.99317 0
M  V30 6228 C 598.376 0.189187 3.59402 0
M  V30 6229 C 597.984 1.57647 4.19346 0
M  V30 6230 C 599.728 -0.252044 4.23751 0
M  V30 6231 C 597.635 1.58651 5.69722 0
M  V30 6232 H 596.565 0.0464101 0.75257 0
M  V30 6233 H 599.216 0.790868 1.65582 0
M  V30 6234 H 597.598 -0.534584 3.92375 0
M  V30 6235 H 598.772 2.32389 3.97909 0
M  V30 6236 H 597.087 1.96186 3.67288 0
M  V30 6237 H 599.684 -0.264084 5.34047 0
M  V30 6238 H 600.027 -1.27951 3.96149 0
M  V30 6239 H 600.56 0.41926 3.95584 0
M  V30 6240 H 597.299 2.59237 6.0206 0
M  V30 6241 H 596.819 0.882039 5.93279 0
M  V30 6242 H 598.498 1.32082 6.33375 0
M  V30 6243 N 598.631 -1.53133 0.372548 0
M  V30 6244 C 599.856 -2.0625 -0.218098 0
M  V30 6245 C 600.281 -1.24375 -1.41111 0
M  V30 6246 O 599.639 -0.264554 -1.79359 0
M  V30 6247 C 599.687 -3.55858 -0.582876 0
M  V30 6248 O 598.791 -3.76667 -1.67917 0
M  V30 6249 H 598.132 -0.663317 -0.030104 0
M  V30 6250 H 600.662 -1.97477 0.535169 0
M  V30 6251 H 600.672 -3.99007 -0.851925 0
M  V30 6252 H 599.347 -4.14892 0.289428 0
M  V30 6253 H 597.924 -3.45413 -1.40513 0
M  V30 6254 N 600.109 -0.101901 -1.5727 0
M  V30 6255 C 601.019 0.868647 -2.17926 0
M  V30 6256 C 602.035 1.30527 -1.1506 0
M  V30 6257 O 603.211 1.37178 -1.47459 0
M  V30 6258 C 600.276 2.10727 -2.75309 0
M  V30 6259 C 599.337 1.7242 -3.93154 0
M  V30 6260 C 598.57 2.90377 -4.47791 0
M  V30 6261 O 598.793 4.05305 -4.01353 0
M  V30 6262 O 597.727 2.6845 -5.38719 0
M  V30 6263 H 601.553 0.382544 -3.01281 0
M  V30 6264 H 599.138 0.122812 -1.48894 0
M  V30 6265 H 601.02 2.83303 -3.11958 0
M  V30 6266 H 599.695 2.58376 -1.94996 0
M  V30 6267 H 598.602 0.970039 -3.61305 0
M  V30 6268 H 599.935 1.29528 -4.74851 0
M  V30 6269 N 601.587 1.56661 0.17182 0
M  V30 6270 C 602.812 1.86459 0.908165 0
M  V30 6271 C 603.237 0.688181 1.75059 0
M  V30 6272 O 602.595 -0.362753 1.77634 0
M  V30 6273 C 602.643 3.14669 1.76112 0
M  V30 6274 O 601.747 2.96858 2.86268 0
M  V30 6275 H 601.088 0.613318 0.254434 0
M  V30 6276 H 603.618 2.03892 0.170113 0
M  V30 6277 H 603.628 3.46061 2.16115 0
M  V30 6278 H 602.303 3.99905 1.14233 0
M  V30 6279 H 600.88 2.76819 2.49852 0
M  V30 6280 N 603.065 -0.440357 1.51323 0
M  V30 6281 C 604.013 -1.55492 1.72988 0
M  V30 6282 C 605.007 -1.58564 0.596138 0
M  V30 6283 O 606.213 -1.62345 0.777443 0
M  V30 6284 H 602.588 -0.516532 0.546533 0
M  V30 6285 H 604.559 -1.34392 2.66423 0
M  V30 6286 C 603.308 -2.93176 1.86931 0
M  V30 6287 H 602.631 -2.91543 2.73574 0
M  V30 6288 H 604.071 -3.70537 2.06103 0
M  V30 6289 C 602.53 -3.30988 0.628365 0
M  V30 6290 O 603.06 -4.01106 -0.218367 0
M  V30 6291 N 601.266 -2.86719 0.473339 0
M  V30 6292 H 600.813 -2.2983 1.16345 0
M  V30 6293 H 600.771 -3.12381 -0.355727 0
M  V30 6294 N 604.543 -1.41418 -0.695603 0
M  V30 6295 C 605.792 -1.40073 -1.4513 0
M  V30 6296 C 606.105 -0.0130439 -1.95596 0
M  V30 6297 O 607.311 0.123032 -2.71221 0
M  V30 6298 C 605.767 -2.46286 -2.62433 0
M  V30 6299 C 605.375 -3.90962 -2.18753 0
M  V30 6300 C 607.119 -2.54077 -3.40066 0
M  V30 6301 C 605.026 -4.88728 -3.33015 0
M  V30 6302 H 603.956 -0.520903 -0.545138 0
M  V30 6303 H 606.607 -1.67242 -0.75515 0
M  V30 6304 H 604.989 -2.12248 -3.34315 0
M  V30 6305 H 606.163 -4.34248 -1.54161 0
M  V30 6306 H 604.478 -3.86831 -1.54114 0
M  V30 6307 H 607.075 -3.24303 -4.25125 0
M  V30 6308 H 607.418 -1.5776 -3.8525 0
M  V30 6309 H 607.951 -2.87206 -2.75241 0
M  V30 6310 H 604.69 -5.86449 -2.92844 0
M  V30 6311 H 604.21 -4.50091 -3.96457 0
M  V30 6312 H 605.889 -5.09483 -3.98793 0
M  V30 6313 N 606.021 0.929856 -1.27246 0
M  V30 6314 C 606.969 2.05151 -1.09616 0
M  V30 6315 C 607.963 1.69388 -0.0198617 0
M  V30 6316 O 609.169 1.79124 -0.177417 0
M  V30 6317 H 605.544 0.671909 -0.337701 0
M  V30 6318 H 607.515 2.17168 -2.04648 0
M  V30 6319 C 606.264 3.3934 -0.757851 0
M  V30 6320 H 605.587 3.67343 -1.57795 0
M  V30 6321 H 607.027 4.18603 -0.674358 0
M  V30 6322 C 605.486 3.32582 0.537658 0
M  V30 6323 O 606.016 3.69633 1.57271 0
M  V30 6324 N 604.222 2.8568 0.532478 0
M  V30 6325 H 603.769 2.55725 -0.310233 0
M  V30 6326 H 603.727 2.81541 1.39936 0
M  V30 6327 N 607.499 1.09233 1.13605 0
M  V30 6328 C 608.429 0.751738 2.21068 0
M  V30 6329 C 609.41 -0.269688 1.67948 0
M  V30 6330 O 610.595 -0.13819 1.93708 0
M  V30 6331 C 607.725 0.16935 3.46887 0
M  V30 6332 C 606.679 1.12007 4.13084 0
M  V30 6333 C 606.005 0.399483 5.33206 0
M  V30 6334 C 607.305 2.46168 4.6065 0
M  V30 6335 H 608.999 1.65024 2.49815 0
M  V30 6336 H 606.545 0.794905 1.20072 0
M  V30 6337 H 608.498 -0.0809824 4.21322 0
M  V30 6338 H 607.222 -0.764335 3.1753 0
M  V30 6339 H 605.881 1.35564 3.40614 0
M  V30 6340 H 605.529 -0.538277 5.00112 0
M  V30 6341 H 605.229 1.03337 5.78442 0
M  V30 6342 H 606.753 0.157403 6.10397 0
M  V30 6343 H 608.167 2.26829 5.26518 0
M  V30 6344 H 606.564 3.05326 5.1662 0
M  V30 6345 H 607.634 3.07076 3.75276 0
M  V30 6346 N 608.977 -1.30795 0.87923 0
M  V30 6347 C 610.217 -1.98155 0.50141 0
M  V30 6348 C 610.581 -1.67925 -0.930863 0
M  V30 6349 O 611.782 -2.28572 -1.41451 0
M  V30 6350 C 610.053 -3.49184 0.761937 0
M  V30 6351 S 611.612 -4.36107 0.485361 0
M  V30 6352 H 608.43 -0.686025 0.186792 0
M  V30 6353 H 611.032 -1.59018 1.13726 0
M  V30 6354 H 609.736 -3.68676 1.80295 0
M  V30 6355 H 609.267 -3.93236 0.113432 0
M  V30 6356 H 611.282 -4.9154 -0.678467 0
M  V30 6357 N 610.455 -0.639598 -1.44038 0
M  V30 6358 C 611.703 -0.147188 -2.01563 0
M  V30 6359 C 612.024 1.2384 -1.50628 0
M  V30 6360 O 611.294 1.82452 -0.713316 0
M  V30 6361 H 609.874 -0.0514231 -0.745228 0
M  V30 6362 H 612.536 -0.828205 -1.76428 0
M  V30 6363 H 611.632 -0.121358 -3.11864 0
M  V30 6364 N 611.933 1.52934 -0.380664 0
M  V30 6365 C 613.158 2.06363 0.207157 0
M  V30 6366 C 613.583 1.25122 1.4045 0
M  V30 6367 O 612.941 0.274062 1.79217 0
M  V30 6368 C 612.989 3.56162 0.563996 0
M  V30 6369 O 612.093 3.77552 1.65917 0
M  V30 6370 H 611.434 0.663468 0.0265859 0
M  V30 6371 H 613.964 1.9719 -0.545635 0
M  V30 6372 H 613.974 3.99453 0.830752 0
M  V30 6373 H 612.649 4.14732 -0.311427 0
M  V30 6374 H 611.226 3.46154 1.3868 0
M  V30 6375 N 613.412 0.11024 1.57214 0
M  V30 6376 C 614.362 -0.854147 2.11396 0
M  V30 6377 C 615.346 -1.23394 1.03261 0
M  V30 6378 O 616.538 -1.20649 1.2951 0
M  V30 6379 C 613.667 -2.10752 2.70995 0
M  V30 6380 C 612.753 -1.75249 3.86198 0
M  V30 6381 N 613.144 -1.10377 4.9361 0
M  V30 6382 C 611.442 -2.04763 3.96217 0
M  V30 6383 C 612.143 -0.938199 5.74084 0
M  V30 6384 N 611.119 -1.46039 5.23616 0
M  V30 6385 H 614.921 -0.348897 2.91822 0
M  V30 6386 H 612.435 -0.0925071 1.62136 0
M  V30 6387 H 614.432 -2.80801 3.0815 0
M  V30 6388 H 613.092 -2.61829 1.9203 0
M  V30 6389 H 614.103 -0.768785 5.12162 0
M  V30 6390 H 610.78 -2.57948 3.28282 0
M  V30 6391 H 612.17 -0.429678 6.70525 0
M  V30 6392 N 614.89 -1.56749 -0.16351 0
M  V30 6393 C 616.13 -1.84234 -0.885271 0
M  V30 6394 C 616.494 -0.692259 -1.79086 0
M  V30 6395 O 617.695 -0.847747 -2.55082 0
M  V30 6396 C 615.966 -3.16857 -1.65337 0
M  V30 6397 S 617.525 -3.65848 -2.42282 0
M  V30 6398 H 614.343 -0.646293 -0.296354 0
M  V30 6399 H 616.945 -1.94951 -0.146365 0
M  V30 6400 H 615.649 -3.98546 -0.979266 0
M  V30 6401 H 615.18 -3.09102 -2.4335 0
M  V30 6402 H 617.195 -3.33796 -3.67143 0
M  V30 6403 N 616.368 0.432326 -1.51554 0
M  V30 6404 C 617.616 1.17901 -1.64146 0
M  V30 6405 C 617.937 1.91604 -0.362367 0
M  V30 6406 O 617.207 1.85764 0.621968 0
M  V30 6407 H 615.787 0.438206 -0.604966 0
M  V30 6408 H 618.449 0.495172 -1.88505 0
M  V30 6409 H 617.545 1.90584 -2.47152 0
M  V30 6410 N 617.846 1.41785 0.688094 0
M  V30 6411 C 619.092 1.41753 1.4503 0
M  V30 6412 C 619.425 0.0290745 1.94178 0
M  V30 6413 O 618.7 -0.944456 1.7003 0
M  V30 6414 C 618.983 2.43069 2.65686 0
M  V30 6415 C 618.836 3.91053 2.22256 0
M  V30 6416 C 620.155 2.41543 3.67893 0
M  V30 6417 H 617.274 0.516202 0.526027 0
M  V30 6418 H 619.916 1.73111 0.783105 0
M  V30 6419 H 618.066 2.1646 3.2261 0
M  V30 6420 H 619.738 4.28594 1.70602 0
M  V30 6421 H 617.981 4.05559 1.53963 0
M  V30 6422 H 618.652 4.57501 3.08863 0
M  V30 6423 H 621.128 2.65175 3.20658 0
M  V30 6424 H 620.004 3.14434 4.49914 0
M  V30 6425 H 620.265 1.43666 4.18106 0
M  V30 6426 N 619.324 -0.923095 1.27737 0
M  V30 6427 C 620.549 -1.71054 1.17283 0
M  V30 6428 C 620.974 -1.86208 -0.266153 0
M  V30 6429 O 620.332 -1.36545 -1.1927 0
M  V30 6430 C 620.38 -3.0854 1.86642 0
M  V30 6431 O 619.484 -3.95528 1.16752 0
M  V30 6432 H 618.825 -0.524136 0.407649 0
M  V30 6433 H 621.355 -1.15487 1.6889 0
M  V30 6434 H 621.365 -3.58828 1.94182 0
M  V30 6435 H 620.04 -2.96828 2.91317 0
M  V30 6436 H 618.617 -3.53967 1.17312 0
M  V30 6437 N 620.802 -1.09834 -1.13024 0
M  V30 6438 C 622.051 -0.831806 -1.83749 0
M  V30 6439 C 622.364 0.644763 -1.84668 0
M  V30 6440 O 623.57 1.02697 -2.51327 0
M  V30 6441 C 622.026 -1.43817 -3.29916 0
M  V30 6442 C 621.634 -2.94759 -3.37374 0
M  V30 6443 C 623.378 -1.25077 -4.05655 0
M  V30 6444 C 621.285 -3.48461 -4.77838 0
M  V30 6445 H 620.215 -0.30751 -0.688443 0
M  V30 6446 H 622.866 -1.32156 -1.27307 0
M  V30 6447 H 621.248 -0.876106 -3.86187 0
M  V30 6448 H 622.422 -3.57228 -2.91076 0
M  V30 6449 H 620.737 -3.12581 -2.75103 0
M  V30 6450 H 623.334 -1.62649 -5.09362 0
M  V30 6451 H 623.677 -0.191782 -4.15858 0
M  V30 6452 H 624.21 -1.78057 -3.55725 0
M  V30 6453 H 620.949 -4.53998 -4.72828 0
M  V30 6454 H 620.469 -2.90757 -5.24615 0
M  V30 6455 H 622.148 -3.45914 -5.46766 0
M  V30 6456 N 622.28 1.30327 -0.886154 0
M  V30 6457 C 623.528 1.9571 -0.504195 0
M  V30 6458 C 623.849 1.70294 0.950003 0
M  V30 6459 O 623.119 1.02718 1.66811 0
M  V30 6460 H 621.699 0.72412 -0.183465 0
M  V30 6461 H 624.361 1.58835 -1.12949 0
M  V30 6462 H 623.457 3.04704 -0.675431 0
M  V30 6463 N 623.758 0.647228 1.43697 0
M  V30 6464 C 624.668 -0.0487997 2.34549 0
M  V30 6465 C 625.684 -0.818586 1.53542 0
M  V30 6466 O 626.86 -0.767195 1.86215 0
M  V30 6467 C 623.925 -1.00734 3.31743 0
M  V30 6468 C 622.986 -0.23515 4.28655 0
M  V30 6469 C 622.219 -1.14803 5.21206 0
M  V30 6470 O 622.442 -2.38717 5.18045 0
M  V30 6471 O 621.376 -0.623667 5.9866 0
M  V30 6472 H 625.202 0.698863 2.9555 0
M  V30 6473 H 622.787 0.407412 1.43738 0
M  V30 6474 H 624.669 -1.55837 3.91526 0
M  V30 6475 H 623.344 -1.73534 2.73254 0
M  V30 6476 H 622.251 0.359319 3.7237 0
M  V30 6477 H 623.584 0.453152 4.9011 0
M  V30 6478 N 625.236 -1.5273 0.388769 0
M  V30 6479 C 626.513 -1.93981 -0.251133 0
M  V30 6480 C 626.893 -1.32418 -1.64404 0
M  V30 6481 O 626.241 -0.492074 -2.23139 0
M  V30 6482 C 626.451 -3.47891 -0.27802 0
M  V30 6483 C 627.799 -4.21559 -0.507229 0
M  V30 6484 O 628.823 -3.54394 -0.358252 0
M  V30 6485 O 627.682 -5.40626 -0.799094 0
M  V30 6486 H 624.776 -0.812157 -0.15598 0
M  V30 6487 H 627.322 -1.63809 0.443237 0
M  V30 6488 H 626.094 -3.8503 0.697669 0
M  V30 6489 H 625.717 -3.84364 -1.01733 0
M  V30 6490 N 626.714 -0.118576 -1.57153 0
M  V30 6491 C 627.962 0.538461 -1.94795 0
M  V30 6492 C 628.283 1.67243 -1.00274 0
M  V30 6493 O 627.553 1.95811 -0.0589692 0
M  V30 6494 H 626.133 0.201904 -0.719197 0
M  V30 6495 H 628.795 -0.187418 -1.93997 0
M  V30 6496 H 627.891 0.933315 -2.97818 0
M  V30 6497 N 628.193 1.56834 0.155195 0
M  V30 6498 C 629.604 1.72421 0.716082 0
M  V30 6499 C 629.955 0.731685 1.82046 0
M  V30 6500 O 629.08 -0.103481 2.16152 0
M  V30 6501 C 629.675 3.12629 1.30571 0
M  V30 6502 C 628.234 3.29846 1.81325 0
M  V30 6503 C 627.381 2.68359 0.698494 0
M  V30 6504 H 630.332 1.58544 -0.0703861 0
M  V30 6505 H 630.353 3.12174 2.1755 0
M  V30 6506 H 629.865 3.84844 0.501701 0
M  V30 6507 H 627.966 2.62614 2.64319 0
M  V30 6508 H 628.079 4.37727 1.9476 0
M  V30 6509 H 626.443 2.28604 1.12305 0
M  V30 6510 H 627.226 3.43171 -0.0939366 0
M  V30 6511 N 629.671 -0.424282 1.51781 0
M  V30 6512 C 630.896 -1.19928 1.6921 0
M  V30 6513 C 631.321 -1.8392 0.394355 0
M  V30 6514 O 630.679 -1.69371 -0.646778 0
M  V30 6515 C 630.727 -2.24937 2.81843 0
M  V30 6516 O 629.831 -3.3073 2.46356 0
M  V30 6517 H 629.172 -0.35078 0.563781 0
M  V30 6518 H 631.702 -0.499401 1.98412 0
M  V30 6519 H 631.712 -2.69512 3.06312 0
M  V30 6520 H 630.387 -1.77742 3.76006 0
M  V30 6521 H 628.964 -2.9154 2.32505 0
M  V30 6522 N 631.149 -1.42148 -0.680565 0
M  V30 6523 C 632.081 -1.41119 -1.80605 0
M  V30 6524 C 633.094 -0.311099 -1.598 0
M  V30 6525 O 634.283 -0.573813 -1.69026 0
M  V30 6526 C 631.383 -1.18204 -3.17618 0
M  V30 6527 C 630.556 -2.40537 -3.65322 0
M  V30 6528 C 629.615 -2.13254 -4.8105 0
M  V30 6529 O 628.641 -2.8641 -4.91892 0
M  V30 6530 N 629.843 -1.13208 -5.69354 0
M  V30 6531 H 632.608 -2.38128 -1.81975 0
M  V30 6532 H 630.169 -1.36953 -0.863446 0
M  V30 6533 H 632.161 -0.97878 -3.92686 0
M  V30 6534 H 630.731 -0.29738 -3.11182 0
M  V30 6535 H 629.951 -2.76468 -2.80996 0
M  V30 6536 H 631.239 -3.22012 -3.93936 0
M  V30 6537 H 630.637 -0.526893 -5.63241 0
M  V30 6538 H 629.194 -0.988699 -6.44258 0
M  V30 6539 N 632.627 0.916307 -1.28225 0
M  V30 6540 C 633.56 2.01954 -1.06254 0
M  V30 6541 C 634.538 1.62587 0.0205983 0
M  V30 6542 O 635.722 1.88073 -0.126824 0
M  V30 6543 C 632.849 3.33086 -0.614141 0
M  V30 6544 C 631.895 3.91435 -1.69354 0
M  V30 6545 S 632.728 4.22603 -3.28887 0
M  V30 6546 C 633.884 5.568 -2.85876 0
M  V30 6547 H 634.117 2.20281 -1.99659 0
M  V30 6548 H 631.65 1.06085 -1.12184 0
M  V30 6549 H 633.608 4.089 -0.36213 0
M  V30 6550 H 632.269 3.12664 0.300036 0
M  V30 6551 H 631.462 4.86098 -1.33136 0
M  V30 6552 H 631.064 3.22248 -1.89821 0
M  V30 6553 H 633.356 6.3658 -2.31888 0
M  V30 6554 H 634.299 5.97927 -3.79326 0
M  V30 6555 H 634.707 5.17865 -2.24669 0
M  V30 6556 N 634.105 1.10431 1.1244 0
M  V30 6557 C 635.068 0.756542 2.16354 0
M  V30 6558 C 636.068 -0.21899 1.59302 0
M  V30 6559 O 637.258 0.00415969 1.742 0
M  V30 6560 C 634.39 0.120612 3.40687 0
M  V30 6561 H 635.583 1.67696 2.48632 0
M  V30 6562 H 633.136 0.904832 1.27446 0
M  V30 6563 H 633.871 -0.810536 3.14008 0
M  V30 6564 H 633.656 0.822693 3.83372 0
M  V30 6565 H 635.146 -0.106945 4.17463 0
M  V30 6566 N 635.583 -1.29855 0.893053 0
M  V30 6567 C 636.513 -2.3035 0.382249 0
M  V30 6568 C 637.494 -1.61328 -0.539203 0
M  V30 6569 O 638.679 -1.88882 -0.451342 0
M  V30 6570 C 635.809 -3.45024 -0.396983 0
M  V30 6571 C 634.763 -4.258 0.433437 0
M  V30 6572 C 634.089 -5.32605 -0.472889 0
M  V30 6573 C 635.389 -4.94549 1.67984 0
M  V30 6574 H 637.083 -2.73325 1.22205 0
M  V30 6575 H 634.629 -1.314 0.589073 0
M  V30 6576 H 636.582 -4.14398 -0.765024 0
M  V30 6577 H 635.306 -3.00875 -1.2705 0
M  V30 6578 H 633.965 -3.58125 0.783723 0
M  V30 6579 H 633.613 -4.84702 -1.34435 0
M  V30 6580 H 633.313 -5.87547 0.0789958 0
M  V30 6581 H 634.837 -6.04832 -0.837269 0
M  V30 6582 H 636.251 -5.56395 1.38192 0
M  V30 6583 H 634.648 -5.59393 2.17254 0
M  V30 6584 H 635.718 -4.20215 2.41965 0
M  V30 6585 N 637.061 -0.65484 -1.43351 0
M  V30 6586 C 637.971 0.0363603 -2.34572 0
M  V30 6587 C 638.987 0.810432 -1.53974 0
M  V30 6588 O 640.163 0.757308 -1.86619 0
M  V30 6589 C 637.228 0.989733 -3.32273 0
M  V30 6590 C 636.289 0.212414 -4.28774 0
M  V30 6591 C 635.522 1.12038 -5.21808 0
M  V30 6592 O 635.745 2.35967 -5.19303 0
M  V30 6593 O 634.679 0.59191 -5.98982 0
M  V30 6594 H 638.505 -0.714527 -2.95175 0
M  V30 6595 H 636.09 -0.415029 -1.4352 0
M  V30 6596 H 637.972 1.53759 -3.92347 0
M  V30 6597 H 636.647 1.72082 -2.74171 0
M  V30 6598 H 635.554 -0.379062 -3.72175 0
M  V30 6599 H 636.887 -0.479138 -4.89862 0
M  V30 6600 N 638.539 1.52521 -0.396863 0
M  V30 6601 C 639.816 1.94112 0.240842 0
M  V30 6602 C 640.196 1.33288 1.637 0
M  V30 6603 O 639.544 0.503901 2.22875 0
M  V30 6604 C 639.754 3.48033 0.259567 0
M  V30 6605 C 641.102 4.21822 0.484866 0
M  V30 6606 O 642.126 3.54579 0.339453 0
M  V30 6607 O 640.985 5.41042 0.770412 0
M  V30 6608 H 638.079 0.812973 0.151671 0
M  V30 6609 H 640.625 1.63572 -0.451918 0
M  V30 6610 H 639.397 3.84655 -0.718078 0
M  V30 6611 H 639.02 3.84899 0.996937 0
M  V30 6612 N 640.017 0.126909 1.57088 0
M  V30 6613 C 640.947 -0.816847 2.18746 0
M  V30 6614 C 641.928 -1.27161 1.12979 0
M  V30 6615 O 643.113 -1.33279 1.41246 0
M  V30 6616 C 640.243 -2.06398 2.79315 0
M  V30 6617 C 639.197 -1.74673 3.90735 0
M  V30 6618 C 638.523 -3.06482 4.38147 0
M  V30 6619 C 639.823 -1.0089 5.12463 0
M  V30 6620 H 641.517 -0.303032 2.97863 0
M  V30 6621 H 639.063 -0.144314 1.43275 0
M  V30 6622 H 641.016 -2.72885 3.2111 0
M  V30 6623 H 639.74 -2.60118 1.975 0
M  V30 6624 H 638.399 -1.10572 3.49527 0
M  V30 6625 H 638.047 -3.58152 3.5318 0
M  V30 6626 H 637.747 -2.86025 5.13287 0
M  V30 6627 H 639.271 -3.74073 4.82599 0
M  V30 6628 H 640.685 -1.57546 5.51228 0
M  V30 6629 H 639.082 -0.905006 5.93237 0
M  V30 6630 H 640.152 0.00297335 4.849 0
M  V30 6631 N 641.495 -1.56914 -0.146875 0
M  V30 6632 C 642.458 -1.97368 -1.16526 0
M  V30 6633 C 643.458 -0.860223 -1.35856 0
M  V30 6634 O 644.648 -1.12684 -1.32846 0
M  V30 6635 C 641.78 -2.28974 -2.52555 0
M  V30 6636 H 642.973 -2.88523 -0.818209 0
M  V30 6637 H 640.526 -1.5135 -0.390221 0
M  V30 6638 H 641.261 -1.40611 -2.92231 0
M  V30 6639 H 641.046 -3.10157 -2.39886 0
M  V30 6640 H 642.536 -2.61109 -3.25902 0
M  V30 6641 N 642.974 0.416227 -1.52004 0
M  V30 6642 C 643.907 1.52736 -1.6955 0
M  V30 6643 C 644.885 1.53264 -0.54305 0
M  V30 6644 O 646.069 1.72077 -0.769527 0
M  V30 6645 C 643.196 2.91283 -1.72835 0
M  V30 6646 C 642.242 3.08695 -2.94295 0
M  V30 6647 S 643.075 2.82758 -4.54762 0
M  V30 6648 C 644.231 4.23548 -4.60823 0
M  V30 6649 H 644.464 1.37623 -2.63528 0
M  V30 6650 H 641.997 0.607335 -1.41954 0
M  V30 6651 H 643.955 3.71134 -1.75413 0
M  V30 6652 H 642.616 3.03742 -0.799966 0
M  V30 6653 H 641.809 4.10042 -2.93056 0
M  V30 6654 H 641.411 2.36699 -2.89568 0
M  V30 6655 H 643.703 5.17078 -4.37763 0
M  V30 6656 H 644.646 4.29813 -5.62731 0
M  V30 6657 H 645.054 4.08188 -3.89927 0
M  V30 6658 N 644.452 1.42507 0.673017 0
M  V30 6659 C 645.699 1.43072 1.43306 0
M  V30 6660 C 646.027 0.0478004 1.94441 0
M  V30 6661 O 645.282 -0.944106 1.71421 0
M  V30 6662 C 645.581 2.40351 2.64511 0
M  V30 6663 C 645.247 3.8669 2.31908 0
M  V30 6664 C 643.909 4.26551 2.22728 0
M  V30 6665 C 646.261 4.78991 2.05467 0
M  V30 6666 C 643.589 5.56691 1.85234 0
M  V30 6667 C 645.941 6.09476 1.69477 0
M  V30 6668 C 644.605 6.48334 1.58808 0
M  V30 6669 H 643.875 0.523536 0.524395 0
M  V30 6670 H 646.522 1.75459 0.76723 0
M  V30 6671 H 644.827 2.01297 3.36135 0
M  V30 6672 H 646.524 2.38051 3.22696 0
M  V30 6673 H 643.114 3.55132 2.39956 0
M  V30 6674 H 647.298 4.48982 2.11492 0
M  V30 6675 H 642.554 5.85657 1.75545 0
M  V30 6676 H 646.728 6.80482 1.48043 0
M  V30 6677 H 644.355 7.49084 1.29525 0
M  V30 6678 N 645.93 -0.909495 1.28709 0
M  V30 6679 C 647.346 -1.18862 1.06508 0
M  V30 6680 C 647.546 -2.00604 -0.189864 0
M  V30 6681 O 646.602 -2.36281 -0.890355 0
M  V30 6682 C 647.915 -1.91908 2.31499 0
M  V30 6683 C 649.463 -2.04773 2.36721 0
M  V30 6684 C 649.938 -2.81228 3.6149 0
M  V30 6685 N 651.429 -2.88787 3.62155 0
M  V30 6686 C 652.164 -3.48455 4.55375 0
M  V30 6687 N 651.66 -4.09369 5.58918 0
M  V30 6688 N 653.453 -3.46035 4.42963 0
M  V30 6689 H 645.604 -0.363867 2.0926 0
M  V30 6690 H 647.867 -0.223649 0.921241 0
M  V30 6691 H 647.573 -1.39275 3.22948 0
M  V30 6692 H 647.447 -2.92436 2.38245 0
M  V30 6693 H 649.834 -2.56585 1.45767 0
M  V30 6694 H 649.915 -1.03408 2.33967 0
M  V30 6695 H 649.559 -2.30094 4.5279 0
M  V30 6696 H 649.489 -3.82917 3.61499 0
M  V30 6697 H 651.98 -2.45514 2.87283 0
M  V30 6698 H 652.293 -4.52891 6.26187 0
M  V30 6699 H 650.638 -4.0786 5.62739 0
M  V30 6700 H 653.829 -2.9766 3.6127 0
M  V30 6701 H 654.002 -3.92244 5.15799 0
M  V30 6702 N 647.408 -1.11026 -1.11852 0
M  V30 6703 C 648.633 -0.879064 -1.87849 0
M  V30 6704 C 649.058 0.565406 -1.79401 0
M  V30 6705 O 648.416 1.39886 -1.15333 0
M  V30 6706 C 648.464 -1.33985 -3.34784 0
M  V30 6707 O 647.568 -0.508803 -4.09249 0
M  V30 6708 H 646.909 -0.316992 -0.583448 0
M  V30 6709 H 649.439 -1.47863 -1.41413 0
M  V30 6710 H 649.449 -1.33248 -3.85628 0
M  V30 6711 H 648.124 -2.39172 -3.40249 0
M  V30 6712 H 646.701 -0.581913 -3.68332 0
M  V30 6713 N 648.886 1.2938 -0.899927 0
M  V30 6714 C 650.132 1.9584 -0.526742 0
M  V30 6715 C 650.465 1.70774 0.924651 0
M  V30 6716 O 649.74 1.02084 1.65557 0
M  V30 6717 C 650.023 3.50638 -0.820062 0
M  V30 6718 C 649.876 3.85161 -2.32317 0
M  V30 6719 C 651.195 4.3903 -0.30671 0
M  V30 6720 H 648.314 0.711322 -0.192848 0
M  V30 6721 H 650.956 1.52992 -1.12665 0
M  V30 6722 H 649.106 3.87265 -0.309491 0
M  V30 6723 H 650.778 3.58477 -2.9033 0
M  V30 6724 H 649.021 3.32696 -2.78381 0
M  V30 6725 H 649.692 4.93204 -2.47898 0
M  V30 6726 H 652.168 4.09396 -0.743908 0
M  V30 6727 H 651.044 5.46226 -0.541144 0
M  V30 6728 H 651.305 4.34937 0.792588 0
M  V30 6729 N 650.364 0.662433 1.43002 0
M  V30 6730 C 651.775 0.258315 1.84904 0
M  V30 6731 C 652.126 -1.19703 1.55453 0
M  V30 6732 O 651.251 -1.91484 1.00811 0
M  V30 6733 C 651.846 0.462047 3.35635 0
M  V30 6734 C 650.405 0.112165 3.76233 0
M  V30 6735 C 649.552 0.760479 2.66668 0
M  V30 6736 H 652.503 0.865467 1.33024 0
M  V30 6737 H 652.524 -0.289646 3.79396 0
M  V30 6738 H 652.036 1.52135 3.57039 0
M  V30 6739 H 650.137 -0.944179 3.60439 0
M  V30 6740 H 650.25 0.544058 4.76001 0
M  V30 6741 H 648.614 0.192887 2.53969 0
M  V30 6742 H 649.397 1.82299 2.90898 0
M  V30 6743 N 651.842 -1.52309 0.404946 0
M  V30 6744 C 653.07 -2.06185 -0.171818 0
M  V30 6745 C 653.485 -1.27536 -1.39212 0
M  V30 6746 O 652.842 -0.326112 -1.79563 0
M  V30 6747 C 652.893 -3.57647 -0.526417 0
M  V30 6748 O 652.614 -4.3332 0.645417 0
M  V30 6749 C 654.115 -4.27925 -1.15736 0
M  V30 6750 H 651.335 -0.670632 -0.0222328 0
M  V30 6751 H 653.879 -1.96259 0.574692 0
M  V30 6752 H 652.034 -3.67595 -1.22282 0
M  V30 6753 H 652.448 -5.23328 0.35042 0
M  V30 6754 H 653.922 -5.35093 -1.35572 0
M  V30 6755 H 654.399 -3.84134 -2.12926 0
M  V30 6756 H 655.005 -4.22335 -0.501281 0
M  V30 6757 N 653.32 -0.135238 -1.57019 0
M  V30 6758 C 654.545 0.529343 -2.00531 0
M  V30 6759 C 654.97 1.58391 -1.01459 0
M  V30 6760 O 654.328 1.81296 0.0113986 0
M  V30 6761 C 654.376 1.11748 -3.42848 0
M  V30 6762 O 653.48 2.23267 -3.46736 0
M  V30 6763 H 652.821 0.130669 -0.651016 0
M  V30 6764 H 655.351 -0.228503 -2.0332 0
M  V30 6765 H 655.361 1.44905 -3.81401 0
M  V30 6766 H 654.036 0.345147 -4.14465 0
M  V30 6767 H 652.613 1.91428 -3.20015 0
M  V30 6768 N 654.798 1.5699 0.138552 0
M  V30 6769 C 656.026 1.87976 0.864437 0
M  V30 6770 C 656.441 0.724372 1.74351 0
M  V30 6771 O 655.798 -0.305575 1.79924 0
M  V30 6772 C 655.849 3.18276 1.71414 0
M  V30 6773 O 655.57 4.29365 0.870487 0
M  V30 6774 C 657.071 3.62834 2.54688 0
M  V30 6775 H 654.291 0.622878 0.249528 0
M  V30 6776 H 656.835 2.04094 0.128805 0
M  V30 6777 H 654.99 3.03886 2.40274 0
M  V30 6778 H 655.404 5.03924 1.45466 0
M  V30 6779 H 656.878 4.5682 3.0987 0
M  V30 6780 H 657.355 2.88533 3.31127 0
M  V30 6781 H 657.961 3.79946 1.91105 0
M  V30 6782 N 656.276 -0.40816 1.52223 0
M  V30 6783 C 657.522 -1.15673 1.66576 0
M  V30 6784 C 657.855 -1.90141 0.394996 0
M  V30 6785 O 657.13 -1.84798 -0.606613 0
M  V30 6786 C 657.413 -2.15042 2.88841 0
M  V30 6787 C 657.266 -1.44465 4.25969 0
M  V30 6788 C 658.585 -3.15699 3.0663 0
M  V30 6789 H 655.704 -0.41916 0.606196 0
M  V30 6790 H 658.346 -0.442348 1.84779 0
M  V30 6791 H 656.496 -2.75964 2.73452 0
M  V30 6792 H 658.168 -0.866544 4.53088 0
M  V30 6793 H 656.411 -0.746612 4.27327 0
M  V30 6794 H 657.082 -2.16976 5.07568 0
M  V30 6795 H 659.558 -2.64854 3.20923 0
M  V30 6796 H 658.434 -3.82491 3.9369 0
M  V30 6797 H 658.695 -3.83481 2.19987 0
M  V30 6798 N 657.755 -1.42862 -0.66545 0
M  V30 6799 C 659.002 -1.4383 -1.42546 0
M  V30 6800 C 659.33 -0.0581114 -1.94413 0
M  V30 6801 O 658.585 0.935002 -1.71919 0
M  V30 6802 C 658.884 -2.4175 -2.63233 0
M  V30 6803 C 658.55 -3.87915 -2.29854 0
M  V30 6804 C 657.212 -4.27726 -2.20463 0
M  V30 6805 C 659.564 -4.80074 -2.02924 0
M  V30 6806 C 656.892 -5.57666 -1.82279 0
M  V30 6807 C 659.244 -6.10366 -1.66242 0
M  V30 6808 C 657.908 -6.49167 -1.55367 0
M  V30 6809 H 657.178 -0.52631 -0.521612 0
M  V30 6810 H 659.825 -1.75863 -0.757914 0
M  V30 6811 H 658.13 -2.03077 -3.35063 0
M  V30 6812 H 659.827 -2.39759 -3.21429 0
M  V30 6813 H 656.417 -3.564 -2.3807 0
M  V30 6814 H 660.601 -4.50097 -2.09108 0
M  V30 6815 H 655.857 -5.8658 -1.72436 0
M  V30 6816 H 660.031 -6.81258 -1.44432 0
M  V30 6817 H 657.658 -7.49761 -1.2555 0
M  V30 6818 N 659.233 0.902656 -1.29189 0
M  V30 6819 C 660.463 1.68394 -1.19695 0
M  V30 6820 C 660.871 1.87602 0.245384 0
M  V30 6821 O 660.214 1.41084 1.17648 0
M  V30 6822 C 660.276 3.09094 -1.83578 0
M  V30 6823 C 659.94 3.1313 -3.32864 0
M  V30 6824 C 660.937 2.93497 -4.29134 0
M  V30 6825 C 658.622 3.3529 -3.74013 0
M  V30 6826 C 660.616 2.95953 -5.64527 0
M  V30 6827 C 658.303 3.37377 -5.09529 0
M  V30 6828 C 659.301 3.1773 -6.04596 0
M  V30 6829 O 658.989 3.196 -7.37639 0
M  V30 6830 H 658.721 0.532815 -0.416034 0
M  V30 6831 H 661.275 1.1374 -1.71033 0
M  V30 6832 H 659.505 3.65338 -1.26747 0
M  V30 6833 H 661.194 3.69297 -1.68447 0
M  V30 6834 H 661.96 2.76192 -3.98677 0
M  V30 6835 H 657.839 3.49623 -3.00474 0
M  V30 6836 H 661.383 2.80536 -6.38706 0
M  V30 6837 H 657.28 3.54213 -5.39633 0
M  V30 6838 H 658.048 3.35887 -7.46406 0
M  V30 6839 N 660.711 1.11618 1.11262 0
M  V30 6840 C 662.122 0.881942 1.64556 0
M  V30 6841 C 662.473 -0.585442 1.87262 0
M  V30 6842 O 661.598 -1.44795 1.60821 0
M  V30 6843 C 662.193 1.59446 2.98935 0
M  V30 6844 C 660.752 1.40661 3.4913 0
M  V30 6845 C 659.899 1.63593 2.23903 0
M  V30 6846 H 662.85 1.27217 0.94877 0
M  V30 6847 H 662.871 1.04054 3.65996 0
M  V30 6848 H 662.383 2.66241 2.82378 0
M  V30 6849 H 660.484 0.360835 3.70849 0
M  V30 6850 H 660.597 2.15693 4.27801 0
M  V30 6851 H 658.961 1.05944 2.3162 0
M  V30 6852 H 659.744 2.71666 2.09886 0
M  V30 6853 N 662.189 -1.289 0.906776 0
M  V30 6854 C 663.414 -1.99939 0.551303 0
M  V30 6855 C 663.839 -1.67366 -0.858496 0
M  V30 6856 O 663.197 -0.902176 -1.57259 0
M  V30 6857 C 663.245 -3.52523 0.758937 0
M  V30 6858 O 662.349 -4.11983 -0.185308 0
M  V30 6859 H 661.69 -0.628376 0.214568 0
M  V30 6860 H 664.22 -1.64225 1.2203 0
M  V30 6861 H 664.23 -4.02522 0.666329 0
M  V30 6862 H 662.905 -3.75566 1.78671 0
M  V30 6863 H 661.482 -3.72873 -0.0445577 0
M  V30 6864 N 663.667 -0.670007 -1.42649 0
M  V30 6865 C 664.944 -0.119451 -1.95235 0
M  V30 6866 C 665.324 1.36461 -1.61064 0
M  V30 6867 O 664.672 2.09843 -0.904329 0
M  V30 6868 C 664.882 -0.383498 -3.46887 0
M  V30 6869 C 666.23 -0.297431 -4.23557 0
M  V30 6870 O 667.254 -0.31698 -3.54787 0
M  V30 6871 O 666.113 -0.235507 -5.45992 0
M  V30 6872 H 663.207 -8.85474e-05 -0.827 0
M  V30 6873 H 665.753 -0.744406 -1.52501 0
M  V30 6874 H 664.525 -1.41174 -3.64946 0
M  V30 6875 H 664.148 0.273702 -3.96657 0
M  V30 6876 N 665.145 1.52092 -0.413018 0
M  V30 6877 C 666.393 2.01456 0.161178 0
M  V30 6878 C 666.714 1.30034 1.45314 0
M  V30 6879 O 665.984 0.427435 1.9118 0
M  V30 6880 H 664.564 0.744376 0.0625526 0
M  V30 6881 H 667.226 1.86974 -0.550151 0
M  V30 6882 H 666.322 3.1008 0.354517 0
M  V30 6883 N 666.623 0.143563 1.56945 0
M  V30 6884 C 667.869 -0.50916 1.96304 0
M  V30 6885 C 668.202 -1.64741 1.0283 0
M  V30 6886 O 667.477 -1.94374 0.0700361 0
M  V30 6887 C 667.76 -1.0186 3.45393 0
M  V30 6888 C 667.613 0.117923 4.49645 0
M  V30 6889 C 668.932 -1.90151 3.96901 0
M  V30 6890 H 666.051 -0.183608 0.713763 0
M  V30 6891 H 668.693 0.224095 1.88674 0
M  V30 6892 H 666.843 -1.64345 3.52027 0
M  V30 6893 H 668.515 0.754145 4.55094 0
M  V30 6894 H 666.758 0.777568 4.26774 0
M  V30 6895 H 667.429 -0.280187 5.51288 0
M  V30 6896 H 669.905 -1.375 3.92725 0
M  V30 6897 H 668.781 -2.22707 5.0169 0
M  V30 6898 H 669.042 -2.83718 3.39052 0
M  V30 6899 N 668.101 -1.57061 -0.130224 0
M  V30 6900 C 669.064 -1.98593 -1.14426 0
M  V30 6901 C 670.064 -0.874584 -1.34936 0
M  V30 6902 O 671.254 -1.14086 -1.31643 0
M  V30 6903 C 668.386 -2.31639 -2.50112 0
M  V30 6904 H 669.579 -2.89374 -0.787561 0
M  V30 6905 H 667.132 -1.51756 -0.374146 0
M  V30 6906 H 667.867 -1.43703 -2.90723 0
M  V30 6907 H 667.652 -3.12684 -2.36583 0
M  V30 6908 H 669.142 -2.64551 -3.23114 0
M  V30 6909 N 669.579 0.400081 -1.52437 0
M  V30 6910 C 670.807 1.16768 -1.70801 0
M  V30 6911 C 671.222 1.84036 -0.421462 0
M  V30 6912 O 670.579 1.72242 0.603228 0
M  V30 6913 C 670.63 2.22403 -2.8499 0
M  V30 6914 O 670.351 1.57879 -4.08663 0
M  V30 6915 C 671.852 3.11974 -3.1494 0
M  V30 6916 H 669.072 0.350533 -0.57216 0
M  V30 6917 H 671.616 0.469534 -1.99037 0
M  V30 6918 H 669.771 2.87871 -2.59247 0
M  V30 6919 H 670.185 2.27982 -4.7236 0
M  V30 6920 H 671.659 3.82148 -3.9833 0
M  V30 6921 H 672.136 3.74858 -2.28863 0
M  V30 6922 H 672.742 2.52165 -3.42481 0
M  V30 6923 N 671.057 1.43213 0.657864 0
M  V30 6924 C 671.967 1.50448 1.80007 0
M  V30 6925 C 672.983 0.39191 1.69529 0
M  V30 6926 O 674.159 0.645349 1.90781 0
M  V30 6927 C 671.224 1.42062 3.16258 0
M  V30 6928 C 670.285 2.63951 3.38568 0
M  V30 6929 C 669.518 2.55956 4.68318 0
M  V30 6930 O 669.741 1.60473 5.47361 0
M  V30 6931 O 668.675 3.46378 4.92245 0
M  V30 6932 H 672.501 2.4689 1.76858 0
M  V30 6933 H 670.086 1.25163 0.81576 0
M  V30 6934 H 671.968 1.3981 3.97531 0
M  V30 6935 H 670.643 0.487524 3.20008 0
M  V30 6936 H 669.55 2.71776 2.57077 0
M  V30 6937 H 670.883 3.56217 3.39662 0
M  V30 6938 N 672.536 -0.895792 1.29666 0
M  V30 6939 C 673.483 -2.00035 1.15129 0
M  V30 6940 C 674.453 -1.66043 0.0435819 0
M  V30 6941 O 675.638 -1.89621 0.211811 0
M  V30 6942 C 672.778 -3.34774 0.83787 0
M  V30 6943 C 671.891 -3.81525 2.0264 0
M  V30 6944 C 671.026 -5.04858 1.65201 0
M  V30 6945 C 670.065 -5.43988 2.80612 0
M  V30 6946 N 669.202 -6.58507 2.43544 0
M  V30 6947 H 674.042 -2.11802 2.09628 0
M  V30 6948 H 671.579 -1.03719 1.04311 0
M  V30 6949 H 673.537 -4.12311 0.636824 0
M  V30 6950 H 672.167 -3.22724 -0.0702314 0
M  V30 6951 H 671.219 -2.9999 2.33903 0
M  V30 6952 H 672.531 -4.06472 2.89106 0
M  V30 6953 H 671.685 -5.8999 1.41408 0
M  V30 6954 H 670.424 -4.81759 0.758893 0
M  V30 6955 H 669.429 -4.57388 3.05083 0
M  V30 6956 H 670.654 -5.69066 3.70595 0
M  V30 6957 H 668.6 -6.37004 1.56724 0
M  V30 6958 H 668.517 -6.83269 3.23542 0
M  V30 6959 H 669.785 -7.46897 2.2308 0
M  V30 6960 N 674.014 -1.12206 -1.10668 0
M  V30 6961 C 674.977 -0.790867 -2.15123 0
M  V30 6962 C 675.977 0.193618 -1.5963 0
M  V30 6963 O 677.167 -0.0318728 -1.74171 0
M  V30 6964 C 674.299 -0.174797 -3.40452 0
M  V30 6965 H 675.492 -1.7163 -2.45933 0
M  V30 6966 H 673.045 -0.924993 -1.2599 0
M  V30 6967 H 673.78 0.760478 -3.15257 0
M  V30 6968 H 673.565 -0.88358 -3.82015 0
M  V30 6969 H 675.055 0.0405162 -4.1758 0
M  V30 6970 N 675.492 1.28418 -0.913599 0
M  V30 6971 C 676.738 1.9527 -0.547484 0
M  V30 6972 C 677.071 1.71745 0.906486 0
M  V30 6973 O 676.346 1.03834 1.64465 0
M  V30 6974 C 676.629 3.49748 -0.857205 0
M  V30 6975 C 676.482 3.82675 -2.3639 0
M  V30 6976 C 677.801 4.3868 -0.353258 0
M  V30 6977 H 674.92 0.709236 -0.200381 0
M  V30 6978 H 677.562 1.51789 -1.14281 0
M  V30 6979 H 675.712 3.86915 -0.350548 0
M  V30 6980 H 677.384 3.55378 -2.94116 0
M  V30 6981 H 675.627 3.29724 -2.81894 0
M  V30 6982 H 676.298 4.90547 -2.53115 0
M  V30 6983 H 678.774 4.08584 -0.787288 0
M  V30 6984 H 677.65 5.45621 -0.599049 0
M  V30 6985 H 677.911 4.35753 0.746413 0
M  V30 6986 N 676.97 0.677563 1.42291 0
M  V30 6987 C 677.88 0.000962654 2.346 0
M  V30 6988 C 678.896 -0.785833 1.55244 0
M  V30 6989 O 680.072 -0.727523 1.87801 0
M  V30 6990 C 677.137 -0.936746 3.33805 0
M  V30 6991 C 676.198 -0.144173 4.29058 0
M  V30 6992 C 675.431 -1.03722 5.23524 0
M  V30 6993 O 675.654 -2.27675 5.22992 0
M  V30 6994 O 674.588 -0.496542 5.99848 0
M  V30 6995 H 678.414 0.761397 2.94001 0
M  V30 6996 H 675.999 0.43781 1.42841 0
M  V30 6997 H 677.881 -1.47497 3.94744 0
M  V30 6998 H 676.556 -1.67698 2.76874 0
M  V30 6999 H 675.463 0.438224 3.71524 0
M  V30 7000 H 676.796 0.55701 4.89038 0
M  V30 7001 N 678.448 -1.51871 0.421078 0
M  V30 7002 C 679.378 -2.30231 -0.389363 0
M  V30 7003 C 680.359 -1.34946 -1.03555 0
M  V30 7004 O 681.544 -1.63859 -1.04229 0
M  V30 7005 C 678.674 -3.13247 -1.49979 0
M  V30 7006 C 677.628 -4.16677 -0.977966 0
M  V30 7007 C 676.954 -4.88112 -2.1829 0
M  V30 7008 C 678.254 -5.22295 -0.0236775 0
M  V30 7009 H 679.948 -2.98229 0.264524 0
M  V30 7010 H 677.494 -1.43424 0.12866 0
M  V30 7011 H 679.447 -3.66838 -2.07383 0
M  V30 7012 H 678.171 -2.4304 -2.18173 0
M  V30 7013 H 676.83 -3.64114 -0.426245 0
M  V30 7014 H 676.478 -4.14423 -2.85066 0
M  V30 7015 H 676.178 -5.58041 -1.84021 0
M  V30 7016 H 677.702 -5.44521 -2.76278 0
M  V30 7017 H 679.116 -5.71055 -0.506899 0
M  V30 7018 H 677.513 -5.99656 0.230782 0
M  V30 7019 H 678.583 -4.76131 0.917999 0
M  V30 7020 N 679.926 -0.151884 -1.56866 0
M  V30 7021 C 680.889 0.771861 -2.15812 0
M  V30 7022 C 681.889 1.17181 -1.10115 0
M  V30 7023 O 683.079 1.09194 -1.35729 0
M  V30 7024 C 680.211 2.04806 -2.7252 0
M  V30 7025 H 681.404 0.259021 -2.98779 0
M  V30 7026 H 678.957 0.097588 -1.55995 0
M  V30 7027 H 679.692 2.60445 -1.93233 0
M  V30 7028 H 679.477 1.77044 -3.49854 0
M  V30 7029 H 680.967 2.70771 -3.1792 0
M  V30 7030 N 681.404 1.57128 0.121893 0
M  V30 7031 C 682.367 1.99197 1.13372 0
M  V30 7032 C 683.367 0.881728 1.3447 0
M  V30 7033 O 684.557 1.14783 1.31036 0
M  V30 7034 C 681.689 2.32963 2.4888 0
M  V30 7035 H 682.882 2.89788 0.772204 0
M  V30 7036 H 680.435 1.51952 0.366093 0
M  V30 7037 H 681.17 1.45243 2.89957 0
M  V30 7038 H 680.955 3.13934 2.34921 0
M  V30 7039 H 682.445 2.66261 3.21706 0
M  V30 7040 N 682.882 -0.391992 1.52647 0
M  V30 7041 C 683.83 -1.4991 1.77848 0
M  V30 7042 C 684.824 -1.56587 0.646282 0
M  V30 7043 O 686.03 -1.59789 0.828698 0
M  V30 7044 H 682.405 -0.498883 0.56269 0
M  V30 7045 H 684.376 -1.25847 2.70564 0
M  V30 7046 C 683.125 -2.87081 1.96163 0
M  V30 7047 H 682.448 -2.82692 2.82711 0
M  V30 7048 H 683.888 -3.63792 2.17787 0
M  V30 7049 C 682.347 -3.28822 0.733348 0
M  V30 7050 O 682.877 -4.01598 -0.0906481 0
M  V30 7051 N 681.083 -2.85068 0.564317 0
M  V30 7052 H 680.63 -2.26012 1.23598 0
M  V30 7053 H 680.588 -3.13355 -0.256166 0
M  V30 7054 N 684.36 -1.4356 -0.65026 0
M  V30 7055 C 685.588 -1.48779 -1.43779 0
M  V30 7056 C 686.003 -0.106593 -1.88499 0
M  V30 7057 O 685.36 0.883766 -1.59674 0
M  V30 7058 C 685.411 -2.43618 -2.67081 0
M  V30 7059 O 685.132 -3.76367 -2.24231 0
M  V30 7060 C 686.633 -2.5811 -3.60409 0
M  V30 7061 H 683.853 -0.50521 -0.441593 0
M  V30 7062 H 686.397 -1.88332 -0.796941 0
M  V30 7063 H 684.552 -2.07253 -3.273 0
M  V30 7064 H 684.966 -4.27394 -3.0403 0
M  V30 7065 H 686.44 -3.28539 -4.43583 0
M  V30 7066 H 686.917 -1.627 -4.07953 0
M  V30 7067 H 687.523 -2.95298 -3.0607 0
M  V30 7068 N 685.838 0.888903 -1.30139 0
M  V30 7069 C 686.785 1.99422 -1.16188 0
M  V30 7070 C 687.755 1.66017 -0.0523869 0
M  V30 7071 O 688.94 1.89506 -0.221864 0
M  V30 7072 C 686.08 3.34325 -0.855612 0
M  V30 7073 C 685.193 3.80445 -2.0466 0
M  V30 7074 C 684.328 5.03975 -1.67876 0
M  V30 7075 C 683.367 5.42492 -2.83493 0
M  V30 7076 N 682.504 6.57206 -2.47032 0
M  V30 7077 H 687.344 2.10687 -2.10749 0
M  V30 7078 H 684.881 1.03165 -1.04859 0
M  V30 7079 H 686.839 4.11968 -0.658681 0
M  V30 7080 H 685.469 3.22756 0.0531155 0
M  V30 7081 H 684.521 2.98745 -2.3549 0
M  V30 7082 H 685.833 4.04933 -2.91257 0
M  V30 7083 H 684.987 5.89232 -1.44535 0
M  V30 7084 H 683.726 4.8135 -0.784431 0
M  V30 7085 H 682.731 4.55764 -3.07505 0
M  V30 7086 H 683.956 5.67093 -3.73607 0
M  V30 7087 H 681.902 6.36164 -1.601 0
M  V30 7088 H 681.819 6.81543 -3.27161 0
M  V30 7089 H 683.087 7.45704 -2.27038 0
M  V30 7090 N 687.317 1.12792 1.10072 0
M  V30 7091 C 688.565 0.883796 1.81751 0
M  V30 7092 C 688.886 -0.591891 1.858 0
M  V30 7093 O 688.156 -1.43017 1.33876 0
M  V30 7094 H 686.736 0.323978 0.673088 0
M  V30 7095 H 689.398 1.42314 1.33164 0
M  V30 7096 H 688.494 1.26863 2.85153 0
M  V30 7097 N 688.795 -1.27931 0.920396 0
M  V30 7098 C 690.044 -1.93975 0.552867 0
M  V30 7099 C 690.357 -1.73193 -0.909035 0
M  V30 7100 O 691.563 -2.33515 -1.38502 0
M  V30 7101 C 690.019 -3.47463 0.937947 0
M  V30 7102 C 689.627 -3.77013 2.42003 0
M  V30 7103 C 691.371 -4.19628 0.64132 0
M  V30 7104 C 689.278 -5.23841 2.74489 0
M  V30 7105 H 688.208 -0.726146 0.203046 0
M  V30 7106 H 690.859 -1.45339 1.12022 0
M  V30 7107 H 689.241 -3.94867 0.299317 0
M  V30 7108 H 690.415 -3.40393 3.10595 0
M  V30 7109 H 688.73 -3.18035 2.6878 0
M  V30 7110 H 691.327 -5.27729 0.860622 0
M  V30 7111 H 691.67 -4.14164 -0.421168 0
M  V30 7112 H 692.203 -3.78022 1.23872 0
M  V30 7113 H 688.942 -5.34388 3.79618 0
M  V30 7114 H 688.462 -5.61634 2.1054 0
M  V30 7115 H 690.141 -5.91647 2.61845 0
M  V30 7116 N 690.273 -0.685099 -1.4193 0
M  V30 7117 C 691.513 -0.215676 -2.03259 0
M  V30 7118 C 691.877 1.15934 -1.53047 0
M  V30 7119 O 693.078 1.72401 -2.06231 0
M  V30 7120 C 691.349 -0.259649 -3.56456 0
M  V30 7121 S 692.908 0.137262 -4.38585 0
M  V30 7122 H 689.726 -0.0877362 -0.705566 0
M  V30 7123 H 692.328 -0.900547 -1.73523 0
M  V30 7124 H 691.032 -1.26256 -3.90497 0
M  V30 7125 H 690.563 0.444716 -3.90878 0
M  V30 7126 H 692.578 1.36787 -4.76973 0
M  V30 7127 N 691.751 1.51645 -0.429126 0
M  V30 7128 C 692.998 2.02015 0.140079 0
M  V30 7129 C 693.326 1.31374 1.43427 0
M  V30 7130 O 692.581 0.414779 1.91254 0
M  V30 7131 C 692.88 3.54989 0.414472 0
M  V30 7132 C 692.546 4.43874 -0.792911 0
M  V30 7133 C 691.208 4.67887 -1.12404 0
M  V30 7134 C 693.56 4.96074 -1.59875 0
M  V30 7135 C 690.888 5.41348 -2.26184 0
M  V30 7136 C 693.24 5.70782 -2.72747 0
M  V30 7137 C 691.904 5.93062 -3.06324 0
M  V30 7138 H 691.174 0.739225 0.0512585 0
M  V30 7139 H 693.821 1.82675 -0.574641 0
M  V30 7140 H 692.126 3.72615 1.21099 0
M  V30 7141 H 693.823 3.91489 0.868173 0
M  V30 7142 H 690.413 4.25374 -0.524871 0
M  V30 7143 H 694.597 4.77412 -1.35614 0
M  V30 7144 H 689.853 5.56815 -2.52522 0
M  V30 7145 H 694.027 6.10221 -3.35564 0
M  V30 7146 H 691.654 6.49764 -3.94602 0
M  V30 7147 N 693.229 0.160201 1.56784 0
M  V30 7148 C 694.478 -0.487619 1.95717 0
M  V30 7149 C 694.791 -1.65136 1.0483 0
M  V30 7150 O 695.997 -2.36468 1.33398 0
M  V30 7151 C 694.453 -0.91888 3.47972 0
M  V30 7152 C 694.061 0.218655 4.47466 0
M  V30 7153 C 695.805 -1.53575 3.95746 0
M  V30 7154 C 693.712 -0.231614 5.90946 0
M  V30 7155 H 692.642 -0.185939 0.730714 0
M  V30 7156 H 695.293 0.246657 1.81835 0
M  V30 7157 H 693.675 -1.70881 3.57234 0
M  V30 7158 H 694.849 0.995825 4.49911 0
M  V30 7159 H 693.164 0.744767 4.09685 0
M  V30 7160 H 695.761 -1.88448 5.00391 0
M  V30 7161 H 696.104 -2.42959 3.38048 0
M  V30 7162 H 696.637 -0.810467 3.89456 0
M  V30 7163 H 693.376 0.62718 6.52493 0
M  V30 7164 H 692.896 -0.974379 5.91833 0
M  V30 7165 H 694.575 -0.67922 6.43425 0
M  V30 7166 N 694.707 -1.5719 -0.113559 0
M  V30 7167 C 696.123 -1.52607 -0.467253 0
M  V30 7168 C 696.323 -0.874058 -1.81556 0
M  V30 7169 O 695.379 -0.458703 -2.48299 0
M  V30 7170 C 696.692 -2.97363 -0.446736 0
M  V30 7171 C 698.24 -3.08482 -0.529903 0
M  V30 7172 C 698.715 -4.54809 -0.539721 0
M  V30 7173 N 700.206 -4.59284 -0.601005 0
M  V30 7174 C 700.941 -5.69927 -0.630138 0
M  V30 7175 N 700.437 -6.90051 -0.616589 0
M  V30 7176 N 702.23 -5.5805 -0.673558 0
M  V30 7177 H 694.381 -1.97958 0.769819 0
M  V30 7178 H 696.644 -0.90428 0.284572 0
M  V30 7179 H 696.35 -3.48458 0.47643 0
M  V30 7180 H 696.224 -3.55086 -1.27254 0
M  V30 7181 H 698.611 -2.57386 -1.44349 0
M  V30 7182 H 698.692 -2.53744 0.323695 0
M  V30 7183 H 698.336 -5.06552 0.369843 0
M  V30 7184 H 698.266 -5.07364 -1.41028 0
M  V30 7185 H 700.757 -3.72822 -0.617419 0
M  V30 7186 H 701.07 -7.70132 -0.641592 0
M  V30 7187 H 699.415 -6.92543 -0.583927 0
M  V30 7188 H 702.606 -4.63112 -0.681544 0
M  V30 7189 H 702.779 -6.44286 -0.692794 0
M  V30 7190 N 696.185 0.383891 -1.52853 0
M  V30 7191 C 697.413 1.1495 -1.7203 0
M  V30 7192 C 697.828 1.83578 -0.440957 0
M  V30 7193 O 697.185 1.72872 0.584925 0
M  V30 7194 C 697.236 2.19368 -2.87333 0
M  V30 7195 O 696.957 1.53536 -4.10315 0
M  V30 7196 C 698.458 3.08616 -3.18231 0
M  V30 7197 H 695.678 0.344445 -0.575846 0
M  V30 7198 H 698.222 0.448397 -1.99524 0
M  V30 7199 H 696.377 2.85105 -2.62286 0
M  V30 7200 H 696.791 2.2296 -4.74752 0
M  V30 7201 H 698.265 3.77902 -4.02361 0
M  V30 7202 H 698.742 3.72409 -2.32826 0
M  V30 7203 H 699.348 2.48518 -3.45136 0
M  V30 7204 N 697.663 1.43903 0.642637 0
M  V30 7205 C 698.888 1.49758 1.43483 0
M  V30 7206 C 699.313 0.119911 1.87717 0
M  V30 7207 O 698.671 -0.888558 1.58033 0
M  V30 7208 C 698.719 2.45744 2.63898 0
M  V30 7209 O 697.823 1.95101 3.63331 0
M  V30 7210 H 697.164 0.506138 0.429791 0
M  V30 7211 H 699.694 1.88923 0.785438 0
M  V30 7212 H 699.704 2.63399 3.11584 0
M  V30 7213 H 698.379 3.45818 2.31046 0
M  V30 7214 H 696.956 1.87158 3.22531 0
M  V30 7215 N 699.141 -0.881989 1.30609 0
M  V30 7216 C 700.557 -1.16576 1.09005 0
M  V30 7217 C 700.757 -2.00961 -0.14727 0
M  V30 7218 O 699.813 -2.38117 -0.840036 0
M  V30 7219 C 701.126 -1.86954 2.35518 0
M  V30 7220 C 702.674 -1.99706 2.41011 0
M  V30 7221 C 703.149 -2.73497 3.67374 0
M  V30 7222 N 704.64 -2.8104 3.68199 0
M  V30 7223 C 705.375 -3.38718 4.62664 0
M  V30 7224 N 704.871 -3.97421 5.67475 0
M  V30 7225 N 706.664 -3.36561 4.50203 0
M  V30 7226 H 698.815 -0.319398 2.09985 0
M  V30 7227 H 701.078 -0.204058 0.925778 0
M  V30 7228 H 700.784 -1.32393 3.2583 0
M  V30 7229 H 700.658 -2.87317 2.44395 0
M  V30 7230 H 703.045 -2.53436 1.51176 0
M  V30 7231 H 703.126 -0.984218 2.36108 0
M  V30 7232 H 702.77 -2.20438 4.57569 0
M  V30 7233 H 702.7 -3.75163 3.6954 0
M  V30 7234 H 705.191 -2.39365 2.92426 0
M  V30 7235 H 705.504 -4.39507 6.35652 0
M  V30 7236 H 703.849 -3.95832 5.71264 0
M  V30 7237 H 707.04 -2.8993 3.67503 0
M  V30 7238 H 707.213 -3.81215 5.24003 0
M  V30 7239 N 700.619 -1.13374 -1.09472 0
M  V30 7240 C 702.03 -0.90801 -1.63132 0
M  V30 7241 C 702.381 0.555576 -1.8817 0
M  V30 7242 O 701.506 1.42218 -1.63104 0
M  V30 7243 C 702.101 -1.64182 -2.96361 0
M  V30 7244 C 700.66 -1.46197 -3.46848 0
M  V30 7245 C 699.807 -1.67134 -2.21273 0
M  V30 7246 H 702.758 -1.2871 -0.928411 0
M  V30 7247 H 702.779 -1.09863 -3.64294 0
M  V30 7248 H 702.291 -2.707 -2.78106 0
M  V30 7249 H 700.392 -0.419788 -3.70228 0
M  V30 7250 H 700.505 -2.22472 -4.24315 0
M  V30 7251 H 698.869 -1.09616 -2.29905 0
M  V30 7252 H 699.652 -2.74971 -2.05538 0
M  V30 7253 N 702.098 1.27442 -0.927168 0
M  V30 7254 C 703.008 2.30599 -0.431448 0
M  V30 7255 C 704.024 1.67028 0.48761 0
M  V30 7256 O 705.2 1.97962 0.370546 0
M  V30 7257 C 702.265 3.45327 0.308292 0
M  V30 7258 C 701.326 4.24418 -0.645615 0
M  V30 7259 C 700.559 5.33667 0.0589164 0
M  V30 7260 O 700.782 5.5589 1.27838 0
M  V30 7261 O 699.716 5.98774 -0.612638 0
M  V30 7262 H 703.542 2.75036 -1.28797 0
M  V30 7263 H 701.127 1.32382 -0.692495 0
M  V30 7264 H 703.009 4.15107 0.725555 0
M  V30 7265 H 701.684 3.02945 1.14043 0
M  V30 7266 H 700.591 3.57174 -1.11255 0
M  V30 7267 H 701.924 4.70512 -1.44496 0
M  V30 7268 N 703.576 0.692616 1.41565 0
M  V30 7269 C 704.524 0.0139952 2.32596 0
M  V30 7270 C 705.518 -0.771691 1.50802 0
M  V30 7271 O 706.724 -0.677646 1.66757 0
M  V30 7272 H 703.099 -0.0142745 0.751865 0
M  V30 7273 H 705.07 0.798851 2.87508 0
M  V30 7274 C 703.819 -0.910602 3.35564 0
M  V30 7275 H 703.142 -0.315446 3.98554 0
M  V30 7276 H 704.582 -1.3538 4.01806 0
M  V30 7277 C 703.041 -2.02539 2.6922 0
M  V30 7278 O 703.571 -3.11386 2.53775 0
M  V30 7279 N 701.777 -1.80227 2.27962 0
M  V30 7280 H 701.324 -0.917054 2.40724 0
M  V30 7281 H 701.282 -2.55001 1.83907 0
M  V30 7282 N 705.054 -1.51416 0.437162 0
M  V30 7283 C 706.017 -2.26312 -0.362729 0
M  V30 7284 C 707.017 -1.29748 -0.949847 0
M  V30 7285 O 708.207 -1.53462 -0.824325 0
M  V30 7286 C 705.339 -3.05475 -1.5132 0
M  V30 7287 H 706.532 -2.98459 0.29365 0
M  V30 7288 H 704.085 -1.55137 0.190327 0
M  V30 7289 H 704.82 -2.37744 -2.20563 0
M  V30 7290 H 704.605 -3.76401 -1.09838 0
M  V30 7291 H 706.095 -3.62209 -2.07833 0
M  V30 7292 N 706.532 -0.168513 -1.56696 0
M  V30 7293 C 707.781 0.477233 -1.95973 0
M  V30 7294 C 708.094 1.64578 -1.05704 0
M  V30 7295 O 709.3 2.35758 -1.3465 0
M  V30 7296 C 707.756 0.900413 -3.48455 0
M  V30 7297 C 707.364 -0.242382 -4.47344 0
M  V30 7298 C 709.108 1.51474 -3.96555 0
M  V30 7299 C 707.015 0.200272 -5.91061 0
M  V30 7300 H 705.945 0.182061 -0.73169 0
M  V30 7301 H 708.596 -0.256297 -1.81701 0
M  V30 7302 H 706.978 1.68984 -3.58135 0
M  V30 7303 H 708.152 -1.01967 -4.49377 0
M  V30 7304 H 706.467 -0.766484 -4.09285 0
M  V30 7305 H 709.064 1.85792 -5.01384 0
M  V30 7306 H 709.407 2.41163 -3.39332 0
M  V30 7307 H 709.94 0.789802 -3.89881 0
M  V30 7308 H 706.679 -0.661775 -6.52151 0
M  V30 7309 H 706.199 0.942979 -5.92341 0
M  V30 7310 H 707.878 0.645088 -6.43776 0
M  V30 7311 N 708.01 1.57248 0.105221 0
M  V30 7312 C 709.259 1.84756 0.809198 0
M  V30 7313 C 709.572 0.756262 1.80389 0
M  V30 7314 O 710.778 0.918158 2.55504 0
M  V30 7315 C 709.234 3.27613 1.48989 0
M  V30 7316 C 708.842 4.44788 0.535484 0
M  V30 7317 C 710.586 3.64356 2.17819 0
M  V30 7318 C 708.493 5.78676 1.22019 0
M  V30 7319 H 707.423 0.689139 0.305946 0
M  V30 7320 H 710.074 1.83395 0.0620371 0
M  V30 7321 H 708.456 3.23485 2.28415 0
M  V30 7322 H 709.63 4.60243 -0.226557 0
M  V30 7323 H 707.945 4.16374 -0.0465769 0
M  V30 7324 H 710.542 4.61663 2.69761 0
M  V30 7325 H 710.885 2.92474 2.96251 0
M  V30 7326 H 711.418 3.70328 1.45264 0
M  V30 7327 H 708.157 6.53763 0.476875 0
M  V30 7328 H 707.677 5.67083 1.9539 0
M  V30 7329 H 709.356 6.22897 1.74952 0
M  V30 7330 N 709.488 -0.375779 1.53054 0
M  V30 7331 C 710.718 -1.1387 1.72386 0
M  V30 7332 C 711.126 -1.8382 0.447966 0
M  V30 7333 O 710.469 -1.74027 -0.588244 0
M  V30 7334 C 710.531 -2.22047 2.82728 0
M  V30 7335 C 710.195 -1.71951 4.23417 0
M  V30 7336 C 711.192 -1.18909 5.06119 0
M  V30 7337 C 708.877 -1.77773 4.69789 0
M  V30 7338 C 710.871 -0.723529 6.3328 0
M  V30 7339 C 708.558 -1.30829 5.96931 0
M  V30 7340 C 709.556 -0.782077 6.78508 0
M  V30 7341 O 709.244 -0.319529 8.03265 0
M  V30 7342 H 708.976 -0.346835 0.580242 0
M  V30 7343 H 711.53 -0.443748 2.00549 0
M  V30 7344 H 709.76 -2.95006 2.50017 0
M  V30 7345 H 711.449 -2.83654 2.90336 0
M  V30 7346 H 712.215 -1.13758 4.7147 0
M  V30 7347 H 708.094 -2.17673 4.06373 0
M  V30 7348 H 711.638 -0.312126 6.96901 0
M  V30 7349 H 707.535 -1.3567 6.31081 0
M  V30 7350 H 708.303 -0.439796 8.17318 0
M  V30 7351 N 710.966 -1.44241 -0.634997 0
M  V30 7352 C 711.914 -1.51103 -1.76835 0
M  V30 7353 C 712.908 -0.383051 -1.65012 0
M  V30 7354 O 714.114 -0.557832 -1.71138 0
M  V30 7355 H 710.489 -0.474076 -0.583743 0
M  V30 7356 H 712.46 -2.46499 -1.68169 0
M  V30 7357 C 711.209 -1.4687 -3.15158 0
M  V30 7358 H 710.532 -2.32979 -3.24901 0
M  V30 7359 H 711.972 -1.55731 -3.94365 0
M  V30 7360 C 710.431 -0.188884 -3.3637 0
M  V30 7361 O 710.961 0.742487 -3.94778 0
M  V30 7362 N 709.167 -0.0932516 -2.9045 0
M  V30 7363 H 708.714 -0.852004 -2.43102 0
M  V30 7364 H 708.672 0.762308 -3.05018 0
M  V30 7365 N 712.444 0.87505 -1.31075 0
M  V30 7366 C 713.392 2.00317 -1.18219 0
M  V30 7367 C 714.386 1.69152 -0.0916872 0
M  V30 7368 O 715.592 1.7821 -0.253229 0
M  V30 7369 H 711.967 0.656981 -0.365895 0
M  V30 7370 H 713.938 2.08293 -2.13674 0
M  V30 7371 C 712.687 3.35821 -0.901095 0
M  V30 7372 H 712.01 3.6032 -1.73233 0
M  V30 7373 H 713.45 4.15366 -0.851295 0
M  V30 7374 C 711.909 3.34563 0.396114 0
M  V30 7375 O 712.439 3.75971 1.41452 0
M  V30 7376 N 710.645 2.87681 0.410832 0
M  V30 7377 H 710.192 2.54179 -0.418415 0
M  V30 7378 H 710.15 2.87223 1.27869 0
M  V30 7379 N 713.922 1.13953 1.08869 0
M  V30 7380 C 714.87 0.817664 2.17754 0
M  V30 7381 C 715.864 -0.202444 1.68186 0
M  V30 7382 O 717.07 -0.0590159 1.79903 0
M  V30 7383 H 713.445 0.246671 0.710392 0
M  V30 7384 H 715.416 1.74401 2.4213 0
M  V30 7385 C 714.165 0.3063 3.46348 0
M  V30 7386 H 713.488 1.08259 3.84864 0
M  V30 7387 H 714.928 0.119584 4.23831 0
M  V30 7388 C 713.387 -0.969158 3.22659 0
M  V30 7389 O 713.917 -2.04386 3.45817 0
M  V30 7390 N 712.123 -0.902516 2.7623 0
M  V30 7391 H 711.67 -0.027801 2.57585 0
M  V30 7392 H 711.628 -1.75649 2.60758 0
M  V30 7393 N 715.4 -1.26948 0.933913 0
M  V30 7394 C 716.31 -2.30366 0.443671 0
M  V30 7395 C 717.326 -1.67284 -0.478745 0
M  V30 7396 O 718.502 -1.98156 -0.360043 0
M  V30 7397 C 715.567 -3.45485 -0.289974 0
M  V30 7398 C 714.628 -4.24069 0.668114 0
M  V30 7399 C 713.861 -5.33691 -0.0306138 0
M  V30 7400 O 714.084 -5.5656 -1.24888 0
M  V30 7401 O 713.018 -5.98441 0.644384 0
M  V30 7402 H 716.844 -2.74349 1.30254 0
M  V30 7403 H 714.429 -1.32012 0.699506 0
M  V30 7404 H 716.311 -4.15486 -0.70353 0
M  V30 7405 H 714.986 -3.03546 -1.12435 0
M  V30 7406 H 713.893 -3.56579 1.13147 0
M  V30 7407 H 715.226 -4.69739 1.46989 0
M  V30 7408 N 716.879 -0.700114 -1.41195 0
M  V30 7409 C 718.156 -0.160836 -1.94938 0
M  V30 7410 C 718.536 1.33014 -1.63922 0
M  V30 7411 O 717.884 2.07878 -0.948636 0
M  V30 7412 C 718.094 -0.456991 -3.45995 0
M  V30 7413 C 719.442 -0.387207 -4.22831 0
M  V30 7414 O 720.466 -0.392164 -3.54035 0
M  V30 7415 O 719.325 -0.351267 -5.4537 0
M  V30 7416 H 716.419 -0.0176304 -0.826812 0
M  V30 7417 H 718.965 -0.776586 -1.50888 0
M  V30 7418 H 717.737 -1.48884 -3.61869 0
M  V30 7419 H 717.36 0.189503 -3.97148 0
M  V30 7420 N 718.357 1.51182 -0.445186 0
M  V30 7421 C 719.604 2.02152 0.118645 0
M  V30 7422 C 719.932 1.32888 1.42025 0
M  V30 7423 O 719.187 0.435041 1.90803 0
M  V30 7424 C 719.486 3.55408 0.376797 0
M  V30 7425 C 719.152 4.43008 -0.839945 0
M  V30 7426 C 717.814 4.66669 -1.17361 0
M  V30 7427 C 720.166 4.9435 -1.65127 0
M  V30 7428 C 717.494 5.38919 -2.31913 0
M  V30 7429 C 719.846 5.67857 -2.78786 0
M  V30 7430 C 718.51 5.89779 -3.12597 0
M  V30 7431 H 717.78 0.739727 0.0434152 0
M  V30 7432 H 720.427 1.82055 -0.593984 0
M  V30 7433 H 718.732 3.73879 1.1714 0
M  V30 7434 H 720.429 3.92388 0.826602 0
M  V30 7435 H 717.019 4.24793 -0.569958 0
M  V30 7436 H 721.203 4.75947 -1.4067 0
M  V30 7437 H 716.459 5.54105 -2.58413 0
M  V30 7438 H 720.633 6.06628 -3.42017 0
M  V30 7439 H 718.26 6.45542 -4.01471 0
M  V30 7440 N 719.835 0.176821 1.56605 0
M  V30 7441 C 720.767 -0.782836 2.15417 0
M  V30 7442 C 721.78 -1.18982 1.11117 0
M  V30 7443 O 722.969 -1.12872 1.38283 0
M  V30 7444 C 720.069 -2.06596 2.68647 0
M  V30 7445 C 719.242 -1.82167 3.9766 0
M  V30 7446 C 718.301 -2.94751 4.35899 0
M  V30 7447 O 717.327 -2.65148 5.03672 0
M  V30 7448 N 718.529 -4.2267 3.97907 0
M  V30 7449 H 721.294 -0.280012 2.98389 0
M  V30 7450 H 718.855 -0.00577529 1.61899 0
M  V30 7451 H 720.847 -2.81018 2.91223 0
M  V30 7452 H 719.417 -2.48054 1.90232 0
M  V30 7453 H 718.637 -0.916208 3.83405 0
M  V30 7454 H 719.925 -1.6322 4.81909 0
M  V30 7455 H 719.323 -4.4958 3.43357 0
M  V30 7456 H 717.88 -4.93778 4.25472 0
M  V30 7457 N 721.313 -1.57302 -0.09688 0
M  V30 7458 C 722.559 -1.86273 -0.801885 0
M  V30 7459 C 722.892 -0.765694 -1.78468 0
M  V30 7460 O 722.167 0.226495 -1.93177 0
M  V30 7461 C 722.45 -3.25876 -1.53221 0
M  V30 7462 C 722.303 -4.46205 -0.567529 0
M  V30 7463 C 723.622 -3.63352 -2.48321 0
M  V30 7464 H 720.741 -0.67752 -0.29006 0
M  V30 7465 H 723.383 -1.89887 -0.0655577 0
M  V30 7466 H 721.533 -3.22926 -2.15988 0
M  V30 7467 H 723.205 -4.6127 0.0529982 0
M  V30 7468 H 721.448 -4.33636 0.119233 0
M  V30 7469 H 722.119 -5.40608 -1.11564 0
M  V30 7470 H 724.595 -3.67234 -1.95648 0
M  V30 7471 H 723.471 -4.61968 -2.9644 0
M  V30 7472 H 723.732 -2.91941 -3.31998 0
M  V30 7473 N 722.791 0.367657 -1.53252 0
M  V30 7474 C 724.039 1.10832 -1.68999 0
M  V30 7475 C 724.36 1.89894 -0.443306 0
M  V30 7476 O 723.63 1.88235 0.54262 0
M  V30 7477 H 722.21 0.412153 -0.623008 0
M  V30 7478 H 724.872 0.414775 -1.90435 0
M  V30 7479 H 723.968 1.7993 -2.55013 0
M  V30 7480 N 724.269 1.44576 0.627338 0
M  V30 7481 C 725.201 1.47724 1.75243 0
M  V30 7482 C 726.214 0.370193 1.58535 0
M  V30 7483 O 727.403 0.636151 1.66779 0
M  V30 7484 C 724.503 1.2991 3.13012 0
M  V30 7485 C 723.676 2.5393 3.56143 0
M  V30 7486 C 722.735 2.30961 4.72804 0
M  V30 7487 O 721.761 3.04469 4.80923 0
M  V30 7488 N 722.963 1.34261 5.6476 0
M  V30 7489 H 725.728 2.44718 1.73012 0
M  V30 7490 H 723.289 1.40064 0.812022 0
M  V30 7491 H 725.281 1.12385 3.88782 0
M  V30 7492 H 723.851 0.412668 3.09864 0
M  V30 7493 H 723.071 2.86707 2.70542 0
M  V30 7494 H 724.359 3.36411 3.81713 0
M  V30 7495 H 723.757 0.735573 5.60897 0
M  V30 7496 H 722.314 1.22713 6.40144 0
M  V30 7497 N 725.747 -0.868086 1.31537 0
M  V30 7498 C 726.71 -1.95703 1.19302 0
M  V30 7499 C 727.71 -1.60355 0.119612 0
M  V30 7500 O 728.9 -1.70247 0.36902 0
M  V30 7501 C 726.032 -3.30599 0.831684 0
M  V30 7502 H 727.225 -2.07982 2.16064 0
M  V30 7503 H 724.778 -1.05661 1.15176 0
M  V30 7504 H 725.513 -3.2402 -0.134694 0
M  V30 7505 H 725.298 -3.57629 1.60761 0
M  V30 7506 H 726.788 -4.10439 0.770026 0
M  V30 7507 N 727.225 -1.14528 -1.08264 0
M  V30 7508 C 728.172 -0.833556 -2.15222 0
M  V30 7509 C 729.142 0.209539 -1.64773 0
M  V30 7510 O 730.327 0.0791388 -1.90636 0
M  V30 7511 C 727.467 -0.318799 -3.43624 0
M  V30 7512 C 726.58 -1.42237 -4.07913 0
M  V30 7513 C 725.715 -0.864704 -5.24115 0
M  V30 7514 C 724.754 -1.94585 -5.80347 0
M  V30 7515 N 723.891 -1.40525 -6.87893 0
M  V30 7516 H 728.731 -1.74965 -2.41228 0
M  V30 7517 H 726.268 -0.873169 -1.18381 0
M  V30 7518 H 728.226 -0.00213088 -4.172 0
M  V30 7519 H 726.856 0.560397 -3.17898 0
M  V30 7520 H 725.908 -1.8554 -3.32083 0
M  V30 7521 H 727.22 -2.23901 -4.45724 0
M  V30 7522 H 726.374 -0.500025 -6.04636 0
M  V30 7523 H 725.113 -0.0171219 -4.87697 0
M  V30 7524 H 724.118 -2.31946 -4.98479 0
M  V30 7525 H 725.343 -2.79704 -6.18823 0
M  V30 7526 H 723.289 -0.579873 -6.53432 0
M  V30 7527 H 723.206 -2.15825 -7.24538 0
M  V30 7528 H 724.474 -1.06852 -7.72142 0
M  V30 7529 N 728.703 1.26451 -0.940633 0
M  V30 7530 C 729.949 1.94065 -0.58878 0
M  V30 7531 C 730.282 1.7363 0.869853 0
M  V30 7532 O 729.557 1.073 1.62225 0
M  V30 7533 C 729.84 3.47852 -0.931199 0
M  V30 7534 C 729.693 3.77575 -2.44453 0
M  V30 7535 C 731.012 4.37832 -0.446229 0
M  V30 7536 H 728.131 0.704827 -0.21538 0
M  V30 7537 H 730.773 1.4933 -1.17475 0
M  V30 7538 H 728.923 3.86085 -0.432539 0
M  V30 7539 H 730.595 3.49059 -3.01588 0
M  V30 7540 H 728.838 3.23671 -2.88825 0
M  V30 7541 H 729.509 4.85068 -2.63464 0
M  V30 7542 H 731.985 4.06822 -0.873778 0
M  V30 7543 H 730.861 5.44228 -0.714648 0
M  V30 7544 H 731.122 4.37239 0.653815 0
M  V30 7545 N 730.181 0.707592 1.40822 0
M  V30 7546 C 731.427 0.244031 2.01326 0
M  V30 7547 C 731.76 -1.15722 1.55955 0
M  V30 7548 O 731.035 -1.78347 0.776044 0
M  V30 7549 C 731.318 0.315128 3.58718 0
M  V30 7550 C 731.171 1.75419 4.14184 0
M  V30 7551 C 732.49 -0.318251 4.38948 0
M  V30 7552 H 729.609 0.0901471 0.731466 0
M  V30 7553 H 732.251 0.898584 1.67408 0
M  V30 7554 H 730.401 -0.242176 3.87744 0
M  V30 7555 H 732.073 2.36626 3.95987 0
M  V30 7556 H 730.316 2.28449 3.68773 0
M  V30 7557 H 730.987 1.75538 5.23345 0
M  V30 7558 H 733.463 0.156514 4.15806 0
M  V30 7559 H 732.339 -0.238019 5.48384 0
M  V30 7560 H 732.6 -1.40067 4.19325 0
M  V30 7561 N 731.66 -1.50943 0.453197 0
M  V30 7562 C 732.59 -2.31005 -0.34044 0
M  V30 7563 C 733.571 -1.37112 -1.00669 0
M  V30 7564 O 734.756 -1.66033 -1.0073 0
M  V30 7565 C 731.886 -3.16358 -1.433 0
M  V30 7566 C 730.84 -4.18658 -0.889363 0
M  V30 7567 C 730.166 -4.92633 -2.07887 0
M  V30 7568 C 731.466 -5.22227 0.0871142 0
M  V30 7569 H 733.16 -2.97601 0.327723 0
M  V30 7570 H 730.706 -1.43119 0.159054 0
M  V30 7571 H 732.659 -3.71155 -1.99555 0
M  V30 7572 H 731.383 -2.47613 -2.12968 0
M  V30 7573 H 730.042 -3.64936 -0.348915 0
M  V30 7574 H 729.69 -4.20376 -2.76211 0
M  V30 7575 H 729.39 -5.61819 -1.72143 0
M  V30 7576 H 730.914 -5.50258 -2.64666 0
M  V30 7577 H 732.328 -5.72001 -0.385656 0
M  V30 7578 H 730.725 -5.99032 0.357926 0
M  V30 7579 H 731.795 -4.74077 1.01879 0
M  V30 7580 N 733.138 -0.185124 -1.56509 0
M  V30 7581 C 734.085 0.739729 -2.18624 0
M  V30 7582 C 735.055 1.217 -1.13042 0
M  V30 7583 O 736.24 1.28268 -1.41251 0
M  V30 7584 C 733.38 1.95787 -2.84186 0
M  V30 7585 C 732.493 1.52289 -4.04267 0
M  V30 7586 C 731.628 2.69576 -4.57714 0
M  V30 7587 C 730.667 2.22636 -5.70175 0
M  V30 7588 N 729.804 3.33065 -6.18071 0
M  V30 7589 H 734.644 0.203269 -2.97306 0
M  V30 7590 H 732.181 0.0885946 -1.46833 0
M  V30 7591 H 734.139 2.67253 -3.20361 0
M  V30 7592 H 732.769 2.4678 -2.08085 0
M  V30 7593 H 731.821 0.704458 -3.7382 0
M  V30 7594 H 733.133 1.13843 -4.85635 0
M  V30 7595 H 732.287 3.4918 -4.96143 0
M  V30 7596 H 731.026 3.1129 -3.75433 0
M  V30 7597 H 730.031 1.41483 -5.31284 0
M  V30 7598 H 731.256 1.81964 -6.54267 0
M  V30 7599 H 729.202 3.74328 -5.38715 0
M  V30 7600 H 729.119 2.98756 -6.94464 0
M  V30 7601 H 730.387 4.12912 -6.61153 0
M  V30 7602 N 734.616 1.57351 0.0885366 0
M  V30 7603 C 735.841 1.91011 0.80805 0
M  V30 7604 C 736.266 0.780009 1.71165 0
M  V30 7605 O 735.624 -0.268083 1.79307 0
M  V30 7606 C 735.672 3.23562 1.59185 0
M  V30 7607 O 734.776 3.11615 2.7013 0
M  V30 7608 H 734.117 0.625943 0.221565 0
M  V30 7609 H 736.647 2.04507 0.0617954 0
M  V30 7610 H 736.657 3.5703 1.97468 0
M  V30 7611 H 735.332 4.05398 0.928741 0
M  V30 7612 H 733.909 2.89673 2.34827 0
M  V30 7613 N 736.094 -0.359525 1.53444 0
M  V30 7614 C 737.041 -1.44073 1.8031 0
M  V30 7615 C 738.011 -1.52946 0.647811 0
M  V30 7616 O 739.196 -1.68739 0.890614 0
M  V30 7617 C 736.336 -2.80941 2.00416 0
M  V30 7618 C 735.449 -2.80986 3.28132 0
M  V30 7619 C 734.584 -4.09468 3.38393 0
M  V30 7620 C 733.623 -4.03679 4.60119 0
M  V30 7621 N 732.76 -5.23821 4.675 0
M  V30 7622 H 737.6 -1.20464 2.72566 0
M  V30 7623 H 735.137 -0.583859 1.35017 0
M  V30 7624 H 737.095 -3.60459 2.1006 0
M  V30 7625 H 735.725 -3.02936 1.11489 0
M  V30 7626 H 734.777 -1.93666 3.27411 0
M  V30 7627 H 736.089 -2.72583 4.17732 0
M  V30 7628 H 735.243 -4.97404 3.47382 0
M  V30 7629 H 733.982 -4.20632 2.4682 0
M  V30 7630 H 732.987 -3.14129 4.51224 0
M  V30 7631 H 734.212 -3.94112 5.5304 0
M  V30 7632 H 732.158 -5.35559 3.7883 0
M  V30 7633 H 732.075 -5.17611 5.51013 0
M  V30 7634 H 733.343 -6.13572 4.8078 0
M  V30 7635 N 737.572 -1.44907 -0.619662 0
M  V30 7636 C 738.849 -1.38766 -1.37852 0
M  V30 7637 C 739.229 -0.0521393 -2.11036 0
M  V30 7638 O 738.577 0.965613 -2.07095 0
M  V30 7639 C 738.787 -2.59344 -2.33541 0
M  V30 7640 C 740.135 -3.03909 -2.96521 0
M  V30 7641 O 741.159 -2.59631 -2.43865 0
M  V30 7642 O 740.018 -3.80713 -3.92071 0
M  V30 7643 H 737.112 -0.550083 -0.617525 0
M  V30 7644 H 739.658 -1.57015 -0.643759 0
M  V30 7645 H 738.43 -3.48142 -1.78642 0
M  V30 7646 H 738.053 -2.43367 -3.14417 0
M  V30 7647 N 739.05 0.861098 -1.31996 0
M  V30 7648 C 740.327 1.59788 -1.12814 0
M  V30 7649 C 740.707 2.08753 0.313882 0
M  V30 7650 O 740.055 1.87258 1.30946 0
M  V30 7651 C 740.265 2.74901 -2.15012 0
M  V30 7652 C 741.613 3.44643 -2.48004 0
M  V30 7653 O 742.637 2.85119 -2.13508 0
M  V30 7654 O 741.496 4.52044 -3.07113 0
M  V30 7655 H 738.59 0.703408 -0.434909 0
M  V30 7656 H 741.136 0.905788 -1.43505 0
M  V30 7657 H 739.908 2.36198 -3.11971 0
M  V30 7658 H 739.531 3.51792 -1.85279 0
M  V30 7659 N 740.528 1.15101 1.07655 0
M  V30 7660 C 741.46 0.802722 2.14684 0
M  V30 7661 C 742.473 -0.183874 1.61758 0
M  V30 7662 O 743.662 0.0389349 1.78458 0
M  V30 7663 C 740.762 0.172135 3.38463 0
M  V30 7664 C 739.935 1.19538 4.20749 0
M  V30 7665 C 738.994 0.58714 5.22914 0
M  V30 7666 O 738.02 1.25224 5.55255 0
M  V30 7667 N 739.222 -0.632566 5.77043 0
M  V30 7668 H 741.987 1.72379 2.45164 0
M  V30 7669 H 739.548 1.04647 1.23534 0
M  V30 7670 H 741.54 -0.247465 4.03943 0
M  V30 7671 H 740.11 -0.652214 3.0572 0
M  V30 7672 H 739.33 1.79165 3.51132 0
M  V30 7673 H 740.618 1.88636 4.7254 0
M  V30 7674 H 740.016 -1.19135 5.53013 0
M  V30 7675 H 738.573 -0.994566 6.44167 0
M  V30 7676 N 742.006 -1.2595 0.947325 0
M  V30 7677 C 743.252 -1.9375 0.599064 0
M  V30 7678 C 743.585 -1.74088 -0.860632 0
M  V30 7679 O 742.86 -1.08158 -1.61654 0
M  V30 7680 C 743.143 -3.47353 0.949634 0
M  V30 7681 C 742.996 -3.76273 2.46452 0
M  V30 7682 C 744.315 -4.37589 0.469442 0
M  V30 7683 H 741.434 -0.703674 0.219115 0
M  V30 7684 H 744.076 -1.48705 1.18266 0
M  V30 7685 H 742.226 -3.8585 0.453008 0
M  V30 7686 H 743.898 -3.47455 3.03435 0
M  V30 7687 H 742.141 -3.22135 2.90537 0
M  V30 7688 H 742.812 -4.83664 2.66032 0
M  V30 7689 H 745.288 -4.06353 0.89534 0
M  V30 7690 H 744.164 -5.43841 0.7435 0
M  V30 7691 H 744.425 -4.37579 -0.630618 0
M  V30 7692 N 743.484 -0.715051 -1.40445 0
M  V30 7693 C 744.712 -0.263959 -2.05209 0
M  V30 7694 C 745.127 1.09403 -1.53871 0
M  V30 7695 O 744.484 1.68746 -0.695064 0
M  V30 7696 C 744.535 -0.234545 -3.60738 0
M  V30 7697 O 744.256 -1.53891 -4.10182 0
M  V30 7698 C 745.757 0.235164 -4.42676 0
M  V30 7699 H 742.977 -0.11876 -0.660407 0
M  V30 7700 H 745.521 -0.973107 -1.79864 0
M  V30 7701 H 743.676 0.425563 -3.85055 0
M  V30 7702 H 744.09 -1.43903 -5.04373 0
M  V30 7703 H 745.564 0.204598 -5.51621 0
M  V30 7704 H 746.041 1.27724 -4.20218 0
M  V30 7705 H 746.647 -0.394649 -4.23465 0
M  V30 7706 N 744.962 1.50701 -0.461195 0
M  V30 7707 C 746.208 2.02566 0.0973411 0
M  V30 7708 C 746.541 1.3432 1.40257 0
M  V30 7709 O 745.816 0.465692 1.88843 0
M  V30 7710 C 746.099 3.58919 0.291423 0
M  V30 7711 C 745.952 4.37751 -1.03413 0
M  V30 7712 C 747.271 4.27379 1.05048 0
M  V30 7713 H 744.39 0.73622 0.0339026 0
M  V30 7714 H 747.032 1.80115 -0.604855 0
M  V30 7715 H 745.182 3.78179 0.889539 0
M  V30 7716 H 746.854 4.30085 -1.66806 0
M  V30 7717 H 745.097 4.01885 -1.63313 0
M  V30 7718 H 745.768 5.45384 -0.852085 0
M  V30 7719 H 748.244 4.12534 0.543603 0
M  V30 7720 H 747.12 5.36609 1.15506 0
M  V30 7721 H 747.381 3.89868 2.0846 0
M  V30 7722 N 746.441 0.193421 1.56409 0
M  V30 7723 C 747.69 -0.445995 1.96707 0
M  V30 7724 C 748.003 -1.62876 1.08309 0
M  V30 7725 O 749.209 -2.33586 1.38383 0
M  V30 7726 C 747.665 -0.844863 3.49843 0
M  V30 7727 C 747.273 0.31352 4.46902 0
M  V30 7728 C 749.017 -1.45146 3.98915 0
M  V30 7729 C 746.924 -0.106214 5.91305 0
M  V30 7730 H 745.854 -0.170398 0.734493 0
M  V30 7731 H 748.505 0.285172 1.81271 0
M  V30 7732 H 746.887 -1.63265 3.60778 0
M  V30 7733 H 748.061 1.09103 4.47698 0
M  V30 7734 H 746.376 0.8315 4.08014 0
M  V30 7735 H 748.973 -1.77792 5.04276 0
M  V30 7736 H 749.316 -2.35734 3.43126 0
M  V30 7737 H 749.849 -0.727675 3.91088 0
M  V30 7738 H 746.588 0.765442 6.51016 0
M  V30 7739 H 746.108 -0.848623 5.93766 0
M  V30 7740 H 747.787 -0.542588 6.44721 0
M  V30 7741 N 747.919 -1.57396 -0.0801906 0
M  V30 7742 C 749.167 -1.86467 -0.779384 0
M  V30 7743 C 749.488 -0.784243 -1.78535 0
M  V30 7744 O 748.758 0.187986 -1.94996 0
M  V30 7745 H 747.338 -0.68806 -0.29083 0
M  V30 7746 H 750 -1.94813 -0.0582749 0
M  V30 7747 H 749.096 -2.83701 -1.30078 0
M  V30 7748 N 749.397 0.351382 -1.53633 0
M  V30 7749 C 750.36 1.41403 -1.80383 0
M  V30 7750 C 751.36 1.45963 -0.674635 0
M  V30 7751 O 752.55 1.46476 -0.942895 0
M  V30 7752 C 749.682 2.80401 -1.93876 0
M  V30 7753 H 750.875 1.18951 -2.75301 0
M  V30 7754 H 748.428 0.58533 -1.44926 0
M  V30 7755 H 749.163 3.08147 -1.01074 0
M  V30 7756 H 748.948 2.78488 -2.7602 0
M  V30 7757 H 750.438 3.57329 -2.16116 0
M  V30 7758 N 750.875 1.45233 0.611969 0
M  V30 7759 C 752.123 1.48727 1.36838 0
M  V30 7760 C 752.444 0.128616 1.94575 0
M  V30 7761 O 751.714 -0.84149 1.76906 0
M  V30 7762 H 750.294 0.547695 0.507976 0
M  V30 7763 H 752.956 1.81156 0.718925 0
M  V30 7764 H 752.052 2.2236 2.19003 0
M  V30 7765 N 752.353 -0.854086 1.3245 0
M  V30 7766 C 753.599 -1.61069 1.23225 0
M  V30 7767 C 753.932 -1.93111 -0.205349 0
M  V30 7768 O 753.207 -1.57397 -1.14265 0
M  V30 7769 C 753.49 -2.93065 2.09249 0
M  V30 7770 C 753.343 -2.67801 3.6139 0
M  V30 7771 C 754.662 -3.94341 1.95406 0
M  V30 7772 H 751.781 -0.584449 0.448986 0
M  V30 7773 H 754.423 -0.986189 1.62402 0
M  V30 7774 H 752.573 -3.46364 1.75967 0
M  V30 7775 H 754.245 -2.21052 4.04887 0
M  V30 7776 H 752.488 -2.01756 3.84027 0
M  V30 7777 H 753.159 -3.6179 4.16907 0
M  V30 7778 H 755.635 -3.50301 2.24562 0
M  V30 7779 H 754.511 -4.84555 2.57872 0
M  V30 7780 H 754.772 -4.32382 0.921865 0
M  V30 7781 N 753.831 -1.1567 -1.07043 0
M  V30 7782 C 755.059 -0.957471 -1.83412 0
M  V30 7783 C 755.474 0.494271 -1.82215 0
M  V30 7784 O 754.831 1.34288 -1.23584 0
M  V30 7785 C 754.882 -1.46784 -3.30359 0
M  V30 7786 O 754.603 -2.86271 -3.31633 0
M  V30 7787 C 756.104 -1.31054 -4.23485 0
M  V30 7788 H 753.324 -0.33986 -0.578564 0
M  V30 7789 H 755.868 -1.53518 -1.35102 0
M  V30 7790 H 754.023 -0.932586 -3.76007 0
M  V30 7791 H 754.437 -3.0948 -4.23465 0
M  V30 7792 H 755.911 -1.71605 -5.24648 0
M  V30 7793 H 756.388 -0.255107 -4.38458 0
M  V30 7794 H 756.994 -1.83503 -3.83676 0
M  V30 7795 N 755.309 1.25446 -0.953992 0
M  V30 7796 C 756.239 2.28264 -0.491717 0
M  V30 7797 C 757.22 1.63717 0.461617 0
M  V30 7798 O 758.405 1.90821 0.36071 0
M  V30 7799 C 755.535 3.46525 0.231915 0
M  V30 7800 C 754.489 4.23247 -0.636098 0
M  V30 7801 C 753.815 5.34254 0.218238 0
M  V30 7802 C 755.115 4.85971 -1.91389 0
M  V30 7803 H 756.809 2.67183 -1.35106 0
M  V30 7804 H 754.355 1.2844 -0.651095 0
M  V30 7805 H 756.308 4.17576 0.566439 0
M  V30 7806 H 755.032 3.06594 1.12551 0
M  V30 7807 H 753.691 3.53978 -0.953696 0
M  V30 7808 H 753.339 4.90564 1.11156 0
M  V30 7809 H 753.039 5.86501 -0.359232 0
M  V30 7810 H 754.563 6.08138 0.547743 0
M  V30 7811 H 755.977 5.49168 -1.64581 0
M  V30 7812 H 754.374 5.48391 -2.43696 0
M  V30 7813 H 755.444 4.08192 -2.61738 0
M  V30 7814 N 756.787 0.722489 1.40064 0
M  V30 7815 C 757.737 0.0506801 2.27944 0
M  V30 7816 C 758.721 -0.725493 1.43615 0
M  V30 7817 O 759.913 -0.596559 1.66644 0
M  V30 7818 C 757.042 -0.865195 3.32219 0
M  V30 7819 C 756.128 -0.0838393 4.24017 0
M  V30 7820 N 756.519 0.936516 4.97054 0
M  V30 7821 C 754.817 -0.315371 4.44884 0
M  V30 7822 C 755.518 1.4066 5.64437 0
M  V30 7823 N 754.494 0.727485 5.3871 0
M  V30 7824 H 758.296 0.832609 2.8186 0
M  V30 7825 H 755.81 0.555691 1.52597 0
M  V30 7826 H 757.807 -1.36186 3.94029 0
M  V30 7827 H 756.467 -1.64642 2.79862 0
M  V30 7828 H 757.478 1.31755 5.0086 0
M  V30 7829 H 754.155 -1.07238 4.03492 0
M  V30 7830 H 755.545 2.25482 6.32936 0
M  V30 7831 N 758.265 -1.50454 0.469181 0
M  V30 7832 C 759.175 -2.32248 -0.331349 0
M  V30 7833 C 760.191 -1.42548 -0.997807 0
M  V30 7834 O 761.367 -1.75602 -0.9862 0
M  V30 7835 C 758.432 -3.17171 -1.40012 0
M  V30 7836 C 757.493 -4.2269 -0.750463 0
M  V30 7837 C 756.726 -5.03554 -1.76831 0
M  V30 7838 O 756.949 -4.85469 -2.99459 0
M  V30 7839 O 755.883 -5.86767 -1.3412 0
M  V30 7840 H 759.709 -3.01821 0.337279 0
M  V30 7841 H 757.294 -1.47602 0.231066 0
M  V30 7842 H 759.176 -3.69871 -2.01924 0
M  V30 7843 H 757.851 -2.50328 -2.05226 0
M  V30 7844 H 756.758 -3.73986 -0.0924446 0
M  V30 7845 H 758.091 -4.91997 -0.14131 0
M  V30 7846 N 759.743 -0.201713 -1.56304 0
M  V30 7847 C 760.706 0.702811 -2.18159 0
M  V30 7848 C 761.706 1.13619 -1.13787 0
M  V30 7849 O 762.896 1.0482 -1.39134 0
M  V30 7850 C 760.028 1.96032 -2.78898 0
M  V30 7851 H 761.221 0.163836 -2.99452 0
M  V30 7852 H 758.774 0.04791 -1.56227 0
M  V30 7853 H 759.509 2.54165 -2.01421 0
M  V30 7854 H 759.294 1.65824 -3.55309 0
M  V30 7855 H 760.784 2.60519 -3.26373 0
M  V30 7856 N 761.222 1.57436 0.0718424 0
M  V30 7857 C 762.152 2.06724 1.08571 0
M  V30 7858 C 763.133 0.960731 1.40371 0
M  V30 7859 O 764.318 1.23345 1.49999 0
M  V30 7860 C 761.448 2.51112 2.39916 0
M  V30 7861 C 760.402 3.65639 2.22469 0
M  V30 7862 C 759.728 3.96082 3.59198 0
M  V30 7863 C 761.028 4.95687 1.64596 0
M  V30 7864 H 762.722 2.91679 0.675569 0
M  V30 7865 H 760.268 1.40319 0.32352 0
M  V30 7866 H 762.221 2.84206 3.11135 0
M  V30 7867 H 760.945 1.63186 2.8291 0
M  V30 7868 H 759.604 3.32828 1.53691 0
M  V30 7869 H 759.252 3.05287 3.99761 0
M  V30 7870 H 758.952 4.73199 3.48362 0
M  V30 7871 H 760.476 4.31672 4.31847 0
M  V30 7872 H 761.89 5.27011 2.25681 0
M  V30 7873 H 760.287 5.77126 1.64457 0
M  V30 7874 H 761.357 4.8108 0.60744 0
M  V30 7875 N 762.7 -0.34323 1.53817 0
M  V30 7876 C 763.663 -1.40444 1.8113 0
M  V30 7877 C 764.663 -1.45604 0.682366 0
M  V30 7878 O 765.853 -1.45974 0.950649 0
M  V30 7879 C 762.985 -2.79369 1.95361 0
M  V30 7880 H 764.178 -1.17489 2.75928 0
M  V30 7881 H 761.731 -0.577636 1.45234 0
M  V30 7882 H 762.466 -3.07607 1.02707 0
M  V30 7883 H 762.251 -2.7702 2.77493 0
M  V30 7884 H 763.741 -3.56178 2.18008 0
M  V30 7885 N 764.178 -1.45556 -0.604258 0
M  V30 7886 C 765.141 -1.54091 -1.69672 0
M  V30 7887 C 766.141 -0.420076 -1.55216 0
M  V30 7888 O 767.331 -0.683671 -1.60224 0
M  V30 7889 C 764.463 -1.44063 -3.08964 0
M  V30 7890 H 765.656 -2.51431 -1.6347 0
M  V30 7891 H 763.209 -1.33046 -0.820273 0
M  V30 7892 H 763.944 -0.479201 -3.2074 0
M  V30 7893 H 763.729 -2.25362 -3.20865 0
M  V30 7894 H 765.219 -1.53075 -3.88533 0
M  V30 7895 N 765.656 0.84705 -1.32902 0
M  V30 7896 C 766.619 1.9378 -1.224 0
M  V30 7897 C 767.619 1.60144 -0.145108 0
M  V30 7898 O 768.809 1.69638 -0.396058 0
M  V30 7899 C 765.941 3.29234 -0.884174 0
M  V30 7900 H 767.134 2.04518 -2.19345 0
M  V30 7901 H 764.687 1.03816 -1.16842 0
M  V30 7902 H 765.422 3.24193 0.0831277 0
M  V30 7903 H 765.207 3.55026 -1.6643 0
M  V30 7904 H 766.697 4.09162 -0.835226 0
M  V30 7905 N 767.134 1.16236 1.06428 0
M  V30 7906 C 768.044 0.881976 2.1739 0
M  V30 7907 C 769.06 -0.145259 1.73393 0
M  V30 7908 O 770.236 0.0310558 2.01376 0
M  V30 7909 C 767.301 0.385496 3.4455 0
M  V30 7910 C 766.362 1.47779 4.03063 0
M  V30 7911 C 765.595 1.0049 5.24154 0
M  V30 7912 O 765.818 -0.145889 5.70213 0
M  V30 7913 O 764.752 1.79265 5.74585 0
M  V30 7914 H 768.578 1.80983 2.43883 0
M  V30 7915 H 766.163 0.942226 1.15942 0
M  V30 7916 H 768.045 0.115536 4.21242 0
M  V30 7917 H 766.72 -0.514369 3.19587 0
M  V30 7918 H 765.627 1.80147 3.27869 0
M  V30 7919 H 766.96 2.35291 4.32318 0
M  V30 7920 N 768.612 -1.24939 0.960631 0
M  V30 7921 C 769.542 -2.28 0.503815 0
M  V30 7922 C 770.523 -1.63959 -0.452928 0
M  V30 7923 O 771.708 -1.91009 -0.350585 0
M  V30 7924 C 768.838 -3.46643 -0.213535 0
M  V30 7925 C 767.792 -4.22903 0.658535 0
M  V30 7926 C 767.118 -5.34363 -0.189902 0
M  V30 7927 C 768.418 -4.84949 1.93963 0
M  V30 7928 H 770.112 -2.66462 1.36521 0
M  V30 7929 H 767.658 -1.28093 0.657897 0
M  V30 7930 H 769.611 -4.1787 -0.544286 0
M  V30 7931 H 768.335 -3.07187 -1.10923 0
M  V30 7932 H 766.994 -3.53467 0.972455 0
M  V30 7933 H 766.642 -4.91147 -1.08553 0
M  V30 7934 H 766.342 -5.86302 0.390331 0
M  V30 7935 H 767.866 -6.0842 -0.515484 0
M  V30 7936 H 769.28 -5.48288 1.67491 0
M  V30 7937 H 767.677 -5.47091 2.46601 0
M  V30 7938 H 768.747 -4.06799 2.639 0
M  V30 7939 N 770.09 -0.729906 -1.39679 0
M  V30 7940 C 771.02 -0.101618 -2.33279 0
M  V30 7941 C 772.001 0.729854 -1.53646 0
M  V30 7942 O 773.186 0.67587 -1.82059 0
M  V30 7943 C 770.316 0.81024 -3.37716 0
M  V30 7944 C 769.27 0.0833126 -4.27919 0
M  V30 7945 C 768.596 1.11185 -5.23012 0
M  V30 7946 C 769.896 -1.07107 -5.112 0
M  V30 7947 H 771.59 -0.883452 -2.86069 0
M  V30 7948 H 769.136 -0.426283 -1.37546 0
M  V30 7949 H 771.089 1.25927 -4.02145 0
M  V30 7950 H 769.813 1.62413 -2.83354 0
M  V30 7951 H 768.472 -0.346043 -3.64963 0
M  V30 7952 H 768.12 1.91917 -4.64948 0
M  V30 7953 H 767.82 0.63026 -5.8421 0
M  V30 7954 H 769.344 1.56068 -5.90318 0
M  V30 7955 H 770.758 -0.700726 -5.69002 0
M  V30 7956 H 769.155 -1.48196 -5.81514 0
M  V30 7957 H 770.225 -1.89513 -4.46332 0
M  V30 7958 N 771.568 1.50203 -0.477153 0
M  V30 7959 C 772.515 2.28656 0.31386 0
M  V30 7960 C 773.485 1.33977 0.981802 0
M  V30 7961 O 774.67 1.62919 0.993072 0
M  V30 7962 C 771.81 3.16027 1.38639 0
M  V30 7963 C 770.923 4.25743 0.732615 0
M  V30 7964 C 770.058 5.00363 1.78355 0
M  V30 7965 C 769.097 6.01945 1.11035 0
M  V30 7966 N 768.234 6.6982 2.10441 0
M  V30 7967 H 773.074 2.958 -0.361445 0
M  V30 7968 H 770.611 1.45867 -0.190093 0
M  V30 7969 H 772.569 3.6504 2.01994 0
M  V30 7970 H 771.199 2.50917 2.03077 0
M  V30 7971 H 770.251 3.80398 -0.0136546 0
M  V30 7972 H 771.563 4.98393 0.201513 0
M  V30 7973 H 770.717 5.53124 2.49276 0
M  V30 7974 H 769.456 4.27432 2.34847 0
M  V30 7975 H 768.461 5.48438 0.386797 0
M  V30 7976 H 769.686 6.76851 0.552248 0
M  V30 7977 H 767.632 5.99677 2.65939 0
M  V30 7978 H 767.549 7.38366 1.62332 0
M  V30 7979 H 768.817 7.27196 2.80724 0
M  V30 7980 N 773.046 0.209999 1.56195 0
M  V30 7981 C 773.993 -0.704854 2.19774 0
M  V30 7982 C 774.963 -1.19886 1.14964 0
M  V30 7983 O 776.148 -1.26005 1.43274 0
M  V30 7984 C 773.288 -1.91241 2.87265 0
M  V30 7985 C 772.401 -1.45838 4.06639 0
M  V30 7986 C 771.536 -2.6226 4.61945 0
M  V30 7987 C 770.575 -2.13537 5.73645 0
M  V30 7988 N 769.712 -3.2319 6.23292 0
M  V30 7989 H 774.552 -0.155944 2.97592 0
M  V30 7990 H 772.089 -0.0652235 1.46955 0
M  V30 7991 H 774.047 -2.62123 3.24573 0
M  V30 7992 H 772.677 -2.43439 2.11985 0
M  V30 7993 H 771.729 -0.644897 3.74894 0
M  V30 7994 H 773.041 -1.06103 4.87384 0
M  V30 7995 H 772.195 -3.41243 5.01636 0
M  V30 7996 H 770.934 -3.05278 3.80338 0
M  V30 7997 H 769.939 -1.33013 5.33468 0
M  V30 7998 H 771.164 -1.71533 6.57079 0
M  V30 7999 H 769.11 -3.65711 5.44602 0
M  V30 8000 H 769.027 -2.8767 6.99129 0
M  V30 8001 H 770.295 -4.02342 6.67639 0
M  V30 8002 N 774.524 -1.57472 -0.0634922 0
M  V30 8003 C 775.434 -2.07621 -1.09227 0
M  V30 8004 C 776.45 -1.00746 -1.41867 0
M  V30 8005 O 777.626 -1.32269 -1.51878 0
M  V30 8006 C 774.691 -2.51707 -2.38421 0
M  V30 8007 C 773.752 -3.72917 -2.12676 0
M  V30 8008 C 772.985 -4.14891 -3.3571 0
M  V30 8009 O 773.208 -3.56663 -4.45137 0
M  V30 8010 O 772.142 -5.07616 -3.23434 0
M  V30 8011 H 775.968 -2.95612 -0.696205 0
M  V30 8012 H 773.553 -1.46787 -0.27819 0
M  V30 8013 H 775.435 -2.80547 -3.14438 0
M  V30 8014 H 774.11 -1.66842 -2.77391 0
M  V30 8015 H 773.017 -3.49148 -1.34337 0
M  V30 8016 H 774.35 -4.5866 -1.78583 0
M  V30 8017 N 776.003 0.335068 -1.53997 0
M  V30 8018 C 776.95 1.41187 -1.82579 0
M  V30 8019 C 777.92 1.51897 -0.672061 0
M  V30 8020 O 779.105 1.673 -0.917346 0
M  V30 8021 C 776.245 2.77717 -2.0486 0
M  V30 8022 C 775.358 2.7573 -3.32561 0
M  V30 8023 C 774.493 4.04032 -3.44864 0
M  V30 8024 C 773.532 3.96308 -4.66483 0
M  V30 8025 N 772.669 5.16317 -4.75774 0
M  V30 8026 H 777.509 1.16113 -2.74448 0
M  V30 8027 H 775.046 0.562305 -1.35928 0
M  V30 8028 H 777.004 3.57071 -2.15768 0
M  V30 8029 H 775.634 3.01124 -1.16294 0
M  V30 8030 H 774.686 1.88432 -3.3045 0
M  V30 8031 H 775.998 2.65902 -4.22016 0
M  V30 8032 H 775.152 4.91814 -3.55251 0
M  V30 8033 H 773.891 4.16652 -2.53481 0
M  V30 8034 H 772.896 3.06911 -4.56164 0
M  V30 8035 H 774.121 3.85263 -5.5924 0
M  V30 8036 H 772.067 5.29464 -3.87303 0
M  V30 8037 H 771.984 5.08779 -5.59178 0
M  V30 8038 H 773.252 6.05846 -4.9048 0
M  V30 8039 N 777.481 1.45874 0.596531 0
M  V30 8040 C 778.73 1.49737 1.35135 0
M  V30 8041 C 779.043 0.147755 1.95041 0
M  V30 8042 O 780.249 0.0640984 2.71424 0
M  V30 8043 C 778.705 2.6378 2.44843 0
M  V30 8044 C 778.313 4.05102 1.91301 0
M  V30 8045 C 780.057 2.769 3.21755 0
M  V30 8046 C 777.964 5.10508 2.98557 0
M  V30 8047 H 776.894 0.557219 0.507959 0
M  V30 8048 H 779.545 1.72046 0.638147 0
M  V30 8049 H 777.927 2.34774 3.189 0
M  V30 8050 H 779.101 4.43836 1.2388 0
M  V30 8051 H 777.416 3.96528 1.271 0
M  V30 8052 H 780.013 3.52819 4.01775 0
M  V30 8053 H 780.356 1.83924 3.73467 0
M  V30 8054 H 780.889 3.05485 2.54802 0
M  V30 8055 H 777.628 6.0523 2.51749 0
M  V30 8056 H 777.148 4.76332 3.6451 0
M  V30 8057 H 778.827 5.35745 3.62748 0
M  V30 8058 N 778.959 -0.83999 1.33349 0
M  V30 8059 C 779.907 -1.97113 1.23488 0
M  V30 8060 C 780.901 -1.68849 0.136503 0
M  V30 8061 O 782.107 -1.77476 0.300389 0
M  V30 8062 H 778.482 -0.647049 0.383185 0
M  V30 8063 H 780.453 -2.02554 2.19122 0
M  V30 8064 C 779.202 -3.33314 0.989815 0
M  V30 8065 H 778.525 -3.556 1.82726 0
M  V30 8066 H 779.965 -4.12963 0.961123 0
M  V30 8067 C 778.424 -3.35496 -0.307272 0
M  V30 8068 O 778.954 -3.79589 -1.31434 0
M  V30 8069 N 777.16 -2.88669 -0.334414 0
M  V30 8070 H 776.707 -2.5298 0.485659 0
M  V30 8071 H 776.665 -2.90512 -1.20209 0
M  V30 8072 N 780.437 -1.16799 -1.0581 0
M  V30 8073 C 781.686 -0.94698 -1.78088 0
M  V30 8074 C 781.999 0.526016 -1.88394 0
M  V30 8075 O 783.205 0.865061 -2.5735 0
M  V30 8076 C 781.661 -1.64508 -3.20102 0
M  V30 8077 C 781.269 -3.15618 -3.17946 0
M  V30 8078 C 783.013 -1.50622 -3.96879 0
M  V30 8079 C 780.92 -3.78144 -4.5471 0
M  V30 8080 H 779.85 -0.35067 -0.667493 0
M  V30 8081 H 782.501 -1.39985 -1.18645 0
M  V30 8082 H 780.883 -1.11993 -3.79834 0
M  V30 8083 H 782.057 -3.75016 -2.67768 0
M  V30 8084 H 780.372 -3.29444 -2.54667 0
M  V30 8085 H 782.969 -1.94713 -4.97987 0
M  V30 8086 H 783.312 -0.455864 -4.13797 0
M  V30 8087 H 783.845 -2.00319 -3.43682 0
M  V30 8088 H 780.584 -4.83149 -4.42998 0
M  V30 8089 H 780.104 -3.23532 -5.05062 0
M  V30 8090 H 781.783 -3.79986 -5.2366 0
M  V30 8091 N 781.915 1.24427 -0.967243 0
M  V30 8092 C 783.331 1.44684 -0.6737 0
M  V30 8093 C 783.531 1.86429 0.764625 0
M  V30 8094 O 782.587 2.00211 1.53857 0
M  V30 8095 C 783.9 2.509 -1.6574 0
M  V30 8096 C 785.448 2.64728 -1.66998 0
M  V30 8097 C 785.923 3.7414 -2.64165 0
M  V30 8098 N 787.414 3.81567 -2.62604 0
M  V30 8099 C 788.149 4.6575 -3.34462 0
M  V30 8100 N 787.645 5.54124 -4.15835 0
M  V30 8101 N 789.438 4.59827 -3.23288 0
M  V30 8102 H 781.589 0.956276 -1.89655 0
M  V30 8103 H 783.852 0.48171 -0.816492 0
M  V30 8104 H 783.558 2.27113 -2.68538 0
M  V30 8105 H 783.432 3.4905 -1.42981 0
M  V30 8106 H 785.819 2.87872 -0.649121 0
M  V30 8107 H 785.9 1.66936 -1.93819 0
M  V30 8108 H 785.544 3.51745 -3.66384 0
M  V30 8109 H 785.474 4.71444 -2.34623 0
M  V30 8110 H 787.965 3.18403 -2.03539 0
M  V30 8111 H 788.278 6.15316 -4.67553 0
M  V30 8112 H 786.623 5.53791 -4.19929 0
M  V30 8113 H 789.814 3.898 -2.59179 0
M  V30 8114 H 789.987 5.25208 -3.79553 0
M  V30 8115 N 783.393 0.737304 1.3929 0
M  V30 8116 C 784.639 0.286681 2.00763 0
M  V30 8117 C 784.972 -1.12388 1.58375 0
M  V30 8118 O 784.247 -1.76661 0.813699 0
M  V30 8119 C 784.53 0.391147 3.57969 0
M  V30 8120 C 784.383 1.84165 4.1037 0
M  V30 8121 C 785.702 -0.225072 4.39524 0
M  V30 8122 H 782.821 0.105642 0.729389 0
M  V30 8123 H 785.463 0.933892 1.65464 0
M  V30 8124 H 783.613 -0.159875 3.88171 0
M  V30 8125 H 785.285 2.44972 3.90879 0
M  V30 8126 H 783.528 2.3622 3.63844 0
M  V30 8127 H 784.199 1.866 5.19504 0
M  V30 8128 H 786.675 0.244677 4.1538 0
M  V30 8129 H 785.551 -0.121646 5.48765 0
M  V30 8130 H 785.812 -1.31141 4.22202 0
M  V30 8131 N 784.871 -1.49948 0.485112 0
M  V30 8132 C 785.801 -2.31675 -0.291364 0
M  V30 8133 C 786.782 -1.39216 -0.977383 0
M  V30 8134 O 787.967 -1.68133 -0.971855 0
M  V30 8135 C 785.097 -3.19326 -1.36558 0
M  V30 8136 C 784.051 -4.2045 -0.800359 0
M  V30 8137 C 783.377 -4.96931 -1.97391 0
M  V30 8138 C 784.677 -5.21925 0.197867 0
M  V30 8139 H 786.371 -2.96839 0.390775 0
M  V30 8140 H 783.917 -1.42749 0.189375 0
M  V30 8141 H 785.87 -3.75304 -1.91638 0
M  V30 8142 H 784.594 -2.52074 -2.07668 0
M  V30 8143 H 783.253 -3.65594 -0.271428 0
M  V30 8144 H 782.901 -4.26141 -2.67232 0
M  V30 8145 H 782.601 -5.65344 -1.60187 0
M  V30 8146 H 784.125 -5.55749 -2.52935 0
M  V30 8147 H 785.539 -5.72691 -0.264239 0
M  V30 8148 H 783.936 -5.98138 0.484908 0
M  V30 8149 H 785.006 -4.71809 1.11912 0
M  V30 8150 N 786.349 -0.21828 -1.56081 0
M  V30 8151 C 787.626 0.463143 -1.90038 0
M  V30 8152 C 788.006 1.77982 -1.13515 0
M  V30 8153 O 787.354 2.27199 -0.24345 0
M  V30 8154 C 787.564 0.659292 -3.42716 0
M  V30 8155 C 788.912 0.968203 -4.13414 0
M  V30 8156 O 789.936 0.746195 -3.48296 0
M  V30 8157 O 788.795 1.38936 -5.28544 0
M  V30 8158 H 785.889 0.244435 -0.790051 0
M  V30 8159 H 788.435 -0.260221 -1.67693 0
M  V30 8160 H 787.207 -0.269584 -3.9037 0
M  V30 8161 H 786.83 1.43426 -3.7083 0
M  V30 8162 N 787.827 1.57504 0.0551401 0
M  V30 8163 C 789.238 1.76626 0.604979 0
M  V30 8164 C 789.589 0.845978 1.77024 0
M  V30 8165 O 788.714 0.0341936 2.16373 0
M  V30 8166 C 789.309 3.203 1.10425 0
M  V30 8167 C 787.868 3.4071 1.59981 0
M  V30 8168 C 787.015 2.72258 0.526414 0
M  V30 8169 H 789.966 1.57775 -0.171072 0
M  V30 8170 H 789.987 3.25377 1.97256 0
M  V30 8171 H 789.499 3.87255 0.255939 0
M  V30 8172 H 787.6 2.78892 2.47083 0
M  V30 8173 H 787.713 4.49227 1.66528 0
M  V30 8174 H 786.077 2.35283 0.97539 0
M  V30 8175 H 786.86 3.41879 -0.311991 0
M  V30 8176 N 789.305 -0.326896 1.54172 0
M  V30 8177 C 790.552 -1.06523 1.72218 0
M  V30 8178 C 790.88 -1.88119 0.494114 0
M  V30 8179 O 790.135 -1.8855 -0.524147 0
M  V30 8180 C 790.434 -2.0208 2.94785 0
M  V30 8181 C 790.1 -1.36665 4.2969 0
M  V30 8182 C 788.762 -1.18556 4.66367 0
M  V30 8183 C 791.114 -0.896868 5.13425 0
M  V30 8184 C 788.442 -0.521113 5.84381 0
M  V30 8185 C 790.794 -0.246261 6.3212 0
M  V30 8186 C 789.458 -0.052987 6.67479 0
M  V30 8187 H 788.728 -0.389796 0.63019 0
M  V30 8188 H 791.375 -0.342725 1.88408 0
M  V30 8189 H 789.68 -2.8077 2.73268 0
M  V30 8190 H 791.377 -2.59231 3.05941 0
M  V30 8191 H 787.967 -1.51762 4.00832 0
M  V30 8192 H 792.151 -1.02458 4.85609 0
M  V30 8193 H 787.407 -0.36014 6.10338 0
M  V30 8194 H 791.581 0.125775 6.96286 0
M  V30 8195 H 789.208 0.463903 7.58783 0
M  V30 8196 N 790.784 -1.46188 -0.588786 0
M  V30 8197 C 792.012 -1.54743 -1.37339 0
M  V30 8198 C 792.427 -0.186446 -1.87877 0
M  V30 8199 O 791.784 0.815247 -1.63279 0
M  V30 8200 C 791.835 -2.54727 -2.56508 0
M  V30 8201 O 791.556 -3.85539 -2.08066 0
M  V30 8202 C 793.057 -2.73163 -3.49137 0
M  V30 8203 H 790.277 -0.523484 -0.419768 0
M  V30 8204 H 792.821 -1.91543 -0.716345 0
M  V30 8205 H 790.976 -2.20948 -3.18215 0
M  V30 8206 H 791.39 -4.39905 -2.85629 0
M  V30 8207 H 792.864 -3.47057 -4.2925 0
M  V30 8208 H 793.341 -1.79856 -4.00685 0
M  V30 8209 H 793.947 -3.08014 -2.9327 0
M  V30 8210 N 792.262 0.832906 -1.33792 0
M  V30 8211 C 793.511 1.58351 -1.24932 0
M  V30 8212 C 793.824 1.94754 0.181703 0
M  V30 8213 O 795.03 2.6865 0.392375 0
M  V30 8214 C 793.486 2.85643 -2.18943 0
M  V30 8215 C 793.094 2.56581 -3.67247 0
M  V30 8216 C 794.838 3.63667 -2.18968 0
M  V30 8217 C 792.745 3.80006 -4.53155 0
M  V30 8218 H 791.675 0.594278 -0.464058 0
M  V30 8219 H 794.326 0.91786 -1.58895 0
M  V30 8220 H 792.708 3.53781 -1.77919 0
M  V30 8221 H 793.882 1.96617 -4.16747 0
M  V30 8222 H 792.197 1.91851 -3.6957 0
M  V30 8223 H 794.794 4.55293 -2.80379 0
M  V30 8224 H 795.137 3.99039 -1.18631 0
M  V30 8225 H 795.67 3.0246 -2.58384 0
M  V30 8226 H 792.409 3.4976 -5.5439 0
M  V30 8227 H 791.929 4.39288 -4.08395 0
M  V30 8228 H 793.608 4.47523 -4.6726 0
M  V30 8229 N 793.74 1.17359 1.05189 0
M  V30 8230 C 794.687 0.890325 2.12936 0
M  V30 8231 C 795.657 -0.165779 1.65271 0
M  V30 8232 O 796.842 -0.0285672 1.90779 0
M  V30 8233 C 793.982 0.409793 3.42658 0
M  V30 8234 C 793.095 1.53002 4.03998 0
M  V30 8235 C 792.23 1.00336 5.21638 0
M  V30 8236 C 791.269 2.09903 5.74984 0
M  V30 8237 N 790.406 1.58714 6.83926 0
M  V30 8238 H 795.246 1.81299 2.36505 0
M  V30 8239 H 792.783 0.904249 1.16025 0
M  V30 8240 H 794.741 0.112743 4.17048 0
M  V30 8241 H 793.371 -0.475915 3.19272 0
M  V30 8242 H 792.423 1.9428 3.27047 0
M  V30 8243 H 793.735 2.3564 4.39631 0
M  V30 8244 H 792.889 0.660158 6.03098 0
M  V30 8245 H 791.628 0.14642 4.8748 0
M  V30 8246 H 790.633 2.45081 4.92154 0
M  V30 8247 H 791.858 2.96013 6.1119 0
M  V30 8248 H 789.804 0.752915 6.51665 0
M  V30 8249 H 789.721 2.34959 7.18561 0
M  V30 8250 H 790.989 1.27287 7.69037 0
M  V30 8251 N 795.218 -1.23913 0.973828 0
M  V30 8252 C 796.629 -1.73992 0.677021 0
M  V30 8253 C 796.98 -1.78833 -0.807036 0
M  V30 8254 O 796.105 -1.42183 -1.63135 0
M  V30 8255 C 796.7 -3.15985 1.22226 0
M  V30 8256 C 795.259 -3.63547 0.975228 0
M  V30 8257 C 794.406 -2.42001 1.35392 0
M  V30 8258 H 797.357 -1.09529 1.14844 0
M  V30 8259 H 797.378 -3.75875 0.591489 0
M  V30 8260 H 796.89 -3.12429 2.30238 0
M  V30 8261 H 794.991 -3.72493 -0.0891047 0
M  V30 8262 H 795.104 -4.50693 1.62518 0
M  V30 8263 H 793.468 -2.42708 0.772334 0
M  V30 8264 H 794.251 -2.41122 2.44367 0
M  V30 8265 N 796.696 -0.74468 -1.38897 0
M  V30 8266 C 797.626 -0.126355 -2.33158 0
M  V30 8267 C 798.607 0.713517 -1.54412 0
M  V30 8268 O 799.792 0.656523 -1.82766 0
M  V30 8269 C 796.922 0.774375 -3.38557 0
M  V30 8270 C 795.876 0.0379214 -4.27983 0
M  V30 8271 C 795.202 1.05631 -5.24162 0
M  V30 8272 C 796.502 -1.12523 -5.10035 0
M  V30 8273 H 798.196 -0.913744 -2.85116 0
M  V30 8274 H 795.742 -0.440847 -1.37086 0
M  V30 8275 H 797.695 1.21655 -4.03458 0
M  V30 8276 H 796.419 1.59399 -2.85061 0
M  V30 8277 H 795.078 -0.384733 -3.64576 0
M  V30 8278 H 794.726 1.86975 -4.66958 0
M  V30 8279 H 794.426 0.568261 -5.84846 0
M  V30 8280 H 795.95 1.49799 -5.9194 0
M  V30 8281 H 797.364 -0.761037 -5.68226 0
M  V30 8282 H 795.761 -1.54355 -5.79909 0
M  V30 8283 H 796.831 -1.94237 -4.44297 0
M  V30 8284 N 798.174 1.49689 -0.493057 0
M  V30 8285 C 799.451 1.9525 0.116907 0
M  V30 8286 C 799.831 1.43429 1.54892 0
M  V30 8287 O 799.179 0.644621 2.19219 0
M  V30 8288 C 799.389 3.4898 0.037705 0
M  V30 8289 C 800.737 4.24052 0.215621 0
M  V30 8290 O 801.761 3.5602 0.113266 0
M  V30 8291 O 800.62 5.44847 0.42477 0
M  V30 8292 H 797.714 0.820973 0.099662 0
M  V30 8293 H 800.26 1.60367 -0.555029 0
M  V30 8294 H 799.032 3.79309 -0.961251 0
M  V30 8295 H 798.655 3.9046 0.750137 0
M  V30 8296 N 799.652 0.226554 1.55963 0
M  V30 8297 C 801.068 -0.128733 1.5908 0
M  V30 8298 C 801.268 -1.58558 1.24345 0
M  V30 8299 O 800.324 -2.32661 0.981069 0
M  V30 8300 C 801.637 0.202076 3.0002 0
M  V30 8301 C 803.185 0.144718 3.12665 0
M  V30 8302 C 803.66 0.449272 4.55791 0
M  V30 8303 N 805.151 0.399026 4.61478 0
M  V30 8304 C 805.886 0.608106 5.70166 0
M  V30 8305 N 805.382 0.879227 6.87198 0
M  V30 8306 N 807.175 0.5402 5.59498 0
M  V30 8307 H 799.326 1.17686 1.76816 0
M  V30 8308 H 801.589 0.472072 0.822102 0
M  V30 8309 H 801.295 1.21341 3.30105 0
M  V30 8310 H 801.169 -0.480554 3.74126 0
M  V30 8311 H 803.556 -0.857261 2.82374 0
M  V30 8312 H 803.637 0.860899 2.40878 0
M  V30 8313 H 803.281 1.44871 4.86801 0
M  V30 8314 H 803.211 -0.288157 5.25811 0
M  V30 8315 H 805.702 0.197372 3.77384 0
M  V30 8316 H 806.015 1.02673 7.65949 0
M  V30 8317 H 804.36 0.916477 6.88931 0
M  V30 8318 H 807.551 0.328581 4.66945 0
M  V30 8319 H 807.724 0.706548 6.44137 0
M  V30 8320 N 801.13 -1.57531 -0.0467866 0
M  V30 8321 C 802.077 -2.05387 -1.05285 0
M  V30 8322 C 803.047 -0.939385 -1.36985 0
M  V30 8323 O 804.232 -1.20877 -1.47626 0
M  V30 8324 C 801.372 -2.52343 -2.35408 0
M  V30 8325 C 800.485 -3.77512 -2.10022 0
M  V30 8326 C 799.62 -4.1315 -3.33887 0
M  V30 8327 C 798.659 -5.31286 -3.03976 0
M  V30 8328 N 797.796 -5.62441 -4.20243 0
M  V30 8329 H 802.636 -2.91095 -0.637788 0
M  V30 8330 H 800.173 -1.43939 -0.303322 0
M  V30 8331 H 802.131 -2.77628 -3.11413 0
M  V30 8332 H 800.761 -1.69577 -2.7467 0
M  V30 8333 H 799.813 -3.59417 -1.24594 0
M  V30 8334 H 801.125 -4.63644 -1.83945 0
M  V30 8335 H 800.279 -4.39469 -4.18273 0
M  V30 8336 H 799.018 -3.25634 -3.63062 0
M  V30 8337 H 798.023 -5.04738 -2.17991 0
M  V30 8338 H 799.248 -6.20441 -2.76098 0
M  V30 8339 H 797.194 -4.77885 -4.49402 0
M  V30 8340 H 797.111 -6.43046 -3.97528 0
M  V30 8341 H 798.379 -5.93327 -5.05553 0
M  V30 8342 N 802.608 0.318715 -1.54344 0
M  V30 8343 C 803.538 1.39751 -1.87061 0
M  V30 8344 C 804.519 1.53741 -0.727848 0
M  V30 8345 O 805.704 1.67541 -0.982016 0
M  V30 8346 C 802.834 2.76446 -2.10226 0
M  V30 8347 C 801.788 2.77239 -3.26071 0
M  V30 8348 C 801.114 4.17056 -3.34617 0
M  V30 8349 C 802.414 2.40555 -4.63606 0
M  V30 8350 H 804.108 1.12619 -2.77412 0
M  V30 8351 H 801.654 0.540318 -1.33479 0
M  V30 8352 H 803.607 3.51985 -2.31699 0
M  V30 8353 H 802.331 3.05066 -1.16629 0
M  V30 8354 H 800.99 2.04155 -3.04493 0
M  V30 8355 H 800.638 4.42824 -2.3857 0
M  V30 8356 H 800.338 4.18492 -4.12478 0
M  V30 8357 H 801.862 4.94401 -3.5833 0
M  V30 8358 H 803.276 3.05808 -4.84927 0
M  V30 8359 H 801.673 2.53234 -5.44052 0
M  V30 8360 H 802.743 1.35698 -4.65526 0
M  V30 8361 N 804.086 1.46499 0.581025 0
M  V30 8362 C 805.335 1.51162 1.3354 0
M  V30 8363 C 805.648 0.168433 1.94873 0
M  V30 8364 O 806.854 0.092883 2.71341 0
M  V30 8365 C 805.31 2.66362 2.42032 0
M  V30 8366 C 804.918 4.07109 1.86994 0
M  V30 8367 C 806.662 2.80297 3.188 0
M  V30 8368 C 804.569 5.13645 2.93125 0
M  V30 8369 H 803.499 0.562576 0.502021 0
M  V30 8370 H 806.15 1.72713 0.619863 0
M  V30 8371 H 804.532 2.38143 3.16392 0
M  V30 8372 H 805.706 4.45125 1.19166 0
M  V30 8373 H 804.021 3.97854 1.22887 0
M  V30 8374 H 806.618 3.5706 3.9801 0
M  V30 8375 H 806.961 1.87875 3.71495 0
M  V30 8376 H 807.494 3.0817 2.51547 0
M  V30 8377 H 804.233 6.07866 2.45315 0
M  V30 8378 H 803.753 4.80172 3.59437 0
M  V30 8379 H 805.432 5.39562 3.57046 0
M  V30 8380 N 805.565 -0.825799 1.34232 0
M  V30 8381 C 806.495 -1.95151 1.28212 0
M  V30 8382 C 807.476 -1.69345 0.160123 0
M  V30 8383 O 808.661 -1.90983 0.352019 0
M  V30 8384 C 805.791 -3.31554 1.03388 0
M  V30 8385 C 804.745 -3.71793 2.12023 0
M  V30 8386 C 804.071 -5.06147 1.72392 0
M  V30 8387 C 805.371 -3.84193 3.53826 0
M  V30 8388 H 807.065 -2.00445 2.22401 0
M  V30 8389 H 804.611 -0.962996 1.07063 0
M  V30 8390 H 806.564 -4.09889 0.978225 0
M  V30 8391 H 805.288 -3.26551 0.0564142 0
M  V30 8392 H 803.947 -2.95731 2.16654 0
M  V30 8393 H 803.595 -4.97628 0.733137 0
M  V30 8394 H 803.295 -5.34041 2.451 0
M  V30 8395 H 804.819 -5.86943 1.68317 0
M  V30 8396 H 806.233 -4.52806 3.51624 0
M  V30 8397 H 804.63 -4.23538 4.2513 0
M  V30 8398 H 805.7 -2.86272 3.91377 0
M  V30 8399 N 807.043 -1.17915 -1.04565 0
M  V30 8400 C 808.32 -0.881187 -1.74627 0
M  V30 8401 C 808.7 0.617123 -2.01878 0
M  V30 8402 O 808.048 1.57032 -1.65991 0
M  V30 8403 C 808.258 -1.72299 -3.03503 0
M  V30 8404 C 809.606 -1.94688 -3.77335 0
M  V30 8405 O 810.63 -1.6931 -3.13389 0
M  V30 8406 O 809.489 -2.37379 -4.92253 0
M  V30 8407 H 806.583 -0.326864 -0.759664 0
M  V30 8408 H 809.129 -1.28642 -1.10676 0
M  V30 8409 H 807.901 -2.73891 -2.79462 0
M  V30 8410 H 807.524 -1.31593 -3.75192 0
M  V30 8411 N 808.521 1.23394 -0.980386 0
M  V30 8412 C 809.746 1.96384 -0.666935 0
M  V30 8413 C 810.171 1.72087 0.759456 0
M  V30 8414 O 809.529 0.992328 1.51732 0
M  V30 8415 C 809.577 3.47499 -0.963177 0
M  V30 8416 O 808.681 4.12363 -0.0552051 0
M  V30 8417 H 808.022 0.614797 -0.250839 0
M  V30 8418 H 810.552 1.56831 -1.31398 0
M  V30 8419 H 810.562 3.97953 -0.899877 0
M  V30 8420 H 809.237 3.6451 -2.00264 0
M  V30 8421 H 807.814 3.72499 -0.172914 0
M  V30 8422 N 809.999 0.752036 1.385 0
M  V30 8423 C 810.962 0.131587 2.28822 0
M  V30 8424 C 811.962 -0.649149 1.47115 0
M  V30 8425 O 813.152 -0.475645 1.67581 0
M  V30 8426 C 810.284 -0.822101 3.30839 0
M  V30 8427 H 811.477 0.927551 2.85196 0
M  V30 8428 H 809.03 0.518945 1.47434 0
M  V30 8429 H 809.765 -1.6438 2.79553 0
M  V30 8430 H 809.55 -0.264689 3.91206 0
M  V30 8431 H 811.04 -1.25226 3.98382 0
M  V30 8432 N 811.477 -1.49425 0.500989 0
M  V30 8433 C 812.893 -1.58826 0.156951 0
M  V30 8434 C 813.093 -1.50622 -1.33848 0
M  V30 8435 O 812.149 -1.38016 -2.11442 0
M  V30 8436 C 813.462 -2.91611 0.73374 0
M  V30 8437 C 815.01 -3.05076 0.699846 0
M  V30 8438 C 815.485 -4.40479 1.2547 0
M  V30 8439 N 816.976 -4.4697 1.2154 0
M  V30 8440 C 817.711 -5.50189 1.6149 0
M  V30 8441 N 817.207 -6.60512 2.09034 0
M  V30 8442 N 819 -5.40903 1.52907 0
M  V30 8443 H 811.151 -1.53001 1.47324 0
M  V30 8444 H 813.414 -0.724765 0.61108 0
M  V30 8445 H 813.12 -3.03182 1.78251 0
M  V30 8446 H 812.994 -3.767 0.19417 0
M  V30 8447 H 815.381 -2.93134 -0.340085 0
M  V30 8448 H 815.462 -2.2167 1.27656 0
M  V30 8449 H 815.106 -4.53172 2.29341 0
M  V30 8450 H 815.036 -5.22524 0.653921 0
M  V30 8451 H 817.527 -3.67819 0.867043 0
M  V30 8452 H 817.84 -7.35372 2.37588 0
M  V30 8453 H 816.185 -6.61553 2.13008 0
M  V30 8454 H 819.376 -4.53606 1.15583 0
M  V30 8455 H 819.549 -6.21219 1.84365 0
M  V30 8456 N 812.955 -0.234822 -1.55841 0
M  V30 8457 C 813.918 0.656378 -2.196 0
M  V30 8458 C 814.918 1.11179 -1.16171 0
M  V30 8459 O 816.108 1.01845 -1.41326 0
M  V30 8460 C 813.24 1.90072 -2.82993 0
M  V30 8461 H 814.433 0.100281 -2.99732 0
M  V30 8462 H 811.986 0.0147613 -1.56293 0
M  V30 8463 H 812.721 2.49836 -2.06767 0
M  V30 8464 H 812.506 1.5825 -3.58747 0
M  V30 8465 H 813.996 2.53538 -3.31826 0
M  V30 8466 N 814.433 1.57553 0.0384317 0
M  V30 8467 C 815.661 1.93093 0.743141 0
M  V30 8468 C 816.076 0.833787 1.69391 0
M  V30 8469 O 815.433 -0.190532 1.81503 0
M  V30 8470 C 815.484 3.28533 1.50826 0
M  V30 8471 O 815.205 4.34032 0.595665 0
M  V30 8472 C 816.706 3.78297 2.31098 0
M  V30 8473 H 813.926 0.637486 0.20941 0
M  V30 8474 H 816.47 2.045 -0.00125154 0
M  V30 8475 H 814.625 3.18552 2.20462 0
M  V30 8476 H 815.039 5.12155 1.13124 0
M  V30 8477 H 816.513 4.75602 2.80191 0
M  V30 8478 H 816.99 3.09008 3.12107 0
M  V30 8479 H 817.596 3.91331 1.66555 0
M  V30 8480 N 815.911 -0.310526 1.54511 0
M  V30 8481 C 816.858 -1.38264 1.84802 0
M  V30 8482 C 817.828 -1.50808 0.696141 0
M  V30 8483 O 819.013 -1.6582 0.943846 0
M  V30 8484 C 816.153 -2.74422 2.09252 0
M  V30 8485 C 815.266 -2.70405 3.36906 0
M  V30 8486 C 814.401 -3.98495 3.51248 0
M  V30 8487 C 813.44 -3.88836 4.72729 0
M  V30 8488 N 812.577 -5.08683 4.83928 0
M  V30 8489 H 817.417 -1.11732 2.76261 0
M  V30 8490 H 814.954 -0.540609 1.36806 0
M  V30 8491 H 816.912 -3.53593 2.21422 0
M  V30 8492 H 815.542 -2.99235 1.2107 0
M  V30 8493 H 814.594 -1.83151 3.33406 0
M  V30 8494 H 815.906 -2.59155 4.26193 0
M  V30 8495 H 815.06 -4.861 3.63031 0
M  V30 8496 H 813.799 -4.12567 2.60077 0
M  V30 8497 H 812.804 -2.99615 4.60989 0
M  V30 8498 H 814.029 -3.76318 5.65298 0
M  V30 8499 H 811.975 -5.23236 3.95677 0
M  V30 8500 H 811.892 -4.99819 5.67201 0
M  V30 8501 H 813.16 -5.97966 5.00057 0
M  V30 8502 N 817.389 -1.46805 -0.573248 0
M  V30 8503 C 818.637 -1.52302 -1.32847 0
M  V30 8504 C 818.958 -0.180159 -1.94166 0
M  V30 8505 O 818.228 0.794291 -1.79075 0
M  V30 8506 H 816.808 -0.56097 -0.493276 0
M  V30 8507 H 819.47 -1.82998 -0.670642 0
M  V30 8508 H 818.566 -2.28089 -2.13031 0
M  V30 8509 N 818.867 0.818669 -1.34668 0
M  V30 8510 C 820.283 1.11243 -1.14443 0
M  V30 8511 C 820.483 2.01435 0.0512212 0
M  V30 8512 O 819.539 2.41854 0.725471 0
M  V30 8513 C 820.852 1.75504 -2.4417 0
M  V30 8514 C 822.4 1.8798 -2.50265 0
M  V30 8515 C 822.875 2.55657 -3.80004 0
M  V30 8516 N 824.366 2.63153 -3.81189 0
M  V30 8517 C 825.101 3.16258 -4.78298 0
M  V30 8518 N 824.597 3.69893 -5.85791 0
M  V30 8519 N 826.39 3.14698 -4.65748 0
M  V30 8520 H 818.541 0.218848 -2.1127 0
M  V30 8521 H 820.804 0.159655 -0.934459 0
M  V30 8522 H 820.51 1.16697 -3.31775 0
M  V30 8523 H 820.384 2.75329 -2.57825 0
M  V30 8524 H 822.771 2.45934 -1.63096 0
M  V30 8525 H 822.852 0.870447 -2.40535 0
M  V30 8526 H 822.496 1.98356 -4.67565 0
M  V30 8527 H 822.426 3.57105 -3.87019 0
M  V30 8528 H 824.917 2.2514 -3.03513 0
M  V30 8529 H 825.23 4.08678 -6.55898 0
M  V30 8530 H 823.575 3.68125 -5.89499 0
M  V30 8531 H 826.766 2.72066 -3.80917 0
M  V30 8532 H 826.939 3.5578 -5.41594 0
M  V30 8533 N 820.346 1.18468 1.03938 0
M  V30 8534 C 821.595 0.975193 1.76558 0
M  V30 8535 C 821.908 -0.495978 1.89207 0
M  V30 8536 O 823.114 -0.824009 2.58694 0
M  V30 8537 C 821.57 1.69579 3.17444 0
M  V30 8538 C 821.178 3.20636 3.12884 0
M  V30 8539 C 822.922 1.56917 3.94433 0
M  V30 8540 C 820.829 3.8533 4.48636 0
M  V30 8541 H 819.759 0.361244 0.66183 0
M  V30 8542 H 822.41 1.41854 1.16403 0
M  V30 8543 H 820.792 1.18022 3.78004 0
M  V30 8544 H 821.966 3.79228 2.61768 0
M  V30 8545 H 820.281 3.33454 2.49394 0
M  V30 8546 H 822.878 2.02611 4.94826 0
M  V30 8547 H 823.221 0.521638 4.13019 0
M  V30 8548 H 823.754 2.05762 3.40451 0
M  V30 8549 H 820.493 4.90136 4.35255 0
M  V30 8550 H 820.013 3.31526 4.99851 0
M  V30 8551 H 821.692 3.88269 5.17549 0
M  V30 8552 N 821.824 -1.22873 0.986916 0
M  V30 8553 C 822.754 -2.2688 0.552064 0
M  V30 8554 C 823.735 -1.64883 -0.418048 0
M  V30 8555 O 824.92 -1.9171 -0.30999 0
M  V30 8556 C 822.05 -3.47018 -0.139959 0
M  V30 8557 C 821.004 -4.21411 0.748091 0
M  V30 8558 C 820.33 -5.34645 -0.0765132 0
M  V30 8559 C 821.63 -4.80726 2.04206 0
M  V30 8560 H 823.324 -2.63507 1.42143 0
M  V30 8561 H 820.87 -1.26668 0.68492 0
M  V30 8562 H 822.823 -4.18931 -0.455527 0
M  V30 8563 H 821.547 -3.0947 -1.04382 0
M  V30 8564 H 820.206 -3.51325 1.04721 0
M  V30 8565 H 819.854 -4.93339 -0.981109 0
M  V30 8566 H 819.554 -5.85342 0.514606 0
M  V30 8567 H 821.078 -6.09377 -0.386313 0
M  V30 8568 H 822.492 -5.44612 1.79083 0
M  V30 8569 H 820.889 -5.41737 2.5815 0
M  V30 8570 H 821.959 -4.01109 2.72469 0
M  V30 8571 N 823.302 -0.75937 -1.38099 0
M  V30 8572 C 824.53 -0.329111 -2.04266 0
M  V30 8573 C 824.945 1.04453 -1.57274 0
M  V30 8574 O 824.302 1.66449 -0.748397 0
M  V30 8575 C 824.353 -0.349192 -3.5981 0
M  V30 8576 O 824.074 -1.66863 -4.05078 0
M  V30 8577 C 825.575 0.0942106 -4.432 0
M  V30 8578 H 822.795 -0.13971 -0.656294 0
M  V30 8579 H 825.339 -1.02984 -1.76677 0
M  V30 8580 H 823.494 0.302846 -3.86214 0
M  V30 8581 H 823.908 -1.59877 -4.9954 0
M  V30 8582 H 825.382 0.0290004 -5.51992 0
M  V30 8583 H 825.859 1.1429 -4.24069 0
M  V30 8584 H 826.465 -0.529171 -4.21995 0
M  V30 8585 N 824.78 1.49157 -0.508906 0
M  V30 8586 C 826.026 2.02773 0.0328469 0
M  V30 8587 C 826.359 1.38714 1.35912 0
M  V30 8588 O 825.634 0.525536 1.87266 0
M  V30 8589 C 825.917 3.59664 0.177088 0
M  V30 8590 C 825.77 4.34239 -1.17287 0
M  V30 8591 C 827.089 4.30505 0.913977 0
M  V30 8592 H 824.208 0.736926 0.0104631 0
M  V30 8593 H 826.85 1.781 -0.661851 0
M  V30 8594 H 825 3.80818 0.768774 0
M  V30 8595 H 826.672 4.24561 -1.80404 0
M  V30 8596 H 824.915 3.96486 -1.76016 0
M  V30 8597 H 825.586 5.42397 -1.02516 0
M  V30 8598 H 828.062 4.14054 0.412084 0
M  V30 8599 H 826.938 5.40012 0.983759 0
M  V30 8600 H 827.199 3.96302 1.95951 0
M  V30 8601 N 826.258 0.243083 1.55714 0
M  V30 8602 C 827.168 -0.668913 2.24862 0
M  V30 8603 C 828.184 -1.19638 1.26344 0
M  V30 8604 O 829.36 -1.23345 1.5921 0
M  V30 8605 C 826.425 -1.85084 2.93163 0
M  V30 8606 C 825.486 -1.36323 4.07081 0
M  V30 8607 C 824.719 -2.48882 4.72116 0
M  V30 8608 O 824.942 -3.67523 4.36214 0
M  V30 8609 O 823.876 -2.18857 5.60701 0
M  V30 8610 H 827.702 -0.109737 3.03502 0
M  V30 8611 H 825.287 0.0117411 1.49395 0
M  V30 8612 H 827.169 -2.54065 3.36197 0
M  V30 8613 H 825.844 -2.39771 2.17466 0
M  V30 8614 H 824.751 -0.640804 3.68571 0
M  V30 8615 H 826.084 -0.86249 4.84584 0
M  V30 8616 N 827.736 -1.57571 -0.0300757 0
M  V30 8617 C 829.013 -1.80381 -0.756447 0
M  V30 8618 C 829.393 -0.840906 -1.93628 0
M  V30 8619 O 828.741 0.117143 -2.282 0
M  V30 8620 C 828.951 -3.2807 -1.19043 0
M  V30 8621 C 830.299 -3.93025 -1.60676 0
M  V30 8622 O 831.323 -3.32213 -1.28503 0
M  V30 8623 O 830.182 -5.00092 -2.20386 0
M  V30 8624 H 827.276 -0.741737 -0.365725 0
M  V30 8625 H 829.822 -1.69699 -0.00693177 0
M  V30 8626 H 828.594 -3.89748 -0.348128 0
M  V30 8627 H 828.217 -3.43637 -1.99999 0
M  V30 8628 N 829.214 0.302327 -1.54673 0
M  V30 8629 C 830.164 1.37443 -1.81916 0
M  V30 8630 C 831.148 1.45999 -0.676251 0
M  V30 8631 O 832.34 1.50174 -0.93685 0
M  V30 8632 C 829.469 2.73966 -2.06876 0
M  V30 8633 C 828.555 2.69637 -3.27348 0
M  V30 8634 N 828.946 2.34926 -4.47933 0
M  V30 8635 C 827.244 3.00742 -3.29348 0
M  V30 8636 C 827.945 2.39862 -5.29944 0
M  V30 8637 N 826.921 2.77163 -4.67634 0
M  V30 8638 H 830.723 1.09567 -2.72713 0
M  V30 8639 H 828.237 0.5109 -1.54154 0
M  V30 8640 H 830.234 3.51265 -2.2454 0
M  V30 8641 H 828.894 3.02754 -1.17346 0
M  V30 8642 H 829.905 2.07403 -4.74557 0
M  V30 8643 H 826.582 3.34434 -2.49921 0
M  V30 8644 H 827.972 2.15835 -6.3629 0
M  V30 8645 N 830.692 1.47107 0.565454 0
M  V30 8646 C 831.922 1.56681 1.34664 0
M  V30 8647 C 832.33 0.213011 1.87997 0
M  V30 8648 O 831.673 -0.802629 1.65238 0
M  V30 8649 C 831.735 2.52528 2.55871 0
M  V30 8650 C 831.399 3.98403 2.23883 0
M  V30 8651 C 832.396 4.87125 1.81673 0
M  V30 8652 C 830.081 4.43674 2.35496 0
M  V30 8653 C 832.075 6.19135 1.51494 0
M  V30 8654 C 829.762 5.75714 2.0493 0
M  V30 8655 C 830.76 6.63266 1.62996 0
M  V30 8656 O 830.448 7.92853 1.32813 0
M  V30 8657 H 830.18 0.531967 0.417117 0
M  V30 8658 H 832.734 1.93368 0.692669 0
M  V30 8659 H 830.964 2.10893 3.24131 0
M  V30 8660 H 832.653 2.5232 3.17945 0
M  V30 8661 H 833.419 4.534 1.72201 0
M  V30 8662 H 829.298 3.7574 2.67096 0
M  V30 8663 H 832.842 6.87429 1.1869 0
M  V30 8664 H 828.739 6.08983 2.14031 0
M  V30 8665 H 829.507 8.0528 1.46513 0
M  V30 8666 N 832.17 -0.811516 1.35101 0
M  V30 8667 C 833.4 -1.59749 1.31011 0
M  V30 8668 C 833.808 -1.88847 -0.115566 0
M  V30 8669 O 833.151 -1.48854 -1.07649 0
M  V30 8670 C 833.213 -2.95714 2.04435 0
M  V30 8671 C 832.877 -2.89456 3.53645 0
M  V30 8672 C 833.874 -2.63237 4.48333 0
M  V30 8673 C 831.559 -3.08728 3.96222 0
M  V30 8674 C 833.553 -2.56361 5.83573 0
M  V30 8675 C 831.24 -3.01475 5.3156 0
M  V30 8676 C 832.238 -2.75326 6.25048 0
M  V30 8677 O 831.926 -2.68026 7.57903 0
M  V30 8678 H 831.658 -0.502889 0.45175 0
M  V30 8679 H 834.212 -1.01687 1.78462 0
M  V30 8680 H 832.442 -3.55739 1.51613 0
M  V30 8681 H 834.131 -3.56816 1.93487 0
M  V30 8682 H 834.897 -2.48072 4.16756 0
M  V30 8683 H 830.776 -3.28094 3.23845 0
M  V30 8684 H 834.32 -2.35871 6.56514 0
M  V30 8685 H 830.217 -3.16197 5.62752 0
M  V30 8686 H 830.985 -2.8367 7.67772 0
M  V30 8687 N 833.648 -1.19017 -1.03309 0
M  V30 8688 C 834.558 -0.939303 -2.14975 0
M  V30 8689 C 835.574 0.0992359 -1.73717 0
M  V30 8690 O 836.75 -0.0844362 -2.01223 0
M  V30 8691 C 833.815 -0.476712 -3.43407 0
M  V30 8692 C 832.876 -1.58413 -3.99003 0
M  V30 8693 C 832.109 -1.14352 -5.21305 0
M  V30 8694 O 832.332 -0.00534408 -5.704 0
M  V30 8695 O 831.266 -1.94436 -5.6963 0
M  V30 8696 H 835.092 -1.87386 -2.38998 0
M  V30 8697 H 832.677 -0.972635 -1.13403 0
M  V30 8698 H 834.559 -0.22718 -4.20787 0
M  V30 8699 H 833.234 0.429455 -3.20839 0
M  V30 8700 H 832.141 -1.88777 -3.22977 0
M  V30 8701 H 833.474 -2.4667 -4.25928 0
M  V30 8702 N 835.127 1.22348 -0.993418 0
M  V30 8703 C 836.375 1.90733 -0.668246 0
M  V30 8704 C 836.696 1.77732 0.802261 0
M  V30 8705 O 835.966 1.16486 1.57505 0
M  V30 8706 H 834.546 0.705966 -0.244174 0
M  V30 8707 H 837.208 1.48691 -1.26004 0
M  V30 8708 H 836.304 2.97883 -0.931239 0
M  V30 8709 N 836.605 0.766683 1.37694 0
M  V30 8710 C 837.853 0.328065 1.9942 0
M  V30 8711 C 838.174 -1.09775 1.61166 0
M  V30 8712 O 837.444 -1.75288 0.874686 0
M  V30 8713 H 836.024 0.11831 0.737572 0
M  V30 8714 H 838.686 0.983686 1.68255 0
M  V30 8715 H 837.782 0.401647 3.09505 0
M  V30 8716 N 838.083 -1.48885 0.516809 0
M  V30 8717 C 839.332 -2.01686 -0.0239899 0
M  V30 8718 C 839.645 -1.40029 -1.3657 0
M  V30 8719 O 840.851 -1.84249 -1.9941 0
M  V30 8720 C 839.307 -3.59779 -0.0931825 0
M  V30 8721 C 838.915 -4.30416 1.24283 0
M  V30 8722 C 840.659 -4.20471 -0.583507 0
M  V30 8723 C 838.566 -5.80408 1.13494 0
M  V30 8724 H 837.496 -0.753892 -0.0127376 0
M  V30 8725 H 840.147 -1.71273 0.65861 0
M  V30 8726 H 838.529 -3.86976 -0.840577 0
M  V30 8727 H 839.703 -4.14905 2.00476 0
M  V30 8728 H 838.018 -3.81539 1.66785 0
M  V30 8729 H 840.615 -5.30333 -0.681987 0
M  V30 8730 H 840.958 -3.84898 -1.58617 0
M  V30 8731 H 841.491 -3.97654 0.107814 0
M  V30 8732 H 838.23 -6.20532 2.11235 0
M  V30 8733 H 837.75 -5.98368 0.414167 0
M  V30 8734 H 839.429 -6.41781 0.820162 0
M  V30 8735 N 839.561 -0.251338 -1.55583 0
M  V30 8736 C 840.809 0.371434 -1.98657 0
M  V30 8737 C 841.13 1.58143 -1.14087 0
M  V30 8738 O 840.4 1.94607 -0.224708 0
M  V30 8739 H 838.98 0.140225 -0.733721 0
M  V30 8740 H 841.642 -0.351157 -1.9171 0
M  V30 8741 H 840.738 0.677554 -3.04657 0
M  V30 8742 N 841.039 1.57585 0.0217189 0
M  V30 8743 C 841.949 2.10444 1.03684 0
M  V30 8744 C 842.965 1.04472 1.39146 0
M  V30 8745 O 844.141 1.36249 1.48317 0
M  V30 8746 C 841.206 2.5794 2.31664 0
M  V30 8747 C 840.267 3.78425 2.02714 0
M  V30 8748 C 839.5 4.23646 3.24592 0
M  V30 8749 O 839.723 3.6834 4.35525 0
M  V30 8750 O 838.657 5.16013 3.09862 0
M  V30 8751 H 842.483 2.97354 0.617584 0
M  V30 8752 H 840.068 1.47473 0.239174 0
M  V30 8753 H 841.95 2.88785 3.06889 0
M  V30 8754 H 840.625 1.74138 2.7287 0
M  V30 8755 H 839.532 3.52587 1.25033 0
M  V30 8756 H 840.865 4.63234 1.66359 0
M  V30 8757 N 842.517 -0.29412 1.54831 0
M  V30 8758 C 843.48 -1.3461 1.85507 0
M  V30 8759 C 844.48 -1.43359 0.728343 0
M  V30 8760 O 845.67 -1.42875 0.996609 0
M  V30 8761 C 842.802 -2.73012 2.0415 0
M  V30 8762 H 843.995 -1.08651 2.79526 0
M  V30 8763 H 841.548 -0.531138 1.46999 0
M  V30 8764 H 842.283 -3.04183 1.12441 0
M  V30 8765 H 842.068 -2.68051 2.86166 0
M  V30 8766 H 843.558 -3.49061 2.29229 0
M  V30 8767 N 843.995 -1.47404 -0.557645 0
M  V30 8768 C 845.241 -1.54235 -1.31679 0
M  V30 8769 C 845.574 -0.203782 -1.93128 0
M  V30 8770 O 844.849 0.787536 -1.77843 0
M  V30 8771 C 845.132 -2.66003 -2.42723 0
M  V30 8772 C 844.985 -4.09475 -1.86145 0
M  V30 8773 C 846.304 -2.73685 -3.44652 0
M  V30 8774 H 843.423 -0.561466 -0.477415 0
M  V30 8775 H 846.065 -1.79459 -0.624067 0
M  V30 8776 H 844.215 -2.44627 -3.01811 0
M  V30 8777 H 845.887 -4.42213 -1.31321 0
M  V30 8778 H 844.13 -4.17774 -1.16823 0
M  V30 8779 H 844.801 -4.83451 -2.66418 0
M  V30 8780 H 847.277 -2.92968 -2.95481 0
M  V30 8781 H 846.153 -3.53665 -4.19777 0
M  V30 8782 H 846.414 -1.80726 -4.03473 0
M  V30 8783 N 845.473 0.80434 -1.35529 0
M  V30 8784 C 846.698 1.598 -1.32207 0
M  V30 8785 C 847.123 1.87848 0.0974226 0
M  V30 8786 O 846.481 1.46728 1.06492 0
M  V30 8787 C 846.529 2.90483 -2.13663 0
M  V30 8788 O 845.633 3.83411 -1.51888 0
M  V30 8789 H 844.974 0.485305 -0.453183 0
M  V30 8790 H 847.504 0.998119 -1.78602 0
M  V30 8791 H 847.514 3.39888 -2.257 0
M  V30 8792 H 846.189 2.69395 -3.16859 0
M  V30 8793 H 844.766 3.41967 -1.48704 0
M  V30 8794 N 846.951 1.19563 1.02676 0
M  V30 8795 C 848.176 1.02556 1.80269 0
M  V30 8796 C 848.601 -0.421056 1.83327 0
M  V30 8797 O 847.959 -1.30279 1.26084 0
M  V30 8798 C 848.007 1.60165 3.23078 0
M  V30 8799 O 847.111 0.832404 4.03912 0
M  V30 8800 H 846.452 0.362354 0.556413 0
M  V30 8801 H 848.982 1.58633 1.29216 0
M  V30 8802 H 848.992 1.6347 3.7382 0
M  V30 8803 H 847.667 2.65454 3.20167 0
M  V30 8804 H 846.244 0.872768 3.62543 0
M  V30 8805 N 848.429 -1.21819 0.999893 0
M  V30 8806 C 849.392 -2.22227 0.561044 0
M  V30 8807 C 850.392 -1.56722 -0.359858 0
M  V30 8808 O 851.582 -1.73546 -0.150848 0
M  V30 8809 C 848.714 -3.40409 -0.182987 0
M  V30 8810 H 849.907 -2.62567 1.44909 0
M  V30 8811 H 847.46 -1.34991 0.78785 0
M  V30 8812 H 848.195 -3.05551 -1.08671 0
M  V30 8813 H 847.98 -3.89171 0.47833 0
M  V30 8814 H 849.47 -4.14856 -0.477952 0
M  V30 8815 N 849.908 -0.773975 -1.37286 0
M  V30 8816 C 851.154 -0.339809 -1.99933 0
M  V30 8817 C 851.487 1.0815 -1.61299 0
M  V30 8818 O 850.762 1.74442 -0.860252 0
M  V30 8819 C 851.045 -0.485919 -3.56806 0
M  V30 8820 C 850.898 -1.9498 -4.05343 0
M  V30 8821 C 852.217 0.108461 -4.39966 0
M  V30 8822 H 849.336 -0.124944 -0.726332 0
M  V30 8823 H 851.978 -0.977433 -1.6293 0
M  V30 8824 H 850.128 0.0569023 -3.88458 0
M  V30 8825 H 851.8 -2.5525 -3.84246 0
M  V30 8826 H 850.043 -2.45784 -3.57453 0
M  V30 8827 H 850.714 -2.00308 -5.14374 0
M  V30 8828 H 853.19 -0.354722 -4.14585 0
M  V30 8829 H 852.066 -0.0238926 -5.48895 0
M  V30 8830 H 852.327 1.19901 -4.25531 0
M  V30 8831 N 851.386 1.48609 -0.524698 0
M  V30 8832 C 852.632 2.02797 0.0113382 0
M  V30 8833 C 852.965 1.40147 1.34433 0
M  V30 8834 O 852.24 0.545368 1.86698 0
M  V30 8835 C 852.523 3.59832 0.138931 0
M  V30 8836 C 852.376 4.32971 -1.21886 0
M  V30 8837 C 853.695 4.3145 0.868265 0
M  V30 8838 H 850.814 0.736995 0.00264645 0
M  V30 8839 H 853.456 1.77388 -0.680704 0
M  V30 8840 H 851.606 3.81612 0.72834 0
M  V30 8841 H 853.278 4.22624 -1.84897 0
M  V30 8842 H 851.521 3.94597 -1.80211 0
M  V30 8843 H 852.192 5.41279 -1.08263 0
M  V30 8844 H 854.668 4.14468 0.368145 0
M  V30 8845 H 853.544 5.41025 0.926428 0
M  V30 8846 H 853.805 3.98358 1.91737 0
M  V30 8847 N 852.864 0.259585 1.55447 0
M  V30 8848 C 854.112 -0.360893 1.98852 0
M  V30 8849 C 854.433 -1.57535 1.14924 0
M  V30 8850 O 853.703 -1.94485 0.235025 0
M  V30 8851 H 852.283 -0.136332 0.734454 0
M  V30 8852 H 854.945 0.361319 1.91522 0
M  V30 8853 H 854.041 -0.661388 3.05012 0
M  V30 8854 N 854.342 -1.57594 -0.0133615 0
M  V30 8855 C 855.252 -2.10991 -1.02566 0
M  V30 8856 C 856.268 -1.05208 -1.3859 0
M  V30 8857 O 857.444 -1.37034 -1.47593 0
M  V30 8858 C 854.509 -2.59165 -2.30292 0
M  V30 8859 C 853.57 -3.79495 -2.00704 0
M  V30 8860 C 852.803 -4.25361 -3.22341 0
M  V30 8861 O 853.026 -3.70645 -4.33565 0
M  V30 8862 O 851.96 -5.17649 -3.07121 0
M  V30 8863 H 855.786 -2.97678 -0.601806 0
M  V30 8864 H 853.371 -1.47598 -0.23135 0
M  V30 8865 H 855.253 -2.90409 -3.05354 0
M  V30 8866 H 853.928 -1.75582 -2.71942 0
M  V30 8867 H 852.835 -3.53245 -1.23161 0
M  V30 8868 H 854.168 -4.64109 -1.639 0
M  V30 8869 N 855.82 0.285905 -1.54985 0
M  V30 8870 C 857.231 0.857869 -1.65824 0
M  V30 8871 C 857.582 1.87531 -0.576763 0
M  V30 8872 O 856.707 2.14528 0.284016 0
M  V30 8873 C 857.302 1.56277 -3.00604 0
M  V30 8874 C 855.861 2.08294 -3.13513 0
M  V30 8875 C 855.008 0.920633 -2.61571 0
M  V30 8876 H 857.959 0.0625463 -1.58577 0
M  V30 8877 H 857.98 2.42912 -2.92872 0
M  V30 8878 H 857.492 0.822017 -3.79295 0
M  V30 8879 H 855.593 2.8537 -2.39572 0
M  V30 8880 H 855.706 2.3071 -4.19892 0
M  V30 8881 H 854.07 1.31043 -2.18403 0
M  V30 8882 H 854.853 0.193594 -3.42754 0
M  V30 8883 N 857.298 1.47698 0.54982 0
M  V30 8884 C 858.546 1.54397 1.30407 0
M  V30 8885 C 858.867 0.211026 1.93855 0
M  V30 8886 O 858.137 -0.765701 1.80316 0
M  V30 8887 H 856.717 0.568747 0.484289 0
M  V30 8888 H 859.379 1.84042 0.641444 0
M  V30 8889 H 858.475 2.31449 2.09375 0
M  V30 8890 N 858.776 -0.797141 1.35954 0
M  V30 8891 C 860.025 -1.54983 1.29086 0
M  V30 8892 C 860.338 -1.95167 -0.130003 0
M  V30 8893 O 861.544 -2.69596 -0.32101 0
M  V30 8894 C 860 -2.79738 2.26439 0
M  V30 8895 C 859.608 -2.46753 3.73921 0
M  V30 8896 C 861.352 -3.57733 2.28533 0
M  V30 8897 C 859.259 -3.67858 4.63071 0
M  V30 8898 H 858.189 -0.581766 0.479651 0
M  V30 8899 H 860.84 -0.87541 1.61273 0
M  V30 8900 H 859.222 -3.48939 1.87236 0
M  V30 8901 H 860.396 -1.85499 4.21814 0
M  V30 8902 H 858.711 -1.81985 3.74527 0
M  V30 8903 H 861.308 -4.47699 2.92351 0
M  V30 8904 H 861.651 -3.95754 1.29169 0
M  V30 8905 H 862.184 -2.95504 2.66313 0
M  V30 8906 H 858.923 -3.34939 5.63468 0
M  V30 8907 H 858.443 -4.28305 4.19898 0
M  V30 8908 H 860.122 -4.34977 4.78961 0
M  V30 8909 N 860.254 -1.20106 -1.0204 0
M  V30 8910 C 861.482 -1.0344 -1.79186 0
M  V30 8911 C 861.897 0.416542 -1.84148 0
M  V30 8912 O 861.254 1.28925 -1.29168 0
M  V30 8913 C 861.305 -1.60663 -3.23836 0
M  V30 8914 O 861.026 -3.00079 -3.19193 0
M  V30 8915 C 862.527 -1.48897 -4.17546 0
M  V30 8916 H 859.747 -0.364093 -0.563629 0
M  V30 8917 H 862.291 -1.5911 -1.28469 0
M  V30 8918 H 860.446 -1.09122 -3.71714 0
M  V30 8919 H 860.86 -3.27162 -4.09958 0
M  V30 8920 H 862.334 -1.93703 -5.16898 0
M  V30 8921 H 862.811 -0.440843 -4.36982 0
M  V30 8922 H 863.417 -1.9961 -3.75547 0
M  V30 8923 N 861.732 1.21287 -1.00634 0
M  V30 8924 C 862.978 1.90671 -0.690822 0
M  V30 8925 C 863.311 1.77996 0.776592 0
M  V30 8926 O 862.586 1.15748 1.5631 0
M  V30 8927 C 862.869 3.42426 -1.11428 0
M  V30 8928 C 862.722 3.64086 -2.64124 0
M  V30 8929 C 864.041 4.34851 -0.677686 0
M  V30 8930 H 861.16 0.692419 -0.252439 0
M  V30 8931 H 863.802 1.42893 -1.25226 0
M  V30 8932 H 861.952 3.83249 -0.636586 0
M  V30 8933 H 863.624 3.32582 -3.19667 0
M  V30 8934 H 861.867 3.07906 -3.05576 0
M  V30 8935 H 862.538 4.7042 -2.88806 0
M  V30 8936 H 865.014 4.01619 -1.0882 0
M  V30 8937 H 863.89 5.39675 -1.00213 0
M  V30 8938 H 864.151 4.4009 0.421125 0
M  V30 8939 N 863.21 0.781244 1.36873 0
M  V30 8940 C 864.438 0.361566 2.03716 0
M  V30 8941 C 864.853 -1.01937 1.58916 0
M  V30 8942 O 864.21 -1.65237 0.774783 0
M  V30 8943 C 864.261 0.406391 3.59208 0
M  V30 8944 O 863.982 1.73286 4.02372 0
M  V30 8945 C 865.483 -0.0236894 4.43294 0
M  V30 8946 H 862.703 0.150133 0.653988 0
M  V30 8947 H 865.247 1.05781 1.75016 0
M  V30 8948 H 863.402 -0.241364 3.86647 0
M  V30 8949 H 863.816 1.67804 4.96933 0
M  V30 8950 H 865.29 0.0588205 5.51969 0
M  V30 8951 H 865.767 -1.07529 4.25833 0
M  V30 8952 H 866.373 0.59624 4.211 0
M  V30 8953 N 864.689 -1.48329 0.532571 0
M  V30 8954 C 865.639 -2.2664 -0.24868 0
M  V30 8955 C 866.623 -1.32861 -0.907563 0
M  V30 8956 O 867.815 -1.57382 -0.809942 0
M  V30 8957 C 864.944 -3.18004 -1.29339 0
M  V30 8958 C 864.03 -4.19256 -0.639166 0
M  V30 8959 N 864.421 -5.05043 0.276597 0
M  V30 8960 C 862.719 -4.36906 -0.896062 0
M  V30 8961 C 863.42 -5.78009 0.654261 0
M  V30 8962 N 862.396 -5.43598 0.0147447 0
M  V30 8963 H 866.198 -2.90344 0.455792 0
M  V30 8964 H 863.712 -1.58566 0.350778 0
M  V30 8965 H 865.709 -3.72767 -1.86682 0
M  V30 8966 H 864.369 -2.55855 -1.99921 0
M  V30 8967 H 865.38 -5.13813 0.649351 0
M  V30 8968 H 862.057 -3.85945 -1.59226 0
M  V30 8969 H 863.447 -6.57039 1.40532 0
M  V30 8970 N 866.167 -0.267825 -1.55308 0
M  V30 8971 C 867.097 0.616585 -2.25212 0
M  V30 8972 C 868.078 1.16472 -1.23969 0
M  V30 8973 O 869.263 1.20021 -1.52672 0
M  V30 8974 C 866.393 1.80412 -2.96764 0
M  V30 8975 C 865.347 1.38784 -4.04874 0
M  V30 8976 C 864.673 2.65789 -4.63961 0
M  V30 8977 C 865.973 0.543415 -5.19465 0
M  V30 8978 H 867.667 0.0336257 -2.99381 0
M  V30 8979 H 865.213 0.0147328 -1.43992 0
M  V30 8980 H 867.166 2.42866 -3.44375 0
M  V30 8981 H 865.89 2.4128 -2.20118 0
M  V30 8982 H 864.549 0.786541 -3.58063 0
M  V30 8983 H 864.197 3.24899 -3.83992 0
M  V30 8984 H 863.897 2.38651 -5.36954 0
M  V30 8985 H 865.421 3.29104 -5.14318 0
M  V30 8986 H 866.835 1.07277 -5.63174 0
M  V30 8987 H 865.232 0.367219 -5.98975 0
M  V30 8988 H 866.302 -0.439534 -4.82904 0
M  V30 8989 N 867.645 1.57599 0.00500368 0
M  V30 8990 C 868.608 2.07058 0.982832 0
M  V30 8991 C 869.608 0.979045 1.27559 0
M  V30 8992 O 870.798 1.24187 1.22161 0
M  V30 8993 C 867.93 2.50782 2.30914 0
M  V30 8994 H 869.123 2.94718 0.555119 0
M  V30 8995 H 866.676 1.54249 0.25237 0
M  V30 8996 H 867.411 1.66351 2.78385 0
M  V30 8997 H 867.196 3.30495 2.10987 0
M  V30 8998 H 868.686 2.89391 3.0107 0
M  V30 8999 N 869.123 -0.277682 1.55134 0
M  V30 9000 C 870.369 -1.0114 1.7578 0
M  V30 9001 C 870.702 -1.86109 0.554719 0
M  V30 9002 O 869.977 -1.89275 -0.447813 0
M  V30 9003 C 870.26 -1.89789 3.06027 0
M  V30 9004 C 870.113 -1.07844 4.3668 0
M  V30 9005 C 871.432 -2.88577 3.32282 0
M  V30 9006 H 868.551 -0.366277 0.639539 0
M  V30 9007 H 871.193 -0.284155 1.87863 0
M  V30 9008 H 869.343 -2.51796 2.95856 0
M  V30 9009 H 871.015 -0.479432 4.58802 0
M  V30 9010 H 869.258 -0.381764 4.32117 0
M  V30 9011 H 869.929 -1.73179 5.24131 0
M  V30 9012 H 872.405 -2.36702 3.42215 0
M  V30 9013 H 871.281 -3.47749 4.2469 0
M  V30 9014 H 871.542 -3.63458 2.51696 0
M  V30 9015 N 870.601 -1.47988 -0.541979 0
M  V30 9016 C 871.549 -1.62044 -1.66867 0
M  V30 9017 C 872.543 -0.487217 -1.62242 0
M  V30 9018 O 873.749 -0.66554 -1.67244 0
M  V30 9019 H 870.124 -0.51024 -0.552412 0
M  V30 9020 H 872.095 -2.56695 -1.52153 0
M  V30 9021 C 870.844 -1.66615 -3.0518 0
M  V30 9022 H 870.167 -2.5317 -3.09427 0
M  V30 9023 H 871.607 -1.80496 -3.83663 0
M  V30 9024 C 870.066 -0.402421 -3.34488 0
M  V30 9025 O 870.596 0.48992 -3.98701 0
M  V30 9026 N 868.802 -0.277778 -2.89269 0
M  V30 9027 H 868.349 -1.00488 -2.37192 0
M  V30 9028 H 868.307 0.566784 -3.09249 0
M  V30 9029 N 872.079 0.78992 -1.36375 0
M  V30 9030 C 873.495 1.0879 -1.16777 0
M  V30 9031 C 873.695 2.01498 0.00848236 0
M  V30 9032 O 872.751 2.43338 0.674007 0
M  V30 9033 C 874.064 1.70285 -2.47837 0
M  V30 9034 C 875.612 1.82629 -2.54196 0
M  V30 9035 C 876.087 2.47539 -3.85342 0
M  V30 9036 N 877.578 2.55008 -3.86685 0
M  V30 9037 C 878.313 3.06041 -4.84898 0
M  V30 9038 N 877.809 3.57385 -5.93505 0
M  V30 9039 N 879.602 3.04748 -4.72319 0
M  V30 9040 H 871.753 0.173985 -2.11686 0
M  V30 9041 H 874.016 0.139798 -0.937636 0
M  V30 9042 H 873.722 1.09633 -3.34176 0
M  V30 9043 H 873.596 2.69799 -2.63607 0
M  V30 9044 H 875.983 2.42419 -1.68276 0
M  V30 9045 H 876.064 0.81923 -2.42327 0
M  V30 9046 H 875.708 1.88393 -4.71668 0
M  V30 9047 H 875.638 3.48815 -3.94507 0
M  V30 9048 H 878.129 2.18651 -3.08221 0
M  V30 9049 H 878.442 3.94674 -6.64419 0
M  V30 9050 H 876.787 3.55538 -5.97175 0
M  V30 9051 H 879.978 2.63925 -3.86602 0
M  V30 9052 H 880.151 3.44212 -5.49019 0
M  V30 9053 N 873.557 1.20646 1.01402 0
M  V30 9054 C 874.803 1.0197 1.753 0
M  V30 9055 C 875.136 -0.446803 1.8899 0
M  V30 9056 O 874.411 -1.33169 1.41762 0
M  V30 9057 C 874.694 1.70693 3.17074 0
M  V30 9058 C 874.547 3.24805 3.11162 0
M  V30 9059 C 875.866 1.44212 4.15802 0
M  V30 9060 H 872.985 0.371844 0.636318 0
M  V30 9061 H 875.627 1.48696 1.18277 0
M  V30 9062 H 873.777 1.30968 3.65759 0
M  V30 9063 H 875.449 3.73841 2.70261 0
M  V30 9064 H 873.692 3.55576 2.48492 0
M  V30 9065 H 874.363 3.68049 4.11393 0
M  V30 9066 H 876.839 1.7868 3.75783 0
M  V30 9067 H 875.715 1.94825 5.13161 0
M  V30 9068 H 875.976 0.370252 4.40547 0
M  V30 9069 N 875.035 -1.20752 1.01276 0
M  V30 9070 C 876.446 -1.7175 0.732033 0
M  V30 9071 C 876.797 -1.8131 -0.749733 0
M  V30 9072 O 875.922 -1.47301 -1.58529 0
M  V30 9073 C 876.517 -3.11936 1.32217 0
M  V30 9074 C 875.076 -3.6026 1.09039 0
M  V30 9075 C 874.223 -2.37571 1.43022 0
M  V30 9076 H 877.174 -1.0582 1.1827 0
M  V30 9077 H 877.195 -3.73802 0.710771 0
M  V30 9078 H 876.707 -3.04946 2.40061 0
M  V30 9079 H 874.808 -3.72588 0.0294464 0
M  V30 9080 H 874.921 -4.45295 1.76775 0
M  V30 9081 H 873.285 -2.40128 0.849159 0
M  V30 9082 H 874.068 -2.33225 2.51915 0
M  V30 9083 N 876.513 -0.788492 -1.36457 0
M  V30 9084 C 877.929 -0.470063 -1.52521 0
M  V30 9085 C 878.129 1.01176 -1.74258 0
M  V30 9086 O 877.185 1.79726 -1.77355 0
M  V30 9087 C 878.498 -1.2997 -2.71161 0
M  V30 9088 C 880.046 -1.2933 -2.85031 0
M  V30 9089 C 880.521 -2.10665 -4.06674 0
M  V30 9090 N 882.012 -2.08107 -4.13819 0
M  V30 9091 C 882.747 -2.6781 -5.07016 0
M  V30 9092 N 882.243 -3.36369 -6.05663 0
M  V30 9093 N 884.036 -2.57549 -4.99625 0
M  V30 9094 H 876.187 -1.7484 -1.20602 0
M  V30 9095 H 878.45 -0.743159 -0.588574 0
M  V30 9096 H 878.156 -2.35051 -2.61618 0
M  V30 9097 H 878.03 -0.940367 -3.6529 0
M  V30 9098 H 880.417 -0.250414 -2.94036 0
M  V30 9099 H 880.498 -1.69239 -1.91812 0
M  V30 9100 H 880.142 -3.14984 -3.98431 0
M  V30 9101 H 880.072 -1.68128 -4.9904 0
M  V30 9102 H 882.563 -1.58208 -3.43189 0
M  V30 9103 H 882.876 -3.79258 -6.73338 0
M  V30 9104 H 881.221 -3.40471 -6.05891 0
M  V30 9105 H 884.412 -2.0359 -4.21508 0
M  V30 9106 H 884.585 -3.0437 -5.72069 0
M  V30 9107 N 877.991 1.48044 -0.54043 0
M  V30 9108 C 879.216 2.07396 -0.0124765 0
M  V30 9109 C 879.641 1.39288 1.26414 0
M  V30 9110 O 878.999 0.462252 1.75308 0
M  V30 9111 C 879.047 3.60131 0.18377 0
M  V30 9112 O 878.151 3.92995 1.25014 0
M  V30 9113 H 877.492 0.662554 -0.0438026 0
M  V30 9114 H 880.022 1.90306 -0.751327 0
M  V30 9115 H 880.032 4.06003 0.403197 0
M  V30 9116 H 878.707 4.09105 -0.74874 0
M  V30 9117 H 877.284 3.5889 1.01254 0
M  V30 9118 N 879.47 0.276058 1.55163 0
M  V30 9119 C 880.718 -0.339782 1.99223 0
M  V30 9120 C 881.039 -1.56307 1.16589 0
M  V30 9121 O 880.309 -1.94225 0.25564 0
M  V30 9122 H 878.889 -0.128534 0.735859 0
M  V30 9123 H 881.551 0.381612 1.91128 0
M  V30 9124 H 880.647 -0.629 3.05696 0
M  V30 9125 N 880.948 -1.576 0.00335426 0
M  V30 9126 C 881.895 -2.08632 -0.986975 0
M  V30 9127 C 882.865 -0.982491 -1.33927 0
M  V30 9128 O 884.05 -1.25513 -1.43705 0
M  V30 9129 C 881.19 -2.59705 -2.27261 0
M  V30 9130 C 880.303 -3.84002 -1.97905 0
M  V30 9131 C 879.438 -4.23563 -3.20574 0
M  V30 9132 C 878.477 -5.40688 -2.8692 0
M  V30 9133 N 877.614 -5.75526 -4.02136 0
M  V30 9134 H 882.454 -2.92977 -0.544855 0
M  V30 9135 H 879.991 -1.44831 -0.257376 0
M  V30 9136 H 881.949 -2.87395 -3.02423 0
M  V30 9137 H 880.579 -1.7823 -2.69136 0
M  V30 9138 H 879.631 -3.63199 -1.13096 0
M  V30 9139 H 880.943 -4.69261 -1.69102 0
M  V30 9140 H 880.097 -4.52554 -4.04079 0
M  V30 9141 H 878.836 -3.37019 -3.52518 0
M  V30 9142 H 877.841 -5.11417 -2.01822 0
M  V30 9143 H 879.066 -6.2891 -2.5622 0
M  V30 9144 H 877.012 -4.9194 -4.33971 0
M  V30 9145 H 876.929 -6.55367 -3.76869 0
M  V30 9146 H 878.197 -6.0911 -4.8642 0
M  V30 9147 N 882.426 0.269451 -1.5528 0
M  V30 9148 C 883.837 0.840233 -1.66724 0
M  V30 9149 C 884.188 1.86909 -0.596621 0
M  V30 9150 O 883.313 2.14817 0.261246 0
M  V30 9151 C 883.908 1.5308 -3.02245 0
M  V30 9152 C 882.467 2.04957 -3.15705 0
M  V30 9153 C 881.614 0.892838 -2.62533 0
M  V30 9154 H 884.565 0.0457236 -1.58634 0
M  V30 9155 H 884.586 2.39792 -2.95432 0
M  V30 9156 H 884.098 0.781741 -3.80145 0
M  V30 9157 H 882.199 2.82813 -2.42585 0
M  V30 9158 H 882.312 2.26244 -4.22316 0
M  V30 9159 H 880.676 1.28719 -2.19781 0
M  V30 9160 H 881.459 0.157229 -3.4294 0
M  V30 9161 N 883.904 1.48273 0.534124 0
M  V30 9162 C 884.867 1.6201 1.62127 0
M  V30 9163 C 885.867 0.493653 1.53035 0
M  V30 9164 O 887.057 0.759337 1.56779 0
M  V30 9165 C 884.189 1.5864 3.01739 0
M  V30 9166 H 885.382 2.58944 1.51288 0
M  V30 9167 H 882.935 1.36808 0.755861 0
M  V30 9168 H 883.67 0.631685 3.18088 0
M  V30 9169 H 883.455 2.40415 3.09747 0
M  V30 9170 H 884.945 1.71438 3.80787 0
M  V30 9171 N 885.382 -0.782676 1.36792 0
M  V30 9172 C 886.292 -1.92679 1.33835 0
M  V30 9173 C 887.308 -1.72344 0.23952 0
M  V30 9174 O 888.484 -1.95766 0.473045 0
M  V30 9175 C 885.549 -3.27644 1.1336 0
M  V30 9176 C 884.61 -3.6071 2.32781 0
M  V30 9177 C 883.843 -4.89234 2.13273 0
M  V30 9178 O 884.066 -5.59468 1.11136 0
M  V30 9179 O 883 -5.21112 3.01208 0
M  V30 9180 H 886.826 -1.98124 2.30175 0
M  V30 9181 H 884.411 -0.923887 1.17408 0
M  V30 9182 H 886.293 -4.08394 1.03886 0
M  V30 9183 H 884.968 -3.23076 0.200868 0
M  V30 9184 H 883.875 -2.80238 2.47825 0
M  V30 9185 H 885.208 -3.70008 3.24584 0
M  V30 9186 N 886.86 -1.21182 -1.00761 0
M  V30 9187 C 887.79 -0.992773 -2.11344 0
M  V30 9188 C 888.771 0.0813618 -1.69905 0
M  V30 9189 O 889.956 -0.0779503 -1.94043 0
M  V30 9190 C 887.086 -0.553826 -3.42856 0
M  V30 9191 C 886.04 -1.57223 -3.98077 0
M  V30 9192 C 885.366 -0.989605 -5.25463 0
M  V30 9193 C 886.666 -2.95839 -4.30438 0
M  V30 9194 H 888.36 -1.91766 -2.29927 0
M  V30 9195 H 885.906 -0.923426 -1.10494 0
M  V30 9196 H 887.859 -0.387771 -4.19612 0
M  V30 9197 H 886.583 0.406702 -3.24058 0
M  V30 9198 H 885.242 -1.7258 -3.23437 0
M  V30 9199 H 884.89 -0.0208743 -5.02996 0
M  V30 9200 H 884.59 -1.66984 -5.63374 0
M  V30 9201 H 886.114 -0.834815 -6.04866 0
M  V30 9202 H 887.528 -2.8394 -4.98047 0
M  V30 9203 H 885.925 -3.60851 -4.79486 0
M  V30 9204 H 886.995 -3.46882 -3.38823 0
M  V30 9205 N 888.338 1.20213 -1.01915 0
M  V30 9206 C 889.268 2.25336 -0.612023 0
M  V30 9207 C 890.249 1.65933 0.374186 0
M  V30 9208 O 891.434 1.92464 0.259053 0
M  V30 9209 C 888.564 3.47267 0.047904 0
M  V30 9210 C 887.518 4.1928 -0.859557 0
M  V30 9211 C 886.844 5.3466 -0.0652655 0
M  V30 9212 C 888.144 4.75143 -2.1688 0
M  V30 9213 H 889.838 2.59645 -1.49079 0
M  V30 9214 H 887.384 1.24808 -0.718263 0
M  V30 9215 H 889.337 4.19991 0.344294 0
M  V30 9216 H 888.061 3.12129 0.961404 0
M  V30 9217 H 886.72 3.48425 -1.13999 0
M  V30 9218 H 886.368 4.95767 0.849964 0
M  V30 9219 H 886.068 5.83772 -0.669618 0
M  V30 9220 H 887.592 6.10187 0.224612 0
M  V30 9221 H 889.006 5.39672 -1.9346 0
M  V30 9222 H 887.403 5.34702 -2.72422 0
M  V30 9223 H 888.473 3.93744 -2.83008 0
M  V30 9224 N 889.816 0.795718 1.36037 0
M  V30 9225 C 890.763 0.196548 2.29962 0
M  V30 9226 C 891.733 -0.663213 1.52285 0
M  V30 9227 O 892.918 -0.610574 1.80767 0
M  V30 9228 C 890.058 -0.657639 3.38776 0
M  V30 9229 C 889.171 0.221358 4.31433 0
M  V30 9230 C 888.306 -0.6398 5.27333 0
M  V30 9231 C 887.345 0.240265 6.11628 0
M  V30 9232 N 886.482 -0.580237 6.99698 0
M  V30 9233 H 891.322 1.00295 2.80615 0
M  V30 9234 H 888.859 0.506147 1.38118 0
M  V30 9235 H 890.817 -1.16793 4.00519 0
M  V30 9236 H 889.447 -1.42941 2.89426 0
M  V30 9237 H 888.499 0.84967 3.70789 0
M  V30 9238 H 889.811 0.899195 4.90628 0
M  V30 9239 H 888.965 -1.21566 5.94396 0
M  V30 9240 H 887.704 -1.35124 4.68607 0
M  V30 9241 H 886.709 0.828474 5.43522 0
M  V30 9242 H 887.934 0.949403 6.72431 0
M  V30 9243 H 885.88 -1.27585 6.43473 0
M  V30 9244 H 885.797 0.0397853 7.5599 0
M  V30 9245 H 887.065 -1.13972 7.71123 0
M  V30 9246 N 891.294 -1.47756 0.548274 0
M  V30 9247 C 892.227 -2.26804 -0.252059 0
M  V30 9248 C 893.205 -1.3349 -0.928389 0
M  V30 9249 O 894.389 -1.6286 -0.949156 0
M  V30 9250 C 891.516 -3.10266 -1.35841 0
M  V30 9251 C 890.562 -4.1909 -0.791578 0
M  V30 9252 S 891.395 -5.34323 0.354878 0
M  V30 9253 C 892.551 -6.21348 -0.753511 0
M  V30 9254 H 892.784 -2.94336 0.418744 0
M  V30 9255 H 890.317 -1.50735 0.334413 0
M  V30 9256 H 892.275 -3.58925 -1.99207 0
M  V30 9257 H 890.936 -2.42112 -2.00101 0
M  V30 9258 H 890.129 -4.77183 -1.62212 0
M  V30 9259 H 889.731 -3.73266 -0.234274 0
M  V30 9260 H 892.023 -6.57156 -1.6478 0
M  V30 9261 H 892.966 -7.07788 -0.210141 0
M  V30 9262 H 893.374 -5.54797 -1.04216 0
M  V30 9263 N 892.772 -0.284283 -1.55015 0
M  V30 9264 C 894.019 0.329864 -1.99795 0
M  V30 9265 C 894.347 1.55171 -1.1727 0
M  V30 9266 O 893.602 1.94312 -0.232667 0
M  V30 9267 C 893.901 0.747219 -3.49502 0
M  V30 9268 C 893.567 -0.37101 -4.49371 0
M  V30 9269 C 892.229 -0.678034 -4.76399 0
M  V30 9270 C 894.581 -1.12406 -5.08935 0
M  V30 9271 C 891.909 -1.74152 -5.60257 0
M  V30 9272 C 894.261 -2.17734 -5.93948 0
M  V30 9273 C 892.925 -2.49061 -6.19294 0
M  V30 9274 H 892.195 0.120706 -0.731103 0
M  V30 9275 H 894.842 -0.399904 -1.87278 0
M  V30 9276 H 893.147 1.55681 -3.59542 0
M  V30 9277 H 894.844 1.2333 -3.81563 0
M  V30 9278 H 891.434 -0.1216 -4.28427 0
M  V30 9279 H 895.618 -0.900119 -4.88069 0
M  V30 9280 H 890.874 -1.98915 -5.78137 0
M  V30 9281 H 895.048 -2.76553 -6.39133 0
M  V30 9282 H 892.675 -3.31602 -6.84064 0
M  V30 9283 N 894.251 1.57596 -0.0117121 0
M  V30 9284 C 895.499 1.90694 0.669342 0
M  V30 9285 C 895.82 0.886999 1.73659 0
M  V30 9286 O 895.09 -0.0739779 1.9576 0
M  V30 9287 H 893.67 0.703846 0.250219 0
M  V30 9288 H 896.332 1.94821 -0.0554057 0
M  V30 9289 H 895.428 2.90802 1.13316 0
M  V30 9290 N 895.729 -0.261212 1.5542 0
M  V30 9291 C 896.978 -0.989072 1.75785 0
M  V30 9292 C 897.291 -1.8702 0.572961 0
M  V30 9293 O 898.497 -2.63374 0.659289 0
M  V30 9294 C 896.953 -1.80857 3.11157 0
M  V30 9295 C 896.561 -0.975535 4.3725 0
M  V30 9296 C 898.305 -2.53003 3.40866 0
M  V30 9297 C 896.212 -1.7901 5.63657 0
M  V30 9298 H 895.142 -0.373019 0.655266 0
M  V30 9299 H 897.793 -0.244267 1.81867 0
M  V30 9300 H 896.175 -2.59479 2.99144 0
M  V30 9301 H 897.349 -0.232661 4.60212 0
M  V30 9302 H 895.664 -0.368083 4.1477 0
M  V30 9303 H 898.261 -3.14372 4.32521 0
M  V30 9304 H 898.604 -3.23891 2.61535 0
M  V30 9305 H 899.137 -1.81403 3.54031 0
M  V30 9306 H 895.876 -1.12522 6.4577 0
M  V30 9307 H 895.396 -2.50863 5.44819 0
M  V30 9308 H 897.075 -2.36082 6.0239 0
M  V30 9309 N 897.207 -1.48554 -0.526253 0
M  V30 9310 C 898.484 -1.47252 -1.28748 0
M  V30 9311 C 898.864 -0.186245 -2.10277 0
M  V30 9312 O 898.212 0.831954 -2.12816 0
M  V30 9313 C 898.422 -2.73672 -2.16575 0
M  V30 9314 C 899.77 -3.22151 -2.76593 0
M  V30 9315 O 900.794 -2.74614 -2.2686 0
M  V30 9316 O 899.653 -4.04877 -3.67066 0
M  V30 9317 H 896.747 -0.588242 -0.581292 0
M  V30 9318 H 899.293 -1.60792 -0.5426 0
M  V30 9319 H 898.065 -3.58798 -1.56139 0
M  V30 9320 H 897.688 -2.6287 -2.98304 0
M  V30 9321 N 898.685 0.775411 -1.37205 0
M  V30 9322 C 900.101 1.07546 -1.17924 0
M  V30 9323 C 900.301 2.01496 -0.0128897 0
M  V30 9324 O 899.357 2.44039 0.64816 0
M  V30 9325 C 900.67 1.67647 -2.49629 0
M  V30 9326 C 902.218 1.79923 -2.56119 0
M  V30 9327 C 902.693 2.43438 -3.87946 0
M  V30 9328 N 904.184 2.50893 -3.89368 0
M  V30 9329 C 904.919 3.00881 -4.88117 0
M  V30 9330 N 904.415 3.5107 -5.97262 0
M  V30 9331 N 906.208 2.99722 -4.75524 0
M  V30 9332 H 898.359 0.151524 -2.11859 0
M  V30 9333 H 900.622 0.129845 -0.939066 0
M  V30 9334 H 900.328 1.06082 -3.3532 0
M  V30 9335 H 900.202 2.66988 -2.66453 0
M  V30 9336 H 902.589 2.40621 -1.70838 0
M  V30 9337 H 902.67 0.793482 -2.43182 0
M  V30 9338 H 902.314 1.8338 -4.73639 0
M  V30 9339 H 902.244 3.44611 -3.98184 0
M  V30 9340 H 904.735 2.1537 -3.10522 0
M  V30 9341 H 905.048 3.87604 -6.68568 0
M  V30 9342 H 903.393 3.49184 -6.00912 0
M  V30 9343 H 906.584 2.5981 -3.8938 0
M  V30 9344 H 906.757 3.38369 -5.52639 0
M  V30 9345 N 900.163 1.21714 1.00117 0
M  V30 9346 C 901.44 0.945391 1.71236 0
M  V30 9347 C 901.82 -0.541772 2.0403 0
M  V30 9348 O 901.168 -1.50763 1.71705 0
M  V30 9349 C 901.378 1.83444 2.96899 0
M  V30 9350 C 902.726 2.08558 3.69849 0
M  V30 9351 O 903.75 1.80824 3.06889 0
M  V30 9352 O 902.609 2.55485 4.83104 0
M  V30 9353 H 899.703 0.354834 0.747009 0
M  V30 9354 H 902.249 1.32661 1.05825 0
M  V30 9355 H 901.021 2.84075 2.69105 0
M  V30 9356 H 900.644 1.45428 3.70049 0
M  V30 9357 N 901.641 -1.19671 1.02551 0
M  V30 9358 C 902.604 -2.20987 0.608055 0
M  V30 9359 C 903.604 -1.5745 -0.326534 0
M  V30 9360 O 904.794 -1.73827 -0.114003 0
M  V30 9361 C 901.926 -3.4072 -0.11074 0
M  V30 9362 H 903.119 -2.59434 1.50446 0
M  V30 9363 H 900.672 -1.3329 0.816307 0
M  V30 9364 H 901.407 -3.07787 -1.02165 0
M  V30 9365 H 901.192 -3.88069 0.560772 0
M  V30 9366 H 902.682 -4.15776 -0.389848 0
M  V30 9367 N 903.119 -0.802921 -1.35613 0
M  V30 9368 C 904.368 -0.378087 -1.98125 0
M  V30 9369 C 904.681 1.05953 -1.64418 0
M  V30 9370 O 905.887 1.58729 -2.20266 0
M  V30 9371 C 904.343 -0.625077 -3.5443 0
M  V30 9372 C 903.951 -2.07499 -3.97049 0
M  V30 9373 C 905.695 -0.265419 -4.23669 0
M  V30 9374 C 903.602 -2.26793 -5.46186 0
M  V30 9375 H 902.532 -0.137633 -0.741332 0
M  V30 9376 H 905.183 -0.986461 -1.54729 0
M  V30 9377 H 903.565 0.0531975 -3.95964 0
M  V30 9378 H 904.739 -2.79077 -3.66678 0
M  V30 9379 H 903.054 -2.39417 -3.40688 0
M  V30 9380 H 905.651 -0.387669 -5.33293 0
M  V30 9381 H 905.994 0.787994 -4.08774 0
M  V30 9382 H 906.527 -0.897464 -3.87544 0
M  V30 9383 H 903.266 -3.30566 -5.66045 0
M  V30 9384 H 902.786 -1.59735 -5.78139 0
M  V30 9385 H 904.465 -2.08165 -6.12598 0
M  V30 9386 N 904.597 1.47463 -0.556102 0
M  V30 9387 C 905.56 2.28478 0.181743 0
M  V30 9388 C 906.56 1.36886 0.843738 0
M  V30 9389 O 907.75 1.59527 0.69977 0
M  V30 9390 C 904.882 3.16534 1.26566 0
M  V30 9391 H 906.075 2.95182 -0.529892 0
M  V30 9392 H 903.628 1.53134 -0.313005 0
M  V30 9393 H 904.363 2.5452 2.00973 0
M  V30 9394 H 904.148 3.83939 0.795798 0
M  V30 9395 H 905.638 3.77579 1.78393 0
M  V30 9396 N 906.075 0.2925 1.54862 0
M  V30 9397 C 907.007 -0.620889 2.2063 0
M  V30 9398 C 908.02 -1.10412 1.19637 0
M  V30 9399 O 909.209 -1.02304 1.46274 0
M  V30 9400 C 906.309 -1.861 2.83232 0
M  V30 9401 C 905.482 -1.52168 4.10078 0
M  V30 9402 C 904.541 -2.61605 4.56562 0
M  V30 9403 O 903.567 -2.27056 5.21952 0
M  V30 9404 N 904.769 -3.9199 4.28163 0
M  V30 9405 H 907.534 -0.0579028 2.99644 0
M  V30 9406 H 905.095 0.114333 1.61496 0
M  V30 9407 H 907.087 -2.58642 3.11266 0
M  V30 9408 H 905.657 -2.33259 2.08108 0
M  V30 9409 H 904.877 -0.629283 3.89145 0
M  V30 9410 H 906.165 -1.27023 4.92689 0
M  V30 9411 H 905.563 -4.22872 3.7576 0
M  V30 9412 H 904.12 -4.60857 4.60928 0
M  V30 9413 N 907.553 -1.57587 0.0200696 0
M  V30 9414 C 908.516 -2.08595 -0.949767 0
M  V30 9415 C 909.516 -0.999215 -1.25985 0
M  V30 9416 O 910.706 -1.26115 -1.2017 0
M  V30 9417 C 907.838 -2.54424 -2.26895 0
M  V30 9418 H 909.031 -2.95563 -0.508161 0
M  V30 9419 H 906.584 -1.54631 -0.227798 0
M  V30 9420 H 907.319 -1.70758 -2.75703 0
M  V30 9421 H 907.104 -3.3381 -2.05702 0
M  V30 9422 H 908.594 -2.94144 -2.96427 0
M  V30 9423 N 909.032 0.252966 -1.55557 0
M  V30 9424 C 910.278 0.983306 -1.77367 0
M  V30 9425 C 910.611 1.85203 -0.584258 0
M  V30 9426 O 909.886 1.89963 0.417644 0
M  V30 9427 C 910.169 1.84896 -3.09007 0
M  V30 9428 C 910.022 1.00883 -4.38341 0
M  V30 9429 C 911.341 2.83254 -3.36831 0
M  V30 9430 H 908.46 0.356056 -0.645286 0
M  V30 9431 H 911.102 0.254232 -1.88291 0
M  V30 9432 H 909.252 2.47058 -2.99825 0
M  V30 9433 H 910.924 0.40638 -4.59507 0
M  V30 9434 H 909.167 0.31297 -4.3267 0
M  V30 9435 H 909.838 1.64818 -5.2682 0
M  V30 9436 H 912.314 2.31228 -3.45937 0
M  V30 9437 H 911.19 3.40949 -4.30169 0
M  V30 9438 H 911.451 3.59407 -2.57447 0
M  V30 9439 N 910.51 1.48831 0.518367 0
M  V30 9440 C 911.926 1.35209 0.847979 0
M  V30 9441 C 912.126 0.371927 1.98038 0
M  V30 9442 O 911.182 -0.202681 2.51685 0
M  V30 9443 C 912.495 2.7552 1.20455 0
M  V30 9444 C 914.043 2.84094 1.31377 0
M  V30 9445 C 914.518 4.25132 1.70372 0
M  V30 9446 N 916.009 4.27861 1.77453 0
M  V30 9447 C 916.744 5.3394 2.09035 0
M  V30 9448 N 916.24 6.50285 2.3896 0
M  V30 9449 N 918.033 5.21343 2.10139 0
M  V30 9450 H 910.184 2.11166 -0.228624 0
M  V30 9451 H 912.447 0.94717 -0.0396599 0
M  V30 9452 H 912.153 3.48861 0.445991 0
M  V30 9453 H 912.027 3.09785 2.15204 0
M  V30 9454 H 914.414 2.11001 2.06307 0
M  V30 9455 H 914.495 2.53433 0.347203 0
M  V30 9456 H 914.139 4.98745 0.959975 0
M  V30 9457 H 914.069 4.53245 2.68098 0
M  V30 9458 H 916.56 3.43945 1.56557 0
M  V30 9459 H 916.873 7.26961 2.62196 0
M  V30 9460 H 915.218 6.5354 2.36454 0
M  V30 9461 H 918.409 4.29462 1.86225 0
M  V30 9462 H 918.582 6.04112 2.34419 0
M  V30 9463 N 911.988 -0.768124 1.37614 0
M  V30 9464 C 913.236 -1.52379 1.3276 0
M  V30 9465 C 913.557 -1.94809 -0.0863564 0
M  V30 9466 O 912.827 -1.66568 -1.03112 0
M  V30 9467 H 911.407 -0.565179 0.488448 0
M  V30 9468 H 914.069 -0.913974 1.72141 0
M  V30 9469 H 913.165 -2.4215 1.96901 0
M  V30 9470 N 913.466 -1.22244 -0.994698 0
M  V30 9471 C 914.396 -1.01513 -2.10279 0
M  V30 9472 C 915.377 0.0633365 -1.69982 0
M  V30 9473 O 916.562 -0.0985268 -1.9395 0
M  V30 9474 C 913.692 -0.59016 -3.42249 0
M  V30 9475 C 912.646 -1.61436 -3.96387 0
M  V30 9476 C 911.972 -1.04528 -5.24383 0
M  V30 9477 C 913.272 -3.00388 -4.27276 0
M  V30 9478 H 914.966 -1.94194 -2.2788 0
M  V30 9479 H 912.512 -0.935094 -1.09508 0
M  V30 9480 H 914.465 -0.432254 -4.19177 0
M  V30 9481 H 913.189 0.372308 -3.24471 0
M  V30 9482 H 911.848 -1.76001 -3.21589 0
M  V30 9483 H 911.496 -0.0742225 -5.02945 0
M  V30 9484 H 911.196 -1.72949 -5.61571 0
M  V30 9485 H 912.72 -0.898922 -6.03947 0
M  V30 9486 H 914.134 -2.89207 -4.95007 0
M  V30 9487 H 912.531 -3.65916 -4.75631 0
M  V30 9488 H 913.601 -3.50456 -3.35125 0
M  V30 9489 N 914.944 1.19125 -1.03184 0
M  V30 9490 C 916.193 1.8821 -0.725264 0
M  V30 9491 C 916.506 1.80674 0.749411 0
M  V30 9492 O 917.712 2.45037 1.16915 0
M  V30 9493 C 916.168 3.37607 -1.24697 0
M  V30 9494 C 915.776 3.53693 -2.74964 0
M  V30 9495 C 917.52 4.12149 -1.01652 0
M  V30 9496 C 915.427 4.97001 -3.20538 0
M  V30 9497 H 914.357 0.704916 -0.267599 0
M  V30 9498 H 917.008 1.34663 -1.24652 0
M  V30 9499 H 915.39 3.90569 -0.653614 0
M  V30 9500 H 916.564 3.11046 -3.39981 0
M  V30 9501 H 914.879 2.92544 -2.96322 0
M  V30 9502 H 917.476 5.17837 -1.33226 0
M  V30 9503 H 917.819 4.16274 0.0465712 0
M  V30 9504 H 918.352 3.65334 -1.57403 0
M  V30 9505 H 915.091 4.9804 -4.26189 0
M  V30 9506 H 914.611 5.40398 -2.60251 0
M  V30 9507 H 916.29 5.65669 -3.14049 0
M  V30 9508 N 916.422 0.810101 1.35185 0
M  V30 9509 C 917.65 0.404696 2.02903 0
M  V30 9510 C 918.065 -0.985434 1.61042 0
M  V30 9511 O 917.422 -1.63557 0.809658 0
M  V30 9512 C 917.473 0.482493 3.58266 0
M  V30 9513 O 917.194 1.81782 3.98606 0
M  V30 9514 C 918.695 0.070345 4.43244 0
M  V30 9515 H 915.915 0.163972 0.650657 0
M  V30 9516 H 918.459 1.0947 1.72733 0
M  V30 9517 H 916.614 -0.159296 3.87072 0
M  V30 9518 H 917.028 1.78306 4.93262 0
M  V30 9519 H 918.502 0.175888 5.5172 0
M  V30 9520 H 918.979 -0.984724 4.28018 0
M  V30 9521 H 919.585 0.685427 4.1974 0
M  V30 9522 N 917.9 -1.47166 0.563914 0
M  V30 9523 C 918.847 -2.30097 -0.180013 0
M  V30 9524 C 919.817 -1.39473 -0.902019 0
M  V30 9525 O 921.002 -1.68432 -0.896396 0
M  V30 9526 C 918.142 -3.23573 -1.19978 0
M  V30 9527 C 917.255 -4.2929 -0.483149 0
M  V30 9528 C 916.39 -5.0991 -1.48879 0
M  V30 9529 C 915.429 -6.07395 -0.757513 0
M  V30 9530 N 914.566 -6.8095 -1.71031 0
M  V30 9531 H 919.406 -2.93189 0.53329 0
M  V30 9532 H 916.943 -1.4451 0.274814 0
M  V30 9533 H 918.901 -3.76196 -1.80368 0
M  V30 9534 H 917.531 -2.6233 -1.88103 0
M  V30 9535 H 916.583 -3.79671 0.235414 0
M  V30 9536 H 917.895 -4.9872 0.0894075 0
M  V30 9537 H 917.049 -5.66717 -2.16603 0
M  V30 9538 H 915.788 -4.40397 -2.09527 0
M  V30 9539 H 914.793 -5.4976 -0.0663841 0
M  V30 9540 H 916.018 -6.78919 -0.156685 0
M  V30 9541 H 913.964 -6.14162 -2.30524 0
M  V30 9542 H 913.881 -7.46574 -1.19007 0
M  V30 9543 H 915.149 -7.42326 -2.37849 0
M  V30 9544 N 919.378 -0.300708 -1.54705 0
M  V30 9545 C 920.341 0.562648 -2.22187 0
M  V30 9546 C 921.341 1.06152 -1.20782 0
M  V30 9547 O 922.531 0.957596 -1.45519 0
M  V30 9548 C 919.663 1.77899 -2.908 0
M  V30 9549 H 920.856 -0.0269361 -2.99888 0
M  V30 9550 H 918.409 -0.0515412 -1.56215 0
M  V30 9551 H 919.144 2.40841 -2.17177 0
M  V30 9552 H 918.929 1.42892 -3.65136 0
M  V30 9553 H 920.419 2.39236 -3.42281 0
M  V30 9554 O 920.895 1.60631 -0.167301 0
M  V30 9555 H 921.586 1.89022 0.42313 0
M  V30 END ATOM
M  V30 BEGIN BOND
M  V30 END BOND
M  V30 END CTAB
M  END
$$$$
