drugbank_target|P29590 Protein PML (DB01169)
 OpenBabel12092121033D

  0  0  0     0  0            999 V3000
M  V30 BEGIN CTAB
M  V30 COUNTS 13598 13736 0 0 0
M  V30 BEGIN ATOM
M  V30 1 H -0.908 1.98254 -0.117106 0
M  V30 2 N 0 1.576 0 0
M  V30 3 C 0.933 2.03868 1.02534 0
M  V30 4 C 1.911 0.928543 1.3348 0
M  V30 5 O 3.095 1.19667 1.45644 0
M  V30 6 C 0.222 2.43627 2.35294 0
M  V30 7 C -0.732 3.65373 2.2001 0
M  V30 8 S 0.101 5.13292 1.52614 0
M  V30 9 C 1.257 5.56322 2.86805 0
M  V30 10 H 1.49 2.90518 0.631377 0
M  V30 11 H -0.977 1.52953 0.210867 0
M  V30 12 H 0.981 2.67203 3.11629 0
M  V30 13 H -0.358 1.57376 2.7183 0
M  V30 14 H -1.165 3.90944 3.18086 0
M  V30 15 H -1.563 3.418 1.51819 0
M  V30 16 H 0.729 5.58782 3.83104 0
M  V30 17 H 1.672 6.56266 2.65933 0
M  V30 18 H 2.08 4.83886 2.90714 0
M  V30 19 N 1.4781 -0.272755 1.55222 0
M  V30 20 C 2.3881 -1.35918 1.91216 0
M  V30 21 C 3.4041 -1.54026 0.809436 0
M  V30 22 O 4.5801 -1.68148 1.10852 0
M  V30 23 C 1.6451 -2.69834 2.17693 0
M  V30 24 C 0.7061 -2.6047 3.41253 0
M  V30 25 C -0.0609 -3.88 3.66458 0
M  V30 26 O 0.1621 -4.88693 2.94169 0
M  V30 27 O -0.9039 -3.88189 4.59992 0
M  V30 28 H 2.9221 -1.0839 2.83699 0
M  V30 29 H 0.5071 -0.471301 1.41771 0
M  V30 30 H 2.3891 -3.49017 2.36147 0
M  V30 31 H 1.0641 -2.97148 1.28392 0
M  V30 32 H -0.0289 -1.79663 3.28134 0
M  V30 33 H 1.3041 -2.38106 4.30774 0
M  V30 34 N 2.9562 -1.48159 -0.537278 0
M  V30 35 C 4.3672 -1.49429 -1.11928 0
M  V30 36 C 4.7182 -0.26 -1.9447 0
M  V30 37 O 3.8432 0.633489 -2.0692 0
M  V30 38 C 4.4382 -2.70758 -2.03656 0
M  V30 39 C 2.9972 -2.74923 -2.57088 0
M  V30 40 C 2.1442 -2.42835 -1.3389 0
M  V30 41 H 5.0952 -1.55381 -0.322886 0
M  V30 42 H 5.1162 -2.48861 -2.87834 0
M  V30 43 H 4.6282 -3.60575 -1.43553 0
M  V30 44 H 2.7292 -1.89296 -3.20933 0
M  V30 45 H 2.8422 -3.76157 -2.9672 0
M  V30 46 H 1.2062 -1.93836 -1.65226 0
M  V30 47 H 1.9892 -3.34884 -0.755504 0
M  V30 48 N 4.4343 0.785586 -1.36625 0
M  V30 49 C 5.3973 1.87999 -1.31107 0
M  V30 50 C 6.3973 1.59316 -0.217959 0
M  V30 51 O 7.5873 1.67656 -0.472977 0
M  V30 52 C 4.7193 3.24861 -1.03334 0
M  V30 53 H 5.9123 1.94307 -2.2844 0
M  V30 54 H 3.4653 0.983813 -1.21453 0
M  V30 55 H 4.2003 3.24235 -0.0647432 0
M  V30 56 H 3.9853 3.4707 -1.82441 0
M  V30 57 H 5.4753 4.04929 -1.02088 0
M  V30 58 N 5.9124 1.20967 1.01018 0
M  V30 59 C 7.3234 1.02319 1.56165 0
M  V30 60 C 7.6744 -0.418546 1.91684 0
M  V30 61 O 6.7994 -1.30096 1.72928 0
M  V30 62 C 7.3944 1.85109 2.8376 0
M  V30 63 C 5.9534 1.70809 3.35412 0
M  V30 64 C 5.1004 1.82643 2.08655 0
M  V30 65 H 8.0514 1.35065 0.833255 0
M  V30 66 H 8.0724 1.35827 3.55431 0
M  V30 67 H 7.5844 2.90035 2.57878 0
M  V30 68 H 5.6854 0.685464 3.66241 0
M  V30 69 H 5.7984 2.52467 4.07182 0
M  V30 70 H 4.1624 1.25896 2.21409 0
M  V30 71 H 4.9454 2.89066 1.85191 0
M  V30 72 N 7.3905 -1.2043 1.01659 0
M  V30 73 C 8.3535 -2.21433 0.591616 0
M  V30 74 C 9.3535 -1.57203 -0.338226 0
M  V30 75 O 10.5435 -1.73737 -0.126918 0
M  V30 76 C 7.6755 -3.40628 -0.136058 0
M  V30 77 H 8.8685 -2.60545 1.48514 0
M  V30 78 H 6.4215 -1.33893 0.806379 0
M  V30 79 H 7.1565 -3.07019 -1.04449 0
M  V30 80 H 6.9415 -3.88475 0.531917 0
M  V30 81 H 8.4315 -4.15475 -0.420735 0
M  V30 82 N 8.8686 -0.792821 -1.36206 0
M  V30 83 C 10.2846 -0.474903 -1.52371 0
M  V30 84 C 10.4846 1.00622 -1.74578 0
M  V30 85 O 9.5406 1.79162 -1.77924 0
M  V30 86 C 10.8536 -1.3083 -2.70747 0
M  V30 87 C 12.4016 -1.30234 -2.84619 0
M  V30 88 C 12.8766 -2.11956 -4.06004 0
M  V30 89 N 14.3676 -2.09419 -4.13156 0
M  V30 90 C 15.1026 -2.69419 -5.06163 0
M  V30 91 N 14.5986 -3.3829 -6.04592 0
M  V30 92 N 16.3916 -2.59134 -4.98804 0
M  V30 93 H 8.5426 -1.75222 -1.20046 0
M  V30 94 H 10.8056 -0.745024 -0.586211 0
M  V30 95 H 10.5116 -2.35881 -2.6087 0
M  V30 96 H 10.3856 -0.95196 -3.6499 0
M  V30 97 H 12.7726 -0.259748 -2.93955 0
M  V30 98 H 12.8536 -1.69847 -1.91274 0
M  V30 99 H 12.4976 -3.16248 -3.97429 0
M  V30 100 H 12.4276 -1.69711 -4.98503 0
M  V30 101 H 14.9186 -1.59297 -3.42685 0
M  V30 102 H 15.2316 -3.81394 -6.7213 0
M  V30 103 H 13.5766 -3.42393 -6.04807 0
M  V30 104 H 16.7676 -2.04927 -4.20859 0
M  V30 105 H 16.9406 -3.06185 -5.711 0
M  V30 106 N 10.3467 1.47872 -0.545128 0
M  V30 107 C 11.5717 2.07391 -0.0190611 0
M  V30 108 C 11.9967 1.39688 1.25971 0
M  V30 109 O 11.3547 0.467816 1.7516 0
M  V30 110 C 11.4027 3.60188 0.172335 0
M  V30 111 O 10.5067 3.9339 1.23766 0
M  V30 112 H 9.8477 0.662411 -0.0459059 0
M  V30 113 H 12.3777 1.90066 -0.757365 0
M  V30 114 H 12.3877 4.06129 0.390305 0
M  V30 115 H 11.0627 4.08865 -0.761725 0
M  V30 116 H 9.6397 3.5921 1.00114 0
M  V30 117 N 11.8248 0.280983 1.55075 0
M  V30 118 C 13.2358 -0.215629 1.85451 0
M  V30 119 C 13.5868 -1.54991 1.203 0
M  V30 120 O 12.7118 -2.10699 0.493435 0
M  V30 121 C 13.3068 -0.398026 3.36454 0
M  V30 122 C 11.8658 -0.838866 3.66933 0
M  V30 123 C 11.0128 0.064458 2.77225 0
M  V30 124 H 13.9638 0.502601 1.50531 0
M  V30 125 H 13.9848 -1.23569 3.59876 0
M  V30 126 H 13.4968 0.573241 3.83843 0
M  V30 127 H 11.5978 -1.8214 3.25048 0
M  V30 128 H 11.7108 -0.672123 4.74362 0
M  V30 129 H 10.0748 -0.452863 2.50642 0
M  V30 130 H 10.8578 1.03172 3.2743 0
M  V30 131 N 13.3029 -1.57598 0.00835791 0
M  V30 132 C 14.7189 -1.55764 -0.347822 0
M  V30 133 C 14.9189 -1.01186 -1.74252 0
M  V30 134 O 13.9749 -0.649371 -2.44007 0
M  V30 135 C 15.2879 -2.99927 -0.215407 0
M  V30 136 C 16.8359 -3.11656 -0.289725 0
M  V30 137 C 17.3109 -4.57621 -0.18634 0
M  V30 138 N 18.8019 -4.62557 -0.243978 0
M  V30 139 C 19.5369 -5.73094 -0.18745 0
M  V30 140 N 19.0329 -6.92753 -0.0810331 0
M  V30 141 N 20.8259 -5.61588 -0.239925 0
M  V30 142 H 12.9769 -1.91411 0.92062 0
M  V30 143 H 15.2399 -0.879562 0.353659 0
M  V30 144 H 14.9459 -3.43729 0.744512 0
M  V30 145 H 14.8199 -3.63865 -0.994097 0
M  V30 146 H 17.2069 -2.67779 -1.24009 0
M  V30 147 H 17.2879 -2.5048 0.51898 0
M  V30 148 H 16.9319 -5.02174 0.760519 0
M  V30 149 H 16.8619 -5.16752 -1.01364 0
M  V30 150 H 19.3529 -3.76481 -0.327217 0
M  V30 151 H 19.6659 -7.72787 -0.0440241 0
M  V30 152 H 18.0109 -6.94984 -0.0465419 0
M  V30 153 H 21.2019 -4.66996 -0.321317 0
M  V30 154 H 21.3749 -6.47714 -0.192407 0
M  V30 155 N 14.781 0.264519 -1.55364 0
M  V30 156 C 16.192 0.834936 -1.6699 0
M  V30 157 C 16.543 1.86718 -0.602552 0
M  V30 158 O 15.668 2.14899 0.254425 0
M  V30 159 C 16.263 1.5212 -3.02729 0
M  V30 160 C 14.822 2.03954 -3.16354 0
M  V30 161 C 13.969 0.884498 -2.62815 0
M  V30 162 H 16.92 0.0406869 -1.58648 0
M  V30 163 H 16.941 2.38853 -2.96191 0
M  V30 164 H 16.453 0.769668 -3.80392 0
M  V30 165 H 14.554 2.82041 -2.43482 0
M  V30 166 H 14.667 2.24902 -4.23032 0
M  V30 167 H 13.031 1.2802 -2.20188 0
M  V30 168 H 13.814 0.14634 -3.42988 0
M  V30 169 N 16.2591 1.48442 0.529413 0
M  V30 170 C 17.1911 1.59095 1.64989 0
M  V30 171 C 18.2041 0.475212 1.5571 0
M  V30 172 O 19.3931 0.746081 1.6216 0
M  V30 173 C 16.4931 1.50518 3.0364 0
M  V30 174 C 15.6661 2.77142 3.38395 0
M  V30 175 C 14.7251 2.62012 4.56329 0
M  V30 176 O 13.7511 3.35898 4.59522 0
M  V30 177 N 14.9531 1.71667 5.54536 0
M  V30 178 H 17.7181 2.55723 1.56287 0
M  V30 179 H 15.2791 1.45173 0.716697 0
M  V30 180 H 17.2711 1.38091 3.80412 0
M  V30 181 H 15.8411 0.618627 3.06418 0
M  V30 182 H 15.0611 3.0413 2.50796 0
M  V30 183 H 16.3491 3.61146 3.58401 0
M  V30 184 H 15.7471 1.10841 5.54735 0
M  V30 185 H 14.3041 1.65178 6.30523 0
M  V30 186 N 17.7372 -0.778329 1.37039 0
M  V30 187 C 18.6692 -1.90034 1.2814 0
M  V30 188 C 19.6822 -1.61585 0.198558 0
M  V30 189 O 20.8712 -1.72625 0.454175 0
M  V30 190 C 17.9712 -3.25108 0.956968 0
M  V30 191 C 17.1442 -3.81253 2.14394 0
M  V30 192 C 16.2032 -4.94789 1.79082 0
M  V30 193 O 15.2292 -5.10721 2.51301 0
M  V30 194 N 16.4312 -5.75878 0.731043 0
M  V30 195 H 19.1962 -1.98186 2.24816 0
M  V30 196 H 16.7572 -0.957129 1.30578 0
M  V30 197 H 18.7492 -3.9857 0.701701 0
M  V30 198 H 17.3192 -3.125 0.0789812 0
M  V30 199 H 16.5392 -2.99647 2.56135 0
M  V30 200 H 17.8272 -4.15495 2.93668 0
M  V30 201 H 17.2252 -5.65547 0.131618 0
M  V30 202 H 15.7822 -6.49596 0.535622 0
M  V30 203 N 19.2153 -1.21501 -1.00376 0
M  V30 204 C 20.4923 -0.941745 -1.71437 0
M  V30 205 C 20.8723 0.546114 -2.03914 0
M  V30 206 O 20.2203 1.51128 -1.71384 0
M  V30 207 C 20.4303 -1.82812 -2.97289 0
M  V30 208 C 21.7783 -2.07771 -3.70292 0
M  V30 209 O 22.8023 -1.80171 -3.07273 0
M  V30 210 O 21.6613 -2.54456 -4.83647 0
M  V30 211 H 18.7553 -0.353243 -0.747762 0
M  V30 212 H 21.3013 -1.32436 -1.06108 0
M  V30 213 H 20.0733 -2.83501 -2.69709 0
M  V30 214 H 19.6963 -1.4464 -3.70358 0
M  V30 215 N 20.6934 1.19889 -1.02296 0
M  V30 216 C 22.1044 1.71124 -0.746568 0
M  V30 217 C 22.4554 1.81939 0.734335 0
M  V30 218 O 21.5804 1.48639 1.57275 0
M  V30 219 C 22.1754 3.10804 -1.34857 0
M  V30 220 C 20.7344 3.59323 -1.1209 0
M  V30 221 C 19.8814 2.3635 -1.45031 0
M  V30 222 H 22.8324 1.04813 -1.19163 0
M  V30 223 H 22.8534 3.73186 -0.742437 0
M  V30 224 H 22.3654 3.029 -2.42638 0
M  V30 225 H 20.4664 3.7255 -0.0610337 0
M  V30 226 H 20.5794 4.4378 -1.80544 0
M  V30 227 H 18.9434 2.39399 -0.869487 0
M  V30 228 H 19.7264 2.31081 -2.53883 0
M  V30 229 N 22.1715 0.800033 1.35784 0
M  V30 230 C 23.1345 0.211565 2.28221 0
M  V30 231 C 24.1345 -0.59728 1.49296 0
M  V30 232 O 25.3245 -0.416721 1.69142 0
M  V30 233 C 22.4565 -0.705846 3.33513 0
M  V30 234 H 23.6495 1.02677 2.81776 0
M  V30 235 H 21.2025 0.570211 1.45528 0
M  V30 236 H 21.9375 -1.54498 2.85133 0
M  V30 237 H 21.7225 -0.127655 3.91892 0
M  V30 238 H 23.2125 -1.11211 4.02519 0
M  V30 239 N 23.6496 -1.47581 0.552962 0
M  V30 240 C 25.0656 -1.5818 0.212424 0
M  V30 241 C 25.2656 -1.55213 -1.28496 0
M  V30 242 O 24.3216 -1.45329 -2.06484 0
M  V30 243 C 25.6346 -2.88865 0.835318 0
M  V30 244 C 27.1826 -3.0244 0.806156 0
M  V30 245 C 27.6576 -4.35819 1.40804 0
M  V30 246 N 29.1486 -4.42444 1.37103 0
M  V30 247 C 29.8836 -5.44202 1.80641 0
M  V30 248 N 29.3796 -6.52795 2.32015 0
M  V30 249 N 31.1726 -5.35222 1.71738 0
M  V30 250 H 23.3236 -1.47753 1.52587 0
M  V30 251 H 25.5866 -0.702941 0.636064 0
M  V30 252 H 25.2926 -2.9676 1.88749 0
M  V30 253 H 25.1666 -3.7579 0.325848 0
M  V30 254 H 27.5536 -2.94144 -0.237317 0
M  V30 255 H 27.6346 -2.17068 1.35334 0
M  V30 256 H 27.2786 -4.44871 2.45056 0
M  V30 257 H 27.2086 -5.19916 0.836338 0
M  V30 258 H 29.6996 -3.6456 0.995202 0
M  V30 259 H 30.0126 -7.26609 2.63171 0
M  V30 260 H 28.3576 -6.53696 2.36023 0
M  V30 261 H 31.5486 -4.49284 1.31382 0
M  V30 262 H 31.7216 -6.14389 2.05987 0
M  V30 263 N 25.1277 -0.289203 -1.54924 0
M  V30 264 C 26.5387 0.205791 -1.85562 0
M  V30 265 C 26.8897 1.54351 -1.2112 0
M  V30 266 O 26.0147 2.10435 -0.504601 0
M  V30 267 C 26.6097 0.380177 -3.3666 0
M  V30 268 C 25.1687 0.819395 -3.67373 0
M  V30 269 C 24.3157 -0.079159 -2.77187 0
M  V30 270 H 27.2667 -0.510577 -1.50262 0
M  V30 271 H 27.2877 1.21659 -3.60526 0
M  V30 272 H 26.7997 -0.593589 -3.83534 0
M  V30 273 H 24.9007 1.80413 -3.26009 0
M  V30 274 H 25.0137 0.646957 -4.74712 0
M  V30 275 H 23.3777 0.439565 -2.50878 0
M  V30 276 H 24.1607 -1.04906 -3.26878 0
M  V30 277 N 26.6058 1.57591 -0.0167156 0
M  V30 278 C 27.5378 2.06343 0.997753 0
M  V30 279 C 28.5508 0.984469 1.29661 0
M  V30 280 O 29.7398 1.26093 1.26344 0
M  V30 281 C 26.8398 2.46255 2.32834 0
M  V30 282 C 26.0128 3.77083 2.21646 0
M  V30 283 C 25.0718 4.0368 3.37534 0
M  V30 284 O 24.0978 4.7411 3.14973 0
M  V30 285 N 25.2998 3.52881 4.60929 0
M  V30 286 H 28.0648 2.93997 0.581875 0
M  V30 287 H 25.6258 1.61002 0.170316 0
M  V30 288 H 27.6178 2.61149 3.09166 0
M  V30 289 H 26.1878 1.64032 2.66106 0
M  V30 290 H 25.4078 3.72106 1.30119 0
M  V30 291 H 26.6958 4.62822 2.11361 0
M  V30 292 H 26.0938 2.95878 4.82154 0
M  V30 293 H 24.6508 3.73076 5.34469 0
M  V30 294 N 28.0839 -0.256276 1.55502 0
M  V30 295 C 28.9939 -1.33882 1.92647 0
M  V30 296 C 30.0099 -1.53159 0.825727 0
M  V30 297 O 31.1859 -1.66963 1.12629 0
M  V30 298 C 28.2509 -2.6751 2.20543 0
M  V30 299 C 27.3119 -2.56836 3.43997 0
M  V30 300 C 26.5449 -3.84092 3.70553 0
M  V30 301 O 26.7679 -4.85545 2.99336 0
M  V30 302 O 25.7019 -3.83288 4.64084 0
M  V30 303 H 29.5279 -1.05374 2.84833 0
M  V30 304 H 27.1129 -0.456237 1.42263 0
M  V30 305 H 28.9949 -3.46492 2.39835 0
M  V30 306 H 27.6699 -2.9577 1.31536 0
M  V30 307 H 26.5769 -1.76172 3.30021 0
M  V30 308 H 27.9099 -2.33523 4.33275 0
M  V30 309 N 29.562 -1.4872 -0.521534 0
M  V30 310 C 30.973 -1.50607 -1.10337 0
M  V30 311 C 31.324 -0.280612 -1.94183 0
M  V30 312 O 30.449 0.611507 -2.0758 0
M  V30 313 C 31.044 -2.72903 -2.00772 0
M  V30 314 C 29.603 -2.77634 -2.54158 0
M  V30 315 C 28.75 -2.44241 -1.31307 0
M  V30 316 H 31.701 -1.55714 -0.306388 0
M  V30 317 H 31.722 -2.519 -2.85178 0
M  V30 318 H 31.234 -3.62077 -1.39721 0
M  V30 319 H 29.335 -1.92689 -3.18907 0
M  V30 320 H 29.448 -3.79283 -2.92714 0
M  V30 321 H 27.812 -1.95577 -1.63161 0
M  V30 322 H 28.595 -3.35666 -0.719943 0
M  V30 323 N 31.0401 0.771051 -1.3745 0
M  V30 324 C 32.2681 1.56015 -1.35893 0
M  V30 325 C 32.6831 1.88718 0.0555523 0
M  V30 326 O 32.0401 1.51502 1.01752 0
M  V30 327 C 32.0911 2.87001 -2.19801 0
M  V30 328 O 31.8121 2.557 -3.55738 0
M  V30 329 C 33.3131 3.81228 -2.26231 0
M  V30 330 H 30.5331 0.483317 -0.465453 0
M  V30 331 H 33.0771 0.955611 -1.80799 0
M  V30 332 H 31.2321 3.43877 -1.78402 0
M  V30 333 H 31.6461 3.39584 -3.99729 0
M  V30 334 H 33.1201 4.70139 -2.89263 0
M  V30 335 H 33.5971 4.20409 -1.27093 0
M  V30 336 H 34.2031 3.30281 -2.67945 0
M  V30 337 N 32.5182 1.22032 0.997298 0
M  V30 338 C 33.4512 0.929735 2.08401 0
M  V30 339 C 34.4292 -0.125681 1.62114 0
M  V30 340 O 35.6132 0.00495409 1.88499 0
M  V30 341 C 32.7402 0.397488 3.3636 0
M  V30 342 C 31.7862 1.4369 4.01566 0
M  V30 343 S 32.6192 3.00874 4.42984 0
M  V30 344 C 33.7752 2.49276 5.74119 0
M  V30 345 H 34.0082 1.84998 2.32729 0
M  V30 346 H 31.5412 1.0509 1.13117 0
M  V30 347 H 33.4992 0.0969846 4.10385 0
M  V30 348 H 32.1602 -0.501571 3.10069 0
M  V30 349 H 31.3532 1.01427 4.93689 0
M  V30 350 H 30.9552 1.68588 3.33847 0
M  V30 351 H 33.2472 1.90242 6.50242 0
M  V30 352 H 34.1902 3.39872 6.21203 0
M  V30 353 H 34.5982 1.90714 5.31308 0
M  V30 354 N 33.9963 -1.19345 1.0293 0
M  V30 355 C 35.4073 -1.70725 0.755633 0
M  V30 356 C 35.7583 -1.82326 -0.724676 0
M  V30 357 O 34.8833 -1.49471 -1.56484 0
M  V30 358 C 35.4783 -3.10084 1.36503 0
M  V30 359 C 34.0373 -3.58723 1.13994 0
M  V30 360 C 33.1843 -2.35577 1.46283 0
M  V30 361 H 36.1353 -1.0418 1.19718 0
M  V30 362 H 36.1563 -3.72787 0.762217 0
M  V30 363 H 35.6683 -3.01609 2.44241 0
M  V30 364 H 33.7693 -3.72512 0.0807901 0
M  V30 365 H 33.8823 -4.42816 1.82894 0
M  V30 366 H 32.2463 -2.38935 0.88217 0
M  V30 367 H 33.0293 -2.29731 2.55105 0
M  V30 368 N 35.4744 -0.807222 -1.35358 0
M  V30 369 C 36.8854 -0.44876 -1.81226 0
M  V30 370 C 37.2364 1.02929 -1.67033 0
M  V30 371 O 36.3614 1.79991 -1.20133 0
M  V30 372 C 36.9564 -0.807774 -3.2903 0
M  V30 373 C 35.5154 -0.501901 -3.73039 0
M  V30 374 C 34.6624 -1.03304 -2.57339 0
M  V30 375 H 37.6134 -0.998808 -1.23327 0
M  V30 376 H 37.6344 -0.10554 -3.80354 0
M  V30 377 H 37.1464 -1.88357 -3.39328 0
M  V30 378 H 35.2474 0.565128 -3.68289 0
M  V30 379 H 35.3604 -1.03497 -4.67787 0
M  V30 380 H 33.7244 -0.455339 -2.50597 0
M  V30 381 H 34.5074 -2.11496 -2.70415 0
M  V30 382 N 36.9525 1.47285 -0.560781 0
M  V30 383 C 38.3635 1.86258 -0.128343 0
M  V30 384 C 38.7145 1.46699 1.30284 0
M  V30 385 O 37.8395 0.871698 1.98067 0
M  V30 386 C 38.4345 3.38044 -0.22614 0
M  V30 387 C 36.9935 3.76096 0.151283 0
M  V30 388 C 36.1405 2.71335 -0.572084 0
M  V30 389 H 39.0915 1.38752 -0.770297 0
M  V30 390 H 39.1125 3.76441 0.554322 0
M  V30 391 H 38.6245 3.66806 -1.26788 0
M  V30 392 H 36.7255 3.52951 1.19399 0
M  V30 393 H 36.8385 4.78641 -0.209765 0
M  V30 394 H 35.2025 2.54696 -0.0147653 0
M  V30 395 H 35.9855 3.02938 -1.61504 0
M  V30 396 N 38.4306 0.297415 1.54768 0
M  V30 397 C 39.3406 -0.58983 2.27064 0
M  V30 398 C 40.3566 -1.15144 1.30453 0
M  V30 399 O 41.5326 -1.17699 1.63428 0
M  V30 400 C 38.5976 -1.74714 2.9946 0
M  V30 401 C 37.6586 -1.21997 4.11601 0
M  V30 402 C 36.8916 -2.32212 4.80535 0
M  V30 403 O 37.1146 -3.52036 4.48806 0
M  V30 404 O 36.0486 -1.99106 5.68014 0
M  V30 405 H 39.8746 -0.00348199 3.037 0
M  V30 406 H 37.4596 0.0640035 1.49263 0
M  V30 407 H 39.3416 -2.42147 3.44881 0
M  V30 408 H 38.0166 -2.32016 2.25722 0
M  V30 409 H 36.9236 -0.511458 3.70587 0
M  V30 410 H 38.2566 -0.692419 4.87305 0
M  V30 411 N 39.9087 -1.5758 0.0250728 0
M  V30 412 C 41.1367 -1.9593 -0.664747 0
M  V30 413 C 41.5517 -0.901352 -1.65895 0
M  V30 414 O 40.9087 0.117255 -1.82123 0
M  V30 415 C 40.9597 -3.34342 -1.37468 0
M  V30 416 O 40.6807 -4.36079 -0.420324 0
M  V30 417 C 42.1817 -3.873 -2.1567 0
M  V30 418 H 39.4017 -0.645405 -0.183557 0
M  V30 419 H 41.9457 -2.04329 0.0836372 0
M  V30 420 H 40.1007 -3.27175 -2.0745 0
M  V30 421 H 40.5147 -5.16297 -0.923991 0
M  V30 422 H 41.9887 -4.86504 -2.60803 0
M  V30 423 H 42.4657 -3.21331 -2.99405 0
M  V30 424 H 43.0717 -3.97723 -1.50654 0
M  V30 425 N 41.3868 0.248026 -1.55636 0
M  V30 426 C 42.7978 0.817177 -1.67866 0
M  V30 427 C 43.1488 1.86069 -0.622322 0
M  V30 428 O 42.2738 2.15157 0.231618 0
M  V30 429 C 42.8688 1.489 -3.04326 0
M  V30 430 C 41.4278 2.00587 -3.185 0
M  V30 431 C 40.5748 0.856573 -2.63739 0
M  V30 432 H 43.5258 0.0238579 -1.58682 0
M  V30 433 H 43.5468 2.35698 -2.98708 0
M  V30 434 H 43.0588 0.729279 -3.81186 0
M  V30 435 H 41.1598 2.79443 -2.4646 0
M  V30 436 H 41.2728 2.20402 -4.25393 0
M  V30 437 H 39.6368 1.25678 -2.21534 0
M  V30 438 H 40.4198 0.109953 -3.43124 0
M  V30 439 N 42.8649 1.48995 0.513639 0
M  V30 440 C 44.0899 1.61792 1.29762 0
M  V30 441 C 44.5149 0.284475 1.85936 0
M  V30 442 O 43.8729 -0.746185 1.65232 0
M  V30 443 C 43.9209 2.67993 2.41272 0
M  V30 444 O 43.0249 2.26287 3.44772 0
M  V30 445 H 42.3659 0.541963 0.38363 0
M  V30 446 H 44.8959 1.95097 0.616307 0
M  V30 447 H 44.9059 2.89772 2.87221 0
M  V30 448 H 43.5809 3.64791 1.9975 0
M  V30 449 H 42.1579 2.14788 3.04829 0
M  V30 450 N 44.343 -0.763751 1.37857 0
M  V30 451 C 45.253 -1.90817 1.36478 0
M  V30 452 C 46.269 -1.71997 0.263248 0
M  V30 453 O 47.445 -1.95095 0.499979 0
M  V30 454 C 44.51 -3.2605 1.17864 0
M  V30 455 C 43.571 -3.57467 2.3773 0
M  V30 456 C 42.804 -4.86249 2.19995 0
M  V30 457 O 43.027 -5.57884 1.18836 0
M  V30 458 O 41.961 -5.16911 3.08361 0
M  V30 459 H 45.787 -1.94933 2.32884 0
M  V30 460 H 43.372 -0.907619 1.1867 0
M  V30 461 H 45.254 -4.06924 1.09504 0
M  V30 462 H 43.929 -3.22769 0.245372 0
M  V30 463 H 42.836 -2.76796 2.51664 0
M  V30 464 H 44.169 -3.655 3.29652 0
M  V30 465 N 45.8211 -1.22559 -0.990812 0
M  V30 466 C 47.0691 -1.04933 -1.72724 0
M  V30 467 C 47.3901 0.416158 -1.90508 0
M  V30 468 O 46.6601 1.29918 -1.46622 0
M  V30 469 H 45.2401 -0.385296 -0.639965 0
M  V30 470 H 47.9021 -1.54105 -1.19322 0
M  V30 471 H 46.9981 -1.52886 -2.72089 0
M  V30 472 N 47.2992 1.18797 -1.03562 0
M  V30 473 C 48.7152 1.40671 -0.753917 0
M  V30 474 C 48.9152 1.9043 0.658686 0
M  V30 475 O 47.9712 2.08538 1.42366 0
M  V30 476 C 49.2842 2.41192 -1.79574 0
M  V30 477 C 50.8322 2.54928 -1.81606 0
M  V30 478 C 51.3072 3.58709 -2.84766 0
M  V30 479 N 52.7982 3.66212 -2.83625 0
M  V30 480 C 53.5332 4.46225 -3.60098 0
M  V30 481 N 53.0292 5.29888 -4.46308 0
M  V30 482 N 54.8222 4.40939 -3.4861 0
M  V30 483 H 46.9732 0.848221 -1.94728 0
M  V30 484 H 49.2362 0.435081 -0.842264 0
M  V30 485 H 48.9422 2.11669 -2.80872 0
M  V30 486 H 48.8162 3.40467 -1.62365 0
M  V30 487 H 51.2032 2.83771 -0.809817 0
M  V30 488 H 51.2842 1.55784 -2.02891 0
M  V30 489 H 50.9282 3.30607 -3.85566 0
M  V30 490 H 50.8582 4.57519 -2.60737 0
M  V30 491 H 53.3492 3.06466 -2.21105 0
M  V30 492 H 53.6622 5.88078 -5.01382 0
M  V30 493 H 52.0072 5.29326 -4.50377 0
M  V30 494 H 55.1982 3.74624 -2.80668 0
M  V30 495 H 55.3712 5.03056 -4.08459 0
M  V30 496 N 48.7773 0.814389 1.34928 0
M  V30 497 C 49.7093 0.187834 2.28429 0
M  V30 498 C 50.7223 -0.617374 1.5064 0
M  V30 499 O 51.9113 -0.448454 1.72775 0
M  V30 500 C 49.0113 -0.755962 3.30361 0
M  V30 501 C 48.1843 0.00456686 4.374 0
M  V30 502 C 47.2433 -0.858876 5.19143 0
M  V30 503 O 46.2693 -0.306968 5.68372 0
M  V30 504 N 47.4713 -2.17988 5.38016 0
M  V30 505 H 50.2363 0.991105 2.82838 0
M  V30 506 H 47.7973 0.670561 1.4736 0
M  V30 507 H 49.7893 -1.338 3.81942 0
M  V30 508 H 48.3593 -1.46001 2.7641 0
M  V30 509 H 47.5793 0.767865 3.86649 0
M  V30 510 H 48.8673 0.528422 5.06049 0
M  V30 511 H 48.2653 -2.65212 4.99679 0
M  V30 512 H 46.8223 -2.71098 5.92747 0
M  V30 513 N 50.2554 -1.46986 0.568584 0
M  V30 514 C 51.6664 -1.86188 0.138219 0
M  V30 515 C 52.0174 -1.47388 -1.29504 0
M  V30 516 O 51.1424 -0.88219 -1.97602 0
M  V30 517 C 51.7374 -3.3792 0.244065 0
M  V30 518 C 50.2964 -3.76171 -0.131335 0
M  V30 519 C 49.4434 -2.71027 0.586465 0
M  V30 520 H 52.3944 -1.38342 0.777645 0
M  V30 521 H 52.4154 -3.76729 -0.534351 0
M  V30 522 H 51.9274 -3.66128 1.28731 0
M  V30 523 H 50.0284 -3.5358 -1.17526 0
M  V30 524 H 50.1414 -4.78523 0.235146 0
M  V30 525 H 48.5054 -2.54684 0.0282722 0
M  V30 526 H 49.2884 -3.02077 1.63109 0
M  V30 527 N 51.7335 -0.305618 -1.54608 0
M  V30 528 C 52.9585 0.307562 -2.05107 0
M  V30 529 C 53.3835 1.46385 -1.18123 0
M  V30 530 O 52.7415 1.8034 -0.186324 0
M  V30 531 C 52.7895 0.73704 -3.52987 0
M  V30 532 O 51.8935 1.84134 -3.6901 0
M  V30 533 H 51.2345 0.0589143 -0.661381 0
M  V30 534 H 53.7645 -0.448807 -1.99617 0
M  V30 535 H 53.7745 1.02459 -3.94925 0
M  V30 536 H 52.4495 -0.108773 -4.15758 0
M  V30 537 H 51.0265 1.55398 -3.38978 0
M  V30 538 N 53.2116 1.57565 -0.0334293 0
M  V30 539 C 54.6226 1.79746 0.504798 0
M  V30 540 C 54.9736 0.944091 1.71992 0
M  V30 541 O 54.0986 0.155694 2.15839 0
M  V30 542 C 54.6936 3.25997 0.922567 0
M  V30 543 C 53.2526 3.49159 1.40588 0
M  V30 544 C 52.3996 2.74785 0.372633 0
M  V30 545 H 55.3506 1.56565 -0.259436 0
M  V30 546 H 55.3716 3.35945 1.78666 0
M  V30 547 H 54.8836 3.88081 0.0379825 0
M  V30 548 H 52.9846 2.92332 2.31025 0
M  V30 549 H 53.0976 4.57873 1.41028 0
M  V30 550 H 51.4616 2.40391 0.841672 0
M  V30 551 H 52.2446 3.39587 -0.503559 0
M  V30 552 N 54.6897 -0.239769 1.55765 0
M  V30 553 C 55.9147 -0.988373 1.82335 0
M  V30 554 C 56.3397 -1.77886 0.611421 0
M  V30 555 O 55.6977 -1.75889 -0.439639 0
M  V30 556 C 55.7457 -1.89627 3.06715 0
M  V30 557 O 54.8497 -2.98904 2.84131 0
M  V30 558 H 54.1907 -0.280858 0.601677 0
M  V30 559 H 56.7207 -0.258597 2.02959 0
M  V30 560 H 56.7307 -2.30957 3.36338 0
M  V30 561 H 55.4057 -1.31511 3.9456 0
M  V30 562 H 53.9827 -2.61651 2.65694 0
M  V30 563 N 56.1678 -1.49265 -0.50573 0
M  V30 564 C 57.5788 -1.51769 -1.08734 0
M  V30 565 C 57.9298 -0.301192 -1.93874 0
M  V30 566 O 57.0548 0.589456 -2.08217 0
M  V30 567 C 57.6498 -2.75017 -1.97867 0
M  V30 568 C 56.2088 -2.80314 -2.51199 0
M  V30 569 C 55.3558 -2.4562 -1.28709 0
M  V30 570 H 58.3068 -1.56031 -0.289855 0
M  V30 571 H 58.3278 -2.5491 -2.82491 0
M  V30 572 H 57.8398 -3.63539 -1.35873 0
M  V30 573 H 55.9408 -1.96061 -3.16845 0
M  V30 574 H 56.0538 -3.82366 -2.88675 0
M  V30 575 H 54.4178 -1.97297 -1.61078 0
M  V30 576 H 55.2008 -3.36411 -0.6843 0
M  V30 577 N 57.6459 0.756429 -1.3826 0
M  V30 578 C 58.8709 1.55077 -1.37717 0
M  V30 579 C 59.2959 1.88073 0.03164 0
M  V30 580 O 58.6539 1.50364 1.01293 0
M  V30 581 C 58.7019 2.8283 -2.23695 0
M  V30 582 O 57.8059 3.77862 -1.6521 0
M  V30 583 H 57.1469 0.469152 -0.469885 0
M  V30 584 H 59.6769 0.935019 -1.81985 0
M  V30 585 H 59.6869 3.31783 -2.37453 0
M  V30 586 H 58.3619 2.58144 -3.2609 0
M  V30 587 H 56.9389 3.36555 -1.60578 0
M  V30 588 N 59.124 1.23083 0.984299 0
M  V30 589 C 60.535 1.05609 1.5396 0
M  V30 590 C 60.886 -0.377793 1.92528 0
M  V30 591 O 60.011 -1.26398 1.75649 0
M  V30 592 C 60.606 1.91087 2.7977 0
M  V30 593 C 59.165 1.77885 3.31713 0
M  V30 594 C 58.312 1.87028 2.04733 0
M  V30 595 H 61.263 1.36802 0.804419 0
M  V30 596 H 61.284 1.43336 3.5247 0
M  V30 597 H 60.796 2.9544 2.51668 0
M  V30 598 H 58.897 0.762995 3.64704 0
M  V30 599 H 59.01 2.61047 4.01735 0
M  V30 600 H 57.374 1.30565 2.18689 0
M  V30 601 H 58.157 2.92929 1.79017 0
M  V30 602 N 60.6021 -1.18246 1.0419 0
M  V30 603 C 61.8301 -1.92195 0.766072 0
M  V30 604 C 62.2451 -1.76247 -0.676933 0
M  V30 605 O 61.6021 -1.09293 -1.46155 0
M  V30 606 C 61.6531 -3.43568 1.12442 0
M  V30 607 O 61.3741 -3.59015 2.51078 0
M  V30 608 C 62.8751 -4.34613 0.873275 0
M  V30 609 H 60.0951 -0.610114 0.279288 0
M  V30 610 H 62.6391 -1.50007 1.38989 0
M  V30 611 H 60.7941 -3.8354 0.545542 0
M  V30 612 H 61.2081 -4.5273 2.64831 0
M  V30 613 H 62.6821 -5.39374 1.17385 0
M  V30 614 H 63.1591 -4.38781 -0.191909 0
M  V30 615 H 63.7651 -4.00341 1.43551 0
M  V30 616 N 62.0802 -0.821533 -1.34494 0
M  V30 617 C 62.9902 -0.244355 -2.33324 0
M  V30 618 C 64.0062 0.620527 -1.62559 0
M  V30 619 O 65.1822 0.528754 -1.94335 0
M  V30 620 C 62.2472 0.585368 -3.41723 0
M  V30 621 C 61.3082 -0.301752 -4.28238 0
M  V30 622 C 60.5412 0.488466 -5.3146 0
M  V30 623 O 60.7642 1.72186 -5.4379 0
M  V30 624 O 59.6982 -0.12848 -6.01763 0
M  V30 625 H 63.5242 -1.06231 -2.84515 0
M  V30 626 H 61.1092 -0.583645 -1.37528 0
M  V30 627 H 62.9912 1.05747 -4.07916 0
M  V30 628 H 61.6662 1.38068 -2.92778 0
M  V30 629 H 60.5732 -0.821315 -3.64973 0
M  V30 630 H 61.9062 -1.06138 -4.8062 0
M  V30 631 N 63.5583 1.46682 -0.576371 0
M  V30 632 C 64.9743 1.57822 -0.237562 0
M  V30 633 C 65.1743 1.57237 1.26011 0
M  V30 634 O 64.2303 1.48596 2.04146 0
M  V30 635 C 65.5433 2.87499 -0.881168 0
M  V30 636 C 67.0913 3.01119 -0.85417 0
M  V30 637 C 67.5663 4.33524 -1.4772 0
M  V30 638 N 69.0573 4.40207 -1.44125 0
M  V30 639 C 69.7923 5.4126 -1.89276 0
M  V30 640 N 69.2883 6.49021 -2.42371 0
M  V30 641 N 71.0813 5.32422 -1.80231 0
M  V30 642 H 63.2323 1.45306 -1.54919 0
M  V30 643 H 65.4953 0.692733 -0.647167 0
M  V30 644 H 65.2013 2.9372 -1.93447 0
M  V30 645 H 65.0753 3.75224 -0.385592 0
M  V30 646 H 67.4623 2.94485 0.190491 0
M  V30 647 H 67.5433 2.14887 -1.3877 0
M  V30 648 H 67.1873 4.40916 -2.52103 0
M  V30 649 H 67.1173 5.1852 -0.918947 0
M  V30 650 H 69.6083 3.62931 -1.05307 0
M  V30 651 H 69.9213 7.2233 -2.74698 0
M  V30 652 H 68.2663 6.49858 -2.46393 0
M  V30 653 H 71.4573 4.47137 -1.38514 0
M  V30 654 H 71.6303 6.11034 -2.15735 0
M  V30 655 N 65.0364 0.313813 1.54444 0
M  V30 656 C 65.9994 -0.54379 2.22656 0
M  V30 657 C 66.9994 -1.05124 1.21678 0
M  V30 658 O 68.1894 -0.945225 1.46325 0
M  V30 659 C 65.3214 -1.75427 2.92298 0
M  V30 660 H 66.5144 0.0523599 2.99854 0
M  V30 661 H 64.0674 0.0647834 1.56166 0
M  V30 662 H 64.8024 -2.38991 2.19211 0
M  V30 663 H 64.5874 -1.39791 3.66334 0
M  V30 664 H 66.0774 -2.36325 3.44297 0
M  V30 665 N 66.5145 -1.57545 0.0417849 0
M  V30 666 C 67.9255 -1.80011 -0.495259 0
M  V30 667 C 68.2765 -0.953199 -1.71489 0
M  V30 668 O 67.4015 -0.167138 -2.15754 0
M  V30 669 C 67.9965 -3.26482 -0.905265 0
M  V30 670 C 66.5555 -3.499 -1.38734 0
M  V30 671 C 65.7025 -2.74979 -0.358056 0
M  V30 672 H 68.6535 -1.56425 0.267736 0
M  V30 673 H 68.6745 -3.36887 -1.76882 0
M  V30 674 H 68.1865 -3.88096 -0.017401 0
M  V30 675 H 66.2875 -2.93553 -2.29471 0
M  V30 676 H 66.4005 -4.58615 -1.38598 0
M  V30 677 H 64.7645 -2.40834 -0.828912 0
M  V30 678 H 65.5475 -3.39315 0.521561 0
M  V30 679 N 67.9926 0.231505 -1.5589 0
M  V30 680 C 68.9556 1.27028 -1.90779 0
M  V30 681 C 69.9556 1.40308 -0.785507 0
M  V30 682 O 71.1456 1.38744 -1.05336 0
M  V30 683 C 68.2776 2.64566 -2.14983 0
M  V30 684 H 69.4706 0.973017 -2.83677 0
M  V30 685 H 67.0236 0.471486 -1.49019 0
M  V30 686 H 67.7586 2.99406 -1.24604 0
M  V30 687 H 67.5436 2.56305 -2.96732 0
M  V30 688 H 69.0336 3.39543 -2.43105 0
M  V30 689 N 69.4707 1.49531 0.497807 0
M  V30 690 C 70.6957 1.63159 1.28039 0
M  V30 691 C 71.1207 0.30418 1.85624 0
M  V30 692 O 70.4787 -0.728618 1.66015 0
M  V30 693 C 70.5267 2.70537 2.38416 0
M  V30 694 O 69.6307 2.29931 3.42353 0
M  V30 695 H 68.9717 0.546001 0.377861 0
M  V30 696 H 71.5017 1.9574 0.59558 0
M  V30 697 H 71.5117 2.92802 2.84132 0
M  V30 698 H 70.1867 3.6689 1.95869 0
M  V30 699 H 68.7637 2.18009 3.02533 0
M  V30 700 N 70.9488 -0.749086 1.3866 0
M  V30 701 C 71.8588 -1.89358 1.38494 0
M  V30 702 C 72.8748 -1.71708 0.281476 0
M  V30 703 O 74.0508 -1.94554 0.520643 0
M  V30 704 C 71.1158 -3.24782 1.21316 0
M  V30 705 C 70.1768 -3.54926 2.41508 0
M  V30 706 C 69.4098 -4.83888 2.2514 0
M  V30 707 O 69.6328 -5.56592 1.24746 0
M  V30 708 O 68.5668 -5.13612 3.13826 0
M  V30 709 H 72.3928 -1.92452 2.34938 0
M  V30 710 H 69.9778 -0.894981 1.19626 0
M  V30 711 H 71.8598 -4.05739 1.13814 0
M  V30 712 H 70.5348 -3.2249 0.279592 0
M  V30 713 H 69.4418 -2.74112 2.54585 0
M  V30 714 H 70.7748 -3.61983 3.3351 0
M  V30 715 N 72.4269 -1.23603 -0.977757 0
M  V30 716 C 73.3369 -1.03632 -2.1047 0
M  V30 717 C 74.3529 0.0199435 -1.73989 0
M  V30 718 O 75.5289 -0.176076 -2.00629 0
M  V30 719 C 72.5939 -0.63276 -3.40877 0
M  V30 720 C 71.6549 -1.76437 -3.91367 0
M  V30 721 C 70.8879 -1.37997 -5.15551 0
M  V30 722 O 71.1109 -0.265357 -5.69782 0
M  V30 723 O 70.0449 -2.20201 -5.60174 0
M  V30 724 H 73.8709 -1.98086 -2.30208 0
M  V30 725 H 71.4559 -1.02332 -1.08851 0
M  V30 726 H 73.3379 -0.418761 -4.19314 0
M  V30 727 H 72.0129 0.282754 -3.22463 0
M  V30 728 H 70.9199 -2.03304 -3.14036 0
M  V30 729 H 72.2529 -2.6583 -4.14241 0
M  V30 730 N 73.905 1.17692 -1.04816 0
M  V30 731 C 74.815 2.25229 -0.65643 0
M  V30 732 C 75.831 1.71018 0.320761 0
M  V30 733 O 77.007 2.00649 0.173805 0
M  V30 734 C 74.072 3.46684 -0.0332629 0
M  V30 735 C 73.133 4.15997 -1.06042 0
M  V30 736 C 72.366 5.31654 -0.466893 0
M  V30 737 O 72.589 5.65777 0.724758 0
M  V30 738 O 71.523 5.89831 -1.1993 0
M  V30 739 H 75.349 2.61016 -1.55255 0
M  V30 740 H 72.934 1.24919 -0.81949 0
M  V30 741 H 74.816 4.20234 0.313256 0
M  V30 742 H 73.491 3.12703 0.836566 0
M  V30 743 H 72.398 3.44482 -1.45886 0
M  V30 744 H 73.731 4.53996 -1.90127 0
M  V30 745 N 75.3831 0.828654 1.34056 0
M  V30 746 C 76.6301 0.419458 1.98108 0
M  V30 747 C 76.9581 -1.01886 1.65679 0
M  V30 748 O 76.2131 -1.72539 0.923512 0
M  V30 749 C 76.5121 0.575226 3.52741 0
M  V30 750 C 76.1781 1.98012 4.05095 0
M  V30 751 C 74.8401 2.36442 4.19104 0
M  V30 752 C 77.1921 2.89824 4.33188 0
M  V30 753 C 74.5201 3.66009 4.58535 0
M  V30 754 C 76.8721 4.1886 4.74066 0
M  V30 755 C 75.5361 4.5726 4.86281 0
M  V30 756 H 74.8061 0.153491 0.724929 0
M  V30 757 H 77.4531 1.05371 1.59904 0
M  V30 758 H 75.7581 -0.142385 3.91541 0
M  V30 759 H 77.4551 0.239057 4.00287 0
M  V30 760 H 74.0451 1.67162 3.94658 0
M  V30 761 H 78.2291 2.61375 4.21897 0
M  V30 762 H 73.4851 3.95579 4.66184 0
M  V30 763 H 77.6591 4.90086 4.94761 0
M  V30 764 H 75.2861 5.57707 5.16592 0
M  V30 765 N 76.8612 -1.46375 0.584142 0
M  V30 766 C 77.7932 -2.28443 -0.186119 0
M  V30 767 C 78.8062 -1.38596 -0.854115 0
M  V30 768 O 79.9952 -1.63183 -0.723438 0
M  V30 769 C 77.0952 -3.13671 -1.28311 0
M  V30 770 C 76.2682 -4.31652 -0.706758 0
M  V30 771 C 75.3272 -4.98267 -1.69163 0
M  V30 772 O 74.3532 -5.55815 -1.22712 0
M  V30 773 N 75.5552 -4.95408 -3.02575 0
M  V30 774 H 78.3202 -2.9519 0.517986 0
M  V30 775 H 75.8812 -1.56303 0.42201 0
M  V30 776 H 77.8732 -3.55101 -1.94128 0
M  V30 777 H 76.4432 -2.48989 -1.89005 0
M  V30 778 H 75.6632 -3.93989 0.128908 0
M  V30 779 H 76.9512 -5.07906 -0.301506 0
M  V30 780 H 76.3492 -4.49902 -3.42936 0
M  V30 781 H 74.9062 -5.40774 -3.63877 0
M  V30 782 N 78.3393 -0.321999 -1.54275 0
M  V30 783 C 79.5863 0.281044 -2.0054 0
M  V30 784 C 79.9143 1.52265 -1.21019 0
M  V30 785 O 79.1693 1.93687 -0.279982 0
M  V30 786 C 79.4683 0.661769 -3.5122 0
M  V30 787 C 79.1343 -0.480482 -4.48333 0
M  V30 788 C 77.7963 -0.794005 -4.74604 0
M  V30 789 C 80.1483 -1.24783 -5.06042 0
M  V30 790 C 77.4763 -1.87763 -5.55844 0
M  V30 791 C 79.8283 -2.32153 -5.88462 0
M  V30 792 C 78.4923 -2.64089 -6.13036 0
M  V30 793 H 77.7623 0.102841 -0.733829 0
M  V30 794 H 80.4093 -0.445453 -1.86247 0
M  V30 795 H 78.7143 1.46867 -3.63232 0
M  V30 796 H 80.4113 1.13989 -3.84457 0
M  V30 797 H 77.0013 -0.226039 -4.28004 0
M  V30 798 H 81.1853 -1.01887 -4.85729 0
M  V30 799 H 76.4413 -2.12954 -5.73115 0
M  V30 800 H 80.6153 -2.92057 -6.32199 0
M  V30 801 H 78.2423 -3.48185 -6.75775 0
M  V30 802 N 79.8174 1.5752 -0.0501392 0
M  V30 803 C 80.7474 2.14502 0.922566 0
M  V30 804 C 81.7284 1.06642 1.3252 0
M  V30 805 O 82.9134 1.34577 1.4001 0
M  V30 806 C 80.0434 2.68916 2.19776 0
M  V30 807 C 78.9974 3.8175 1.93523 0
M  V30 808 C 78.3234 4.22677 3.27487 0
M  V30 809 C 79.6234 5.06932 1.25765 0
M  V30 810 H 81.3174 2.9603 0.447952 0
M  V30 811 H 78.8634 1.42401 0.214024 0
M  V30 812 H 80.8164 3.07419 2.88222 0
M  V30 813 H 79.5404 1.84578 2.69441 0
M  V30 814 H 78.1994 3.43718 1.27489 0
M  V30 815 H 77.8474 3.35291 3.74952 0
M  V30 816 H 77.5474 4.98725 3.1072 0
M  V30 817 H 79.0714 4.63779 3.97166 0
M  V30 818 H 80.4854 5.42888 1.84244 0
M  V30 819 H 78.8824 5.88116 1.19328 0
M  V30 820 H 79.9524 4.84337 0.233536 0
M  V30 821 N 81.2955 -0.223234 1.56011 0
M  V30 822 C 82.7115 -0.572856 1.48965 0
M  V30 823 C 82.9115 -1.87225 0.74492 0
M  V30 824 O 81.9675 -2.50899 0.283896 0
M  V30 825 C 83.2805 -0.653646 2.9351 0
M  V30 826 C 84.8285 -0.744386 3.0402 0
M  V30 827 C 85.3035 -0.856535 4.49919 0
M  V30 828 N 86.7945 -0.9208 4.53955 0
M  V30 829 C 87.5295 -1.02726 5.64123 0
M  V30 830 N 87.0255 -1.09777 6.84047 0
M  V30 831 N 88.8185 -1.06226 5.51971 0
M  V30 832 H 80.9695 0.629462 2.02858 0
M  V30 833 H 83.2325 0.220621 0.921971 0
M  V30 834 H 82.9385 0.231518 3.50937 0
M  V30 835 H 82.8125 -1.51781 3.45315 0
M  V30 836 H 85.1995 -1.61999 2.46658 0
M  V30 837 H 85.2805 0.14541 2.55386 0
M  V30 838 H 84.9245 0.0146069 5.07898 0
M  V30 839 H 84.8545 -1.76172 4.96257 0
M  V30 840 H 87.3455 -0.876694 3.6759 0
M  V30 841 H 87.6585 -1.17872 7.63758 0
M  V30 842 H 86.0035 -1.06693 6.86762 0
M  V30 843 H 89.1945 -1.00382 4.5721 0
M  V30 844 H 89.3675 -1.14177 6.37862 0
M  V30 845 N 82.7736 -1.49793 -0.48987 0
M  V30 846 C 84.0136 -1.61466 -1.25332 0
M  V30 847 C 84.3776 -0.299688 -1.89647 0
M  V30 848 O 85.5786 -0.291687 -2.67213 0
M  V30 849 C 83.8496 -2.74944 -2.28343 0
M  V30 850 S 85.4086 -3.06637 -3.13878 0
M  V30 851 H 82.2266 -0.569411 -0.425784 0
M  V30 852 H 84.8286 -1.875 -0.553541 0
M  V30 853 H 83.5326 -3.68994 -1.79643 0
M  V30 854 H 83.0636 -2.50938 -3.02975 0
M  V30 855 H 85.0786 -2.49015 -4.29192 0
M  V30 856 N 84.2517 0.741722 -1.39055 0
M  V30 857 C 85.1837 1.8657 -1.33133 0
M  V30 858 C 86.1967 1.61001 -0.241329 0
M  V30 859 O 87.3857 1.7136 -0.499784 0
M  V30 860 C 84.4857 3.22457 -1.04283 0
M  V30 861 C 83.6587 3.75435 -2.24427 0
M  V30 862 C 82.7177 4.89867 -1.92138 0
M  V30 863 O 81.7437 5.03879 -2.64754 0
M  V30 864 N 82.9457 5.73738 -0.88347 0
M  V30 865 H 85.7107 1.92156 -2.29991 0
M  V30 866 H 83.2717 0.922172 -1.3307 0
M  V30 867 H 85.2637 3.9657 -0.807128 0
M  V30 868 H 83.8337 3.12181 -0.161807 0
M  V30 869 H 83.0537 2.92751 -2.6399 0
M  V30 870 H 84.3417 4.07563 -3.04581 0
M  V30 871 H 83.7397 5.64999 -0.281517 0
M  V30 872 H 82.2967 6.47947 -0.707662 0
M  V30 873 N 85.7298 1.2412 0.971189 0
M  V30 874 C 86.6618 0.988349 2.06795 0
M  V30 875 C 87.6748 -0.0409541 1.62748 0
M  V30 876 O 88.8638 0.195673 1.77424 0
M  V30 877 C 85.9638 0.469023 3.35639 0
M  V30 878 C 85.1368 1.56065 4.08611 0
M  V30 879 C 84.1958 1.04458 5.15728 0
M  V30 880 O 83.2218 1.73553 5.42096 0
M  V30 881 N 84.4238 -0.122817 5.8037 0
M  V30 882 H 87.1888 1.93265 2.29061 0
M  V30 883 H 84.7498 1.15102 1.13856 0
M  V30 884 H 86.7418 0.108613 4.04554 0
M  V30 885 H 85.3118 -0.380919 3.1027 0
M  V30 886 H 84.5318 2.09341 3.34021 0
M  V30 887 H 85.8198 2.29449 4.54126 0
M  V30 888 H 85.2178 -0.700563 5.61345 0
M  V30 889 H 83.7748 -0.424404 6.50417 0
M  V30 890 N 87.2079 -1.17134 1.05439 0
M  V30 891 C 88.4479 -1.89137 0.77502 0
M  V30 892 C 88.8119 -1.79345 -0.685526 0
M  V30 893 O 90.0129 -2.46188 -1.0791 0
M  V30 894 C 88.2839 -3.35003 1.2453 0
M  V30 895 S 89.8429 -4.24952 1.09367 0
M  V30 896 H 86.6609 -0.652949 0.281387 0
M  V30 897 H 89.2629 -1.4145 1.34953 0
M  V30 898 H 87.9669 -3.39666 2.30338 0
M  V30 899 H 87.4979 -3.87736 0.665166 0
M  V30 900 H 89.5129 -4.96196 0.0193397 0
M  V30 901 N 88.686 -0.835752 -1.33615 0
M  V30 902 C 89.618 -0.224151 -2.28101 0
M  V30 903 C 90.631 0.593331 -1.51603 0
M  V30 904 O 91.82 0.420911 -1.73466 0
M  V30 905 C 88.92 0.703309 -3.31522 0
M  V30 906 C 88.093 -0.0741528 -4.37337 0
M  V30 907 C 87.152 0.776176 -5.20444 0
M  V30 908 O 86.178 0.216506 -5.68788 0
M  V30 909 N 87.38 2.09401 -5.41416 0
M  V30 910 H 90.145 -1.03598 -2.81225 0
M  V30 911 H 87.706 -0.69392 -1.46275 0
M  V30 912 H 89.698 1.27707 -3.84022 0
M  V30 913 H 88.268 1.41585 -2.78698 0
M  V30 914 H 87.488 -0.82928 -3.85378 0
M  V30 915 H 88.776 -0.608863 -5.05144 0
M  V30 916 H 88.174 2.57229 -5.03835 0
M  V30 917 H 86.731 2.61633 -5.96985 0
M  V30 918 N 90.1641 1.46063 -0.591896 0
M  V30 919 C 91.1271 2.28854 0.125973 0
M  V30 920 C 92.1271 1.38903 0.810107 0
M  V30 921 O 93.3171 1.61186 0.66066 0
M  V30 922 C 90.4491 3.19526 1.1881 0
M  V30 923 H 91.6421 2.93802 -0.601717 0
M  V30 924 H 89.1951 1.52325 -0.350254 0
M  V30 925 H 89.9301 2.59345 1.94707 0
M  V30 926 H 89.7151 3.85766 0.701936 0
M  V30 927 H 91.2051 3.81817 1.69132 0
M  V30 928 N 91.6422 0.330177 1.54103 0
M  V30 929 C 92.5522 -0.541534 2.28264 0
M  V30 930 C 93.5682 -1.12351 1.32866 0
M  V30 931 O 94.7442 -1.14206 1.65888 0
M  V30 932 C 91.8092 -1.68322 3.03098 0
M  V30 933 C 90.8702 -1.13238 4.14096 0
M  V30 934 C 90.1032 -2.21966 4.85352 0
M  V30 935 O 90.3262 -3.42437 4.56172 0
M  V30 936 O 89.2602 -1.87013 5.7211 0
M  V30 937 H 93.0862 0.060938 3.03639 0
M  V30 938 H 90.6712 0.09565 1.49093 0
M  V30 939 H 92.5532 -2.34777 3.49939 0
M  V30 940 H 91.2282 -2.27176 2.30593 0
M  V30 941 H 90.1352 -0.432736 3.71589 0
M  V30 942 H 91.4682 -0.588898 4.88664 0
M  V30 943 N 93.1203 -1.57491 0.0584922 0
M  V30 944 C 94.0833 -2.1085 -0.898617 0
M  V30 945 C 95.0833 -1.02964 -1.23511 0
M  V30 946 O 96.2733 -1.29007 -1.17059 0
M  V30 947 C 93.4053 -2.59881 -2.20623 0
M  V30 948 H 94.5983 -2.96715 -0.435936 0
M  V30 949 H 92.1513 -1.55141 -0.190023 0
M  V30 950 H 92.8863 -1.77431 -2.71457 0
M  V30 951 H 92.6713 -3.38727 -1.97501 0
M  V30 952 H 94.1613 -3.01285 -2.89166 0
M  V30 953 N 94.5984 0.214957 -1.56127 0
M  V30 954 C 95.5454 1.26642 -1.92952 0
M  V30 955 C 96.5154 1.46244 -0.78753 0
M  V30 956 O 97.7004 1.59704 -1.04399 0
M  V30 957 C 94.8404 2.6104 -2.25726 0
M  V30 958 C 93.9534 2.49183 -3.52891 0
M  V30 959 C 93.0884 3.76149 -3.7508 0
M  V30 960 C 92.1274 3.59041 -4.95738 0
M  V30 961 N 91.2644 4.77972 -5.14283 0
M  V30 962 H 96.1044 0.945384 -2.82607 0
M  V30 963 H 93.6414 0.455489 -1.3987 0
M  V30 964 H 95.5994 3.39313 -2.42739 0
M  V30 965 H 94.2294 2.91227 -1.39236 0
M  V30 966 H 93.2814 1.6231 -3.44034 0
M  V30 967 H 94.5934 2.32466 -4.41318 0
M  V30 968 H 93.7474 4.62865 -3.92226 0
M  V30 969 H 92.4864 3.95799 -2.84947 0
M  V30 970 H 91.4914 2.7071 -4.78535 0
M  V30 971 H 92.7164 3.40856 -5.87362 0
M  V30 972 H 90.6624 4.97923 -4.27093 0
M  V30 973 H 90.5794 4.64006 -5.96853 0
M  V30 974 H 91.8474 5.66096 -5.35869 0
M  V30 975 N 96.0765 1.50051 0.48192 0
M  V30 976 C 97.3165 1.62128 1.24474 0
M  V30 977 C 97.6805 0.309742 1.89485 0
M  V30 978 O 98.8815 0.305854 2.67054 0
M  V30 979 C 97.1525 2.76151 2.26882 0
M  V30 980 S 98.7115 3.08297 3.12247 0
M  V30 981 H 95.5295 0.571661 0.422759 0
M  V30 982 H 98.1315 1.87791 0.54359 0
M  V30 983 H 96.8355 3.69942 1.77683 0
M  V30 984 H 96.3665 2.52541 3.0164 0
M  V30 985 H 98.3815 2.51287 4.27866 0
M  V30 986 N 97.5546 -0.734337 1.39446 0
M  V30 987 C 98.9656 -1.31264 1.32766 0
M  V30 988 C 99.3166 -1.96198 -0.00767497 0
M  V30 989 O 98.4416 -1.96346 -0.909796 0
M  V30 990 C 99.0366 -2.38682 2.4045 0
M  V30 991 C 97.5956 -2.92184 2.37288 0
M  V30 992 C 96.7426 -1.6576 2.22304 0
M  V30 993 H 99.6936 -0.531799 1.49525 0
M  V30 994 H 99.7146 -3.19087 2.07276 0
M  V30 995 H 99.2266 -1.91392 3.37625 0
M  V30 996 H 97.3276 -3.43752 1.43754 0
M  V30 997 H 97.4406 -3.45253 3.3217 0
M  V30 998 H 95.8046 -1.9012 1.69489 0
M  V30 999 H 96.5876 -1.20521 3.21449 0
M  V30 1000 N 99.0327 -1.24633 -0.964593 0
M  V30 1001 C 99.9797 -1.04144 -2.05968 0
M  V30 1002 C 100.95 0.046262 -1.66036 0
M  V30 1003 O 102.135 -0.108972 -1.90489 0
M  V30 1004 C 99.2747 -0.65563 -3.38815 0
M  V30 1005 C 98.3877 -1.81714 -3.91923 0
M  V30 1006 C 97.5227 -1.37662 -5.13052 0
M  V30 1007 C 96.5617 -2.50788 -5.58365 0
M  V30 1008 N 95.6987 -2.07582 -6.70712 0
M  V30 1009 H 100.539 -1.9787 -2.22827 0
M  V30 1010 H 98.0757 -0.9855 -1.09208 0
M  V30 1011 H 100.034 -0.412954 -4.15151 0
M  V30 1012 H 98.6637 0.244627 -3.21872 0
M  V30 1013 H 97.7157 -2.1734 -3.12198 0
M  V30 1014 H 99.0277 -2.66705 -4.21509 0
M  V30 1015 H 98.1817 -1.093 -5.96773 0
M  V30 1016 H 96.9207 -0.497293 -4.85158 0
M  V30 1017 H 95.9257 -2.79906 -4.73215 0
M  V30 1018 H 97.1507 -3.39283 -5.88272 0
M  V30 1019 H 95.0967 -1.22051 -6.44546 0
M  V30 1020 H 95.0137 -2.86125 -6.99763 0
M  V30 1021 H 96.2817 -1.82369 -7.57867 0
M  V30 1022 N 100.511 1.16574 -1.06058 0
M  V30 1023 C 101.441 2.23057 -0.690488 0
M  V30 1024 C 102.422 1.67141 0.315901 0
M  V30 1025 O 103.607 1.93253 0.191556 0
M  V30 1026 C 100.737 3.47222 -0.073625 0
M  V30 1027 C 99.6908 4.16016 -1.00573 0
M  V30 1028 C 99.0168 5.34104 -0.252289 0
M  V30 1029 C 100.317 4.67264 -2.33371 0
M  V30 1030 H 102.011 2.54271 -1.58072 0
M  V30 1031 H 99.5568 1.22218 -0.76149 0
M  V30 1032 H 101.51 4.20939 0.19714 0
M  V30 1033 H 100.234 3.15302 0.85161 0
M  V30 1034 H 98.8928 3.44223 -1.2612 0
M  V30 1035 H 98.5408 4.98437 0.675988 0
M  V30 1036 H 98.2408 5.81072 -0.873455 0
M  V30 1037 H 99.7648 6.10599 0.0109857 0
M  V30 1038 H 101.179 5.32573 -2.12223 0
M  V30 1039 H 99.5758 5.24843 -2.90963 0
M  V30 1040 H 100.646 3.83602 -2.96611 0
M  V30 1041 N 101.989 0.842826 1.3317 0
M  V30 1042 C 102.919 0.294028 2.31641 0
M  V30 1043 C 103.9 -0.600401 1.59151 0
M  V30 1044 O 105.085 -0.523124 1.87022 0
M  V30 1045 C 102.215 -0.528416 3.43257 0
M  V30 1046 C 101.169 0.27056 4.27144 0
M  V30 1047 C 100.495 -0.675881 5.30411 0
M  V30 1048 C 101.795 1.48981 5.00602 0
M  V30 1049 H 103.489 1.11681 2.77791 0
M  V30 1050 H 101.035 0.538478 1.33553 0
M  V30 1051 H 102.988 -0.922674 4.11175 0
M  V30 1052 H 101.712 -1.38445 2.95805 0
M  V30 1053 H 100.371 0.646427 3.60856 0
M  V30 1054 H 100.019 -1.52842 4.79216 0
M  V30 1055 H 99.7189 -0.145374 5.8742 0
M  V30 1056 H 101.243 -1.06757 6.01195 0
M  V30 1057 H 102.657 1.16849 5.61266 0
M  V30 1058 H 101.054 1.95739 5.6728 0
M  V30 1059 H 102.124 2.25746 4.29147 0
M  V30 1060 N 103.467 -1.45747 0.599634 0
M  V30 1061 C 104.878 -1.85853 0.177681 0
M  V30 1062 C 105.229 -1.50102 -1.26348 0
M  V30 1063 O 104.354 -0.923905 -1.95686 0
M  V30 1064 C 104.949 -3.37326 0.315688 0
M  V30 1065 C 103.508 -3.76365 -0.0515144 0
M  V30 1066 C 102.655 -2.69722 0.643822 0
M  V30 1067 H 105.606 -1.36661 0.806814 0
M  V30 1068 H 105.627 -3.77778 -0.454321 0
M  V30 1069 H 105.139 -3.63315 1.36468 0
M  V30 1070 H 103.24 -3.55993 -1.09999 0
M  V30 1071 H 103.353 -4.77916 0.336594 0
M  V30 1072 H 101.717 -2.54567 0.0822881 0
M  V30 1073 H 102.5 -2.98549 1.6948 0
M  V30 1074 N 104.945 -0.338344 -1.53925 0
M  V30 1075 C 106.185 0.260168 -2.02737 0
M  V30 1076 C 106.549 1.48181 -1.22092 0
M  V30 1077 O 107.75 2.15416 -1.60777 0
M  V30 1078 C 106.021 0.571627 -3.52799 0
M  V30 1079 S 107.58 1.14769 -4.23525 0
M  V30 1080 H 104.398 0.077791 -0.706732 0
M  V30 1081 H 107 -0.474899 -1.89644 0
M  V30 1082 H 105.704 -0.325392 -4.09108 0
M  V30 1083 H 105.235 1.3365 -3.70002 0
M  V30 1084 H 107.25 2.43372 -4.32417 0
M  V30 1085 N 106.423 1.57458 -0.0668435 0
M  V30 1086 C 107.353 2.15468 0.899764 0
M  V30 1087 C 108.334 1.08042 1.31381 0
M  V30 1088 O 109.519 1.36054 1.38574 0
M  V30 1089 C 106.649 2.71232 2.16911 0
M  V30 1090 C 105.603 3.83781 1.89463 0
M  V30 1091 C 104.929 4.26127 3.22986 0
M  V30 1092 C 106.229 5.08238 1.20381 0
M  V30 1093 H 107.923 2.96488 0.416529 0
M  V30 1094 H 105.469 1.4262 0.198908 0
M  V30 1095 H 107.422 3.10458 2.84945 0
M  V30 1096 H 106.146 1.87426 2.67468 0
M  V30 1097 H 104.805 3.45051 1.23836 0
M  V30 1098 H 104.453 3.39249 3.71374 0
M  V30 1099 H 104.153 5.01993 3.05413 0
M  V30 1100 H 105.677 4.67966 3.92225 0
M  V30 1101 H 107.091 5.44811 1.78475 0
M  V30 1102 H 105.488 5.89349 1.13083 0
M  V30 1103 H 106.558 4.84558 0.182153 0
M  V30 1104 N 107.901 -0.206675 1.56239 0
M  V30 1105 C 108.851 -1.26 1.90021 0
M  V30 1106 C 109.835 -1.41566 0.764721 0
M  V30 1107 O 111.027 -1.44131 1.02739 0
M  V30 1108 C 108.156 -2.6073 2.23326 0
M  V30 1109 C 107.242 -2.49005 3.43304 0
M  V30 1110 N 107.633 -2.06946 4.61527 0
M  V30 1111 C 105.931 -2.79927 3.47213 0
M  V30 1112 C 106.632 -2.06832 5.43687 0
M  V30 1113 N 105.608 -2.47892 4.83788 0
M  V30 1114 H 109.41 -0.925955 2.78932 0
M  V30 1115 H 106.924 -0.415172 1.57003 0
M  V30 1116 H 108.921 -3.36798 2.45708 0
M  V30 1117 H 107.581 -2.94968 1.35735 0
M  V30 1118 H 108.592 -1.77839 4.86409 0
M  V30 1119 H 105.269 -3.18438 2.70006 0
M  V30 1120 H 106.659 -1.76312 6.48354 0
M  V30 1121 N 109.379 -1.50304 -0.473955 0
M  V30 1122 C 110.607 -1.64902 -1.24959 0
M  V30 1123 C 111.022 -0.331198 -1.85872 0
M  V30 1124 O 110.379 0.68652 -1.69095 0
M  V30 1125 C 110.43 -2.73803 -2.36038 0
M  V30 1126 O 110.151 -4.00477 -1.77624 0
M  V30 1127 C 111.652 -2.99349 -3.26964 0
M  V30 1128 H 108.872 -0.554383 -0.378022 0
M  V30 1129 H 111.416 -1.9651 -0.566054 0
M  V30 1130 H 109.571 -2.44898 -3.00173 0
M  V30 1131 H 109.985 -4.60678 -2.5075 0
M  V30 1132 H 111.459 -3.79217 -4.01121 0
M  V30 1133 H 111.936 -2.10307 -3.85574 0
M  V30 1134 H 112.542 -3.29774 -2.68569 0
M  V30 1135 N 110.857 0.726932 -1.39834 0
M  V30 1136 C 111.787 1.85405 -1.41941 0
M  V30 1137 C 112.768 1.67751 -0.281728 0
M  V30 1138 O 113.953 1.8795 -0.488717 0
M  V30 1139 C 111.083 3.23243 -1.2701 0
M  V30 1140 C 110.037 3.55549 -2.38262 0
M  V30 1141 C 109.363 4.9241 -2.08415 0
M  V30 1142 C 110.663 3.577 -3.80589 0
M  V30 1143 H 112.357 1.83899 -2.36266 0
M  V30 1144 H 109.903 0.883349 -1.13723 0
M  V30 1145 H 111.856 4.01775 -1.27103 0
M  V30 1146 H 110.58 3.25296 -0.291564 0
M  V30 1147 H 109.239 2.79351 -2.37399 0
M  V30 1148 H 108.887 4.91052 -1.0898 0
M  V30 1149 H 108.587 5.14992 -2.82943 0
M  V30 1150 H 110.111 5.73289 -2.10171 0
M  V30 1151 H 111.525 4.26293 -3.83337 0
M  V30 1152 H 109.922 3.91804 -4.54543 0
M  V30 1153 H 110.992 2.57328 -4.10987 0
M  V30 1154 N 112.336 1.25143 0.95797 0
M  V30 1155 C 113.576 1.10893 1.71703 0
M  V30 1156 C 113.94 -0.34478 1.88879 0
M  V30 1157 O 115.141 -0.609014 2.6181 0
M  V30 1158 C 113.412 1.83889 3.06463 0
M  V30 1159 S 114.971 1.85491 3.97666 0
M  V30 1160 H 111.789 0.396428 0.590226 0
M  V30 1161 H 114.391 1.58618 1.14283 0
M  V30 1162 H 113.095 2.88756 2.9163 0
M  V30 1163 H 112.626 1.36538 3.68946 0
M  V30 1164 H 114.641 0.929553 4.87415 0
M  V30 1165 N 113.814 -1.1601 1.06675 0
M  V30 1166 C 115.039 -1.91068 0.806706 0
M  V30 1167 C 115.464 -1.77112 -0.633485 0
M  V30 1168 O 114.822 -1.09908 -1.44187 0
M  V30 1169 C 114.87 -3.39655 1.21106 0
M  V30 1170 O 113.974 -4.10893 0.352189 0
M  V30 1171 H 113.315 -0.595125 0.294486 0
M  V30 1172 H 115.845 -1.46955 1.42356 0
M  V30 1173 H 115.855 -3.90434 1.18428 0
M  V30 1174 H 114.53 -3.49132 2.26008 0
M  V30 1175 H 113.107 -3.70285 0.440868 0
M  V30 1176 N 115.292 -0.849877 -1.32721 0
M  V30 1177 C 116.54 -0.450032 -1.97026 0
M  V30 1178 C 116.861 0.996604 -1.67609 0
M  V30 1179 O 116.131 1.6958 -0.980786 0
M  V30 1180 H 114.711 -0.163426 -0.728904 0
M  V30 1181 H 117.373 -1.08526 -1.6189 0
M  V30 1182 H 116.469 -0.591146 -3.0645 0
M  V30 1183 N 116.77 1.45427 -0.607355 0
M  V30 1184 C 118.01 2.04128 -0.105458 0
M  V30 1185 C 118.374 1.46555 1.24039 0
M  V30 1186 O 119.575 1.96608 1.833 0
M  V30 1187 C 117.846 3.57338 -0.0665324 0
M  V30 1188 S 119.405 4.37201 0.374207 0
M  V30 1189 H 116.223 0.709278 -0.0494575 0
M  V30 1190 H 118.825 1.78139 -0.805404 0
M  V30 1191 H 117.529 3.96752 -1.04957 0
M  V30 1192 H 117.06 3.87902 0.655415 0
M  V30 1193 H 119.075 4.6888 1.62377 0
M  V30 1194 N 118.248 0.346503 1.53744 0
M  V30 1195 C 119.178 -0.501193 2.28058 0
M  V30 1196 C 120.159 -1.10014 1.29734 0
M  V30 1197 O 121.344 -1.12097 1.58581 0
M  V30 1198 C 118.474 -1.65078 3.05559 0
M  V30 1199 C 117.428 -1.18003 4.11411 0
M  V30 1200 C 116.754 -2.41837 4.76884 0
M  V30 1201 C 118.054 -0.278394 5.21558 0
M  V30 1202 H 119.748 0.11875 2.99164 0
M  V30 1203 H 117.294 0.0585531 1.43881 0
M  V30 1204 H 119.247 -2.25028 3.56287 0
M  V30 1205 H 117.971 -2.29767 2.32109 0
M  V30 1206 H 116.63 -0.603331 3.61601 0
M  V30 1207 H 116.278 -3.0494 4.00026 0
M  V30 1208 H 115.978 -2.1102 5.48402 0
M  V30 1209 H 117.502 -3.02508 5.30397 0
M  V30 1210 H 118.916 -0.784823 5.67903 0
M  V30 1211 H 117.313 -0.0619707 6.00068 0
M  V30 1212 H 118.383 0.684677 4.80042 0
M  V30 1213 N 119.726 -1.57421 0.075193 0
M  V30 1214 C 120.636 -2.1642 -0.905511 0
M  V30 1215 C 121.652 -1.12828 -1.32461 0
M  V30 1216 O 122.828 -1.45109 -1.39661 0
M  V30 1217 C 119.893 -2.71693 -2.15369 0
M  V30 1218 C 118.954 -3.90171 -1.79068 0
M  V30 1219 C 118.187 -4.42798 -2.97936 0
M  V30 1220 O 118.41 -3.94416 -4.12058 0
M  V30 1221 O 117.344 -5.34085 -2.77555 0
M  V30 1222 H 121.17 -3.00588 -0.433626 0
M  V30 1223 H 118.755 -1.48664 -0.148067 0
M  V30 1224 H 120.637 -3.07104 -2.88557 0
M  V30 1225 H 119.312 -1.90582 -2.61649 0
M  V30 1226 H 118.219 -3.59606 -1.03122 0
M  V30 1227 H 119.552 -4.72584 -1.37569 0
M  V30 1228 N 121.204 0.198386 -1.56346 0
M  V30 1229 C 122.167 1.22952 -1.93431 0
M  V30 1230 C 123.167 1.38611 -0.815092 0
M  V30 1231 O 124.357 1.36479 -1.08255 0
M  V30 1232 C 121.489 2.59946 -2.20546 0
M  V30 1233 H 122.682 0.912626 -2.85677 0
M  V30 1234 H 120.235 0.43977 -1.49986 0
M  V30 1235 H 120.97 2.96696 -1.30927 0
M  V30 1236 H 120.755 2.49953 -3.02102 0
M  V30 1237 H 122.245 3.3431 -2.50253 0
M  V30 1238 N 122.682 1.50554 0.465978 0
M  V30 1239 C 123.907 1.65838 1.24549 0
M  V30 1240 C 124.332 0.343486 1.84937 0
M  V30 1241 O 123.69 -0.69324 1.67523 0
M  V30 1242 C 123.738 2.75533 2.32624 0
M  V30 1243 O 122.842 2.37142 3.37398 0
M  V30 1244 H 122.183 0.553893 0.366194 0
M  V30 1245 H 124.713 1.96959 0.553927 0
M  V30 1246 H 124.723 2.98763 2.77857 0
M  V30 1247 H 123.398 3.70962 1.88043 0
M  V30 1248 H 121.975 2.24377 2.97841 0
M  V30 1249 N 124.16 -0.719506 1.40217 0
M  V30 1250 C 125.408 -1.47641 1.3801 0
M  V30 1251 C 125.729 -1.94992 -0.018145 0
M  V30 1252 O 124.999 -1.70073 -0.972207 0
M  V30 1253 H 123.579 -0.547744 0.507923 0
M  V30 1254 H 126.241 -0.853187 1.75233 0
M  V30 1255 H 125.337 -2.35112 2.05253 0
M  V30 1256 N 125.638 -1.25649 -0.95132 0
M  V30 1257 C 126.571 -1.00644 -2.04807 0
M  V30 1258 C 127.549 0.0654271 -1.62468 0
M  V30 1259 O 128.733 -0.074911 -1.88351 0
M  V30 1260 C 125.86 -0.522052 -3.34653 0
M  V30 1261 C 124.906 -1.58495 -3.95957 0
M  V30 1262 S 125.739 -3.17108 -4.31512 0
M  V30 1263 C 126.895 -2.70412 -5.64471 0
M  V30 1264 H 127.128 -1.93508 -2.25703 0
M  V30 1265 H 124.661 -1.09216 -1.09139 0
M  V30 1266 H 126.619 -0.24923 -4.09743 0
M  V30 1267 H 125.28 0.386146 -3.11717 0
M  V30 1268 H 124.473 -1.1968 -4.89584 0
M  V30 1269 H 124.075 -1.80862 -3.2736 0
M  V30 1270 H 126.367 -2.14245 -6.42733 0
M  V30 1271 H 127.31 -3.62693 -6.08161 0
M  V30 1272 H 127.718 -2.10302 -5.23864 0
M  V30 1273 N 127.117 1.15442 -1.07289 0
M  V30 1274 C 128.049 2.19773 -0.650585 0
M  V30 1275 C 129.062 1.60076 0.296572 0
M  V30 1276 O 130.251 1.78293 0.0859905 0
M  V30 1277 C 127.351 3.38838 0.0650398 0
M  V30 1278 C 126.524 4.2808 -0.898141 0
M  V30 1279 C 125.583 5.2574 -0.219926 0
M  V30 1280 O 124.609 5.62654 -0.860773 0
M  V30 1281 N 125.811 5.71205 1.03466 0
M  V30 1282 H 128.576 2.56622 -1.54808 0
M  V30 1283 H 126.137 1.30551 -0.957494 0
M  V30 1284 H 128.129 4.01222 0.529415 0
M  V30 1285 H 126.699 3.00409 0.864466 0
M  V30 1286 H 125.919 3.62804 -1.54165 0
M  V30 1287 H 127.207 4.84577 -1.5512 0
M  V30 1288 H 126.605 5.43325 1.57526 0
M  V30 1289 H 125.162 6.35633 1.44272 0
M  V30 1290 N 128.595 0.856903 1.32268 0
M  V30 1291 C 129.835 0.467705 1.98977 0
M  V30 1292 C 130.199 -0.959231 1.66321 0
M  V30 1293 O 131.4 -1.4531 2.26138 0
M  V30 1294 C 129.671 0.70256 3.50427 0
M  V30 1295 S 131.23 0.411269 4.36868 0
M  V30 1296 H 128.048 0.175121 0.689096 0
M  V30 1297 H 130.65 1.1101 1.60925 0
M  V30 1298 H 129.354 1.74012 3.71683 0
M  V30 1299 H 128.885 0.0466707 3.93372 0
M  V30 1300 H 130.9 -0.761799 4.90317 0
M  V30 1301 N 130.073 -1.45103 0.615059 0
M  V30 1302 C 131.484 -1.85654 0.197383 0
M  V30 1303 C 131.835 -1.51433 -1.24749 0
M  V30 1304 O 130.96 -0.944608 -1.94695 0
M  V30 1305 C 131.555 -3.36972 0.351448 0
M  V30 1306 C 130.114 -3.76398 -0.011593 0
M  V30 1307 C 129.261 -2.69024 0.672394 0
M  V30 1308 H 132.212 -1.35797 0.821263 0
M  V30 1309 H 132.233 -3.78239 -0.414227 0
M  V30 1310 H 131.745 -3.61847 1.40314 0
M  V30 1311 H 129.846 -3.5714 -1.06217 0
M  V30 1312 H 129.959 -4.77532 0.387265 0
M  V30 1313 H 128.323 -2.54465 0.109284 0
M  V30 1314 H 129.106 -2.96735 1.72636 0
M  V30 1315 N 131.551 -0.354651 -1.53558 0
M  V30 1316 C 132.8 0.239504 -2.00273 0
M  V30 1317 C 133.113 1.50759 -1.24623 0
M  V30 1318 O 134.319 2.17968 -1.61871 0
M  V30 1319 C 132.775 0.477341 -3.5672 0
M  V30 1320 C 132.383 -0.775488 -4.41237 0
M  V30 1321 C 134.127 1.02975 -4.11821 0
M  V30 1322 C 132.034 -0.507838 -5.89216 0
M  V30 1323 H 130.964 0.0932743 -0.748208 0
M  V30 1324 H 133.615 -0.471701 -1.77334 0
M  V30 1325 H 131.997 1.24953 -3.7577 0
M  V30 1326 H 133.171 -1.54963 -4.33962 0
M  V30 1327 H 131.486 -1.25033 -3.97185 0
M  V30 1328 H 134.083 1.24513 -5.2 0
M  V30 1329 H 134.426 1.98862 -3.65731 0
M  V30 1330 H 134.959 0.317994 -3.96527 0
M  V30 1331 H 131.698 -1.43674 -6.39561 0
M  V30 1332 H 131.218 0.228011 -5.99366 0
M  V30 1333 H 132.897 -0.129238 -6.46871 0
M  V30 1334 N 133.029 1.57378 -0.0835403 0
M  V30 1335 C 134.269 1.95808 0.586381 0
M  V30 1336 C 134.633 0.963706 1.66062 0
M  V30 1337 O 135.834 1.23608 2.38693 0
M  V30 1338 C 134.105 3.38808 1.13771 0
M  V30 1339 S 135.664 3.99225 1.82112 0
M  V30 1340 H 132.482 0.684675 0.191679 0
M  V30 1341 H 135.084 1.94843 -0.160194 0
M  V30 1342 H 133.788 4.08954 0.344197 0
M  V30 1343 H 133.319 3.43344 1.92038 0
M  V30 1344 H 135.334 3.87087 3.10449 0
M  V30 1345 N 134.507 -0.190092 1.56449 0
M  V30 1346 C 135.439 -1.25973 1.91477 0
M  V30 1347 C 136.452 -1.41452 0.805931 0
M  V30 1348 O 137.641 -1.41789 1.08435 0
M  V30 1349 C 134.741 -2.63117 2.13594 0
M  V30 1350 C 133.914 -2.69182 3.4476 0
M  V30 1351 C 132.973 -3.87557 3.5593 0
M  V30 1352 O 131.999 -3.74427 4.28711 0
M  V30 1353 N 133.201 -5.03224 2.89388 0
M  V30 1354 H 135.966 -0.962394 2.83828 0
M  V30 1355 H 133.527 -0.379981 1.57378 0
M  V30 1356 H 135.519 -3.40742 2.1835 0
M  V30 1357 H 134.089 -2.85319 1.27719 0
M  V30 1358 H 133.309 -1.77793 3.51828 0
M  V30 1359 H 134.597 -2.70229 4.31107 0
M  V30 1360 H 133.995 -5.16791 2.30094 0
M  V30 1361 H 132.552 -5.78778 2.99764 0
M  V30 1362 N 135.985 -1.50799 -0.457987 0
M  V30 1363 C 136.948 -1.7005 -1.53674 0
M  V30 1364 C 137.948 -0.570881 -1.50325 0
M  V30 1365 O 139.138 -0.838126 -1.52712 0
M  V30 1366 C 136.27 -1.73788 -2.93276 0
M  V30 1367 H 137.463 -2.66306 -1.37917 0
M  V30 1368 H 135.016 -1.40477 -0.685271 0
M  V30 1369 H 135.751 -0.792717 -3.14462 0
M  V30 1370 H 135.536 -2.55864 -2.97113 0
M  V30 1371 H 137.026 -1.90591 -3.71571 0
M  V30 1372 N 137.463 0.71206 -1.40597 0
M  V30 1373 C 138.874 1.29135 -1.34837 0
M  V30 1374 C 139.225 1.96186 -0.0235395 0
M  V30 1375 O 138.35 1.97768 0.878444 0
M  V30 1376 C 138.945 2.34827 -2.44217 0
M  V30 1377 C 137.504 2.88371 -2.41907 0
M  V30 1378 C 136.651 1.62202 -2.24913 0
M  V30 1379 H 139.602 0.507944 -1.50352 0
M  V30 1380 H 139.623 3.15749 -2.12327 0
M  V30 1381 H 139.135 1.85996 -3.40627 0
M  V30 1382 H 137.236 3.41422 -1.49204 0
M  V30 1383 H 137.349 3.39925 -3.37621 0
M  V30 1384 H 135.713 1.874 -1.72492 0
M  V30 1385 H 136.496 1.15391 -3.23326 0
M  V30 1386 N 138.941 1.26152 0.944643 0
M  V30 1387 C 140.187 1.12665 1.69346 0
M  V30 1388 C 140.542 -0.3273 1.89596 0
M  V30 1389 O 139.835 -1.23717 1.46303 0
M  V30 1390 C 140.029 1.82541 3.07268 0
M  V30 1391 C 139.858 3.34582 3.00475 0
M  V30 1392 C 138.628 4.03863 3.03681 0
M  V30 1393 C 140.826 4.30828 2.80877 0
M  V30 1394 N 138.808 5.42603 2.87151 0
M  V30 1395 C 140.179 5.5672 2.7288 0
M  V30 1396 C 142.234 4.21122 2.65633 0
M  V30 1397 C 140.937 6.74013 2.51196 0
M  V30 1398 C 142.963 5.38118 2.45323 0
M  V30 1399 C 142.325 6.62955 2.38055 0
M  V30 1400 H 138.424 0.467041 0.627214 0
M  V30 1401 H 141.008 1.59391 1.11815 0
M  V30 1402 H 139.179 1.38296 3.62945 0
M  V30 1403 H 140.911 1.61708 3.70989 0
M  V30 1404 H 137.666 3.55198 3.1326 0
M  V30 1405 H 138.09 6.15443 2.82063 0
M  V30 1406 H 142.732 3.25344 2.70021 0
M  V30 1407 H 140.45 7.6989 2.4555 0
M  V30 1408 H 144.036 5.32475 2.34439 0
M  V30 1409 H 142.916 7.51959 2.22546 0
M  V30 1410 N 140.419 -1.14872 1.07899 0
M  V30 1411 C 141.83 -1.67367 0.827363 0
M  V30 1412 C 142.181 -1.85236 -0.646693 0
M  V30 1413 O 141.306 -1.55974 -1.50004 0
M  V30 1414 C 141.901 -3.04016 1.49532 0
M  V30 1415 C 140.46 -3.53566 1.29106 0
M  V30 1416 C 139.607 -2.29161 1.56143 0
M  V30 1417 H 142.558 -0.990083 1.24028 0
M  V30 1418 H 142.579 -3.69219 0.919643 0
M  V30 1419 H 142.091 -2.90978 2.56814 0
M  V30 1420 H 140.192 -3.71835 0.238713 0
M  V30 1421 H 140.305 -4.34661 2.01511 0
M  V30 1422 H 138.669 -2.34978 0.982717 0
M  V30 1423 H 139.452 -2.18705 2.64619 0
M  V30 1424 N 141.898 -0.863906 -1.31812 0
M  V30 1425 C 142.828 -0.330843 -2.31144 0
M  V30 1426 C 143.809 0.575005 -1.60087 0
M  V30 1427 O 144.994 0.493304 -1.8783 0
M  V30 1428 C 142.124 0.47374 -3.44054 0
M  V30 1429 C 141.078 -0.338481 -4.26659 0
M  V30 1430 C 140.404 0.591412 -5.31419 0
M  V30 1431 C 141.704 -1.56926 -4.98168 0
M  V30 1432 H 143.398 -1.16086 -2.75979 0
M  V30 1433 H 140.944 -0.559657 -1.32679 0
M  V30 1434 H 142.897 0.857143 -4.12591 0
M  V30 1435 H 141.621 1.33721 -2.9797 0
M  V30 1436 H 140.28 -0.703754 -3.59782 0
M  V30 1437 H 139.928 1.45199 -4.81587 0
M  V30 1438 H 139.628 0.0519022 -5.87577 0
M  V30 1439 H 141.152 0.97179 -6.02817 0
M  V30 1440 H 142.566 -1.25764 -5.59336 0
M  V30 1441 H 140.963 -2.04739 -5.64094 0
M  V30 1442 H 142.033 -2.32544 -4.25501 0
M  V30 1443 N 143.376 1.44774 -0.622745 0
M  V30 1444 C 144.624 2.01721 -0.123655 0
M  V30 1445 C 144.945 1.49172 1.25589 0
M  V30 1446 O 144.215 0.691974 1.83272 0
M  V30 1447 H 142.795 0.745777 -0.0427225 0
M  V30 1448 H 145.457 1.77382 -0.807559 0
M  V30 1449 H 144.553 3.11984 -0.0849534 0
M  V30 1450 N 144.854 0.36279 1.53368 0
M  V30 1451 C 145.817 -0.472679 2.24273 0
M  V30 1452 C 146.817 -1.012 1.24961 0
M  V30 1453 O 148.007 -0.898194 1.49259 0
M  V30 1454 C 145.139 -1.66039 2.97731 0
M  V30 1455 H 146.332 0.14773 2.99536 0
M  V30 1456 H 143.885 0.114434 1.55881 0
M  V30 1457 H 144.62 -2.31896 2.26704 0
M  V30 1458 H 144.405 -1.28066 3.70596 0
M  V30 1459 H 145.895 -2.25252 3.51641 0
M  V30 1460 N 146.332 -1.57332 0.0918853 0
M  V30 1461 C 147.609 -1.85691 -0.614668 0
M  V30 1462 C 147.989 -0.988146 -1.86545 0
M  V30 1463 O 147.337 -0.0597055 -2.28422 0
M  V30 1464 C 147.547 -3.36294 -0.933126 0
M  V30 1465 C 148.895 -4.04275 -1.29796 0
M  V30 1466 O 149.919 -3.41157 -1.02424 0
M  V30 1467 O 148.778 -5.1564 -1.81047 0
M  V30 1468 H 145.872 -0.767802 -0.307261 0
M  V30 1469 H 148.418 -1.69244 0.12434 0
M  V30 1470 H 147.19 -3.91273 -0.0456404 0
M  V30 1471 H 146.813 -3.58076 -1.72822 0
M  V30 1472 N 147.81 0.181792 -1.56548 0
M  V30 1473 C 149.038 0.915947 -1.85521 0
M  V30 1474 C 149.453 1.76282 -0.676016 0
M  V30 1475 O 148.81 1.79012 0.355077 0
M  V30 1476 C 148.861 1.80126 -3.13427 0
M  V30 1477 O 148.582 0.988562 -4.26801 0
M  V30 1478 C 150.083 2.64597 -3.55673 0
M  V30 1479 H 147.303 0.26661 -0.61576 0
M  V30 1480 H 149.847 0.185039 -2.03661 0
M  V30 1481 H 148.002 2.48563 -2.97145 0
M  V30 1482 H 148.416 1.59308 -4.99721 0
M  V30 1483 H 149.89 3.2235 -4.48101 0
M  V30 1484 H 150.367 3.38958 -2.79292 0
M  V30 1485 H 150.973 2.0151 -3.74532 0
M  V30 1486 N 149.288 1.51039 0.449983 0
M  V30 1487 C 150.699 1.557 1.03026 0
M  V30 1488 C 151.05 0.372939 1.92623 0
M  V30 1489 O 150.175 -0.511771 2.10261 0
M  V30 1490 C 150.77 2.82171 1.87523 0
M  V30 1491 C 149.329 2.89444 2.40622 0
M  V30 1492 C 148.476 2.50228 1.19504 0
M  V30 1493 H 151.427 1.56999 0.231745 0
M  V30 1494 H 151.448 2.65219 2.72835 0
M  V30 1495 H 150.96 3.68331 1.22286 0
M  V30 1496 H 149.061 2.07685 3.0935 0
M  V30 1497 H 149.174 3.92816 2.74285 0
M  V30 1498 H 147.538 2.03139 1.53644 0
M  V30 1499 H 148.321 3.38719 0.558972 0
M  V30 1500 N 150.766 -0.704594 1.40972 0
M  V30 1501 C 151.729 -1.80035 1.41845 0
M  V30 1502 C 152.729 -1.57774 0.310474 0
M  V30 1503 O 153.919 -1.64613 0.56992 0
M  V30 1504 C 151.051 -3.18284 1.22098 0
M  V30 1505 H 152.244 -1.80658 2.3938 0
M  V30 1506 H 149.797 -0.911329 1.26982 0
M  V30 1507 H 150.532 -3.23306 0.253672 0
M  V30 1508 H 150.317 -3.35843 2.02366 0
M  V30 1509 H 151.807 -3.98289 1.25522 0
M  V30 1510 N 152.244 -1.26651 -0.937939 0
M  V30 1511 C 153.174 -1.10993 -2.05433 0
M  V30 1512 C 154.155 -0.0142161 -1.70094 0
M  V30 1513 O 155.34 -0.186837 -1.93299 0
M  V30 1514 C 152.47 -0.745561 -3.39203 0
M  V30 1515 C 151.424 -1.79337 -3.88616 0
M  V30 1516 C 150.75 -1.28324 -5.19073 0
M  V30 1517 C 152.05 -3.19553 -4.13138 0
M  V30 1518 H 153.744 -2.0438 -2.1879 0
M  V30 1519 H 151.29 -0.984041 -1.05131 0
M  V30 1520 H 153.243 -0.622888 -4.16771 0
M  V30 1521 H 151.967 0.22401 -3.25831 0
M  V30 1522 H 150.626 -1.90477 -3.13231 0
M  V30 1523 H 150.274 -0.303414 -5.02084 0
M  V30 1524 H 149.974 -1.98369 -5.53103 0
M  V30 1525 H 151.498 -1.1733 -5.99221 0
M  V30 1526 H 152.912 -3.11471 -4.81309 0
M  V30 1527 H 151.309 -3.87218 -4.58457 0
M  V30 1528 H 152.379 -3.65368 -3.18801 0
M  V30 1529 N 153.722 1.14298 -1.08507 0
M  V30 1530 C 154.999 1.81544 -0.728088 0
M  V30 1531 C 155.379 1.95838 0.78808 0
M  V30 1532 O 154.727 1.51904 1.70697 0
M  V30 1533 C 154.937 3.17169 -1.45619 0
M  V30 1534 C 156.285 3.9265 -1.61591 0
M  V30 1535 O 157.309 3.26762 -1.41793 0
M  V30 1536 O 156.168 5.10807 -1.94263 0
M  V30 1537 H 153.262 0.78491 -0.260471 0
M  V30 1538 H 155.808 1.21307 -1.18671 0
M  V30 1539 H 154.58 3.01934 -2.489 0
M  V30 1540 H 154.203 3.851 -0.989124 0
M  V30 1541 N 155.201 0.870884 1.31352 0
M  V30 1542 C 156.149 0.316445 2.30437 0
M  V30 1543 C 157.143 -0.568965 1.59559 0
M  V30 1544 O 158.349 -0.454964 1.74155 0
M  V30 1545 H 154.724 0.0836521 0.747333 0
M  V30 1546 H 156.695 1.16606 2.74673 0
M  V30 1547 C 155.444 -0.46635 3.44558 0
M  V30 1548 H 154.767 0.205687 3.99271 0
M  V30 1549 H 156.207 -0.819614 4.16003 0
M  V30 1550 C 154.666 -1.65797 2.9328 0
M  V30 1551 O 155.196 -2.75728 2.92125 0
M  V30 1552 N 153.402 -1.49041 2.4947 0
M  V30 1553 H 152.949 -0.59612 2.50608 0
M  V30 1554 H 152.907 -2.28911 2.15516 0
M  V30 1555 N 156.679 -1.44442 0.630414 0
M  V30 1556 C 157.925 -2.02351 0.134816 0
M  V30 1557 C 158.258 -1.4947 -1.23986 0
M  V30 1558 O 157.533 -0.678475 -1.82283 0
M  V30 1559 C 157.816 -3.59898 0.120707 0
M  V30 1560 C 157.669 -4.23063 1.52767 0
M  V30 1561 C 158.988 -4.36585 -0.555127 0
M  V30 1562 H 156.107 -0.73527 0.0504646 0
M  V30 1563 H 158.749 -1.72022 0.806751 0
M  V30 1564 H 156.899 -3.85868 -0.451477 0
M  V30 1565 H 158.571 -4.08202 2.14869 0
M  V30 1566 H 156.814 -3.80586 2.08175 0
M  V30 1567 H 157.485 -5.32071 1.46984 0
M  V30 1568 H 159.961 -4.16044 -0.0685429 0
M  V30 1569 H 158.837 -5.46294 -0.534185 0
M  V30 1570 H 159.098 -4.11138 -1.62535 0
M  V30 1571 N 158.157 -0.370918 -1.53173 0
M  V30 1572 C 159.404 0.217102 -2.01333 0
M  V30 1573 C 159.732 1.48338 -1.25802 0
M  V30 1574 O 158.987 1.92698 -0.34146 0
M  V30 1575 C 159.286 0.549696 -3.53147 0
M  V30 1576 C 158.952 -0.622872 -4.46577 0
M  V30 1577 C 157.614 -0.944595 -4.71838 0
M  V30 1578 C 159.966 -1.40819 -5.01816 0
M  V30 1579 C 157.294 -2.05351 -5.49589 0
M  V30 1580 C 159.646 -2.50757 -5.80778 0
M  V30 1581 C 158.31 -2.83458 -6.04324 0
M  V30 1582 H 157.58 0.0794431 -0.736729 0
M  V30 1583 H 160.227 -0.504481 -1.84736 0
M  V30 1584 H 158.532 1.35237 -3.6772 0
M  V30 1585 H 160.229 1.017 -3.87889 0
M  V30 1586 H 156.819 -0.36209 -4.27068 0
M  V30 1587 H 161.003 -1.17289 -4.82242 0
M  V30 1588 H 156.259 -2.3108 -5.6605 0
M  V30 1589 H 160.433 -3.12022 -6.22588 0
M  V30 1590 H 158.06 -3.69508 -6.64355 0
M  V30 1591 N 159.635 1.57281 -0.100228 0
M  V30 1592 C 160.882 1.94537 0.562268 0
M  V30 1593 C 161.21 0.982315 1.67871 0
M  V30 1594 O 160.465 0.00280936 1.957 0
M  V30 1595 C 160.764 3.38305 1.15259 0
M  V30 1596 C 160.43 4.50618 0.159409 0
M  V30 1597 C 159.092 4.81066 -0.113741 0
M  V30 1598 C 161.444 5.18615 -0.518461 0
M  V30 1599 C 158.772 5.76835 -1.07137 0
M  V30 1600 C 161.124 6.15412 -1.46459 0
M  V30 1601 C 159.788 6.44262 -1.74592 0
M  V30 1602 H 159.058 0.711863 0.205748 0
M  V30 1603 H 161.705 1.90679 -0.17715 0
M  V30 1604 H 160.01 3.38766 1.96836 0
M  V30 1605 H 161.707 3.64435 1.67297 0
M  V30 1606 H 158.297 4.2689 0.382491 0
M  V30 1607 H 162.481 4.95264 -0.320581 0
M  V30 1608 H 157.737 5.975 -1.29628 0
M  V30 1609 H 161.911 6.67194 -1.99564 0
M  V30 1610 H 159.538 7.1828 -2.48953 0
M  V30 1611 N 161.113 -0.173488 1.56642 0
M  V30 1612 C 162.023 -1.23482 1.99473 0
M  V30 1613 C 163.039 -1.48567 0.905752 0
M  V30 1614 O 164.215 -1.60758 1.21321 0
M  V30 1615 C 161.28 -2.55444 2.34413 0
M  V30 1616 C 160.341 -2.38241 3.57127 0
M  V30 1617 C 159.574 -3.63909 3.90392 0
M  V30 1618 O 159.797 -4.68996 3.24653 0
M  V30 1619 O 158.731 -3.58149 4.83749 0
M  V30 1620 H 162.557 -0.901279 2.90018 0
M  V30 1621 H 160.142 -0.380185 1.44482 0
M  V30 1622 H 162.024 -3.33292 2.57865 0
M  V30 1623 H 160.699 -2.88382 1.4703 0
M  V30 1624 H 159.606 -1.58431 3.38896 0
M  V30 1625 H 160.939 -2.10228 4.45045 0
M  V30 1626 N 162.591 -1.51276 -0.441967 0
M  V30 1627 C 163.816 -1.67799 -1.21895 0
M  V30 1628 C 164.241 -0.372864 -1.84367 0
M  V30 1629 O 163.599 0.666501 -1.68604 0
M  V30 1630 C 163.647 -2.79199 -2.28211 0
M  V30 1631 O 162.751 -2.42479 -3.33583 0
M  V30 1632 H 162.092 -0.559649 -0.357336 0
M  V30 1633 H 164.622 -1.97815 -0.522522 0
M  V30 1634 H 164.632 -3.03146 -2.73069 0
M  V30 1635 H 163.307 -3.73906 -1.82118 0
M  V30 1636 H 161.884 -2.29087 -2.94234 0
M  V30 1637 N 164.069 0.697108 -1.41344 0
M  V30 1638 C 164.999 1.82353 -1.45841 0
M  V30 1639 C 165.98 1.67115 -0.317247 0
M  V30 1640 O 167.165 1.86871 -0.528474 0
M  V30 1641 C 164.295 3.20476 -1.33838 0
M  V30 1642 C 163.249 3.50415 -2.4575 0
M  V30 1643 C 162.575 4.87878 -2.18813 0
M  V30 1644 C 163.875 3.49546 -3.88091 0
M  V30 1645 H 165.569 1.78846 -2.40113 0
M  V30 1646 H 163.115 0.859028 -1.15571 0
M  V30 1647 H 165.068 3.98988 -1.35596 0
M  V30 1648 H 163.792 3.24604 -0.360498 0
M  V30 1649 H 162.451 2.74253 -2.43271 0
M  V30 1650 H 162.099 4.8863 -1.19371 0
M  V30 1651 H 161.799 5.08875 -2.93803 0
M  V30 1652 H 163.323 5.68702 -2.22284 0
M  V30 1653 H 164.737 4.18066 -3.92293 0
M  V30 1654 H 163.134 3.82075 -4.62751 0
M  V30 1655 H 164.204 2.48552 -4.16353 0
M  V30 1656 N 165.547 1.27147 0.931209 0
M  V30 1657 C 166.479 1.05364 2.03546 0
M  V30 1658 C 167.492 0.0108438 1.62796 0
M  V30 1659 O 168.681 0.25202 1.76712 0
M  V30 1660 C 165.781 0.575566 3.33977 0
M  V30 1661 C 164.954 1.68985 4.03439 0
M  V30 1662 C 164.013 1.20813 5.12143 0
M  V30 1663 O 163.039 1.90712 5.363 0
M  V30 1664 N 164.241 0.0618851 5.80467 0
M  V30 1665 H 167.006 2.00454 2.22796 0
M  V30 1666 H 164.567 1.18666 1.10136 0
M  V30 1667 H 166.559 0.237264 4.04004 0
M  V30 1668 H 165.129 -0.282016 3.11325 0
M  V30 1669 H 164.349 2.19861 3.27192 0
M  V30 1670 H 165.637 2.4378 4.46597 0
M  V30 1671 H 165.035 -0.521621 5.6329 0
M  V30 1672 H 163.592 -0.217264 6.51438 0
M  V30 1673 N 167.025 -1.13721 1.09112 0
M  V30 1674 C 168.441 -1.36914 0.820174 0
M  V30 1675 C 168.641 -1.93356 -0.567079 0
M  V30 1676 O 167.697 -2.15093 -1.32255 0
M  V30 1677 C 169.01 -2.3235 1.90877 0
M  V30 1678 C 170.558 -2.45973 1.93562 0
M  V30 1679 C 171.033 -3.44714 3.01556 0
M  V30 1680 N 172.524 -3.52263 3.00775 0
M  V30 1681 C 173.259 -4.28536 3.80978 0
M  V30 1682 N 172.755 -5.07991 4.71081 0
M  V30 1683 N 174.548 -4.23804 3.69251 0
M  V30 1684 H 166.699 -0.754348 1.98553 0
M  V30 1685 H 168.962 -0.3944 0.862063 0
M  V30 1686 H 168.668 -1.98027 2.90651 0
M  V30 1687 H 168.542 -3.32332 1.78424 0
M  V30 1688 H 170.929 -2.79584 0.944286 0
M  V30 1689 H 171.01 -1.45926 2.10093 0
M  V30 1690 H 170.654 -3.11835 4.00901 0
M  V30 1691 H 170.584 -4.44558 2.82269 0
M  V30 1692 H 173.075 -2.95567 2.35475 0
M  V30 1693 H 173.388 -5.63487 5.28869 0
M  V30 1694 H 171.733 -5.07235 4.75119 0
M  V30 1695 H 174.924 -3.60806 2.98222 0
M  V30 1696 H 175.097 -4.82995 4.31995 0
M  V30 1697 N 168.503 -0.877838 -1.30888 0
M  V30 1698 C 169.919 -0.570844 -1.49042 0
M  V30 1699 C 170.119 0.893159 -1.80624 0
M  V30 1700 O 169.175 1.67485 -1.88958 0
M  V30 1701 C 170.488 -1.47784 -2.61878 0
M  V30 1702 C 172.036 -1.48071 -2.75761 0
M  V30 1703 C 172.511 -2.37347 -3.91702 0
M  V30 1704 N 174.002 -2.35271 -3.99001 0
M  V30 1705 C 174.737 -3.01063 -4.88004 0
M  V30 1706 N 174.233 -3.76055 -5.81854 0
M  V30 1707 N 176.026 -2.90332 -4.81315 0
M  V30 1708 H 168.177 -1.82502 -1.0866 0
M  V30 1709 H 170.44 -0.780797 -0.537644 0
M  V30 1710 H 170.146 -2.51993 -2.45341 0
M  V30 1711 H 170.02 -1.18215 -3.58197 0
M  V30 1712 H 172.407 -0.446166 -2.91708 0
M  V30 1713 H 172.488 -1.81668 -1.80085 0
M  V30 1714 H 172.132 -3.40883 -3.76512 0
M  V30 1715 H 172.062 -2.01071 -4.86701 0
M  V30 1716 H 174.553 -1.80768 -3.3186 0
M  V30 1717 H 174.866 -4.23366 -6.46514 0
M  V30 1718 H 173.211 -3.80163 -5.81808 0
M  V30 1719 H 176.402 -2.31278 -4.06974 0
M  V30 1720 H 176.575 -3.41885 -5.50471 0
M  V30 1721 N 169.982 1.44106 -0.638065 0
M  V30 1722 C 170.912 2.33448 0.0494287 0
M  V30 1723 C 171.893 1.48606 0.827672 0
M  V30 1724 O 173.078 1.77308 0.792173 0
M  V30 1725 C 170.208 3.31771 1.02691 0
M  V30 1726 C 169.162 4.26485 0.359823 0
M  V30 1727 C 168.488 5.14729 1.44769 0
M  V30 1728 C 169.788 5.17056 -0.738296 0
M  V30 1729 H 171.482 2.91183 -0.696636 0
M  V30 1730 H 169.028 1.40014 -0.336456 0
M  V30 1731 H 170.981 3.93161 1.51666 0
M  V30 1732 H 169.705 2.7226 1.80395 0
M  V30 1733 H 168.364 3.66437 -0.10934 0
M  V30 1734 H 168.012 4.51566 2.21578 0
M  V30 1735 H 167.712 5.78913 1.00668 0
M  V30 1736 H 169.236 5.78991 1.93911 0
M  V30 1737 H 170.65 5.72342 -0.331354 0
M  V30 1738 H 169.047 5.89879 -1.10286 0
M  V30 1739 H 170.117 4.57652 -1.60258 0
M  V30 1740 N 171.46 0.379036 1.52974 0
M  V30 1741 C 172.685 -0.209353 2.06341 0
M  V30 1742 C 173.11 -1.40583 1.24972 0
M  V30 1743 O 172.468 -1.79246 0.272155 0
M  V30 1744 C 172.516 -0.567786 3.56102 0
M  V30 1745 O 171.62 -1.66318 3.77375 0
M  V30 1746 H 170.961 -0.0272919 0.663439 0
M  V30 1747 H 173.491 0.543536 1.97248 0
M  V30 1748 H 173.501 -0.835003 3.99364 0
M  V30 1749 H 172.176 0.307013 4.14765 0
M  V30 1750 H 170.753 -1.39048 3.46006 0
M  V30 1751 N 172.938 -1.57226 0.108567 0
M  V30 1752 C 174.184 -1.95121 -0.552761 0
M  V30 1753 C 174.517 -0.991345 -1.66991 0
M  V30 1754 O 173.792 -0.0267211 -1.94482 0
M  V30 1755 C 174.075 -3.43039 -1.09528 0
M  V30 1756 C 173.928 -4.49797 0.0177332 0
M  V30 1757 C 175.247 -3.92567 -1.98945 0
M  V30 1758 H 172.366 -0.709496 -0.199461 0
M  V30 1759 H 175.008 -1.89126 0.182011 0
M  V30 1760 H 173.158 -3.48279 -1.72146 0
M  V30 1761 H 174.83 -4.56661 0.652584 0
M  V30 1762 H 173.073 -4.284 0.682309 0
M  V30 1763 H 173.744 -5.50528 -0.402919 0
M  V30 1764 H 176.22 -3.89565 -1.46214 0
M  V30 1765 H 175.096 -4.96605 -2.33827 0
M  V30 1766 H 175.357 -3.32648 -2.91201 0
M  V30 1767 N 174.416 0.165178 -1.56732 0
M  V30 1768 C 175.646 0.894919 -1.86212 0
M  V30 1769 C 176.054 1.76066 -0.692627 0
M  V30 1770 O 175.397 1.80387 0.347303 0
M  V30 1771 C 175.459 1.8174 -3.10179 0
M  V30 1772 C 175.123 1.13064 -4.42793 0
M  V30 1773 C 176.12 0.493169 -5.17556 0
M  V30 1774 C 173.805 1.12556 -4.89527 0
M  V30 1775 C 175.799 -0.140209 -6.37246 0
M  V30 1776 C 173.486 0.488366 -6.09145 0
M  V30 1777 C 174.484 -0.143411 -6.82849 0
M  V30 1778 O 174.172 -0.77055 -8.00199 0
M  V30 1779 H 173.904 0.265114 -0.621844 0
M  V30 1780 H 176.458 0.168242 -2.0471 0
M  V30 1781 H 174.688 2.58455 -2.87642 0
M  V30 1782 H 176.377 2.4175 -3.26055 0
M  V30 1783 H 177.143 0.489023 -4.82528 0
M  V30 1784 H 173.022 1.60672 -4.32094 0
M  V30 1785 H 176.566 -0.633932 -6.94714 0
M  V30 1786 H 172.463 0.490116 -6.43637 0
M  V30 1787 H 173.231 -0.670408 -8.1575 0
M  V30 1788 N 175.894 1.51508 0.433938 0
M  V30 1789 C 177.31 1.39759 0.770682 0
M  V30 1790 C 177.51 0.482594 1.95636 0
M  V30 1791 O 176.566 -0.0609691 2.52426 0
M  V30 1792 C 177.879 2.81851 1.04787 0
M  V30 1793 C 179.427 2.91025 1.1521 0
M  V30 1794 C 179.902 4.34032 1.46219 0
M  V30 1795 N 181.393 4.37154 1.53136 0
M  V30 1796 C 182.128 5.4484 1.78709 0
M  V30 1797 N 181.624 6.62682 2.02051 0
M  V30 1798 N 183.417 5.32324 1.80519 0
M  V30 1799 H 175.568 2.09548 -0.346892 0
M  V30 1800 H 177.831 0.943446 -0.0928074 0
M  V30 1801 H 177.537 3.50815 0.249304 0
M  V30 1802 H 177.411 3.21386 1.97461 0
M  V30 1803 H 179.798 2.22257 1.94128 0
M  V30 1804 H 179.879 2.54983 0.204281 0
M  V30 1805 H 179.523 5.03351 0.678274 0
M  V30 1806 H 179.453 4.6759 2.42212 0
M  V30 1807 H 181.944 3.52197 1.36987 0
M  V30 1808 H 182.257 7.40543 2.20943 0
M  V30 1809 H 180.602 6.65791 1.99366 0
M  V30 1810 H 183.793 4.39246 1.61805 0
M  V30 1811 H 183.966 6.16328 2.00111 0
M  V30 1812 N 177.372 -0.689602 1.41712 0
M  V30 1813 C 178.304 -1.815 1.39966 0
M  V30 1814 C 179.317 -1.59995 0.300917 0
M  V30 1815 O 180.506 -1.69387 0.563039 0
M  V30 1816 C 177.606 -3.18364 1.16179 0
M  V30 1817 C 176.779 -3.66847 2.38206 0
M  V30 1818 C 175.838 -4.82398 2.10186 0
M  V30 1819 O 174.864 -4.93706 2.83272 0
M  V30 1820 N 176.066 -5.70064 1.0958 0
M  V30 1821 H 178.831 -1.83488 2.36965 0
M  V30 1822 H 176.392 -0.872149 1.36401 0
M  V30 1823 H 178.384 -3.93301 0.953756 0
M  V30 1824 H 176.954 -3.11365 0.27756 0
M  V30 1825 H 176.174 -2.82751 2.74673 0
M  V30 1826 H 177.462 -3.95978 3.19498 0
M  V30 1827 H 176.86 -5.63565 0.491019 0
M  V30 1828 H 175.417 -6.44874 0.947656 0
M  V30 1829 N 178.85 -1.27639 -0.924453 0
M  V30 1830 C 180.099 -1.13549 -1.66702 0
M  V30 1831 C 180.412 0.317487 -1.93006 0
M  V30 1832 O 181.618 0.579333 -2.65247 0
M  V30 1833 C 180.074 -1.98426 -3.00259 0
M  V30 1834 C 179.682 -3.484 -2.81641 0
M  V30 1835 C 181.426 -1.92993 -3.78092 0
M  V30 1836 C 179.333 -4.25464 -4.10773 0
M  V30 1837 H 178.263 -0.421351 -0.625283 0
M  V30 1838 H 180.914 -1.52085 -1.02676 0
M  V30 1839 H 179.296 -1.52736 -3.6536 0
M  V30 1840 H 180.47 -4.01973 -2.25287 0
M  V30 1841 H 178.785 -3.55245 -2.17232 0
M  V30 1842 H 181.382 -2.47844 -4.7379 0
M  V30 1843 H 181.725 -0.904281 -4.0636 0
M  V30 1844 H 182.258 -2.36595 -3.19793 0
M  V30 1845 H 178.997 -5.28566 -3.87683 0
M  V30 1846 H 178.517 -3.76667 -4.66779 0
M  V30 1847 H 180.196 -4.34812 -4.79111 0
M  V30 1848 N 180.328 1.1314 -1.09713 0
M  V30 1849 C 181.574 1.84757 -0.836224 0
M  V30 1850 C 181.907 1.8347 0.636598 0
M  V30 1851 O 181.182 1.27491 1.46889 0
M  V30 1852 C 181.465 3.32782 -1.37578 0
M  V30 1853 C 181.318 3.42567 -2.91493 0
M  V30 1854 C 182.637 4.28307 -1.01198 0
M  V30 1855 H 179.756 0.67082 -0.305236 0
M  V30 1856 H 182.398 1.3278 -1.35903 0
M  V30 1857 H 180.548 3.77177 -0.931097 0
M  V30 1858 H 182.22 3.06862 -3.44432 0
M  V30 1859 H 180.463 2.83349 -3.28475 0
M  V30 1860 H 181.134 4.46674 -3.24324 0
M  V30 1861 H 183.61 3.91999 -1.39556 0
M  V30 1862 H 182.486 5.30307 -1.41653 0
M  V30 1863 H 182.747 4.42029 0.0794833 0
M  V30 1864 N 181.806 0.884767 1.30421 0
M  V30 1865 C 183.083 0.423185 1.90967 0
M  V30 1866 C 183.463 -1.09605 1.80416 0
M  V30 1867 O 182.811 -1.93126 1.22125 0
M  V30 1868 C 183.021 0.921056 3.36627 0
M  V30 1869 C 184.369 0.955903 4.137 0
M  V30 1870 O 185.393 0.867706 3.4547 0
M  V30 1871 O 184.252 1.08614 5.35598 0
M  V30 1872 H 181.346 0.129369 0.816819 0
M  V30 1873 H 183.892 0.973653 1.3899 0
M  V30 1874 H 182.664 1.96489 3.3839 0
M  V30 1875 H 182.287 0.349741 3.96059 0
M  V30 1876 N 183.284 -1.43765 0.645699 0
M  V30 1877 C 184.247 -2.29163 -0.0409488 0
M  V30 1878 C 185.247 -1.41813 -0.757996 0
M  V30 1879 O 186.437 -1.63527 -0.600382 0
M  V30 1880 C 183.569 -3.23716 -1.06869 0
M  V30 1881 H 184.762 -2.91366 0.710345 0
M  V30 1882 H 182.315 -1.5092 0.406547 0
M  V30 1883 H 183.05 -2.66393 -1.84947 0
M  V30 1884 H 182.835 -3.88105 -0.558277 0
M  V30 1885 H 184.325 -3.87831 -1.54845 0
M  V30 1886 N 184.763 -0.387143 -1.52771 0
M  V30 1887 C 185.695 0.484089 -2.2403 0
M  V30 1888 C 186.708 1.02849 -1.26198 0
M  V30 1889 O 187.897 0.931186 -1.52286 0
M  V30 1890 C 184.997 1.68337 -2.94136 0
M  V30 1891 C 184.17 1.26672 -4.18656 0
M  V30 1892 C 183.229 2.33045 -4.7178 0
M  V30 1893 O 182.255 1.94541 -5.34923 0
M  V30 1894 N 183.457 3.64929 -4.5145 0
M  V30 1895 H 186.222 -0.126404 -2.99433 0
M  V30 1896 H 183.783 -0.213392 -1.60488 0
M  V30 1897 H 185.775 2.39019 -3.26577 0
M  V30 1898 H 184.345 2.20025 -2.22053 0
M  V30 1899 H 183.565 0.388878 -3.92277 0
M  V30 1900 H 184.853 0.964964 -4.99566 0
M  V30 1901 H 184.251 3.98974 -4.01044 0
M  V30 1902 H 182.808 4.31651 -4.88386 0
M  V30 1903 N 186.241 1.57166 -0.116904 0
M  V30 1904 C 187.204 2.14039 0.819742 0
M  V30 1905 C 188.204 1.07477 1.19605 0
M  V30 1906 O 189.394 1.33263 1.1219 0
M  V30 1907 C 186.526 2.67891 2.10826 0
M  V30 1908 H 187.719 2.98128 0.325511 0
M  V30 1909 H 185.272 1.55739 0.132312 0
M  V30 1910 H 186.007 1.87384 2.64685 0
M  V30 1911 H 185.792 3.45823 1.84793 0
M  V30 1912 H 187.282 3.11809 2.77785 0
M  V30 1913 N 187.719 -0.156864 1.56817 0
M  V30 1914 C 188.965 -0.872416 1.83076 0
M  V30 1915 C 189.298 -1.81261 0.697001 0
M  V30 1916 O 188.573 -1.92171 -0.30008 0
M  V30 1917 C 188.856 -1.65551 3.19789 0
M  V30 1918 C 188.709 -0.737467 4.43713 0
M  V30 1919 C 190.028 -2.62012 3.53606 0
M  V30 1920 H 187.147 -0.315715 0.665953 0
M  V30 1921 H 189.789 -0.138004 1.89498 0
M  V30 1922 H 187.939 -2.28159 3.14445 0
M  V30 1923 H 189.611 -0.123143 4.61136 0
M  V30 1924 H 187.854 -0.0464067 4.33775 0
M  V30 1925 H 188.525 -1.32122 5.35955 0
M  V30 1926 H 191.001 -2.09525 3.59497 0
M  V30 1927 H 189.877 -3.13861 4.50314 0
M  V30 1928 H 190.138 -3.42902 2.79053 0
M  V30 1929 N 189.197 -1.51736 -0.425897 0
M  V30 1930 C 190.437 -1.66636 -1.18371 0
M  V30 1931 C 190.801 -0.379854 -1.88205 0
M  V30 1932 O 192.002 -0.404758 -2.65735 0
M  V30 1933 C 190.273 -2.84382 -2.16476 0
M  V30 1934 S 191.832 -3.19673 -3.0059 0
M  V30 1935 H 188.65 -0.586957 -0.40125 0
M  V30 1936 H 191.252 -1.89679 -0.473518 0
M  V30 1937 H 189.956 -3.76281 -1.63831 0
M  V30 1938 H 189.487 -2.63562 -2.92059 0
M  V30 1939 H 191.502 -2.66994 -4.18245 0
M  V30 1940 N 190.675 0.682077 -1.42076 0
M  V30 1941 C 191.903 1.47057 -1.4554 0
M  V30 1942 C 192.318 1.8869 -0.0645779 0
M  V30 1943 O 191.675 1.57666 0.919115 0
M  V30 1944 C 191.726 2.72442 -2.37609 0
M  V30 1945 O 191.447 2.32559 -3.71279 0
M  V30 1946 C 192.948 3.66069 -2.50017 0
M  V30 1947 H 190.168 0.452737 -0.495248 0
M  V30 1948 H 192.712 0.838695 -1.8651 0
M  V30 1949 H 190.867 3.31835 -1.9991 0
M  V30 1950 H 191.281 3.13475 -4.20516 0
M  V30 1951 H 192.755 4.50792 -3.18576 0
M  V30 1952 H 193.232 4.11476 -1.53572 0
M  V30 1953 H 193.838 3.12572 -2.88407 0
M  V30 1954 N 192.153 1.28127 0.917671 0
M  V30 1955 C 193.569 1.05749 1.19538 0
M  V30 1956 C 193.769 -0.202633 2.00479 0
M  V30 1957 O 192.825 -0.905382 2.3571 0
M  V30 1958 C 194.138 2.30273 1.93378 0
M  V30 1959 C 195.686 2.35412 2.06277 0
M  V30 1960 C 196.161 3.59692 2.83524 0
M  V30 1961 N 197.652 3.60309 2.91087 0
M  V30 1962 C 198.387 4.53147 3.51348 0
M  V30 1963 N 197.883 5.563 4.12919 0
M  V30 1964 N 199.676 4.40751 3.48849 0
M  V30 1965 H 191.827 2.09024 0.377184 0
M  V30 1966 H 194.09 0.919798 0.22951 0
M  V30 1967 H 193.796 3.22055 1.41328 0
M  V30 1968 H 193.67 2.36378 2.93947 0
M  V30 1969 H 196.057 1.4413 2.57508 0
M  V30 1970 H 196.138 2.33304 1.04895 0
M  V30 1971 H 195.782 4.51316 2.32973 0
M  V30 1972 H 195.712 3.59054 3.85211 0
M  V30 1973 H 198.203 2.85714 2.47338 0
M  V30 1974 H 198.516 6.2329 4.56869 0
M  V30 1975 H 196.861 5.60131 4.11435 0
M  V30 1976 H 200.052 3.59367 2.99955 0
M  V30 1977 H 200.225 5.13291 3.9552 0
M  V30 1978 N 193.631 -1.12557 1.10312 0
M  V30 1979 C 194.871 -1.8568 0.854543 0
M  V30 1980 C 195.235 -1.82091 -0.608843 0
M  V30 1981 O 196.436 -2.50544 -0.973717 0
M  V30 1982 C 194.707 -3.2942 1.38626 0
M  V30 1983 S 196.266 -4.19931 1.27293 0
M  V30 1984 H 193.084 -0.640427 0.308827 0
M  V30 1985 H 195.686 -1.35599 1.40831 0
M  V30 1986 H 194.39 -3.2959 2.44537 0
M  V30 1987 H 193.921 -3.84566 0.82902 0
M  V30 1988 H 195.936 -4.95668 0.229776 0
M  V30 1989 N 195.109 -0.891671 -1.2995 0
M  V30 1990 C 196.056 -0.361736 -2.27948 0
M  V30 1991 C 197.026 0.551761 -1.56668 0
M  V30 1992 O 198.211 0.478736 -1.84696 0
M  V30 1993 C 195.351 0.411825 -3.42634 0
M  V30 1994 C 194.464 -0.531651 -4.28716 0
M  V30 1995 C 193.599 0.258167 -5.30572 0
M  V30 1996 C 192.638 -0.680349 -6.08307 0
M  V30 1997 N 191.775 0.0745613 -7.0206 0
M  V30 1998 H 196.615 -1.20254 -2.72659 0
M  V30 1999 H 194.152 -0.604352 -1.34112 0
M  V30 2000 H 196.11 0.876304 -4.07893 0
M  V30 2001 H 194.74 1.21715 -2.98974 0
M  V30 2002 H 193.792 -1.11463 -3.63703 0
M  V30 2003 H 195.104 -1.25038 -4.82874 0
M  V30 2004 H 194.258 0.784204 -6.0161 0
M  V30 2005 H 192.997 1.01008 -4.77126 0
M  V30 2006 H 192.002 -1.21796 -5.3614 0
M  V30 2007 H 193.227 -1.43145 -6.63842 0
M  V30 2008 H 191.173 0.808883 -6.50994 0
M  V30 2009 H 191.09 -0.584409 -7.53738 0
M  V30 2010 H 192.358 0.581123 -7.77331 0
M  V30 2011 N 196.587 1.43421 -0.653314 0
M  V30 2012 C 197.497 2.34568 0.0388565 0
M  V30 2013 C 198.513 1.53888 0.81207 0
M  V30 2014 O 199.689 1.86539 0.759294 0
M  V30 2015 C 196.754 3.32167 0.993269 0
M  V30 2016 C 195.815 4.28751 0.216977 0
M  V30 2017 C 195.048 5.21688 1.12593 0
M  V30 2018 O 195.271 5.19052 2.36519 0
M  V30 2019 O 194.205 5.98919 0.598284 0
M  V30 2020 H 198.031 2.95251 -0.711386 0
M  V30 2021 H 195.616 1.43564 -0.413502 0
M  V30 2022 H 197.498 3.92183 1.54176 0
M  V30 2023 H 196.173 2.73987 1.72374 0
M  V30 2024 H 195.08 3.72215 -0.375101 0
M  V30 2025 H 196.413 4.89913 -0.473924 0
M  V30 2026 N 198.065 0.39524 1.52563 0
M  V30 2027 C 199.29 -0.187456 2.06551 0
M  V30 2028 C 199.715 -1.39249 1.26457 0
M  V30 2029 O 199.073 -1.78947 0.291151 0
M  V30 2030 C 199.121 -0.529985 3.56684 0
M  V30 2031 O 198.225 -1.62307 3.79118 0
M  V30 2032 H 197.566 -0.0202537 0.663691 0
M  V30 2033 H 200.096 0.564426 1.96661 0
M  V30 2034 H 200.106 -0.792598 4.00227 0
M  V30 2035 H 198.781 0.350987 4.14416 0
M  V30 2036 H 197.358 -1.3537 3.47461 0
M  V30 2037 N 199.544 -1.57102 0.125237 0
M  V30 2038 C 200.507 -2.14471 -0.80838 0
M  V30 2039 C 201.507 -1.0811 -1.19033 0
M  V30 2040 O 202.697 -1.33856 -1.11482 0
M  V30 2041 C 199.829 -2.69005 -2.09402 0
M  V30 2042 H 201.022 -2.98297 -0.309696 0
M  V30 2043 H 198.575 -1.55807 -0.124051 0
M  V30 2044 H 199.31 -1.88785 -2.63687 0
M  V30 2045 H 199.095 -3.46799 -1.82957 0
M  V30 2046 H 200.585 -3.13278 -2.76128 0
M  V30 2047 N 201.022 0.148545 -1.56898 0
M  V30 2048 C 202.299 0.890019 -1.74178 0
M  V30 2049 C 202.679 1.99407 -0.692839 0
M  V30 2050 O 202.027 2.26671 0.288505 0
M  V30 2051 C 202.237 1.43389 -3.18183 0
M  V30 2052 C 203.585 1.89791 -3.79822 0
M  V30 2053 O 204.609 1.53134 -3.21603 0
M  V30 2054 O 203.468 2.57387 -4.82093 0
M  V30 2055 H 200.562 0.420496 -0.712118 0
M  V30 2056 H 203.108 0.134591 -1.69165 0
M  V30 2057 H 201.88 0.640383 -3.86024 0
M  V30 2058 H 201.503 2.25287 -3.27615 0
M  V30 2059 N 202.5 1.5196 0.417844 0
M  V30 2060 C 203.747 1.65591 1.16559 0
M  V30 2061 C 204.075 0.381565 1.90721 0
M  V30 2062 O 203.33 -0.635156 1.85106 0
M  V30 2063 C 203.629 2.82269 2.19223 0
M  V30 2064 C 203.295 4.20819 1.61933 0
M  V30 2065 C 201.957 4.58506 1.46033 0
M  V30 2066 C 204.309 5.07196 1.20008 0
M  V30 2067 C 201.637 5.80257 0.867113 0
M  V30 2068 C 203.989 6.29544 0.621086 0
M  V30 2069 C 202.653 6.65987 0.449144 0
M  V30 2070 H 201.923 0.605939 0.42652 0
M  V30 2071 H 204.57 1.86041 0.45397 0
M  V30 2072 H 202.875 2.56118 2.96498 0
M  V30 2073 H 204.572 2.90012 2.76936 0
M  V30 2074 H 201.162 3.91116 1.7529 0
M  V30 2075 H 205.346 4.7867 1.31105 0
M  V30 2076 H 200.602 6.07124 0.721833 0
M  V30 2077 H 204.776 6.95805 0.287798 0
M  V30 2078 H 202.403 7.60199 -0.012632 0
M  V30 2079 N 203.978 -0.674533 1.42435 0
M  V30 2080 C 205.224 -1.43521 1.4413 0
M  V30 2081 C 205.579 -1.92316 0.0567773 0
M  V30 2082 O 204.872 -1.68008 -0.921076 0
M  V30 2083 C 205.066 -2.64767 2.40069 0
M  V30 2084 C 204.895 -2.27836 3.87713 0
M  V30 2085 C 203.665 -2.17183 4.56245 0
M  V30 2086 C 205.863 -1.89466 4.78129 0
M  V30 2087 N 203.845 -1.73358 5.88915 0
M  V30 2088 C 205.216 -1.56561 5.99907 0
M  V30 2089 C 207.271 -1.7646 4.65582 0
M  V30 2090 C 205.974 -1.11957 7.10534 0
M  V30 2091 C 208 -1.3326 5.76191 0
M  V30 2092 C 207.362 -1.0128 6.97081 0
M  V30 2093 H 203.461 -0.521656 0.582579 0
M  V30 2094 H 206.045 -0.778381 1.78464 0
M  V30 2095 H 204.216 -3.28139 2.07796 0
M  V30 2096 H 205.948 -3.3136 2.32342 0
M  V30 2097 H 202.703 -2.3626 4.10461 0
M  V30 2098 H 203.127 -1.53867 6.59283 0
M  V30 2099 H 207.769 -1.99831 3.72595 0
M  V30 2100 H 205.487 -0.873318 8.03367 0
M  V30 2101 H 209.073 -1.23717 5.68494 0
M  V30 2102 H 207.953 -0.683597 7.81215 0
M  V30 2103 N 205.456 -1.28612 -0.910864 0
M  V30 2104 C 206.696 -1.1719 -1.67469 0
M  V30 2105 C 207.06 0.274441 -1.90028 0
M  V30 2106 O 208.261 0.511425 -2.6389 0
M  V30 2107 C 206.532 -1.95137 -2.99427 0
M  V30 2108 S 208.091 -2.00122 -3.90508 0
M  V30 2109 H 204.909 -0.41806 -0.575106 0
M  V30 2110 H 207.511 -1.6275 -1.08317 0
M  V30 2111 H 206.215 -2.99381 -2.80712 0
M  V30 2112 H 205.746 -1.50137 -3.63624 0
M  V30 2113 H 207.761 -1.10981 -4.8363 0
M  V30 2114 N 206.934 1.1197 -1.10907 0
M  V30 2115 C 208.181 1.83588 -0.854507 0
M  V30 2116 C 208.509 1.84357 0.6199 0
M  V30 2117 O 207.764 1.28809 1.47332 0
M  V30 2118 C 208.063 3.30749 -1.35425 0
M  V30 2119 C 207.729 3.50146 -2.84093 0
M  V30 2120 C 206.391 3.55148 -3.2469 0
M  V30 2121 C 208.743 3.56857 -3.79872 0
M  V30 2122 C 206.071 3.6441 -4.59806 0
M  V30 2123 C 208.423 3.6765 -5.14797 0
M  V30 2124 C 207.087 3.7091 -5.54961 0
M  V30 2125 H 206.357 0.671795 -0.312686 0
M  V30 2126 H 209.004 1.32091 -1.38652 0
M  V30 2127 H 207.309 3.84703 -0.742361 0
M  V30 2128 H 209.006 3.8464 -1.1337 0
M  V30 2129 H 205.596 3.46919 -2.51685 0
M  V30 2130 H 209.78 3.52258 -3.49611 0
M  V30 2131 H 205.036 3.65208 -4.9034 0
M  V30 2132 H 209.21 3.71786 -5.88853 0
M  V30 2133 H 206.837 3.7784 -6.59652 0
M  V30 2134 N 208.412 0.89855 1.29475 0
M  V30 2135 C 209.322 0.379974 2.31502 0
M  V30 2136 C 210.338 -0.524695 1.659 0
M  V30 2137 O 211.514 -0.414551 1.97087 0
M  V30 2138 C 208.579 -0.385138 3.44554 0
M  V30 2139 C 207.64 0.550914 4.2575 0
M  V30 2140 C 206.873 -0.177778 5.33404 0
M  V30 2141 O 207.096 -1.40189 5.52904 0
M  V30 2142 O 206.03 0.479106 5.9999 0
M  V30 2143 H 209.856 1.22639 2.77837 0
M  V30 2144 H 207.441 0.662834 1.33891 0
M  V30 2145 H 209.323 -0.817841 4.13388 0
M  V30 2146 H 207.998 -1.20763 3.0033 0
M  V30 2147 H 206.905 1.03271 3.59564 0
M  V30 2148 H 208.238 1.33979 4.73614 0
M  V30 2149 N 209.89 -1.43072 0.660911 0
M  V30 2150 C 211.13 -2.03596 0.181146 0
M  V30 2151 C 211.494 -1.51057 -1.18515 0
M  V30 2152 O 212.695 -2.03275 -1.75877 0
M  V30 2153 C 210.966 -3.56845 0.19911 0
M  V30 2154 S 212.525 -4.38289 -0.211684 0
M  V30 2155 H 209.343 -0.706954 0.0757479 0
M  V30 2156 H 211.945 -1.75027 0.870965 0
M  V30 2157 H 210.649 -3.92583 1.1961 0
M  V30 2158 H 210.18 -3.90067 -0.510996 0
M  V30 2159 H 212.195 -4.74583 -1.44863 0
M  V30 2160 N 211.368 -0.403325 -1.52352 0
M  V30 2161 C 212.278 0.432009 -2.30588 0
M  V30 2162 C 213.294 1.05884 -1.38075 0
M  V30 2163 O 214.47 1.06161 -1.71148 0
M  V30 2164 C 211.535 1.53669 -3.10784 0
M  V30 2165 C 210.596 0.933525 -4.19027 0
M  V30 2166 C 209.829 1.98557 -4.9539 0
M  V30 2167 O 210.052 3.20283 -4.71991 0
M  V30 2168 O 208.986 1.59504 -5.80381 0
M  V30 2169 H 212.812 -0.205739 -3.03002 0
M  V30 2170 H 210.397 -0.166675 -1.48467 0
M  V30 2171 H 212.279 2.17814 -3.60742 0
M  V30 2172 H 210.954 2.15915 -2.41169 0
M  V30 2173 H 209.861 0.254954 -3.7323 0
M  V30 2174 H 211.194 0.35508 -4.90918 0
M  V30 2175 N 212.846 1.57033 -0.133567 0
M  V30 2176 C 213.778 2.13176 0.841944 0
M  V30 2177 C 214.791 1.07794 1.22001 0
M  V30 2178 O 215.98 1.35117 1.16643 0
M  V30 2179 C 213.08 2.62847 2.13926 0
M  V30 2180 C 212.253 3.92486 1.93064 0
M  V30 2181 C 211.312 4.27605 3.0666 0
M  V30 2182 O 210.338 4.96168 2.78937 0
M  V30 2183 N 211.54 3.861 4.33483 0
M  V30 2184 H 214.305 2.97503 0.362192 0
M  V30 2185 H 211.866 1.61821 0.05042 0
M  V30 2186 H 213.858 2.83363 2.88942 0
M  V30 2187 H 212.428 1.83319 2.53205 0
M  V30 2188 H 211.648 3.80732 1.02159 0
M  V30 2189 H 212.936 4.77225 1.76447 0
M  V30 2190 H 212.334 3.30828 4.58878 0
M  V30 2191 H 210.891 4.11694 5.05323 0
M  V30 2192 N 214.325 -0.140222 1.56975 0
M  V30 2193 C 215.255 -1.17456 2.01808 0
M  V30 2194 C 216.236 -1.44415 0.898794 0
M  V30 2195 O 217.421 -1.5522 1.16707 0
M  V30 2196 C 214.551 -2.50607 2.40444 0
M  V30 2197 C 213.505 -2.38155 3.55621 0
M  V30 2198 C 212.831 -3.76078 3.80091 0
M  V30 2199 C 214.131 -1.85991 4.88062 0
M  V30 2200 H 215.825 -0.801743 2.88466 0
M  V30 2201 H 213.371 -0.38422 1.38779 0
M  V30 2202 H 215.324 -3.23197 2.7041 0
M  V30 2203 H 214.048 -2.89737 1.50732 0
M  V30 2204 H 212.707 -1.68016 3.25832 0
M  V30 2205 H 212.355 -4.12656 2.87618 0
M  V30 2206 H 212.055 -3.68606 4.57606 0
M  V30 2207 H 213.579 -4.50206 4.12488 0
M  V30 2208 H 214.993 -2.4838 5.16701 0
M  V30 2209 H 213.39 -1.89393 5.6943 0
M  V30 2210 H 214.46 -0.816023 4.77984 0
M  V30 2211 N 215.803 -1.52179 -0.40978 0
M  V30 2212 C 216.733 -1.78435 -1.5061 0
M  V30 2213 C 217.714 -0.635295 -1.57791 0
M  V30 2214 O 218.899 -0.880823 -1.73076 0
M  V30 2215 C 216.029 -1.93444 -2.88439 0
M  V30 2216 C 214.983 -3.09038 -2.96108 0
M  V30 2217 C 214.309 -3.09268 -4.36185 0
M  V30 2218 C 215.609 -4.48508 -2.67652 0
M  V30 2219 H 217.303 -2.70237 -1.28889 0
M  V30 2220 H 214.849 -1.30036 -0.618605 0
M  V30 2221 H 216.802 -2.10394 -3.65119 0
M  V30 2222 H 215.526 -0.983129 -3.11452 0
M  V30 2223 H 214.185 -2.91837 -2.21872 0
M  V30 2224 H 213.833 -2.11861 -4.56206 0
M  V30 2225 H 213.533 -3.86907 -4.42241 0
M  V30 2226 H 215.057 -3.28348 -5.14801 0
M  V30 2227 H 216.471 -4.65918 -3.34056 0
M  V30 2228 H 214.868 -5.28059 -2.85085 0
M  V30 2229 H 215.938 -4.56649 -1.63095 0
M  V30 2230 N 217.281 0.66697 -1.42791 0
M  V30 2231 C 218.521 1.43892 -1.4517 0
M  V30 2232 C 218.885 1.91877 -0.0687551 0
M  V30 2233 O 220.086 2.6878 0.0327455 0
M  V30 2234 C 218.357 2.59839 -2.45395 0
M  V30 2235 S 219.916 3.48572 -2.66539 0
M  V30 2236 H 216.734 0.491356 -0.513897 0
M  V30 2237 H 219.336 0.775656 -1.79454 0
M  V30 2238 H 218.04 2.22838 -3.44632 0
M  V30 2239 H 217.571 3.3103 -2.12562 0
M  V30 2240 H 219.586 4.56094 -1.95429 0
M  V30 2241 N 218.759 1.29093 0.90403 0
M  V30 2242 C 219.722 1.1386 1.98919 0
M  V30 2243 C 220.722 0.0753457 1.60623 0
M  V30 2244 O 221.912 0.321931 1.71199 0
M  V30 2245 C 219.044 0.740198 3.32767 0
M  V30 2246 H 220.237 2.10246 2.13861 0
M  V30 2247 H 217.79 1.12218 1.08797 0
M  V30 2248 H 218.525 -0.223997 3.23525 0
M  V30 2249 H 218.31 1.50838 3.61926 0
M  V30 2250 H 219.8 0.656546 4.12407 0
M  V30 2251 N 220.237 -1.11381 1.11499 0
M  V30 2252 C 221.184 -2.17439 0.773887 0
M  V30 2253 C 222.154 -1.64132 -0.254899 0
M  V30 2254 O 223.339 -1.90345 -0.13168 0
M  V30 2255 C 220.479 -3.44373 0.223917 0
M  V30 2256 C 219.592 -4.1168 1.30934 0
M  V30 2257 C 218.727 -5.263 0.71984 0
M  V30 2258 C 217.766 -5.85493 1.78507 0
M  V30 2259 N 216.903 -6.91507 1.21502 0
M  V30 2260 H 221.743 -2.45962 1.68246 0
M  V30 2261 H 219.28 -1.20744 0.840191 0
M  V30 2262 H 221.238 -4.17047 -0.112921 0
M  V30 2263 H 219.868 -3.16232 -0.647851 0
M  V30 2264 H 218.92 -3.37073 1.76312 0
M  V30 2265 H 220.232 -4.51729 2.11524 0
M  V30 2266 H 219.386 -6.05785 0.333094 0
M  V30 2267 H 218.125 -4.87559 -0.117377 0
M  V30 2268 H 217.13 -5.04686 2.18111 0
M  V30 2269 H 218.355 -6.26301 2.62533 0
M  V30 2270 H 216.301 -6.54783 0.399455 0
M  V30 2271 H 216.218 -7.30214 1.95763 0
M  V30 2272 H 217.486 -7.74795 0.855181 0
M  V30 2273 N 221.715 -0.905404 -1.28997 0
M  V30 2274 C 222.955 -0.541232 -1.97104 0
M  V30 2275 C 223.319 0.896841 -1.69767 0
M  V30 2276 O 224.52 1.36817 -2.31375 0
M  V30 2277 C 222.791 -0.832134 -3.47578 0
M  V30 2278 S 224.35 -0.573127 -4.35041 0
M  V30 2279 H 221.168 -0.200576 -0.682122 0
M  V30 2280 H 223.77 -1.16906 -1.56694 0
M  V30 2281 H 222.474 -1.87687 -3.64968 0
M  V30 2282 H 222.005 -0.192636 -3.92928 0
M  V30 2283 H 224.02 0.579297 -4.92807 0
M  V30 2284 N 223.193 1.4272 -0.668489 0
M  V30 2285 C 224.44 2.01624 -0.18814 0
M  V30 2286 C 224.768 1.5282 1.20317 0
M  V30 2287 O 224.023 0.718323 1.8204 0
M  V30 2288 C 224.322 3.57021 -0.164499 0
M  V30 2289 C 223.988 4.25232 -1.49962 0
M  V30 2290 C 222.65 4.4358 -1.8652 0
M  V30 2291 C 225.002 4.63727 -2.37921 0
M  V30 2292 C 222.33 4.97694 -3.10674 0
M  V30 2293 C 224.682 5.19218 -3.6138 0
M  V30 2294 C 223.346 5.3578 -3.98115 0
M  V30 2295 H 222.616 0.737795 -0.0688454 0
M  V30 2296 H 225.263 1.70991 -0.862225 0
M  V30 2297 H 223.568 3.87285 0.593079 0
M  V30 2298 H 225.265 4.00372 0.224271 0
M  V30 2299 H 221.855 4.11306 -1.20522 0
M  V30 2300 H 226.039 4.4923 -2.10964 0
M  V30 2301 H 221.295 5.08702 -3.39164 0
M  V30 2302 H 225.469 5.4799 -4.29743 0
M  V30 2303 H 223.096 5.77475 -4.94395 0
M  V30 2304 N 224.671 0.411399 1.52136 0
M  V30 2305 C 225.581 -0.419774 2.30814 0
M  V30 2306 C 226.597 -1.0515 1.38634 0
M  V30 2307 O 227.773 -1.05252 1.71709 0
M  V30 2308 C 224.838 -1.52019 3.11594 0
M  V30 2309 C 223.899 -0.91129 4.19516 0
M  V30 2310 C 223.132 -1.95927 4.96436 0
M  V30 2311 O 223.355 -3.17775 4.73683 0
M  V30 2312 O 222.289 -1.56423 5.81219 0
M  V30 2313 H 226.115 0.221805 3.02889 0
M  V30 2314 H 223.7 0.174547 1.48377 0
M  V30 2315 H 225.582 -2.15898 3.61892 0
M  V30 2316 H 224.257 -2.14633 2.42311 0
M  V30 2317 H 223.164 -0.235157 3.7336 0
M  V30 2318 H 224.497 -0.32904 4.91099 0
M  V30 2319 N 226.149 -1.5696 0.141893 0
M  V30 2320 C 227.112 -2.15316 -0.785587 0
M  V30 2321 C 228.112 -1.09366 -1.1788 0
M  V30 2322 O 229.302 -1.35031 -1.10056 0
M  V30 2323 C 226.434 -2.71211 -2.06537 0
M  V30 2324 H 227.627 -2.98608 -0.278041 0
M  V30 2325 H 225.18 -1.5593 -0.107519 0
M  V30 2326 H 225.915 -1.91571 -2.6167 0
M  V30 2327 H 225.7 -3.4872 -1.79268 0
M  V30 2328 H 227.19 -3.16189 -2.72789 0
M  V30 2329 N 227.627 0.131896 -1.57047 0
M  V30 2330 C 228.577 1.1679 -1.95816 0
M  V30 2331 C 229.561 1.37756 -0.831393 0
M  V30 2332 O 230.753 1.39065 -1.09499 0
M  V30 2333 C 227.882 2.49778 -2.35512 0
M  V30 2334 C 226.968 2.32342 -3.54793 0
M  V30 2335 N 227.359 1.8469 -4.70875 0
M  V30 2336 C 225.657 2.63043 -3.60173 0
M  V30 2337 C 226.358 1.80656 -5.52936 0
M  V30 2338 N 225.334 2.24528 -4.95064 0
M  V30 2339 H 229.136 0.791818 -2.83033 0
M  V30 2340 H 226.65 0.339791 -1.58805 0
M  V30 2341 H 228.647 3.24692 -2.61498 0
M  V30 2342 H 227.307 2.88156 -1.49654 0
M  V30 2343 H 228.318 1.54429 -4.9434 0
M  V30 2344 H 224.995 3.05193 -2.84892 0
M  V30 2345 H 226.385 1.45178 -6.56028 0
M  V30 2346 N 229.106 1.52395 0.401703 0
M  V30 2347 C 230.038 1.72505 1.50912 0
M  V30 2348 C 231.051 0.605468 1.51122 0
M  V30 2349 O 232.24 0.880828 1.55254 0
M  V30 2350 C 229.34 1.75711 2.89791 0
M  V30 2351 C 228.513 3.04824 3.1369 0
M  V30 2352 C 227.572 2.99743 4.32482 0
M  V30 2353 O 226.598 3.73635 4.29402 0
M  V30 2354 N 227.8 2.18047 5.37992 0
M  V30 2355 H 230.565 2.68049 1.34052 0
M  V30 2356 H 228.126 1.50724 0.591084 0
M  V30 2357 H 230.118 1.69834 3.6734 0
M  V30 2358 H 228.688 0.876092 3.00072 0
M  V30 2359 H 227.908 3.2429 2.24119 0
M  V30 2360 H 229.196 3.90221 3.26504 0
M  V30 2361 H 228.594 1.57456 5.43345 0
M  V30 2362 H 227.151 2.18021 6.14256 0
M  V30 2363 N 230.584 -0.659388 1.43143 0
M  V30 2364 C 231.83 -1.41984 1.45644 0
M  V30 2365 C 232.185 -1.92245 0.0771718 0
M  V30 2366 O 231.478 -1.68976 -0.903205 0
M  V30 2367 C 231.672 -2.62206 2.42864 0
M  V30 2368 C 231.501 -2.23711 3.90107 0
M  V30 2369 C 230.271 -2.12332 4.58523 0
M  V30 2370 C 232.469 -1.84384 4.80112 0
M  V30 2371 N 230.451 -1.67102 5.9072 0
M  V30 2372 C 231.822 -1.5019 6.01534 0
M  V30 2373 C 233.877 -1.71512 4.67427 0
M  V30 2374 C 232.58 -1.04414 7.11681 0
M  V30 2375 C 234.606 -1.27142 5.77572 0
M  V30 2376 C 233.968 -0.938808 6.98116 0
M  V30 2377 H 230.067 -0.515448 0.588079 0
M  V30 2378 H 232.651 -0.759409 1.79279 0
M  V30 2379 H 230.822 -3.25917 2.11265 0
M  V30 2380 H 232.554 -3.28877 2.35843 0
M  V30 2381 H 229.309 -2.31893 4.12944 0
M  V30 2382 H 229.733 -1.46866 6.60878 0
M  V30 2383 H 234.375 -1.95868 3.74694 0
M  V30 2384 H 232.093 -0.788061 8.04248 0
M  V30 2385 H 235.679 -1.17681 5.69774 0
M  V30 2386 H 234.559 -0.6007 7.81896 0
M  V30 2387 N 232.062 -1.29571 -0.897171 0
M  V30 2388 C 233.309 -1.17689 -1.6479 0
M  V30 2389 C 233.637 0.27107 -1.92602 0
M  V30 2390 O 232.892 1.21193 -1.53658 0
M  V30 2391 C 233.191 -1.9382 -3.00281 0
M  V30 2392 C 232.857 -3.43522 -2.92068 0
M  V30 2393 C 231.519 -3.84348 -2.89535 0
M  V30 2394 C 233.871 -4.38906 -2.81089 0
M  V30 2395 C 231.199 -5.18869 -2.73846 0
M  V30 2396 C 233.551 -5.73521 -2.66939 0
M  V30 2397 C 232.215 -6.13601 -2.62774 0
M  V30 2398 H 231.485 -0.430654 -0.603008 0
M  V30 2399 H 234.132 -1.60536 -1.04404 0
M  V30 2400 H 232.437 -1.4357 -3.64547 0
M  V30 2401 H 234.134 -1.82028 -3.57305 0
M  V30 2402 H 230.724 -3.11072 -2.94842 0
M  V30 2403 H 234.908 -4.08315 -2.82121 0
M  V30 2404 H 230.164 -5.4903 -2.69027 0
M  V30 2405 H 234.338 -6.47078 -2.57416 0
M  V30 2406 H 231.965 -7.17786 -2.50375 0
M  V30 2407 N 233.54 1.10788 -1.12088 0
M  V30 2408 C 234.47 2.19083 -0.807755 0
M  V30 2409 C 235.451 1.6858 0.226859 0
M  V30 2410 O 236.636 1.93997 0.0888475 0
M  V30 2411 C 233.766 3.46344 -0.257576 0
M  V30 2412 C 232.72 4.101 -1.22483 0
M  V30 2413 C 232.046 5.32016 -0.535052 0
M  V30 2414 C 233.346 4.54236 -2.57811 0
M  V30 2415 H 235.04 2.45534 -1.71328 0
M  V30 2416 H 232.586 1.1801 -0.825205 0
M  V30 2417 H 234.539 4.21392 -0.0262679 0
M  V30 2418 H 233.263 3.19373 0.683278 0
M  V30 2419 H 231.922 3.37054 -1.44189 0
M  V30 2420 H 231.57 5.01319 0.410827 0
M  V30 2421 H 231.27 5.75625 -1.18024 0
M  V30 2422 H 232.794 6.09799 -0.312695 0
M  V30 2423 H 234.208 5.20575 -2.40155 0
M  V30 2424 H 232.605 5.08682 -3.18375 0
M  V30 2425 H 233.675 3.6734 -3.16528 0
M  V30 2426 N 235.018 0.912232 1.28515 0
M  V30 2427 C 235.965 0.397954 2.27343 0
M  V30 2428 C 236.935 -0.526766 1.57526 0
M  V30 2429 O 238.12 -0.449292 1.85435 0
M  V30 2430 C 235.26 -0.357263 3.43246 0
M  V30 2431 C 234.373 0.599788 4.27816 0
M  V30 2432 C 233.508 -0.173725 5.30916 0
M  V30 2433 C 232.547 0.777039 6.07148 0
M  V30 2434 N 231.684 0.0371398 7.0209 0
M  V30 2435 H 236.524 1.24577 2.70711 0
M  V30 2436 H 234.061 0.625612 1.33133 0
M  V30 2437 H 236.019 -0.8113 4.09236 0
M  V30 2438 H 234.649 -1.16943 3.00872 0
M  V30 2439 H 233.701 1.17235 3.61884 0
M  V30 2440 H 235.013 1.32704 4.80823 0
M  V30 2441 H 234.167 -0.688394 6.02782 0
M  V30 2442 H 232.906 -0.934041 4.78672 0
M  V30 2443 H 231.911 1.3031 5.34134 0
M  V30 2444 H 233.136 1.53689 6.61481 0
M  V30 2445 H 231.082 -0.705213 6.52198 0
M  V30 2446 H 230.999 0.704249 7.52713 0
M  V30 2447 H 232.267 -0.457383 7.78157 0
M  V30 2448 N 236.496 -1.42363 0.676048 0
M  V30 2449 C 237.446 -2.27987 -0.0242903 0
M  V30 2450 C 238.43 -1.41153 -0.772319 0
M  V30 2451 O 239.622 -1.64592 -0.651025 0
M  V30 2452 C 236.751 -3.29195 -0.973953 0
M  V30 2453 C 235.837 -4.23512 -0.223202 0
M  V30 2454 N 236.228 -4.99865 0.772589 0
M  V30 2455 C 234.526 -4.43606 -0.461469 0
M  V30 2456 C 235.227 -5.68757 1.22027 0
M  V30 2457 N 234.203 -5.40811 0.549975 0
M  V30 2458 H 238.005 -2.84445 0.73949 0
M  V30 2459 H 235.519 -1.54341 0.50522 0
M  V30 2460 H 237.516 -3.89339 -1.49067 0
M  V30 2461 H 236.176 -2.74298 -1.73755 0
M  V30 2462 H 237.187 -5.04921 1.15217 0
M  V30 2463 H 233.864 -3.99749 -1.20446 0
M  V30 2464 H 235.254 -6.40007 2.0455 0
M  V30 2465 N 237.974 -0.419461 -1.51915 0
M  V30 2466 C 238.884 0.407528 -2.31033 0
M  V30 2467 C 239.9 1.04413 -1.3919 0
M  V30 2468 O 241.076 1.0434 -1.72265 0
M  V30 2469 C 238.141 1.50365 -3.12396 0
M  V30 2470 C 237.202 0.889029 -4.19994 0
M  V30 2471 C 236.435 1.93291 -4.97468 0
M  V30 2472 O 236.658 3.15259 -4.75361 0
M  V30 2473 O 235.592 1.53339 -5.8204 0
M  V30 2474 H 239.418 -0.237865 -3.02767 0
M  V30 2475 H 237.003 -0.182413 -1.48282 0
M  V30 2476 H 238.885 2.13975 -3.63032 0
M  V30 2477 H 237.56 2.13345 -2.43445 0
M  V30 2478 H 236.467 0.215353 -3.7348 0
M  V30 2479 H 237.8 0.302991 -4.91267 0
M  V30 2480 N 239.452 1.56882 -0.150215 0
M  V30 2481 C 240.415 2.1573 0.774157 0
M  V30 2482 C 241.415 1.0999 1.17298 0
M  V30 2483 O 242.605 1.35613 1.09338 0
M  V30 2484 C 239.737 2.72302 2.05096 0
M  V30 2485 H 240.93 2.98752 0.262201 0
M  V30 2486 H 238.483 1.55985 0.099248 0
M  V30 2487 H 239.218 1.92956 2.6065 0
M  V30 2488 H 239.003 3.49665 1.77416 0
M  V30 2489 H 240.493 3.17632 2.71109 0
M  V30 2490 N 240.93 -0.123565 1.57115 0
M  V30 2491 C 242.346 -0.476961 1.52306 0
M  V30 2492 C 242.546 -1.82109 0.86248 0
M  V30 2493 O 241.602 -2.48586 0.442884 0
M  V30 2494 C 242.915 -0.465661 2.97073 0
M  V30 2495 C 244.463 -0.549534 3.08138 0
M  V30 2496 C 244.938 -0.568669 4.54456 0
M  V30 2497 N 246.429 -0.630237 4.58892 0
M  V30 2498 C 247.164 -0.666415 5.69514 0
M  V30 2499 N 246.66 -0.660514 6.89644 0
M  V30 2500 N 248.453 -0.709077 5.5761 0
M  V30 2501 H 240.604 0.757198 1.98445 0
M  V30 2502 H 242.867 0.278808 0.906074 0
M  V30 2503 H 242.573 0.454232 3.48754 0
M  V30 2504 H 242.447 -1.29513 3.54269 0
M  V30 2505 H 244.834 -1.45985 2.56461 0
M  V30 2506 H 244.915 0.307532 2.53945 0
M  V30 2507 H 244.559 0.337581 5.06777 0
M  V30 2508 H 244.489 -1.44256 5.06456 0
M  V30 2509 H 246.98 -0.641146 3.72421 0
M  V30 2510 H 247.293 -0.690616 7.69708 0
M  V30 2511 H 245.638 -0.628012 6.92157 0
M  V30 2512 H 248.829 -0.711019 4.62668 0
M  V30 2513 H 249.002 -0.733804 6.43832 0
M  V30 2514 N 242.408 -1.52605 -0.393616 0
M  V30 2515 C 243.819 -1.59417 -0.971761 0
M  V30 2516 C 244.17 -0.444173 -1.91106 0
M  V30 2517 O 243.295 0.433382 -2.12016 0
M  V30 2518 C 243.89 -2.88936 -1.76921 0
M  V30 2519 C 242.449 -2.98175 -2.29714 0
M  V30 2520 C 241.596 -2.54491 -1.10135 0
M  V30 2521 H 244.547 -1.57751 -0.173317 0
M  V30 2522 H 244.568 -2.75163 -2.62804 0
M  V30 2523 H 244.08 -3.72616 -1.08532 0
M  V30 2524 H 242.181 -2.19024 -3.01429 0
M  V30 2525 H 242.294 -4.02726 -2.59517 0
M  V30 2526 H 240.658 -2.08702 -1.45999 0
M  V30 2527 H 241.441 -3.4056 -0.432874 0
M  V30 2528 N 243.887 0.651787 -1.4349 0
M  V30 2529 C 244.817 1.77621 -1.51569 0
M  V30 2530 C 245.798 1.66022 -0.370253 0
M  V30 2531 O 246.983 1.85095 -0.587658 0
M  V30 2532 C 244.113 3.16056 -1.43966 0
M  V30 2533 C 243.067 3.4242 -2.56774 0
M  V30 2534 C 242.393 4.8067 -2.34223 0
M  V30 2535 C 243.693 3.37023 -3.99015 0
M  V30 2536 H 245.387 1.71117 -2.45681 0
M  V30 2537 H 242.933 0.821825 -1.18246 0
M  V30 2538 H 244.886 3.94472 -1.48221 0
M  V30 2539 H 243.61 3.23293 -0.463586 0
M  V30 2540 H 242.269 2.66375 -2.51873 0
M  V30 2541 H 241.917 4.84585 -1.34856 0
M  V30 2542 H 241.617 4.9927 -3.09844 0
M  V30 2543 H 243.141 5.61342 -2.40265 0
M  V30 2544 H 244.555 4.05374 -4.05395 0
M  V30 2545 H 242.952 3.67159 -4.74673 0
M  V30 2546 H 244.022 2.3518 -4.2405 0
M  V30 2547 N 245.365 1.30045 0.890287 0
M  V30 2548 C 246.328 1.15963 1.977 0
M  V30 2549 C 247.328 0.0923777 1.60534 0
M  V30 2550 O 248.518 0.340071 1.70848 0
M  V30 2551 C 245.65 0.775451 3.31963 0
M  V30 2552 H 246.843 2.12502 2.11619 0
M  V30 2553 H 244.396 1.13366 1.07601 0
M  V30 2554 H 245.131 -0.189671 3.23745 0
M  V30 2555 H 244.916 1.54668 3.60306 0
M  V30 2556 H 246.406 0.700251 4.11687 0
M  V30 2557 N 246.843 -1.10192 1.12674 0
M  V30 2558 C 247.753 -2.20172 0.810026 0
M  V30 2559 C 248.769 -1.72821 -0.202188 0
M  V30 2560 O 249.945 -2.01369 -0.0351691 0
M  V30 2561 C 247.01 -3.45631 0.272007 0
M  V30 2562 C 246.071 -4.07704 1.34447 0
M  V30 2563 C 245.304 -5.27175 0.832029 0
M  V30 2564 O 245.527 -5.69425 -0.333284 0
M  V30 2565 O 244.461 -5.80168 1.60277 0
M  V30 2566 H 248.287 -2.49701 1.72867 0
M  V30 2567 H 245.872 -1.18977 0.903597 0
M  V30 2568 H 247.754 -4.21394 -0.0230219 0
M  V30 2569 H 246.429 -3.17723 -0.619164 0
M  V30 2570 H 245.336 -3.33614 1.6927 0
M  V30 2571 H 246.669 -4.3982 2.2095 0
M  V30 2572 N 248.321 -0.919034 -1.28029 0
M  V30 2573 C 249.251 -0.428581 -2.29533 0
M  V30 2574 C 250.232 0.50659 -1.62381 0
M  V30 2575 O 251.417 0.413195 -1.89753 0
M  V30 2576 C 248.547 0.327388 -3.45753 0
M  V30 2577 C 247.501 -0.519137 -4.2484 0
M  V30 2578 C 246.827 0.365486 -5.33449 0
M  V30 2579 C 248.127 -1.77914 -4.91064 0
M  V30 2580 H 249.821 -1.27687 -2.70807 0
M  V30 2581 H 247.367 -0.615428 -1.30186 0
M  V30 2582 H 249.32 0.681378 -4.15855 0
M  V30 2583 H 248.044 1.20963 -3.03374 0
M  V30 2584 H 246.703 -0.855717 -3.56473 0
M  V30 2585 H 246.351 1.24642 -4.87312 0
M  V30 2586 H 246.051 -0.197356 -5.87268 0
M  V30 2587 H 247.575 0.715241 -6.06396 0
M  V30 2588 H 248.989 -1.49374 -5.53498 0
M  V30 2589 H 247.386 -2.2848 -5.54903 0
M  V30 2590 H 248.456 -2.50382 -4.15255 0
M  V30 2591 N 249.799 1.42003 -0.683588 0
M  V30 2592 C 251.215 1.55625 -0.353976 0
M  V30 2593 C 251.415 1.66151 1.14 0
M  V30 2594 O 250.471 1.63329 1.92561 0
M  V30 2595 C 251.784 2.80171 -1.092 0
M  V30 2596 C 253.332 2.93954 -1.07518 0
M  V30 2597 C 253.807 4.21372 -1.79471 0
M  V30 2598 N 255.298 4.28303 -1.76381 0
M  V30 2599 C 256.033 5.25729 -2.28904 0
M  V30 2600 N 255.529 6.29254 -2.89846 0
M  V30 2601 N 257.322 5.17586 -2.19228 0
M  V30 2602 H 249.473 1.33415 -1.6527 0
M  V30 2603 H 251.736 0.64282 -0.696769 0
M  V30 2604 H 251.442 2.78561 -2.14701 0
M  V30 2605 H 251.316 3.7133 -0.662862 0
M  V30 2606 H 253.703 2.95086 -0.028475 0
M  V30 2607 H 253.784 2.04002 -1.54328 0
M  V30 2608 H 253.428 4.21001 -2.84114 0
M  V30 2609 H 253.358 5.10275 -1.30104 0
M  V30 2610 H 255.849 3.54119 -1.31939 0
M  V30 2611 H 256.162 6.99964 -3.27522 0
M  V30 2612 H 254.507 6.29791 -2.93919 0
M  V30 2613 H 257.698 4.35631 -1.71299 0
M  V30 2614 H 257.871 5.93348 -2.60466 0
M  V30 2615 N 251.277 0.427512 1.51691 0
M  V30 2616 C 252.225 -0.403359 2.29076 0
M  V30 2617 C 253.219 -1.02962 1.34518 0
M  V30 2618 O 254.425 -0.965715 1.51901 0
M  V30 2619 H 250.8 -0.148879 0.737115 0
M  V30 2620 H 252.771 0.270295 2.97173 0
M  V30 2621 C 251.52 -1.49763 3.13794 0
M  V30 2622 H 250.843 -1.02508 3.86435 0
M  V30 2623 H 252.283 -2.05244 3.71014 0
M  V30 2624 C 250.742 -2.47536 2.28533 0
M  V30 2625 O 251.272 -3.51848 1.93819 0
M  V30 2626 N 249.478 -2.18187 1.91945 0
M  V30 2627 H 249.025 -1.33389 2.20375 0
M  V30 2628 H 248.983 -2.83848 1.35195 0
M  V30 2629 N 252.755 -1.56801 0.158532 0
M  V30 2630 C 253.687 -2.14488 -0.807923 0
M  V30 2631 C 254.7 -1.09721 -1.20271 0
M  V30 2632 O 255.889 -1.36956 -1.14478 0
M  V30 2633 C 252.989 -2.66217 -2.09718 0
M  V30 2634 C 252.162 -3.95507 -1.86796 0
M  V30 2635 C 251.221 -4.3243 -2.99818 0
M  V30 2636 O 250.247 -5.00543 -2.71008 0
M  V30 2637 N 251.449 -3.92947 -4.27285 0
M  V30 2638 H 254.214 -2.98042 -0.314816 0
M  V30 2639 H 251.775 -1.61881 -0.0246692 0
M  V30 2640 H 253.767 -2.87924 -2.84398 0
M  V30 2641 H 252.337 -1.87324 -2.50257 0
M  V30 2642 H 251.557 -3.82309 -0.96089 0
M  V30 2643 H 252.845 -4.79972 -1.68833 0
M  V30 2644 H 252.243 -3.38087 -4.53557 0
M  V30 2645 H 250.8 -4.19681 -4.9871 0
M  V30 2646 N 254.233 0.115231 -1.57178 0
M  V30 2647 C 255.458 0.840354 -1.89612 0
M  V30 2648 C 255.883 1.72464 -0.750845 0
M  V30 2649 O 255.241 1.78826 0.298478 0
M  V30 2650 C 255.289 1.64654 -3.20814 0
M  V30 2651 O 254.393 2.7538 -3.06985 0
M  V30 2652 H 253.734 0.232158 -0.622092 0
M  V30 2653 H 256.264 0.0964977 -2.04372 0
M  V30 2654 H 256.274 2.03499 -3.53627 0
M  V30 2655 H 254.949 0.997416 -4.03763 0
M  V30 2656 H 253.526 2.3971 -2.85646 0
M  V30 2657 N 255.711 1.52812 0.385517 0
M  V30 2658 C 256.957 1.68275 1.13188 0
M  V30 2659 C 257.29 0.423179 1.89533 0
M  V30 2660 O 256.565 -0.579113 1.85679 0
M  V30 2661 C 256.848 2.92001 2.1073 0
M  V30 2662 C 256.701 4.28067 1.38125 0
M  V30 2663 C 258.02 3.11283 3.11113 0
M  V30 2664 H 255.139 0.612352 0.410115 0
M  V30 2665 H 257.781 1.85415 0.414869 0
M  V30 2666 H 255.931 2.77519 2.71874 0
M  V30 2667 H 257.603 4.54324 0.799187 0
M  V30 2668 H 255.846 4.28388 0.683092 0
M  V30 2669 H 256.517 5.10733 2.09417 0
M  V30 2670 H 258.993 3.2482 2.6006 0
M  V30 2671 H 257.869 3.99325 3.76605 0
M  V30 2672 H 258.13 2.25656 3.80173 0
M  V30 2673 N 257.189 -0.644168 1.43834 0
M  V30 2674 C 258.605 -0.960875 1.27434 0
M  V30 2675 C 258.805 -2.00499 0.200618 0
M  V30 2676 O 257.861 -2.49018 -0.417906 0
M  V30 2677 C 259.174 -1.43653 2.64167 0
M  V30 2678 C 260.722 -1.55271 2.71772 0
M  V30 2679 C 261.197 -2.06224 4.08944 0
M  V30 2680 N 262.688 -2.13513 4.11055 0
M  V30 2681 C 263.423 -2.54081 5.14033 0
M  V30 2682 N 262.919 -2.9388 6.27381 0
M  V30 2683 N 264.712 -2.54101 5.01387 0
M  V30 2684 H 256.863 0.0465779 2.12349 0
M  V30 2685 H 259.126 -0.0417638 0.94708 0
M  V30 2686 H 258.832 -0.743706 3.43747 0
M  V30 2687 H 258.706 -2.40993 2.90176 0
M  V30 2688 H 261.093 -2.23653 1.92519 0
M  V30 2689 H 261.174 -0.563395 2.49519 0
M  V30 2690 H 260.818 -1.38441 4.88668 0
M  V30 2691 H 260.748 -3.06003 4.28567 0
M  V30 2692 H 263.239 -1.85493 3.29242 0
M  V30 2693 H 263.552 -3.2361 7.01781 0
M  V30 2694 H 261.897 -2.91663 6.30839 0
M  V30 2695 H 265.088 -2.22391 4.11898 0
M  V30 2696 H 265.261 -2.85394 5.81768 0
M  V30 2697 N 258.668 -1.30515 -0.883378 0
M  V30 2698 C 259.578 -1.18959 -2.02203 0
M  V30 2699 C 260.594 -0.109172 -1.73657 0
M  V30 2700 O 261.77 -0.324413 -1.9877 0
M  V30 2701 C 258.835 -0.883871 -3.35244 0
M  V30 2702 C 257.896 -2.04982 -3.77201 0
M  V30 2703 C 257.129 -1.75859 -5.03894 0
M  V30 2704 O 257.352 -0.687276 -5.66244 0
M  V30 2705 O 256.286 -2.61146 -5.42297 0
M  V30 2706 H 260.112 -2.14616 -2.1488 0
M  V30 2707 H 257.697 -1.10124 -1.0096 0
M  V30 2708 H 259.579 -0.728644 -4.15053 0
M  V30 2709 H 258.254 0.0427798 -3.23672 0
M  V30 2710 H 257.161 -2.26038 -2.9809 0
M  V30 2711 H 258.494 -2.95825 -3.93381 0
M  V30 2712 N 260.146 1.09593 -1.13257 0
M  V30 2713 C 261.393 1.81734 -0.893257 0
M  V30 2714 C 261.721 1.8563 0.580656 0
M  V30 2715 O 260.976 1.31906 1.44566 0
M  V30 2716 C 261.275 3.27802 -1.42411 0
M  V30 2717 C 260.941 3.44041 -2.91456 0
M  V30 2718 C 259.603 3.48181 -3.3215 0
M  V30 2719 C 261.955 3.48719 -3.87356 0
M  V30 2720 C 259.283 3.54575 -4.67433 0
M  V30 2721 C 261.635 3.56648 -5.2248 0
M  V30 2722 C 260.299 3.59055 -5.62704 0
M  V30 2723 H 259.569 0.665011 -0.326866 0
M  V30 2724 H 262.216 1.2912 -1.41422 0
M  V30 2725 H 260.521 3.83042 -0.823795 0
M  V30 2726 H 262.218 3.82149 -1.21503 0
M  V30 2727 H 258.808 3.41502 -2.58987 0
M  V30 2728 H 262.992 3.44763 -3.57004 0
M  V30 2729 H 258.248 3.54725 -4.97976 0
M  V30 2730 H 262.422 3.59212 -5.96607 0
M  V30 2731 H 260.049 3.63763 -6.67518 0
M  V30 2732 N 261.624 0.925811 1.2754 0
M  V30 2733 C 262.554 0.440748 2.29303 0
M  V30 2734 C 263.535 -0.497971 1.62648 0
M  V30 2735 O 264.72 -0.403126 1.8997 0
M  V30 2736 C 261.85 -0.309048 3.45922 0
M  V30 2737 C 260.804 0.54166 4.24559 0
M  V30 2738 C 260.13 -0.337191 5.33636 0
M  V30 2739 C 261.43 1.80516 4.90114 0
M  V30 2740 H 263.124 1.29121 2.70126 0
M  V30 2741 H 260.67 0.622323 1.29858 0
M  V30 2742 H 262.623 -0.659315 4.1621 0
M  V30 2743 H 261.347 -1.19352 3.04011 0
M  V30 2744 H 260.006 0.874609 3.56014 0
M  V30 2745 H 259.654 -1.22056 4.87966 0
M  V30 2746 H 259.354 0.228497 5.87156 0
M  V30 2747 H 260.878 -0.683072 6.06767 0
M  V30 2748 H 262.292 1.52307 5.52698 0
M  V30 2749 H 260.689 2.3142 5.53683 0
M  V30 2750 H 261.759 2.52581 4.13921 0
M  V30 2751 N 263.102 -1.41638 0.69111 0
M  V30 2752 C 264.379 -1.95036 0.148421 0
M  V30 2753 C 264.759 -1.63072 -1.34055 0
M  V30 2754 O 264.107 -0.93538 -2.08478 0
M  V30 2755 C 264.317 -3.46279 0.434951 0
M  V30 2756 C 265.665 -4.23069 0.360275 0
M  V30 2757 O 266.689 -3.54277 0.369613 0
M  V30 2758 O 265.548 -5.45583 0.316534 0
M  V30 2759 H 262.642 -0.826908 0.0123654 0
M  V30 2760 H 265.188 -1.5138 0.766963 0
M  V30 2761 H 263.96 -3.6281 1.46576 0
M  V30 2762 H 263.583 -3.97019 -0.214787 0
M  V30 2763 N 264.58 -0.43555 -1.51462 0
M  V30 2764 C 265.828 0.131254 -2.01673 0
M  V30 2765 C 266.149 1.43368 -1.32177 0
M  V30 2766 O 265.419 1.90524 -0.455769 0
M  V30 2767 H 263.999 0.0514954 -0.745223 0
M  V30 2768 H 266.661 -0.577847 -1.86137 0
M  V30 2769 H 265.757 0.308446 -3.10572 0
M  V30 2770 N 266.058 1.56714 -0.166846 0
M  V30 2771 C 267.286 2.0112 0.485644 0
M  V30 2772 C 267.701 1.04705 1.57106 0
M  V30 2773 O 267.058 0.0471923 1.82439 0
M  V30 2774 C 267.109 3.45361 1.06808 0
M  V30 2775 O 266.83 4.38092 0.0259995 0
M  V30 2776 C 268.331 4.05145 1.79924 0
M  V30 2777 H 265.551 0.65931 0.124704 0
M  V30 2778 H 268.095 2.02746 -0.267262 0
M  V30 2779 H 266.25 3.44524 1.7715 0
M  V30 2780 H 266.664 5.22519 0.455398 0
M  V30 2781 H 268.138 5.08009 2.15942 0
M  V30 2782 H 268.615 3.46982 2.69258 0
M  V30 2783 H 269.221 4.09672 1.14234 0
M  V30 2784 N 267.536 -0.106894 1.57237 0
M  V30 2785 C 268.952 -0.46078 1.52804 0
M  V30 2786 C 269.152 -1.81184 0.881746 0
M  V30 2787 O 268.208 -2.48102 0.469224 0
M  V30 2788 C 269.521 -0.434127 2.9755 0
M  V30 2789 C 271.069 -0.516821 3.08704 0
M  V30 2790 C 271.544 -0.520436 4.55033 0
M  V30 2791 N 273.035 -0.58153 4.59535 0
M  V30 2792 C 273.77 -0.605973 5.70189 0
M  V30 2793 N 273.266 -0.587331 6.90306 0
M  V30 2794 N 275.059 -0.649895 5.5833 0
M  V30 2795 H 267.21 0.778203 1.9763 0
M  V30 2796 H 269.473 0.288403 0.903066 0
M  V30 2797 H 269.179 0.491197 3.48253 0
M  V30 2798 H 269.053 -1.25748 3.55622 0
M  V30 2799 H 271.44 -1.43256 2.57995 0
M  V30 2800 H 271.521 0.334449 2.53604 0
M  V30 2801 H 271.165 0.391313 5.0639 0
M  V30 2802 H 271.095 -1.38876 5.07958 0
M  V30 2803 H 273.586 -0.60161 3.73081 0
M  V30 2804 H 273.899 -0.60894 7.70397 0
M  V30 2805 H 272.244 -0.554564 6.92784 0
M  V30 2806 H 275.435 -0.661907 4.63397 0
M  V30 2807 H 275.608 -0.665476 6.44574 0
M  V30 2808 N 269.014 -1.53014 -0.377408 0
M  V30 2809 C 269.961 -1.78616 -1.46168 0
M  V30 2810 C 270.931 -0.629917 -1.53692 0
M  V30 2811 O 272.116 -0.870861 -1.69766 0
M  V30 2812 C 269.256 -1.97123 -2.8326 0
M  V30 2813 C 268.369 -3.24831 -2.84796 0
M  V30 2814 C 267.504 -3.33591 -4.13389 0
M  V30 2815 C 266.543 -4.55377 -4.09021 0
M  V30 2816 N 265.68 -4.61355 -5.29241 0
M  V30 2817 H 270.52 -2.71142 -1.23637 0
M  V30 2818 H 268.057 -1.34326 -0.599577 0
M  V30 2819 H 270.015 -2.05839 -3.62886 0
M  V30 2820 H 268.645 -1.07946 -3.04216 0
M  V30 2821 H 267.697 -3.25128 -1.97474 0
M  V30 2822 H 269.009 -4.14523 -2.77439 0
M  V30 2823 H 268.163 -3.41554 -5.01424 0
M  V30 2824 H 266.902 -2.41894 -4.23484 0
M  V30 2825 H 265.907 -4.47527 -3.19373 0
M  V30 2826 H 267.132 -5.48402 -4.00539 0
M  V30 2827 H 265.078 -3.72554 -5.39944 0
M  V30 2828 H 264.995 -5.44935 -5.24006 0
M  V30 2829 H 266.263 -4.73586 -6.19141 0
M  V30 2830 N 270.492 0.636531 -1.44174 0
M  V30 2831 C 271.72 1.42353 -1.50144 0
M  V30 2832 C 272.135 1.88389 -0.124575 0
M  V30 2833 O 271.492 1.6051 0.868489 0
M  V30 2834 C 271.543 2.64744 -2.46156 0
M  V30 2835 O 271.264 2.20629 -3.7849 0
M  V30 2836 C 272.765 3.57929 -2.61537 0
M  V30 2837 H 269.985 0.436752 -0.5094 0
M  V30 2838 H 272.529 0.778933 -1.89084 0
M  V30 2839 H 270.684 3.25307 -2.10366 0
M  V30 2840 H 271.098 2.99938 -4.30276 0
M  V30 2841 H 272.572 4.40428 -3.32757 0
M  V30 2842 H 273.049 4.06382 -1.66585 0
M  V30 2843 H 273.655 3.03238 -2.98206 0
M  V30 2844 N 271.97 1.30982 0.876444 0
M  V30 2845 C 272.918 1.18006 2.00443 0
M  V30 2846 C 273.912 0.0898871 1.69161 0
M  V30 2847 O 275.118 0.251333 1.78237 0
M  V30 2848 H 271.493 0.365196 0.65737 0
M  V30 2849 H 273.464 2.13453 2.0852 0
M  V30 2850 C 272.213 0.897521 3.35916 0
M  V30 2851 H 271.536 1.7285 3.60504 0
M  V30 2852 H 272.976 0.846874 4.15456 0
M  V30 2853 C 271.435 -0.399674 3.34521 0
M  V30 2854 O 271.965 -1.41852 3.7582 0
M  V30 2855 N 270.171 -0.413893 2.87637 0
M  V30 2856 H 269.718 0.41571 2.54224 0
M  V30 2857 H 269.676 -1.28175 2.87086 0
M  V30 2858 N 273.449 -1.08991 1.13837 0
M  V30 2859 C 274.397 -2.17841 0.815347 0
M  V30 2860 C 275.391 -1.68164 -0.204233 0
M  V30 2861 O 276.597 -1.79897 -0.0609304 0
M  V30 2862 H 272.972 -0.710654 0.245915 0
M  V30 2863 H 274.943 -2.42315 1.74143 0
M  V30 2864 C 273.692 -3.46381 0.302614 0
M  V30 2865 H 273.015 -3.84979 1.0785 0
M  V30 2866 H 274.455 -4.23844 0.115074 0
M  V30 2867 C 272.914 -3.22556 -0.972591 0
M  V30 2868 O 273.444 -3.45599 -2.04754 0
M  V30 2869 N 271.65 -2.76134 -0.905455 0
M  V30 2870 H 271.197 -2.57582 -0.0305421 0
M  V30 2871 H 271.155 -2.60571 -1.75926 0
M  V30 2872 N 274.927 -0.932562 -1.27047 0
M  V30 2873 C 276.176 -0.571351 -1.93439 0
M  V30 2874 C 276.489 0.892467 -1.74053 0
M  V30 2875 O 277.695 1.36267 -2.34826 0
M  V30 2876 C 276.151 -0.97106 -3.46552 0
M  V30 2877 C 275.759 -2.4559 -3.74686 0
M  V30 2878 C 277.503 -0.681333 -4.18997 0
M  V30 2879 C 275.41 -2.79475 -5.21198 0
M  V30 2880 H 274.34 -0.209966 -0.724176 0
M  V30 2881 H 276.991 -1.13403 -1.44263 0
M  V30 2882 H 275.373 -0.336983 -3.94564 0
M  V30 2883 H 276.547 -3.13829 -3.37414 0
M  V30 2884 H 274.862 -2.71802 -3.15456 0
M  V30 2885 H 277.459 -0.910939 -5.26883 0
M  V30 2886 H 277.802 0.381628 -4.14547 0
M  V30 2887 H 278.335 -1.27473 -3.76823 0
M  V30 2888 H 275.074 -3.847 -5.30741 0
M  V30 2889 H 274.594 -2.1589 -5.596 0
M  V30 2890 H 276.273 -2.67478 -5.89122 0
M  V30 2891 N 276.405 1.4127 -0.698611 0
M  V30 2892 C 277.652 2.0118 -0.230865 0
M  V30 2893 C 277.98 1.55338 1.17049 0
M  V30 2894 O 277.235 0.756775 1.80475 0
M  V30 2895 C 277.534 3.56592 -0.240192 0
M  V30 2896 C 277.2 4.21955 -1.58948 0
M  V30 2897 C 275.862 4.39524 -1.95887 0
M  V30 2898 C 278.214 4.58576 -2.47704 0
M  V30 2899 C 275.542 4.90992 -3.2116 0
M  V30 2900 C 277.894 5.11435 -3.72313 0
M  V30 2901 C 276.558 5.27215 -4.0939 0
M  V30 2902 H 275.828 0.736169 -0.0844796 0
M  V30 2903 H 278.475 1.69124 -0.8983 0
M  V30 2904 H 276.78 3.88456 0.510797 0
M  V30 2905 H 278.477 4.00758 0.139296 0
M  V30 2906 H 275.067 4.08657 -1.29219 0
M  V30 2907 H 279.251 4.44654 -2.20445 0
M  V30 2908 H 274.507 5.01393 -3.49878 0
M  V30 2909 H 278.681 5.38752 -4.4127 0
M  V30 2910 H 276.308 5.66859 -5.06533 0
M  V30 2911 N 277.883 0.443576 1.51229 0
M  V30 2912 C 279.123 -0.119889 2.04048 0
M  V30 2913 C 279.487 -1.39418 1.32009 0
M  V30 2914 O 280.688 -2.03829 1.75235 0
M  V30 2915 C 278.959 -0.327233 3.55899 0
M  V30 2916 S 280.518 -0.853208 4.30425 0
M  V30 2917 H 277.336 -0.028921 0.710412 0
M  V30 2918 H 279.938 0.604413 1.85922 0
M  V30 2919 H 278.642 0.606445 4.05895 0
M  V30 2920 H 278.173 -1.07844 3.7833 0
M  V30 2921 H 280.188 -2.13005 4.48155 0
M  V30 2922 N 279.361 -1.56624 0.175154 0
M  V30 2923 C 280.586 -2.01813 -0.478137 0
M  V30 2924 C 281.011 -1.05457 -1.55757 0
M  V30 2925 O 280.369 -0.0347439 -1.81267 0
M  V30 2926 C 280.417 -3.45581 -1.02987 0
M  V30 2927 O 279.521 -3.52305 -2.14371 0
M  V30 2928 H 278.862 -0.65413 -0.114059 0
M  V30 2929 H 281.392 -2.02673 0.280173 0
M  V30 2930 H 281.402 -3.84965 -1.35151 0
M  V30 2931 H 280.077 -4.1521 -0.239556 0
M  V30 2932 H 278.654 -3.24783 -1.83222 0
M  V30 2933 N 280.839 0.0985539 -1.57292 0
M  V30 2934 C 281.787 1.1387 -2.02821 0
M  V30 2935 C 282.781 1.41676 -0.928666 0
M  V30 2936 O 283.987 1.41398 -1.11385 0
M  V30 2937 H 280.362 0.384419 -0.646317 0
M  V30 2938 H 282.333 0.728347 -2.89375 0
M  V30 2939 C 281.082 2.45166 -2.46554 0
M  V30 2940 H 280.405 2.24613 -3.3074 0
M  V30 2941 H 281.845 3.16456 -2.8219 0
M  V30 2942 C 280.304 3.09216 -1.33742 0
M  V30 2943 O 280.834 3.96163 -0.66464 0
M  V30 2944 N 279.04 2.69413 -1.08928 0
M  V30 2945 H 278.587 1.98801 -1.63817 0
M  V30 2946 H 278.545 3.12594 -0.336458 0
M  V30 2947 N 282.317 1.53212 0.369288 0
M  V30 2948 C 283.728 1.60943 0.946276 0
M  V30 2949 C 284.079 0.47452 1.90375 0
M  V30 2950 O 283.204 -0.399597 2.12679 0
M  V30 2951 C 283.799 2.91715 1.72302 0
M  V30 2952 C 282.358 3.01792 2.24941 0
M  V30 2953 C 281.505 2.56211 1.06072 0
M  V30 2954 H 284.456 1.58007 0.148198 0
M  V30 2955 H 284.477 2.79309 2.58393 0
M  V30 2956 H 283.989 3.74295 1.0259 0
M  V30 2957 H 282.09 2.23791 2.97906 0
M  V30 2958 H 282.203 4.06803 2.53077 0
M  V30 2959 H 280.567 2.10998 1.4266 0
M  V30 2960 H 281.35 3.41206 0.378639 0
M  V30 2961 N 283.795 -0.628877 1.44509 0
M  V30 2962 C 284.743 -1.76193 1.51852 0
M  V30 2963 C 285.737 -1.64849 0.390042 0
M  V30 2964 O 286.943 -1.709 0.565082 0
M  V30 2965 H 283.318 -0.581728 0.476547 0
M  V30 2966 H 285.289 -1.67123 2.47209 0
M  V30 2967 C 284.038 -3.14533 1.48204 0
M  V30 2968 H 283.361 -3.23911 2.34354 0
M  V30 2969 H 284.801 -3.93701 1.57402 0
M  V30 2970 C 283.26 -3.36287 0.203142 0
M  V30 2971 O 283.79 -3.9509 -0.725745 0
M  V30 2972 N 281.996 -2.90408 0.105563 0
M  V30 2973 H 281.543 -2.42739 0.862301 0
M  V30 2974 H 281.501 -3.05339 -0.749371 0
M  V30 2975 N 285.273 -1.31445 -0.869486 0
M  V30 2976 C 286.223 -1.15731 -1.96444 0
M  V30 2977 C 287.207 -0.0681855 -1.60755 0
M  V30 2978 O 288.399 -0.293154 -1.74555 0
M  V30 2979 C 285.528 -0.867255 -3.32165 0
M  V30 2980 C 284.614 -1.99738 -3.74119 0
M  V30 2981 N 285.005 -3.24447 -3.88031 0
M  V30 2982 C 283.303 -1.89723 -4.03635 0
M  V30 2983 C 284.004 -3.98374 -4.23879 0
M  V30 2984 N 282.98 -3.26547 -4.3459 0
M  V30 2985 H 286.782 -2.10296 -2.05312 0
M  V30 2986 H 284.296 -1.23009 -1.06031 0
M  V30 2987 H 286.293 -0.735668 -4.10358 0
M  V30 2988 H 284.953 0.0701614 -3.24624 0
M  V30 2989 H 285.964 -3.59557 -3.72746 0
M  V30 2990 H 282.641 -1.03449 -4.04481 0
M  V30 2991 H 284.031 -5.05844 -4.42235 0
M  V30 2992 N 286.751 1.08385 -1.14413 0
M  V30 2993 C 288.167 1.32844 -0.884563 0
M  V30 2994 C 288.367 1.95841 0.474181 0
M  V30 2995 O 287.423 2.21158 1.21842 0
M  V30 2996 C 288.736 2.22978 -2.01745 0
M  V30 2997 C 290.284 2.36458 -2.05077 0
M  V30 2998 C 290.759 3.29934 -3.1766 0
M  V30 2999 N 292.25 3.37511 -3.17239 0
M  V30 3000 C 292.985 4.09871 -4.0099 0
M  V30 3001 N 292.481 4.84936 -4.94781 0
M  V30 3002 N 294.274 4.05704 -3.89051 0
M  V30 3003 H 286.425 0.658756 -2.01926 0
M  V30 3004 H 288.688 0.352821 -0.879899 0
M  V30 3005 H 288.394 1.83934 -2.99769 0
M  V30 3006 H 288.268 3.23441 -1.94077 0
M  V30 3007 H 290.655 2.7476 -1.0766 0
M  V30 3008 H 290.736 1.35736 -2.16816 0
M  V30 3009 H 290.38 2.92352 -4.15322 0
M  V30 3010 H 290.31 4.30584 -3.03158 0
M  V30 3011 H 292.801 2.83996 -2.49308 0
M  V30 3012 H 293.114 5.37612 -5.55151 0
M  V30 3013 H 291.459 4.83988 -4.98779 0
M  V30 3014 H 294.65 3.46167 -3.15097 0
M  V30 3015 H 294.823 4.61834 -4.54547 0
M  V30 3016 N 288.23 0.939286 1.26551 0
M  V30 3017 C 289.458 0.602536 1.97932 0
M  V30 3018 C 289.873 -0.82206 1.69964 0
M  V30 3019 O 289.23 -1.54789 0.966784 0
M  V30 3020 C 289.281 0.832946 3.51773 0
M  V30 3021 O 289.002 2.20151 3.78768 0
M  V30 3022 C 290.503 0.506483 4.40397 0
M  V30 3023 H 287.723 0.227248 0.631347 0
M  V30 3024 H 290.267 1.25948 1.61113 0
M  V30 3025 H 288.422 0.222644 3.8676 0
M  V30 3026 H 288.836 2.26013 4.73306 0
M  V30 3027 H 290.31 0.718333 5.47306 0
M  V30 3028 H 290.787 -0.558451 4.35635 0
M  V30 3029 H 291.393 1.09543 4.10951 0
M  V30 3030 N 289.708 -1.40897 0.706093 0
M  V30 3031 C 291.119 -1.84023 0.315052 0
M  V30 3032 C 291.47 -1.5906 -1.14866 0
M  V30 3033 O 290.595 -1.06651 -1.88293 0
M  V30 3034 C 291.19 -3.34055 0.565038 0
M  V30 3035 C 289.749 -3.7571 0.227806 0
M  V30 3036 C 288.896 -2.64204 0.842122 0
M  V30 3037 H 291.847 -1.303 0.905963 0
M  V30 3038 H 291.868 -3.80107 -0.172843 0
M  V30 3039 H 291.38 -3.52192 1.63042 0
M  V30 3040 H 289.481 -3.63172 -0.832895 0
M  V30 3041 H 289.594 -4.74103 0.690174 0
M  V30 3042 H 287.958 -2.53255 0.270893 0
M  V30 3043 H 288.741 -2.85155 1.91158 0
M  V30 3044 N 291.186 -0.45159 -1.50991 0
M  V30 3045 C 292.414 0.108334 -2.06616 0
M  V30 3046 C 292.829 1.35224 -1.31757 0
M  V30 3047 O 292.186 1.78475 -0.381174 0
M  V30 3048 C 292.237 0.41619 -3.59096 0
M  V30 3049 O 291.958 -0.778361 -4.3113 0
M  V30 3050 C 293.459 1.02523 -4.31282 0
M  V30 3051 H 290.679 0.00159995 -0.670998 0
M  V30 3052 H 293.223 -0.634771 -1.94399 0
M  V30 3053 H 291.378 1.10921 -3.71181 0
M  V30 3054 H 291.792 -0.511181 -5.22003 0
M  V30 3055 H 293.266 1.19053 -5.39009 0
M  V30 3056 H 293.743 2.01013 -3.905 0
M  V30 3057 H 294.349 0.371173 -4.23677 0
M  V30 3058 N 292.664 1.56529 -0.183458 0
M  V30 3059 C 293.594 2.21549 0.737456 0
M  V30 3060 C 294.575 1.17489 1.23005 0
M  V30 3061 O 295.76 1.45959 1.281 0
M  V30 3062 C 292.89 2.86575 1.96194 0
M  V30 3063 C 291.844 3.96778 1.60473 0
M  V30 3064 C 291.17 4.48911 2.90487 0
M  V30 3065 C 292.47 5.15767 0.823497 0
M  V30 3066 H 294.164 2.98761 0.195453 0
M  V30 3067 H 291.71 1.43702 0.0925686 0
M  V30 3068 H 293.663 3.30739 2.61131 0
M  V30 3069 H 292.387 2.06749 2.52828 0
M  V30 3070 H 291.046 3.53286 0.978997 0
M  V30 3071 H 290.694 3.65862 3.45186 0
M  V30 3072 H 290.394 5.23265 2.67335 0
M  V30 3073 H 291.918 4.95771 3.56432 0
M  V30 3074 H 293.332 5.56549 1.37571 0
M  V30 3075 H 291.729 5.96114 0.690551 0
M  V30 3076 H 292.799 4.84574 -0.177782 0
M  V30 3077 N 294.142 -0.090211 1.57342 0
M  V30 3078 C 295.37 -0.806224 1.90546 0
M  V30 3079 C 295.785 -1.72041 0.777644 0
M  V30 3080 O 295.142 -1.80778 -0.250103 0
M  V30 3081 C 295.193 -1.61546 3.23396 0
M  V30 3082 O 294.914 -0.738043 4.31839 0
M  V30 3083 C 296.415 -2.4341 3.70495 0
M  V30 3084 H 293.635 -0.230256 0.630257 0
M  V30 3085 H 296.179 -0.0659843 2.04394 0
M  V30 3086 H 294.334 -2.30816 3.11131 0
M  V30 3087 H 294.748 -1.29901 5.08159 0
M  V30 3088 H 296.222 -2.95676 4.66133 0
M  V30 3089 H 296.699 -3.22098 2.98579 0
M  V30 3090 H 297.305 -1.79331 3.85643 0
M  V30 3091 N 295.62 -1.53406 -0.361157 0
M  V30 3092 C 296.845 -1.74024 -1.12829 0
M  V30 3093 C 297.27 -0.470069 -1.82132 0
M  V30 3094 O 296.628 0.57619 -1.719 0
M  V30 3095 C 296.676 -2.90903 -2.13091 0
M  V30 3096 O 295.78 -2.59821 -3.20261 0
M  V30 3097 H 295.121 -0.577804 -0.327168 0
M  V30 3098 H 297.651 -2.00307 -0.41693 0
M  V30 3099 H 297.661 -3.17194 -2.56616 0
M  V30 3100 H 296.336 -3.83034 -1.62042 0
M  V30 3101 H 294.913 -2.44362 -2.81677 0
M  V30 3102 N 297.098 0.621204 -1.44841 0
M  V30 3103 C 298.347 1.37658 -1.47422 0
M  V30 3104 C 298.66 1.95264 -0.114629 0
M  V30 3105 O 299.866 2.71494 -0.0180199 0
M  V30 3106 C 298.322 2.49285 -2.59586 0
M  V30 3107 C 297.93 1.98149 -4.01797 0
M  V30 3108 C 299.674 3.26409 -2.71399 0
M  V30 3109 C 297.581 3.07178 -5.05367 0
M  V30 3110 H 296.511 0.517344 -0.548517 0
M  V30 3111 H 299.162 0.667257 -1.70938 0
M  V30 3112 H 297.544 3.22839 -2.29328 0
M  V30 3113 H 298.718 1.31395 -4.41669 0
M  V30 3114 H 297.033 1.33812 -3.94314 0
M  V30 3115 H 299.63 4.07706 -3.45948 0
M  V30 3116 H 299.973 3.76535 -1.77559 0
M  V30 3117 H 300.506 2.5995 -3.01116 0
M  V30 3118 H 297.245 2.61985 -6.00869 0
M  V30 3119 H 296.765 3.72542 -4.70077 0
M  V30 3120 H 298.444 3.71789 -5.29511 0
M  V30 3121 N 298.576 1.31904 0.862503 0
M  V30 3122 C 299.806 1.24817 1.64634 0
M  V30 3123 C 300.214 -0.187579 1.88268 0
M  V30 3124 O 299.557 -1.13253 1.44635 0
M  V30 3125 C 299.619 1.92996 3.03303 0
M  V30 3126 C 299.283 3.42336 3.02746 0
M  V30 3127 C 300.28 4.37956 2.80162 0
M  V30 3128 C 297.965 3.84147 3.2363 0
M  V30 3129 C 299.959 5.73361 2.78453 0
M  V30 3130 C 297.646 5.19663 3.21549 0
M  V30 3131 C 298.644 6.14081 2.98988 0
M  V30 3132 O 298.332 7.47118 2.96766 0
M  V30 3133 H 298.064 0.432222 0.519769 0
M  V30 3134 H 300.618 1.7445 1.08427 0
M  V30 3135 H 298.848 1.37922 3.61268 0
M  V30 3136 H 300.537 1.79723 3.63943 0
M  V30 3137 H 301.303 4.06981 2.63802 0
M  V30 3138 H 297.182 3.11083 3.40218 0
M  V30 3139 H 300.726 6.4703 2.60763 0
M  V30 3140 H 296.623 5.5027 3.37451 0
M  V30 3141 H 297.391 7.56382 3.12775 0
M  V30 3142 N 300.054 -1.07777 1.14986 0
M  V30 3143 C 301.294 -1.81888 0.932527 0
M  V30 3144 C 301.658 -1.84509 -0.531064 0
M  V30 3145 O 302.859 -2.54448 -0.866577 0
M  V30 3146 C 301.13 -3.23244 1.52473 0
M  V30 3147 S 302.689 -4.14154 1.44989 0
M  V30 3148 H 299.507 -0.626752 0.335712 0
M  V30 3149 H 302.109 -1.29503 1.46455 0
M  V30 3150 H 300.813 -3.18922 2.58296 0
M  V30 3151 H 300.344 -3.80704 0.991381 0
M  V30 3152 H 302.359 -4.94247 0.439799 0
M  V30 3153 N 301.532 -0.945985 -1.26051 0
M  V30 3154 C 302.948 -0.649045 -1.45807 0
M  V30 3155 C 303.148 0.796158 -1.85104 0
M  V30 3156 O 302.204 1.57233 -1.97571 0
M  V30 3157 C 303.517 -1.61458 -2.53677 0
M  V30 3158 C 305.065 -1.62481 -2.67524 0
M  V30 3159 C 305.54 -2.57776 -3.7857 0
M  V30 3160 N 307.031 -2.5609 -3.85969 0
M  V30 3161 C 307.766 -3.26508 -4.7136 0
M  V30 3162 N 307.262 -4.0637 -5.61102 0
M  V30 3163 N 309.055 -3.15437 -4.65248 0
M  V30 3164 H 301.206 -1.88005 -0.988328 0
M  V30 3165 H 303.469 -0.808198 -0.4955 0
M  V30 3166 H 303.175 -2.64644 -2.31638 0
M  V30 3167 H 303.049 -1.37036 -3.51427 0
M  V30 3168 H 305.436 -0.600167 -2.88933 0
M  V30 3169 H 305.517 -1.90958 -1.70202 0
M  V30 3170 H 305.161 -3.60361 -3.57913 0
M  V30 3171 H 305.091 -2.26587 -4.75359 0
M  V30 3172 H 307.582 -1.98105 -3.21812 0
M  V30 3173 H 307.895 -4.57042 -6.23164 0
M  V30 3174 H 306.24 -4.10469 -5.60839 0
M  V30 3175 H 309.431 -2.52525 -3.94143 0
M  V30 3176 H 309.604 -3.70584 -5.31575 0
M  V30 3177 N 303.011 1.40521 -0.713556 0
M  V30 3178 C 304.259 2.00527 -0.251692 0
M  V30 3179 C 304.58 1.56857 1.15848 0
M  V30 3180 O 303.85 0.807127 1.785 0
M  V30 3181 H 302.43 0.741551 -0.0900646 0
M  V30 3182 H 305.092 1.71887 -0.918733 0
M  V30 3183 H 304.188 3.10813 -0.283192 0
M  V30 3184 N 304.489 0.459591 1.5075 0
M  V30 3185 C 305.729 -0.09824 2.04164 0
M  V30 3186 C 306.093 -1.3801 1.33481 0
M  V30 3187 O 307.294 -2.01959 1.77387 0
M  V30 3188 C 305.565 -0.289467 3.56226 0
M  V30 3189 S 307.124 -0.807507 4.31306 0
M  V30 3190 H 303.942 -0.0213845 0.710678 0
M  V30 3191 H 306.544 0.624098 1.85271 0
M  V30 3192 H 305.248 0.649461 4.05229 0
M  V30 3193 H 304.779 -1.03825 3.79452 0
M  V30 3194 H 306.794 -2.0824 4.50389 0
M  V30 3195 N 305.967 -1.56429 0.191757 0
M  V30 3196 C 307.192 -2.02309 -0.456706 0
M  V30 3197 C 307.617 -1.07103 -1.5463 0
M  V30 3198 O 306.975 -0.0539677 -1.8122 0
M  V30 3199 C 307.023 -3.46654 -0.993159 0
M  V30 3200 O 306.127 -3.54559 -2.10622 0
M  V30 3201 H 305.468 -0.655303 -0.107114 0
M  V30 3202 H 307.998 -2.02364 0.301653 0
M  V30 3203 H 308.008 -3.86377 -1.31061 0
M  V30 3204 H 306.683 -4.1544 -0.195504 0
M  V30 3205 H 305.26 -3.26708 -1.79767 0
M  V30 3206 N 307.445 0.0818655 -1.57387 0
M  V30 3207 C 308.392 1.09834 -2.0299 0
M  V30 3208 C 309.362 1.39043 -0.908639 0
M  V30 3209 O 310.547 1.50282 -1.17559 0
M  V30 3210 C 307.687 2.40971 -2.47037 0
M  V30 3211 C 306.8 2.18379 -3.7274 0
M  V30 3212 C 305.935 3.43008 -4.0561 0
M  V30 3213 C 304.974 3.15736 -5.24383 0
M  V30 3214 N 304.111 4.32667 -5.52941 0
M  V30 3215 H 308.951 0.702472 -2.89602 0
M  V30 3216 H 306.488 0.33531 -1.43227 0
M  V30 3217 H 308.446 3.1752 -2.70623 0
M  V30 3218 H 307.076 2.78379 -1.63417 0
M  V30 3219 H 306.128 1.32569 -3.56552 0
M  V30 3220 H 307.44 1.94227 -4.59431 0
M  V30 3221 H 306.594 4.27958 -4.30043 0
M  V30 3222 H 305.333 3.70225 -3.17466 0
M  V30 3223 H 304.338 2.2918 -4.99757 0
M  V30 3224 H 305.563 2.8985 -6.14136 0
M  V30 3225 H 303.509 4.59935 -4.67756 0
M  V30 3226 H 303.426 4.11753 -6.34031 0
M  V30 3227 H 304.694 5.18644 -5.81918 0
M  V30 3228 N 308.923 1.53595 0.353017 0
M  V30 3229 C 310.334 1.61937 0.929153 0
M  V30 3230 C 310.685 0.494686 1.89861 0
M  V30 3231 O 309.81 -0.377017 2.1309 0
M  V30 3232 C 310.405 2.93526 1.69199 0
M  V30 3233 C 308.964 3.04161 2.21727 0
M  V30 3234 C 308.111 2.57322 1.03348 0
M  V30 3235 H 311.062 1.58155 0.131431 0
M  V30 3236 H 311.083 2.82034 2.55416 0
M  V30 3237 H 310.595 3.75362 0.986144 0
M  V30 3238 H 308.696 2.26938 2.95516 0
M  V30 3239 H 308.809 4.09465 2.48748 0
M  V30 3240 H 307.173 2.12499 1.40414 0
M  V30 3241 H 307.956 3.41588 0.342428 0
M  V30 3242 N 310.401 -0.613514 1.45168 0
M  V30 3243 C 311.331 -1.7354 1.56225 0
M  V30 3244 C 312.312 -1.64981 0.41414 0
M  V30 3245 O 313.497 -1.83472 0.636526 0
M  V30 3246 C 310.627 -3.12128 1.52295 0
M  V30 3247 C 309.581 -3.35491 2.65762 0
M  V30 3248 C 308.907 -4.74291 2.46885 0
M  V30 3249 C 310.207 -3.26325 4.0781 0
M  V30 3250 H 311.901 -1.64543 2.50132 0
M  V30 3251 H 309.447 -0.790185 1.20383 0
M  V30 3252 H 311.4 -3.90404 1.58628 0
M  V30 3253 H 310.124 -3.2195 0.549139 0
M  V30 3254 H 308.783 -2.59603 2.58847 0
M  V30 3255 H 308.431 -4.80839 1.47657 0
M  V30 3256 H 308.131 -4.9088 3.22972 0
M  V30 3257 H 309.655 -5.54775 2.55063 0
M  V30 3258 H 311.069 -3.94483 4.16 0
M  V30 3259 H 309.466 -3.54445 4.8424 0
M  V30 3260 H 310.536 -2.23855 4.30136 0
M  V30 3261 N 311.879 -1.3236 -0.855495 0
M  V30 3262 C 313.119 -1.24187 -1.62348 0
M  V30 3263 C 313.483 0.193597 -1.91021 0
M  V30 3264 O 314.684 0.39904 -2.65822 0
M  V30 3265 C 312.955 -2.07661 -2.90881 0
M  V30 3266 S 314.514 -2.16505 -3.81669 0
M  V30 3267 H 311.332 -0.442076 -0.556857 0
M  V30 3268 H 313.934 -1.67198 -1.01317 0
M  V30 3269 H 312.638 -3.11018 -2.67761 0
M  V30 3270 H 312.169 -1.65425 -3.56929 0
M  V30 3271 H 314.184 -1.31394 -4.78487 0
M  V30 3272 N 313.357 1.07166 -1.15556 0
M  V30 3273 C 314.597 1.81391 -0.94216 0
M  V30 3274 C 314.961 1.84788 0.521272 0
M  V30 3275 O 316.162 2.54904 0.85307 0
M  V30 3276 C 314.433 3.22431 -1.54185 0
M  V30 3277 S 315.992 4.13379 -1.47183 0
M  V30 3278 H 312.81 0.624963 -0.339031 0
M  V30 3279 H 315.412 1.28725 -1.4714 0
M  V30 3280 H 314.116 3.17548 -2.59984 0
M  V30 3281 H 313.647 3.80172 -1.01156 0
M  V30 3282 H 315.662 4.94007 -0.466004 0
M  V30 3283 N 314.835 0.952656 1.25548 0
M  V30 3284 C 316.06 0.623025 1.97821 0
M  V30 3285 C 316.485 -0.7976 1.70352 0
M  V30 3286 O 315.843 -1.53905 0.958283 0
M  V30 3287 C 315.891 0.885532 3.49558 0
M  V30 3288 O 314.995 -0.0366641 4.12384 0
M  V30 3289 H 314.336 0.237082 0.620232 0
M  V30 3290 H 316.866 1.27871 1.59719 0
M  V30 3291 H 316.876 0.811009 3.99858 0
M  V30 3292 H 315.551 1.92094 3.6888 0
M  V30 3293 H 314.128 0.0898954 3.72792 0
M  V30 3294 N 316.313 -1.40141 0.720998 0
M  V30 3295 C 317.553 -2.02644 0.267335 0
M  V30 3296 C 317.917 -1.55948 -1.12001 0
M  V30 3297 O 319.118 -2.10552 -1.67097 0
M  V30 3298 C 317.389 -3.55679 0.350281 0
M  V30 3299 S 318.948 -4.38793 -0.0256004 0
M  V30 3300 H 315.766 -0.703105 0.105664 0
M  V30 3301 H 318.368 -1.71175 0.944416 0
M  V30 3302 H 317.072 -3.87157 1.36153 0
M  V30 3303 H 316.603 -3.91883 -0.345096 0
M  V30 3304 H 318.618 -4.803 -1.24604 0
M  V30 3305 N 317.792 -0.46758 -1.50504 0
M  V30 3306 C 318.755 0.317059 -2.26996 0
M  V30 3307 C 319.755 0.923513 -1.31635 0
M  V30 3308 O 320.945 0.793239 -1.55091 0
M  V30 3309 C 318.077 1.45134 -3.08462 0
M  V30 3310 H 319.27 -0.353723 -2.97807 0
M  V30 3311 H 316.823 -0.221545 -1.54722 0
M  V30 3312 H 317.558 2.15728 -2.4214 0
M  V30 3313 H 317.343 1.02232 -3.78538 0
M  V30 3314 H 318.833 2.00493 -3.66323 0
M  V30 3315 N 319.27 1.56325 -0.20005 0
M  V30 3316 C 320.2 2.22318 0.713916 0
M  V30 3317 C 321.181 1.18788 1.21752 0
M  V30 3318 O 322.366 1.47309 1.26545 0
M  V30 3319 C 319.496 2.88639 1.93144 0
M  V30 3320 C 318.45 3.98457 1.56255 0
M  V30 3321 C 317.776 4.51967 2.85709 0
M  V30 3322 C 319.076 5.16612 0.768747 0
M  V30 3323 H 320.77 2.98952 0.163755 0
M  V30 3324 H 318.316 1.43792 0.0773219 0
M  V30 3325 H 320.269 3.33491 2.57608 0
M  V30 3326 H 318.993 2.09419 2.50621 0
M  V30 3327 H 317.652 3.54305 0.941471 0
M  V30 3328 H 317.3 3.69503 3.41287 0
M  V30 3329 H 317 5.26071 2.6177 0
M  V30 3330 H 318.524 4.99523 3.51154 0
M  V30 3331 H 319.938 5.57977 1.3166 0
M  V30 3332 H 318.335 5.96812 0.627286 0
M  V30 3333 H 319.405 4.84358 -0.229168 0
M  V30 3334 N 320.748 -0.0735177 1.57428 0
M  V30 3335 C 321.678 -1.0879 2.06608 0
M  V30 3336 C 322.659 -1.40473 0.959237 0
M  V30 3337 O 323.844 -1.5013 1.23185 0
M  V30 3338 C 320.974 -2.40183 2.50857 0
M  V30 3339 C 319.928 -2.22858 3.65402 0
M  V30 3340 C 319.254 -3.59619 3.957 0
M  V30 3341 C 320.554 -1.65123 4.95511 0
M  V30 3342 H 322.248 -0.678673 2.91607 0
M  V30 3343 H 319.794 -0.325013 1.40284 0
M  V30 3344 H 321.747 -3.11437 2.83874 0
M  V30 3345 H 320.471 -2.83083 1.62885 0
M  V30 3346 H 319.13 -1.54045 3.32664 0
M  V30 3347 H 318.778 -4.00086 3.04861 0
M  V30 3348 H 318.478 -3.48866 4.72828 0
M  V30 3349 H 320.002 -4.32306 4.31212 0
M  V30 3350 H 321.416 -2.26241 5.26771 0
M  V30 3351 H 319.813 -1.65071 5.7695 0
M  V30 3352 H 320.883 -0.612559 4.81015 0
M  V30 3353 N 322.226 -1.5378 -0.344866 0
M  V30 3354 C 323.503 -1.61589 -1.10219 0
M  V30 3355 C 323.883 -0.436316 -2.06542 0
M  V30 3356 O 323.231 0.571543 -2.21237 0
M  V30 3357 C 323.441 -2.97602 -1.82301 0
M  V30 3358 C 324.789 -3.5291 -2.36093 0
M  V30 3359 O 325.813 -2.99768 -1.924 0
M  V30 3360 O 324.672 -4.45859 -3.16026 0
M  V30 3361 H 321.766 -0.653522 -0.506792 0
M  V30 3362 H 324.312 -1.66126 -0.346465 0
M  V30 3363 H 323.084 -3.74893 -1.12121 0
M  V30 3364 H 322.707 -2.9665 -2.64735 0
M  V30 3365 N 323.704 0.605807 -1.45491 0
M  V30 3366 C 324.929 1.39625 -1.53361 0
M  V30 3367 C 325.354 1.87351 -0.167645 0
M  V30 3368 O 324.712 1.60243 0.848051 0
M  V30 3369 C 324.76 2.57559 -2.5238 0
M  V30 3370 O 323.864 3.58248 -2.04285 0
M  V30 3371 H 323.205 0.416771 -0.516912 0
M  V30 3372 H 325.735 0.737103 -1.90861 0
M  V30 3373 H 325.745 3.0478 -2.71244 0
M  V30 3374 H 324.42 2.22171 -3.51586 0
M  V30 3375 H 322.997 3.17664 -1.95305 0
M  V30 3376 N 325.182 1.32811 0.848464 0
M  V30 3377 C 326.407 1.26882 1.6406 0
M  V30 3378 C 326.832 -0.15913 1.87426 0
M  V30 3379 O 326.19 -1.11258 1.43148 0
M  V30 3380 C 326.238 2.03997 2.97351 0
M  V30 3381 O 325.342 1.39201 3.88197 0
M  V30 3382 H 324.683 0.436982 0.499943 0
M  V30 3383 H 327.213 1.75224 1.0563 0
M  V30 3384 H 327.223 2.14403 3.47124 0
M  V30 3385 H 325.898 3.0783 2.79666 0
M  V30 3386 H 324.475 1.37381 3.46671 0
M  V30 3387 N 326.66 -1.06551 1.16123 0
M  V30 3388 C 327.61 -2.12209 0.833736 0
M  V30 3389 C 328.594 -1.59825 -0.185656 0
M  V30 3390 O 329.786 -1.76994 0.0147906 0
M  V30 3391 C 326.915 -3.41674 0.333697 0
M  V30 3392 C 326.001 -4.00892 1.38372 0
M  V30 3393 N 326.392 -4.34256 2.59337 0
M  V30 3394 C 324.69 -4.28463 1.23836 0
M  V30 3395 C 325.391 -4.81291 3.26701 0
M  V30 3396 N 324.367 -4.80565 2.54083 0
M  V30 3397 H 328.169 -2.35849 1.75364 0
M  V30 3398 H 325.683 -1.24068 1.04789 0
M  V30 3399 H 327.68 -4.16822 0.0806918 0
M  V30 3400 H 326.34 -3.19475 -0.58017 0
M  V30 3401 H 327.351 -4.24687 2.96415 0
M  V30 3402 H 324.028 -4.15721 0.38504 0
M  V30 3403 H 325.418 -5.16332 4.29943 0
M  V30 3404 N 328.138 -0.959301 -1.25041 0
M  V30 3405 C 329.363 -0.633507 -1.97488 0
M  V30 3406 C 329.788 0.788555 -1.70773 0
M  V30 3407 O 329.146 1.53394 -0.966431 0
M  V30 3408 C 329.194 -0.904057 -3.49083 0
M  V30 3409 O 328.298 0.0147939 -4.12397 0
M  V30 3410 H 327.639 -0.240368 -0.618966 0
M  V30 3411 H 330.169 -1.28717 -1.59038 0
M  V30 3412 H 330.179 -0.832203 -3.99423 0
M  V30 3413 H 328.854 -1.94048 -3.67856 0
M  V30 3414 H 327.431 -0.109664 -3.72739 0
M  V30 3415 N 329.616 1.39756 -0.72842 0
M  V30 3416 C 330.526 2.34444 -0.0855374 0
M  V30 3417 C 331.542 1.57976 0.729356 0
M  V30 3418 O 332.718 1.90301 0.659346 0
M  V30 3419 C 329.783 3.36965 0.815798 0
M  V30 3420 C 328.844 4.29299 -0.0105996 0
M  V30 3421 C 328.077 5.26923 0.84781 0
M  V30 3422 O 328.3 5.30859 2.08673 0
M  V30 3423 O 327.234 6.01249 0.279969 0
M  V30 3424 H 331.06 2.91065 -0.866892 0
M  V30 3425 H 328.645 1.4117 -0.48902 0
M  V30 3426 H 330.527 3.99804 1.33171 0
M  V30 3427 H 329.202 2.82739 1.57608 0
M  V30 3428 H 328.109 3.69703 -0.571877 0
M  V30 3429 H 329.442 4.86712 -0.73295 0
M  V30 3430 N 331.094 0.475555 1.50254 0
M  V30 3431 C 332.024 -0.30611 2.31485 0
M  V30 3432 C 333.005 -0.986228 1.38591 0
M  V30 3433 O 334.19 -0.982541 1.67511 0
M  V30 3434 C 331.32 -1.38588 3.1845 0
M  V30 3435 C 330.274 -0.827115 4.19932 0
M  V30 3436 C 329.6 -2.00551 4.95665 0
M  V30 3437 C 330.9 0.16463 5.2204 0
M  V30 3438 H 332.594 0.371866 2.97082 0
M  V30 3439 H 330.14 0.180282 1.42867 0
M  V30 3440 H 332.093 -1.94023 3.74076 0
M  V30 3441 H 330.817 -2.09269 2.50747 0
M  V30 3442 H 329.476 -0.294702 3.65414 0
M  V30 3443 H 329.124 -2.6994 4.2443 0
M  V30 3444 H 328.824 -1.63784 5.64313 0
M  V30 3445 H 330.348 -2.56468 5.54127 0
M  V30 3446 H 331.762 -0.300699 5.72511 0
M  V30 3447 H 330.159 0.446813 5.98434 0
M  V30 3448 H 331.229 1.08905 4.72512 0
M  V30 3449 N 332.573 -1.56217 0.208337 0
M  V30 3450 C 333.52 -2.19699 -0.707192 0
M  V30 3451 C 334.49 -1.14836 -1.20008 0
M  V30 3452 O 335.675 -1.4314 -1.26157 0
M  V30 3453 C 332.815 -2.87061 -1.91546 0
M  V30 3454 C 331.928 -4.06483 -1.46271 0
M  V30 3455 C 331.063 -4.61665 -2.62752 0
M  V30 3456 C 330.102 -5.73417 -2.14147 0
M  V30 3457 N 329.239 -6.22948 -3.23853 0
M  V30 3458 H 334.079 -2.97575 -0.159111 0
M  V30 3459 H 331.616 -1.46948 -0.0667874 0
M  V30 3460 H 333.574 -3.24294 -2.62468 0
M  V30 3461 H 332.204 -2.11725 -2.43664 0
M  V30 3462 H 331.256 -3.74825 -0.648886 0
M  V30 3463 H 332.568 -4.87271 -1.06622 0
M  V30 3464 H 331.722 -5.01272 -3.41776 0
M  V30 3465 H 330.461 -3.80013 -3.05682 0
M  V30 3466 H 329.466 -5.33326 -1.33581 0
M  V30 3467 H 330.691 -6.56897 -1.72232 0
M  V30 3468 H 328.637 -5.44213 -3.6629 0
M  V30 3469 H 328.554 -6.98823 -2.88414 0
M  V30 3470 H 329.822 -6.6721 -4.03052 0
M  V30 3471 N 334.051 0.0651679 -1.57465 0
M  V30 3472 C 335.291 0.768329 -1.8941 0
M  V30 3473 C 335.655 1.74406 -0.802894 0
M  V30 3474 O 336.856 2.49281 -1.0056 0
M  V30 3475 C 335.127 1.45199 -3.26576 0
M  V30 3476 S 336.686 2.1893 -3.80283 0
M  V30 3477 H 333.504 0.255359 -0.663561 0
M  V30 3478 H 336.106 0.024167 -1.95485 0
M  V30 3479 H 334.81 0.728123 -4.03889 0
M  V30 3480 H 334.341 2.23545 -3.23715 0
M  V30 3481 H 336.356 3.45551 -3.56102 0
M  V30 3482 N 335.529 1.53961 0.336706 0
M  V30 3483 C 336.806 1.62171 1.09361 0
M  V30 3484 C 337.186 0.447263 2.06307 0
M  V30 3485 O 336.534 -0.559802 2.21537 0
M  V30 3486 C 336.744 2.98565 1.80721 0
M  V30 3487 C 338.092 3.54157 2.34218 0
M  V30 3488 O 339.116 3.00784 1.90807 0
M  V30 3489 O 337.975 4.47528 3.13657 0
M  V30 3490 H 335.069 0.6562 0.503319 0
M  V30 3491 H 337.615 1.66307 0.33765 0
M  V30 3492 H 336.387 3.75482 1.10132 0
M  V30 3493 H 336.01 2.9805 2.63158 0
M  V30 3494 N 337.007 -0.598083 1.45811 0
M  V30 3495 C 338.256 -1.35295 1.49594 0
M  V30 3496 C 338.569 -1.95057 0.145679 0
M  V30 3497 O 339.775 -2.71431 0.0612099 0
M  V30 3498 C 338.231 -2.45124 2.63519 0
M  V30 3499 C 337.839 -1.91732 4.04899 0
M  V30 3500 C 339.583 -3.2205 2.76558 0
M  V30 3501 C 337.49 -2.991 5.1019 0
M  V30 3502 H 336.42 -0.508552 0.556679 0
M  V30 3503 H 339.071 -0.639977 1.71978 0
M  V30 3504 H 337.453 -3.19149 2.34435 0
M  V30 3505 H 338.627 -1.24352 4.43704 0
M  V30 3506 H 336.942 -1.27522 3.96393 0
M  V30 3507 H 339.539 -4.0215 3.52391 0
M  V30 3508 H 339.882 -3.73663 1.83526 0
M  V30 3509 H 340.415 -2.55127 3.05213 0
M  V30 3510 H 337.154 -2.52393 6.04961 0
M  V30 3511 H 336.674 -3.65017 4.75944 0
M  V30 3512 H 338.353 -3.63318 5.35359 0
M  V30 3513 N 338.485 -1.33259 -0.841409 0
M  V30 3514 C 339.71 -1.2775 -1.63385 0
M  V30 3515 C 340.135 0.149188 -1.87507 0
M  V30 3516 O 339.493 1.10498 -1.43736 0
M  V30 3517 C 339.541 -2.05571 -2.96265 0
M  V30 3518 O 338.645 -1.41257 -3.87453 0
M  V30 3519 H 337.986 -0.439627 -0.497618 0
M  V30 3520 H 340.516 -1.75782 -1.04699 0
M  V30 3521 H 340.526 -2.16241 -3.45982 0
M  V30 3522 H 339.201 -3.09309 -2.7803 0
M  V30 3523 H 337.778 -1.39217 -3.45938 0
M  V30 3524 N 339.963 1.05934 -1.16686 0
M  V30 3525 C 340.926 2.11669 -0.879144 0
M  V30 3526 C 341.926 1.60294 0.127445 0
M  V30 3527 O 343.116 1.7389 -0.103865 0
M  V30 3528 C 340.248 3.39438 -0.315425 0
M  V30 3529 H 341.441 2.38626 -1.81653 0
M  V30 3530 H 338.994 1.22058 -0.976299 0
M  V30 3531 H 339.729 3.18132 0.629468 0
M  V30 3532 H 339.514 3.78034 -1.04079 0
M  V30 3533 H 341.004 4.17391 -0.132189 0
M  V30 3534 N 341.441 0.965919 1.2453 0
M  V30 3535 C 342.351 0.502154 2.29163 0
M  V30 3536 C 343.367 -0.436017 1.68448 0
M  V30 3537 O 344.543 -0.309497 1.99008 0
M  V30 3538 C 341.608 -0.201956 3.46111 0
M  V30 3539 C 340.669 0.775821 4.22232 0
M  V30 3540 C 339.902 0.105217 5.33596 0
M  V30 3541 O 340.125 -1.10683 5.59558 0
M  V30 3542 O 339.059 0.796475 5.96607 0
M  V30 3543 H 342.885 1.37194 2.70946 0
M  V30 3544 H 340.47 0.732875 1.30189 0
M  V30 3545 H 342.352 -0.597564 4.17142 0
M  V30 3546 H 341.027 -1.04673 3.06309 0
M  V30 3547 H 339.934 1.22185 3.53584 0
M  V30 3548 H 341.267 1.58896 4.65846 0
M  V30 3549 N 342.919 -1.39368 0.735821 0
M  V30 3550 C 344.168 -1.99733 0.281004 0
M  V30 3551 C 344.481 -1.59055 -1.13846 0
M  V30 3552 O 345.687 -2.12262 -1.69284 0
M  V30 3553 C 344.143 -3.57057 0.451462 0
M  V30 3554 C 343.751 -4.06697 1.87886 0
M  V30 3555 C 345.495 -4.2446 0.0584616 0
M  V30 3556 C 343.402 -5.56598 1.99883 0
M  V30 3557 H 342.332 -0.747163 0.101311 0
M  V30 3558 H 344.983 -1.59357 0.909819 0
M  V30 3559 H 343.365 -3.95234 -0.246263 0
M  V30 3560 H 344.539 -3.79853 2.60861 0
M  V30 3561 H 342.854 -3.5196 2.22515 0
M  V30 3562 H 345.451 -5.34549 0.127099 0
M  V30 3563 H 345.794 -4.04444 -0.986433 0
M  V30 3564 H 346.327 -3.9146 0.707374 0
M  V30 3565 H 343.066 -5.81494 3.02564 0
M  V30 3566 H 342.586 -5.85242 1.31346 0
M  V30 3567 H 344.265 -6.22022 1.78039 0
M  V30 3568 N 344.397 -0.483516 -1.5 0
M  V30 3569 C 345.329 0.340634 -2.26655 0
M  V30 3570 C 346.342 0.946152 -1.32483 0
M  V30 3571 O 347.531 0.832453 -1.579 0
M  V30 3572 C 344.631 1.4929 -3.04246 0
M  V30 3573 C 343.804 0.997903 -4.25865 0
M  V30 3574 C 342.863 2.02569 -4.85646 0
M  V30 3575 O 341.889 1.60128 -5.46212 0
M  V30 3576 N 343.091 3.3548 -4.73744 0
M  V30 3577 H 345.856 -0.316577 -2.98023 0
M  V30 3578 H 343.417 -0.315024 -1.58806 0
M  V30 3579 H 345.409 2.17766 -3.41116 0
M  V30 3580 H 343.979 2.05458 -2.35597 0
M  V30 3581 H 343.199 0.138617 -3.93956 0
M  V30 3582 H 344.487 0.645305 -5.04691 0
M  V30 3583 H 343.885 3.72661 -4.25605 0
M  V30 3584 H 342.442 3.99718 -5.14848 0
M  V30 3585 N 345.875 1.56104 -0.216619 0
M  V30 3586 C 346.807 2.17339 0.72776 0
M  V30 3587 C 347.82 1.14109 1.16116 0
M  V30 3588 O 349.009 1.4111 1.09317 0
M  V30 3589 C 346.109 2.73818 1.99693 0
M  V30 3590 C 345.282 4.02168 1.71988 0
M  V30 3591 C 344.341 4.43259 2.83562 0
M  V30 3592 O 343.367 5.10257 2.52244 0
M  V30 3593 N 344.569 4.08535 4.12407 0
M  V30 3594 H 347.334 2.99005 0.203983 0
M  V30 3595 H 344.895 1.61861 -0.0354289 0
M  V30 3596 H 346.887 2.9828 2.73516 0
M  V30 3597 H 345.457 1.96483 2.43132 0
M  V30 3598 H 344.677 3.85612 0.818337 0
M  V30 3599 H 345.965 4.85907 1.50903 0
M  V30 3600 H 345.363 3.54687 4.40696 0
M  V30 3601 H 343.92 4.37901 4.8279 0
M  V30 3602 N 347.353 -0.0568162 1.57498 0
M  V30 3603 C 348.769 -0.411933 1.54192 0
M  V30 3604 C 348.969 -1.78287 0.938942 0
M  V30 3605 O 348.025 -2.46483 0.547919 0
M  V30 3606 C 349.338 -0.339244 2.9878 0
M  V30 3607 C 350.886 -0.418348 3.10192 0
M  V30 3608 C 351.361 -0.375407 4.56459 0
M  V30 3609 N 352.852 -0.435038 4.61153 0
M  V30 3610 C 353.587 -0.424265 5.71828 0
M  V30 3611 N 353.083 -0.367418 6.91825 0
M  V30 3612 N 354.876 -0.471938 5.60115 0
M  V30 3613 H 347.027 0.840684 1.95055 0
M  V30 3614 H 349.29 0.316987 0.893433 0
M  V30 3615 H 348.996 0.601742 3.46514 0
M  V30 3616 H 348.87 -1.14371 3.59443 0
M  V30 3617 H 351.257 -1.34976 2.62422 0
M  V30 3618 H 351.338 0.414962 2.52412 0
M  V30 3619 H 350.982 0.552219 5.04889 0
M  V30 3620 H 350.912 -1.22645 5.12119 0
M  V30 3621 H 353.403 -0.482612 3.74806 0
M  V30 3622 H 353.716 -0.363535 7.71944 0
M  V30 3623 H 352.061 -0.333879 6.94198 0
M  V30 3624 H 355.252 -0.514145 4.65268 0
M  V30 3625 H 355.425 -0.460073 6.46365 0
M  V30 3626 N 348.832 -1.54138 -0.328536 0
M  V30 3627 C 349.764 -1.79509 -1.4251 0
M  V30 3628 C 350.777 -0.67688 -1.48061 0
M  V30 3629 O 351.966 -0.953898 -1.50874 0
M  V30 3630 C 349.066 -1.89337 -2.81078 0
M  V30 3631 C 348.239 -3.19443 -2.98789 0
M  V30 3632 C 347.298 -3.20036 -4.17688 0
M  V30 3633 O 346.324 -3.93697 -4.11086 0
M  V30 3634 N 347.526 -2.43467 -5.26976 0
M  V30 3635 H 350.291 -2.74139 -1.21111 0
M  V30 3636 H 347.852 -1.53373 -0.518499 0
M  V30 3637 H 349.844 -1.87167 -3.58818 0
M  V30 3638 H 348.414 -1.01826 -2.95551 0
M  V30 3639 H 347.634 -3.34614 -2.08391 0
M  V30 3640 H 348.922 -4.05354 -3.07515 0
M  V30 3641 H 348.32 -1.83201 -5.35214 0
M  V30 3642 H 346.877 -2.4708 -6.03154 0
M  V30 3643 N 350.31 0.590341 -1.46126 0
M  V30 3644 C 351.22 1.72793 -1.58681 0
M  V30 3645 C 352.236 1.67516 -0.470566 0
M  V30 3646 O 353.412 1.87562 -0.733642 0
M  V30 3647 C 350.477 3.09287 -1.5666 0
M  V30 3648 C 349.538 3.25886 -2.79458 0
M  V30 3649 C 348.771 4.55869 -2.77524 0
M  V30 3650 O 348.994 5.3928 -1.85832 0
M  V30 3651 O 347.928 4.75552 -3.68964 0
M  V30 3652 H 351.754 1.65149 -2.54872 0
M  V30 3653 H 349.339 0.756486 -1.28832 0
M  V30 3654 H 351.221 3.90577 -1.58202 0
M  V30 3655 H 349.896 3.17385 -0.636271 0
M  V30 3656 H 348.803 2.44119 -2.83472 0
M  V30 3657 H 350.136 3.22675 -3.71674 0
M  V30 3658 N 351.788 1.33704 0.83433 0
M  V30 3659 C 352.698 1.26382 1.97648 0
M  V30 3660 C 353.714 0.173548 1.73132 0
M  V30 3661 O 354.89 0.397962 1.97429 0
M  V30 3662 C 351.955 1.00769 3.31733 0
M  V30 3663 C 351.016 2.1884 3.69334 0
M  V30 3664 C 350.249 1.9444 4.9702 0
M  V30 3665 O 350.472 0.896961 5.63303 0
M  V30 3666 O 349.406 2.81093 5.32231 0
M  V30 3667 H 353.232 2.22444 2.06767 0
M  V30 3668 H 350.817 1.13795 0.968037 0
M  V30 3669 H 352.699 0.882186 4.12062 0
M  V30 3670 H 351.374 0.0773783 3.23608 0
M  V30 3671 H 350.281 2.36946 2.89495 0
M  V30 3672 H 351.614 3.10221 3.82131 0
M  V30 3673 N 353.266 -1.05314 1.17247 0
M  V30 3674 C 354.196 -2.1498 0.911362 0
M  V30 3675 C 355.177 -1.69471 -0.146169 0
M  V30 3676 O 356.362 -1.942 0.003812 0
M  V30 3677 C 353.492 -3.4472 0.422528 0
M  V30 3678 C 352.446 -4.03789 1.4191 0
M  V30 3679 C 351.772 -5.28858 0.788274 0
M  V30 3680 C 353.072 -4.41418 2.7919 0
M  V30 3681 H 354.766 -2.3708 1.82848 0
M  V30 3682 H 352.312 -1.13938 0.880569 0
M  V30 3683 H 354.265 -4.20787 0.227289 0
M  V30 3684 H 352.989 -3.22269 -0.530123 0
M  V30 3685 H 351.648 -3.2979 1.60106 0
M  V30 3686 H 351.296 -5.02709 -0.171173 0
M  V30 3687 H 350.996 -5.69338 1.45353 0
M  V30 3688 H 352.52 -6.07612 0.603282 0
M  V30 3689 H 353.934 -5.08524 2.64719 0
M  V30 3690 H 352.331 -4.92913 3.42282 0
M  V30 3691 H 353.401 -3.51819 3.33693 0
M  V30 3692 N 354.744 -0.972509 -1.24016 0
M  V30 3693 C 356.021 -0.553733 -1.87598 0
M  V30 3694 C 356.401 0.969158 -1.87538 0
M  V30 3695 O 355.749 1.84255 -1.35139 0
M  V30 3696 C 355.959 -1.15076 -3.29482 0
M  V30 3697 C 357.307 -1.23862 -4.06132 0
M  V30 3698 O 358.331 -1.10363 -3.38672 0
M  V30 3699 O 357.19 -1.45252 -5.26844 0
M  V30 3700 H 354.284 -0.185331 -0.805966 0
M  V30 3701 H 356.83 -1.06709 -1.31952 0
M  V30 3702 H 355.602 -2.19333 -3.2405 0
M  V30 3703 H 355.225 -0.621746 -3.92709 0
M  V30 3704 N 356.222 1.38976 -0.743202 0
M  V30 3705 C 357.185 2.28901 -0.117014 0
M  V30 3706 C 358.185 1.46698 0.658503 0
M  V30 3707 O 359.375 1.67274 0.486305 0
M  V30 3708 C 356.507 3.30309 0.84315 0
M  V30 3709 H 357.7 2.8578 -0.909373 0
M  V30 3710 H 355.253 1.47761 -0.509547 0
M  V30 3711 H 355.988 2.785 1.66157 0
M  V30 3712 H 355.773 3.91029 0.289594 0
M  V30 3713 H 357.263 3.97577 1.2776 0
M  V30 3714 N 357.7 0.491464 1.49741 0
M  V30 3715 C 358.633 -0.338464 2.25676 0
M  V30 3716 C 359.611 -0.978676 1.29849 0
M  V30 3717 O 360.795 -1.01064 1.59117 0
M  V30 3718 C 357.922 -1.47588 3.04853 0
M  V30 3719 C 356.968 -0.951 4.15762 0
M  V30 3720 S 357.801 0.150626 5.35288 0
M  V30 3721 C 358.957 -0.990178 6.18018 0
M  V30 3722 H 359.19 0.306068 2.9572 0
M  V30 3723 H 356.723 0.276622 1.51902 0
M  V30 3724 H 358.681 -2.12764 3.51058 0
M  V30 3725 H 357.342 -2.09199 2.34296 0
M  V30 3726 H 356.535 -1.80311 4.70642 0
M  V30 3727 H 356.137 -0.376607 3.72099 0
M  V30 3728 H 358.429 -1.89748 6.50386 0
M  V30 3729 H 359.372 -0.480205 7.0647 0
M  V30 3730 H 359.78 -1.25321 5.50413 0
M  V30 3731 N 359.178 -1.55987 0.224894 0
M  V30 3732 C 360.406 -2.02784 -0.410665 0
M  V30 3733 C 360.821 -1.10464 -1.53112 0
M  V30 3734 O 360.178 -0.114871 -1.82138 0
M  V30 3735 C 360.229 -3.49087 -0.939165 0
M  V30 3736 O 359.95 -4.37887 0.136614 0
M  V30 3737 C 361.451 -4.11543 -1.64763 0
M  V30 3738 H 358.671 -0.663484 -0.100148 0
M  V30 3739 H 361.215 -2.01614 0.342326 0
M  V30 3740 H 359.37 -3.50861 -1.64242 0
M  V30 3741 H 359.784 -5.23849 -0.261155 0
M  V30 3742 H 361.258 -5.15673 -1.96939 0
M  V30 3743 H 361.735 -3.56736 -2.56195 0
M  V30 3744 H 362.341 -4.13629 -0.989503 0
M  V30 3745 N 360.656 0.0484629 -1.57525 0
M  V30 3746 C 361.588 1.08222 -2.02041 0
M  V30 3747 C 362.601 1.33621 -0.930012 0
M  V30 3748 O 363.79 1.3145 -1.20761 0
M  V30 3749 C 360.89 2.42818 -2.36416 0
M  V30 3750 C 360.063 2.37049 -3.67596 0
M  V30 3751 C 359.122 3.53937 -3.89378 0
M  V30 3752 O 358.148 3.34308 -4.60681 0
M  V30 3753 N 359.35 4.75126 -3.3352 0
M  V30 3754 H 362.115 0.702946 -2.9134 0
M  V30 3755 H 359.676 0.236745 -1.6016 0
M  V30 3756 H 361.668 3.197 -2.48141 0
M  V30 3757 H 360.238 2.72661 -1.52888 0
M  V30 3758 H 359.458 1.45395 -3.66407 0
M  V30 3759 H 360.746 2.30318 -4.53686 0
M  V30 3760 H 360.144 4.93976 -2.75688 0
M  V30 3761 H 358.701 5.49439 -3.50656 0
M  V30 3762 N 362.134 1.5431 0.320358 0
M  V30 3763 C 363.097 1.83195 1.3774 0
M  V30 3764 C 364.097 0.703906 1.44575 0
M  V30 3765 O 365.287 0.972214 1.44546 0
M  V30 3766 C 362.419 1.99487 2.76438 0
M  V30 3767 H 363.612 2.77642 1.1338 0
M  V30 3768 H 361.165 1.46076 0.556012 0
M  V30 3769 H 361.9 1.07262 3.06048 0
M  V30 3770 H 361.685 2.81575 2.7287 0
M  V30 3771 H 363.175 2.23271 3.52902 0
M  V30 3772 N 363.613 -0.582584 1.46437 0
M  V30 3773 C 364.543 -1.70187 1.59871 0
M  V30 3774 C 365.524 -1.64066 0.449042 0
M  V30 3775 O 366.709 -1.82081 0.6753 0
M  V30 3776 C 363.839 -3.08827 1.58881 0
M  V30 3777 C 362.793 -3.29779 2.72819 0
M  V30 3778 C 362.119 -4.68947 2.5689 0
M  V30 3779 C 363.419 -3.17601 4.1464 0
M  V30 3780 H 365.113 -1.592 2.53566 0
M  V30 3781 H 362.659 -0.764472 1.22032 0
M  V30 3782 H 364.612 -3.86951 1.66873 0
M  V30 3783 H 363.336 -3.20713 0.617306 0
M  V30 3784 H 361.995 -2.54054 2.64296 0
M  V30 3785 H 361.643 -4.77599 1.57823 0
M  V30 3786 H 361.343 -4.83919 3.33312 0
M  V30 3787 H 362.867 -5.4924 2.66773 0
M  V30 3788 H 364.281 -3.8557 4.24274 0
M  V30 3789 H 362.678 -3.44094 4.9165 0
M  V30 3790 H 363.748 -2.14681 4.34788 0
M  V30 3791 N 365.091 -1.34144 -0.827227 0
M  V30 3792 C 366.023 -1.21206 -1.9453 0
M  V30 3793 C 367.036 -0.140176 -1.62195 0
M  V30 3794 O 368.225 -0.391647 -1.7415 0
M  V30 3795 C 365.325 -0.839141 -3.28347 0
M  V30 3796 C 364.498 -2.0051 -3.88734 0
M  V30 3797 C 363.557 -1.61128 -5.00923 0
M  V30 3798 O 362.583 -2.32726 -5.19449 0
M  V30 3799 N 363.785 -0.522958 -5.7814 0
M  V30 3800 H 366.55 -2.17525 -2.06162 0
M  V30 3801 H 364.111 -1.27043 -1.00358 0
M  V30 3802 H 366.103 -0.557556 -4.00841 0
M  V30 3803 H 364.673 0.0337293 -3.12582 0
M  V30 3804 H 363.893 -2.45166 -3.08686 0
M  V30 3805 H 365.181 -2.78498 -4.25812 0
M  V30 3806 H 364.579 0.0723518 -5.65654 0
M  V30 3807 H 363.136 -0.301089 -6.51104 0
M  V30 3808 N 366.569 1.04691 -1.17803 0
M  V30 3809 C 367.479 2.16057 -0.914151 0
M  V30 3810 C 368.495 1.73589 0.119503 0
M  V30 3811 O 369.671 2.01308 -0.0609468 0
M  V30 3812 C 366.736 3.4394 -0.436603 0
M  V30 3813 C 365.797 4.00825 -1.53746 0
M  V30 3814 C 365.03 5.22604 -1.0826 0
M  V30 3815 O 365.253 5.70367 0.0612244 0
M  V30 3816 O 364.187 5.7186 -1.87775 0
M  V30 3817 H 368.013 2.41169 -1.84584 0
M  V30 3818 H 365.598 1.1453 -0.959334 0
M  V30 3819 H 367.48 4.21024 -0.178057 0
M  V30 3820 H 366.155 3.20316 0.466869 0
M  V30 3821 H 365.062 3.25158 -1.84995 0
M  V30 3822 H 366.395 4.28778 -2.41683 0
M  V30 3823 N 368.047 0.979072 1.23499 0
M  V30 3824 C 368.979 0.476271 2.24197 0
M  V30 3825 C 369.992 -0.421166 1.57258 0
M  V30 3826 O 371.181 -0.225515 1.7707 0
M  V30 3827 C 368.281 -0.330503 3.37285 0
M  V30 3828 C 367.454 0.559744 4.33804 0
M  V30 3829 C 366.513 -0.192954 5.25846 0
M  V30 3830 O 365.539 0.416978 5.67671 0
M  V30 3831 N 366.741 -1.47932 5.61334 0
M  V30 3832 H 369.506 1.34211 2.67969 0
M  V30 3833 H 367.067 0.852189 1.37657 0
M  V30 3834 H 369.059 -0.842361 3.95836 0
M  V30 3835 H 367.629 -1.09734 2.92707 0
M  V30 3836 H 366.849 1.25245 3.73775 0
M  V30 3837 H 368.137 1.1665 4.95248 0
M  V30 3838 H 367.535 -1.9964 5.29302 0
M  V30 3839 H 366.092 -1.93664 6.22364 0
M  V30 3840 N 369.525 -1.3858 0.750561 0
M  V30 3841 C 370.802 -1.94231 0.231009 0
M  V30 3842 C 371.182 -1.68611 -1.27018 0
M  V30 3843 O 370.53 -1.02296 -2.04323 0
M  V30 3844 C 370.74 -3.44123 0.581428 0
M  V30 3845 C 372.088 -4.2116 0.539389 0
M  V30 3846 O 373.112 -3.52391 0.519541 0
M  V30 3847 O 371.971 -5.43749 0.54765 0
M  V30 3848 H 369.065 -0.825639 0.0474263 0
M  V30 3849 H 371.611 -1.4799 0.830478 0
M  V30 3850 H 370.383 -3.56267 1.61833 0
M  V30 3851 H 370.006 -3.97573 -0.0462047 0
M  V30 3852 N 371.003 -0.499398 -1.49478 0
M  V30 3853 C 372.228 0.044722 -2.07352 0
M  V30 3854 C 372.653 1.30207 -1.35749 0
M  V30 3855 O 372.011 1.76516 -0.413732 0
M  V30 3856 C 372.059 0.283013 -3.59488 0
M  V30 3857 O 371.163 1.35804 -3.89398 0
M  V30 3858 H 370.504 -0.0255147 -0.66351 0
M  V30 3859 H 373.034 -0.698561 -1.92305 0
M  V30 3860 H 373.044 0.515007 -4.04737 0
M  V30 3861 H 371.719 -0.635636 -4.11014 0
M  V30 3862 H 370.296 1.11113 -3.55961 0
M  V30 3863 N 372.481 1.55866 -0.233164 0
M  V30 3864 C 373.444 2.1953 0.658715 0
M  V30 3865 C 374.444 1.16053 1.11303 0
M  V30 3866 O 375.634 1.41218 1.01996 0
M  V30 3867 C 372.766 2.82791 1.90373 0
M  V30 3868 H 373.959 2.99721 0.10347 0
M  V30 3869 H 371.512 1.56291 0.0164245 0
M  V30 3870 H 372.247 2.06501 2.50056 0
M  V30 3871 H 372.032 3.58578 1.58632 0
M  V30 3872 H 373.522 3.31556 2.53891 0
M  V30 3873 N 373.959 -0.0401083 1.57549 0
M  V30 3874 C 375.206 -0.733125 1.88763 0
M  V30 3875 C 375.534 -1.75946 0.829058 0
M  V30 3876 O 374.789 -1.94949 -0.171323 0
M  V30 3877 C 375.088 -1.44902 3.26708 0
M  V30 3878 C 374.754 -0.559707 4.47413 0
M  V30 3879 C 373.416 -0.314731 4.8017 0
M  V30 3880 C 375.768 0.0549743 5.21171 0
M  V30 3881 C 373.096 0.553886 5.8408 0
M  V30 3882 C 375.448 0.911229 6.26003 0
M  V30 3883 C 374.112 1.16577 6.57241 0
M  V30 3884 H 373.382 -0.268269 0.690733 0
M  V30 3885 H 376.029 0.00679408 1.91499 0
M  V30 3886 H 374.334 -2.26197 3.1991 0
M  V30 3887 H 376.031 -1.99058 3.48105 0
M  V30 3888 H 372.621 -0.760793 4.21794 0
M  V30 3889 H 376.805 -0.121344 4.96152 0
M  V30 3890 H 372.061 0.759518 6.06664 0
M  V30 3891 H 376.235 1.3941 6.82303 0
M  V30 3892 H 373.862 1.84058 7.37582 0
M  V30 3893 N 375.437 -1.54477 -0.31217 0
M  V30 3894 C 376.685 -1.72884 -1.04668 0
M  V30 3895 C 377.006 -0.511477 -1.88173 0
M  V30 3896 O 376.276 0.474407 -1.90069 0
M  V30 3897 H 374.856 -0.637461 -0.389425 0
M  V30 3898 H 377.518 -1.91807 -0.345852 0
M  V30 3899 H 376.614 -2.61334 -1.70619 0
M  V30 3900 N 376.915 0.57481 -1.46744 0
M  V30 3901 C 377.878 1.66533 -1.57478 0
M  V30 3902 C 378.878 1.54338 -0.451263 0
M  V30 3903 O 380.068 1.58814 -0.715813 0
M  V30 3904 C 377.2 3.05999 -1.50259 0
M  V30 3905 H 378.393 1.58372 -2.54673 0
M  V30 3906 H 375.946 0.793301 -1.34672 0
M  V30 3907 H 376.681 3.19709 -0.543725 0
M  V30 3908 H 376.466 3.16259 -2.31781 0
M  V30 3909 H 377.956 3.8537 -1.60872 0
M  V30 3910 N 378.394 1.34581 0.820102 0
M  V30 3911 C 379.64 1.27285 1.57881 0
M  V30 3912 C 379.973 -0.156137 1.93571 0
M  V30 3913 O 379.248 -1.10222 1.60254 0
M  V30 3914 C 379.531 2.16639 2.87645 0
M  V30 3915 C 379.384 3.68088 2.58517 0
M  V30 3916 C 380.703 2.05378 3.8924 0
M  V30 3917 H 377.822 0.463714 0.572833 0
M  V30 3918 H 380.464 1.64859 0.944539 0
M  V30 3919 H 378.614 1.84725 3.41773 0
M  V30 3920 H 380.286 4.10382 2.10676 0
M  V30 3921 H 378.529 3.89038 1.91917 0
M  V30 3922 H 379.2 4.2598 3.51063 0
M  V30 3923 H 381.676 2.33404 3.44473 0
M  V30 3924 H 380.552 2.7012 4.77835 0
M  V30 3925 H 380.813 1.0316 4.29896 0
M  V30 3926 N 379.872 -1.04064 1.18357 0
M  V30 3927 C 380.822 -2.10393 0.878561 0
M  V30 3928 C 381.806 -1.60183 -0.151713 0
M  V30 3929 O 382.998 -1.76923 0.0523303 0
M  V30 3930 C 380.127 -3.4089 0.406096 0
M  V30 3931 C 379.213 -3.97866 1.46844 0
M  V30 3932 N 379.604 -4.28657 2.68489 0
M  V30 3933 C 377.902 -4.2574 1.32896 0
M  V30 3934 C 378.603 -4.74253 3.36836 0
M  V30 3935 N 377.579 -4.75068 2.64219 0
M  V30 3936 H 381.381 -2.32076 1.80327 0
M  V30 3937 H 378.895 -1.21818 1.07397 0
M  V30 3938 H 380.892 -4.16557 0.169088 0
M  V30 3939 H 379.552 -3.20633 -0.512275 0
M  V30 3940 H 380.563 -4.18304 3.05356 0
M  V30 3941 H 377.24 -4.1481 0.473134 0
M  V30 3942 H 378.63 -5.07096 4.40798 0
M  V30 3943 N 381.35 -0.985608 -1.22978 0
M  V30 3944 C 382.313 -0.535071 -2.22867 0
M  V30 3945 C 383.313 0.378123 -1.56291 0
M  V30 3946 O 384.503 0.171092 -1.73358 0
M  V30 3947 C 381.635 0.222702 -3.40172 0
M  V30 3948 H 382.828 -1.41835 -2.6424 0
M  V30 3949 H 380.381 -0.772042 -1.35901 0
M  V30 3950 H 381.116 1.12229 -3.04262 0
M  V30 3951 H 380.901 -0.43288 -3.89703 0
M  V30 3952 H 382.391 0.526335 -4.1427 0
M  V30 3953 N 382.828 1.3818 -0.7579 0
M  V30 3954 C 383.76 2.2901 -0.0932177 0
M  V30 3955 C 384.773 1.47958 0.679136 0
M  V30 3956 O 385.962 1.70773 0.519514 0
M  V30 3957 C 383.062 3.26953 0.89192 0
M  V30 3958 C 382.235 4.37045 0.176303 0
M  V30 3959 C 381.294 5.15148 1.07281 0
M  V30 3960 O 380.32 5.66616 0.541728 0
M  V30 3961 N 381.522 5.28542 2.40049 0
M  V30 3962 H 384.287 2.86694 -0.873303 0
M  V30 3963 H 381.848 1.50007 -0.609054 0
M  V30 3964 H 383.84 3.76083 1.49479 0
M  V30 3965 H 382.41 2.70136 1.57306 0
M  V30 3966 H 381.63 3.89493 -0.607328 0
M  V30 3967 H 382.918 5.07801 -0.318718 0
M  V30 3968 H 382.316 4.88285 2.85647 0
M  V30 3969 H 380.873 5.8103 2.95376 0
M  V30 3970 N 384.306 0.507319 1.49211 0
M  V30 3971 C 385.239 -0.314509 2.26022 0
M  V30 3972 C 386.217 -0.964849 1.30879 0
M  V30 3973 O 387.401 -0.993707 1.6018 0
M  V30 3974 C 384.528 -1.44346 3.06402 0
M  V30 3975 C 383.574 -0.90685 4.16748 0
M  V30 3976 S 384.407 0.207392 5.35098 0
M  V30 3977 C 385.563 -0.924573 6.19033 0
M  V30 3978 H 385.796 0.337416 2.95379 0
M  V30 3979 H 383.329 0.292718 1.516 0
M  V30 3980 H 385.287 -2.09029 3.53295 0
M  V30 3981 H 383.948 -2.06702 2.36502 0
M  V30 3982 H 383.141 -1.75309 4.72528 0
M  V30 3983 H 382.743 -0.33712 3.72478 0
M  V30 3984 H 385.035 -1.82839 6.52362 0
M  V30 3985 H 385.978 -0.405248 7.06939 0
M  V30 3986 H 386.386 -1.19476 5.51712 0
M  V30 3987 N 385.784 -1.5574 0.241426 0
M  V30 3988 C 386.734 -2.17803 -0.674233 0
M  V30 3989 C 387.718 -1.13225 -1.14319 0
M  V30 3990 O 388.91 -1.39153 -1.09387 0
M  V30 3991 C 386.039 -2.87682 -1.87333 0
M  V30 3992 C 385.125 -3.99509 -1.42313 0
M  V30 3993 N 385.516 -5.01115 -0.686798 0
M  V30 3994 C 383.814 -4.11964 -1.70885 0
M  V30 3995 C 384.515 -5.79922 -0.454456 0
M  V30 3996 N 383.491 -5.34001 -1.01705 0
M  V30 3997 H 387.293 -2.93718 -0.103447 0
M  V30 3998 H 384.807 -1.62342 0.0435095 0
M  V30 3999 H 386.804 -3.3057 -2.54026 0
M  V30 4000 H 385.464 -2.13269 -2.4484 0
M  V30 4001 H 386.475 -5.16799 -0.337459 0
M  V30 4002 H 383.152 -3.48718 -2.2957 0
M  V30 4003 H 384.542 -6.71768 0.132992 0
M  V30 4004 N 387.262 0.0317525 -1.57568 0
M  V30 4005 C 388.225 1.01783 -2.0536 0
M  V30 4006 C 389.225 1.29203 -0.957253 0
M  V30 4007 O 390.415 1.24251 -1.22095 0
M  V30 4008 C 387.547 2.35137 -2.46827 0
M  V30 4009 H 388.74 0.605062 -2.93733 0
M  V30 4010 H 386.293 0.278514 -1.53799 0
M  V30 4011 H 387.028 2.81168 -1.61602 0
M  V30 4012 H 386.813 2.16566 -3.26866 0
M  V30 4013 H 388.303 3.05938 -2.84239 0
M  V30 4014 N 388.74 1.54641 0.303973 0
M  V30 4015 C 389.703 1.84646 1.35789 0
M  V30 4016 C 390.703 0.7192 1.4382 0
M  V30 4017 O 391.893 0.987491 1.43507 0
M  V30 4018 C 389.025 2.02407 2.74307 0
M  V30 4019 H 390.218 2.78829 1.10429 0
M  V30 4020 H 387.771 1.46658 0.540487 0
M  V30 4021 H 388.506 1.10502 3.04893 0
M  V30 4022 H 388.291 2.84453 2.69868 0
M  V30 4023 H 389.781 2.27002 3.50514 0
M  V30 4024 N 390.218 -0.567019 1.47046 0
M  V30 4025 C 391.464 -1.32658 1.53394 0
M  V30 4026 C 391.797 -1.93254 0.19148 0
M  V30 4027 O 391.072 -1.77338 -0.798844 0
M  V30 4028 C 391.355 -2.44412 2.64452 0
M  V30 4029 C 391.208 -1.88749 4.08282 0
M  V30 4030 C 392.527 -3.46387 2.71485 0
M  V30 4031 H 389.646 -0.48098 0.558415 0
M  V30 4032 H 392.288 -0.635481 1.79058 0
M  V30 4033 H 390.438 -3.03363 2.427 0
M  V30 4034 H 392.11 -1.34134 4.41368 0
M  V30 4035 H 390.353 -1.19481 4.17021 0
M  V30 4036 H 391.024 -2.69491 4.81745 0
M  V30 4037 H 393.5 -2.9734 2.91081 0
M  V30 4038 H 392.376 -4.2202 3.50985 0
M  V30 4039 H 392.637 -4.04616 1.78153 0
M  V30 4040 N 391.696 -1.35014 -0.812953 0
M  V30 4041 C 392.944 -1.27678 -1.56661 0
M  V30 4042 C 393.265 0.150359 -1.94419 0
M  V30 4043 O 392.535 1.08532 -1.63088 0
M  V30 4044 H 391.115 -0.469602 -0.580933 0
M  V30 4045 H 393.777 -1.69043 -0.970076 0
M  V30 4046 H 392.873 -1.88833 -2.48492 0
M  V30 4047 N 393.175 1.03435 -1.18907 0
M  V30 4048 C 394.107 2.1165 -0.879595 0
M  V30 4049 C 395.12 1.62316 0.125439 0
M  V30 4050 O 396.309 1.78201 -0.103245 0
M  V30 4051 C 393.409 3.37622 -0.294042 0
M  V30 4052 C 392.582 4.16166 -1.34629 0
M  V30 4053 C 391.641 5.20457 -0.775274 0
M  V30 4054 O 390.667 5.50379 -1.4516 0
M  V30 4055 N 391.869 5.78949 0.424126 0
M  V30 4056 H 394.634 2.38791 -1.81105 0
M  V30 4057 H 392.195 1.19681 -1.09032 0
M  V30 4058 H 394.187 4.04572 0.101679 0
M  V30 4059 H 392.757 3.07873 0.541575 0
M  V30 4060 H 391.977 3.44444 -1.91707 0
M  V30 4061 H 393.265 4.65432 -2.05549 0
M  V30 4062 H 392.663 5.56948 0.991209 0
M  V30 4063 H 391.22 6.47334 0.761691 0
M  V30 4064 N 394.653 0.992116 1.22453 0
M  V30 4065 C 395.583 0.561677 2.26644 0
M  V30 4066 C 396.564 -0.411055 1.65059 0
M  V30 4067 O 397.749 -0.301861 1.9184 0
M  V30 4068 C 394.879 -0.125247 3.47074 0
M  V30 4069 C 393.833 0.765948 4.21091 0
M  V30 4070 C 393.159 -0.0538484 5.34673 0
M  V30 4071 C 394.459 2.06242 4.79856 0
M  V30 4072 H 396.153 1.43259 2.62902 0
M  V30 4073 H 393.699 0.690283 1.26377 0
M  V30 4074 H 395.652 -0.437764 4.1912 0
M  V30 4075 H 394.376 -1.03069 3.0991 0
M  V30 4076 H 393.035 1.0621 3.50878 0
M  V30 4077 H 392.683 -0.960188 4.9375 0
M  V30 4078 H 392.383 0.539415 5.85119 0
M  V30 4079 H 393.907 -0.360477 6.09535 0
M  V30 4080 H 395.321 1.8139 5.43848 0
M  V30 4081 H 393.718 2.60444 5.40638 0
M  V30 4082 H 394.788 2.74167 3.99951 0
M  V30 4083 N 396.131 -1.37776 0.765217 0
M  V30 4084 C 397.379 -1.99454 0.325943 0
M  V30 4085 C 397.7 -1.61049 -1.09947 0
M  V30 4086 O 396.97 -0.872821 -1.75381 0
M  V30 4087 H 395.55 -0.737697 0.117525 0
M  V30 4088 H 398.212 -1.68359 0.981895 0
M  V30 4089 H 397.308 -3.09547 0.398353 0
M  V30 4090 N 397.609 -0.515225 -1.4894 0
M  V30 4091 C 399.025 -0.172099 -1.58669 0
M  V30 4092 C 399.225 1.32405 -1.51892 0
M  V30 4093 O 398.281 2.10116 -1.40027 0
M  V30 4094 C 399.594 -0.761533 -2.90897 0
M  V30 4095 C 401.142 -0.728926 -3.04394 0
M  V30 4096 C 401.617 -1.29667 -4.39261 0
M  V30 4097 N 403.108 -1.25799 -4.4579 0
M  V30 4098 C 403.843 -1.66733 -5.48623 0
M  V30 4099 N 403.339 -2.15327 -6.58488 0
M  V30 4100 N 405.132 -1.58061 -5.39419 0
M  V30 4101 H 397.283 -1.48778 -1.51588 0
M  V30 4102 H 399.546 -0.617968 -0.718901 0
M  V30 4103 H 399.252 -1.81136 -3.01468 0
M  V30 4104 H 399.126 -0.230106 -3.76497 0
M  V30 4105 H 401.513 0.312098 -2.93445 0
M  V30 4106 H 401.594 -1.29766 -2.20442 0
M  V30 4107 H 401.238 -2.33655 -4.50963 0
M  V30 4108 H 401.168 -0.703752 -5.21876 0
M  V30 4109 H 403.659 -0.902102 -3.66975 0
M  V30 4110 H 403.972 -2.44594 -7.33071 0
M  V30 4111 H 402.317 -2.19311 -6.59491 0
M  V30 4112 H 405.508 -1.19906 -4.52482 0
M  V30 4113 H 405.681 -1.90284 -6.19432 0
M  V30 4114 N 399.087 1.5561 -0.249682 0
M  V30 4115 C 400.05 2.20217 0.635394 0
M  V30 4116 C 401.05 1.17227 1.10066 0
M  V30 4117 O 402.24 1.42292 1.00492 0
M  V30 4118 C 399.372 2.84794 1.87363 0
M  V30 4119 H 400.565 2.99814 0.0716752 0
M  V30 4120 H 398.118 1.563 -0.000153234 0
M  V30 4121 H 398.853 2.09142 2.47851 0
M  V30 4122 H 398.638 3.60241 1.5482 0
M  V30 4123 H 400.128 3.3423 2.5036 0
M  V30 4124 N 400.565 -0.0233959 1.57583 0
M  V30 4125 C 401.981 -0.379134 1.55031 0
M  V30 4126 C 402.181 -1.76255 0.976548 0
M  V30 4127 O 401.237 -2.45266 0.600078 0
M  V30 4128 C 402.55 -0.275792 2.99433 0
M  V30 4129 C 404.098 -0.352458 3.11009 0
M  V30 4130 C 404.573 -0.278501 4.57152 0
M  V30 4131 N 406.064 -0.337123 4.61972 0
M  V30 4132 C 406.799 -0.302876 5.726 0
M  V30 4133 N 406.295 -0.220589 6.92449 0
M  V30 4134 N 408.088 -0.353023 5.6099 0
M  V30 4135 H 400.239 0.881869 1.93227 0
M  V30 4136 H 402.502 0.335867 0.886509 0
M  V30 4137 H 402.208 0.675108 3.4516 0
M  V30 4138 H 402.082 -1.06721 3.61788 0
M  V30 4139 H 404.469 -1.29379 2.65226 0
M  V30 4140 H 404.55 0.468409 2.51475 0
M  V30 4141 H 404.194 0.659189 5.03604 0
M  V30 4142 H 404.124 -1.11755 5.14605 0
M  V30 4143 H 406.615 -0.403002 3.75745 0
M  V30 4144 H 406.928 -0.199713 7.72542 0
M  V30 4145 H 405.273 -0.186555 6.9475 0
M  V30 4146 H 408.464 -0.415339 4.66254 0
M  V30 4147 H 408.637 -0.322866 6.47195 0
M  V30 4148 N 402.043 -1.548 -0.295768 0
M  V30 4149 C 403.006 -1.85363 -1.34808 0
M  V30 4150 C 404.006 -0.726817 -1.43436 0
M  V30 4151 O 405.196 -0.995088 -1.42981 0
M  V30 4152 C 402.328 -2.03859 -2.73229 0
M  V30 4153 H 403.521 -2.7941 -1.08949 0
M  V30 4154 H 401.074 -1.46942 -0.532702 0
M  V30 4155 H 401.809 -1.12117 -3.04303 0
M  V30 4156 H 401.594 -2.8588 -2.68356 0
M  V30 4157 H 403.084 -2.28857 -3.49305 0
M  V30 4158 N 403.521 0.559213 -1.47345 0
M  V30 4159 C 404.431 1.69388 -1.62311 0
M  V30 4160 C 405.447 1.6648 -0.505993 0
M  V30 4161 O 406.623 1.85964 -0.773262 0
M  V30 4162 C 403.688 3.05894 -1.63185 0
M  V30 4163 C 402.749 3.19885 -2.86307 0
M  V30 4164 C 401.982 4.49879 -2.87131 0
M  V30 4165 O 402.205 5.35217 -1.97229 0
M  V30 4166 O 401.139 4.67618 -3.78968 0
M  V30 4167 H 404.965 1.59706 -2.58317 0
M  V30 4168 H 402.55 0.728989 -1.30407 0
M  V30 4169 H 404.432 3.87133 -1.66451 0
M  V30 4170 H 403.107 3.15964 -0.70345 0
M  V30 4171 H 402.014 2.38052 -2.88587 0
M  V30 4172 H 403.347 3.14718 -3.78435 0
M  V30 4173 N 404.999 1.35443 0.805782 0
M  V30 4174 C 406.227 1.31878 1.59423 0
M  V30 4175 C 406.642 -0.103562 1.88516 0
M  V30 4176 O 405.999 -1.05575 1.48863 0
M  V30 4177 C 406.05 2.12426 2.92502 0
M  V30 4178 O 405.771 3.49115 2.6467 0
M  V30 4179 C 407.272 2.16455 3.86862 0
M  V30 4180 H 404.492 0.453002 0.495005 0
M  V30 4181 H 407.036 1.78309 1.00131 0
M  V30 4182 H 405.191 1.69593 3.48306 0
M  V30 4183 H 405.605 3.90957 3.49647 0
M  V30 4184 H 407.079 2.77204 4.77349 0
M  V30 4185 H 407.556 1.16352 4.23508 0
M  V30 4186 H 408.162 2.59453 3.36993 0
M  V30 4187 N 406.477 -1.02803 1.19454 0
M  V30 4188 C 407.387 -2.14575 0.948408 0
M  V30 4189 C 408.403 -1.73757 -0.091871 0
M  V30 4190 O 409.579 -2.01185 0.0929654 0
M  V30 4191 C 406.644 -3.43202 0.491265 0
M  V30 4192 C 405.705 -3.98328 1.60103 0
M  V30 4193 C 404.938 -5.20816 1.16561 0
M  V30 4194 O 405.161 -5.70392 0.0295238 0
M  V30 4195 O 404.095 -5.68801 1.96849 0
M  V30 4196 H 407.921 -2.38202 1.88397 0
M  V30 4197 H 405.506 -1.12989 0.977433 0
M  V30 4198 H 407.388 -4.20687 0.245015 0
M  V30 4199 H 406.063 -3.21018 -0.415851 0
M  V30 4200 H 404.97 -3.22174 1.90144 0
M  V30 4201 H 406.303 -4.24879 2.48473 0
M  V30 4202 N 407.956 -0.998596 -1.21925 0
M  V30 4203 C 408.866 -0.562736 -2.27751 0
M  V30 4204 C 409.882 0.391203 -1.69545 0
M  V30 4205 O 411.058 0.256625 -1.99758 0
M  V30 4206 C 408.123 0.11012 -3.46525 0
M  V30 4207 C 407.184 -0.887495 -4.20026 0
M  V30 4208 C 406.417 -0.246654 -5.3313 0
M  V30 4209 O 406.64 0.958088 -5.62296 0
M  V30 4210 O 405.574 -0.954374 -5.94286 0
M  V30 4211 H 409.4 -1.44329 -2.67213 0
M  V30 4212 H 406.985 -0.767135 -1.28201 0
M  V30 4213 H 408.867 0.486756 -4.18579 0
M  V30 4214 H 407.542 0.965154 -3.08976 0
M  V30 4215 H 406.449 -1.31517 -3.5022 0
M  V30 4216 H 407.782 -1.71191 -4.6147 0
M  V30 4217 N 409.434 1.37368 -0.772513 0
M  V30 4218 C 410.364 2.32856 -0.173304 0
M  V30 4219 C 411.345 1.55818 0.682262 0
M  V30 4220 O 412.53 1.84052 0.619566 0
M  V30 4221 C 409.66 3.40048 0.706007 0
M  V30 4222 C 408.614 4.27973 -0.0483144 0
M  V30 4223 C 407.94 5.26184 0.950491 0
M  V30 4224 C 409.24 5.07665 -1.22776 0
M  V30 4225 H 410.934 2.83217 -0.971002 0
M  V30 4226 H 408.48 1.3617 -0.468377 0
M  V30 4227 H 410.433 4.05827 1.13501 0
M  V30 4228 H 409.157 2.88214 1.53623 0
M  V30 4229 H 407.816 3.63726 -0.458107 0
M  V30 4230 H 407.464 4.7063 1.77529 0
M  V30 4231 H 407.164 5.85872 0.450314 0
M  V30 4232 H 408.688 5.94838 1.37842 0
M  V30 4233 H 410.102 5.66578 -0.875366 0
M  V30 4234 H 408.499 5.76681 -1.66007 0
M  V30 4235 H 409.569 4.40294 -2.03149 0
M  V30 4236 N 410.912 0.523116 1.48665 0
M  V30 4237 C 412.161 -0.01544 2.01694 0
M  V30 4238 C 412.474 -1.35975 1.40606 0
M  V30 4239 O 413.68 -1.98627 1.85093 0
M  V30 4240 C 412.136 -0.0779303 3.59816 0
M  V30 4241 C 411.744 1.26107 4.29885 0
M  V30 4242 C 413.488 -0.565678 4.20714 0
M  V30 4243 C 411.395 1.15954 5.79921 0
M  V30 4244 H 410.325 -0.00954163 0.75394 0
M  V30 4245 H 412.976 0.665865 1.70993 0
M  V30 4246 H 411.358 -0.824165 3.87329 0
M  V30 4247 H 412.532 2.02233 4.14051 0
M  V30 4248 H 410.847 1.68401 3.80828 0
M  V30 4249 H 413.444 -0.6595 5.30617 0
M  V30 4250 H 413.787 -1.56984 3.85567 0
M  V30 4251 H 414.32 0.12467 3.97605 0
M  V30 4252 H 411.059 2.13864 6.19631 0
M  V30 4253 H 410.579 0.439529 5.98187 0
M  V30 4254 H 412.258 0.847361 6.41427 0
M  V30 4255 N 412.39 -1.55475 0.257931 0
M  V30 4256 C 413.806 -1.59307 -0.0966563 0
M  V30 4257 C 414.006 -1.27514 -1.5602 0
M  V30 4258 O 413.062 -1.02774 -2.30637 0
M  V30 4259 C 414.375 -2.99552 0.262481 0
M  V30 4260 C 415.923 -3.1231 0.207683 0
M  V30 4261 C 416.398 -4.54793 0.541012 0
M  V30 4262 N 417.889 -4.6058 0.491921 0
M  V30 4263 C 418.624 -5.68825 0.722857 0
M  V30 4264 N 418.12 -6.85287 1.0175 0
M  V30 4265 N 419.913 -5.58296 0.652815 0
M  V30 4266 H 412.064 -1.74409 1.21224 0
M  V30 4267 H 414.327 -0.812424 0.48854 0
M  V30 4268 H 414.033 -3.27593 1.27967 0
M  V30 4269 H 413.907 -3.75019 -0.40508 0
M  V30 4270 H 416.294 -2.84044 -0.800195 0
M  V30 4271 H 416.375 -2.39095 0.909255 0
M  V30 4272 H 416.019 -4.83783 1.5465 0
M  V30 4273 H 415.949 -5.26285 -0.18216 0
M  V30 4274 H 418.44 -3.7691 0.273366 0
M  V30 4275 H 418.753 -7.63725 1.18084 0
M  V30 4276 H 417.098 -6.86945 1.05509 0
M  V30 4277 H 420.289 -4.66189 0.422592 0
M  V30 4278 H 420.462 -6.42582 0.836182 0
M  V30 4279 N 413.868 0.0150385 -1.57593 0
M  V30 4280 C 414.778 1.02791 -2.10882 0
M  V30 4281 C 415.794 1.38702 -1.0506 0
M  V30 4282 O 416.97 1.47739 -1.36877 0
M  V30 4283 C 414.035 2.30568 -2.58919 0
M  V30 4284 C 413.096 2.01108 -3.79281 0
M  V30 4285 C 412.329 3.22794 -4.25018 0
M  V30 4286 O 412.552 4.33959 -3.70183 0
M  V30 4287 O 411.486 3.07672 -5.17322 0
M  V30 4288 H 415.312 0.604973 -2.97613 0
M  V30 4289 H 412.897 0.23292 -1.47573 0
M  V30 4290 H 414.779 3.05662 -2.90084 0
M  V30 4291 H 413.454 2.72129 -1.75293 0
M  V30 4292 H 412.361 1.23537 -3.53114 0
M  V30 4293 H 413.694 1.64394 -4.63935 0
M  V30 4294 N 415.346 1.54954 0.287554 0
M  V30 4295 C 416.762 1.46469 0.633964 0
M  V30 4296 C 416.962 0.666865 1.90145 0
M  V30 4297 O 416.018 0.179906 2.51858 0
M  V30 4298 C 417.331 2.90556 0.774454 0
M  V30 4299 C 418.879 3.00681 0.869462 0
M  V30 4300 C 419.354 4.45993 1.04184 0
M  V30 4301 N 420.845 4.4976 1.10772 0
M  V30 4302 C 421.58 5.59393 1.25964 0
M  V30 4303 N 421.076 6.78923 1.37968 0
M  V30 4304 N 422.869 5.47107 1.28959 0
M  V30 4305 H 415.02 2.05288 -0.545041 0
M  V30 4306 H 417.283 0.930305 -0.182308 0
M  V30 4307 H 416.989 3.51594 -0.086207 0
M  V30 4308 H 416.863 3.38743 1.6593 0
M  V30 4309 H 419.25 2.39749 1.7206 0
M  V30 4310 H 419.331 2.55769 -0.0396831 0
M  V30 4311 H 418.975 5.07524 0.195422 0
M  V30 4312 H 418.905 4.88548 1.96542 0
M  V30 4313 H 421.396 3.63651 1.02794 0
M  V30 4314 H 421.709 7.58231 1.49353 0
M  V30 4315 H 420.054 6.81763 1.34999 0
M  V30 4316 H 423.245 4.52668 1.19202 0
M  V30 4317 H 423.418 6.32595 1.40455 0
M  V30 4318 N 416.824 -0.551391 1.4764 0
M  V30 4319 C 418.07 -1.31024 1.54792 0
M  V30 4320 C 418.403 -1.9304 0.211967 0
M  V30 4321 O 417.678 -1.78175 -0.77999 0
M  V30 4322 C 417.961 -2.41593 2.67029 0
M  V30 4323 C 417.814 -1.84408 4.10261 0
M  V30 4324 C 419.133 -3.43488 2.75143 0
M  V30 4325 H 416.252 -0.475031 0.563485 0
M  V30 4326 H 418.894 -0.616454 1.79722 0
M  V30 4327 H 417.044 -3.00772 2.45904 0
M  V30 4328 H 418.716 -1.29445 4.42766 0
M  V30 4329 H 416.959 -1.15051 4.18265 0
M  V30 4330 H 417.63 -2.64367 4.84576 0
M  V30 4331 H 420.106 -2.94236 2.94218 0
M  V30 4332 H 418.982 -4.18274 3.55441 0
M  V30 4333 H 419.243 -4.02703 1.82435 0
M  V30 4334 N 418.302 -1.35869 -0.798587 0
M  V30 4335 C 419.718 -1.16082 -1.09532 0
M  V30 4336 C 419.918 0.0213124 -2.01489 0
M  V30 4337 O 418.974 0.689488 -2.42904 0
M  V30 4338 C 420.287 -2.46748 -1.7186 0
M  V30 4339 C 421.835 -2.53028 -1.84244 0
M  V30 4340 C 422.31 -3.83758 -2.49988 0
M  V30 4341 N 423.801 -3.85053 -2.57465 0
M  V30 4342 C 424.536 -4.8294 -3.09122 0
M  V30 4343 N 424.032 -5.91217 -3.61157 0
M  V30 4344 N 425.825 -4.70369 -3.0775 0
M  V30 4345 H 417.976 -2.11571 -0.187461 0
M  V30 4346 H 420.239 -0.936726 -0.145765 0
M  V30 4347 H 419.945 -3.33471 -1.11759 0
M  V30 4348 H 419.819 -2.61883 -2.71472 0
M  V30 4349 H 422.206 -1.66729 -2.43486 0
M  V30 4350 H 422.287 -2.418 -0.834643 0
M  V30 4351 H 421.931 -4.70459 -1.91393 0
M  V30 4352 H 421.861 -3.92278 -3.5132 0
M  V30 4353 H 424.352 -3.06822 -2.20609 0
M  V30 4354 H 424.665 -6.61892 -3.98896 0
M  V30 4355 H 423.01 -5.94899 -3.59333 0
M  V30 4356 H 426.201 -3.84914 -2.66381 0
M  V30 4357 H 426.374 -5.46816 -3.47701 0
M  V30 4358 N 419.78 1.02168 -1.19998 0
M  V30 4359 C 420.712 2.10705 -0.901994 0
M  V30 4360 C 421.725 1.6244 0.108216 0
M  V30 4361 O 422.914 1.78082 -0.12214 0
M  V30 4362 C 420.014 3.37291 -0.329834 0
M  V30 4363 C 419.187 4.14714 -1.39035 0
M  V30 4364 C 418.246 5.19606 -0.830432 0
M  V30 4365 O 417.272 5.48809 -1.50989 0
M  V30 4366 N 418.474 5.79366 0.362696 0
M  V30 4367 H 421.239 2.36856 -1.83628 0
M  V30 4368 H 418.8 1.18518 -1.10296 0
M  V30 4369 H 420.792 4.04657 0.0587633 0
M  V30 4370 H 419.362 3.0843 0.508891 0
M  V30 4371 H 418.582 3.42392 -1.9535 0
M  V30 4372 H 419.87 4.63226 -2.10474 0
M  V30 4373 H 419.268 5.57968 0.932081 0
M  V30 4374 H 417.825 6.48106 0.69299 0
M  V30 4375 N 421.258 1.00505 1.21394 0
M  V30 4376 C 422.504 0.688793 1.90745 0
M  V30 4377 C 422.837 -0.778486 1.77914 0
M  V30 4378 O 422.112 -1.56433 1.15581 0
M  V30 4379 C 422.395 1.11063 3.42545 0
M  V30 4380 C 422.248 2.63737 3.64367 0
M  V30 4381 C 423.567 0.673059 4.34923 0
M  V30 4382 H 420.686 0.251702 0.692687 0
M  V30 4383 H 423.328 1.25074 1.43026 0
M  V30 4384 H 421.478 0.632508 3.83317 0
M  V30 4385 H 423.15 3.19313 3.32922 0
M  V30 4386 H 421.393 3.05248 3.08231 0
M  V30 4387 H 422.064 2.88305 4.70727 0
M  V30 4388 H 424.54 1.08392 4.01734 0
M  V30 4389 H 423.416 0.996383 5.39781 0
M  V30 4390 H 423.677 -0.425808 4.40045 0
M  V30 4391 N 422.737 -1.36956 0.779787 0
M  V30 4392 C 423.983 -1.99787 0.348281 0
M  V30 4393 C 424.316 -1.61756 -1.07465 0
M  V30 4394 O 423.591 -0.867639 -1.74075 0
M  V30 4395 C 423.874 -3.56597 0.50104 0
M  V30 4396 C 423.727 -4.04513 1.96697 0
M  V30 4397 C 425.046 -4.40008 -0.0898097 0
M  V30 4398 H 422.165 -0.725796 0.128022 0
M  V30 4399 H 424.807 -1.62514 0.984331 0
M  V30 4400 H 422.957 -3.88479 -0.0404347 0
M  V30 4401 H 424.629 -3.83161 2.56876 0
M  V30 4402 H 422.872 -3.56408 2.47297 0
M  V30 4403 H 423.543 -5.1352 2.02486 0
M  V30 4404 H 426.019 -4.14431 0.372293 0
M  V30 4405 H 424.895 -5.4888 0.0471605 0
M  V30 4406 H 425.156 -4.26035 -1.18096 0
M  V30 4407 N 424.215 -0.530993 -1.48385 0
M  V30 4408 C 425.178 0.220497 -2.28137 0
M  V30 4409 C 426.178 0.866851 -1.35434 0
M  V30 4410 O 427.368 0.726746 -1.58316 0
M  V30 4411 C 424.5 1.31921 -3.1434 0
M  V30 4412 H 425.693 -0.479714 -2.96038 0
M  V30 4413 H 423.246 -0.286968 -1.53643 0
M  V30 4414 H 423.981 2.05264 -2.51072 0
M  V30 4415 H 423.766 0.86085 -3.82533 0
M  V30 4416 H 425.256 1.84776 -3.74497 0
M  V30 4417 N 425.693 1.55336 -0.266172 0
M  V30 4418 C 426.643 2.18848 0.639497 0
M  V30 4419 C 427.627 1.1503 1.12503 0
M  V30 4420 O 428.819 1.40875 1.0716 0
M  V30 4421 C 425.948 2.90626 1.82733 0
M  V30 4422 C 425.034 4.01723 1.35939 0
M  V30 4423 N 425.425 5.02145 0.606988 0
M  V30 4424 C 423.723 4.1463 1.6431 0
M  V30 4425 C 424.424 5.80572 0.362138 0
M  V30 4426 N 423.4 5.35551 0.931971 0
M  V30 4427 H 427.202 2.93845 0.0567057 0
M  V30 4428 H 424.716 1.62252 -0.0693312 0
M  V30 4429 H 426.713 3.34569 2.48735 0
M  V30 4430 H 425.373 2.17137 2.41416 0
M  V30 4431 H 426.384 5.17271 0.255198 0
M  V30 4432 H 423.061 3.52326 2.23993 0
M  V30 4433 H 424.451 6.71472 -0.239848 0
M  V30 4434 N 427.171 -0.0066808 1.57599 0
M  V30 4435 C 428.417 -0.693947 1.90558 0
M  V30 4436 C 428.75 -1.73792 0.866594 0
M  V30 4437 O 428.025 -1.94156 -0.115548 0
M  V30 4438 C 428.308 -1.34317 3.34112 0
M  V30 4439 C 428.161 -0.311189 4.48722 0
M  V30 4440 C 429.48 -2.27116 3.7697 0
M  V30 4441 H 426.599 -0.250803 0.693013 0
M  V30 4442 H 429.241 0.043242 1.89951 0
M  V30 4443 H 427.391 -1.9715 3.3476 0
M  V30 4444 H 429.063 0.316944 4.6021 0
M  V30 4445 H 427.306 0.367253 4.32243 0
M  V30 4446 H 427.977 -0.804366 5.46108 0
M  V30 4447 H 430.453 -1.74306 3.77831 0
M  V30 4448 H 429.329 -2.69511 4.78179 0
M  V30 4449 H 429.59 -3.14743 3.10466 0
M  V30 4450 N 428.649 -1.55105 -0.279332 0
M  V30 4451 C 430.065 -1.46803 -0.626187 0
M  V30 4452 C 430.265 -0.676939 -1.89789 0
M  V30 4453 O 429.321 -0.19326 -2.51759 0
M  V30 4454 C 430.634 -2.90962 -0.759034 0
M  V30 4455 C 432.182 -3.01138 -0.853504 0
M  V30 4456 C 432.657 -4.46539 -1.01818 0
M  V30 4457 N 434.148 -4.50341 -1.08386 0
M  V30 4458 C 434.883 -5.60053 -1.22996 0
M  V30 4459 N 434.379 -6.79645 -1.34366 0
M  V30 4460 N 436.172 -5.47783 -1.26056 0
M  V30 4461 H 428.323 -2.04996 0.555921 0
M  V30 4462 H 430.586 -0.929325 0.187239 0
M  V30 4463 H 430.292 -3.51544 0.104852 0
M  V30 4464 H 430.166 -3.39619 -1.64131 0
M  V30 4465 H 432.553 -2.40658 -1.70786 0
M  V30 4466 H 432.634 -2.55745 0.0532466 0
M  V30 4467 H 432.278 -5.0762 -0.168504 0
M  V30 4468 H 432.208 -4.89583 -1.93948 0
M  V30 4469 H 434.699 -3.64191 -1.00864 0
M  V30 4470 H 435.012 -7.59012 -1.4533 0
M  V30 4471 H 433.357 -6.82469 -1.31382 0
M  V30 4472 H 436.548 -4.53294 -1.168 0
M  V30 4473 H 436.721 -6.33331 -1.37098 0
M  V30 4474 N 430.127 0.543554 -1.4793 0
M  V30 4475 C 431.09 1.63156 -1.60975 0
M  V30 4476 C 432.09 1.53346 -0.483899 0
M  V30 4477 O 433.28 1.5726 -0.749339 0
M  V30 4478 C 430.412 3.02743 -1.56716 0
M  V30 4479 H 431.605 1.52934 -2.57975 0
M  V30 4480 H 429.158 0.764557 -1.36324 0
M  V30 4481 H 429.893 3.18484 -0.611418 0
M  V30 4482 H 429.678 3.11272 -2.38438 0
M  V30 4483 H 431.168 3.81871 -1.6901 0
M  V30 4484 N 431.605 1.3629 0.791371 0
M  V30 4485 C 432.537 1.26321 1.91248 0
M  V30 4486 C 433.55 0.18313 1.61767 0
M  V30 4487 O 434.739 0.437682 1.73051 0
M  V30 4488 C 431.839 0.925901 3.26007 0
M  V30 4489 C 431.012 2.10746 3.83281 0
M  V30 4490 C 430.071 1.74352 4.96475 0
M  V30 4491 O 429.097 2.46416 5.13096 0
M  V30 4492 N 430.299 0.676058 5.7655 0
M  V30 4493 H 433.064 2.22915 2.00323 0
M  V30 4494 H 430.625 1.29659 0.969546 0
M  V30 4495 H 432.617 0.663636 3.99222 0
M  V30 4496 H 431.187 0.0491581 3.12561 0
M  V30 4497 H 430.407 2.53264 3.02077 0
M  V30 4498 H 431.695 2.8969 4.18279 0
M  V30 4499 H 431.093 0.0776467 5.65647 0
M  V30 4500 H 429.65 0.473612 6.50077 0
M  V30 4501 N 433.083 -1.0153 1.20538 0
M  V30 4502 C 433.993 -2.13557 0.971113 0
M  V30 4503 C 435.009 -1.73845 -0.0734366 0
M  V30 4504 O 436.185 -2.01075 0.114299 0
M  V30 4505 C 433.25 -3.42661 0.527639 0
M  V30 4506 C 432.311 -3.96608 1.64319 0
M  V30 4507 C 431.544 -5.1955 1.22078 0
M  V30 4508 O 431.767 -5.70329 0.0900198 0
M  V30 4509 O 430.701 -5.66681 2.02871 0
M  V30 4510 H 434.527 -2.3619 1.90913 0
M  V30 4511 H 432.112 -1.11946 0.989362 0
M  V30 4512 H 433.994 -4.20404 0.289621 0
M  V30 4513 H 432.669 -3.21441 -0.381779 0
M  V30 4514 H 431.576 -3.20139 1.93551 0
M  V30 4515 H 432.909 -4.22219 2.52966 0
M  V30 4516 N 434.561 -1.01147 -1.20859 0
M  V30 4517 C 435.977 -0.725422 -1.42161 0
M  V30 4518 C 436.177 0.696919 -1.89064 0
M  V30 4519 O 435.233 1.46539 -2.05627 0
M  V30 4520 C 436.546 -1.74678 -2.44761 0
M  V30 4521 C 438.094 -1.76433 -2.58535 0
M  V30 4522 C 438.569 -2.77481 -3.64374 0
M  V30 4523 N 440.06 -2.76189 -3.71852 0
M  V30 4524 C 440.795 -3.51035 -4.53389 0
M  V30 4525 N 440.291 -4.35541 -5.38773 0
M  V30 4526 N 442.084 -3.39655 -4.47873 0
M  V30 4527 H 434.235 -1.92979 -0.887282 0
M  V30 4528 H 436.498 -0.833327 -0.451962 0
M  V30 4529 H 436.204 -2.76551 -2.17285 0
M  V30 4530 H 436.078 -1.55472 -3.43669 0
M  V30 4531 H 438.465 -0.75248 -2.85345 0
M  V30 4532 H 438.546 -1.99712 -1.5984 0
M  V30 4533 H 438.19 -3.78827 -3.38308 0
M  V30 4534 H 438.12 -2.51466 -4.6268 0
M  V30 4535 H 440.611 -2.14885 -3.10858 0
M  V30 4536 H 440.924 -4.89432 -5.98061 0
M  V30 4537 H 439.269 -4.39621 -5.38292 0
M  V30 4538 H 442.46 -2.73063 -3.80203 0
M  V30 4539 H 442.633 -3.9824 -5.11184 0
M  V30 4540 N 436.039 1.36541 -0.78704 0
M  V30 4541 C 436.949 2.3387 -0.184896 0
M  V30 4542 C 437.965 1.60927 0.661697 0
M  V30 4543 O 439.141 1.92927 0.57804 0
M  V30 4544 C 436.206 3.40122 0.672145 0
M  V30 4545 C 435.267 4.28867 -0.19267 0
M  V30 4546 C 434.5 5.30045 0.623561 0
M  V30 4547 O 434.723 5.39232 1.8597 0
M  V30 4548 O 433.657 6.01895 0.0247068 0
M  V30 4549 H 437.483 2.87126 -0.989562 0
M  V30 4550 H 435.068 1.38969 -0.548455 0
M  V30 4551 H 436.95 4.05093 1.16094 0
M  V30 4552 H 435.625 2.89169 1.45474 0
M  V30 4553 H 434.532 3.66945 -0.728166 0
M  V30 4554 H 435.865 4.83165 -0.938722 0
M  V30 4555 N 437.518 0.538854 1.48102 0
M  V30 4556 C 438.448 -0.207654 2.32575 0
M  V30 4557 C 439.429 -0.926559 1.4265 0
M  V30 4558 O 440.614 -0.91061 1.71527 0
M  V30 4559 C 437.744 -1.24957 3.24042 0
M  V30 4560 C 436.698 -0.648263 4.23062 0
M  V30 4561 C 436.024 -1.79348 5.03725 0
M  V30 4562 C 437.324 0.385897 5.20872 0
M  V30 4563 H 439.018 0.497534 2.95237 0
M  V30 4564 H 436.564 0.240715 1.41974 0
M  V30 4565 H 438.517 -1.77983 3.81969 0
M  V30 4566 H 437.241 -1.98446 2.59397 0
M  V30 4567 H 435.9 -0.139452 3.66335 0
M  V30 4568 H 435.548 -2.51696 4.35498 0
M  V30 4569 H 435.248 -1.39702 5.70751 0
M  V30 4570 H 436.772 -2.32735 5.64506 0
M  V30 4571 H 438.186 -0.057607 5.73271 0
M  V30 4572 H 436.583 0.700227 5.96001 0
M  V30 4573 H 437.653 1.28848 4.67468 0
M  V30 4574 N 438.996 -1.55193 0.274407 0
M  V30 4575 C 439.926 -2.25471 -0.607032 0
M  V30 4576 C 440.907 -1.24461 -1.15946 0
M  V30 4577 O 442.092 -1.53179 -1.19373 0
M  V30 4578 C 439.222 -2.97526 -1.79153 0
M  V30 4579 C 438.176 -4.05459 -1.37067 0
M  V30 4580 C 437.502 -4.65084 -2.6382 0
M  V30 4581 C 438.802 -5.19691 -0.521389 0
M  V30 4582 H 440.496 -2.99393 -0.0209343 0
M  V30 4583 H 438.042 -1.43997 -0.00862866 0
M  V30 4584 H 439.995 -3.45402 -2.41404 0
M  V30 4585 H 438.719 -2.21138 -2.40344 0
M  V30 4586 H 437.378 -3.58393 -0.771355 0
M  V30 4587 H 437.026 -3.85365 -3.23268 0
M  V30 4588 H 436.726 -5.37961 -2.36372 0
M  V30 4589 H 438.25 -5.15708 -3.26921 0
M  V30 4590 H 439.664 -5.63623 -1.04889 0
M  V30 4591 H 438.061 -5.99126 -0.341825 0
M  V30 4592 H 439.131 -4.82713 0.46 0
M  V30 4593 N 440.474 -0.00167713 -1.576 0
M  V30 4594 C 441.384 1.00548 -2.1196 0
M  V30 4595 C 442.4 1.3758 -1.06526 0
M  V30 4596 O 443.576 1.46278 -1.38436 0
M  V30 4597 C 440.641 2.27809 -2.6135 0
M  V30 4598 C 439.702 1.97074 -3.81393 0
M  V30 4599 C 438.935 3.18267 -4.28417 0
M  V30 4600 O 439.158 4.30009 -3.74765 0
M  V30 4601 O 438.092 3.02167 -5.20556 0
M  V30 4602 H 441.918 0.573373 -2.98238 0
M  V30 4603 H 439.503 0.217255 -1.47812 0
M  V30 4604 H 441.385 3.02568 -2.93309 0
M  V30 4605 H 440.06 2.70254 -1.78169 0
M  V30 4606 H 438.967 1.19785 -3.54404 0
M  V30 4607 H 440.3 1.59464 -4.65652 0
M  V30 4608 N 441.952 1.55251 0.271103 0
M  V30 4609 C 442.915 1.87484 1.31842 0
M  V30 4610 C 443.915 0.749545 1.42262 0
M  V30 4611 O 445.105 1.01771 1.4138 0
M  V30 4612 C 442.237 2.0818 2.69951 0
M  V30 4613 H 443.43 2.81108 1.0449 0
M  V30 4614 H 440.983 1.47771 0.509258 0
M  V30 4615 H 441.718 1.16944 3.02481 0
M  V30 4616 H 441.503 2.90114 2.63774 0
M  V30 4617 H 442.993 2.34385 3.4562 0
M  V30 4618 N 443.43 -0.535701 1.48216 0
M  V30 4619 C 444.676 -1.29375 1.56173 0
M  V30 4620 C 445.009 -1.92804 0.232429 0
M  V30 4621 O 444.284 -1.78992 -0.761048 0
M  V30 4622 C 444.567 -2.38747 2.69577 0
M  V30 4623 C 444.42 -1.80046 4.12193 0
M  V30 4624 C 445.739 -3.40551 2.78771 0
M  V30 4625 H 442.858 -0.469027 0.568491 0
M  V30 4626 H 445.5 -0.597358 1.80365 0
M  V30 4627 H 443.65 -2.98147 2.4908 0
M  V30 4628 H 445.322 -1.24742 4.44114 0
M  V30 4629 H 443.565 -1.10609 4.19462 0
M  V30 4630 H 444.236 -2.59212 4.87353 0
M  V30 4631 H 446.712 -2.91099 2.97322 0
M  V30 4632 H 445.588 -4.1448 3.59857 0
M  V30 4633 H 445.849 -4.00746 1.86696 0
M  V30 4634 N 444.908 -1.36708 -0.784132 0
M  V30 4635 C 446.185 -1.21776 -1.53069 0
M  V30 4636 C 446.565 0.193876 -2.10208 0
M  V30 4637 O 445.913 1.20012 -1.94446 0
M  V30 4638 C 446.123 -2.30395 -2.62143 0
M  V30 4639 C 447.471 -2.67325 -3.29882 0
M  V30 4640 O 448.495 -2.29478 -2.7243 0
M  V30 4641 O 447.354 -3.32485 -4.33724 0
M  V30 4642 H 444.448 -0.474459 -0.677361 0
M  V30 4643 H 446.994 -1.48454 -0.82216 0
M  V30 4644 H 445.766 -3.2498 -2.17953 0
M  V30 4645 H 445.389 -2.05112 -3.40609 0
M  V30 4646 N 446.386 1.0089 -1.21074 0
M  V30 4647 C 447.349 2.0775 -0.968129 0
M  V30 4648 C 448.349 1.6069 0.0593445 0
M  V30 4649 O 449.539 1.73293 -0.177525 0
M  V30 4650 C 446.671 3.37794 -0.459108 0
M  V30 4651 H 447.864 2.30707 -1.9161 0
M  V30 4652 H 445.417 1.17807 -1.02719 0
M  V30 4653 H 446.152 3.20516 0.49397 0
M  V30 4654 H 445.937 3.7328 -1.20019 0
M  V30 4655 H 447.427 4.16454 -0.309099 0
M  V30 4656 N 447.864 1.01787 1.20321 0
M  V30 4657 C 449.28 0.732951 1.41774 0
M  V30 4658 C 449.48 -0.686883 1.89431 0
M  V30 4659 O 448.536 -1.45446 2.06402 0
M  V30 4660 C 449.849 1.75973 2.43832 0
M  V30 4661 C 451.397 1.77802 2.57596 0
M  V30 4662 C 451.872 2.7941 3.62897 0
M  V30 4663 N 453.363 2.78157 3.70382 0
M  V30 4664 C 454.098 3.53434 4.51521 0
M  V30 4665 N 453.594 4.38392 5.36455 0
M  V30 4666 N 455.387 3.42026 4.46066 0
M  V30 4667 H 447.538 1.93447 0.877035 0
M  V30 4668 H 449.801 0.835712 0.447536 0
M  V30 4669 H 449.507 2.77699 2.15815 0
M  V30 4670 H 449.381 1.57292 3.4284 0
M  V30 4671 H 451.768 0.767602 2.84942 0
M  V30 4672 H 451.849 2.00557 1.58779 0
M  V30 4673 H 451.493 3.80616 3.36295 0
M  V30 4674 H 451.423 2.53916 4.61339 0
M  V30 4675 H 453.914 2.16531 3.09714 0
M  V30 4676 H 454.227 4.92596 5.95457 0
M  V30 4677 H 452.572 4.4247 5.35953 0
M  V30 4678 H 455.763 2.75075 3.78749 0
M  V30 4679 H 455.936 4.00946 5.09064 0
M  V30 4680 N 449.342 -1.36122 0.79427 0
M  V30 4681 C 450.572 -2.03067 0.380437 0
M  V30 4682 C 450.98 -1.60018 -1.00949 0
M  V30 4683 O 450.323 -0.787425 -1.65968 0
M  V30 4684 C 450.385 -3.57587 0.37034 0
M  V30 4685 C 450.049 -4.23855 1.70867 0
M  V30 4686 C 451.046 -4.46404 2.66496 0
M  V30 4687 C 448.731 -4.61229 1.9893 0
M  V30 4688 C 450.725 -5.05412 3.88378 0
M  V30 4689 C 448.412 -5.19953 3.21079 0
M  V30 4690 C 449.41 -5.41985 4.15621 0
M  V30 4691 O 449.098 -5.99475 5.35616 0
M  V30 4692 H 448.83 -0.658168 0.154243 0
M  V30 4693 H 451.384 -1.7498 1.0757 0
M  V30 4694 H 449.614 -3.84814 -0.381444 0
M  V30 4695 H 451.303 -4.05895 -0.0194894 0
M  V30 4696 H 452.069 -4.17921 2.46103 0
M  V30 4697 H 447.948 -4.43402 1.26158 0
M  V30 4698 H 451.492 -5.22524 4.62185 0
M  V30 4699 H 447.389 -5.47862 3.41347 0
M  V30 4700 H 448.157 -6.17937 5.36745 0
M  V30 4701 N 450.82 -0.546701 -1.47814 0
M  V30 4702 C 451.752 0.244196 -2.27895 0
M  V30 4703 C 452.765 0.88911 -1.36377 0
M  V30 4704 O 453.954 0.764733 -1.61289 0
M  V30 4705 C 451.054 1.36252 -3.10304 0
M  V30 4706 C 450.227 0.816382 -4.29714 0
M  V30 4707 C 449.286 1.81789 -4.93801 0
M  V30 4708 O 448.312 1.36818 -5.52512 0
M  V30 4709 N 449.514 3.15085 -4.87547 0
M  V30 4710 H 452.279 -0.442694 -2.96412 0
M  V30 4711 H 449.84 -0.382095 -1.57327 0
M  V30 4712 H 451.832 2.03102 -3.50045 0
M  V30 4713 H 450.402 1.95281 -2.44099 0
M  V30 4714 H 449.622 -0.0285981 -3.9419 0
M  V30 4715 H 450.91 0.430668 -5.06974 0
M  V30 4716 H 450.308 3.54275 -4.41028 0
M  V30 4717 H 448.865 3.77522 -5.31339 0
M  V30 4718 N 452.299 1.55045 -0.282633 0
M  V30 4719 C 453.715 1.59441 0.0712997 0
M  V30 4720 C 453.915 1.2998 1.53972 0
M  V30 4721 O 452.971 1.06431 2.28973 0
M  V30 4722 C 454.284 2.99097 -0.310104 0
M  V30 4723 C 455.832 3.1194 -0.257343 0
M  V30 4724 C 456.307 4.53875 -0.613297 0
M  V30 4725 N 457.798 4.5974 -0.565134 0
M  V30 4726 C 458.533 5.67603 -0.81326 0
M  V30 4727 N 458.029 6.83582 -1.1264 0
M  V30 4728 N 459.822 5.57187 -0.741553 0
M  V30 4729 H 451.973 1.72458 -1.23984 0
M  V30 4730 H 454.236 0.804549 -0.501403 0
M  V30 4731 H 453.942 3.25516 -1.33163 0
M  V30 4732 H 453.816 3.75616 0.345366 0
M  V30 4733 H 456.203 2.85281 0.754905 0
M  V30 4734 H 456.284 2.37618 -0.947178 0
M  V30 4735 H 455.928 4.81261 -1.62327 0
M  V30 4736 H 455.858 5.26508 0.09841 0
M  V30 4737 H 458.349 3.76427 -0.333294 0
M  V30 4738 H 458.662 7.6175 -1.30219 0
M  V30 4739 H 457.007 6.85179 -1.16425 0
M  V30 4740 H 460.198 4.65457 -0.496705 0
M  V30 4741 H 460.371 6.41171 -0.938306 0
M  V30 4742 N 453.777 0.010035 1.57597 0
M  V30 4743 C 455.054 -0.710296 1.82248 0
M  V30 4744 C 455.434 -1.91426 0.889911 0
M  V30 4745 O 454.782 -2.28424 -0.0590292 0
M  V30 4746 C 454.992 -1.10655 3.30993 0
M  V30 4747 C 456.34 -1.50621 3.96987 0
M  V30 4748 O 457.364 -1.20007 3.35375 0
M  V30 4749 O 456.223 -2.07587 5.05539 0
M  V30 4750 H 453.317 -0.34673 0.750804 0
M  V30 4751 H 455.863 0.0362578 1.69661 0
M  V30 4752 H 454.635 -0.248826 3.90508 0
M  V30 4753 H 454.258 -1.91189 3.48615 0
M  V30 4754 N 455.255 -1.55392 -0.262866 0
M  V30 4755 C 456.485 -1.80251 -1.00961 0
M  V30 4756 C 456.893 -0.58117 -1.80053 0
M  V30 4757 O 456.236 0.459427 -1.77862 0
M  V30 4758 C 456.298 -2.98207 -2.00781 0
M  V30 4759 C 455.962 -4.34856 -1.40533 0
M  V30 4760 C 456.959 -5.13459 -0.815853 0
M  V30 4761 C 454.644 -4.8153 -1.42948 0
M  V30 4762 C 456.638 -6.36875 -0.258562 0
M  V30 4763 C 454.325 -6.04899 -0.868334 0
M  V30 4764 C 455.323 -6.8241 -0.283884 0
M  V30 4765 O 455.011 -8.03451 0.268644 0
M  V30 4766 H 454.743 -0.604049 -0.303482 0
M  V30 4767 H 457.297 -2.03257 -0.295926 0
M  V30 4768 H 455.527 -2.70917 -2.75936 0
M  V30 4769 H 457.216 -3.10299 -2.61667 0
M  V30 4770 H 457.982 -4.78526 -0.789812 0
M  V30 4771 H 453.861 -4.21201 -1.87378 0
M  V30 4772 H 457.405 -6.97318 0.198257 0
M  V30 4773 H 453.302 -6.39312 -0.891649 0
M  V30 4774 H 454.07 -8.18346 0.158974 0
M  V30 4775 N 456.733 0.527833 -1.48498 0
M  V30 4776 C 457.643 1.65907 -1.65867 0
M  V30 4777 C 458.659 1.6537 -0.541192 0
M  V30 4778 O 459.835 1.84282 -0.812534 0
M  V30 4779 C 456.9 3.02364 -1.69637 0
M  V30 4780 C 455.961 3.1374 -2.93028 0
M  V30 4781 C 455.194 4.43688 -2.96609 0
M  V30 4782 O 455.417 5.30913 -2.08538 0
M  V30 4783 O 454.351 4.59475 -3.88802 0
M  V30 4784 H 458.177 1.5419 -2.61647 0
M  V30 4785 H 455.762 0.701163 -1.31924 0
M  V30 4786 H 457.644 3.83515 -1.74625 0
M  V30 4787 H 456.319 3.14401 -0.770312 0
M  V30 4788 H 455.226 2.31877 -2.93571 0
M  V30 4789 H 456.559 3.06621 -3.85026 0
M  V30 4790 N 458.211 1.37122 0.776871 0
M  V30 4791 C 459.121 1.34651 1.9211 0
M  V30 4792 C 460.137 0.246824 1.7224 0
M  V30 4793 O 461.313 0.48134 1.95563 0
M  V30 4794 C 458.378 1.14748 3.2716 0
M  V30 4795 C 457.439 2.34308 3.5972 0
M  V30 4796 C 456.672 2.15345 4.88326 0
M  V30 4797 O 456.895 1.13507 5.58992 0
M  V30 4798 O 455.829 3.03414 5.1983 0
M  V30 4799 H 459.655 2.31013 1.97146 0
M  V30 4800 H 457.24 1.17799 0.918901 0
M  V30 4801 H 459.122 1.05616 4.0795 0
M  V30 4802 H 457.797 0.214562 3.22988 0
M  V30 4803 H 456.704 2.49011 2.79185 0
M  V30 4804 H 458.037 3.26149 3.68629 0
M  V30 4805 N 459.689 -1.00246 1.21608 0
M  V30 4806 C 460.622 -2.08794 0.920892 0
M  V30 4807 C 461.6 -1.62059 -0.132552 0
M  V30 4808 O 462.784 -1.885 -0.0030366 0
M  V30 4809 C 459.911 -3.36525 0.383226 0
M  V30 4810 C 458.957 -4.02172 1.41987 0
M  V30 4811 S 459.79 -4.44256 2.98994 0
M  V30 4812 C 460.946 -5.7517 2.4684 0
M  V30 4813 H 461.179 -2.33511 1.8401 0
M  V30 4814 H 458.712 -1.13562 1.04609 0
M  V30 4815 H 460.67 -4.10423 0.0795871 0
M  V30 4816 H 459.331 -3.09854 -0.514711 0
M  V30 4817 H 458.524 -4.94114 0.993335 0
M  V30 4818 H 458.126 -3.34559 1.67171 0
M  V30 4819 H 460.418 -6.51042 1.87484 0
M  V30 4820 H 461.361 -6.22638 3.37235 0
M  V30 4821 H 461.769 -5.32112 1.88461 0
M  V30 4822 N 461.167 -1.02423 -1.1978 0
M  V30 4823 C 462.13 -0.605703 -2.21052 0
M  V30 4824 C 463.13 0.328209 -1.57415 0
M  V30 4825 O 464.32 0.115853 -1.73814 0
M  V30 4826 C 461.452 0.114366 -3.40708 0
M  V30 4827 H 462.645 -1.5017 -2.59594 0
M  V30 4828 H 460.198 -0.814888 -1.33376 0
M  V30 4829 H 460.933 1.02492 -3.07678 0
M  V30 4830 H 460.718 -0.556641 -3.88129 0
M  V30 4831 H 462.208 0.394272 -4.15735 0
M  V30 4832 N 462.645 1.35699 -0.801477 0
M  V30 4833 C 463.87 2.03687 -0.390678 0
M  V30 4834 C 464.295 1.60015 0.988778 0
M  V30 4835 O 463.653 0.774357 1.63931 0
M  V30 4836 C 463.701 3.57439 -0.476404 0
M  V30 4837 O 462.805 4.09208 0.512106 0
M  V30 4838 H 462.146 0.64344 -0.163956 0
M  V30 4839 H 464.676 1.73403 -1.08594 0
M  V30 4840 H 464.686 4.06544 -0.344357 0
M  V30 4841 H 463.361 3.88576 -1.48262 0
M  V30 4842 H 461.938 3.7134 0.340721 0
M  V30 4843 N 464.123 0.554532 1.47522 0
M  V30 4844 C 465.539 0.214107 1.58157 0
M  V30 4845 C 465.739 -1.28331 1.55349 0
M  V30 4846 O 464.795 -2.06329 1.45549 0
M  V30 4847 C 466.108 0.838391 2.88776 0
M  V30 4848 C 467.656 0.809374 3.02354 0
M  V30 4849 C 468.131 1.41268 4.35669 0
M  V30 4850 N 469.622 1.37574 4.42298 0
M  V30 4851 C 470.357 1.8122 5.4401 0
M  V30 4852 N 469.853 2.3271 6.52547 0
M  V30 4853 N 471.646 1.72307 5.35039 0
M  V30 4854 H 463.797 1.52744 1.4759 0
M  V30 4855 H 466.06 0.636812 0.702264 0
M  V30 4856 H 465.766 1.89065 2.96559 0
M  V30 4857 H 465.64 0.329847 3.75755 0
M  V30 4858 H 468.027 -0.234187 2.94169 0
M  V30 4859 H 468.108 1.35565 2.16924 0
M  V30 4860 H 467.752 2.45529 4.4461 0
M  V30 4861 H 467.682 0.841871 5.19827 0
M  V30 4862 H 470.173 0.999081 3.64454 0
M  V30 4863 H 470.486 2.63944 7.26329 0
M  V30 4864 H 468.831 2.36719 6.53444 0
M  V30 4865 H 472.022 1.3186 4.49144 0
M  V30 4866 H 472.195 2.06641 6.14169 0
M  V30 4867 N 465.601 -1.54893 0.290851 0
M  V30 4868 C 466.531 -2.26103 -0.583084 0
M  V30 4869 C 467.512 -1.25684 -1.14619 0
M  V30 4870 O 468.697 -1.54436 -1.17741 0
M  V30 4871 C 465.827 -2.99409 -1.75987 0
M  V30 4872 C 464.781 -4.0689 -1.32758 0
M  V30 4873 C 464.107 -4.67856 -2.58872 0
M  V30 4874 C 465.407 -5.20215 -0.46624 0
M  V30 4875 H 467.101 -2.99398 0.0108214 0
M  V30 4876 H 464.647 -1.43998 0.00664468 0
M  V30 4877 H 466.6 -3.47943 -2.37727 0
M  V30 4878 H 465.324 -2.23675 -2.37985 0
M  V30 4879 H 463.983 -3.59191 -0.733299 0
M  V30 4880 H 463.631 -3.88772 -3.19163 0
M  V30 4881 H 463.331 -5.40438 -2.30653 0
M  V30 4882 H 464.855 -5.19147 -3.21433 0
M  V30 4883 H 466.269 -5.64704 -0.989047 0
M  V30 4884 H 464.666 -5.99455 -0.27826 0
M  V30 4885 H 465.736 -4.82198 0.511173 0
M  V30 4886 N 467.08 -0.0183926 -1.57589 0
M  V30 4887 C 468.328 0.661253 -1.90976 0
M  V30 4888 C 468.649 1.73281 -0.894353 0
M  V30 4889 O 467.919 1.9579 0.0656788 0
M  V30 4890 H 466.499 0.247233 -0.704901 0
M  V30 4891 H 469.161 -0.0636639 -1.94796 0
M  V30 4892 H 468.257 1.12083 -2.9128 0
M  V30 4893 N 468.558 1.5553 0.254621 0
M  V30 4894 C 469.974 1.4778 0.602753 0
M  V30 4895 C 470.174 0.707047 1.88688 0
M  V30 4896 O 469.23 0.233288 2.5142 0
M  V30 4897 C 470.543 2.92133 0.712648 0
M  V30 4898 C 472.091 3.02458 0.805488 0
M  V30 4899 C 472.566 4.48102 0.947009 0
M  V30 4900 N 474.057 4.52008 1.01207 0
M  V30 4901 C 474.792 5.61939 1.1407 0
M  V30 4902 N 474.288 6.81697 1.23536 0
M  V30 4903 N 476.081 5.49719 1.17325 0
M  V30 4904 H 468.232 2.04085 -0.588463 0
M  V30 4905 H 470.495 0.926229 -0.202001 0
M  V30 4906 H 470.201 3.51332 -0.160766 0
M  V30 4907 H 470.075 3.42187 1.58707 0
M  V30 4908 H 472.462 2.43344 1.66936 0
M  V30 4909 H 472.543 2.55627 -0.0939266 0
M  V30 4910 H 472.187 5.07824 0.087725 0
M  V30 4911 H 472.117 4.92607 1.86135 0
M  V30 4912 H 474.608 3.65749 0.950577 0
M  V30 4913 H 474.921 7.61228 1.33236 0
M  V30 4914 H 473.266 6.84473 1.20508 0
M  V30 4915 H 476.457 4.55095 1.09573 0
M  V30 4916 H 476.63 6.35432 1.27005 0
M  V30 4917 N 470.036 -0.519951 1.48776 0
M  V30 4918 C 470.966 -1.63253 1.66945 0
M  V30 4919 C 471.947 -1.62014 0.518224 0
M  V30 4920 O 473.132 -1.79053 0.751919 0
M  V30 4921 C 470.262 -3.0181 1.71836 0
M  V30 4922 C 469.216 -3.17911 2.8656 0
M  V30 4923 C 468.542 -4.5763 2.76548 0
M  V30 4924 C 469.842 -2.99729 4.27738 0
M  V30 4925 H 471.536 -1.48302 2.6009 0
M  V30 4926 H 469.082 -0.712026 1.25165 0
M  V30 4927 H 471.035 -3.79525 1.83135 0
M  V30 4928 H 469.759 -3.17806 0.752775 0
M  V30 4929 H 468.418 -2.42616 2.74833 0
M  V30 4930 H 468.066 -4.70476 1.77937 0
M  V30 4931 H 467.766 -4.69346 3.53536 0
M  V30 4932 H 469.29 -5.37431 2.89828 0
M  V30 4933 H 470.704 -3.67228 4.40246 0
M  V30 4934 H 469.101 -3.22932 5.05801 0
M  V30 4935 H 470.171 -1.96047 4.43502 0
M  V30 4936 N 471.514 -1.37532 -0.769588 0
M  V30 4937 C 472.791 -1.23392 -1.51768 0
M  V30 4938 C 473.171 0.17157 -2.10402 0
M  V30 4939 O 472.519 1.17943 -1.95708 0
M  V30 4940 C 472.729 -2.33163 -2.59685 0
M  V30 4941 C 474.077 -2.70809 -3.27028 0
M  V30 4942 O 475.101 -2.32355 -2.69981 0
M  V30 4943 O 473.96 -3.37066 -4.30173 0
M  V30 4944 H 471.054 -0.481617 -0.67229 0
M  V30 4945 H 473.6 -1.49318 -0.806368 0
M  V30 4946 H 472.372 -3.27273 -2.14494 0
M  V30 4947 H 471.995 -2.08713 -3.38415 0
M  V30 4948 N 472.992 0.995999 -1.22138 0
M  V30 4949 C 473.955 2.06711 -0.990109 0
M  V30 4950 C 474.955 1.60744 0.0422978 0
M  V30 4951 O 476.145 1.73095 -0.195895 0
M  V30 4952 C 473.277 3.37288 -0.49491 0
M  V30 4953 H 474.47 2.28661 -1.94047 0
M  V30 4954 H 472.023 1.16711 -1.03963 0
M  V30 4955 H 472.758 3.21022 0.459948 0
M  V30 4956 H 472.543 3.71986 -1.23971 0
M  V30 4957 H 474.033 4.16103 -0.353253 0
M  V30 4958 N 474.47 1.03057 1.19235 0
M  V30 4959 C 475.716 0.729098 1.89241 0
M  V30 4960 C 476.049 -0.740573 1.79525 0
M  V30 4961 O 475.324 -1.53946 1.18874 0
M  V30 4962 C 475.607 1.18304 3.40112 0
M  V30 4963 C 475.46 2.71406 3.5869 0
M  V30 4964 C 476.779 0.765161 4.33397 0
M  V30 4965 H 473.898 0.266338 0.687192 0
M  V30 4966 H 476.54 1.28079 1.40341 0
M  V30 4967 H 474.69 0.713672 3.81889 0
M  V30 4968 H 476.362 3.26303 3.26074 0
M  V30 4969 H 474.605 3.11717 3.01687 0
M  V30 4970 H 475.276 2.98225 4.64506 0
M  V30 4971 H 477.752 1.16889 3.99345 0
M  V30 4972 H 476.628 1.11065 5.37546 0
M  V30 4973 H 476.889 -0.332372 4.40849 0
M  V30 4974 N 475.948 -1.35272 0.808662 0
M  V30 4975 C 476.878 -2.32315 0.234981 0
M  V30 4976 C 477.859 -1.57572 -0.64071 0
M  V30 4977 O 479.044 -1.8563 -0.570551 0
M  V30 4978 C 476.174 -3.41801 -0.615601 0
M  V30 4979 C 475.128 -4.27694 0.161767 0
M  V30 4980 C 474.454 -5.28519 -0.810649 0
M  V30 4981 C 475.754 -5.04231 1.36193 0
M  V30 4982 H 477.448 -2.80543 1.04575 0
M  V30 4983 H 474.994 -1.3488 0.504315 0
M  V30 4984 H 476.947 -4.08693 -1.02702 0
M  V30 4985 H 475.671 -2.92186 -1.45928 0
M  V30 4986 H 474.33 -3.62384 0.554382 0
M  V30 4987 H 473.978 -4.75171 -1.64988 0
M  V30 4988 H 473.678 -5.8686 -0.294822 0
M  V30 4989 H 475.202 -5.98283 -1.22023 0
M  V30 4990 H 476.616 -5.64058 1.02528 0
M  V30 4991 H 475.013 -5.72077 1.81239 0
M  V30 4992 H 476.083 -4.34753 2.14751 0
M  V30 4993 N 477.426 -0.562348 -1.47226 0
M  V30 4994 C 478.358 0.220011 -2.28142 0
M  V30 4995 C 479.371 0.874596 -1.37312 0
M  V30 4996 O 480.56 0.747583 -1.62091 0
M  V30 4997 C 477.66 1.32953 -3.11732 0
M  V30 4998 C 476.833 0.770759 -4.30556 0
M  V30 4999 C 475.892 1.76541 -4.95701 0
M  V30 5000 O 474.918 1.3095 -5.53932 0
M  V30 5001 N 476.12 3.09896 -4.90861 0
M  V30 5002 H 478.885 -0.474107 -2.95926 0
M  V30 5003 H 476.446 -0.398761 -1.56912 0
M  V30 5004 H 478.438 1.99378 -3.5218 0
M  V30 5005 H 477.008 1.92681 -2.46156 0
M  V30 5006 H 476.228 -0.0704056 -3.94137 0
M  V30 5007 H 477.516 0.376872 -5.07402 0
M  V30 5008 H 476.914 3.49577 -4.44761 0
M  V30 5009 H 475.471 3.71865 -5.35313 0
M  V30 5010 N 478.904 1.54736 -0.299062 0
M  V30 5011 C 480.32 1.59507 0.0543849 0
M  V30 5012 C 480.52 1.31606 1.52585 0
M  V30 5013 O 479.576 1.08853 2.27832 0
M  V30 5014 C 480.889 2.98751 -0.34181 0
M  V30 5015 C 482.437 3.1165 -0.290414 0
M  V30 5016 C 482.912 4.53199 -0.661402 0
M  V30 5017 N 484.403 4.59114 -0.613863 0
M  V30 5018 C 485.138 5.66709 -0.873417 0
M  V30 5019 N 484.634 6.82349 -1.19884 0
M  V30 5020 N 486.427 5.56369 -0.800608 0
M  V30 5021 H 478.578 1.71133 -1.25806 0
M  V30 5022 H 480.841 0.799186 -0.509908 0
M  V30 5023 H 480.547 3.24085 -1.36608 0
M  V30 5024 H 480.421 3.75961 0.305508 0
M  V30 5025 H 482.808 2.86066 0.724605 0
M  V30 5026 H 482.889 2.366 -0.972327 0
M  V30 5027 H 482.533 4.79513 -1.67422 0
M  V30 5028 H 482.463 5.26583 0.0425612 0
M  V30 5029 H 484.954 3.76053 -0.3732 0
M  V30 5030 H 485.267 7.60326 -1.38291 0
M  V30 5031 H 483.612 6.83906 -1.23685 0
M  V30 5032 H 486.803 4.64904 -0.546045 0
M  V30 5033 H 486.976 6.40139 -1.00626 0
M  V30 5034 N 480.382 0.0267497 1.57577 0
M  V30 5035 C 481.631 -0.651736 1.9088 0
M  V30 5036 C 481.944 -1.73427 0.904576 0
M  V30 5037 O 483.15 -2.46923 1.12877 0
M  V30 5038 C 481.606 -1.21048 3.38933 0
M  V30 5039 C 481.214 -0.161362 4.47709 0
M  V30 5040 C 482.958 -1.86562 3.81307 0
M  V30 5041 C 480.865 -0.731611 5.86857 0
M  V30 5042 H 479.795 -0.247198 0.712326 0
M  V30 5043 H 482.446 0.0916641 1.83271 0
M  V30 5044 H 480.828 -2.00542 3.41466 0
M  V30 5045 H 482.002 0.61094 4.56732 0
M  V30 5046 H 480.317 0.394877 4.14523 0
M  V30 5047 H 482.914 -2.30178 4.8262 0
M  V30 5048 H 483.257 -2.70735 3.16241 0
M  V30 5049 H 483.79 -1.13762 3.81186 0
M  V30 5050 H 480.529 0.0719329 6.55461 0
M  V30 5051 H 480.049 -1.47245 5.81445 0
M  V30 5052 H 481.728 -1.22208 6.35354 0
M  V30 5053 N 481.861 -1.55662 -0.24637 0
M  V30 5054 C 483.277 -1.48098 -0.594907 0
M  V30 5055 C 483.477 -0.717044 -1.8831 0
M  V30 5056 O 482.533 -0.246618 -2.51293 0
M  V30 5057 C 483.846 -2.92507 -0.697146 0
M  V30 5058 C 485.394 -3.02881 -0.789436 0
M  V30 5059 C 485.869 -4.48598 -0.923232 0
M  V30 5060 N 487.36 -4.52538 -0.988088 0
M  V30 5061 C 488.095 -5.62536 -1.11089 0
M  V30 5062 N 487.591 -6.82342 -1.19919 0
M  V30 5063 N 489.384 -5.50334 -1.14408 0
M  V30 5064 H 481.535 -2.0377 0.599278 0
M  V30 5065 H 483.798 -0.925145 0.20691 0
M  V30 5066 H 483.504 -3.51242 0.179396 0
M  V30 5067 H 483.378 -3.43024 -1.5689 0
M  V30 5068 H 485.765 -2.44226 -1.65643 0
M  V30 5069 H 485.846 -2.55574 0.107482 0
M  V30 5070 H 485.49 -5.07864 -0.0607927 0
M  V30 5071 H 485.42 -4.93587 -1.8352 0
M  V30 5072 H 487.911 -3.66248 -0.931167 0
M  V30 5073 H 488.224 -7.61924 -1.29197 0
M  V30 5074 H 486.569 -6.85102 -1.16876 0
M  V30 5075 H 489.76 -4.5567 -1.07158 0
M  V30 5076 H 489.933 -6.36096 -1.23634 0
M  V30 5077 N 483.339 0.512053 -1.4905 0
M  V30 5078 C 484.567 1.29116 -1.61669 0
M  V30 5079 C 484.982 1.86655 -0.283787 0
M  V30 5080 O 484.339 1.67293 0.729331 0
M  V30 5081 C 484.39 2.4293 -2.67707 0
M  V30 5082 O 484.111 1.87758 -3.95826 0
M  V30 5083 C 485.612 3.34476 -2.90931 0
M  V30 5084 H 482.832 0.392009 -0.544583 0
M  V30 5085 H 485.376 0.615881 -1.95006 0
M  V30 5086 H 483.531 3.06308 -2.37179 0
M  V30 5087 H 483.945 2.62393 -4.54148 0
M  V30 5088 H 485.419 4.10642 -3.68886 0
M  V30 5089 H 485.896 3.90801 -2.00427 0
M  V30 5090 H 486.502 2.76874 -3.22832 0
M  V30 5091 N 484.817 1.37938 0.762283 0
M  V30 5092 C 486.065 1.33404 1.51815 0
M  V30 5093 C 486.386 -0.0780975 1.94844 0
M  V30 5094 O 485.656 -1.02405 1.67003 0
M  V30 5095 H 484.236 0.490839 0.563104 0
M  V30 5096 H 486.898 1.72527 0.906669 0
M  V30 5097 H 485.994 1.97926 2.41313 0
M  V30 5098 N 486.295 -0.989507 1.22664 0
M  V30 5099 C 487.52 -1.77031 1.08051 0
M  V30 5100 C 487.945 -1.84535 -0.364483 0
M  V30 5101 O 487.303 -1.3003 -1.2634 0
M  V30 5102 C 487.351 -3.18 1.70024 0
M  V30 5103 O 486.455 -4.01161 0.956216 0
M  V30 5104 H 485.796 -0.545008 0.379292 0
M  V30 5105 H 488.326 -1.24277 1.62531 0
M  V30 5106 H 488.336 -3.68616 1.74888 0
M  V30 5107 H 487.011 -3.11853 2.75174 0
M  V30 5108 H 485.588 -3.59687 0.98384 0
M  V30 5109 N 487.773 -1.03688 -1.18687 0
M  V30 5110 C 488.736 -0.629115 -2.20397 0
M  V30 5111 C 489.736 0.311495 -1.57754 0
M  V30 5112 O 490.926 0.0974107 -1.73927 0
M  V30 5113 C 488.058 0.0782231 -3.4081 0
M  V30 5114 H 489.251 -1.52915 -2.57987 0
M  V30 5115 H 486.804 -0.828988 -1.32505 0
M  V30 5116 H 487.539 0.992233 -3.08748 0
M  V30 5117 H 487.324 -0.597776 -3.87517 0
M  V30 5118 H 488.814 0.350156 -4.16129 0
M  V30 5119 N 489.251 1.34841 -0.815825 0
M  V30 5120 C 490.181 2.32187 -0.247298 0
M  V30 5121 C 491.162 1.5791 0.632344 0
M  V30 5122 O 492.347 1.8593 0.560698 0
M  V30 5123 C 489.477 3.42122 0.597466 0
M  V30 5124 C 488.431 4.27602 -0.184446 0
M  V30 5125 C 487.757 5.28942 0.782609 0
M  V30 5126 C 489.057 5.03502 -1.38865 0
M  V30 5127 H 490.751 2.79985 -1.06061 0
M  V30 5128 H 488.297 1.34611 -0.511461 0
M  V30 5129 H 490.25 4.09232 1.00533 0
M  V30 5130 H 488.974 2.92956 1.44376 0
M  V30 5131 H 487.633 3.62085 -0.573592 0
M  V30 5132 H 487.281 4.7604 1.62466 0
M  V30 5133 H 486.981 5.87008 0.263695 0
M  V30 5134 H 488.505 5.98922 1.18848 0
M  V30 5135 H 489.919 5.63506 -1.05518 0
M  V30 5136 H 488.316 5.71108 -1.8427 0
M  V30 5137 H 489.386 4.33608 -2.17054 0
M  V30 5138 N 490.729 0.570148 1.46925 0
M  V30 5139 C 491.975 0.0510284 2.02736 0
M  V30 5140 C 492.308 -1.3006 1.44215 0
M  V30 5141 O 491.583 -1.84932 0.602521 0
M  V30 5142 C 491.866 -0.028215 3.60089 0
M  V30 5143 C 491.719 1.35142 4.29018 0
M  V30 5144 C 493.038 -0.735181 4.33916 0
M  V30 5145 H 490.157 0.0200178 0.736728 0
M  V30 5146 H 492.799 0.73493 1.75211 0
M  V30 5147 H 490.949 -0.610648 3.83671 0
M  V30 5148 H 492.621 1.97806 4.16738 0
M  V30 5149 H 490.864 1.9226 3.88868 0
M  V30 5150 H 491.535 1.24857 5.37694 0
M  V30 5151 H 494.011 -0.240519 4.15404 0
M  V30 5152 H 492.887 -0.759622 5.43618 0
M  V30 5153 H 493.148 -1.79397 4.04066 0
M  V30 5154 N 492.207 -1.54576 0.307264 0
M  V30 5155 C 493.139 -2.21212 -0.599807 0
M  V30 5156 C 494.152 -1.20685 -1.09266 0
M  V30 5157 O 495.341 -1.47244 -1.00903 0
M  V30 5158 C 492.441 -2.84994 -1.83389 0
M  V30 5159 C 491.614 -4.11511 -1.48248 0
M  V30 5160 C 490.673 -4.59038 -2.57237 0
M  V30 5161 O 489.699 -5.24095 -2.22065 0
M  V30 5162 N 490.901 -4.31884 -3.87887 0
M  V30 5163 H 493.666 -2.99686 -0.0293075 0
M  V30 5164 H 491.227 -1.61379 0.129738 0
M  V30 5165 H 493.219 -3.1372 -2.5566 0
M  V30 5166 H 491.789 -2.10324 -2.31263 0
M  V30 5167 H 491.009 -3.89728 -0.592122 0
M  V30 5168 H 492.297 -4.93879 -1.22316 0
M  V30 5169 H 491.695 -3.79778 -4.19268 0
M  V30 5170 H 490.252 -4.65304 -4.56438 0
M  V30 5171 N 493.685 -0.035106 -1.57561 0
M  V30 5172 C 495.101 0.321334 -1.56332 0
M  V30 5173 C 495.301 1.72509 -1.04129 0
M  V30 5174 O 494.357 2.4287 -0.690694 0
M  V30 5175 C 495.67 0.164469 -3.0025 0
M  V30 5176 C 497.218 0.236786 -3.12103 0
M  V30 5177 C 497.693 0.10864 -4.57871 0
M  V30 5178 N 499.184 0.165433 -4.62904 0
M  V30 5179 C 499.919 0.0901506 -5.73329 0
M  V30 5180 N 499.415 -0.0365606 -6.9279 0
M  V30 5181 N 501.208 0.144572 -5.61914 0
M  V30 5182 H 493.359 -0.952976 -1.89821 0
M  V30 5183 H 495.622 -0.368537 -0.873432 0
M  V30 5184 H 495.328 -0.802746 -3.42416 0
M  V30 5185 H 495.202 0.932194 -3.655 0
M  V30 5186 H 497.589 1.19446 -2.69845 0
M  V30 5187 H 497.67 -0.561419 -2.49563 0
M  V30 5188 H 497.314 -0.845644 -5.00811 0
M  V30 5189 H 497.244 0.925786 -5.18398 0
M  V30 5190 H 499.735 0.263269 -3.76982 0
M  V30 5191 H 500.048 -0.0871487 -7.72751 0
M  V30 5192 H 498.393 -0.0714256 -6.94963 0
M  V30 5193 H 501.584 0.242006 -4.67474 0
M  V30 5194 H 501.757 0.0824413 -6.47948 0
M  V30 5195 N 495.163 1.55791 0.238111 0
M  V30 5196 C 496.096 1.86036 1.32158 0
M  V30 5197 C 497.074 0.716216 1.45976 0
M  V30 5198 O 498.258 0.962882 1.62052 0
M  V30 5199 C 495.385 2.05281 2.69402 0
M  V30 5200 C 494.431 3.27939 2.72687 0
M  V30 5201 S 495.264 4.84342 2.28413 0
M  V30 5202 C 496.42 5.06604 3.67565 0
M  V30 5203 H 496.653 2.77644 1.06306 0
M  V30 5204 H 494.186 1.48012 0.439537 0
M  V30 5205 H 496.144 2.17053 3.48423 0
M  V30 5206 H 494.805 1.14499 2.92487 0
M  V30 5207 H 493.998 3.38398 3.73501 0
M  V30 5208 H 493.6 3.14938 2.01717 0
M  V30 5209 H 495.892 4.94486 4.6313 0
M  V30 5210 H 496.835 6.08554 3.62033 0
M  V30 5211 H 497.243 4.34409 3.60485 0
M  V30 5212 N 496.642 -0.504142 1.49319 0
M  V30 5213 C 497.589 -1.60603 1.65756 0
M  V30 5214 C 498.559 -1.58425 0.499082 0
M  V30 5215 O 499.744 -1.76459 0.725728 0
M  V30 5216 C 496.884 -2.98764 1.72726 0
M  V30 5217 C 495.997 -3.10982 2.99857 0
M  V30 5218 C 495.132 -4.39857 2.97824 0
M  V30 5219 C 494.171 -4.45697 4.19548 0
M  V30 5220 N 493.308 -5.65995 4.15444 0
M  V30 5221 H 498.148 -1.45895 2.59843 0
M  V30 5222 H 495.685 -0.709891 1.28837 0
M  V30 5223 H 497.643 -3.78839 1.74747 0
M  V30 5224 H 496.273 -3.12183 0.821075 0
M  V30 5225 H 495.325 -2.23991 3.07461 0
M  V30 5226 H 496.637 -3.11157 3.89849 0
M  V30 5227 H 495.791 -5.2825 2.98391 0
M  V30 5228 H 494.53 -4.42242 2.05604 0
M  V30 5229 H 493.535 -3.55707 4.19229 0
M  V30 5230 H 494.76 -4.4503 5.12957 0
M  V30 5231 H 492.706 -5.69229 3.26059 0
M  V30 5232 H 492.623 -5.67773 4.99169 0
M  V30 5233 H 493.891 -6.56604 4.20109 0
M  V30 5234 N 498.12 -1.38341 -0.754957 0
M  V30 5235 C 499.36 -1.35888 -1.52689 0
M  V30 5236 C 499.724 0.0513682 -1.91931 0
M  V30 5237 O 500.925 0.200761 -2.68049 0
M  V30 5238 C 499.196 -2.28666 -2.74676 0
M  V30 5239 S 500.755 -2.4422 -3.64558 0
M  V30 5240 H 497.573 -0.482165 -0.522531 0
M  V30 5241 H 500.175 -1.74253 -0.886358 0
M  V30 5242 H 498.879 -3.30023 -2.43953 0
M  V30 5243 H 498.41 -1.91445 -3.43675 0
M  V30 5244 H 500.425 -1.66525 -4.67423 0
M  V30 5245 N 499.598 0.982988 -1.23187 0
M  V30 5246 C 500.828 1.75666 -1.08743 0
M  V30 5247 C 501.236 1.85662 0.364195 0
M  V30 5248 O 500.579 1.33317 1.26382 0
M  V30 5249 C 500.641 3.20144 -1.63549 0
M  V30 5250 C 500.305 3.33665 -3.12277 0
M  V30 5251 C 501.302 3.20194 -4.096 0
M  V30 5252 C 498.987 3.58397 -3.51933 0
M  V30 5253 C 500.981 3.31256 -5.44563 0
M  V30 5254 C 498.668 3.69098 -4.87042 0
M  V30 5255 C 499.666 3.55537 -5.83166 0
M  V30 5256 O 499.354 3.65864 -7.1582 0
M  V30 5257 H 499.086 0.558194 -0.381307 0
M  V30 5258 H 501.64 1.24387 -1.63454 0
M  V30 5259 H 499.87 3.72659 -1.03256 0
M  V30 5260 H 501.559 3.79262 -1.4462 0
M  V30 5261 H 502.325 3.00987 -3.80305 0
M  V30 5262 H 498.204 3.68025 -2.77631 0
M  V30 5263 H 501.748 3.20588 -6.19572 0
M  V30 5264 H 497.645 3.87814 -5.16014 0
M  V30 5265 H 498.413 3.82675 -7.23534 0
M  V30 5266 N 501.076 1.04316 1.18135 0
M  V30 5267 C 502.039 0.640794 2.2006 0
M  V30 5268 C 503.039 -0.303124 1.57917 0
M  V30 5269 O 504.229 -0.0881855 1.73977 0
M  V30 5270 C 501.361 -0.060148 3.40847 0
M  V30 5271 H 502.554 1.54281 2.57172 0
M  V30 5272 H 500.107 0.836004 1.32063 0
M  V30 5273 H 500.842 -0.975845 3.0927 0
M  V30 5274 H 500.627 0.618319 3.87194 0
M  V30 5275 H 502.117 -0.328082 4.16309 0
M  V30 5276 N 502.554 -1.34406 0.822964 0
M  V30 5277 C 503.779 -2.0304 0.423034 0
M  V30 5278 C 504.204 -1.61568 -0.963196 0
M  V30 5279 O 503.562 -0.800339 -1.62678 0
M  V30 5280 C 503.61 -3.56636 0.53321 0
M  V30 5281 O 502.714 -4.09971 -0.446939 0
M  V30 5282 H 502.055 -0.64075 0.174171 0
M  V30 5283 H 504.585 -1.71653 1.11339 0
M  V30 5284 H 504.595 -4.05945 0.408991 0
M  V30 5285 H 503.27 -3.86168 1.54425 0
M  V30 5286 H 501.847 -3.71835 -0.281601 0
M  V30 5287 N 504.032 -0.577932 -1.46621 0
M  V30 5288 C 505.309 0.00495287 -1.95599 0
M  V30 5289 C 505.689 1.46428 -1.5206 0
M  V30 5290 O 505.037 2.1517 -0.769046 0
M  V30 5291 C 505.247 -0.162114 -3.48623 0
M  V30 5292 C 506.595 -0.0274623 -4.24591 0
M  V30 5293 O 507.619 -0.0907067 -3.56084 0
M  V30 5294 O 506.478 0.1122 -5.46385 0
M  V30 5295 H 503.572 0.0525057 -0.825332 0
M  V30 5296 H 506.118 -0.645914 -1.56927 0
M  V30 5297 H 504.89 -1.17679 -3.73185 0
M  V30 5298 H 504.513 0.525407 -3.94113 0
M  V30 5299 N 505.51 1.54411 -0.315457 0
M  V30 5300 C 506.442 2.21527 0.588067 0
M  V30 5301 C 507.455 1.21263 1.08624 0
M  V30 5302 O 508.644 1.47777 1.00121 0
M  V30 5303 C 505.744 2.85963 1.81875 0
M  V30 5304 C 504.917 4.12291 1.46063 0
M  V30 5305 C 503.976 4.60396 2.54799 0
M  V30 5306 O 503.002 5.25265 2.19283 0
M  V30 5307 N 504.204 4.33935 3.85591 0
M  V30 5308 H 506.969 2.99697 0.013414 0
M  V30 5309 H 504.53 1.61308 -0.138295 0
M  V30 5310 H 506.522 3.15071 2.53993 0
M  V30 5311 H 505.092 2.11548 2.30144 0
M  V30 5312 H 504.312 3.90036 0.571445 0
M  V30 5313 H 505.6 4.9452 1.19695 0
M  V30 5314 H 504.998 3.81996 4.17248 0
M  V30 5315 H 503.555 4.67718 4.53964 0
M  V30 5316 N 506.988 0.0434614 1.5754 0
M  V30 5317 C 507.898 -0.94893 2.14552 0
M  V30 5318 C 508.914 -1.34707 1.10136 0
M  V30 5319 O 510.09 -1.42557 1.42266 0
M  V30 5320 C 507.155 -2.208 2.67298 0
M  V30 5321 C 506.216 -1.86893 3.86484 0
M  V30 5322 C 505.449 -3.06797 4.36705 0
M  V30 5323 O 505.672 -4.19921 3.86034 0
M  V30 5324 O 504.606 -2.8826 5.28384 0
M  V30 5325 H 508.432 -0.494099 2.99654 0
M  V30 5326 H 506.017 -0.177989 1.48336 0
M  V30 5327 H 507.899 -2.94686 3.01228 0
M  V30 5328 H 506.574 -2.65436 1.85272 0
M  V30 5329 H 505.481 -1.10347 3.57455 0
M  V30 5330 H 506.814 -1.47062 4.69716 0
M  V30 5331 N 508.466 -1.55915 -0.229846 0
M  V30 5332 C 509.712 -1.78807 -0.956868 0
M  V30 5333 C 510.045 -0.611687 -1.84315 0
M  V30 5334 O 509.32 0.389398 -1.90562 0
M  V30 5335 C 509.603 -3.11718 -1.80288 0
M  V30 5336 C 509.456 -4.3979 -0.943649 0
M  V30 5337 C 510.775 -3.40999 -2.78222 0
M  V30 5338 H 507.894 -0.6505 -0.346437 0
M  V30 5339 H 510.536 -1.88648 -0.226252 0
M  V30 5340 H 508.686 -3.03459 -2.42579 0
M  V30 5341 H 510.358 -4.60059 -0.338121 0
M  V30 5342 H 508.601 -4.33086 -0.248705 0
M  V30 5343 H 509.272 -5.29208 -1.5698 0
M  V30 5344 H 511.748 -3.49332 -2.26067 0
M  V30 5345 H 510.624 -4.35183 -3.34526 0
M  V30 5346 H 510.885 -2.62754 -3.55546 0
M  V30 5347 N 509.944 0.496216 -1.49584 0
M  V30 5348 C 510.874 1.60576 -1.69521 0
M  V30 5349 C 511.855 1.61169 -0.543933 0
M  V30 5350 O 513.04 1.77834 -0.78031 0
M  V30 5351 C 510.17 2.99038 -1.76616 0
M  V30 5352 C 509.124 3.13312 -2.91581 0
M  V30 5353 C 508.45 4.53172 -2.83794 0
M  V30 5354 C 509.75 2.92886 -4.32452 0
M  V30 5355 H 511.444 1.44146 -2.62416 0
M  V30 5356 H 508.99 0.692024 -1.26282 0
M  V30 5357 H 510.943 3.76564 -1.8915 0
M  V30 5358 H 509.667 3.16568 -0.80324 0
M  V30 5359 H 508.326 2.38213 -2.78658 0
M  V30 5360 H 507.974 4.67585 -1.854 0
M  V30 5361 H 507.674 4.63662 -3.60958 0
M  V30 5362 H 509.198 5.32752 -2.98342 0
M  V30 5363 H 510.612 3.60178 -4.46032 0
M  V30 5364 H 509.009 3.14844 -5.10875 0
M  V30 5365 H 510.079 1.88966 -4.46565 0
M  V30 5366 N 511.423 1.38739 0.74761 0
M  V30 5367 C 512.7 1.25791 1.49786 0
M  V30 5368 C 513.08 -0.138075 2.10648 0
M  V30 5369 O 512.428 -1.14815 1.9756 0
M  V30 5370 C 512.638 2.37265 2.55942 0
M  V30 5371 C 513.986 2.75978 3.22679 0
M  V30 5372 O 515.01 2.36621 2.6625 0
M  V30 5373 O 513.869 3.43867 4.24756 0
M  V30 5374 H 510.963 0.492251 0.664543 0
M  V30 5375 H 513.509 1.50582 0.782511 0
M  V30 5376 H 512.281 3.30644 2.0926 0
M  V30 5377 H 511.904 2.14071 3.35051 0
M  V30 5378 N 512.901 -0.976442 1.23707 0
M  V30 5379 C 513.834 -2.06793 0.964973 0
M  V30 5380 C 514.812 -1.62304 -0.0981472 0
M  V30 5381 O 515.996 -1.88464 0.0369477 0
M  V30 5382 C 513.123 -3.35636 0.454522 0
M  V30 5383 C 512.169 -3.99069 1.50485 0
M  V30 5384 S 513.002 -4.37814 3.0835 0
M  V30 5385 C 514.158 -5.69805 2.58985 0
M  V30 5386 H 514.391 -2.29556 1.88922 0
M  V30 5387 H 511.924 -1.11317 1.06995 0
M  V30 5388 H 513.882 -4.10162 0.166626 0
M  V30 5389 H 512.543 -3.10876 -0.448871 0
M  V30 5390 H 511.736 -4.91896 1.09792 0
M  V30 5391 H 511.338 -3.30938 1.7423 0
M  V30 5392 H 513.63 -6.46919 2.01252 0
M  V30 5393 H 514.573 -6.15345 3.50366 0
M  V30 5394 H 514.981 -5.27994 1.99705 0
M  V30 5395 N 514.379 -1.04941 -1.1758 0
M  V30 5396 C 515.329 -0.618378 -2.19454 0
M  V30 5397 C 516.313 0.343813 -1.57184 0
M  V30 5398 O 517.505 0.16145 -1.76262 0
M  V30 5399 C 514.634 0.00803847 -3.43299 0
M  V30 5400 C 513.72 -0.977827 -4.12673 0
M  V30 5401 N 514.111 -2.14826 -4.57912 0
M  V30 5402 C 512.409 -0.805748 -4.38661 0
M  V30 5403 C 513.11 -2.77174 -5.11419 0
M  V30 5404 N 512.086 -2.04989 -5.03468 0
M  V30 5405 H 515.888 -1.51018 -2.52132 0
M  V30 5406 H 513.402 -0.919201 -1.33882 0
M  V30 5407 H 515.399 0.334584 -4.15555 0
M  V30 5408 H 514.059 0.895272 -3.12114 0
M  V30 5409 H 515.07 -2.52673 -4.52081 0
M  V30 5410 H 511.747 0.0306506 -4.17489 0
M  V30 5411 H 513.137 -3.76416 -5.56562 0
M  V30 5412 N 515.857 1.33968 -0.830081 0
M  V30 5413 C 517.105 1.97672 -0.420734 0
M  V30 5414 C 517.426 1.66111 1.02138 0
M  V30 5415 O 516.696 0.955503 1.71017 0
M  V30 5416 H 515.276 0.73125 -0.152587 0
M  V30 5417 H 517.938 1.63483 -1.0611 0
M  V30 5418 H 517.034 3.07294 -0.545588 0
M  V30 5419 N 517.335 0.585699 1.46312 0
M  V30 5420 C 518.582 0.0724211 2.0237 0
M  V30 5421 C 518.91 -1.28868 1.45683 0
M  V30 5422 O 518.165 -1.85853 0.612945 0
M  V30 5423 C 518.464 -0.0401312 3.57377 0
M  V30 5424 C 518.13 1.25376 4.33119 0
M  V30 5425 C 516.792 1.60824 4.5353 0
M  V30 5426 C 519.144 2.10987 4.76586 0
M  V30 5427 C 516.472 2.81676 5.14661 0
M  V30 5428 C 518.824 3.31068 5.39052 0
M  V30 5429 C 517.488 3.66794 5.5769 0
M  V30 5430 H 516.758 0.0265007 0.740526 0
M  V30 5431 H 519.405 0.762935 1.75646 0
M  V30 5432 H 517.71 -0.813791 3.83255 0
M  V30 5433 H 519.407 -0.453078 3.98432 0
M  V30 5434 H 515.997 0.967808 4.1753 0
M  V30 5435 H 520.181 1.84904 4.60569 0
M  V30 5436 H 515.437 3.0949 5.27282 0
M  V30 5437 H 519.611 3.97672 5.71691 0
M  V30 5438 H 517.238 4.60529 6.04828 0
M  V30 5439 N 518.813 -1.54241 0.323641 0
M  V30 5440 C 519.743 -2.27289 -0.534993 0
M  V30 5441 C 520.724 -1.28087 -1.11927 0
M  V30 5442 O 521.909 -1.56899 -1.14439 0
M  V30 5443 C 519.039 -3.03075 -1.69596 0
M  V30 5444 C 517.993 -4.09614 -1.24098 0
M  V30 5445 C 517.319 -4.73242 -2.4889 0
M  V30 5446 C 518.619 -5.21087 -0.355789 0
M  V30 5447 H 520.313 -2.99308 0.0743257 0
M  V30 5448 H 517.859 -1.43952 0.0371874 0
M  V30 5449 H 519.812 -3.52907 -2.30293 0
M  V30 5450 H 518.536 -2.28673 -2.33187 0
M  V30 5451 H 517.195 -3.60666 -0.656945 0
M  V30 5452 H 516.843 -3.95455 -3.10845 0
M  V30 5453 H 516.543 -5.45209 -2.19138 0
M  V30 5454 H 518.067 -5.25848 -3.10348 0
M  V30 5455 H 519.481 -5.66675 -0.869042 0
M  V30 5456 H 517.878 -5.9991 -0.151045 0
M  V30 5457 H 518.948 -4.81005 0.613339 0
M  V30 5458 N 520.291 -0.0518155 -1.57515 0
M  V30 5459 C 521.707 0.304735 -1.56664 0
M  V30 5460 C 521.907 1.71395 -1.05953 0
M  V30 5461 O 520.963 2.42123 -0.716414 0
M  V30 5462 C 522.276 0.132614 -3.00407 0
M  V30 5463 C 523.824 0.20367 -3.12337 0
M  V30 5464 C 524.299 0.0600706 -4.57961 0
M  V30 5465 N 525.79 0.116326 -4.63054 0
M  V30 5466 C 526.525 0.0293363 -5.73392 0
M  V30 5467 N 526.021 -0.110038 -6.92713 0
M  V30 5468 N 527.814 0.0849651 -5.62036 0
M  V30 5469 H 519.965 -0.973056 -1.888 0
M  V30 5470 H 522.228 -0.377781 -0.869474 0
M  V30 5471 H 521.934 -0.839019 -3.41546 0
M  V30 5472 H 521.808 0.893376 -3.66468 0
M  V30 5473 H 524.195 1.16578 -2.71097 0
M  V30 5474 H 524.276 -0.587857 -2.48954 0
M  V30 5475 H 523.92 -0.898715 -4.99886 0
M  V30 5476 H 523.85 0.87075 -5.19351 0
M  V30 5477 H 526.341 0.22327 -3.7724 0
M  V30 5478 H 526.654 -0.169104 -7.72615 0
M  V30 5479 H 524.999 -0.145132 -6.94848 0
M  V30 5480 H 528.19 0.192411 -4.67704 0
M  V30 5481 H 528.363 0.0137131 -6.47999 0
M  V30 5482 N 521.769 1.56035 0.221574 0
M  V30 5483 C 522.701 1.889 1.29805 0
M  V30 5484 C 523.714 0.777269 1.43047 0
M  V30 5485 O 524.903 1.05557 1.43945 0
M  V30 5486 C 522.003 2.0825 2.67367 0
M  V30 5487 C 521.176 3.39267 2.76073 0
M  V30 5488 C 520.235 3.48049 3.94649 0
M  V30 5489 O 519.261 4.2108 3.82988 0
M  V30 5490 N 520.463 2.79191 5.08953 0
M  V30 5491 H 523.228 2.81831 1.01938 0
M  V30 5492 H 520.789 1.5658 0.411612 0
M  V30 5493 H 522.781 2.11441 3.45072 0
M  V30 5494 H 521.351 1.21944 2.87834 0
M  V30 5495 H 520.571 3.48175 1.84846 0
M  V30 5496 H 521.859 4.25575 2.7886 0
M  V30 5497 H 521.257 2.19635 5.21322 0
M  V30 5498 H 519.814 2.88043 5.84701 0
M  V30 5499 N 523.247 -0.488276 1.49845 0
M  V30 5500 C 524.21 -1.57069 1.66919 0
M  V30 5501 C 525.21 -1.51445 0.540479 0
M  V30 5502 O 526.4 -1.5437 0.807188 0
M  V30 5503 C 523.532 -2.96718 1.67844 0
M  V30 5504 H 524.725 -1.43254 2.63474 0
M  V30 5505 H 522.278 -0.713435 1.39068 0
M  V30 5506 H 523.013 -3.15996 0.7292 0
M  V30 5507 H 522.798 -3.02208 2.49826 0
M  V30 5508 H 524.288 -3.75335 1.83066 0
M  V30 5509 N 524.725 -1.39134 -0.740242 0
M  V30 5510 C 525.655 -1.40165 -1.86751 0
M  V30 5511 C 526.636 -0.265708 -1.68012 0
M  V30 5512 O 527.821 -0.47076 -1.88408 0
M  V30 5513 C 524.951 -1.2392 -3.2444 0
M  V30 5514 C 523.905 -2.34858 -3.57807 0
M  V30 5515 C 523.231 -2.03707 -4.94376 0
M  V30 5516 C 524.531 -3.77159 -3.61315 0
M  V30 5517 H 526.225 -2.345 -1.86145 0
M  V30 5518 H 523.771 -1.12875 -0.89416 0
M  V30 5519 H 525.724 -1.23263 -4.02969 0
M  V30 5520 H 524.448 -0.26051 -3.25559 0
M  V30 5521 H 523.107 -2.34723 -2.81604 0
M  V30 5522 H 522.755 -1.04289 -4.9207 0
M  V30 5523 H 522.455 -2.78016 -5.17669 0
M  V30 5524 H 523.979 -2.04691 -5.75268 0
M  V30 5525 H 525.393 -3.79252 -4.29931 0
M  V30 5526 H 523.79 -4.50784 -3.96124 0
M  V30 5527 H 524.86 -4.08513 -2.61238 0
M  V30 5528 N 526.204 0.969867 -1.24223 0
M  V30 5529 C 527.444 1.72754 -1.0925 0
M  V30 5530 C 527.808 1.88541 0.362787 0
M  V30 5531 O 529.009 2.61217 0.633969 0
M  V30 5532 C 527.28 3.08204 -1.80957 0
M  V30 5533 S 528.839 3.99418 -1.81688 0
M  V30 5534 H 525.657 0.593981 -0.390778 0
M  V30 5535 H 528.259 1.15792 -1.5752 0
M  V30 5536 H 526.963 2.94372 -2.85961 0
M  V30 5537 H 526.494 3.70232 -1.33012 0
M  V30 5538 H 528.509 4.8828 -0.883001 0
M  V30 5539 N 527.682 1.05563 1.17022 0
M  V30 5540 C 529.098 0.777684 1.39371 0
M  V30 5541 C 529.298 -0.626269 1.91521 0
M  V30 5542 O 528.354 -1.38806 2.10924 0
M  V30 5543 C 529.667 1.83642 2.3811 0
M  V30 5544 C 531.215 1.85907 2.51809 0
M  V30 5545 C 531.69 2.90813 3.53824 0
M  V30 5546 N 533.181 2.898 3.61345 0
M  V30 5547 C 533.916 3.6762 4.40049 0
M  V30 5548 N 533.412 4.55237 5.22237 0
M  V30 5549 N 535.205 3.56044 4.34959 0
M  V30 5550 H 527.356 1.9614 0.815047 0
M  V30 5551 H 529.619 0.849527 0.420722 0
M  V30 5552 H 529.325 2.84425 2.06871 0
M  V30 5553 H 529.199 1.6812 3.37662 0
M  V30 5554 H 531.586 0.857865 2.82356 0
M  V30 5555 H 531.667 2.05506 1.52318 0
M  V30 5556 H 531.311 3.91122 3.24015 0
M  V30 5557 H 531.241 2.68465 4.53028 0
M  V30 5558 H 533.732 2.26274 3.02669 0
M  V30 5559 H 534.045 5.11291 5.79484 0
M  V30 5560 H 532.39 4.59296 5.21605 0
M  V30 5561 H 535.581 2.86986 3.69806 0
M  V30 5562 H 535.754 4.16938 4.96051 0
M  V30 5563 N 529.16 -1.33526 0.837174 0
M  V30 5564 C 530.09 -2.31764 0.284206 0
M  V30 5565 C 531.071 -1.58896 -0.607142 0
M  V30 5566 O 532.256 -1.86798 -0.531047 0
M  V30 5567 C 529.386 -3.43029 -0.542962 0
M  V30 5568 C 528.34 -4.27255 0.252451 0
M  V30 5569 C 527.666 -5.3012 -0.69836 0
M  V30 5570 C 528.966 -5.01229 1.46858 0
M  V30 5571 H 530.66 -2.78262 1.10502 0
M  V30 5572 H 528.206 -1.3378 0.532812 0
M  V30 5573 H 530.159 -4.1078 -0.940096 0
M  V30 5574 H 528.883 -2.95216 -1.39697 0
M  V30 5575 H 527.542 -3.61127 0.631124 0
M  V30 5576 H 527.19 -4.78564 -1.54872 0
M  V30 5577 H 526.89 -5.87353 -0.170274 0
M  V30 5578 H 528.414 -6.00737 -1.09305 0
M  V30 5579 H 529.828 -5.61756 1.14469 0
M  V30 5580 H 528.225 -5.68104 1.93333 0
M  V30 5581 H 529.295 -4.301 2.23924 0
M  V30 5582 N 530.638 -0.59345 -1.46 0
M  V30 5583 C 532.054 -0.255965 -1.57534 0
M  V30 5584 C 532.254 1.24167 -1.58697 0
M  V30 5585 O 531.31 2.02398 -1.50968 0
M  V30 5586 C 532.623 -0.91466 -2.86451 0
M  V30 5587 C 534.171 -0.889253 -3.00102 0
M  V30 5588 C 534.646 -1.52769 -4.3177 0
M  V30 5589 N 536.137 -1.49253 -4.38495 0
M  V30 5590 C 536.872 -1.9558 -5.39014 0
M  V30 5591 N 536.368 -2.49929 -6.46148 0
M  V30 5592 N 538.161 -1.86432 -5.30282 0
M  V30 5593 H 530.312 -1.56604 -1.43489 0
M  V30 5594 H 532.575 -0.655207 -0.685133 0
M  V30 5595 H 532.281 -1.96861 -2.91442 0
M  V30 5596 H 532.155 -0.429356 -3.74748 0
M  V30 5597 H 534.542 0.156111 -2.94687 0
M  V30 5598 H 534.623 -1.41268 -2.13253 0
M  V30 5599 H 534.267 -2.57231 -4.37944 0
M  V30 5600 H 534.197 -0.979398 -5.17412 0
M  V30 5601 H 536.688 -1.09536 -3.61677 0
M  V30 5602 H 537.001 -2.83109 -7.19075 0
M  V30 5603 H 535.346 -2.53961 -6.46938 0
M  V30 5604 H 538.537 -1.43722 -4.4549 0
M  V30 5605 H 538.71 -2.22852 -6.08474 0
M  V30 5606 N 532.116 1.54067 -0.331816 0
M  V30 5607 C 533.048 2.22139 0.564538 0
M  V30 5608 C 534.061 1.22408 1.07332 0
M  V30 5609 O 535.25 1.4883 0.985481 0
M  V30 5610 C 532.35 2.87876 1.78831 0
M  V30 5611 C 531.523 4.13817 1.41682 0
M  V30 5612 C 530.582 4.63072 2.49901 0
M  V30 5613 O 529.608 5.27562 2.13699 0
M  V30 5614 N 530.81 4.38001 3.80967 0
M  V30 5615 H 533.575 2.99694 -0.0183736 0
M  V30 5616 H 531.136 1.61153 -0.155396 0
M  V30 5617 H 533.128 3.17747 2.50637 0
M  V30 5618 H 531.698 2.13977 2.27887 0
M  V30 5619 H 530.918 3.9062 0.530044 0
M  V30 5620 H 532.206 4.95762 1.14443 0
M  V30 5621 H 531.604 3.864 4.13173 0
M  V30 5622 H 530.161 4.72507 4.48977 0
M  V30 5623 N 533.594 0.0601682 1.57485 0
M  V30 5624 C 534.504 -0.926121 2.15546 0
M  V30 5625 C 535.52 -1.33532 1.11558 0
M  V30 5626 O 536.696 -1.4104 1.4377 0
M  V30 5627 C 533.761 -2.17952 2.69625 0
M  V30 5628 C 532.822 -1.82783 3.88444 0
M  V30 5629 C 532.055 -3.02148 4.39935 0
M  V30 5630 O 532.278 -4.15803 3.90466 0
M  V30 5631 O 531.212 -2.82639 5.31412 0
M  V30 5632 H 535.038 -0.462289 3.00161 0
M  V30 5633 H 532.623 -0.162246 1.48516 0
M  V30 5634 H 534.505 -2.91474 3.04337 0
M  V30 5635 H 533.18 -2.63456 1.88077 0
M  V30 5636 H 532.087 -1.06549 3.58606 0
M  V30 5637 H 533.42 -1.42072 4.7125 0
M  V30 5638 N 535.072 -1.5615 -0.213296 0
M  V30 5639 C 535.982 -1.96265 -1.28519 0
M  V30 5640 C 536.998 -0.86765 -1.50824 0
M  V30 5641 O 538.174 -1.17191 -1.63793 0
M  V30 5642 C 535.239 -2.27836 -2.61327 0
M  V30 5643 C 534.3 -3.50949 -2.47252 0
M  V30 5644 C 533.533 -3.81004 -3.73727 0
M  V30 5645 O 533.756 -3.12612 -4.77106 0
M  V30 5646 O 532.69 -4.74477 -3.70344 0
M  V30 5647 H 536.516 -2.87631 -0.974795 0
M  V30 5648 H 534.101 -1.43467 -0.416832 0
M  V30 5649 H 535.983 -2.49299 -3.39747 0
M  V30 5650 H 534.658 -1.39643 -2.9203 0
M  V30 5651 H 533.565 -3.34754 -1.67004 0
M  V30 5652 H 534.898 -4.39551 -2.21486 0
M  V30 5653 N 536.55 0.480323 -1.50102 0
M  V30 5654 C 537.961 1.06142 -1.53593 0
M  V30 5655 C 538.312 1.93335 -0.334055 0
M  V30 5656 O 537.437 2.09188 0.55403 0
M  V30 5657 C 538.032 1.9317 -2.78336 0
M  V30 5658 C 536.591 2.46405 -2.84538 0
M  V30 5659 C 535.738 1.24521 -2.4777 0
M  V30 5660 H 538.689 0.26333 -1.565 0
M  V30 5661 H 538.71 2.78123 -2.59669 0
M  V30 5662 H 538.222 1.29683 -3.65792 0
M  V30 5663 H 536.323 3.13472 -2.01411 0
M  V30 5664 H 536.436 2.82143 -3.87211 0
M  V30 5665 H 534.8 1.57706 -2.00003 0
M  V30 5666 H 535.583 0.627102 -3.37524 0
M  V30 5667 N 538.028 1.39524 0.732853 0
M  V30 5668 C 538.96 1.34318 1.85718 0
M  V30 5669 C 539.973 0.251576 1.60844 0
M  V30 5670 O 541.162 0.510685 1.71039 0
M  V30 5671 C 538.262 1.06334 3.21786 0
M  V30 5672 C 537.435 2.26813 3.73998 0
M  V30 5673 C 536.494 1.95253 4.88634 0
M  V30 5674 O 535.52 2.67957 5.02183 0
M  V30 5675 N 536.722 0.919984 5.73164 0
M  V30 5676 H 539.487 2.3121 1.90688 0
M  V30 5677 H 537.048 1.33654 0.91368 0
M  V30 5678 H 539.04 0.832363 3.96048 0
M  V30 5679 H 537.61 0.181682 3.12072 0
M  V30 5680 H 536.83 2.65849 2.91064 0
M  V30 5681 H 538.118 3.0717 4.05616 0
M  V30 5682 H 537.516 0.317487 5.64808 0
M  V30 5683 H 536.073 0.748905 6.47483 0
M  V30 5684 N 539.506 -0.963266 1.24736 0
M  V30 5685 C 540.731 -1.74699 1.11781 0
M  V30 5686 C 541.156 -1.85267 -0.325258 0
M  V30 5687 O 540.514 -1.32681 -1.23553 0
M  V30 5688 C 540.562 -3.14322 1.76731 0
M  V30 5689 O 539.666 -3.99043 1.04109 0
M  V30 5690 H 539.007 -0.53684 0.390767 0
M  V30 5691 H 541.537 -1.20801 1.65131 0
M  V30 5692 H 541.547 -3.64824 1.82668 0
M  V30 5693 H 540.222 -3.05946 2.81726 0
M  V30 5694 H 538.799 -3.5752 1.05991 0
M  V30 5695 N 540.985 -1.06182 -1.16461 0
M  V30 5696 C 541.915 -0.692861 -2.22984 0
M  V30 5697 C 542.896 0.314122 -1.67174 0
M  V30 5698 O 544.081 0.189499 -1.93273 0
M  V30 5699 C 541.211 -0.07732 -3.47214 0
M  V30 5700 C 540.165 -1.01015 -4.15909 0
M  V30 5701 C 539.491 -0.257973 -5.34077 0
M  V30 5702 C 540.791 -2.33868 -4.67015 0
M  V30 5703 H 542.485 -1.58343 -2.54102 0
M  V30 5704 H 540.031 -0.76279 -1.22137 0
M  V30 5705 H 541.984 0.19266 -4.20959 0
M  V30 5706 H 540.708 0.848254 -3.15392 0
M  V30 5707 H 539.367 -1.26486 -3.44088 0
M  V30 5708 H 539.015 0.670684 -4.98509 0
M  V30 5709 H 538.715 -0.879638 -5.80979 0
M  V30 5710 H 540.239 0.00448788 -6.106 0
M  V30 5711 H 541.653 -2.1279 -5.32347 0
M  V30 5712 H 540.05 -2.91522 -5.24533 0
M  V30 5713 H 541.12 -2.97019 -3.83286 0
M  V30 5714 N 542.463 1.3308 -0.844243 0
M  V30 5715 C 543.395 2.27954 -0.238671 0
M  V30 5716 C 544.408 1.51978 0.583665 0
M  V30 5717 O 545.597 1.73731 0.409857 0
M  V30 5718 C 542.697 3.31963 0.682185 0
M  V30 5719 C 541.87 4.37281 -0.101998 0
M  V30 5720 C 540.929 5.20928 0.743022 0
M  V30 5721 O 539.955 5.68914 0.180285 0
M  V30 5722 N 541.157 5.42738 2.0595 0
M  V30 5723 H 543.922 2.8056 -1.05386 0
M  V30 5724 H 541.483 1.4583 -0.70322 0
M  V30 5725 H 543.475 3.84828 1.25259 0
M  V30 5726 H 542.045 2.79594 1.39808 0
M  V30 5727 H 541.265 3.84843 -0.853802 0
M  V30 5728 H 542.553 5.04746 -0.641015 0
M  V30 5729 H 541.951 5.05463 2.54016 0
M  V30 5730 H 540.508 5.98639 2.57827 0
M  V30 5731 N 543.941 0.601185 1.45683 0
M  V30 5732 C 544.904 -0.111398 2.28929 0
M  V30 5733 C 545.904 -0.801246 1.39416 0
M  V30 5734 O 547.094 -0.650383 1.61603 0
M  V30 5735 C 544.226 -1.16773 3.20276 0
M  V30 5736 H 545.419 0.620412 2.93413 0
M  V30 5737 H 542.972 0.359946 1.52099 0
M  V30 5738 H 543.707 -1.93051 2.60579 0
M  V30 5739 H 543.492 -0.677358 3.86205 0
M  V30 5740 H 544.982 -1.66698 3.82886 0
M  V30 5741 N 545.419 -1.53889 0.339982 0
M  V30 5742 C 546.382 -2.23547 -0.50592 0
M  V30 5743 C 547.382 -1.23445 -1.03044 0
M  V30 5744 O 548.572 -1.47909 -0.920253 0
M  V30 5745 C 545.704 -2.95234 -1.7044 0
M  V30 5746 H 546.897 -2.99722 0.103247 0
M  V30 5747 H 544.45 -1.56033 0.0912804 0
M  V30 5748 H 545.185 -2.23236 -2.35236 0
M  V30 5749 H 544.97 -3.68654 -1.33553 0
M  V30 5750 H 546.46 -3.48258 -2.30447 0
M  V30 5751 N 546.897 -0.0685191 -1.57451 0
M  V30 5752 C 548.143 0.602239 -1.93652 0
M  V30 5753 C 548.476 1.6946 -0.948526 0
M  V30 5754 O 547.751 1.94487 0.022782 0
M  V30 5755 C 548.034 1.18223 -3.4014 0
M  V30 5756 C 547.887 0.0967431 -4.49696 0
M  V30 5757 C 549.206 2.08872 -3.87377 0
M  V30 5758 H 546.325 0.217453 -0.70419 0
M  V30 5759 H 548.967 -0.133821 -1.89528 0
M  V30 5760 H 547.117 1.80953 -3.43785 0
M  V30 5761 H 548.789 -0.536155 -4.58174 0
M  V30 5762 H 547.032 -0.573063 -4.29998 0
M  V30 5763 H 547.703 0.542894 -5.49324 0
M  V30 5764 H 550.179 1.56081 -3.85717 0
M  V30 5765 H 549.055 2.46389 -4.90493 0
M  V30 5766 H 549.316 2.99572 -3.25129 0
M  V30 5767 N 548.375 1.56261 0.205012 0
M  V30 5768 C 549.791 1.49623 0.555433 0
M  V30 5769 C 549.991 0.766719 1.86343 0
M  V30 5770 O 549.047 0.313158 2.50551 0
M  V30 5771 C 550.36 2.94253 0.619347 0
M  V30 5772 C 551.908 3.04868 0.708855 0
M  V30 5773 C 552.383 4.50888 0.803969 0
M  V30 5774 N 553.874 4.54999 0.867758 0
M  V30 5775 C 554.609 5.65284 0.96135 0
M  V30 5776 N 554.105 6.85282 1.01786 0
M  V30 5777 N 555.898 5.53174 0.997771 0
M  V30 5778 H 548.049 2.0211 -0.653094 0
M  V30 5779 H 550.312 0.919333 -0.231366 0
M  V30 5780 H 550.018 3.50643 -0.272458 0
M  V30 5781 H 549.892 3.47063 1.47741 0
M  V30 5782 H 552.279 2.48532 1.5911 0
M  V30 5783 H 552.36 2.55199 -0.175205 0
M  V30 5784 H 552.004 5.07846 -0.0738798 0
M  V30 5785 H 551.934 4.98279 1.70369 0
M  V30 5786 H 554.425 3.68588 0.833735 0
M  V30 5787 H 554.738 7.65081 1.08951 0
M  V30 5788 H 553.083 6.8796 0.986706 0
M  V30 5789 H 556.274 4.5835 0.950392 0
M  V30 5790 H 556.447 6.39151 1.06725 0
M  V30 5791 N 549.853 -0.472356 1.50355 0
M  V30 5792 C 551.081 -1.24784 1.65035 0
M  V30 5793 C 551.496 -1.85837 0.333176 0
M  V30 5794 O 550.853 -1.69168 -0.68472 0
M  V30 5795 C 550.904 -2.35747 2.74054 0
M  V30 5796 O 550.625 -1.77197 4.00665 0
M  V30 5797 C 552.126 -3.26645 2.99696 0
M  V30 5798 H 549.346 -0.377432 0.554785 0
M  V30 5799 H 551.89 -0.563962 1.9657 0
M  V30 5800 H 550.045 -2.99912 2.45217 0
M  V30 5801 H 550.459 -2.5026 4.60945 0
M  V30 5802 H 551.933 -4.00718 3.79644 0
M  V30 5803 H 552.41 -3.8535 2.10718 0
M  V30 5804 H 553.016 -2.68218 3.3006 0
M  V30 5805 N 551.331 -1.39911 -0.725443 0
M  V30 5806 C 552.608 -1.28158 -1.47766 0
M  V30 5807 C 552.988 0.104545 -2.10841 0
M  V30 5808 O 552.336 1.11657 -1.99361 0
M  V30 5809 C 552.546 -2.41306 -2.52135 0
M  V30 5810 C 553.894 -2.81076 -3.18247 0
M  V30 5811 O 554.918 -2.40827 -2.62452 0
M  V30 5812 O 553.777 -3.50581 -4.19231 0
M  V30 5813 H 550.871 -0.502761 -0.656628 0
M  V30 5814 H 553.417 -1.51808 -0.758456 0
M  V30 5815 H 552.189 -3.33932 -2.03974 0
M  V30 5816 H 551.812 -2.19374 -3.31603 0
M  V30 5817 N 552.809 0.956637 -1.25245 0
M  V30 5818 C 554.057 1.69764 -1.09657 0
M  V30 5819 C 554.378 1.91583 0.363464 0
M  V30 5820 O 553.648 1.50149 1.25825 0
M  V30 5821 H 552.228 0.629097 -0.402798 0
M  V30 5822 H 554.89 1.15026 -1.57337 0
M  V30 5823 H 553.986 2.67769 -1.60331 0
M  V30 5824 N 554.287 1.06798 1.15896 0
M  V30 5825 C 555.534 0.787767 1.86549 0
M  V30 5826 C 555.862 -0.685959 1.82002 0
M  V30 5827 O 555.117 -1.5188 1.23414 0
M  V30 5828 C 555.416 1.23414 3.35416 0
M  V30 5829 C 555.082 2.71285 3.6016 0
M  V30 5830 C 553.744 3.11676 3.66622 0
M  V30 5831 C 556.096 3.6676 3.7032 0
M  V30 5832 C 553.424 4.4637 3.8075 0
M  V30 5833 C 555.776 5.01209 3.8597 0
M  V30 5834 C 554.44 5.41229 3.90676 0
M  V30 5835 H 553.71 0.288264 0.682631 0
M  V30 5836 H 556.357 1.338 1.37003 0
M  V30 5837 H 554.662 0.60319 3.87129 0
M  V30 5838 H 556.359 0.994298 3.88477 0
M  V30 5839 H 552.949 2.39015 3.55767 0
M  V30 5840 H 557.133 3.36685 3.64633 0
M  V30 5841 H 552.389 4.76855 3.82648 0
M  V30 5842 H 556.563 5.75067 3.92773 0
M  V30 5843 H 554.19 6.45602 4.01375 0
M  V30 5844 N 555.766 -1.3263 0.851289 0
M  V30 5845 C 557.043 -1.91982 0.374448 0
M  V30 5846 C 557.423 -1.77568 -1.14161 0
M  V30 5847 O 556.771 -1.1717 -1.96172 0
M  V30 5848 C 556.981 -3.38862 0.835088 0
M  V30 5849 C 558.329 -4.15999 0.850309 0
M  V30 5850 O 559.353 -3.47566 0.779505 0
M  V30 5851 O 558.212 -5.38189 0.949481 0
M  V30 5852 H 555.306 -0.819846 0.10854 0
M  V30 5853 H 557.852 -1.41422 0.937966 0
M  V30 5854 H 556.624 -3.43281 1.87814 0
M  V30 5855 H 556.247 -3.96821 0.248833 0
M  V30 5856 N 557.244 -0.608902 -1.45362 0
M  V30 5857 C 558.154 0.110969 -2.34337 0
M  V30 5858 C 559.17 0.859007 -1.51318 0
M  V30 5859 O 560.346 0.816296 -1.84116 0
M  V30 5860 C 557.411 1.09494 -3.28956 0
M  V30 5861 C 556.472 0.348718 -4.27881 0
M  V30 5862 C 555.705 1.28582 -5.17979 0
M  V30 5863 O 555.928 2.52369 -5.11533 0
M  V30 5864 O 554.862 0.782172 -5.96796 0
M  V30 5865 H 558.688 -0.620258 -2.97299 0
M  V30 5866 H 556.273 -0.36916 -1.44767 0
M  V30 5867 H 558.155 1.66163 -3.87257 0
M  V30 5868 H 556.83 1.80717 -2.68557 0
M  V30 5869 H 555.737 -0.260465 -3.73192 0
M  V30 5870 H 557.07 -0.323049 -4.91139 0
M  V30 5871 N 558.722 1.53707 -0.348139 0
M  V30 5872 C 559.969 2.00988 0.246966 0
M  V30 5873 C 560.297 1.23586 1.50189 0
M  V30 5874 O 559.552 0.312817 1.93184 0
M  V30 5875 C 559.851 3.52292 0.602061 0
M  V30 5876 C 559.517 4.47453 -0.556509 0
M  V30 5877 C 558.179 4.73188 -0.874446 0
M  V30 5878 C 560.531 5.03851 -1.33354 0
M  V30 5879 C 557.859 5.52577 -1.9717 0
M  V30 5880 C 560.211 5.84437 -2.42108 0
M  V30 5881 C 558.875 6.08465 -2.74456 0
M  V30 5882 H 558.145 0.735469 0.0903712 0
M  V30 5883 H 560.792 1.85464 -0.477001 0
M  V30 5884 H 559.097 3.65672 1.40681 0
M  V30 5885 H 560.794 3.86337 1.07447 0
M  V30 5886 H 557.384 4.27558 -0.298652 0
M  V30 5887 H 561.568 4.8393 -1.10117 0
M  V30 5888 H 556.824 5.69418 -2.22651 0
M  V30 5889 H 560.998 6.27151 -3.02745 0
M  V30 5890 H 558.625 6.69768 -3.59604 0
M  V30 5891 N 560.2 0.0768682 1.57412 0
M  V30 5892 C 561.147 -0.888577 2.13009 0
M  V30 5893 C 562.117 -1.29198 1.0439 0
M  V30 5894 O 563.302 -1.37694 1.3208 0
M  V30 5895 C 560.442 -2.14899 2.70023 0
M  V30 5896 C 559.555 -1.79777 3.92816 0
M  V30 5897 C 558.69 -3.00467 4.38056 0
M  V30 5898 C 557.729 -2.61385 5.53484 0
M  V30 5899 N 556.866 -3.74851 5.93659 0
M  V30 5900 H 561.706 -0.407593 2.95199 0
M  V30 5901 H 559.243 -0.189534 1.45874 0
M  V30 5902 H 561.201 -2.88688 3.0119 0
M  V30 5903 H 559.831 -2.60529 1.9059 0
M  V30 5904 H 558.883 -0.960301 3.68079 0
M  V30 5905 H 560.195 -1.47027 4.76639 0
M  V30 5906 H 559.349 -3.82529 4.7091 0
M  V30 5907 H 558.088 -3.36413 3.53097 0
M  V30 5908 H 557.093 -1.77746 5.20275 0
M  V30 5909 H 558.318 -2.26603 6.40178 0
M  V30 5910 H 556.264 -4.1055 5.11649 0
M  V30 5911 H 556.181 -3.45887 6.72234 0
M  V30 5912 H 557.449 -4.57477 6.31138 0
M  V30 5913 N 561.678 -1.56367 -0.196722 0
M  V30 5914 C 562.924 -1.80796 -0.918725 0
M  V30 5915 C 563.257 -0.650645 -1.82976 0
M  V30 5916 O 562.532 0.348889 -1.91345 0
M  V30 5917 C 562.815 -3.15472 -1.73636 0
M  V30 5918 C 562.668 -4.41693 -0.85015 0
M  V30 5919 C 563.987 -3.46824 -2.70927 0
M  V30 5920 H 561.106 -0.657702 -0.332561 0
M  V30 5921 H 563.748 -1.89086 -0.186186 0
M  V30 5922 H 561.898 -3.08536 -2.36088 0
M  V30 5923 H 563.57 -4.60673 -0.240459 0
M  V30 5924 H 561.813 -4.33517 -0.156785 0
M  V30 5925 H 562.484 -5.32419 -1.45719 0
M  V30 5926 H 564.96 -3.54049 -2.18607 0
M  V30 5927 H 563.836 -4.4218 -3.25219 0
M  V30 5928 H 564.097 -2.70236 -3.49893 0
M  V30 5929 N 563.156 0.464375 -1.50603 0
M  V30 5930 C 564.572 0.798684 -1.38178 0
M  V30 5931 C 564.772 1.96568 -0.44308 0
M  V30 5932 O 563.828 2.52252 0.111814 0
M  V30 5933 C 565.141 1.10444 -2.79683 0
M  V30 5934 C 566.689 1.2105 -2.88645 0
M  V30 5935 C 567.164 1.54934 -4.30998 0
M  V30 5936 N 568.655 1.61913 -4.3398 0
M  V30 5937 C 569.39 1.8965 -5.41129 0
M  V30 5938 N 568.886 2.15361 -6.58477 0
M  V30 5939 N 570.679 1.91207 -5.28579 0
M  V30 5940 H 562.83 -0.304603 -2.10204 0
M  V30 5941 H 565.093 -0.0737804 -0.945125 0
M  V30 5942 H 564.799 0.319934 -3.50242 0
M  V30 5943 H 564.673 2.03896 -3.17342 0
M  V30 5944 H 567.06 1.98567 -2.18301 0
M  V30 5945 H 567.141 0.255613 -2.5452 0
M  V30 5946 H 566.785 0.779549 -5.01882 0
M  V30 5947 H 566.715 2.51584 -4.62615 0
M  V30 5948 H 569.206 1.44055 -3.49366 0
M  V30 5949 H 569.519 2.35818 -7.35941 0
M  V30 5950 H 567.864 2.1274 -6.6164 0
M  V30 5951 H 571.055 1.70622 -4.35897 0
M  V30 5952 H 571.228 2.12488 -6.12171 0
M  V30 5953 N 564.634 1.40294 0.718013 0
M  V30 5954 C 565.564 1.43118 1.84498 0
M  V30 5955 C 566.545 0.292403 1.67568 0
M  V30 5956 O 567.73 0.500675 1.87635 0
M  V30 5957 C 564.86 1.29065 3.22427 0
M  V30 5958 C 563.814 2.40521 3.54025 0
M  V30 5959 C 563.14 2.11546 4.91073 0
M  V30 5960 C 564.44 3.82859 3.55269 0
M  V30 5961 H 566.134 2.37432 1.82391 0
M  V30 5962 H 563.68 1.14283 0.87609 0
M  V30 5963 H 565.633 1.29658 4.00957 0
M  V30 5964 H 564.357 0.312271 3.25104 0
M  V30 5965 H 563.016 2.39173 2.77834 0
M  V30 5966 H 562.664 1.12104 4.90348 0
M  V30 5967 H 562.364 2.86216 5.1318 0
M  V30 5968 H 563.888 2.13817 5.71939 0
M  V30 5969 H 565.302 3.86044 4.23843 0
M  V30 5970 H 563.699 4.57029 3.88902 0
M  V30 5971 H 564.769 4.12617 2.54706 0
M  V30 5972 N 566.112 -0.949982 1.2575 0
M  V30 5973 C 567.044 -2.05088 1.02331 0
M  V30 5974 C 568.057 -1.62795 -0.0133247 0
M  V30 5975 O 569.246 -1.77067 0.225759 0
M  V30 5976 C 566.346 -3.34794 0.525924 0
M  V30 5977 C 565.519 -4.05903 1.62978 0
M  V30 5978 C 564.578 -5.1388 1.13196 0
M  V30 5979 O 563.604 -5.39072 1.82729 0
M  V30 5980 N 564.806 -5.80495 -0.0242926 0
M  V30 5981 H 567.571 -2.25747 1.97125 0
M  V30 5982 H 565.132 -1.11886 1.17018 0
M  V30 5983 H 567.124 -4.04312 0.177263 0
M  V30 5984 H 565.694 -3.10872 -0.328202 0
M  V30 5985 H 564.914 -3.3042 2.1498 0
M  V30 5986 H 566.202 -4.50166 2.37124 0
M  V30 5987 H 565.6 -5.62454 -0.605184 0
M  V30 5988 H 564.157 -6.51043 -0.313947 0
M  V30 5989 N 567.59 -1.07411 -1.15328 0
M  V30 5990 C 568.867 -0.710732 -1.82231 0
M  V30 5991 C 569.247 0.806732 -1.95077 0
M  V30 5992 O 568.595 1.72139 -1.50268 0
M  V30 5993 C 568.805 -1.42586 -3.18544 0
M  V30 5994 C 570.153 -1.57836 -3.94174 0
M  V30 5995 O 571.177 -1.38669 -3.281 0
M  V30 5996 O 570.036 -1.8938 -5.12638 0
M  V30 5997 H 567.13 -0.25297 -0.78736 0
M  V30 5998 H 569.676 -1.17508 -1.22434 0
M  V30 5999 H 568.448 -2.46008 -3.04296 0
M  V30 6000 H 568.071 -0.952332 -3.86026 0
M  V30 6001 N 569.068 1.32177 -0.85831 0
M  V30 6002 C 569.998 2.31282 -0.321041 0
M  V30 6003 C 570.979 1.59841 0.581786 0
M  V30 6004 O 572.164 1.87619 0.501262 0
M  V30 6005 C 569.294 3.4385 0.48832 0
M  V30 6006 C 568.248 4.26799 -0.320391 0
M  V30 6007 C 567.574 5.31164 0.613934 0
M  V30 6008 C 568.874 4.98829 -1.54813 0
M  V30 6009 H 570.568 2.76469 -1.14915 0
M  V30 6010 H 568.114 1.32916 -0.554028 0
M  V30 6011 H 570.067 4.12224 0.874626 0
M  V30 6012 H 568.791 2.97401 1.34983 0
M  V30 6013 H 567.45 3.60077 -0.688497 0
M  V30 6014 H 567.098 4.80967 1.47239 0
M  V30 6015 H 566.798 5.8755 0.0768097 0
M  V30 6016 H 568.322 6.024 0.997336 0
M  V30 6017 H 569.736 5.59864 -1.23392 0
M  V30 6018 H 568.133 5.64957 -2.02346 0
M  V30 6019 H 569.203 4.26483 -2.30739 0
M  V30 6020 N 570.547 0.616602 1.45037 0
M  V30 6021 C 571.772 0.120192 2.07051 0
M  V30 6022 C 572.197 -1.19008 1.45666 0
M  V30 6023 O 571.555 -1.7267 0.552692 0
M  V30 6024 C 571.603 0.00354901 3.606 0
M  V30 6025 O 570.707 -1.04431 3.98958 0
M  V30 6026 H 570.048 0.0781599 0.659384 0
M  V30 6027 H 572.578 0.849167 1.86146 0
M  V30 6028 H 572.588 -0.191754 4.07549 0
M  V30 6029 H 571.263 0.960239 4.04663 0
M  V30 6030 H 569.84 -0.824749 3.63665 0
M  V30 6031 N 572.025 -1.5352 0.356285 0
M  V30 6032 C 573.25 -2.06007 -0.239961 0
M  V30 6033 C 573.675 -1.22872 -1.42422 0
M  V30 6034 O 573.033 -0.245516 -1.7963 0
M  V30 6035 C 573.081 -3.5522 -0.620587 0
M  V30 6036 O 572.185 -3.74864 -1.71902 0
M  V30 6037 H 571.526 -0.662961 -0.0371377 0
M  V30 6038 H 574.056 -1.98033 0.514194 0
M  V30 6039 H 574.066 -3.98081 -0.894197 0
M  V30 6040 H 572.741 -4.15175 0.245407 0
M  V30 6041 H 571.318 -3.43904 -1.44169 0
M  V30 6042 N 573.503 -0.0852151 -1.57369 0
M  V30 6043 C 574.743 0.584297 -1.95871 0
M  V30 6044 C 575.107 1.6596 -0.965473 0
M  V30 6045 O 576.308 2.38561 -1.23862 0
M  V30 6046 C 574.579 1.13411 -3.38929 0
M  V30 6047 S 576.138 1.81687 -3.99419 0
M  V30 6048 H 572.956 0.19095 -0.684879 0
M  V30 6049 H 575.558 -0.162267 -1.94825 0
M  V30 6050 H 574.262 0.339845 -4.0899 0
M  V30 6051 H 573.793 1.91672 -3.43548 0
M  V30 6052 H 575.808 3.10037 -3.87417 0
M  V30 6053 N 574.981 1.5647 0.188427 0
M  V30 6054 C 576.23 1.80207 0.905995 0
M  V30 6055 C 576.543 0.659579 1.84144 0
M  V30 6056 O 577.749 0.781431 2.60011 0
M  V30 6057 C 576.205 3.19255 1.66145 0
M  V30 6058 C 575.813 4.41324 0.770504 0
M  V30 6059 C 577.557 3.52298 2.36826 0
M  V30 6060 C 575.464 5.71394 1.52521 0
M  V30 6061 H 574.394 0.671953 0.342045 0
M  V30 6062 H 577.045 1.82808 0.159164 0
M  V30 6063 H 575.427 3.10922 2.45242 0
M  V30 6064 H 576.601 4.60797 0.0177261 0
M  V30 6065 H 574.916 4.16035 0.174199 0
M  V30 6066 H 577.513 4.46715 2.93854 0
M  V30 6067 H 577.856 2.76359 3.11338 0
M  V30 6068 H 578.389 3.62108 1.6469 0
M  V30 6069 H 575.128 6.50316 0.82275 0
M  V30 6070 H 574.648 5.55928 2.25175 0
M  V30 6071 H 576.327 6.12747 2.07725 0
M  V30 6072 N 576.459 -0.456382 1.50847 0
M  V30 6073 C 577.687 -1.23026 1.66349 0
M  V30 6074 C 578.102 -1.85473 0.352868 0
M  V30 6075 O 577.459 -1.69885 -0.666739 0
M  V30 6076 C 577.51 -2.32827 2.76539 0
M  V30 6077 O 577.231 -1.72938 4.02522 0
M  V30 6078 C 578.732 -3.23448 3.03144 0
M  V30 6079 H 575.952 -0.371527 0.558756 0
M  V30 6080 H 578.496 -0.543082 1.97157 0
M  V30 6081 H 576.651 -2.97294 2.48384 0
M  V30 6082 H 577.065 -2.45357 4.63573 0
M  V30 6083 H 578.539 -3.96669 3.83872 0
M  V30 6084 H 579.016 -3.83094 2.14793 0
M  V30 6085 H 579.622 -2.64702 3.32886 0
M  V30 6086 N 577.937 -1.40673 -0.710563 0
M  V30 6087 C 578.869 -1.37256 -1.83558 0
M  V30 6088 C 579.882 -0.277133 -1.60424 0
M  V30 6089 O 581.071 -0.537831 -1.70205 0
M  V30 6090 C 578.171 -1.1144 -3.20054 0
M  V30 6091 C 577.344 -2.32734 -3.70342 0
M  V30 6092 C 576.403 -2.03002 -4.85465 0
M  V30 6093 O 575.429 -2.75912 -4.97857 0
M  V30 6094 N 576.631 -1.01105 -5.71627 0
M  V30 6095 H 579.396 -2.34215 -1.86985 0
M  V30 6096 H 576.957 -1.35091 -0.892301 0
M  V30 6097 H 578.949 -0.895265 -3.94673 0
M  V30 6098 H 577.519 -0.231307 -3.11743 0
M  V30 6099 H 576.739 -2.70446 -2.86798 0
M  V30 6100 H 578.027 -3.13584 -4.00678 0
M  V30 6101 H 577.425 -0.407303 -5.64232 0
M  V30 6102 H 575.982 -0.85182 -6.4621 0
M  V30 6103 N 579.415 0.9433 -1.26252 0
M  V30 6104 C 580.663 1.68592 -1.11451 0
M  V30 6105 C 580.984 1.91957 0.343123 0
M  V30 6106 O 580.254 1.51475 1.24226 0
M  V30 6107 H 578.834 0.624789 -0.409448 0
M  V30 6108 H 581.496 1.13351 -1.58548 0
M  V30 6109 H 580.592 2.66054 -1.63162 0
M  V30 6110 N 580.893 1.08022 1.14757 0
M  V30 6111 C 581.84 0.706657 2.19716 0
M  V30 6112 C 582.81 -0.30525 1.63271 0
M  V30 6113 O 583.995 -0.19015 1.8985 0
M  V30 6114 C 581.135 0.117914 3.44898 0
M  V30 6115 C 580.248 1.18212 4.15512 0
M  V30 6116 C 579.383 0.557659 5.28265 0
M  V30 6117 C 578.422 1.60418 5.90705 0
M  V30 6118 N 577.559 1.0018 6.94916 0
M  V30 6119 H 582.399 1.60603 2.51019 0
M  V30 6120 H 579.936 0.802664 1.23271 0
M  V30 6121 H 581.894 -0.241112 4.16503 0
M  V30 6122 H 580.524 -0.744788 3.1409 0
M  V30 6123 H 579.576 1.65863 3.42335 0
M  V30 6124 H 580.888 1.97533 4.5802 0
M  V30 6125 H 580.042 0.146654 6.06523 0
M  V30 6126 H 578.781 -0.267249 4.86967 0
M  V30 6127 H 577.786 2.02489 5.11154 0
M  V30 6128 H 579.011 2.43149 6.34078 0
M  V30 6129 H 576.957 0.197917 6.55701 0
M  V30 6130 H 576.874 1.73216 7.35889 0
M  V30 6131 H 578.142 0.616523 7.77058 0
M  V30 6132 N 582.371 -1.3172 0.865308 0
M  V30 6133 C 583.648 -1.91574 0.394789 0
M  V30 6134 C 584.028 -1.78769 -1.12271 0
M  V30 6135 O 583.376 -1.19245 -1.94918 0
M  V30 6136 C 583.586 -3.37957 0.870982 0
M  V30 6137 C 584.934 -4.15073 0.894384 0
M  V30 6138 O 585.958 -3.4672 0.816325 0
M  V30 6139 O 584.817 -5.37151 1.00651 0
M  V30 6140 H 581.911 -0.818649 0.117229 0
M  V30 6141 H 584.457 -1.4042 0.952913 0
M  V30 6142 H 583.229 -3.41269 1.91444 0
M  V30 6143 H 582.852 -3.96534 0.290907 0
M  V30 6144 N 583.85 -0.624285 -1.44708 0
M  V30 6145 C 584.812 0.0749638 -2.29077 0
M  V30 6146 C 585.812 0.778965 -1.40673 0
M  V30 6147 O 587.003 0.624591 -1.62618 0
M  V30 6148 C 584.135 1.11663 -3.22094 0
M  V30 6149 H 585.327 -0.667013 -2.92388 0
M  V30 6150 H 582.88 -0.384098 -1.51507 0
M  V30 6151 H 583.615 1.88881 -2.63618 0
M  V30 6152 H 583.401 0.61583 -3.87234 0
M  V30 6153 H 584.891 1.60585 -3.8549 0
M  V30 6154 N 585.328 1.53329 -0.364422 0
M  V30 6155 C 586.291 2.24323 0.470292 0
M  V30 6156 C 587.291 1.25068 1.01067 0
M  V30 6157 O 588.481 1.49354 0.896605 0
M  V30 6158 C 585.613 2.97908 1.65722 0
M  V30 6159 H 586.806 2.9952 -0.150917 0
M  V30 6160 H 584.359 1.55868 -0.116092 0
M  V30 6161 H 585.094 2.2695 2.31655 0
M  V30 6162 H 584.879 3.70732 1.27671 0
M  V30 6163 H 586.369 3.5188 2.24878 0
M  V30 6164 N 586.806 0.0935595 1.57322 0
M  V30 6165 C 588.052 -0.571355 1.94585 0
M  V30 6166 C 588.385 -1.67929 0.975366 0
M  V30 6167 O 587.66 -1.94498 0.00816206 0
M  V30 6168 C 587.943 -1.12797 3.41978 0
M  V30 6169 C 587.796 -0.0251881 4.49793 0
M  V30 6170 C 589.115 -2.02682 3.90651 0
M  V30 6171 H 586.234 -0.206223 0.70756 0
M  V30 6172 H 588.876 0.163956 1.89291 0
M  V30 6173 H 587.026 -1.75461 3.4662 0
M  V30 6174 H 588.698 0.608979 4.57263 0
M  V30 6175 H 586.941 0.641399 4.29032 0
M  V30 6176 H 587.612 -0.455433 5.50118 0
M  V30 6177 H 590.088 -1.49925 3.88152 0
M  V30 6178 H 588.964 -2.38555 4.94351 0
M  V30 6179 H 589.225 -2.94362 3.29854 0
M  V30 6180 N 588.284 -1.56567 -0.180126 0
M  V30 6181 C 589.509 -1.85975 -0.918041 0
M  V30 6182 C 589.934 -0.678888 -1.75422 0
M  V30 6183 O 589.292 0.372168 -1.77439 0
M  V30 6184 C 589.34 -3.13731 -1.77779 0
M  V30 6185 O 588.444 -2.95335 -2.87838 0
M  V30 6186 H 587.785 -0.61196 -0.257683 0
M  V30 6187 H 590.315 -2.03798 -0.180923 0
M  V30 6188 H 590.325 -3.4491 -2.17948 0
M  V30 6189 H 589 -3.99293 -1.16352 0
M  V30 6190 H 587.577 -2.7549 -2.51316 0
M  V30 6191 N 589.762 0.448376 -1.51087 0
M  V30 6192 C 590.709 1.54341 -1.71603 0
M  V30 6193 C 591.679 1.56463 -0.557536 0
M  V30 6194 O 592.864 1.73644 -0.79072 0
M  V30 6195 C 590.004 2.92148 -1.83695 0
M  V30 6196 C 589.117 2.99639 -3.11192 0
M  V30 6197 C 588.252 4.285 -3.13944 0
M  V30 6198 C 587.291 4.29819 -4.35801 0
M  V30 6199 N 586.428 5.50186 -4.36164 0
M  V30 6200 H 591.268 1.36151 -2.65079 0
M  V30 6201 H 588.805 0.661585 -1.31383 0
M  V30 6202 H 590.763 3.72093 -1.88687 0
M  V30 6203 H 589.393 3.0892 -0.936374 0
M  V30 6204 H 588.445 2.12425 -3.15562 0
M  V30 6205 H 589.757 2.96474 -4.01129 0
M  V30 6206 H 588.911 5.16811 -3.17791 0
M  V30 6207 H 587.65 4.34307 -2.21876 0
M  V30 6208 H 586.655 3.39902 -4.32142 0
M  V30 6209 H 587.88 4.25685 -5.29121 0
M  V30 6210 H 585.826 5.56735 -3.46961 0
M  V30 6211 H 585.743 5.48856 -5.19897 0
M  V30 6212 H 587.011 6.40559 -4.44189 0
M  V30 6213 N 591.24 1.41047 0.703093 0
M  V30 6214 C 592.187 1.42302 1.81711 0
M  V30 6215 C 593.157 0.278336 1.63751 0
M  V30 6216 O 594.342 0.478266 1.84709 0
M  V30 6217 C 591.482 1.30362 3.19531 0
M  V30 6218 C 590.595 2.54638 3.48975 0
M  V30 6219 C 589.73 2.35047 4.76368 0
M  V30 6220 C 588.769 3.54837 4.98756 0
M  V30 6221 N 587.906 3.34363 6.1737 0
M  V30 6222 H 592.746 2.37516 1.79973 0
M  V30 6223 H 590.283 1.1795 0.878983 0
M  V30 6224 H 592.241 1.21443 3.99134 0
M  V30 6225 H 590.871 0.387602 3.20464 0
M  V30 6226 H 589.923 2.74037 2.63833 0
M  V30 6227 H 591.235 3.43766 3.61423 0
M  V30 6228 H 590.389 2.23552 5.64012 0
M  V30 6229 H 589.128 1.43363 4.66153 0
M  V30 6230 H 588.133 3.66795 4.09563 0
M  V30 6231 H 589.358 4.47464 5.10835 0
M  V30 6232 H 587.304 2.45373 6.08382 0
M  V30 6233 H 587.221 4.17063 6.30551 0
M  V30 6234 H 588.489 3.26626 7.07768 0
M  V30 6235 N 592.718 -0.936591 1.26751 0
M  V30 6236 C 593.681 -2.01752 1.08761 0
M  V30 6237 C 594.681 -1.60763 0.0344435 0
M  V30 6238 O 595.871 -1.71963 0.278258 0
M  V30 6239 C 593.003 -3.34543 0.655271 0
M  V30 6240 H 594.196 -2.19143 2.04735 0
M  V30 6241 H 591.749 -1.11618 1.09413 0
M  V30 6242 H 592.484 -3.22851 -0.30626 0
M  V30 6243 H 592.269 -3.65647 1.41578 0
M  V30 6244 H 593.759 -4.13944 0.551378 0
M  V30 6245 N 594.196 -1.08629 -1.14182 0
M  V30 6246 C 595.421 -0.83902 -1.89671 0
M  V30 6247 C 595.846 0.603332 -1.78161 0
M  V30 6248 O 595.204 1.42301 -1.12339 0
M  V30 6249 C 595.252 -1.26854 -3.37551 0
M  V30 6250 O 594.356 -0.42188 -4.10236 0
M  V30 6251 H 593.697 -0.304545 -0.590041 0
M  V30 6252 H 596.227 -1.4483 -1.44518 0
M  V30 6253 H 596.237 -1.25038 -3.88368 0
M  V30 6254 H 594.912 -2.31901 -3.45246 0
M  V30 6255 H 593.489 -0.503654 -3.69483 0
M  V30 6256 N 595.674 1.31259 -0.872281 0
M  V30 6257 C 597.085 1.78822 -0.536617 0
M  V30 6258 C 597.436 1.71855 0.946594 0
M  V30 6259 O 596.561 1.28769 1.73918 0
M  V30 6260 C 597.156 3.24698 -0.967294 0
M  V30 6261 C 595.715 3.70147 -0.683251 0
M  V30 6262 C 594.862 2.51994 -1.15733 0
M  V30 6263 H 597.813 1.18308 -1.05777 0
M  V30 6264 H 597.834 3.79386 -0.290929 0
M  V30 6265 H 597.346 3.29737 -2.04683 0
M  V30 6266 H 595.447 3.70607 0.384825 0
M  V30 6267 H 595.56 4.62183 -1.2619 0
M  V30 6268 H 593.924 2.48078 -0.577024 0
M  V30 6269 H 594.707 2.59778 -2.24434 0
M  V30 6270 N 597.152 0.631951 1.44375 0
M  V30 6271 C 598.062 -0.073674 2.34484 0
M  V30 6272 C 599.078 -0.834825 1.52665 0
M  V30 6273 O 600.254 -0.786902 1.85391 0
M  V30 6274 C 597.319 -1.04247 3.30656 0
M  V30 6275 C 596.38 -0.280602 4.28382 0
M  V30 6276 C 595.613 -1.20325 5.19959 0
M  V30 6277 O 595.836 -2.44199 5.15484 0
M  V30 6278 O 594.77 -0.687128 5.97965 0
M  V30 6279 H 598.596 0.667477 2.96274 0
M  V30 6280 H 596.181 0.392144 1.44162 0
M  V30 6281 H 598.063 -1.59981 3.89851 0
M  V30 6282 H 596.738 -1.76422 2.71398 0
M  V30 6283 H 595.645 0.319804 3.72731 0
M  V30 6284 H 596.978 0.401144 4.90563 0
M  V30 6285 N 598.631 -1.53133 0.372548 0
M  V30 6286 C 599.594 -2.24569 -0.458389 0
M  V30 6287 C 600.594 -1.25603 -1.00402 0
M  V30 6288 O 601.784 -1.49827 -0.888672 0
M  V30 6289 C 598.916 -2.98783 -1.6414 0
M  V30 6290 H 600.109 -2.99436 0.166799 0
M  V30 6291 H 597.662 -1.55805 0.124357 0
M  V30 6292 H 598.397 -2.28176 -2.30448 0
M  V30 6293 H 598.182 -3.71404 -1.25704 0
M  V30 6294 H 599.672 -3.53068 -2.23008 0
M  V30 6295 N 600.109 -0.101901 -1.5727 0
M  V30 6296 C 601.072 0.840129 -2.13247 0
M  V30 6297 C 602.072 1.20625 -1.06331 0
M  V30 6298 O 603.262 1.13456 -1.32186 0
M  V30 6299 C 600.394 2.13372 -2.65867 0
M  V30 6300 H 601.587 0.353945 -2.97804 0
M  V30 6301 H 599.14 0.147167 -1.55606 0
M  V30 6302 H 599.875 2.66461 -1.84849 0
M  V30 6303 H 599.66 1.88085 -3.44044 0
M  V30 6304 H 601.15 2.80748 -3.09145 0
M  V30 6305 N 601.587 1.56661 0.17182 0
M  V30 6306 C 602.812 1.86459 0.908165 0
M  V30 6307 C 603.237 0.688181 1.75059 0
M  V30 6308 O 602.595 -0.362753 1.77634 0
M  V30 6309 C 602.643 3.14669 1.76112 0
M  V30 6310 O 601.747 2.96858 2.86268 0
M  V30 6311 H 601.088 0.613318 0.254434 0
M  V30 6312 H 603.618 2.03892 0.170113 0
M  V30 6313 H 603.628 3.46061 2.16115 0
M  V30 6314 H 602.303 3.99905 1.14233 0
M  V30 6315 H 600.88 2.76819 2.49852 0
M  V30 6316 N 603.065 -0.440357 1.51323 0
M  V30 6317 C 604.293 -1.21255 1.67645 0
M  V30 6318 C 604.708 -1.85088 0.37252 0
M  V30 6319 O 604.065 -1.70582 -0.648683 0
M  V30 6320 C 604.116 -2.29881 2.78993 0
M  V30 6321 O 603.837 -1.68659 4.04334 0
M  V30 6322 C 605.338 -3.20214 3.06558 0
M  V30 6323 H 602.558 -0.36558 0.562666 0
M  V30 6324 H 605.102 -0.52214 1.97722 0
M  V30 6325 H 603.257 -2.94643 2.51524 0
M  V30 6326 H 603.671 -2.40426 4.6615 0
M  V30 6327 H 605.145 -3.92575 3.88058 0
M  V30 6328 H 605.622 -3.80794 2.18844 0
M  V30 6329 H 606.228 -2.61156 3.35675 0
M  V30 6330 N 604.543 -1.41418 -0.695603 0
M  V30 6331 C 605.954 -1.36335 -1.27552 0
M  V30 6332 C 606.305 -0.0464336 -1.96145 0
M  V30 6333 O 605.43 0.855304 -1.9878 0
M  V30 6334 C 606.025 -2.46941 -2.3196 0
M  V30 6335 C 604.584 -2.45256 -2.85529 0
M  V30 6336 C 603.731 -2.2679 -1.59566 0
M  V30 6337 H 606.682 -1.50934 -0.490362 0
M  V30 6338 H 606.703 -2.15997 -3.1325 0
M  V30 6339 H 606.215 -3.42775 -1.82008 0
M  V30 6340 H 604.316 -1.53179 -3.39657 0
M  V30 6341 H 604.429 -3.41565 -3.35961 0
M  V30 6342 H 602.793 -1.74667 -1.85374 0
M  V30 6343 H 603.576 -3.24651 -1.1161 0
M  V30 6344 N 606.021 0.929856 -1.27246 0
M  V30 6345 C 607.437 1.20542 -1.04603 0
M  V30 6346 C 607.637 2.00276 0.221754 0
M  V30 6347 O 606.693 2.34835 0.927833 0
M  V30 6348 C 608.006 1.95566 -2.28417 0
M  V30 6349 C 609.554 2.08513 -2.33433 0
M  V30 6350 C 610.029 2.86943 -3.5697 0
M  V30 6351 N 611.52 2.94512 -3.57515 0
M  V30 6352 C 612.255 3.55656 -4.49774 0
M  V30 6353 N 611.751 4.18209 -5.52334 0
M  V30 6354 N 613.544 3.53038 -4.37402 0
M  V30 6355 H 605.695 0.397113 -2.08655 0
M  V30 6356 H 607.958 0.238277 -0.917566 0
M  V30 6357 H 607.664 1.44395 -3.20691 0
M  V30 6358 H 607.538 2.9619 -2.33563 0
M  V30 6359 H 609.925 2.58872 -1.41666 0
M  V30 6360 H 610.006 1.07117 -2.32292 0
M  V30 6361 H 609.65 2.37268 -4.49072 0
M  V30 6362 H 609.58 3.8862 -3.55362 0
M  V30 6363 H 612.071 2.50053 -2.83341 0
M  V30 6364 H 612.384 4.62796 -6.18902 0
M  V30 6365 H 610.729 4.16761 -5.56179 0
M  V30 6366 H 613.92 3.0337 -3.56489 0
M  V30 6367 H 614.093 4.004 -5.09493 0
M  V30 6368 N 607.499 1.09233 1.13605 0
M  V30 6369 C 608.776 0.739633 1.81077 0
M  V30 6370 C 609.156 -0.775595 1.96336 0
M  V30 6371 O 608.504 -1.69726 1.52988 0
M  V30 6372 C 608.714 1.47636 3.16235 0
M  V30 6373 C 610.062 1.64087 3.91613 0
M  V30 6374 O 611.086 1.43871 3.25852 0
M  V30 6375 O 609.945 1.97511 5.0956 0
M  V30 6376 H 607.039 0.265464 0.783236 0
M  V30 6377 H 609.585 1.19441 1.20549 0
M  V30 6378 H 608.357 2.50818 3.00344 0
M  V30 6379 H 607.98 1.01362 3.84462 0
M  V30 6380 N 608.977 -1.30795 0.87923 0
M  V30 6381 C 610.388 -1.78535 0.546093 0
M  V30 6382 C 610.739 -1.72354 -0.937467 0
M  V30 6383 O 609.864 -1.2969 -1.73233 0
M  V30 6384 C 610.459 -3.24181 0.9845 0
M  V30 6385 C 609.018 -3.69779 0.702871 0
M  V30 6386 C 608.165 -2.51377 1.17068 0
M  V30 6387 H 611.116 -1.17746 1.06403 0
M  V30 6388 H 611.137 -3.79227 0.311045 0
M  V30 6389 H 610.649 -3.28647 2.06429 0
M  V30 6390 H 608.75 -3.70806 -0.365166 0
M  V30 6391 H 608.863 -4.61507 1.28639 0
M  V30 6392 H 607.227 -2.47768 0.590172 0
M  V30 6393 H 608.01 -2.58584 2.25808 0
M  V30 6394 N 610.455 -0.639598 -1.44038 0
M  V30 6395 C 611.704 -0.144885 -2.01179 0
M  V30 6396 C 612.017 1.24372 -1.50967 0
M  V30 6397 O 613.223 1.83291 -2.00292 0
M  V30 6398 C 611.679 -0.208244 -3.59297 0
M  V30 6399 C 611.287 -1.59869 -4.18504 0
M  V30 6400 C 613.031 0.229568 -4.23879 0
M  V30 6401 C 610.938 -1.61671 -5.68873 0
M  V30 6402 H 609.868 -0.0504005 -0.752314 0
M  V30 6403 H 612.519 -0.799639 -1.65161 0
M  V30 6404 H 610.901 0.513767 -3.92653 0
M  V30 6405 H 612.075 -2.34496 -3.96671 0
M  V30 6406 H 610.39 -1.98131 -3.66242 0
M  V30 6407 H 612.987 0.235758 -5.3418 0
M  V30 6408 H 613.33 1.25848 -3.96822 0
M  V30 6409 H 613.863 -0.440233 -3.95357 0
M  V30 6410 H 610.602 -2.62427 -6.00677 0
M  V30 6411 H 610.122 -0.913489 -5.92803 0
M  V30 6412 H 611.801 -1.35439 -6.32665 0
M  V30 6413 N 611.933 1.52934 -0.380664 0
M  V30 6414 C 613.21 1.93845 0.261417 0
M  V30 6415 C 613.59 1.31544 1.65104 0
M  V30 6416 O 612.938 0.480234 2.23397 0
M  V30 6417 C 613.148 3.47739 0.296466 0
M  V30 6418 C 614.496 4.21284 0.529578 0
M  V30 6419 O 615.52 3.54199 0.377041 0
M  V30 6420 O 614.379 5.40195 0.827753 0
M  V30 6421 H 611.473 0.811318 0.160285 0
M  V30 6422 H 614.019 1.64042 -0.434544 0
M  V30 6423 H 612.791 3.85395 -0.67724 0
M  V30 6424 H 612.414 3.8382 1.0377 0
M  V30 6425 N 613.412 0.11024 1.57214 0
M  V30 6426 C 614.658 -0.550684 1.9518 0
M  V30 6427 C 614.991 -1.66885 0.993122 0
M  V30 6428 O 614.266 -1.94479 0.0287907 0
M  V30 6429 C 614.549 -1.09163 3.43155 0
M  V30 6430 C 614.402 0.0225198 4.49794 0
M  V30 6431 C 615.721 -1.98527 3.92778 0
M  V30 6432 H 612.84 -0.198706 0.709708 0
M  V30 6433 H 615.482 0.184024 1.89107 0
M  V30 6434 H 613.632 -1.71775 3.48462 0
M  V30 6435 H 615.304 0.657443 4.56591 0
M  V30 6436 H 613.547 0.686868 4.28328 0
M  V30 6437 H 614.218 -0.39706 5.5057 0
M  V30 6438 H 616.694 -1.458 3.8972 0
M  V30 6439 H 615.57 -2.33298 4.96853 0
M  V30 6440 H 615.831 -2.90846 3.32958 0
M  V30 6441 N 614.89 -1.56749 -0.16351 0
M  V30 6442 C 616.167 -1.73321 -0.906599 0
M  V30 6443 C 616.547 -0.673779 -2.00059 0
M  V30 6444 O 615.895 0.310121 -2.26386 0
M  V30 6445 C 616.105 -3.168 -1.46419 0
M  V30 6446 C 617.453 -3.77993 -1.93407 0
M  V30 6447 O 618.477 -3.20127 -1.56196 0
M  V30 6448 O 617.336 -4.79615 -2.61976 0
M  V30 6449 H 614.43 -0.708073 -0.427272 0
M  V30 6450 H 616.976 -1.69029 -0.150727 0
M  V30 6451 H 615.748 -3.85396 -0.677189 0
M  V30 6452 H 615.371 -3.2545 -2.28403 0
M  V30 6453 N 616.368 0.432326 -1.51554 0
M  V30 6454 C 617.298 1.53242 -1.76179 0
M  V30 6455 C 618.279 1.58717 -0.611801 0
M  V30 6456 O 619.464 1.74364 -0.855033 0
M  V30 6457 C 616.594 2.91278 -1.89141 0
M  V30 6458 C 615.548 3.00663 -3.04608 0
M  V30 6459 C 614.874 4.40728 -3.02759 0
M  V30 6460 C 616.174 2.74281 -4.44485 0
M  V30 6461 H 617.868 1.32886 -2.68294 0
M  V30 6462 H 615.414 0.637841 -1.29103 0
M  V30 6463 H 617.367 3.68203 -2.04951 0
M  V30 6464 H 616.091 3.12877 -0.936785 0
M  V30 6465 H 614.75 2.26179 -2.88511 0
M  V30 6466 H 614.398 4.59301 -2.05065 0
M  V30 6467 H 614.098 4.47936 -3.80299 0
M  V30 6468 H 615.622 5.19619 -3.20669 0
M  V30 6469 H 617.036 3.40936 -4.60907 0
M  V30 6470 H 615.433 2.92893 -5.23769 0
M  V30 6471 H 616.503 1.69856 -4.54177 0
M  V30 6472 N 617.846 1.41785 0.688094 0
M  V30 6473 C 619.257 1.3701 1.26828 0
M  V30 6474 C 619.608 0.056835 1.96118 0
M  V30 6475 O 618.733 -0.84475 1.99231 0
M  V30 6476 C 619.328 2.48168 2.30648 0
M  V30 6477 C 617.887 2.46766 2.84224 0
M  V30 6478 C 617.034 2.27633 1.58361 0
M  V30 6479 H 619.985 1.51192 0.482351 0
M  V30 6480 H 620.006 2.17655 3.121 0
M  V30 6481 H 619.518 3.43735 1.80188 0
M  V30 6482 H 617.619 1.54978 3.3884 0
M  V30 6483 H 617.732 3.43342 3.34145 0
M  V30 6484 H 616.096 1.75648 1.84445 0
M  V30 6485 H 616.879 3.25238 1.09887 0
M  V30 6486 N 619.324 -0.923095 1.27737 0
M  V30 6487 C 620.234 -2.05765 1.12685 0
M  V30 6488 C 621.25 -1.73911 0.0557197 0
M  V30 6489 O 622.426 -1.99674 0.263137 0
M  V30 6490 C 619.491 -3.37804 0.780363 0
M  V30 6491 C 618.552 -3.83326 1.93286 0
M  V30 6492 C 617.785 -5.09064 1.60281 0
M  V30 6493 O 618.008 -5.6809 0.512828 0
M  V30 6494 O 616.942 -5.50071 2.44347 0
M  V30 6495 H 620.768 -2.21378 2.07907 0
M  V30 6496 H 618.353 -1.04299 1.06968 0
M  V30 6497 H 620.235 -4.17097 0.600668 0
M  V30 6498 H 618.91 -3.23387 -0.142291 0
M  V30 6499 H 617.817 -3.049 2.16764 0
M  V30 6500 H 619.15 -4.02292 2.83588 0
M  V30 6501 N 620.802 -1.09834 -1.13024 0
M  V30 6502 C 621.712 -0.753731 -2.22162 0
M  V30 6503 C 622.728 0.246105 -1.72251 0
M  V30 6504 O 623.904 0.0864051 -2.01215 0
M  V30 6505 C 620.969 -0.183958 -3.46212 0
M  V30 6506 C 620.03 -1.24028 -4.10993 0
M  V30 6507 C 619.263 -0.697597 -5.29121 0
M  V30 6508 O 619.486 0.478092 -5.68393 0
M  V30 6509 O 618.42 -1.4546 -5.84059 0
M  V30 6510 H 622.246 -1.66456 -2.5402 0
M  V30 6511 H 619.831 -0.873026 -1.21238 0
M  V30 6512 H 621.713 0.130257 -4.21199 0
M  V30 6513 H 620.388 0.699823 -3.16045 0
M  V30 6514 H 619.295 -1.60725 -3.37814 0
M  V30 6515 H 620.628 -2.09685 -4.45301 0
M  V30 6516 N 622.28 1.30327 -0.886154 0
M  V30 6517 C 623.243 2.26376 -0.358687 0
M  V30 6518 C 624.243 1.52845 0.499498 0
M  V30 6519 O 625.433 1.71483 0.306485 0
M  V30 6520 C 622.565 3.37379 0.488726 0
M  V30 6521 H 623.758 2.74547 -1.20681 0
M  V30 6522 H 621.311 1.41536 -0.663113 0
M  V30 6523 H 622.046 2.94526 1.35739 0
M  V30 6524 H 621.831 3.91897 -0.126003 0
M  V30 6525 H 623.321 4.08868 0.84952 0
M  V30 6526 N 623.758 0.647228 1.43697 0
M  V30 6527 C 624.668 -0.0487997 2.34549 0
M  V30 6528 C 625.684 -0.818586 1.53542 0
M  V30 6529 O 626.86 -0.767195 1.86215 0
M  V30 6530 C 623.925 -1.00734 3.31743 0
M  V30 6531 C 622.986 -0.23515 4.28655 0
M  V30 6532 C 622.219 -1.14803 5.21206 0
M  V30 6533 O 622.442 -2.38717 5.18045 0
M  V30 6534 O 621.376 -0.623667 5.9866 0
M  V30 6535 H 625.202 0.698863 2.9555 0
M  V30 6536 H 622.787 0.407412 1.43738 0
M  V30 6537 H 624.669 -1.55837 3.91526 0
M  V30 6538 H 623.344 -1.73534 2.73254 0
M  V30 6539 H 622.251 0.359319 3.7237 0
M  V30 6540 H 623.584 0.453152 4.9011 0
M  V30 6541 N 625.236 -1.5273 0.388769 0
M  V30 6542 C 626.652 -1.59553 0.0387049 0
M  V30 6543 C 626.852 -1.40278 -1.44652 0
M  V30 6544 O 625.908 -1.21951 -2.21098 0
M  V30 6545 C 627.221 -2.9625 0.515409 0
M  V30 6546 C 628.769 -3.09426 0.471621 0
M  V30 6547 C 629.244 -4.48572 0.924505 0
M  V30 6548 N 630.735 -4.54754 0.880496 0
M  V30 6549 C 631.47 -5.60653 1.20234 0
M  V30 6550 N 630.966 -6.74198 1.59463 0
M  V30 6551 N 632.759 -5.50755 1.12363 0
M  V30 6552 H 624.91 -1.63508 1.35569 0
M  V30 6553 H 627.173 -0.768097 0.555636 0
M  V30 6554 H 626.879 -3.15569 1.5527 0
M  V30 6555 H 626.753 -3.77102 -0.085792 0
M  V30 6556 H 629.14 -2.89804 -0.556588 0
M  V30 6557 H 629.221 -2.30528 1.10862 0
M  V30 6558 H 628.865 -4.68936 1.95094 0
M  V30 6559 H 628.795 -5.25935 0.264524 0
M  V30 6560 H 631.286 -3.73237 0.591815 0
M  V30 6561 H 631.599 -7.5097 1.82385 0
M  V30 6562 H 629.944 -6.75531 1.63349 0
M  V30 6563 H 633.135 -4.6093 0.816169 0
M  V30 6564 H 633.308 -6.33184 1.37777 0
M  V30 6565 N 626.714 -0.118576 -1.57153 0
M  V30 6566 C 627.96 0.540326 -1.95469 0
M  V30 6567 C 628.293 1.66356 -1.00196 0
M  V30 6568 O 627.568 1.94461 -0.039104 0
M  V30 6569 C 627.851 1.07342 -3.43729 0
M  V30 6570 C 627.704 -0.0463732 -4.49776 0
M  V30 6571 C 629.023 1.96442 -3.93826 0
M  V30 6572 H 626.142 0.19494 -0.710751 0
M  V30 6573 H 628.784 -0.19405 -1.89006 0
M  V30 6574 H 626.934 1.69925 -3.49368 0
M  V30 6575 H 628.606 -0.681648 -4.56236 0
M  V30 6576 H 626.849 -0.709574 -4.27957 0
M  V30 6577 H 627.52 0.367856 -5.50773 0
M  V30 6578 H 629.996 1.43731 -3.90488 0
M  V30 6579 H 628.872 2.3066 -4.98084 0
M  V30 6580 H 629.133 2.89077 -3.34495 0
M  V30 6581 N 628.193 1.56834 0.155195 0
M  V30 6582 C 629.14 1.97646 1.19184 0
M  V30 6583 C 630.11 0.842788 1.4313 0
M  V30 6584 O 631.295 1.1042 1.55602 0
M  V30 6585 C 628.435 2.35527 2.52232 0
M  V30 6586 C 627.548 3.62147 2.35529 0
M  V30 6587 C 626.683 3.89167 3.61555 0
M  V30 6588 C 625.722 5.09084 3.39853 0
M  V30 6589 N 624.859 5.32156 4.5799 0
M  V30 6590 H 629.699 2.8601 0.836802 0
M  V30 6591 H 627.236 1.41507 0.401758 0
M  V30 6592 H 629.194 2.55516 3.29799 0
M  V30 6593 H 627.824 1.50253 2.85699 0
M  V30 6594 H 626.876 3.4998 1.49057 0
M  V30 6595 H 628.188 4.49871 2.15448 0
M  V30 6596 H 627.342 4.09611 4.47553 0
M  V30 6597 H 626.081 2.9985 3.84632 0
M  V30 6598 H 625.086 4.88522 2.52243 0
M  V30 6599 H 626.311 5.99947 3.18183 0
M  V30 6600 H 624.257 4.45791 4.81255 0
M  V30 6601 H 624.174 6.14133 4.40882 0
M  V30 6602 H 625.442 5.57091 5.45225 0
M  V30 6603 N 629.671 -0.424282 1.51781 0
M  V30 6604 C 630.634 -1.49848 1.73431 0
M  V30 6605 C 631.634 -1.49016 0.604225 0
M  V30 6606 O 632.824 -1.50808 0.871935 0
M  V30 6607 C 629.956 -2.89332 1.80277 0
M  V30 6608 H 631.149 -1.3195 2.69312 0
M  V30 6609 H 628.702 -0.653809 1.41968 0
M  V30 6610 H 629.437 -3.12618 0.862568 0
M  V30 6611 H 629.222 -2.9134 2.62419 0
M  V30 6612 H 630.712 -3.67233 1.98821 0
M  V30 6613 N 631.149 -1.42148 -0.680565 0
M  V30 6614 C 632.081 -1.41119 -1.80605 0
M  V30 6615 C 633.094 -0.311099 -1.598 0
M  V30 6616 O 634.283 -0.573813 -1.69026 0
M  V30 6617 C 631.383 -1.18204 -3.17618 0
M  V30 6618 C 630.556 -2.40537 -3.65322 0
M  V30 6619 C 629.615 -2.13254 -4.8105 0
M  V30 6620 O 628.641 -2.8641 -4.91892 0
M  V30 6621 N 629.843 -1.13208 -5.69354 0
M  V30 6622 H 632.608 -2.38128 -1.81975 0
M  V30 6623 H 630.169 -1.36953 -0.863446 0
M  V30 6624 H 632.161 -0.97878 -3.92686 0
M  V30 6625 H 630.731 -0.29738 -3.11182 0
M  V30 6626 H 629.951 -2.76468 -2.80996 0
M  V30 6627 H 631.239 -3.22012 -3.93936 0
M  V30 6628 H 630.637 -0.526893 -5.63241 0
M  V30 6629 H 629.194 -0.988699 -6.44258 0
M  V30 6630 N 632.627 0.916307 -1.28225 0
M  V30 6631 C 633.873 1.66765 -1.154 0
M  V30 6632 C 634.206 1.91912 0.297251 0
M  V30 6633 O 633.481 1.51766 1.21644 0
M  V30 6634 C 633.764 3.02715 -1.95028 0
M  V30 6635 C 633.617 2.84738 -3.48201 0
M  V30 6636 C 634.936 4.03215 -1.76369 0
M  V30 6637 H 632.055 0.605205 -0.42059 0
M  V30 6638 H 634.697 1.06255 -1.57512 0
M  V30 6639 H 632.847 3.54365 -1.59242 0
M  V30 6640 H 634.519 2.40118 -3.9388 0
M  V30 6641 H 632.762 2.19848 -3.73964 0
M  V30 6642 H 633.433 3.8127 -3.99171 0
M  V30 6643 H 635.909 3.60617 -2.07593 0
M  V30 6644 H 634.785 4.96306 -2.34459 0
M  V30 6645 H 635.046 4.36288 -0.71452 0
M  V30 6646 N 634.105 1.10431 1.1244 0
M  V30 6647 C 635.037 0.710945 2.17895 0
M  V30 6648 C 636.05 -0.252315 1.60833 0
M  V30 6649 O 637.239 -0.03679 1.78462 0
M  V30 6650 C 634.339 0.0284262 3.38888 0
M  V30 6651 C 633.512 1.01585 4.2544 0
M  V30 6652 C 632.571 0.364826 5.24934 0
M  V30 6653 O 631.597 1.01561 5.60066 0
M  V30 6654 N 632.799 -0.87674 5.73841 0
M  V30 6655 H 635.564 1.61826 2.52255 0
M  V30 6656 H 633.125 0.993132 1.27861 0
M  V30 6657 H 635.117 -0.418568 4.0253 0
M  V30 6658 H 633.687 -0.781294 3.02679 0
M  V30 6659 H 632.907 1.64111 3.58415 0
M  V30 6660 H 634.195 1.68425 4.80115 0
M  V30 6661 H 633.593 -1.42483 5.47462 0
M  V30 6662 H 632.15 -1.26688 6.39369 0
M  V30 6663 N 635.583 -1.29855 0.893053 0
M  V30 6664 C 636.546 -2.26183 0.370687 0
M  V30 6665 C 637.546 -1.53108 -0.491385 0
M  V30 6666 O 638.736 -1.71643 -0.297386 0
M  V30 6667 C 635.868 -3.37633 -0.470827 0
M  V30 6668 H 637.061 -2.73903 1.22135 0
M  V30 6669 H 634.614 -1.41183 0.67061 0
M  V30 6670 H 635.349 -2.95241 -1.34175 0
M  V30 6671 H 635.134 -3.91825 0.146784 0
M  V30 6672 H 636.624 -4.09313 -0.827825 0
M  V30 6673 N 637.061 -0.65484 -1.43351 0
M  V30 6674 C 637.991 0.0221809 -2.33489 0
M  V30 6675 C 638.972 0.810272 -1.49561 0
M  V30 6676 O 640.157 0.771426 -1.78221 0
M  V30 6677 C 637.287 0.988117 -3.32947 0
M  V30 6678 C 636.241 0.310026 -4.26876 0
M  V30 6679 C 635.567 1.38752 -5.16384 0
M  V30 6680 C 636.867 -0.798589 -5.16159 0
M  V30 6681 H 638.561 -0.730571 -2.9035 0
M  V30 6682 H 636.107 -0.352773 -1.39612 0
M  V30 6683 H 638.06 1.47067 -3.94904 0
M  V30 6684 H 636.784 1.77205 -2.74346 0
M  V30 6685 H 635.443 -0.152097 -3.66284 0
M  V30 6686 H 635.091 2.16293 -4.54121 0
M  V30 6687 H 634.791 0.939051 -5.80048 0
M  V30 6688 H 636.315 1.87141 -5.81215 0
M  V30 6689 H 637.729 -0.398126 -5.71916 0
M  V30 6690 H 636.126 -1.17163 -5.88552 0
M  V30 6691 H 637.196 -1.65588 -4.55751 0
M  V30 6692 N 638.539 1.52521 -0.396863 0
M  V30 6693 C 639.787 2.01274 0.182536 0
M  V30 6694 C 640.108 1.28485 1.46685 0
M  V30 6695 O 639.378 0.407134 1.91623 0
M  V30 6696 H 637.958 0.743671 0.0704442 0
M  V30 6697 H 640.62 1.87547 -0.530289 0
M  V30 6698 H 639.716 3.09687 0.387385 0
M  V30 6699 N 640.017 0.126909 1.57088 0
M  V30 6700 C 640.947 -0.816847 2.18746 0
M  V30 6701 C 641.928 -1.27161 1.12979 0
M  V30 6702 O 643.113 -1.33279 1.41246 0
M  V30 6703 C 640.243 -2.06398 2.79315 0
M  V30 6704 C 639.197 -1.74673 3.90735 0
M  V30 6705 C 638.523 -3.06482 4.38147 0
M  V30 6706 C 639.823 -1.0089 5.12463 0
M  V30 6707 H 641.517 -0.303032 2.97863 0
M  V30 6708 H 639.063 -0.144314 1.43275 0
M  V30 6709 H 641.016 -2.72885 3.2111 0
M  V30 6710 H 639.74 -2.60118 1.975 0
M  V30 6711 H 638.399 -1.10572 3.49527 0
M  V30 6712 H 638.047 -3.58152 3.5318 0
M  V30 6713 H 637.747 -2.86025 5.13287 0
M  V30 6714 H 639.271 -3.74073 4.82599 0
M  V30 6715 H 640.685 -1.57546 5.51228 0
M  V30 6716 H 639.082 -0.905006 5.93237 0
M  V30 6717 H 640.152 0.00297335 4.849 0
M  V30 6718 N 641.495 -1.56914 -0.146875 0
M  V30 6719 C 642.458 -1.97368 -1.16526 0
M  V30 6720 C 643.458 -0.860223 -1.35856 0
M  V30 6721 O 644.648 -1.12684 -1.32846 0
M  V30 6722 C 641.78 -2.28974 -2.52555 0
M  V30 6723 H 642.973 -2.88523 -0.818209 0
M  V30 6724 H 640.526 -1.5135 -0.390221 0
M  V30 6725 H 641.261 -1.40611 -2.92231 0
M  V30 6726 H 641.046 -3.10157 -2.39886 0
M  V30 6727 H 642.536 -2.61109 -3.25902 0
M  V30 6728 N 642.974 0.416227 -1.52004 0
M  V30 6729 C 643.884 1.53147 -1.77717 0
M  V30 6730 C 644.9 1.609 -0.662368 0
M  V30 6731 O 646.076 1.77747 -0.946991 0
M  V30 6732 C 643.141 2.88948 -1.91598 0
M  V30 6733 C 642.202 2.9114 -3.15493 0
M  V30 6734 C 641.435 4.20464 -3.28703 0
M  V30 6735 O 641.658 5.13981 -2.47345 0
M  V30 6736 O 640.592 4.29368 -4.21813 0
M  V30 6737 H 644.418 1.34357 -2.72363 0
M  V30 6738 H 642.003 0.601373 -1.36762 0
M  V30 6739 H 643.885 3.69505 -2.02593 0
M  V30 6740 H 642.56 3.07821 -1.00141 0
M  V30 6741 H 641.467 2.09461 -3.09962 0
M  V30 6742 H 642.8 2.77216 -4.06709 0
M  V30 6743 N 644.452 1.42507 0.673017 0
M  V30 6744 C 645.415 1.4582 1.76831 0
M  V30 6745 C 646.415 0.345542 1.57043 0
M  V30 6746 O 647.605 0.606447 1.63303 0
M  V30 6747 C 644.737 1.29158 3.15485 0
M  V30 6748 H 645.93 2.43345 1.7528 0
M  V30 6749 H 643.483 1.28981 0.882817 0
M  V30 6750 H 644.218 0.325626 3.22661 0
M  V30 6751 H 644.003 2.09797 3.31252 0
M  V30 6752 H 645.493 1.34363 3.95394 0
M  V30 6753 N 645.93 -0.909495 1.28709 0
M  V30 6754 C 646.862 -2.01729 1.08804 0
M  V30 6755 C 647.875 -1.62755 0.0384739 0
M  V30 6756 O 649.064 -1.76259 0.281977 0
M  V30 6757 C 646.164 -3.32952 0.63217 0
M  V30 6758 C 645.337 -4.00512 1.75809 0
M  V30 6759 C 644.396 -5.10019 1.29488 0
M  V30 6760 O 643.422 -5.32986 1.99787 0
M  V30 6761 N 644.624 -5.80278 0.1604 0
M  V30 6762 H 647.389 -2.19362 2.04207 0
M  V30 6763 H 644.95 -1.08106 1.20518 0
M  V30 6764 H 646.942 -4.03543 0.305802 0
M  V30 6765 H 645.512 -3.11759 -0.229134 0
M  V30 6766 H 644.732 -3.23413 2.25383 0
M  V30 6767 H 646.02 -4.42395 2.51325 0
M  V30 6768 H 645.418 -5.64094 -0.425937 0
M  V30 6769 H 643.975 -6.51713 -0.106663 0
M  V30 6770 N 647.408 -1.11026 -1.11852 0
M  V30 6771 C 648.819 -0.873203 -1.65021 0
M  V30 6772 C 649.17 0.595364 -1.86949 0
M  V30 6773 O 648.295 1.45645 -1.60051 0
M  V30 6774 C 648.89 -1.57859 -2.99777 0
M  V30 6775 C 647.449 -1.38807 -3.49871 0
M  V30 6776 C 646.596 -1.62403 -2.24768 0
M  V30 6777 H 649.547 -1.26712 -0.955503 0
M  V30 6778 H 649.568 -1.02111 -3.66543 0
M  V30 6779 H 649.08 -2.6474 -2.83786 0
M  V30 6780 H 647.181 -0.341163 -3.71035 0
M  V30 6781 H 647.294 -2.13421 -4.28938 0
M  V30 6782 H 645.658 -1.04714 -2.32179 0
M  V30 6783 H 646.441 -2.70549 -2.11324 0
M  V30 6784 N 648.886 1.2938 -0.899927 0
M  V30 6785 C 649.819 2.25911 -0.322386 0
M  V30 6786 C 650.797 1.52447 0.565567 0
M  V30 6787 O 651.981 1.81404 0.512324 0
M  V30 6788 C 649.108 3.3436 0.540455 0
M  V30 6789 C 648.154 4.25579 -0.280211 0
M  V30 6790 S 648.987 5.08526 -1.67814 0
M  V30 6791 C 650.143 6.20476 -0.822224 0
M  V30 6792 H 650.376 2.7455 -1.1406 0
M  V30 6793 H 647.909 1.37606 -0.700285 0
M  V30 6794 H 649.867 3.97303 1.0325 0
M  V30 6795 H 648.528 2.84416 1.33291 0
M  V30 6796 H 647.721 5.02574 0.378915 0
M  V30 6797 H 647.323 3.67287 -0.705405 0
M  V30 6798 H 649.615 6.77485 -0.0457138 0
M  V30 6799 H 650.558 6.90606 -1.56426 0
M  V30 6800 H 650.966 5.63243 -0.37651 0
M  V30 6801 N 650.364 0.662433 1.43002 0
M  V30 6802 C 651.327 -0.0142016 2.29196 0
M  V30 6803 C 652.327 -0.741394 1.42688 0
M  V30 6804 O 653.517 -0.581257 1.64216 0
M  V30 6805 C 650.649 -1.03084 3.24941 0
M  V30 6806 H 651.842 0.7443 2.90517 0
M  V30 6807 H 649.395 0.424133 1.50435 0
M  V30 6808 H 650.13 -1.81826 2.68533 0
M  V30 6809 H 649.915 -0.512946 3.8873 0
M  V30 6810 H 651.405 -1.50308 3.89612 0
M  V30 6811 N 651.842 -1.52309 0.404946 0
M  V30 6812 C 653.088 -2.02065 -0.172455 0
M  V30 6813 C 653.421 -1.29022 -1.45145 0
M  V30 6814 O 652.696 -0.395284 -1.90441 0
M  V30 6815 C 652.979 -3.5759 -0.424433 0
M  V30 6816 C 652.832 -4.41287 0.870945 0
M  V30 6817 C 654.151 -4.23186 -1.20837 0
M  V30 6818 H 651.27 -0.734454 -0.0612035 0
M  V30 6819 H 653.912 -1.82236 0.53759 0
M  V30 6820 H 652.062 -3.74617 -1.02929 0
M  V30 6821 H 653.734 -4.3598 1.50729 0
M  V30 6822 H 651.977 -4.07669 1.48284 0
M  V30 6823 H 652.648 -5.48171 0.649083 0
M  V30 6824 H 655.124 -4.10232 -0.696338 0
M  V30 6825 H 654 -5.31953 -1.35343 0
M  V30 6826 H 654.261 -3.81862 -2.22786 0
M  V30 6827 N 653.32 -0.135238 -1.57019 0
M  V30 6828 C 654.566 0.519563 -1.96032 0
M  V30 6829 C 654.899 1.65284 -1.01955 0
M  V30 6830 O 654.174 1.94408 -0.059727 0
M  V30 6831 C 654.457 1.0369 -3.44848 0
M  V30 6832 C 654.31 -0.0940754 -4.49702 0
M  V30 6833 C 655.629 1.92254 -3.95887 0
M  V30 6834 H 652.748 0.18739 -0.712779 0
M  V30 6835 H 655.39 -0.214086 -1.8879 0
M  V30 6836 H 653.54 1.66209 -3.5115 0
M  V30 6837 H 655.212 -0.73 -4.55487 0
M  V30 6838 H 653.455 -0.754924 -4.27181 0
M  V30 6839 H 654.126 0.309419 -5.51132 0
M  V30 6840 H 656.602 1.39581 -3.9199 0
M  V30 6841 H 655.478 2.25364 -5.00502 0
M  V30 6842 H 655.739 2.85513 -3.37543 0
M  V30 6843 N 654.798 1.5699 0.138552 0
M  V30 6844 C 655.73 1.95515 1.1961 0
M  V30 6845 C 656.743 0.852002 1.38726 0
M  V30 6846 O 657.932 1.13038 1.38147 0
M  V30 6847 C 655.032 2.2213 2.55952 0
M  V30 6848 C 654.205 3.53424 2.57702 0
M  V30 6849 C 653.264 3.6848 3.75645 0
M  V30 6850 O 652.29 4.4079 3.60129 0
M  V30 6851 N 653.492 3.05777 4.93438 0
M  V30 6852 H 656.257 2.86838 0.868557 0
M  V30 6853 H 653.818 1.58542 0.328033 0
M  V30 6854 H 655.81 2.29435 3.33379 0
M  V30 6855 H 654.38 1.3703 2.80965 0
M  V30 6856 H 653.6 3.57484 1.6613 0
M  V30 6857 H 654.888 4.39759 2.55909 0
M  V30 6858 H 654.286 2.46961 5.08947 0
M  V30 6859 H 652.843 3.18631 5.6861 0
M  V30 6860 N 656.276 -0.40816 1.52223 0
M  V30 6861 C 657.501 -1.18127 1.70472 0
M  V30 6862 C 657.926 -1.83491 0.41384 0
M  V30 6863 O 657.284 -1.70047 -0.628778 0
M  V30 6864 C 657.332 -2.21935 2.84213 0
M  V30 6865 O 656.436 -3.28099 2.4985 0
M  V30 6866 H 655.777 -0.344781 0.56747 0
M  V30 6867 H 658.307 -0.478328 1.9893 0
M  V30 6868 H 658.317 -2.66248 3.09153 0
M  V30 6869 H 656.992 -1.73744 3.7787 0
M  V30 6870 H 655.569 -2.89058 2.35584 0
M  V30 6871 N 657.755 -1.42862 -0.66545 0
M  V30 6872 C 659.001 -1.44043 -1.42757 0
M  V30 6873 C 659.334 -0.0599629 -1.94107 0
M  V30 6874 O 658.609 0.917286 -1.71511 0
M  V30 6875 C 658.892 -2.47266 -2.61786 0
M  V30 6876 C 658.745 -3.94539 -2.16007 0
M  V30 6877 C 660.064 -2.47365 -3.64003 0
M  V30 6878 H 657.183 -0.524506 -0.517748 0
M  V30 6879 H 659.825 -1.74335 -0.755466 0
M  V30 6880 H 657.975 -2.21565 -3.19126 0
M  V30 6881 H 659.647 -4.31254 -1.63762 0
M  V30 6882 H 657.89 -4.07957 -1.47491 0
M  V30 6883 H 658.561 -4.62357 -3.01546 0
M  V30 6884 H 661.037 -2.70243 -3.16399 0
M  V30 6885 H 659.913 -3.21552 -4.44854 0
M  V30 6886 H 660.174 -1.50299 -4.15767 0
M  V30 6887 N 659.233 0.902656 -1.29189 0
M  V30 6888 C 660.644 1.46809 -1.15343 0
M  V30 6889 C 660.995 1.94568 0.252517 0
M  V30 6890 O 660.12 1.83454 1.14777 0
M  V30 6891 C 660.715 2.66829 -2.08776 0
M  V30 6892 C 659.274 3.19518 -1.98961 0
M  V30 6893 C 658.421 1.92212 -1.99874 0
M  V30 6894 H 661.372 0.714282 -1.41717 0
M  V30 6895 H 661.393 3.42465 -1.65826 0
M  V30 6896 H 660.905 2.32039 -3.11094 0
M  V30 6897 H 659.006 3.59008 -0.99721 0
M  V30 6898 H 659.119 3.84016 -2.86477 0
M  V30 6899 H 657.483 2.0979 -1.44431 0
M  V30 6900 H 658.266 1.59702 -3.03891 0
M  V30 6901 N 660.711 1.11618 1.11262 0
M  V30 6902 C 661.959 0.864469 1.82678 0
M  V30 6903 C 662.28 -0.611564 1.85162 0
M  V30 6904 O 661.55 -1.44429 1.32352 0
M  V30 6905 H 660.13 0.316821 0.676486 0
M  V30 6906 H 662.792 1.40894 1.34666 0
M  V30 6907 H 661.888 1.23832 2.86482 0
M  V30 6908 N 662.189 -1.289 0.906776 0
M  V30 6909 C 663.152 -2.25777 0.394656 0
M  V30 6910 C 664.152 -1.53621 -0.475119 0
M  V30 6911 O 665.342 -1.71949 -0.279165 0
M  V30 6912 C 662.474 -3.38113 -0.43499 0
M  V30 6913 H 663.667 -2.72592 1.25033 0
M  V30 6914 H 661.22 -1.40463 0.685547 0
M  V30 6915 H 661.955 -2.96648 -1.31036 0
M  V30 6916 H 661.74 -3.91647 0.188334 0
M  V30 6917 H 663.23 -4.10168 -0.784365 0
M  V30 6918 N 663.667 -0.670007 -1.42649 0
M  V30 6919 C 664.617 0.0339546 -2.27975 0
M  V30 6920 C 665.601 0.778295 -1.40824 0
M  V30 6921 O 666.793 0.657997 -1.64315 0
M  V30 6922 C 663.922 0.987899 -3.28779 0
M  V30 6923 C 663.008 0.241153 -4.23414 0
M  V30 6924 N 663.399 -0.751392 -5.00188 0
M  V30 6925 C 661.697 0.480269 -4.43407 0
M  V30 6926 C 662.398 -1.19615 -5.69269 0
M  V30 6927 N 661.374 -0.527045 -5.41039 0
M  V30 6928 H 665.176 -0.727425 -2.84756 0
M  V30 6929 H 662.69 -0.498673 -1.54554 0
M  V30 6930 H 664.687 1.50716 -3.88703 0
M  V30 6931 H 663.347 1.74916 -2.73559 0
M  V30 6932 H 664.358 -1.13075 -5.05405 0
M  V30 6933 H 661.035 1.2214 -3.99234 0
M  V30 6934 H 662.425 -2.01836 -6.40868 0
M  V30 6935 N 665.145 1.52092 -0.413018 0
M  V30 6936 C 666.556 1.86617 0.0556967 0
M  V30 6937 C 666.907 1.33156 1.44097 0
M  V30 6938 O 666.032 0.672417 2.05688 0
M  V30 6939 C 666.627 3.38628 0.107844 0
M  V30 6940 C 665.186 3.72778 0.520904 0
M  V30 6941 C 664.333 2.75649 -0.302109 0
M  V30 6942 H 667.284 1.45663 -0.629919 0
M  V30 6943 H 667.305 3.69152 0.922324 0
M  V30 6944 H 666.817 3.77508 -0.900506 0
M  V30 6945 H 664.918 3.39478 1.53575 0
M  V30 6946 H 665.031 4.7838 0.262591 0
M  V30 6947 H 663.395 2.53603 0.236115 0
M  V30 6948 H 664.178 3.17369 -1.30888 0
M  V30 6949 N 666.623 0.143563 1.56945 0
M  V30 6950 C 667.869 -0.50916 1.96304 0
M  V30 6951 C 668.202 -1.64741 1.0283 0
M  V30 6952 O 667.477 -1.94374 0.0700361 0
M  V30 6953 C 667.76 -1.0186 3.45393 0
M  V30 6954 C 667.613 0.117923 4.49645 0
M  V30 6955 C 668.932 -1.90151 3.96901 0
M  V30 6956 H 666.051 -0.183608 0.713763 0
M  V30 6957 H 668.693 0.224095 1.88674 0
M  V30 6958 H 666.843 -1.64345 3.52027 0
M  V30 6959 H 668.515 0.754145 4.55094 0
M  V30 6960 H 666.758 0.777568 4.26774 0
M  V30 6961 H 667.429 -0.280187 5.51288 0
M  V30 6962 H 669.905 -1.375 3.92725 0
M  V30 6963 H 668.781 -2.22707 5.0169 0
M  V30 6964 H 669.042 -2.83718 3.39052 0
M  V30 6965 N 668.101 -1.57061 -0.130224 0
M  V30 6966 C 669.512 -1.73539 -0.68856 0
M  V30 6967 C 669.863 -0.760554 -1.80859 0
M  V30 6968 O 668.988 0.0690796 -2.1629 0
M  V30 6969 C 669.583 -3.14666 -1.25581 0
M  V30 6970 C 668.142 -3.32689 -1.76055 0
M  V30 6971 C 667.289 -2.69436 -0.655712 0
M  V30 6972 H 670.24 -1.58412 0.0956002 0
M  V30 6973 H 670.261 -3.15595 -2.12556 0
M  V30 6974 H 669.773 -3.85593 -0.440412 0
M  V30 6975 H 667.874 -2.66786 -2.60108 0
M  V30 6976 H 667.987 -4.4077 -1.87772 0
M  V30 6977 H 666.351 -2.30362 -1.08654 0
M  V30 6978 H 667.134 -3.42979 0.14852 0
M  V30 6979 N 669.579 0.400081 -1.52437 0
M  V30 6980 C 670.825 1.14788 -1.67187 0
M  V30 6981 C 671.158 1.89928 -0.405074 0
M  V30 6982 O 670.433 1.85118 0.596804 0
M  V30 6983 C 670.716 2.13507 -2.89977 0
M  V30 6984 C 670.569 1.42204 -4.2673 0
M  V30 6985 C 671.888 3.14069 -3.083 0
M  V30 6986 H 669.007 0.415939 -0.608411 0
M  V30 6987 H 671.649 0.432542 -1.85011 0
M  V30 6988 H 669.799 2.7451 -2.74912 0
M  V30 6989 H 671.471 0.842503 -4.53541 0
M  V30 6990 H 669.714 0.723939 -4.27717 0
M  V30 6991 H 670.385 2.14281 -5.08712 0
M  V30 6992 H 672.861 2.63148 -3.22323 0
M  V30 6993 H 671.737 3.80398 -3.95713 0
M  V30 6994 H 671.998 3.82309 -2.22018 0
M  V30 6995 N 671.057 1.43213 0.657864 0
M  V30 6996 C 672.287 1.478 1.44356 0
M  V30 6997 C 672.695 0.0930206 1.88971 0
M  V30 6998 O 672.038 -0.906089 1.59799 0
M  V30 6999 C 672.1 2.35745 2.71412 0
M  V30 7000 C 671.764 3.83359 2.48767 0
M  V30 7001 C 672.761 4.74585 2.12285 0
M  V30 7002 C 670.446 4.27799 2.63235 0
M  V30 7003 C 672.44 6.08247 1.90562 0
M  V30 7004 C 670.127 5.61516 2.41128 0
M  V30 7005 C 671.125 6.51557 2.04847 0
M  V30 7006 O 670.813 7.82802 1.82967 0
M  V30 7007 H 670.545 0.504363 0.450104 0
M  V30 7008 H 673.099 1.88572 0.814241 0
M  V30 7009 H 671.329 1.89852 3.36887 0
M  V30 7010 H 673.018 2.31589 3.33348 0
M  V30 7011 H 673.784 4.41531 2.00687 0
M  V30 7012 H 669.663 3.57993 2.90451 0
M  V30 7013 H 673.207 6.78489 1.62168 0
M  V30 7014 H 669.104 5.94139 2.52327 0
M  V30 7015 H 669.872 7.94332 1.97429 0
M  V30 7016 N 672.536 -0.895792 1.29666 0
M  V30 7017 C 673.499 -1.98189 1.15124 0
M  V30 7018 C 674.499 -1.60572 0.0855717 0
M  V30 7019 O 675.689 -1.70991 0.332826 0
M  V30 7020 C 672.821 -3.32289 0.761372 0
M  V30 7021 H 674.014 -2.12518 2.11603 0
M  V30 7022 H 671.567 -1.0808 1.12908 0
M  V30 7023 H 672.302 -3.23662 -0.203393 0
M  V30 7024 H 672.087 -3.60958 1.53139 0
M  V30 7025 H 673.577 -4.1198 0.682792 0
M  V30 7026 N 674.014 -1.12206 -1.10668 0
M  V30 7027 C 675.261 -0.875875 -1.82578 0
M  V30 7028 C 675.589 0.598342 -1.85068 0
M  V30 7029 O 674.844 1.45818 -1.3052 0
M  V30 7030 C 675.143 -1.39276 -3.29146 0
M  V30 7031 C 674.809 -2.8816 -3.46806 0
M  V30 7032 C 673.471 -3.28813 -3.51334 0
M  V30 7033 C 675.823 -3.8401 -3.52399 0
M  V30 7034 C 673.151 -4.64028 -3.59019 0
M  V30 7035 C 675.503 -5.19053 -3.61617 0
M  V30 7036 C 674.167 -5.59252 -3.64408 0
M  V30 7037 H 673.437 -0.320505 -0.6681 0
M  V30 7038 H 676.084 -1.40184 -1.30464 0
M  V30 7039 H 674.389 -0.787207 -3.8381 0
M  V30 7040 H 676.086 -1.17851 -3.83291 0
M  V30 7041 H 672.676 -2.55716 -3.43958 0
M  V30 7042 H 676.86 -3.53698 -3.48154 0
M  V30 7043 H 672.116 -4.94568 -3.59461 0
M  V30 7044 H 676.29 -5.93152 -3.64889 0
M  V30 7045 H 673.917 -6.64017 -3.70116 0
M  V30 7046 N 675.492 1.28418 -0.913599 0
M  V30 7047 C 676.717 1.99643 -0.561899 0
M  V30 7048 C 677.142 1.67819 0.849608 0
M  V30 7049 O 676.5 0.910503 1.56779 0
M  V30 7050 C 676.548 3.52116 -0.777622 0
M  V30 7051 O 675.652 4.12076 0.163457 0
M  V30 7052 H 674.993 0.627229 -0.217898 0
M  V30 7053 H 677.523 1.63575 -1.229 0
M  V30 7054 H 677.533 4.02163 -0.687666 0
M  V30 7055 H 676.208 3.74613 -1.8066 0
M  V30 7056 H 674.785 3.72892 0.0247827 0
M  V30 7057 N 676.97 0.677563 1.42291 0
M  V30 7058 C 678.219 0.198173 2.00724 0
M  V30 7059 C 678.532 -1.20325 1.54211 0
M  V30 7060 O 679.738 -1.77916 2.05081 0
M  V30 7061 C 678.194 0.303432 3.58619 0
M  V30 7062 C 677.802 1.70909 4.14119 0
M  V30 7063 C 679.546 -0.117103 4.24338 0
M  V30 7064 C 677.453 1.76696 5.64387 0
M  V30 7065 H 676.383 0.070329 0.750713 0
M  V30 7066 H 679.034 0.843147 1.62982 0
M  V30 7067 H 677.416 -0.409482 3.93877 0
M  V30 7068 H 678.59 2.44931 3.90315 0
M  V30 7069 H 676.905 2.07771 3.6086 0
M  V30 7070 H 679.502 -0.0940471 5.34617 0
M  V30 7071 H 679.845 -1.15283 4.00019 0
M  V30 7072 H 680.378 0.5449 3.9405 0
M  V30 7073 H 677.117 2.7826 5.93508 0
M  V30 7074 H 676.637 1.07034 5.90173 0
M  V30 7075 H 678.316 1.52166 6.28852 0
M  V30 7076 N 678.448 -1.51871 0.421078 0
M  V30 7077 C 679.395 -2.27334 -0.398508 0
M  V30 7078 C 680.365 -1.30241 -1.03085 0
M  V30 7079 O 681.55 -1.59121 -1.05285 0
M  V30 7080 C 678.69 -3.10664 -1.50272 0
M  V30 7081 C 677.803 -4.2273 -0.890122 0
M  V30 7082 C 676.938 -4.93399 -1.96803 0
M  V30 7083 C 675.977 -5.97409 -1.333 0
M  V30 7084 N 675.114 -6.61548 -2.35156 0
M  V30 7085 H 679.954 -2.96938 0.251411 0
M  V30 7086 H 677.491 -1.46472 0.135825 0
M  V30 7087 H 679.449 -3.57292 -2.15403 0
M  V30 7088 H 678.079 -2.43207 -2.1225 0
M  V30 7089 H 677.131 -3.80186 -0.127537 0
M  V30 7090 H 678.443 -4.97302 -0.386349 0
M  V30 7091 H 677.597 -5.43491 -2.69633 0
M  V30 7092 H 676.336 -4.18421 -2.50549 0
M  V30 7093 H 675.341 -5.46624 -0.59008 0
M  V30 7094 H 676.566 -6.74335 -0.803076 0
M  V30 7095 H 674.512 -5.89394 -2.88012 0
M  V30 7096 H 674.429 -7.31832 -1.89624 0
M  V30 7097 H 675.697 -7.16276 -3.0752 0
M  V30 7098 N 679.926 -0.151884 -1.56866 0
M  V30 7099 C 681.174 0.497021 -1.95893 0
M  V30 7100 C 681.495 1.65078 -1.03799 0
M  V30 7101 O 680.765 1.95642 -0.10049 0
M  V30 7102 H 679.345 0.186603 -0.723318 0
M  V30 7103 H 682.007 -0.228525 -1.93556 0
M  V30 7104 H 681.103 0.869933 -2.99731 0
M  V30 7105 N 681.404 1.57128 0.121893 0
M  V30 7106 C 682.815 1.73902 0.679348 0
M  V30 7107 C 683.166 0.770135 1.80453 0
M  V30 7108 O 682.291 -0.0576083 2.16323 0
M  V30 7109 C 682.886 3.15328 1.2391 0
M  V30 7110 C 681.445 3.33618 1.74288 0
M  V30 7111 C 680.592 2.6978 0.641414 0
M  V30 7112 H 683.543 1.58359 -0.104 0
M  V30 7113 H 683.564 3.16718 2.10879 0
M  V30 7114 H 683.076 3.85821 0.419957 0
M  V30 7115 H 681.177 2.68162 2.58689 0
M  V30 7116 H 681.29 4.4176 1.85432 0
M  V30 7117 H 679.654 2.30935 1.0743 0
M  V30 7118 H 680.437 3.42895 -0.166707 0
M  V30 7119 N 682.882 -0.391992 1.52647 0
M  V30 7120 C 684.107 -1.16312 1.71716 0
M  V30 7121 C 684.532 -1.83042 0.433279 0
M  V30 7122 O 683.89 -1.70705 -0.610707 0
M  V30 7123 C 683.938 -2.18908 2.86551 0
M  V30 7124 O 683.042 -3.2543 2.53316 0
M  V30 7125 H 682.383 -0.338743 0.571095 0
M  V30 7126 H 684.913 -0.457202 1.99426 0
M  V30 7127 H 684.923 -2.62954 3.1196 0
M  V30 7128 H 683.598 -1.69726 3.79692 0
M  V30 7129 H 682.175 -2.86543 2.38637 0
M  V30 7130 N 684.36 -1.4356 -0.65026 0
M  V30 7131 C 685.59 -1.48563 -1.4357 0
M  V30 7132 C 685.998 -0.103041 -1.88919 0
M  V30 7133 O 685.341 0.897602 -1.60277 0
M  V30 7134 C 685.403 -2.37181 -2.70158 0
M  V30 7135 C 685.067 -3.84673 -2.4673 0
M  V30 7136 C 686.064 -4.75704 -2.09765 0
M  V30 7137 C 683.749 -4.29189 -2.60963 0
M  V30 7138 C 685.743 -6.09249 -1.87334 0
M  V30 7139 C 683.43 -5.62787 -2.38147 0
M  V30 7140 C 684.428 -6.52634 -2.01389 0
M  V30 7141 O 684.116 -7.83761 -1.78813 0
M  V30 7142 H 683.848 -0.506743 -0.447423 0
M  V30 7143 H 686.402 -1.89001 -0.80423 0
M  V30 7144 H 684.632 -1.91636 -3.35876 0
M  V30 7145 H 686.321 -2.33354 -3.32116 0
M  V30 7146 H 687.087 -4.42589 -1.98343 0
M  V30 7147 H 682.966 -3.59529 -2.88548 0
M  V30 7148 H 686.51 -6.7934 -1.58567 0
M  V30 7149 H 682.407 -5.95469 -2.49173 0
M  V30 7150 H 683.175 -7.95368 -1.93214 0
M  V30 7151 N 685.838 0.888903 -1.30139 0
M  V30 7152 C 687.086 1.63713 -1.18501 0
M  V30 7153 C 687.407 1.9324 0.261399 0
M  V30 7154 O 686.677 1.56608 1.17689 0
M  V30 7155 H 685.257 0.606861 -0.435579 0
M  V30 7156 H 687.919 1.06525 -1.63213 0
M  V30 7157 H 687.015 2.58894 -1.743 0
M  V30 7158 N 687.317 1.12792 1.10072 0
M  V30 7159 C 688.227 0.812369 2.20086 0
M  V30 7160 C 689.243 -0.200349 1.72843 0
M  V30 7161 O 690.419 -0.0330262 2.01373 0
M  V30 7162 C 687.484 0.275685 3.45602 0
M  V30 7163 C 686.545 1.34881 4.07561 0
M  V30 7164 C 685.778 0.837639 5.27086 0
M  V30 7165 O 686.001 -0.327224 5.69461 0
M  V30 7166 O 684.935 1.60894 5.79997 0
M  V30 7167 H 688.761 1.73133 2.49517 0
M  V30 7168 H 686.346 0.904863 1.18881 0
M  V30 7169 H 688.228 -0.0185375 4.21396 0
M  V30 7170 H 686.903 -0.615783 3.17789 0
M  V30 7171 H 685.81 1.69625 3.33434 0
M  V30 7172 H 687.143 2.21418 4.39585 0
M  V30 7173 N 688.795 -1.27931 0.920396 0
M  V30 7174 C 690.072 -1.89728 0.475687 0
M  V30 7175 C 690.452 -1.8337 -1.04588 0
M  V30 7176 O 689.8 -1.27404 -1.89685 0
M  V30 7177 C 690.01 -3.33959 1.01354 0
M  V30 7178 C 691.358 -4.10907 1.06963 0
M  V30 7179 O 692.382 -3.42945 0.962646 0
M  V30 7180 O 691.241 -5.32399 1.23343 0
M  V30 7181 H 688.335 -0.81294 0.151845 0
M  V30 7182 H 690.881 -1.36252 1.01161 0
M  V30 7183 H 689.653 -3.32843 2.05746 0
M  V30 7184 H 689.276 -3.94944 0.458829 0
M  V30 7185 N 690.273 -0.685099 -1.4193 0
M  V30 7186 C 691.519 -0.211971 -2.01689 0
M  V30 7187 C 691.852 1.18189 -1.54094 0
M  V30 7188 O 691.127 1.79559 -0.747572 0
M  V30 7189 C 691.41 -0.258019 -3.59174 0
M  V30 7190 C 691.263 -1.68807 -4.16922 0
M  V30 7191 C 692.582 0.388044 -4.38386 0
M  V30 7192 H 689.701 -0.0784987 -0.732808 0
M  V30 7193 H 692.343 -0.871837 -1.68816 0
M  V30 7194 H 690.493 0.303832 -3.8731 0
M  V30 7195 H 692.165 -2.30296 -3.99702 0
M  V30 7196 H 690.408 -2.22553 -3.72361 0
M  V30 7197 H 691.079 -1.6719 -5.26072 0
M  V30 7198 H 693.555 -0.0903432 -4.16002 0
M  V30 7199 H 692.431 0.325232 -5.47936 0
M  V30 7200 H 692.692 1.4672 -4.17044 0
M  V30 7201 N 691.751 1.51645 -0.429126 0
M  V30 7202 C 692.976 2.06917 0.141399 0
M  V30 7203 C 693.401 1.29527 1.36398 0
M  V30 7204 O 692.759 0.33094 1.78254 0
M  V30 7205 C 692.807 3.57776 0.4504 0
M  V30 7206 O 691.911 3.82639 1.53821 0
M  V30 7207 H 691.252 0.663978 0.0054647 0
M  V30 7208 H 693.782 1.95355 -0.608093 0
M  V30 7209 H 693.792 4.01894 0.703249 0
M  V30 7210 H 692.467 4.13532 -0.443213 0
M  V30 7211 H 691.044 3.5039 1.27597 0
M  V30 7212 N 693.229 0.160201 1.56784 0
M  V30 7213 C 694.177 -0.791402 2.18723 0
M  V30 7214 C 695.171 -1.24567 1.14801 0
M  V30 7215 O 696.377 -1.21262 1.33025 0
M  V30 7216 H 692.752 -0.273458 0.700517 0
M  V30 7217 H 694.723 -0.244931 2.97393 0
M  V30 7218 C 693.472 -2.01509 2.83354 0
M  V30 7219 H 692.795 -1.67454 3.63041 0
M  V30 7220 H 694.235 -2.66006 3.30177 0
M  V30 7221 C 692.694 -2.83159 1.82545 0
M  V30 7222 O 693.224 -3.79944 1.30405 0
M  V30 7223 N 691.43 -2.47953 1.51552 0
M  V30 7224 H 690.977 -1.69309 1.94144 0
M  V30 7225 H 690.935 -3.02873 0.843519 0
M  V30 7226 N 694.707 -1.5719 -0.113559 0
M  V30 7227 C 695.935 -1.89328 -0.834422 0
M  V30 7228 C 696.35 -0.752018 -1.73177 0
M  V30 7229 O 695.707 0.276912 -1.80387 0
M  V30 7230 C 695.758 -3.20962 -1.66329 0
M  V30 7231 O 695.479 -4.30695 -0.802069 0
M  V30 7232 C 696.98 -3.6684 -2.48884 0
M  V30 7233 H 694.2 -0.626769 -0.239587 0
M  V30 7234 H 696.744 -2.04273 -0.0963195 0
M  V30 7235 H 694.899 -3.0767 -2.35409 0
M  V30 7236 H 695.313 -5.06175 -1.37431 0
M  V30 7237 H 696.787 -4.61692 -3.02563 0
M  V30 7238 H 697.264 -2.93765 -3.26495 0
M  V30 7239 H 697.87 -3.82938 -1.85036 0
M  V30 7240 N 696.185 0.383891 -1.52853 0
M  V30 7241 C 697.413 1.1495 -1.7203 0
M  V30 7242 C 697.828 1.83578 -0.440957 0
M  V30 7243 O 697.185 1.72872 0.584925 0
M  V30 7244 C 697.236 2.19368 -2.87333 0
M  V30 7245 O 696.957 1.53536 -4.10315 0
M  V30 7246 C 698.458 3.08616 -3.18231 0
M  V30 7247 H 695.678 0.344445 -0.575846 0
M  V30 7248 H 698.222 0.448397 -1.99524 0
M  V30 7249 H 696.377 2.85105 -2.62286 0
M  V30 7250 H 696.791 2.2296 -4.74752 0
M  V30 7251 H 698.265 3.77902 -4.02361 0
M  V30 7252 H 698.742 3.72409 -2.32826 0
M  V30 7253 H 699.348 2.48518 -3.45136 0
M  V30 7254 N 697.663 1.43903 0.642637 0
M  V30 7255 C 698.891 1.4954 1.42988 0
M  V30 7256 C 699.306 0.116588 1.8844 0
M  V30 7257 O 698.663 -0.875285 1.60141 0
M  V30 7258 C 698.714 2.45031 2.65785 0
M  V30 7259 O 698.435 3.77551 2.22232 0
M  V30 7260 C 699.936 2.60017 3.59035 0
M  V30 7261 H 697.156 0.507544 0.438907 0
M  V30 7262 H 699.7 1.88752 0.786942 0
M  V30 7263 H 697.855 2.08985 3.26196 0
M  V30 7264 H 698.269 4.29001 3.01759 0
M  V30 7265 H 699.743 3.30887 4.41835 0
M  V30 7266 H 700.22 1.64861 4.07084 0
M  V30 7267 H 700.826 2.96918 3.045 0
M  V30 7268 N 699.141 -0.881989 1.30609 0
M  V30 7269 C 700.104 -1.96957 1.1722 0
M  V30 7270 C 701.104 -1.60472 0.102598 0
M  V30 7271 O 702.294 -1.70628 0.350943 0
M  V30 7272 C 699.426 -3.31463 0.796572 0
M  V30 7273 H 700.619 -2.10262 2.13846 0
M  V30 7274 H 698.172 -1.06877 1.14048 0
M  V30 7275 H 698.907 -3.23859 -0.169053 0
M  V30 7276 H 698.692 -3.59314 1.56959 0
M  V30 7277 H 700.182 -4.11233 0.72645 0
M  V30 7278 N 700.619 -1.13374 -1.09472 0
M  V30 7279 C 701.551 -0.768466 -2.15933 0
M  V30 7280 C 702.564 0.209585 -1.61445 0
M  V30 7281 O 703.753 -0.010539 -1.78497 0
M  V30 7282 C 700.853 -0.118266 -3.38694 0
M  V30 7283 C 700.026 -1.12829 -4.22597 0
M  V30 7284 C 699.085 -0.503875 -5.23782 0
M  V30 7285 O 698.111 -1.16374 -5.57177 0
M  V30 7286 N 699.313 0.724288 -5.75964 0
M  V30 7287 H 702.078 -1.68457 -2.47876 0
M  V30 7288 H 699.639 -1.02668 -1.25183 0
M  V30 7289 H 701.631 0.311698 -4.03498 0
M  V30 7290 H 700.201 0.700769 -3.04644 0
M  V30 7291 H 699.421 -1.73556 -3.53938 0
M  V30 7292 H 700.709 -1.81095 -4.75481 0
M  V30 7293 H 700.107 1.27918 -5.51048 0
M  V30 7294 H 698.664 1.09692 -6.42504 0
M  V30 7295 N 702.098 1.27442 -0.927168 0
M  V30 7296 C 703.045 2.26863 -0.424459 0
M  V30 7297 C 704.015 1.5813 0.508346 0
M  V30 7298 O 705.2 1.85946 0.42762 0
M  V30 7299 C 702.34 3.43639 0.31718 0
M  V30 7300 C 701.453 4.27087 -0.649675 0
M  V30 7301 C 700.588 5.31082 0.111753 0
M  V30 7302 C 699.627 6.062 -0.847843 0
M  V30 7303 N 698.764 7.01999 -0.119074 0
M  V30 7304 H 703.604 2.69239 -1.27728 0
M  V30 7305 H 701.141 1.32394 -0.641106 0
M  V30 7306 H 703.099 4.10155 0.763486 0
M  V30 7307 H 701.729 3.02217 1.13424 0
M  V30 7308 H 700.781 3.60491 -1.21451 0
M  V30 7309 H 702.093 4.79242 -1.38307 0
M  V30 7310 H 701.247 6.03544 0.618 0
M  V30 7311 H 699.986 4.7973 0.878114 0
M  V30 7312 H 698.991 5.32577 -1.36534 0
M  V30 7313 H 700.216 6.59642 -1.61398 0
M  V30 7314 H 698.162 6.52977 0.629051 0
M  V30 7315 H 698.079 7.5184 -0.792046 0
M  V30 7316 H 699.347 7.78638 0.366537 0
M  V30 7317 N 703.576 0.692616 1.41565 0
M  V30 7318 C 704.992 0.363878 1.55397 0
M  V30 7319 C 705.192 -1.1294 1.66874 0
M  V30 7320 O 704.248 -1.91517 1.64552 0
M  V30 7321 C 705.561 1.10982 2.7947 0
M  V30 7322 C 707.109 1.09387 2.93263 0
M  V30 7323 C 707.584 1.8215 4.20221 0
M  V30 7324 N 709.075 1.79105 4.27172 0
M  V30 7325 C 709.81 2.32247 5.2426 0
M  V30 7326 N 709.306 2.93847 6.27396 0
M  V30 7327 N 711.099 2.22519 5.1618 0
M  V30 7328 H 703.25 1.66116 1.3236 0
M  V30 7329 H 705.513 0.700848 0.63837 0
M  V30 7330 H 705.219 2.1647 2.77188 0
M  V30 7331 H 705.093 0.686492 3.709 0
M  V30 7332 H 707.48 0.0472638 2.95062 0
M  V30 7333 H 707.561 1.55623 2.03015 0
M  V30 7334 H 707.205 2.86789 4.19183 0
M  V30 7335 H 707.135 1.33351 5.09436 0
M  V30 7336 H 709.626 1.34191 3.53272 0
M  V30 7337 H 709.939 3.31972 6.97864 0
M  V30 7338 H 708.284 2.97924 6.27906 0
M  V30 7339 H 711.475 1.7407 4.34531 0
M  V30 7340 H 711.648 2.64239 5.91677 0
M  V30 7341 N 705.054 -1.51416 0.437162 0
M  V30 7342 C 706.001 -2.27743 -0.374374 0
M  V30 7343 C 706.971 -1.31327 -1.01698 0
M  V30 7344 O 708.156 -1.60229 -1.03592 0
M  V30 7345 C 705.296 -3.12241 -1.46969 0
M  V30 7346 C 704.409 -4.23651 -0.845236 0
M  V30 7347 C 703.544 -4.95458 -1.91559 0
M  V30 7348 C 702.583 -5.98789 -1.26956 0
M  V30 7349 N 701.72 -6.64005 -2.28126 0
M  V30 7350 H 706.56 -2.96654 0.282892 0
M  V30 7351 H 704.097 -1.46319 0.151352 0
M  V30 7352 H 706.055 -3.59556 -2.11602 0
M  V30 7353 H 704.685 -2.45445 -2.09659 0
M  V30 7354 H 703.737 -3.803 -0.0872059 0
M  V30 7355 H 705.049 -4.97683 -0.333582 0
M  V30 7356 H 704.203 -5.46321 -2.63854 0
M  V30 7357 H 702.942 -4.21055 -2.46097 0
M  V30 7358 H 701.947 -5.47219 -0.53207 0
M  V30 7359 H 703.172 -6.75149 -0.731509 0
M  V30 7360 H 701.118 -5.92415 -2.81745 0
M  V30 7361 H 701.035 -7.33802 -1.81852 0
M  V30 7362 H 702.303 -7.19498 -2.99905 0
M  V30 7363 N 706.532 -0.168513 -1.56696 0
M  V30 7364 C 707.772 0.479648 -1.98693 0
M  V30 7365 C 708.136 1.60609 -1.05209 0
M  V30 7366 O 709.337 2.3166 -1.36334 0
M  V30 7367 C 707.608 0.952852 -3.44464 0
M  V30 7368 S 709.167 1.60259 -4.08488 0
M  V30 7369 H 705.985 0.154377 -0.694038 0
M  V30 7370 H 708.587 -0.265312 -1.93691 0
M  V30 7371 H 707.291 0.12257 -4.10217 0
M  V30 7372 H 706.822 1.73192 -3.53225 0
M  V30 7373 H 708.837 2.89065 -4.03307 0
M  V30 7374 N 708.01 1.57248 0.105221 0
M  V30 7375 C 709.235 1.90143 0.828264 0
M  V30 7376 C 709.66 0.761811 1.71983 0
M  V30 7377 O 709.018 -0.287086 1.79013 0
M  V30 7378 C 709.066 3.21856 1.62608 0
M  V30 7379 O 708.17 3.08732 2.7342 0
M  V30 7380 H 707.511 0.623558 0.228192 0
M  V30 7381 H 710.041 2.0443 0.0834826 0
M  V30 7382 H 710.051 3.54916 2.01243 0
M  V30 7383 H 708.726 4.0439 0.971687 0
M  V30 7384 H 707.303 2.87167 2.37886 0
M  V30 7385 N 709.488 -0.375779 1.53054 0
M  V30 7386 C 710.42 -1.47963 1.75042 0
M  V30 7387 C 711.433 -1.50073 0.631031 0
M  V30 7388 O 712.622 -1.53736 0.907052 0
M  V30 7389 C 709.722 -2.86767 1.80604 0
M  V30 7390 C 708.895 -3.08471 3.10104 0
M  V30 7391 C 707.954 -4.27332 3.07041 0
M  V30 7392 O 706.98 -4.22998 3.80869 0
M  V30 7393 N 708.182 -5.34214 2.27147 0
M  V30 7394 H 710.947 -1.29484 2.70285 0
M  V30 7395 H 708.508 -0.565416 1.51706 0
M  V30 7396 H 710.5 -3.64404 1.76045 0
M  V30 7397 H 709.07 -2.98542 0.926897 0
M  V30 7398 H 708.29 -2.18583 3.28048 0
M  V30 7399 H 709.578 -3.19834 3.95706 0
M  V30 7400 H 708.976 -5.40594 1.66656 0
M  V30 7401 H 707.533 -6.10467 2.28415 0
M  V30 7402 N 710.966 -1.44241 -0.634997 0
M  V30 7403 C 712.194 -1.50296 -1.42193 0
M  V30 7404 C 712.609 -0.12658 -1.88375 0
M  V30 7405 O 711.966 0.86678 -1.60603 0
M  V30 7406 C 712.017 -2.46437 -2.64482 0
M  V30 7407 O 711.738 -3.78724 -2.20226 0
M  V30 7408 C 713.239 -2.61918 -3.57651 0
M  V30 7409 H 710.459 -0.509865 -0.43621 0
M  V30 7410 H 713.003 -1.89167 -0.776921 0
M  V30 7411 H 711.158 -2.10712 -3.25083 0
M  V30 7412 H 711.572 -4.30595 -2.9948 0
M  V30 7413 H 713.046 -3.33225 -4.40074 0
M  V30 7414 H 713.523 -1.67017 -4.06204 0
M  V30 7415 H 714.129 -2.98528 -3.02921 0
M  V30 7416 N 712.444 0.87505 -1.31075 0
M  V30 7417 C 713.376 1.98773 -1.14114 0
M  V30 7418 C 714.389 1.62595 -0.0816119 0
M  V30 7419 O 715.578 1.75449 -0.32861 0
M  V30 7420 C 712.678 3.31159 -0.720224 0
M  V30 7421 C 711.851 3.9571 -1.86366 0
M  V30 7422 C 710.91 5.06407 -1.42965 0
M  V30 7423 O 709.936 5.27501 -2.13848 0
M  V30 7424 N 711.138 5.79649 -0.314194 0
M  V30 7425 H 713.903 2.1387 -2.09951 0
M  V30 7426 H 711.464 1.04873 -1.23342 0
M  V30 7427 H 713.456 4.0259 -0.412687 0
M  V30 7428 H 712.026 3.12257 0.146396 0
M  V30 7429 H 711.246 3.17324 -2.33879 0
M  V30 7430 H 712.534 4.35576 -2.62966 0
M  V30 7431 H 711.932 5.65025 0.276228 0
M  V30 7432 H 710.489 6.51766 -0.0661641 0
M  V30 7433 N 713.922 1.13953 1.08869 0
M  V30 7434 C 715.162 0.915128 1.8277 0
M  V30 7435 C 715.526 -0.548647 1.83994 0
M  V30 7436 O 716.727 -0.890817 2.5361 0
M  V30 7437 C 714.998 1.49382 3.24684 0
M  V30 7438 S 716.557 1.4103 4.15519 0
M  V30 7439 H 713.375 0.329716 0.629927 0
M  V30 7440 H 715.977 1.45213 1.30895 0
M  V30 7441 H 714.681 2.55241 3.21372 0
M  V30 7442 H 714.212 0.955008 3.81632 0
M  V30 7443 H 716.227 0.392617 4.94644 0
M  V30 7444 N 715.4 -1.26948 0.933913 0
M  V30 7445 C 716.811 -1.76058 0.621324 0
M  V30 7446 C 717.162 -1.76175 -0.863522 0
M  V30 7447 O 716.287 -1.36921 -1.67576 0
M  V30 7448 C 716.882 -3.19713 1.12111 0
M  V30 7449 C 715.441 -3.66465 0.859074 0
M  V30 7450 C 714.588 -2.46186 1.27624 0
M  V30 7451 H 717.539 -1.13127 1.11301 0
M  V30 7452 H 717.56 -3.77566 0.471608 0
M  V30 7453 H 717.072 -3.19596 2.20182 0
M  V30 7454 H 715.173 -3.72021 -0.207566 0
M  V30 7455 H 715.286 -4.55636 1.48098 0
M  V30 7456 H 713.65 -2.45042 0.694727 0
M  V30 7457 H 714.433 -2.48774 2.36572 0
M  V30 7458 N 716.879 -0.700114 -1.41195 0
M  V30 7459 C 718.295 -0.372114 -1.55201 0
M  V30 7460 C 718.495 1.12053 -1.6747 0
M  V30 7461 O 717.551 1.90642 -1.65566 0
M  V30 7462 C 718.864 -1.12462 -2.78878 0
M  V30 7463 C 720.412 -1.10941 -2.92679 0
M  V30 7464 C 720.887 -1.84376 -4.19249 0
M  V30 7465 N 722.378 -1.81368 -4.26216 0
M  V30 7466 C 723.113 -2.35024 -5.23021 0
M  V30 7467 N 722.609 -2.9717 -6.25829 0
M  V30 7468 N 724.402 -2.25254 -5.14992 0
M  V30 7469 H 716.553 -1.66816 -1.31477 0
M  V30 7470 H 718.816 -0.704223 -0.634644 0
M  V30 7471 H 718.522 -2.17937 -2.76037 0
M  V30 7472 H 718.396 -0.706152 -3.70531 0
M  V30 7473 H 720.783 -0.062911 -2.95033 0
M  V30 7474 H 720.864 -1.56698 -2.02187 0
M  V30 7475 H 720.508 -2.89008 -4.17656 0
M  V30 7476 H 720.438 -1.3605 -5.08722 0
M  V30 7477 H 722.929 -1.36062 -3.52556 0
M  V30 7478 H 723.242 -3.35668 -6.96094 0
M  V30 7479 H 721.587 -3.01249 -6.26318 0
M  V30 7480 H 724.778 -1.76372 -4.33602 0
M  V30 7481 H 724.951 -2.67373 -5.90268 0
M  V30 7482 N 718.357 1.51182 -0.445186 0
M  V30 7483 C 719.304 2.27939 0.362291 0
M  V30 7484 C 720.274 1.31864 1.01 0
M  V30 7485 O 721.459 1.60776 1.02741 0
M  V30 7486 C 718.599 3.13016 1.45311 0
M  V30 7487 C 717.712 4.24093 0.822757 0
M  V30 7488 C 716.847 4.96467 1.88928 0
M  V30 7489 C 715.886 5.99454 1.23778 0
M  V30 7490 N 715.023 6.65206 2.24602 0
M  V30 7491 H 719.863 2.965 -0.29862 0
M  V30 7492 H 717.4 1.46237 -0.15911 0
M  V30 7493 H 719.358 3.60673 2.09692 0
M  V30 7494 H 717.988 2.46553 2.08354 0
M  V30 7495 H 717.04 3.80341 0.0670364 0
M  V30 7496 H 718.352 4.97853 0.307184 0
M  V30 7497 H 717.506 5.47712 2.60953 0
M  V30 7498 H 716.245 4.22355 2.4386 0
M  V30 7499 H 715.25 5.47494 0.503042 0
M  V30 7500 H 716.475 6.75527 0.695694 0
M  V30 7501 H 714.421 5.93901 2.78599 0
M  V30 7502 H 714.338 7.34756 1.77958 0
M  V30 7503 H 715.606 7.21078 2.96085 0
M  V30 7504 N 719.835 0.176821 1.56605 0
M  V30 7505 C 721.081 -0.467406 1.9734 0
M  V30 7506 C 721.414 -1.62523 1.06301 0
M  V30 7507 O 720.689 -1.94182 0.11125 0
M  V30 7508 C 720.972 -0.945106 3.47476 0
M  V30 7509 C 720.825 0.213273 4.49294 0
M  V30 7510 C 722.144 -1.8169 4.00845 0
M  V30 7511 H 719.263 -0.168426 0.717497 0
M  V30 7512 H 721.905 0.264065 1.88156 0
M  V30 7513 H 720.055 -1.56841 3.55434 0
M  V30 7514 H 721.727 0.850508 4.53392 0
M  V30 7515 H 719.97 0.867918 4.25029 0
M  V30 7516 H 720.641 -0.163187 5.51759 0
M  V30 7517 H 723.117 -1.29139 3.95553 0
M  V30 7518 H 721.993 -2.12015 5.06301 0
M  V30 7519 H 722.254 -2.76463 3.44994 0
M  V30 7520 N 721.313 -1.57302 -0.09688 0
M  V30 7521 C 722.562 -1.85183 -0.799388 0
M  V30 7522 C 722.875 -0.765818 -1.79985 0
M  V30 7523 O 724.081 -0.931696 -2.55013 0
M  V30 7524 C 722.537 -3.28399 -1.47249 0
M  V30 7525 C 722.145 -4.45066 -0.511888 0
M  V30 7526 C 723.889 -3.65506 -2.15883 0
M  V30 7527 C 721.796 -5.79315 -1.18948 0
M  V30 7528 H 720.726 -0.690752 -0.302287 0
M  V30 7529 H 723.377 -1.83425 -0.0523104 0
M  V30 7530 H 721.759 -3.24692 -2.26697 0
M  V30 7531 H 722.933 -4.60116 0.250962 0
M  V30 7532 H 721.248 -4.16343 0.0686576 0
M  V30 7533 H 723.845 -4.63087 -2.67309 0
M  V30 7534 H 724.188 -2.94041 -2.94696 0
M  V30 7535 H 724.721 -3.71094 -1.43298 0
M  V30 7536 H 721.46 -6.54007 -0.442198 0
M  V30 7537 H 720.98 -5.68111 -1.9238 0
M  V30 7538 H 722.659 -6.23816 -1.71646 0
M  V30 7539 N 722.791 0.367657 -1.53252 0
M  V30 7540 C 723.738 1.45028 -1.79543 0
M  V30 7541 C 724.708 1.53288 -0.63969 0
M  V30 7542 O 725.893 1.69209 -0.881653 0
M  V30 7543 C 723.033 2.82 -1.98923 0
M  V30 7544 C 722.146 2.82722 -3.26638 0
M  V30 7545 C 721.281 4.11257 -3.36216 0
M  V30 7546 C 720.32 4.06113 -4.57972 0
M  V30 7547 N 719.457 5.26293 -4.64715 0
M  V30 7548 H 724.297 1.21908 -2.71923 0
M  V30 7549 H 721.834 0.591011 -1.34705 0
M  V30 7550 H 723.792 3.61568 -2.08146 0
M  V30 7551 H 722.422 3.03523 -1.09881 0
M  V30 7552 H 721.474 1.95399 -3.26379 0
M  V30 7553 H 722.786 2.74794 -4.16281 0
M  V30 7554 H 721.94 4.99239 -3.44739 0
M  V30 7555 H 720.679 4.21935 -2.44586 0
M  V30 7556 H 719.684 3.16517 -4.49552 0
M  V30 7557 H 720.909 3.97039 -5.50942 0
M  V30 7558 H 718.855 5.37561 -3.75985 0
M  V30 7559 H 718.772 5.20526 -5.4826 0
M  V30 7560 H 720.04 6.16113 -4.77519 0
M  V30 7561 N 724.269 1.44576 0.627338 0
M  V30 7562 C 725.202 1.46206 1.75212 0
M  V30 7563 C 726.18 0.320483 1.5941 0
M  V30 7564 O 727.364 0.518028 1.81242 0
M  V30 7565 C 724.491 1.29834 3.12827 0
M  V30 7566 C 723.537 2.47603 3.47268 0
M  V30 7567 S 724.37 4.10125 3.44322 0
M  V30 7568 C 725.526 3.96183 4.84551 0
M  V30 7569 H 725.759 2.41378 1.73563 0
M  V30 7570 H 723.292 1.3192 0.802283 0
M  V30 7571 H 725.25 1.21075 3.92239 0
M  V30 7572 H 723.911 0.361662 3.12011 0
M  V30 7573 H 723.104 2.3202 4.47418 0
M  V30 7574 H 722.706 2.53121 2.75329 0
M  V30 7575 H 724.998 3.60107 5.73872 0
M  V30 7576 H 725.941 4.96176 5.05188 0
M  V30 7577 H 726.349 3.28177 4.59304 0
M  V30 7578 N 725.747 -0.868086 1.31537 0
M  V30 7579 C 726.657 -2.00801 1.21311 0
M  V30 7580 C 727.673 -1.73518 0.129431 0
M  V30 7581 O 728.849 -1.98378 0.347588 0
M  V30 7582 C 725.914 -3.3419 0.922935 0
M  V30 7583 C 724.975 -3.74783 2.0937 0
M  V30 7584 C 724.208 -5.01807 1.81728 0
M  V30 7585 O 724.431 -5.65404 0.753313 0
M  V30 7586 O 723.365 -5.39213 2.67457 0
M  V30 7587 H 727.191 -2.12361 2.17109 0
M  V30 7588 H 724.776 -0.996684 1.11295 0
M  V30 7589 H 726.658 -4.14174 0.777033 0
M  V30 7590 H 725.333 -3.237 -0.00500301 0
M  V30 7591 H 724.24 -2.95432 2.29501 0
M  V30 7592 H 725.573 -3.89902 3.00396 0
M  V30 7593 N 727.225 -1.14528 -1.08264 0
M  V30 7594 C 728.45 -0.938381 -1.84957 0
M  V30 7595 C 728.875 0.508044 -1.81109 0
M  V30 7596 O 728.233 1.36146 -1.19724 0
M  V30 7597 C 728.281 -1.44568 -3.30352 0
M  V30 7598 O 727.385 -0.638745 -4.07423 0
M  V30 7599 H 726.726 -0.335394 -0.573068 0
M  V30 7600 H 729.256 -1.52287 -1.36637 0
M  V30 7601 H 729.266 -1.45449 -3.81194 0
M  V30 7602 H 727.941 -2.49876 -3.32468 0
M  V30 7603 H 726.518 -0.698801 -3.66294 0
M  V30 7604 N 728.703 1.26451 -0.940633 0
M  V30 7605 C 729.613 2.30128 -0.455881 0
M  V30 7606 C 730.629 1.67536 0.469867 0
M  V30 7607 O 731.805 1.98344 0.349529 0
M  V30 7608 C 728.87 3.45634 0.271648 0
M  V30 7609 C 727.931 4.23709 -0.690594 0
M  V30 7610 C 727.164 5.337 0.00231047 0
M  V30 7611 O 727.387 5.57215 1.21935 0
M  V30 7612 O 726.321 5.98091 -0.676111 0
M  V30 7613 H 730.147 2.73655 -1.31707 0
M  V30 7614 H 727.732 1.3164 -0.706497 0
M  V30 7615 H 729.614 4.15853 0.681486 0
M  V30 7616 H 728.289 3.04138 1.10824 0
M  V30 7617 H 727.196 3.55974 -1.15037 0
M  V30 7618 H 728.529 4.68953 -1.49478 0
M  V30 7619 N 730.181 0.707592 1.40822 0
M  V30 7620 C 731.091 0.0507246 2.34545 0
M  V30 7621 C 732.107 -0.752727 1.56876 0
M  V30 7622 O 733.283 -0.687524 1.89302 0
M  V30 7623 C 730.348 -0.865731 3.35717 0
M  V30 7624 C 729.409 -0.0531313 4.29267 0
M  V30 7625 C 728.642 -0.925939 5.25606 0
M  V30 7626 O 728.865 -2.16531 5.27703 0
M  V30 7627 O 727.799 -0.369194 6.00767 0
M  V30 7628 H 731.625 0.823587 2.9232 0
M  V30 7629 H 729.21 0.46801 1.4188 0
M  V30 7630 H 731.092 -1.39091 3.97783 0
M  V30 7631 H 729.767 -1.61788 2.80368 0
M  V30 7632 H 728.674 0.516931 3.70511 0
M  V30 7633 H 730.007 0.660617 4.87747 0
M  V30 7634 N 731.66 -1.50943 0.453197 0
M  V30 7635 C 732.908 -2.01813 -0.107709 0
M  V30 7636 C 733.229 -1.33841 -1.41816 0
M  V30 7637 O 732.499 -0.477973 -1.8998 0
M  V30 7638 H 731.079 -0.745773 -0.0427948 0
M  V30 7639 H 733.741 -1.8545 0.599531 0
M  V30 7640 H 732.837 -3.10911 -0.27218 0
M  V30 7641 N 733.138 -0.185124 -1.56509 0
M  V30 7642 C 734.085 0.739729 -2.18624 0
M  V30 7643 C 735.055 1.217 -1.13042 0
M  V30 7644 O 736.24 1.28268 -1.41251 0
M  V30 7645 C 733.38 1.95787 -2.84186 0
M  V30 7646 C 732.493 1.52289 -4.04267 0
M  V30 7647 C 731.628 2.69576 -4.57714 0
M  V30 7648 C 730.667 2.22636 -5.70175 0
M  V30 7649 N 729.804 3.33065 -6.18071 0
M  V30 7650 H 734.644 0.203269 -2.97306 0
M  V30 7651 H 732.181 0.0885946 -1.46833 0
M  V30 7652 H 734.139 2.67253 -3.20361 0
M  V30 7653 H 732.769 2.4678 -2.08085 0
M  V30 7654 H 731.821 0.704458 -3.7382 0
M  V30 7655 H 733.133 1.13843 -4.85635 0
M  V30 7656 H 732.287 3.4918 -4.96143 0
M  V30 7657 H 731.026 3.1129 -3.75433 0
M  V30 7658 H 730.031 1.41483 -5.31284 0
M  V30 7659 H 731.256 1.81964 -6.54267 0
M  V30 7660 H 729.202 3.74328 -5.38715 0
M  V30 7661 H 729.119 2.98756 -6.94464 0
M  V30 7662 H 730.387 4.12912 -6.61153 0
M  V30 7663 N 734.616 1.57351 0.0885366 0
M  V30 7664 C 735.526 2.05858 1.12516 0
M  V30 7665 C 736.542 0.984758 1.43452 0
M  V30 7666 O 737.718 1.29836 1.53963 0
M  V30 7667 C 734.783 2.47882 2.42395 0
M  V30 7668 C 733.844 3.69487 2.18582 0
M  V30 7669 C 733.077 4.09497 3.42268 0
M  V30 7670 O 733.3 3.49536 4.50755 0
M  V30 7671 O 732.234 5.02406 3.31469 0
M  V30 7672 H 736.06 2.94467 0.743146 0
M  V30 7673 H 733.645 1.46326 0.301507 0
M  V30 7674 H 735.527 2.75509 3.18862 0
M  V30 7675 H 734.202 1.62408 2.8001 0
M  V30 7676 H 733.109 3.46967 1.39875 0
M  V30 7677 H 734.442 4.55761 1.85857 0
M  V30 7678 N 736.094 -0.359525 1.53444 0
M  V30 7679 C 737.057 -1.42357 1.7963 0
M  V30 7680 C 738.057 -1.46319 0.666884 0
M  V30 7681 O 739.247 -1.46974 0.935113 0
M  V30 7682 C 736.379 -2.81425 1.92387 0
M  V30 7683 H 737.572 -1.20409 2.74666 0
M  V30 7684 H 735.125 -0.593007 1.44614 0
M  V30 7685 H 735.86 -3.08679 0.994384 0
M  V30 7686 H 735.645 -2.79947 2.74539 0
M  V30 7687 H 737.135 -3.5847 2.14218 0
M  V30 7688 N 737.572 -1.44907 -0.619662 0
M  V30 7689 C 738.988 -1.29046 -0.939107 0
M  V30 7690 C 739.188 -0.23462 -2.00129 0
M  V30 7691 O 738.244 0.37558 -2.49691 0
M  V30 7692 C 739.557 -2.66567 -1.39149 0
M  V30 7693 C 741.105 -2.74368 -1.50635 0
M  V30 7694 C 741.58 -4.12386 -1.99253 0
M  V30 7695 N 743.071 -4.1462 -2.06506 0
M  V30 7696 C 743.806 -5.18272 -2.4532 0
M  V30 7697 N 743.302 -6.32278 -2.83189 0
M  V30 7698 N 745.095 -5.05628 -2.45554 0
M  V30 7699 H 737.246 -2.12239 0.0826135 0
M  V30 7700 H 739.509 -0.947652 -0.0256829 0
M  V30 7701 H 739.215 -3.4496 -0.685254 0
M  V30 7702 H 739.089 -2.94224 -2.36034 0
M  V30 7703 H 741.476 -1.96287 -2.20353 0
M  V30 7704 H 741.557 -2.50439 -0.520963 0
M  V30 7705 H 741.201 -4.90947 -1.30127 0
M  V30 7706 H 741.131 -4.33699 -2.98684 0
M  V30 7707 H 743.622 -3.32343 -1.79878 0
M  V30 7708 H 743.935 -7.07172 -3.11652 0
M  V30 7709 H 742.28 -6.35699 -2.80913 0
M  V30 7710 H 745.471 -4.15613 -2.15367 0
M  V30 7711 H 745.644 -5.86529 -2.75478 0
M  V30 7712 N 739.05 0.861098 -1.31996 0
M  V30 7713 C 739.98 1.98482 -1.22993 0
M  V30 7714 C 740.961 1.6971 -0.115168 0
M  V30 7715 O 742.146 1.91849 -0.30126 0
M  V30 7716 C 739.276 3.34179 -0.945615 0
M  V30 7717 C 738.23 3.77284 -2.02091 0
M  V30 7718 C 737.556 5.1054 -1.58912 0
M  V30 7719 C 738.856 3.93439 -3.43515 0
M  V30 7720 H 740.55 2.06271 -2.17008 0
M  V30 7721 H 738.096 0.991043 -1.04472 0
M  V30 7722 H 740.049 4.12338 -0.869206 0
M  V30 7723 H 738.773 3.26586 0.0301849 0
M  V30 7724 H 737.432 3.01371 -2.08737 0
M  V30 7725 H 737.08 4.99397 -0.600942 0
M  V30 7726 H 736.78 5.40352 -2.30854 0
M  V30 7727 H 738.304 5.91199 -1.52696 0
M  V30 7728 H 739.718 4.6197 -3.39495 0
M  V30 7729 H 738.115 4.34661 -4.13751 0
M  V30 7730 H 739.185 2.96548 -3.8365 0
M  V30 7731 N 740.528 1.15101 1.07655 0
M  V30 7732 C 741.491 0.847625 2.12951 0
M  V30 7733 C 742.491 -0.151227 1.60087 0
M  V30 7734 O 743.681 0.0780399 1.74025 0
M  V30 7735 C 740.813 0.265 3.39868 0
M  V30 7736 H 742.006 1.7809 2.41296 0
M  V30 7737 H 739.559 0.958072 1.23494 0
M  V30 7738 H 740.294 -0.676625 3.17163 0
M  V30 7739 H 740.079 0.984554 3.79538 0
M  V30 7740 H 741.569 0.0702121 4.17541 0
M  V30 7741 N 742.006 -1.2595 0.947325 0
M  V30 7742 C 743.422 -1.45737 0.650597 0
M  V30 7743 C 743.622 -1.85189 -0.794188 0
M  V30 7744 O 742.678 -1.97738 -1.57022 0
M  V30 7745 C 743.991 -2.53505 1.61728 0
M  V30 7746 C 745.539 -2.67351 1.62765 0
M  V30 7747 C 746.014 -3.78296 2.58179 0
M  V30 7748 N 747.505 -3.85696 2.56501 0
M  V30 7749 C 748.24 -4.71012 3.2701 0
M  V30 7750 N 747.736 -5.60669 4.06966 0
M  V30 7751 N 749.529 -4.64912 3.15932 0
M  V30 7752 H 741.68 -0.986327 1.8811 0
M  V30 7753 H 743.943 -0.494639 0.808725 0
M  V30 7754 H 743.649 -2.31357 2.6489 0
M  V30 7755 H 743.523 -3.51281 1.3741 0
M  V30 7756 H 745.91 -2.88869 0.603241 0
M  V30 7757 H 745.991 -1.69998 1.91139 0
M  V30 7758 H 745.635 -3.5753 3.60742 0
M  V30 7759 H 745.565 -4.75117 2.27093 0
M  V30 7760 H 748.056 -3.21601 1.98447 0
M  V30 7761 H 748.369 -6.22677 4.57704 0
M  V30 7762 H 746.714 -5.60402 4.11066 0
M  V30 7763 H 749.905 -3.93874 2.52945 0
M  V30 7764 H 750.078 -5.3118 3.71149 0
M  V30 7765 N 743.484 -0.715051 -1.40445 0
M  V30 7766 C 744.709 -0.26254 -2.05732 0
M  V30 7767 C 745.134 1.08691 -1.53519 0
M  V30 7768 O 744.492 1.68453 -0.670328 0
M  V30 7769 C 744.54 -0.25195 -3.59719 0
M  V30 7770 O 743.644 0.766998 -4.05205 0
M  V30 7771 H 742.985 -0.123398 -0.652433 0
M  V30 7772 H 745.515 -0.975382 -1.79854 0
M  V30 7773 H 745.525 -0.0894537 -4.07902 0
M  V30 7774 H 744.2 -1.23672 -3.97087 0
M  V30 7775 H 742.777 0.572269 -3.68483 0
M  V30 7776 N 744.962 1.50701 -0.461195 0
M  V30 7777 C 746.187 2.07171 0.0974773 0
M  V30 7778 C 746.612 1.32391 1.3362 0
M  V30 7779 O 745.97 0.368676 1.77512 0
M  V30 7780 C 746.018 3.58651 0.374409 0
M  V30 7781 O 745.122 3.85816 1.4567 0
M  V30 7782 H 744.463 0.663944 -0.00862047 0
M  V30 7783 H 746.993 1.94021 -0.649394 0
M  V30 7784 H 747.003 4.03295 0.617843 0
M  V30 7785 H 745.678 4.12498 -0.530829 0
M  V30 7786 H 744.255 3.53018 1.20136 0
M  V30 7787 N 746.441 0.193421 1.56409 0
M  V30 7788 C 747.852 -0.319471 1.83946 0
M  V30 7789 C 748.203 -1.61505 1.11403 0
M  V30 7790 O 747.328 -2.13139 0.374289 0
M  V30 7791 C 747.923 -0.586411 3.33686 0
M  V30 7792 C 746.482 -1.04368 3.61641 0
M  V30 7793 C 745.629 -0.0913834 2.77149 0
M  V30 7794 H 748.58 0.417242 1.53117 0
M  V30 7795 H 748.601 -1.43591 3.52366 0
M  V30 7796 H 748.113 0.356701 3.86457 0
M  V30 7797 H 746.214 -2.00113 3.14302 0
M  V30 7798 H 746.327 -0.937549 4.69837 0
M  V30 7799 H 744.691 -0.592954 2.47702 0
M  V30 7800 H 745.474 0.846142 3.32709 0
M  V30 7801 N 747.919 -1.57396 -0.0801906 0
M  V30 7802 C 748.829 -2.06451 -1.11423 0
M  V30 7803 C 749.845 -0.992352 -1.42928 0
M  V30 7804 O 751.021 -1.30651 -1.53272 0
M  V30 7805 C 748.086 -2.49164 -2.41077 0
M  V30 7806 C 747.147 -3.70641 -2.16619 0
M  V30 7807 C 746.38 -4.11307 -3.40092 0
M  V30 7808 O 746.603 -3.51922 -4.48895 0
M  V30 7809 O 745.537 -5.04157 -3.288 0
M  V30 7810 H 749.363 -2.94857 -0.727519 0
M  V30 7811 H 746.948 -1.46484 -0.293743 0
M  V30 7812 H 748.83 -2.77196 -3.17396 0
M  V30 7813 H 747.505 -1.6389 -2.79145 0
M  V30 7814 H 746.412 -3.47703 -1.38033 0
M  V30 7815 H 747.745 -4.5674 -1.83437 0
M  V30 7816 N 749.397 0.351382 -1.53633 0
M  V30 7817 C 750.329 1.45159 -1.77374 0
M  V30 7818 C 751.342 1.4905 -0.654826 0
M  V30 7819 O 752.531 1.52274 -0.931396 0
M  V30 7820 C 749.631 2.83858 -1.85143 0
M  V30 7821 C 748.804 3.03498 -3.14972 0
M  V30 7822 C 747.863 4.22393 -3.138 0
M  V30 7823 O 746.889 4.16885 -3.87551 0
M  V30 7824 N 748.091 5.30533 -2.35617 0
M  V30 7825 H 750.856 1.25167 -2.72311 0
M  V30 7826 H 748.417 0.54121 -1.52586 0
M  V30 7827 H 750.409 3.61557 -1.8182 0
M  V30 7828 H 748.979 2.9703 -0.974275 0
M  V30 7829 H 748.199 2.13336 -3.31484 0
M  V30 7830 H 749.487 3.13498 -4.00745 0
M  V30 7831 H 748.885 5.37875 -1.75235 0
M  V30 7832 H 747.442 6.06756 -2.38098 0
M  V30 7833 N 750.875 1.45233 0.611969 0
M  V30 7834 C 752.286 1.4354 1.19387 0
M  V30 7835 C 752.637 0.160713 1.95541 0
M  V30 7836 O 751.762 -0.737954 2.03429 0
M  V30 7837 C 752.357 2.60045 2.17169 0
M  V30 7838 C 750.916 2.61486 2.70744 0
M  V30 7839 C 750.063 2.35708 1.46072 0
M  V30 7840 H 753.014 1.53536 0.401529 0
M  V30 7841 H 753.035 2.33893 3.00124 0
M  V30 7842 H 752.547 3.52803 1.61714 0
M  V30 7843 H 750.648 1.72721 3.30149 0
M  V30 7844 H 750.761 3.60572 3.15476 0
M  V30 7845 H 749.125 1.85178 1.74875 0
M  V30 7846 H 749.908 3.30606 0.924922 0
M  V30 7847 N 752.353 -0.854086 1.3245 0
M  V30 7848 C 753.769 -1.14238 1.11453 0
M  V30 7849 C 753.969 -2.01228 -0.10461 0
M  V30 7850 O 753.025 -2.39845 -0.789339 0
M  V30 7851 C 754.338 -1.81916 2.39431 0
M  V30 7852 C 755.886 -1.94549 2.45193 0
M  V30 7853 C 756.361 -2.65642 3.73093 0
M  V30 7854 N 757.852 -2.73167 3.74078 0
M  V30 7855 C 758.587 -3.28828 4.69744 0
M  V30 7856 N 758.083 -3.85295 5.75778 0
M  V30 7857 N 759.876 -3.26936 4.57241 0
M  V30 7858 H 752.027 -0.274786 2.10615 0
M  V30 7859 H 754.29 -0.184375 0.929898 0
M  V30 7860 H 753.996 -1.25452 3.28565 0
M  V30 7861 H 753.87 -2.82068 2.50434 0
M  V30 7862 H 756.257 -2.50172 1.56518 0
M  V30 7863 H 756.338 -0.933914 2.38142 0
M  V30 7864 H 755.982 -2.10683 4.62142 0
M  V30 7865 H 755.912 -3.6724 3.77415 0
M  V30 7866 H 758.403 -2.33108 2.97438 0
M  V30 7867 H 758.716 -4.25925 6.44832 0
M  V30 7868 H 757.061 -3.83625 5.79531 0
M  V30 7869 H 760.252 -2.8207 3.7357 0
M  V30 7870 H 760.425 -3.70014 5.31971 0
M  V30 7871 N 753.831 -1.1567 -1.07043 0
M  V30 7872 C 755.242 -0.942408 -1.61169 0
M  V30 7873 C 755.593 0.515537 -1.89306 0
M  V30 7874 O 754.718 1.38726 -1.66084 0
M  V30 7875 C 755.313 -1.70431 -2.92812 0
M  V30 7876 C 753.872 -1.53521 -3.43669 0
M  V30 7877 C 753.019 -1.7179 -2.17678 0
M  V30 7878 H 755.97 -1.3065 -0.9009 0
M  V30 7879 H 755.991 -1.17566 -3.61882 0
M  V30 7880 H 755.503 -2.76538 -2.72302 0
M  V30 7881 H 753.604 -0.498224 -3.69254 0
M  V30 7882 H 753.717 -2.31422 -4.19501 0
M  V30 7883 H 752.081 -1.14468 -2.27529 0
M  V30 7884 H 752.864 -2.79269 -1.99659 0
M  V30 7885 N 755.309 1.25446 -0.953992 0
M  V30 7886 C 756.534 1.97755 -0.625129 0
M  V30 7887 C 756.959 1.70437 0.795787 0
M  V30 7888 O 756.317 0.95992 1.53803 0
M  V30 7889 C 756.365 3.49463 -0.889251 0
M  V30 7890 O 755.469 4.12387 0.0322757 0
M  V30 7891 H 754.81 0.61998 -0.237742 0
M  V30 7892 H 757.34 1.59582 -1.28041 0
M  V30 7893 H 757.35 3.99772 -0.815263 0
M  V30 7894 H 756.025 3.68676 -1.92487 0
M  V30 7895 H 754.602 3.72782 -0.0938625 0
M  V30 7896 N 756.787 0.722489 1.40064 0
M  V30 7897 C 758.015 0.274838 2.05066 0
M  V30 7898 C 758.43 -1.08586 1.54449 0
M  V30 7899 O 757.787 -1.68375 0.704003 0
M  V30 7900 C 757.838 0.253673 3.60609 0
M  V30 7901 O 757.559 1.56064 4.0936 0
M  V30 7902 C 759.06 -0.211684 4.42794 0
M  V30 7903 H 756.28 0.12226 0.659768 0
M  V30 7904 H 758.824 0.982632 1.79345 0
M  V30 7905 H 756.979 -0.405137 3.85276 0
M  V30 7906 H 757.393 1.46576 5.03603 0
M  V30 7907 H 758.867 -0.175341 5.51721 0
M  V30 7908 H 759.344 -1.25493 4.2089 0
M  V30 7909 H 759.95 0.4171 4.2325 0
M  V30 7910 N 758.265 -1.50454 0.469181 0
M  V30 7911 C 759.49 -2.0722 -0.0864892 0
M  V30 7912 C 759.915 -1.33098 -1.32916 0
M  V30 7913 O 759.273 -0.378084 -1.77314 0
M  V30 7914 C 759.321 -3.58845 -0.355384 0
M  V30 7915 O 758.425 -3.86583 -1.43622 0
M  V30 7916 H 757.766 -0.663889 0.0121414 0
M  V30 7917 H 760.296 -1.93674 0.659674 0
M  V30 7918 H 760.306 -4.03617 -0.596447 0
M  V30 7919 H 758.981 -4.12211 0.552698 0
M  V30 7920 H 757.558 -3.5365 -1.18262 0
M  V30 7921 N 759.743 -0.201713 -1.56304 0
M  V30 7922 C 760.69 0.716499 -2.19397 0
M  V30 7923 C 761.66 1.20494 -1.14326 0
M  V30 7924 O 762.845 1.26763 -1.42604 0
M  V30 7925 C 759.985 1.92762 -2.86246 0
M  V30 7926 C 759.098 1.47993 -4.0586 0
M  V30 7927 C 758.233 2.64706 -4.60547 0
M  V30 7928 C 757.272 2.16576 -5.72504 0
M  V30 7929 N 756.409 3.26491 -6.21569 0
M  V30 7930 H 761.249 0.171724 -2.97505 0
M  V30 7931 H 758.786 0.073016 -1.46919 0
M  V30 7932 H 760.744 2.6384 -3.23178 0
M  V30 7933 H 759.374 2.44559 -2.10691 0
M  V30 7934 H 758.426 0.66477 -3.74546 0
M  V30 7935 H 759.738 1.08686 -4.86815 0
M  V30 7936 H 758.892 3.43898 -4.99819 0
M  V30 7937 H 757.631 3.0729 -3.78713 0
M  V30 7938 H 756.636 1.3584 -5.32755 0
M  V30 7939 H 757.861 1.75015 -6.56161 0
M  V30 7940 H 755.807 3.68594 -5.42655 0
M  V30 7941 H 755.724 2.91374 -6.97594 0
M  V30 7942 H 756.992 4.05877 -6.65495 0
M  V30 7943 N 761.222 1.57436 0.0718424 0
M  V30 7944 C 762.185 2.02703 1.06977 0
M  V30 7945 C 763.185 0.924062 1.31597 0
M  V30 7946 O 764.375 1.18894 1.27318 0
M  V30 7947 C 761.507 2.40763 2.41342 0
M  V30 7948 H 762.7 2.92098 0.679619 0
M  V30 7949 H 760.253 1.5304 0.317565 0
M  V30 7950 H 760.988 1.54394 2.8519 0
M  V30 7951 H 760.773 3.21249 2.24814 0
M  V30 7952 H 762.263 2.76361 3.13073 0
M  V30 7953 N 762.7 -0.34323 1.53817 0
M  V30 7954 C 763.946 -1.08504 1.71332 0
M  V30 7955 C 764.279 -1.88294 0.475285 0
M  V30 7956 O 763.554 -1.87205 -0.527688 0
M  V30 7957 C 763.837 -2.02597 2.97702 0
M  V30 7958 C 763.69 -1.26268 4.31713 0
M  V30 7959 C 765.009 -3.0241 3.19744 0
M  V30 7960 H 762.128 -0.393072 0.623429 0
M  V30 7961 H 764.77 -0.363579 1.86489 0
M  V30 7962 H 762.92 -2.64118 2.8491 0
M  V30 7963 H 764.592 -0.673594 4.56356 0
M  V30 7964 H 762.835 -0.564696 4.30109 0
M  V30 7965 H 763.506 -1.95253 5.16314 0
M  V30 7966 H 765.982 -2.51004 3.31868 0
M  V30 7967 H 764.858 -3.65449 4.09558 0
M  V30 7968 H 765.119 -3.73806 2.36054 0
M  V30 7969 N 764.178 -1.45556 -0.604258 0
M  V30 7970 C 765.403 -1.53509 -1.39462 0
M  V30 7971 C 765.828 -0.169638 -1.87333 0
M  V30 7972 O 765.186 0.846346 -1.60333 0
M  V30 7973 C 765.234 -2.52654 -2.5729 0
M  V30 7974 O 764.338 -2.04666 -3.5803 0
M  V30 7975 H 763.679 -0.517355 -0.416221 0
M  V30 7976 H 766.209 -1.90939 -0.735072 0
M  V30 7977 H 766.219 -2.71568 -3.04491 0
M  V30 7978 H 764.894 -3.51823 -2.21797 0
M  V30 7979 H 763.471 -1.95643 -3.17456 0
M  V30 7980 N 765.656 0.84705 -1.32902 0
M  V30 7981 C 767.067 1.41785 -1.21466 0
M  V30 7982 C 767.418 1.95464 0.169767 0
M  V30 7983 O 766.543 1.88157 1.06892 0
M  V30 7984 C 767.138 2.57734 -2.19906 0
M  V30 7985 C 765.697 3.10791 -2.12334 0
M  V30 7986 C 764.844 1.83562 -2.07847 0
M  V30 7987 H 767.795 0.653532 -1.44619 0
M  V30 7988 H 767.816 3.35123 -1.80202 0
M  V30 7989 H 767.328 2.18635 -3.20656 0
M  V30 7990 H 765.429 3.54455 -1.14858 0
M  V30 7991 H 765.542 3.71519 -3.02506 0
M  V30 7992 H 763.906 2.03475 -1.53199 0
M  V30 7993 H 764.689 1.4667 -3.10392 0
M  V30 7994 N 767.134 1.16236 1.06428 0
M  V30 7995 C 768.545 0.950942 1.60667 0
M  V30 7996 C 768.896 -0.505491 1.89576 0
M  V30 7997 O 768.021 -1.37843 1.66818 0
M  V30 7998 C 768.616 1.71982 2.91904 0
M  V30 7999 C 767.175 1.55342 3.4285 0
M  V30 8000 C 766.322 1.72942 2.16763 0
M  V30 8001 H 769.273 1.31126 0.893959 0
M  V30 8002 H 769.294 1.19483 3.61253 0
M  V30 8003 H 768.806 2.77978 2.70831 0
M  V30 8004 H 766.907 0.5178 3.68985 0
M  V30 8005 H 767.02 2.33643 4.18267 0
M  V30 8006 H 765.384 1.15673 2.26918 0
M  V30 8007 H 766.167 2.80324 1.98175 0
M  V30 8008 N 768.612 -1.24939 0.960631 0
M  V30 8009 C 769.562 -2.23388 0.456266 0
M  V30 8010 C 770.546 -1.54249 -0.45782 0
M  V30 8011 O 771.738 -1.7461 -0.289894 0
M  V30 8012 C 768.867 -3.42321 -0.259024 0
M  V30 8013 C 767.953 -4.18718 0.673478 0
M  V30 8014 N 768.344 -4.72394 1.8077 0
M  V30 8015 C 766.642 -4.43378 0.482859 0
M  V30 8016 C 767.343 -5.30316 2.3904 0
M  V30 8017 N 766.319 -5.17109 1.67629 0
M  V30 8018 H 770.121 -2.62499 1.32179 0
M  V30 8019 H 767.635 -1.40245 0.818851 0
M  V30 8020 H 769.632 -4.11997 -0.637527 0
M  V30 8021 H 768.292 -3.04732 -1.12108 0
M  V30 8022 H 769.303 -4.69345 2.18942 0
M  V30 8023 H 765.98 -4.16147 -0.335821 0
M  V30 8024 H 767.37 -5.82594 3.34715 0
M  V30 8025 N 770.09 -0.729906 -1.39679 0
M  V30 8026 C 771.02 -0.101618 -2.33279 0
M  V30 8027 C 772.001 0.729854 -1.53646 0
M  V30 8028 O 773.186 0.67587 -1.82059 0
M  V30 8029 C 770.316 0.81024 -3.37716 0
M  V30 8030 C 769.27 0.0833126 -4.27919 0
M  V30 8031 C 768.596 1.11185 -5.23012 0
M  V30 8032 C 769.896 -1.07107 -5.112 0
M  V30 8033 H 771.59 -0.883452 -2.86069 0
M  V30 8034 H 769.136 -0.426283 -1.37546 0
M  V30 8035 H 771.089 1.25927 -4.02145 0
M  V30 8036 H 769.813 1.62413 -2.83354 0
M  V30 8037 H 768.472 -0.346043 -3.64963 0
M  V30 8038 H 768.12 1.91917 -4.64948 0
M  V30 8039 H 767.82 0.63026 -5.8421 0
M  V30 8040 H 769.344 1.56068 -5.90318 0
M  V30 8041 H 770.758 -0.700726 -5.69002 0
M  V30 8042 H 769.155 -1.48196 -5.81514 0
M  V30 8043 H 770.225 -1.89513 -4.46332 0
M  V30 8044 N 771.568 1.50203 -0.477153 0
M  V30 8045 C 772.845 1.95115 0.137609 0
M  V30 8046 C 773.225 1.41778 1.56404 0
M  V30 8047 O 772.573 0.621333 2.1989 0
M  V30 8048 C 772.783 3.4892 0.0747168 0
M  V30 8049 C 774.131 4.238 0.260585 0
M  V30 8050 O 775.155 3.5588 0.151021 0
M  V30 8051 O 774.014 5.44366 0.482534 0
M  V30 8052 H 771.108 0.81987 0.108364 0
M  V30 8053 H 773.654 1.60946 -0.537989 0
M  V30 8054 H 772.426 3.80308 -0.920966 0
M  V30 8055 H 772.049 3.89642 0.791509 0
M  V30 8056 N 773.046 0.209999 1.56195 0
M  V30 8057 C 774.294 -0.423974 1.97603 0
M  V30 8058 C 774.615 -1.61112 1.09854 0
M  V30 8059 O 773.885 -1.95134 0.173032 0
M  V30 8060 H 772.465 -0.159629 0.729745 0
M  V30 8061 H 775.127 0.300205 1.92574 0
M  V30 8062 H 774.223 -0.75809 3.02753 0
M  V30 8063 N 774.524 -1.57472 -0.0634922 0
M  V30 8064 C 775.935 -1.76303 -0.614337 0
M  V30 8065 C 776.286 -0.836578 -1.77471 0
M  V30 8066 O 775.411 -0.0227184 -2.16388 0
M  V30 8067 C 776.006 -3.19709 -1.12122 0
M  V30 8068 C 774.565 -3.39856 -1.61786 0
M  V30 8069 C 773.712 -2.71975 -0.540845 0
M  V30 8070 H 776.663 -1.57864 0.162702 0
M  V30 8071 H 776.684 -3.24326 -1.98979 0
M  V30 8072 H 776.196 -3.87114 -0.276472 0
M  V30 8073 H 774.297 -2.77578 -2.48558 0
M  V30 8074 H 774.41 -4.48338 -1.68908 0
M  V30 8075 H 772.774 -2.34763 -0.987854 0
M  V30 8076 H 773.557 -3.4204 0.293856 0
M  V30 8077 N 776.003 0.335068 -1.53997 0
M  V30 8078 C 777.414 0.910191 -1.6301 0
M  V30 8079 C 777.765 1.89271 -0.516809 0
M  V30 8080 O 776.89 2.13516 0.352123 0
M  V30 8081 C 777.485 1.65761 -2.9548 0
M  V30 8082 C 776.044 2.18163 -3.06728 0
M  V30 8083 C 775.191 1.00338 -2.5851 0
M  V30 8084 H 778.142 0.112965 -1.58297 0
M  V30 8085 H 778.163 2.52107 -2.84995 0
M  V30 8086 H 777.675 0.94227 -3.76488 0
M  V30 8087 H 775.776 2.92847 -2.30372 0
M  V30 8088 H 775.889 2.43952 -4.1234 0
M  V30 8089 H 774.253 1.37925 -2.14124 0
M  V30 8090 H 775.036 0.30254 -3.41964 0
M  V30 8091 N 777.481 1.45874 0.596531 0
M  V30 8092 C 778.706 1.54247 1.38646 0
M  V30 8093 C 779.131 0.179571 1.87241 0
M  V30 8094 O 778.489 -0.837831 1.6078 0
M  V30 8095 C 778.537 2.54015 2.55946 0
M  V30 8096 O 777.641 2.06561 3.5694 0
M  V30 8097 H 776.982 0.519555 0.413471 0
M  V30 8098 H 779.512 1.91327 0.724936 0
M  V30 8099 H 779.522 2.73179 3.03047 0
M  V30 8100 H 778.197 3.52994 2.19928 0
M  V30 8101 H 776.774 1.97324 3.16414 0
M  V30 8102 N 778.959 -0.83999 1.33349 0
M  V30 8103 C 780.37 -1.41139 1.22216 0
M  V30 8104 C 780.721 -1.95551 -0.159398 0
M  V30 8105 O 779.846 -1.88721 -1.05893 0
M  V30 8106 C 780.441 -2.56564 2.21269 0
M  V30 8107 C 779 -3.09661 2.13979 0
M  V30 8108 C 778.147 -1.82457 2.08818 0
M  V30 8109 H 781.098 -0.645853 1.44964 0
M  V30 8110 H 781.119 -3.34163 1.81976 0
M  V30 8111 H 780.631 -2.16932 3.21811 0
M  V30 8112 H 778.732 -3.53841 1.16736 0
M  V30 8113 H 778.845 -3.6991 3.04472 0
M  V30 8114 H 777.209 -2.0266 1.54276 0
M  V30 8115 H 777.992 -1.45022 3.11165 0
M  V30 8116 N 780.437 -1.16799 -1.0581 0
M  V30 8117 C 781.853 -0.913935 -1.30841 0
M  V30 8118 C 782.053 0.430439 -1.96849 0
M  V30 8119 O 781.109 1.16885 -2.23817 0
M  V30 8120 C 782.422 -2.06662 -2.18429 0
M  V30 8121 C 783.97 -2.10294 -2.31831 0
M  V30 8122 C 784.445 -3.2493 -3.22776 0
M  V30 8123 N 785.936 -3.24678 -3.30361 0
M  V30 8124 C 786.671 -4.10021 -4.00837 0
M  V30 8125 N 786.167 -5.05461 -4.73795 0
M  V30 8126 N 787.96 -3.97991 -3.96937 0
M  V30 8127 H 780.111 -2.03343 -0.613613 0
M  V30 8128 H 782.374 -0.88754 -0.333133 0
M  V30 8129 H 782.08 -3.03791 -1.77211 0
M  V30 8130 H 781.954 -2.01233 -3.19038 0
M  V30 8131 H 784.341 -1.13754 -2.72294 0
M  V30 8132 H 784.422 -2.19786 -1.30873 0
M  V30 8133 H 784.066 -4.21731 -2.83028 0
M  V30 8134 H 783.996 -3.12674 -4.23725 0
M  V30 8135 H 786.487 -2.55573 -2.78372 0
M  V30 8136 H 786.8 -5.66989 -5.25113 0
M  V30 8137 H 785.145 -5.09436 -4.72758 0
M  V30 8138 H 788.336 -3.2273 -3.39062 0
M  V30 8139 H 788.509 -4.64722 -4.51594 0
M  V30 8140 N 781.915 1.24427 -0.967243 0
M  V30 8141 C 783.14 1.9708 -0.646069 0
M  V30 8142 C 783.565 1.71272 0.777665 0
M  V30 8143 O 782.923 0.976179 1.52776 0
M  V30 8144 C 782.971 3.48501 -0.926266 0
M  V30 8145 O 782.075 4.12398 -0.0114653 0
M  V30 8146 H 781.416 0.617423 -0.244304 0
M  V30 8147 H 783.946 1.58215 -1.29727 0
M  V30 8148 H 783.956 3.98885 -0.857619 0
M  V30 8149 H 782.631 3.66613 -1.96386 0
M  V30 8150 H 781.208 3.72661 -0.133396 0
M  V30 8151 N 783.393 0.737304 1.3929 0
M  V30 8152 C 784.804 0.355966 1.83275 0
M  V30 8153 C 785.155 -1.11295 1.6158 0
M  V30 8154 O 784.28 -1.85871 1.10819 0
M  V30 8155 C 784.875 0.63931 3.32713 0
M  V30 8156 C 783.434 0.31144 3.75109 0
M  V30 8157 C 782.581 0.900765 2.62262 0
M  V30 8158 H 785.532 0.934763 1.28249 0
M  V30 8159 H 785.553 -0.0881293 3.80398 0
M  V30 8160 H 785.065 1.70847 3.48472 0
M  V30 8161 H 783.166 -0.751791 3.64937 0
M  V30 8162 H 783.279 0.795611 4.72448 0
M  V30 8163 H 781.643 0.327239 2.52589 0
M  V30 8164 H 782.426 1.97463 2.80826 0
M  V30 8165 N 784.871 -1.49948 0.485112 0
M  V30 8166 C 786.117 -2.02695 -0.0651022 0
M  V30 8167 C 786.45 -1.36534 -1.38102 0
M  V30 8168 O 785.725 -0.495677 -1.88078 0
M  V30 8169 C 786.008 -3.59337 -0.234285 0
M  V30 8170 C 785.861 -4.3605 1.10364 0
M  V30 8171 C 787.18 -4.28996 -0.982351 0
M  V30 8172 H 784.299 -0.736666 -0.0221856 0
M  V30 8173 H 786.941 -1.7913 0.633433 0
M  V30 8174 H 785.091 -3.79546 -0.829262 0
M  V30 8175 H 786.763 -4.27377 1.73627 0
M  V30 8176 H 785.006 -3.99236 1.69686 0
M  V30 8177 H 785.677 -5.43959 0.938743 0
M  V30 8178 H 788.153 -4.13346 -0.477904 0
M  V30 8179 H 787.029 -5.38379 -1.06955 0
M  V30 8180 H 787.29 -3.93135 -2.02231 0
M  V30 8181 N 786.349 -0.21828 -1.56081 0
M  V30 8182 C 787.598 0.414644 -1.97392 0
M  V30 8183 C 787.911 1.61132 -1.10887 0
M  V30 8184 O 789.117 2.31355 -1.42082 0
M  V30 8185 C 787.573 0.789099 -3.51143 0
M  V30 8186 C 787.181 -0.384578 -4.46346 0
M  V30 8187 C 788.925 1.38781 -4.01173 0
M  V30 8188 C 786.832 0.0121288 -5.91399 0
M  V30 8189 H 785.762 0.158691 -0.737111 0
M  V30 8190 H 788.413 -0.313974 -1.80794 0
M  V30 8191 H 786.795 1.57505 -3.6333 0
M  V30 8192 H 787.969 -1.16212 -4.45905 0
M  V30 8193 H 786.284 -0.896306 -4.06639 0
M  V30 8194 H 788.881 1.69746 -5.07041 0
M  V30 8195 H 789.224 2.30245 -3.46833 0
M  V30 8196 H 789.757 0.665364 -3.92196 0
M  V30 8197 H 786.496 -0.868917 -6.49715 0
M  V30 8198 H 786.016 0.754053 -5.95041 0
M  V30 8199 H 787.695 0.439949 -6.45502 0
M  V30 8200 N 787.827 1.57504 0.0551401 0
M  V30 8201 C 789.075 1.87684 0.74962 0
M  V30 8202 C 789.396 0.812547 1.77264 0
M  V30 8203 O 788.666 -0.15694 1.9527 0
M  V30 8204 H 787.246 0.6926 0.279846 0
M  V30 8205 H 789.908 1.94881 0.0272745 0
M  V30 8206 H 789.004 2.85734 1.25548 0
M  V30 8207 N 789.305 -0.326896 1.54172 0
M  V30 8208 C 790.53 -1.08924 1.76494 0
M  V30 8209 C 790.955 -1.81039 0.510523 0
M  V30 8210 O 790.313 -1.73141 -0.537756 0
M  V30 8211 C 790.361 -2.06558 2.95578 0
M  V30 8212 O 789.465 -3.14394 2.6689 0
M  V30 8213 H 788.806 -0.314216 0.584948 0
M  V30 8214 H 791.336 -0.372207 2.01186 0
M  V30 8215 H 791.346 -2.49487 3.22832 0
M  V30 8216 H 790.021 -1.53469 3.86549 0
M  V30 8217 H 788.598 -2.76164 2.50576 0
M  V30 8218 N 790.784 -1.46188 -0.588786 0
M  V30 8219 C 791.694 -1.58865 -1.72624 0
M  V30 8220 C 792.71 -0.472348 -1.67466 0
M  V30 8221 O 793.886 -0.735638 -1.87484 0
M  V30 8222 C 790.951 -1.56989 -3.0912 0
M  V30 8223 C 790.012 -2.79804 -3.25589 0
M  V30 8224 C 789.245 -2.78009 -4.55573 0
M  V30 8225 O 789.468 -1.86406 -5.39082 0
M  V30 8226 O 788.402 -3.6947 -4.75159 0
M  V30 8227 H 792.228 -2.55047 -1.64878 0
M  V30 8228 H 789.813 -1.28912 -0.755115 0
M  V30 8229 H 791.695 -1.58618 -3.90408 0
M  V30 8230 H 790.37 -0.639648 -3.17317 0
M  V30 8231 H 789.277 -2.83732 -2.43818 0
M  V30 8232 H 790.61 -3.72017 -3.22279 0
M  V30 8233 N 792.262 0.832906 -1.33792 0
M  V30 8234 C 793.508 1.59089 -1.25772 0
M  V30 8235 C 793.841 1.93414 0.174601 0
M  V30 8236 O 793.116 1.59195 1.11746 0
M  V30 8237 C 793.399 2.89699 -2.13885 0
M  V30 8238 C 793.252 2.62017 -3.65605 0
M  V30 8239 C 794.571 3.91182 -2.01654 0
M  V30 8240 H 791.69 0.577232 -0.458227 0
M  V30 8241 H 794.332 0.960227 -1.6395 0
M  V30 8242 H 792.482 3.4352 -1.81456 0
M  V30 8243 H 794.154 2.14582 -4.08353 0
M  V30 8244 H 792.397 1.95621 -3.87189 0
M  V30 8245 H 793.068 3.55112 -4.2261 0
M  V30 8246 H 795.544 3.46684 -2.30107 0
M  V30 8247 H 794.42 4.80391 -2.65548 0
M  V30 8248 H 794.681 4.30861 -0.990536 0
M  V30 8249 N 793.74 1.17359 1.05189 0
M  V30 8250 C 794.987 0.961987 1.78191 0
M  V30 8251 C 795.315 -0.509363 1.87712 0
M  V30 8252 O 794.57 -1.39425 1.37329 0
M  V30 8253 C 794.869 1.54821 3.22126 0
M  V30 8254 C 794.535 3.04378 3.32663 0
M  V30 8255 C 793.197 3.45201 3.35246 0
M  V30 8256 C 795.549 4.00387 3.33677 0
M  V30 8257 C 792.877 4.80629 3.36471 0
M  V30 8258 C 795.229 5.35715 3.36441 0
M  V30 8259 C 793.893 5.76002 3.37311 0
M  V30 8260 H 793.163 0.352016 0.652047 0
M  V30 8261 H 795.81 1.46249 1.23627 0
M  V30 8262 H 794.115 0.969432 3.79617 0
M  V30 8263 H 795.812 1.36004 3.77232 0
M  V30 8264 H 792.402 2.71836 3.31366 0
M  V30 8265 H 796.586 3.69906 3.30882 0
M  V30 8266 H 791.842 5.11155 3.35455 0
M  V30 8267 H 796.016 6.09886 3.36173 0
M  V30 8268 H 793.643 6.80919 3.38013 0
M  V30 8269 N 795.218 -1.23913 0.973828 0
M  V30 8270 C 796.148 -2.27453 0.527969 0
M  V30 8271 C 797.129 -1.6443 -0.435513 0
M  V30 8272 O 798.314 -1.9137 -0.330306 0
M  V30 8273 C 795.444 -3.4685 -0.176757 0
M  V30 8274 C 794.398 -4.22181 0.703352 0
M  V30 8275 C 793.724 -5.34534 -0.133215 0
M  V30 8276 C 795.024 -4.82865 1.99096 0
M  V30 8277 H 796.718 -2.65 1.3934 0
M  V30 8278 H 794.264 -1.27388 0.671446 0
M  V30 8279 H 796.217 -4.18424 -0.499934 0
M  V30 8280 H 794.941 -3.08346 -1.07659 0
M  V30 8281 H 793.6 -3.52416 1.00989 0
M  V30 8282 H 793.248 -4.92271 -1.03338 0
M  V30 8283 H 792.948 -5.85855 0.452494 0
M  V30 8284 H 794.472 -6.08933 -0.450924 0
M  V30 8285 H 795.886 -5.46481 1.73297 0
M  V30 8286 H 794.283 -5.44444 2.52389 0
M  V30 8287 H 795.353 -4.03977 2.68199 0
M  V30 8288 N 796.696 -0.74468 -1.38897 0
M  V30 8289 C 798.107 -0.36568 -1.83084 0
M  V30 8290 C 798.458 1.10436 -1.62168 0
M  V30 8291 O 797.583 1.85281 -1.11804 0
M  V30 8292 C 798.178 -0.656946 -3.3237 0
M  V30 8293 C 796.737 -0.331329 -3.74939 0
M  V30 8294 C 795.884 -0.914661 -2.61781 0
M  V30 8295 H 798.835 -0.941551 -1.27752 0
M  V30 8296 H 798.856 0.0679546 -3.80439 0
M  V30 8297 H 798.368 -1.72693 -3.47561 0
M  V30 8298 H 796.469 0.732426 -3.6533 0
M  V30 8299 H 796.582 -0.820655 -4.72019 0
M  V30 8300 H 794.946 -0.34063 -2.52412 0
M  V30 8301 H 795.729 -1.98949 -2.79775 0
M  V30 8302 N 798.174 1.49689 -0.493057 0
M  V30 8303 C 799.122 2.30613 0.303383 0
M  V30 8304 C 800.116 1.38867 0.970165 0
M  V30 8305 O 801.322 1.55956 0.898761 0
M  V30 8306 H 797.697 0.742891 0.116691 0
M  V30 8307 H 799.668 2.95717 -0.39924 0
M  V30 8308 C 798.417 3.20008 1.35978 0
M  V30 8309 H 797.74 3.90526 0.856103 0
M  V30 8310 H 799.18 3.79586 1.88919 0
M  V30 8311 C 797.639 2.39079 2.37367 0
M  V30 8312 O 798.169 2.08933 3.43089 0
M  V30 8313 N 796.375 2.0125 2.09635 0
M  V30 8314 H 795.922 2.25966 1.23682 0
M  V30 8315 H 795.88 1.47408 2.77702 0
M  V30 8316 N 799.652 0.226554 1.55963 0
M  V30 8317 C 800.877 -0.411527 2.03276 0
M  V30 8318 C 801.302 -1.52206 1.10521 0
M  V30 8319 O 800.66 -1.81054 0.0943217 0
M  V30 8320 C 800.708 -0.915694 3.4878 0
M  V30 8321 O 799.812 -2.02672 3.59163 0
M  V30 8322 H 799.153 -0.0924907 0.657527 0
M  V30 8323 H 801.683 0.346656 2.01642 0
M  V30 8324 H 801.693 -1.22421 3.892 0
M  V30 8325 H 800.368 -0.102915 4.15773 0
M  V30 8326 H 798.945 -1.72445 3.30632 0
M  V30 8327 N 801.13 -1.57531 -0.0467866 0
M  V30 8328 C 802.078 -2.06455 -1.0714 0
M  V30 8329 C 803.072 -0.974744 -1.38546 0
M  V30 8330 O 804.278 -1.15974 -1.37659 0
M  V30 8331 H 800.653 -0.658607 -0.362962 0
M  V30 8332 H 802.624 -2.91613 -0.632813 0
M  V30 8333 C 801.373 -2.54481 -2.36927 0
M  V30 8334 H 800.696 -3.37946 -2.13617 0
M  V30 8335 H 802.136 -2.92442 -3.07007 0
M  V30 8336 C 800.595 -1.43836 -3.04652 0
M  V30 8337 O 801.125 -0.794531 -3.93764 0
M  V30 8338 N 799.331 -1.17727 -2.65686 0
M  V30 8339 H 798.878 -1.70265 -1.93307 0
M  V30 8340 H 798.836 -0.439051 -3.11319 0
M  V30 8341 N 802.608 0.318715 -1.54344 0
M  V30 8342 C 803.558 1.39364 -1.80448 0
M  V30 8343 C 804.542 1.46708 -0.660728 0
M  V30 8344 O 805.734 1.51159 -0.920869 0
M  V30 8345 C 802.863 2.76144 -2.03959 0
M  V30 8346 C 801.949 2.73094 -3.24469 0
M  V30 8347 N 802.34 2.39663 -4.45416 0
M  V30 8348 C 800.638 3.04218 -3.2614 0
M  V30 8349 C 801.339 2.45469 -5.27371 0
M  V30 8350 N 800.315 2.82107 -4.64668 0
M  V30 8351 H 804.117 1.12453 -2.71535 0
M  V30 8352 H 801.631 0.527221 -1.53604 0
M  V30 8353 H 803.628 3.53627 -2.20802 0
M  V30 8354 H 802.288 3.03982 -1.14129 0
M  V30 8355 H 803.299 2.12424 -4.72331 0
M  V30 8356 H 799.976 3.37066 -2.4636 0
M  V30 8357 H 801.366 2.22571 -6.33965 0
M  V30 8358 N 804.086 1.46499 0.581025 0
M  V30 8359 C 805.332 1.52121 1.34116 0
M  V30 8360 C 805.665 0.173031 1.93428 0
M  V30 8361 O 804.94 -0.815729 1.76568 0
M  V30 8362 C 805.223 2.62108 2.46924 0
M  V30 8363 C 805.076 4.06462 1.92636 0
M  V30 8364 C 806.395 2.68167 3.48962 0
M  V30 8365 H 803.514 0.5538 0.486287 0
M  V30 8366 H 806.156 1.78443 0.652538 0
M  V30 8367 H 804.306 2.39794 3.05665 0
M  V30 8368 H 805.978 4.40068 1.3834 0
M  V30 8369 H 804.221 4.15862 1.23455 0
M  V30 8370 H 804.892 4.79152 2.74076 0
M  V30 8371 H 807.368 2.8823 3.00104 0
M  V30 8372 H 806.244 3.46942 4.2535 0
M  V30 8373 H 806.505 1.74284 4.06297 0
M  V30 8374 N 805.565 -0.825799 1.34232 0
M  V30 8375 C 806.528 -1.91808 1.25468 0
M  V30 8376 C 807.528 -1.59893 0.170567 0
M  V30 8377 O 808.718 -1.68986 0.422996 0
M  V30 8378 C 805.85 -3.27786 0.93644 0
M  V30 8379 H 807.043 -2.01003 2.22571 0
M  V30 8380 H 804.596 -1.01944 1.18479 0
M  V30 8381 H 805.331 -3.24285 -0.0315408 0
M  V30 8382 H 805.116 -3.52333 1.72057 0
M  V30 8383 H 806.606 -4.07782 0.900214 0
M  V30 8384 N 807.043 -1.17915 -1.04565 0
M  V30 8385 C 808.268 -0.996749 -1.81878 0
M  V30 8386 C 808.693 0.450169 -1.82634 0
M  V30 8387 O 808.051 1.32268 -1.23995 0
M  V30 8388 C 808.099 -1.55005 -3.25585 0
M  V30 8389 O 807.203 -0.76804 -4.05185 0
M  V30 8390 H 806.544 -0.353456 -0.562108 0
M  V30 8391 H 809.074 -1.56557 -1.31723 0
M  V30 8392 H 809.084 -1.57503 -3.76373 0
M  V30 8393 H 807.759 -2.60327 -3.2435 0
M  V30 8394 H 806.336 -0.81498 -3.63885 0
M  V30 8395 N 808.521 1.23394 -0.980386 0
M  V30 8396 C 809.769 1.91431 -0.647978 0
M  V30 8397 C 810.09 1.76871 0.821066 0
M  V30 8398 O 809.36 1.14808 1.58732 0
M  V30 8399 H 807.94 0.708516 -0.236673 0
M  V30 8400 H 810.602 1.50019 -1.2442 0
M  V30 8401 H 809.698 2.98854 -0.899592 0
M  V30 8402 N 809.999 0.752036 1.385 0
M  V30 8403 C 810.962 0.131587 2.28822 0
M  V30 8404 C 811.962 -0.649149 1.47115 0
M  V30 8405 O 813.152 -0.475645 1.67581 0
M  V30 8406 C 810.284 -0.822101 3.30839 0
M  V30 8407 H 811.477 0.927551 2.85196 0
M  V30 8408 H 809.03 0.518945 1.47434 0
M  V30 8409 H 809.765 -1.6438 2.79553 0
M  V30 8410 H 809.55 -0.264689 3.91206 0
M  V30 8411 H 811.04 -1.25226 3.98382 0
M  V30 8412 N 811.477 -1.49425 0.500989 0
M  V30 8413 C 812.725 -2.02053 -0.0434495 0
M  V30 8414 C 813.046 -1.38285 -1.37486 0
M  V30 8415 O 812.316 -0.538171 -1.88363 0
M  V30 8416 H 810.896 -0.746757 -0.0190469 0
M  V30 8417 H 813.558 -1.83449 0.658227 0
M  V30 8418 H 812.654 -3.11619 -0.173129 0
M  V30 8419 N 812.955 -0.234822 -1.55841 0
M  V30 8420 C 813.865 0.680828 -2.24504 0
M  V30 8421 C 814.881 1.20306 -1.25708 0
M  V30 8422 O 816.057 1.24188 -1.58554 0
M  V30 8423 C 813.122 1.86636 -2.92178 0
M  V30 8424 C 812.183 1.3848 -4.06352 0
M  V30 8425 C 811.416 2.51382 -4.70789 0
M  V30 8426 O 811.639 3.69831 -4.34259 0
M  V30 8427 O 810.573 2.21828 -5.59532 0
M  V30 8428 H 814.399 0.12583 -3.03439 0
M  V30 8429 H 811.984 -0.00381817 -1.494 0
M  V30 8430 H 813.866 2.55845 -3.34845 0
M  V30 8431 H 812.541 2.40921 -2.16192 0
M  V30 8432 H 811.448 0.660341 -3.68226 0
M  V30 8433 H 812.781 0.888177 -4.8412 0
M  V30 8434 N 814.433 1.57553 0.0384317 0
M  V30 8435 C 815.396 2.04927 1.02653 0
M  V30 8436 C 816.396 0.951768 1.29607 0
M  V30 8437 O 817.586 1.21568 1.24768 0
M  V30 8438 C 814.718 2.45828 2.36181 0
M  V30 8439 H 815.911 2.93474 0.617508 0
M  V30 8440 H 813.464 1.53679 0.285031 0
M  V30 8441 H 814.199 1.60408 2.8185 0
M  V30 8442 H 813.984 3.25945 2.1795 0
M  V30 8443 H 815.474 2.82939 3.0714 0
M  V30 8444 N 815.911 -0.310526 1.54511 0
M  V30 8445 C 816.821 -1.4054 1.87844 0
M  V30 8446 C 817.837 -1.55954 0.771635 0
M  V30 8447 O 819.013 -1.70801 1.06719 0
M  V30 8448 C 816.078 -2.75063 2.11048 0
M  V30 8449 C 815.139 -2.68715 3.348 0
M  V30 8450 C 814.372 -3.96821 3.56887 0
M  V30 8451 O 814.595 -4.95721 2.82165 0
M  V30 8452 O 813.529 -3.99291 4.50389 0
M  V30 8453 H 817.355 -1.15275 2.80972 0
M  V30 8454 H 814.94 -0.505732 1.4058 0
M  V30 8455 H 816.822 -3.54671 2.27566 0
M  V30 8456 H 815.497 -3.00191 1.21108 0
M  V30 8457 H 814.404 -1.87611 3.23655 0
M  V30 8458 H 815.737 -2.4854 4.2484 0
M  V30 8459 N 817.389 -1.46805 -0.573248 0
M  V30 8460 C 818.299 -1.60687 -1.70929 0
M  V30 8461 C 819.315 -0.490084 -1.66956 0
M  V30 8462 O 820.491 -0.755482 -1.86693 0
M  V30 8463 C 817.556 -1.60259 -3.07438 0
M  V30 8464 C 816.617 -2.83242 -3.22603 0
M  V30 8465 C 815.85 -2.82825 -4.52599 0
M  V30 8466 O 816.073 -1.92113 -5.37074 0
M  V30 8467 O 815.007 -3.74489 -4.71213 0
M  V30 8468 H 818.833 -2.56782 -1.62163 0
M  V30 8469 H 816.418 -1.29706 -0.741399 0
M  V30 8470 H 818.3 -1.6275 -3.88704 0
M  V30 8471 H 816.975 -0.673268 -3.16621 0
M  V30 8472 H 815.882 -2.86302 -2.40794 0
M  V30 8473 H 817.215 -3.75415 -3.18315 0
M  V30 8474 N 818.867 0.818669 -1.34668 0
M  V30 8475 C 820.283 1.11243 -1.14443 0
M  V30 8476 C 820.483 2.01435 0.0512212 0
M  V30 8477 O 819.539 2.41854 0.725471 0
M  V30 8478 C 820.852 1.75504 -2.4417 0
M  V30 8479 C 822.4 1.8798 -2.50265 0
M  V30 8480 C 822.875 2.55657 -3.80004 0
M  V30 8481 N 824.366 2.63153 -3.81189 0
M  V30 8482 C 825.101 3.16258 -4.78298 0
M  V30 8483 N 824.597 3.69893 -5.85791 0
M  V30 8484 N 826.39 3.14698 -4.65748 0
M  V30 8485 H 818.541 0.218848 -2.1127 0
M  V30 8486 H 820.804 0.159655 -0.934459 0
M  V30 8487 H 820.51 1.16697 -3.31775 0
M  V30 8488 H 820.384 2.75329 -2.57825 0
M  V30 8489 H 822.771 2.45934 -1.63096 0
M  V30 8490 H 822.852 0.870447 -2.40535 0
M  V30 8491 H 822.496 1.98356 -4.67565 0
M  V30 8492 H 822.426 3.57105 -3.87019 0
M  V30 8493 H 824.917 2.2514 -3.03513 0
M  V30 8494 H 825.23 4.08678 -6.55898 0
M  V30 8495 H 823.575 3.68125 -5.89499 0
M  V30 8496 H 826.766 2.72066 -3.80917 0
M  V30 8497 H 826.939 3.5578 -5.41594 0
M  V30 8498 N 820.346 1.18468 1.03938 0
M  V30 8499 C 821.592 0.982286 1.77423 0
M  V30 8500 C 821.925 -0.48679 1.88 0
M  V30 8501 O 821.2 -1.36146 1.38905 0
M  V30 8502 C 821.483 1.63929 3.20623 0
M  V30 8503 C 821.336 3.18132 3.17982 0
M  V30 8504 C 822.655 1.3536 4.18767 0
M  V30 8505 H 819.774 0.358264 0.644062 0
M  V30 8506 H 822.416 1.46154 1.21405 0
M  V30 8507 H 820.566 1.2318 3.68455 0
M  V30 8508 H 822.238 3.68024 2.78129 0
M  V30 8509 H 820.481 3.50225 2.55978 0
M  V30 8510 H 821.152 3.5924 4.19107 0
M  V30 8511 H 823.628 1.70669 3.79488 0
M  V30 8512 H 822.504 1.83896 5.17178 0
M  V30 8513 H 822.765 0.276722 4.41233 0
M  V30 8514 N 821.824 -1.22873 0.986916 0
M  V30 8515 C 823.07 -1.91746 0.660401 0
M  V30 8516 C 823.403 -1.76738 -0.804812 0
M  V30 8517 O 822.678 -1.13246 -1.58131 0
M  V30 8518 C 822.961 -3.44156 1.05966 0
M  V30 8519 C 822.814 -3.68242 2.58298 0
M  V30 8520 C 824.133 -4.35874 0.60842 0
M  V30 8521 H 821.252 -0.696347 0.241391 0
M  V30 8522 H 823.894 -1.44867 1.22937 0
M  V30 8523 H 822.044 -3.84213 0.575534 0
M  V30 8524 H 823.716 -3.37626 3.14335 0
M  V30 8525 H 821.959 -3.12728 3.00638 0
M  V30 8526 H 822.63 -4.74956 2.81285 0
M  V30 8527 H 825.106 -4.03299 1.02417 0
M  V30 8528 H 823.982 -5.41201 0.916142 0
M  V30 8529 H 824.243 -4.39364 -0.491086 0
M  V30 8530 N 823.302 -0.75937 -1.38099 0
M  V30 8531 C 824.548 -0.318584 -2.00282 0
M  V30 8532 C 824.881 1.09854 -1.60143 0
M  V30 8533 O 824.156 1.75344 -0.841702 0
M  V30 8534 C 824.439 -0.448047 -3.57302 0
M  V30 8535 C 824.292 -1.9067 -4.07388 0
M  V30 8536 C 825.611 0.155119 -4.39827 0
M  V30 8537 H 822.73 -0.117233 -0.727616 0
M  V30 8538 H 825.372 -0.960097 -1.63958 0
M  V30 8539 H 823.522 0.0981003 -3.88376 0
M  V30 8540 H 825.194 -2.5116 -3.86932 0
M  V30 8541 H 823.437 -2.41979 -3.6004 0
M  V30 8542 H 824.108 -1.94841 -5.1647 0
M  V30 8543 H 826.584 -0.31073 -4.14938 0
M  V30 8544 H 825.46 0.0343264 -5.48889 0
M  V30 8545 H 825.721 1.24407 -4.24235 0
M  V30 8546 N 824.78 1.49157 -0.508906 0
M  V30 8547 C 826.029 2.0167 0.0346854 0
M  V30 8548 C 826.342 1.39302 1.37311 0
M  V30 8549 O 827.548 1.83189 2.00385 0
M  V30 8550 C 826.004 3.59725 0.112261 0
M  V30 8551 C 825.612 4.31069 -1.21999 0
M  V30 8552 C 827.356 4.20155 0.605798 0
M  V30 8553 C 825.263 5.81001 -1.10415 0
M  V30 8554 H 824.193 0.753814 0.0167355 0
M  V30 8555 H 826.844 1.7162 -0.649518 0
M  V30 8556 H 825.226 3.86525 0.861087 0
M  V30 8557 H 826.4 4.15962 -1.98273 0
M  V30 8558 H 824.715 3.82418 -1.64759 0
M  V30 8559 H 827.312 5.29964 0.710102 0
M  V30 8560 H 827.655 3.84051 1.60656 0
M  V30 8561 H 828.188 3.97705 -0.0867239 0
M  V30 8562 H 824.927 6.21643 -2.07941 0
M  V30 8563 H 824.447 5.9858 -0.382428 0
M  V30 8564 H 826.126 6.42207 -0.786116 0
M  V30 8565 N 826.258 0.243083 1.55714 0
M  V30 8566 C 827.483 -0.389944 2.03701 0
M  V30 8567 C 827.908 -1.51025 1.12129 0
M  V30 8568 O 827.266 -1.80944 0.11352 0
M  V30 8569 C 827.314 -0.878649 3.49731 0
M  V30 8570 O 826.418 -1.98851 3.61292 0
M  V30 8571 H 825.759 -0.0855115 0.658471 0
M  V30 8572 H 828.289 0.368023 2.01263 0
M  V30 8573 H 828.299 -1.18287 3.90477 0
M  V30 8574 H 826.974 -0.0588107 4.15858 0
M  V30 8575 H 825.551 -1.68928 3.32442 0
M  V30 8576 N 827.736 -1.57571 -0.0300757 0
M  V30 8577 C 828.961 -1.93879 -0.736601 0
M  V30 8578 C 829.386 -0.842998 -1.68152 0
M  V30 8579 O 828.744 0.20135 -1.80178 0
M  V30 8580 C 828.792 -3.29247 -1.47066 0
M  V30 8581 O 827.896 -3.21426 -2.58378 0
M  V30 8582 H 827.237 -0.633735 -0.198181 0
M  V30 8583 H 829.767 -2.04595 0.0141485 0
M  V30 8584 H 829.777 -3.64113 -1.84081 0
M  V30 8585 H 828.452 -4.08565 -0.77764 0
M  V30 8586 H 827.029 -2.98189 -2.23914 0
M  V30 8587 N 829.214 0.302327 -1.54673 0
M  V30 8588 C 830.439 1.06103 -1.78205 0
M  V30 8589 C 830.864 1.80204 -0.53926 0
M  V30 8590 O 830.222 1.73975 0.510142 0
M  V30 8591 C 830.27 2.01829 -2.98827 0
M  V30 8592 O 829.374 3.10108 -2.71858 0
M  V30 8593 H 828.715 0.30487 -0.589873 0
M  V30 8594 H 831.245 0.340153 -2.01753 0
M  V30 8595 H 831.255 2.44319 -3.2676 0
M  V30 8596 H 829.93 1.473 -3.88942 0
M  V30 8597 H 828.507 2.72142 -2.54937 0
M  V30 8598 N 830.692 1.47107 0.565454 0
M  V30 8599 C 831.602 1.61591 1.70075 0
M  V30 8600 C 832.618 0.498931 1.66693 0
M  V30 8601 O 833.794 0.765372 1.8629 0
M  V30 8602 C 830.859 1.61887 3.06583 0
M  V30 8603 C 829.92 2.84949 3.21096 0
M  V30 8604 C 829.153 2.85221 4.51093 0
M  V30 8605 O 829.376 1.94959 5.36048 0
M  V30 8606 O 828.31 3.76982 4.69221 0
M  V30 8607 H 832.136 2.57638 1.60799 0
M  V30 8608 H 829.721 1.30097 0.73451 0
M  V30 8609 H 831.603 1.64809 3.87835 0
M  V30 8610 H 830.278 0.69005 3.16259 0
M  V30 8611 H 829.185 2.87575 2.39273 0
M  V30 8612 H 830.518 3.77098 3.1632 0
M  V30 8613 N 832.17 -0.811516 1.35101 0
M  V30 8614 C 833.447 -1.55491 1.18667 0
M  V30 8615 C 833.827 -2.09775 -0.236189 0
M  V30 8616 O 833.175 -1.91989 -1.23905 0
M  V30 8617 C 833.385 -2.66732 2.25067 0
M  V30 8618 C 834.733 -3.35201 2.60625 0
M  V30 8619 O 835.757 -2.76998 2.23943 0
M  V30 8620 O 834.616 -4.40334 3.23679 0
M  V30 8621 H 831.71 -0.686783 0.460716 0
M  V30 8622 H 834.256 -0.851903 1.46768 0
M  V30 8623 H 833.028 -2.24457 3.20523 0
M  V30 8624 H 832.651 -3.44673 1.98208 0
M  V30 8625 N 833.648 -1.19017 -1.03309 0
M  V30 8626 C 834.873 -1.01598 -1.80811 0
M  V30 8627 C 835.298 0.430773 -1.83101 0
M  V30 8628 O 834.656 1.30946 -1.25391 0
M  V30 8629 C 834.704 -1.5845 -3.23923 0
M  V30 8630 O 833.808 -0.810972 -4.04348 0
M  V30 8631 H 833.149 -0.359398 -0.558327 0
M  V30 8632 H 835.679 -1.57945 -1.30055 0
M  V30 8633 H 835.689 -1.61486 -3.74682 0
M  V30 8634 H 834.364 -2.63752 -3.21571 0
M  V30 8635 H 832.941 -0.85353 -3.63 0
M  V30 8636 N 835.127 1.22348 -0.993418 0
M  V30 8637 C 836.404 1.86632 -0.585495 0
M  V30 8638 C 836.784 1.89156 0.937187 0
M  V30 8639 O 836.132 1.38247 1.81934 0
M  V30 8640 C 836.342 3.27481 -1.20652 0
M  V30 8641 C 837.69 4.03971 -1.30738 0
M  V30 8642 O 838.714 3.3675 -1.16096 0
M  V30 8643 O 837.573 5.24302 -1.54173 0
M  V30 8644 H 834.667 0.802704 -0.198984 0
M  V30 8645 H 837.213 1.30122 -1.08933 0
M  V30 8646 H 835.985 3.20281 -2.24802 0
M  V30 8647 H 835.608 3.91597 -0.688312 0
M  V30 8648 N 836.605 0.766683 1.37694 0
M  V30 8649 C 837.568 0.155849 2.2867 0
M  V30 8650 C 838.568 -0.633509 1.47795 0
M  V30 8651 O 839.758 -0.457844 1.68076 0
M  V30 8652 C 836.89 -0.786965 3.31692 0
M  V30 8653 H 838.083 0.957748 2.84196 0
M  V30 8654 H 835.636 0.534554 1.46875 0
M  V30 8655 H 836.371 -1.61406 2.8128 0
M  V30 8656 H 836.156 -0.223182 3.91464 0
M  V30 8657 H 837.646 -1.20994 3.99688 0
M  V30 8658 N 838.083 -1.48885 0.516809 0
M  V30 8659 C 838.993 -2.33185 -0.257293 0
M  V30 8660 C 840.009 -1.4565 -0.951952 0
M  V30 8661 O 841.185 -1.78651 -0.929834 0
M  V30 8662 C 838.25 -3.21465 -1.29851 0
M  V30 8663 C 837.311 -4.24863 -0.615608 0
M  V30 8664 C 836.544 -5.08925 -1.60722 0
M  V30 8665 O 836.767 -4.9475 -2.83863 0
M  V30 8666 O 835.701 -5.90737 -1.15384 0
M  V30 8667 H 839.527 -3.00596 0.433131 0
M  V30 8668 H 837.112 -1.46792 0.277908 0
M  V30 8669 H 838.994 -3.76108 -1.90055 0
M  V30 8670 H 837.669 -2.5673 -1.97158 0
M  V30 8671 H 836.576 -3.74091 0.0265829 0
M  V30 8672 H 837.909 -4.92198 0.0152871 0
M  V30 8673 N 839.561 -0.251338 -1.55583 0
M  V30 8674 C 840.509 0.662534 -2.22965 0
M  V30 8675 C 841.503 1.17662 -1.21869 0
M  V30 8676 O 842.709 1.133 -1.39868 0
M  V30 8677 H 839.084 0.232151 -0.715269 0
M  V30 8678 H 841.055 0.0711252 -2.98315 0
M  V30 8679 C 839.804 1.84646 -2.94621 0
M  V30 8680 H 839.127 1.46003 -3.72187 0
M  V30 8681 H 840.567 2.46303 -3.45124 0
M  V30 8682 C 839.026 2.72034 -1.98744 0
M  V30 8683 O 839.556 3.71695 -1.52335 0
M  V30 8684 N 837.762 2.38695 -1.6575 0
M  V30 8685 H 837.309 1.57702 -2.03685 0
M  V30 8686 H 837.267 2.9744 -1.01867 0
M  V30 8687 N 841.039 1.57585 0.0217189 0
M  V30 8688 C 842.264 1.94267 0.726309 0
M  V30 8689 C 842.689 0.851904 1.67703 0
M  V30 8690 O 842.047 -0.191792 1.80283 0
M  V30 8691 C 842.095 3.30023 1.45318 0
M  V30 8692 O 841.199 3.22791 2.5667 0
M  V30 8693 H 840.54 0.634777 0.194818 0
M  V30 8694 H 843.07 2.04585 -0.0249985 0
M  V30 8695 H 843.08 3.65084 1.82147 0
M  V30 8696 H 841.755 4.08972 0.755962 0
M  V30 8697 H 840.332 2.99373 2.2233 0
M  V30 8698 N 842.517 -0.29412 1.54831 0
M  V30 8699 C 843.742 -1.05156 1.78765 0
M  V30 8700 C 844.167 -1.79916 0.548809 0
M  V30 8701 O 843.525 -1.74243 -0.500909 0
M  V30 8702 C 843.573 -2.00242 2.99893 0
M  V30 8703 O 842.677 -3.08662 2.73499 0
M  V30 8704 H 842.018 -0.301737 0.591482 0
M  V30 8705 H 844.548 -0.329449 2.0193 0
M  V30 8706 H 844.558 -2.42583 3.28051 0
M  V30 8707 H 843.233 -1.45235 3.89717 0
M  V30 8708 H 841.81 -2.70786 2.56377 0
M  V30 8709 N 843.995 -1.47404 -0.557645 0
M  V30 8710 C 845.22 -1.57868 -1.34508 0
M  V30 8711 C 845.645 -0.229151 -1.86699 0
M  V30 8712 O 845.003 0.794908 -1.62944 0
M  V30 8713 C 845.051 -2.60712 -2.49122 0
M  V30 8714 O 844.155 -2.15952 -3.51338 0
M  V30 8715 H 843.496 -0.530335 -0.399551 0
M  V30 8716 H 846.026 -1.93181 -0.673954 0
M  V30 8717 H 846.036 -2.81118 -2.95697 0
M  V30 8718 H 844.711 -3.58701 -2.10491 0
M  V30 8719 H 843.288 -2.05644 -3.11071 0
M  V30 8720 N 845.473 0.80434 -1.35529 0
M  V30 8721 C 846.889 1.10023 -1.15616 0
M  V30 8722 C 847.089 2.01478 0.0298535 0
M  V30 8723 O 846.145 2.42609 0.699778 0
M  V30 8724 C 847.458 1.72905 -2.46017 0
M  V30 8725 C 849.006 1.85315 -2.52245 0
M  V30 8726 C 849.481 2.51612 -3.82695 0
M  V30 8727 N 850.972 2.59095 -3.83958 0
M  V30 8728 C 851.707 3.11167 -4.81625 0
M  V30 8729 N 851.203 3.63659 -5.89681 0
M  V30 8730 N 852.996 3.09741 -4.6906 0
M  V30 8731 H 845.147 0.196428 -2.1149 0
M  V30 8732 H 847.41 0.149735 -0.9361 0
M  V30 8733 H 847.116 1.13171 -3.32994 0
M  V30 8734 H 846.99 2.72579 -2.6073 0
M  V30 8735 H 849.377 2.44191 -1.65695 0
M  V30 8736 H 849.458 0.844886 -2.41444 0
M  V30 8737 H 849.102 1.93385 -4.69643 0
M  V30 8738 H 849.032 3.5298 -3.90785 0
M  V30 8739 H 851.523 2.21908 -3.05884 0
M  V30 8740 H 851.836 4.01699 -6.60195 0
M  V30 8741 H 850.181 3.61852 -5.9337 0
M  V30 8742 H 853.372 2.68011 -3.83781 0
M  V30 8743 H 853.545 3.50016 -5.45338 0
M  V30 8744 N 846.951 1.19563 1.02676 0
M  V30 8745 C 847.861 0.950691 2.14474 0
M  V30 8746 C 848.877 -0.0900219 1.73767 0
M  V30 8747 O 850.053 0.0951063 2.01175 0
M  V30 8748 C 847.118 0.494917 3.43149 0
M  V30 8749 C 846.179 1.60527 3.98158 0
M  V30 8750 C 845.412 1.17115 5.20692 0
M  V30 8751 O 845.635 0.0355937 5.70389 0
M  V30 8752 O 844.569 1.97454 5.68591 0
M  V30 8753 H 848.395 1.88651 2.38001 0
M  V30 8754 H 845.98 0.978635 1.12885 0
M  V30 8755 H 847.862 0.249492 4.20661 0
M  V30 8756 H 846.537 -0.412434 3.21062 0
M  V30 8757 H 845.444 1.90487 3.21971 0
M  V30 8758 H 846.777 2.48925 4.24614 0
M  V30 8759 N 848.429 -1.21819 0.999893 0
M  V30 8760 C 849.359 -2.26282 0.576096 0
M  V30 8761 C 850.34 -1.65317 -0.400537 0
M  V30 8762 O 851.525 -1.92028 -0.28964 0
M  V30 8763 C 848.655 -3.47147 -0.103145 0
M  V30 8764 C 847.609 -4.20594 0.792745 0
M  V30 8765 C 846.935 -5.34696 -0.0198026 0
M  V30 8766 C 848.235 -4.78533 2.09293 0
M  V30 8767 H 849.929 -2.61984 1.4493 0
M  V30 8768 H 847.475 -1.25935 0.698316 0
M  V30 8769 H 849.428 -4.1939 -0.411068 0
M  V30 8770 H 848.152 -3.1056 -1.01094 0
M  V30 8771 H 846.811 -3.50194 1.08442 0
M  V30 8772 H 846.459 -4.94352 -0.928729 0
M  V30 8773 H 846.159 -5.84764 0.576661 0
M  V30 8774 H 847.683 -6.09752 -0.321659 0
M  V30 8775 H 849.097 -5.42682 1.8485 0
M  V30 8776 H 847.494 -5.38968 2.63881 0
M  V30 8777 H 848.564 -3.98197 2.76708 0
M  V30 8778 N 849.908 -0.773975 -1.37286 0
M  V30 8779 C 851.185 -0.263942 -1.93811 0
M  V30 8780 C 851.565 1.24138 -1.70743 0
M  V30 8781 O 850.913 2.02557 -1.05749 0
M  V30 8782 C 851.123 -0.639753 -3.43086 0
M  V30 8783 C 852.471 -0.610796 -4.20184 0
M  V30 8784 O 853.495 -0.579278 -3.51458 0
M  V30 8785 O 852.354 -0.639862 -5.42741 0
M  V30 8786 H 849.448 -0.0614331 -0.824715 0
M  V30 8787 H 851.994 -0.855477 -1.46559 0
M  V30 8788 H 850.766 -1.67856 -3.53469 0
M  V30 8789 H 850.389 -0.0212827 -3.97594 0
M  V30 8790 N 851.386 1.48609 -0.524698 0
M  V30 8791 C 852.663 1.95454 0.075465 0
M  V30 8792 C 853.043 1.46682 1.51814 0
M  V30 8793 O 852.391 0.690975 2.17802 0
M  V30 8794 C 852.601 3.48981 -0.0363273 0
M  V30 8795 C 853.949 4.24414 0.125624 0
M  V30 8796 O 854.973 3.5618 0.0377239 0
M  V30 8797 O 853.832 5.45625 0.309104 0
M  V30 8798 H 850.926 0.822902 0.0822256 0
M  V30 8799 H 853.472 1.59153 -0.588921 0
M  V30 8800 H 852.244 3.77185 -1.04149 0
M  V30 8801 H 851.867 3.91963 0.667146 0
M  V30 8802 N 852.864 0.259585 1.55447 0
M  V30 8803 C 854.089 -0.368317 2.04103 0
M  V30 8804 C 854.514 -1.49827 1.13725 0
M  V30 8805 O 853.872 -1.80814 0.132705 0
M  V30 8806 C 853.92 -0.841506 3.50644 0
M  V30 8807 O 853.024 -1.95008 3.63381 0
M  V30 8808 H 852.365 -0.0785227 0.659341 0
M  V30 8809 H 854.895 0.389349 2.00861 0
M  V30 8810 H 854.905 -1.14138 3.9171 0
M  V30 8811 H 853.58 -0.0147001 4.15897 0
M  V30 8812 H 852.157 -1.65393 3.34215 0
M  V30 8813 N 854.342 -1.57594 -0.0133615 0
M  V30 8814 C 855.567 -1.94649 -0.715996 0
M  V30 8815 C 855.992 -0.860786 -1.67249 0
M  V30 8816 O 855.35 0.182228 -1.80382 0
M  V30 8817 C 855.398 -3.30789 -1.43566 0
M  V30 8818 O 854.502 -3.24148 -2.54955 0
M  V30 8819 H 853.843 -0.635801 -0.191449 0
M  V30 8820 H 856.373 -2.04569 0.0358478 0
M  V30 8821 H 856.383 -3.66045 -1.80208 0
M  V30 8822 H 855.058 -4.09367 -0.734263 0
M  V30 8823 H 853.635 -3.00548 -2.20739 0
M  V30 8824 N 855.82 0.285905 -1.54985 0
M  V30 8825 C 857.045 1.04207 -1.7932 0
M  V30 8826 C 857.47 1.79622 -0.558343 0
M  V30 8827 O 856.828 1.74506 0.491661 0
M  V30 8828 C 856.876 1.98648 -3.0095 0
M  V30 8829 O 855.98 3.07207 -2.75132 0
M  V30 8830 H 855.321 0.298596 -0.593074 0
M  V30 8831 H 857.851 0.318736 -2.02102 0
M  V30 8832 H 857.861 2.4084 -3.29333 0
M  V30 8833 H 856.536 1.43167 -3.90482 0
M  V30 8834 H 855.113 2.69423 -2.57809 0
M  V30 8835 N 857.298 1.47698 0.54982 0
M  V30 8836 C 858.208 1.63386 1.68351 0
M  V30 8837 C 859.224 0.516583 1.66155 0
M  V30 8838 O 860.4 0.785088 1.85468 0
M  V30 8839 C 857.465 1.6513 3.04849 0
M  V30 8840 C 856.526 2.88338 3.18056 0
M  V30 8841 C 855.759 2.8999 4.48042 0
M  V30 8842 O 855.982 2.00633 5.3395 0
M  V30 8843 O 854.916 3.81938 4.65196 0
M  V30 8844 H 858.742 2.59329 1.58057 0
M  V30 8845 H 856.327 1.30869 0.72067 0
M  V30 8846 H 858.209 1.68913 3.86065 0
M  V30 8847 H 856.884 0.723555 3.1551 0
M  V30 8848 H 855.791 2.90097 2.36209 0
M  V30 8849 H 857.124 3.80431 3.12302 0
M  V30 8850 N 858.776 -0.797141 1.35954 0
M  V30 8851 C 860.001 -1.59097 1.33053 0
M  V30 8852 C 860.426 -1.87897 -0.0874592 0
M  V30 8853 O 859.784 -1.47291 -1.05712 0
M  V30 8854 C 859.832 -2.89346 2.152 0
M  V30 8855 O 858.936 -3.826 1.5392 0
M  V30 8856 H 858.277 -0.482895 0.45575 0
M  V30 8857 H 860.807 -0.988633 1.79129 0
M  V30 8858 H 860.817 -3.38686 2.27499 0
M  V30 8859 H 859.492 -2.6771 3.18283 0
M  V30 8860 H 858.069 -3.41174 1.50516 0
M  V30 8861 N 860.254 -1.20106 -1.0204 0
M  V30 8862 C 861.479 -1.0351 -1.79723 0
M  V30 8863 C 861.904 0.411328 -1.83548 0
M  V30 8864 O 861.262 1.29608 -1.26773 0
M  V30 8865 C 861.31 -1.61876 -3.22224 0
M  V30 8866 O 860.414 -0.853813 -4.03465 0
M  V30 8867 H 859.755 -0.365299 -0.554484 0
M  V30 8868 H 862.285 -1.59316 -1.28373 0
M  V30 8869 H 862.295 -1.65451 -3.72948 0
M  V30 8870 H 860.97 -2.67148 -3.18755 0
M  V30 8871 H 859.547 -0.891983 -3.62075 0
M  V30 8872 N 861.732 1.21287 -1.00634 0
M  V30 8873 C 863.009 1.86 -0.605257 0
M  V30 8874 C 863.389 1.90139 0.917072 0
M  V30 8875 O 862.737 1.40169 1.80458 0
M  V30 8876 C 862.947 3.26183 -1.24119 0
M  V30 8877 C 864.295 4.02562 -1.35015 0
M  V30 8878 O 865.319 3.35499 -1.19661 0
M  V30 8879 O 864.178 5.22638 -1.59726 0
M  V30 8880 H 861.272 0.800549 -0.207486 0
M  V30 8881 H 863.818 1.28959 -1.10307 0
M  V30 8882 H 862.59 3.17878 -2.28186 0
M  V30 8883 H 862.213 3.90845 -0.729807 0
M  V30 8884 N 863.21 0.781244 1.36873 0
M  V30 8885 C 864.14 0.188128 2.32741 0
M  V30 8886 C 865.121 -0.672326 1.56249 0
M  V30 8887 O 866.306 -0.607835 1.84442 0
M  V30 8888 C 863.436 -0.684341 3.40491 0
M  V30 8889 C 862.39 0.0755641 4.27933 0
M  V30 8890 C 861.716 -0.916968 5.26779 0
M  V30 8891 C 863.016 1.26006 5.06873 0
M  V30 8892 H 864.71 0.989016 2.82593 0
M  V30 8893 H 862.256 0.477038 1.35869 0
M  V30 8894 H 864.209 -1.10915 4.06541 0
M  V30 8895 H 862.933 -1.51785 2.89187 0
M  V30 8896 H 861.592 0.481258 3.63427 0
M  V30 8897 H 861.24 -1.74528 4.71751 0
M  V30 8898 H 860.94 -0.413 5.86147 0
M  V30 8899 H 862.464 -1.34052 5.95703 0
M  V30 8900 H 863.878 0.911425 5.66009 0
M  V30 8901 H 862.275 1.69676 5.75613 0
M  V30 8902 H 863.345 2.05948 4.38991 0
M  V30 8903 N 864.689 -1.48329 0.532571 0
M  V30 8904 C 865.621 -2.27652 -0.265931 0
M  V30 8905 C 866.634 -1.35522 -0.902083 0
M  V30 8906 O 867.823 -1.60552 -0.780088 0
M  V30 8907 C 864.923 -3.0899 -1.39207 0
M  V30 8908 C 864.096 -4.28915 -0.857349 0
M  V30 8909 C 863.155 -4.92044 -1.86493 0
M  V30 8910 O 862.181 -5.51181 -1.42084 0
M  V30 8911 N 863.383 -4.84518 -3.19723 0
M  V30 8912 H 866.148 -2.96821 0.414389 0
M  V30 8913 H 863.709 -1.57684 0.367066 0
M  V30 8914 H 865.701 -3.48091 -2.06433 0
M  V30 8915 H 864.271 -2.42224 -1.97601 0
M  V30 8916 H 863.491 -3.94199 -0.00901765 0
M  V30 8917 H 864.779 -5.0654 -0.479025 0
M  V30 8918 H 864.177 -4.37628 -3.58467 0
M  V30 8919 H 862.734 -5.27712 -3.82575 0
M  V30 8920 N 866.167 -0.267825 -1.55308 0
M  V30 8921 C 867.097 0.616585 -2.25212 0
M  V30 8922 C 868.078 1.16472 -1.23969 0
M  V30 8923 O 869.263 1.20021 -1.52672 0
M  V30 8924 C 866.393 1.80412 -2.96764 0
M  V30 8925 C 865.347 1.38784 -4.04874 0
M  V30 8926 C 864.673 2.65789 -4.63961 0
M  V30 8927 C 865.973 0.543415 -5.19465 0
M  V30 8928 H 867.667 0.0336257 -2.99381 0
M  V30 8929 H 865.213 0.0147328 -1.43992 0
M  V30 8930 H 867.166 2.42866 -3.44375 0
M  V30 8931 H 865.89 2.4128 -2.20118 0
M  V30 8932 H 864.549 0.786541 -3.58063 0
M  V30 8933 H 864.197 3.24899 -3.83992 0
M  V30 8934 H 863.897 2.38651 -5.36954 0
M  V30 8935 H 865.421 3.29104 -5.14318 0
M  V30 8936 H 866.835 1.07277 -5.63174 0
M  V30 8937 H 865.232 0.367219 -5.98975 0
M  V30 8938 H 866.302 -0.439534 -4.82904 0
M  V30 8939 N 867.645 1.57599 0.00500368 0
M  V30 8940 C 868.555 2.11532 1.01446 0
M  V30 8941 C 869.571 1.05941 1.3803 0
M  V30 8942 O 870.747 1.37815 1.46864 0
M  V30 8943 C 867.812 2.60382 2.28915 0
M  V30 8944 C 866.873 3.80554 1.98689 0
M  V30 8945 C 866.106 4.27064 3.20081 0
M  V30 8946 O 866.329 3.72939 4.31593 0
M  V30 8947 O 865.263 5.1927 3.04371 0
M  V30 8948 H 869.089 2.97993 0.586011 0
M  V30 8949 H 866.674 1.47718 0.223519 0
M  V30 8950 H 868.556 2.92024 3.03809 0
M  V30 8951 H 867.231 1.77022 2.71007 0
M  V30 8952 H 866.138 3.53893 1.21286 0
M  V30 8953 H 867.471 4.64972 1.61437 0
M  V30 8954 N 869.123 -0.277682 1.55134 0
M  V30 8955 C 870.371 -1.00791 1.75173 0
M  V30 8956 C 870.692 -1.86987 0.553266 0
M  V30 8957 O 869.962 -1.91079 -0.43195 0
M  V30 8958 H 868.542 -0.375129 0.645978 0
M  V30 8959 H 871.204 -0.303041 1.9253 0
M  V30 8960 H 870.3 -1.64756 2.6507 0
M  V30 8961 N 870.601 -1.47988 -0.541979 0
M  V30 8962 C 872.012 -1.49073 -1.12402 0
M  V30 8963 C 872.363 -0.253825 -1.94551 0
M  V30 8964 O 871.488 0.640056 -2.06718 0
M  V30 8965 C 872.083 -2.7011 -2.04514 0
M  V30 8966 C 870.642 -2.74105 -2.5796 0
M  V30 8967 C 869.789 -2.42409 -1.3466 0
M  V30 8968 H 872.74 -1.55277 -0.327818 0
M  V30 8969 H 872.761 -2.47946 -2.88623 0
M  V30 8970 H 872.273 -3.60117 -1.44697 0
M  V30 8971 H 870.374 -1.88276 -3.21532 0
M  V30 8972 H 870.487 -3.75213 -2.97913 0
M  V30 8973 H 868.851 -1.9331 -1.65841 0
M  V30 8974 H 869.634 -3.34642 -0.766133 0
M  V30 8975 N 872.079 0.78992 -1.36375 0
M  V30 8976 C 873.304 1.58389 -1.33895 0
M  V30 8977 C 873.729 1.8794 0.0774934 0
M  V30 8978 O 873.087 1.4785 1.0493 0
M  V30 8979 C 873.135 2.88201 -2.16732 0
M  V30 8980 O 872.239 3.81778 -1.55946 0
M  V30 8981 H 871.58 0.480471 -0.458305 0
M  V30 8982 H 874.11 0.979119 -1.79651 0
M  V30 8983 H 874.12 3.37475 -2.29292 0
M  V30 8984 H 872.795 2.66019 -3.19698 0
M  V30 8985 H 871.372 3.40371 -1.52323 0
M  V30 8986 N 873.557 1.20646 1.01402 0
M  V30 8987 C 874.785 1.04389 1.78635 0
M  V30 8988 C 875.2 -0.406771 1.84366 0
M  V30 8989 O 874.557 -1.28239 1.2985 0
M  V30 8990 C 874.608 1.62378 3.22979 0
M  V30 8991 O 874.329 3.01768 3.17597 0
M  V30 8992 C 875.83 1.5111 4.1675 0
M  V30 8993 H 873.05 0.367077 0.56169 0
M  V30 8994 H 875.594 1.59789 1.27624 0
M  V30 8995 H 873.749 1.11092 3.7113 0
M  V30 8996 H 874.163 3.29331 4.08217 0
M  V30 8997 H 875.637 1.96441 5.15863 0
M  V30 8998 H 876.114 0.464011 4.36742 0
M  V30 8999 H 876.72 2.01599 3.74483 0
M  V30 9000 N 875.035 -1.20752 1.01276 0
M  V30 9001 C 875.965 -2.25658 0.600064 0
M  V30 9002 C 876.946 -1.65733 -0.38298 0
M  V30 9003 O 878.131 -1.92324 -0.269256 0
M  V30 9004 C 875.261 -3.47237 -0.0663197 0
M  V30 9005 C 874.215 -4.1973 0.83731 0
M  V30 9006 C 873.541 -5.34687 0.0369102 0
M  V30 9007 C 874.841 -4.76286 2.14357 0
M  V30 9008 H 876.535 -2.60432 1.477 0
M  V30 9009 H 874.081 -1.25187 0.711634 0
M  V30 9010 H 876.034 -4.19803 -0.366563 0
M  V30 9011 H 874.758 -3.11615 -0.977944 0
M  V30 9012 H 873.417 -3.49024 1.1215 0
M  V30 9013 H 873.065 -4.95309 -0.876244 0
M  V30 9014 H 872.765 -5.84119 0.63865 0
M  V30 9015 H 874.289 -6.10059 -0.256968 0
M  V30 9016 H 875.703 -5.40691 1.90595 0
M  V30 9017 H 874.1 -5.36139 2.69583 0
M  V30 9018 H 875.17 -3.9524 2.80916 0
M  V30 9019 N 876.513 -0.788492 -1.36457 0
M  V30 9020 C 877.929 -0.470063 -1.52521 0
M  V30 9021 C 878.129 1.01176 -1.74258 0
M  V30 9022 O 877.185 1.79726 -1.77355 0
M  V30 9023 C 878.498 -1.2997 -2.71161 0
M  V30 9024 C 880.046 -1.2933 -2.85031 0
M  V30 9025 C 880.521 -2.10665 -4.06674 0
M  V30 9026 N 882.012 -2.08107 -4.13819 0
M  V30 9027 C 882.747 -2.6781 -5.07016 0
M  V30 9028 N 882.243 -3.36369 -6.05663 0
M  V30 9029 N 884.036 -2.57549 -4.99625 0
M  V30 9030 H 876.187 -1.7484 -1.20602 0
M  V30 9031 H 878.45 -0.743159 -0.588574 0
M  V30 9032 H 878.156 -2.35051 -2.61618 0
M  V30 9033 H 878.03 -0.940367 -3.6529 0
M  V30 9034 H 880.417 -0.250414 -2.94036 0
M  V30 9035 H 880.498 -1.69239 -1.91812 0
M  V30 9036 H 880.142 -3.14984 -3.98431 0
M  V30 9037 H 880.072 -1.68128 -4.9904 0
M  V30 9038 H 882.563 -1.58208 -3.43189 0
M  V30 9039 H 882.876 -3.79258 -6.73338 0
M  V30 9040 H 881.221 -3.40471 -6.05891 0
M  V30 9041 H 884.412 -2.0359 -4.21508 0
M  V30 9042 H 884.585 -3.0437 -5.72069 0
M  V30 9043 N 877.991 1.48044 -0.54043 0
M  V30 9044 C 879.237 2.02797 -0.0101718 0
M  V30 9045 C 879.57 1.41565 1.32939 0
M  V30 9046 O 878.845 0.565139 1.86109 0
M  V30 9047 C 879.128 3.59959 0.100758 0
M  V30 9048 C 878.981 4.31654 -1.26471 0
M  V30 9049 C 880.3 4.32347 0.822455 0
M  V30 9050 H 877.419 0.736982 -0.00517052 0
M  V30 9051 H 880.061 1.76656 -0.69948 0
M  V30 9052 H 878.211 3.82363 0.687824 0
M  V30 9053 H 879.883 4.20639 -1.89369 0
M  V30 9054 H 878.126 3.92663 -1.84386 0
M  V30 9055 H 878.797 5.401 -1.13998 0
M  V30 9056 H 881.273 4.14835 0.324164 0
M  V30 9057 H 880.149 5.41978 0.868993 0
M  V30 9058 H 880.41 4.00369 1.87501 0
M  V30 9059 N 879.47 0.276058 1.55163 0
M  V30 9060 C 880.4 -0.604633 2.25536 0
M  V30 9061 C 881.381 -1.15813 1.24585 0
M  V30 9062 O 882.566 -1.1921 1.53306 0
M  V30 9063 C 879.696 -1.78836 2.97716 0
M  V30 9064 C 878.65 -1.36635 4.05604 0
M  V30 9065 C 877.976 -2.63325 4.65364 0
M  V30 9066 C 879.276 -0.515858 5.19746 0
M  V30 9067 H 880.97 -0.0177483 2.99395 0
M  V30 9068 H 878.516 -0.00709627 1.43998 0
M  V30 9069 H 880.469 -2.41036 3.45658 0
M  V30 9070 H 879.193 -2.40109 2.21394 0
M  V30 9071 H 877.852 -0.767541 3.58475 0
M  V30 9072 H 877.5 -3.22858 3.85709 0
M  V30 9073 H 877.2 -2.358 5.38212 0
M  V30 9074 H 878.724 -3.26372 5.16056 0
M  V30 9075 H 880.138 -1.04289 5.63735 0
M  V30 9076 H 878.535 -0.335449 5.99162 0
M  V30 9077 H 879.605 0.465137 4.82664 0
M  V30 9078 N 880.948 -1.576 0.00335426 0
M  V30 9079 C 882.225 -1.81945 -0.718015 0
M  V30 9080 C 882.605 -0.881788 -1.91801 0
M  V30 9081 O 881.953 0.0687118 -2.28397 0
M  V30 9082 C 882.163 -3.30521 -1.12058 0
M  V30 9083 C 883.511 -3.96345 -1.52303 0
M  V30 9084 O 884.535 -3.34864 -1.21428 0
M  V30 9085 O 883.394 -5.04655 -2.09728 0
M  V30 9086 H 880.488 -0.749328 -0.34991 0
M  V30 9087 H 883.034 -1.69675 0.0290654 0
M  V30 9088 H 881.806 -3.90399 -0.265378 0
M  V30 9089 H 881.429 -3.47802 -1.92665 0
M  V30 9090 N 882.426 0.269451 -1.5528 0
M  V30 9091 C 883.336 1.35511 -1.91505 0
M  V30 9092 C 884.352 1.53854 -0.812712 0
M  V30 9093 O 885.528 1.67912 -1.1121 0
M  V30 9094 C 882.593 2.6937 -2.18267 0
M  V30 9095 C 881.654 2.59743 -3.41807 0
M  V30 9096 C 880.887 3.87219 -3.67283 0
M  V30 9097 O 881.11 4.88066 -2.95208 0
M  V30 9098 O 880.044 3.87209 -4.60818 0
M  V30 9099 H 883.87 1.07785 -2.8393 0
M  V30 9100 H 881.455 0.468282 -1.41871 0
M  V30 9101 H 883.337 3.48513 -2.36889 0
M  V30 9102 H 882.012 2.96874 -1.29024 0
M  V30 9103 H 880.919 1.78964 -3.28516 0
M  V30 9104 H 882.252 2.37188 -4.3128 0
M  V30 9105 N 883.904 1.48273 0.534124 0
M  V30 9106 C 884.852 1.62926 1.66005 0
M  V30 9107 C 885.846 0.495814 1.61982 0
M  V30 9108 O 887.052 0.6744 1.66889 0
M  V30 9109 H 883.427 0.513163 0.549698 0
M  V30 9110 H 885.398 2.57498 1.50789 0
M  V30 9111 C 884.147 1.68231 3.04292 0
M  V30 9112 H 883.47 2.54807 3.0808 0
M  V30 9113 H 884.91 1.82528 3.827 0
M  V30 9114 C 883.369 0.420154 3.3427 0
M  V30 9115 O 883.899 -0.468769 3.98955 0
M  V30 9116 N 882.105 0.293115 2.89118 0
M  V30 9117 H 881.652 1.01745 2.36655 0
M  V30 9118 H 881.61 -0.550376 3.09545 0
M  V30 9119 N 885.382 -0.782676 1.36792 0
M  V30 9120 C 886.312 -1.90973 1.34356 0
M  V30 9121 C 887.293 -1.6875 0.213917 0
M  V30 9122 O 888.478 -1.89766 0.412601 0
M  V30 9123 C 885.608 -3.28097 1.13884 0
M  V30 9124 C 884.562 -3.6486 2.23744 0
M  V30 9125 C 883.888 -5.00406 1.88408 0
M  V30 9126 C 885.188 -3.72742 3.6587 0
M  V30 9127 H 886.882 -1.93268 2.28665 0
M  V30 9128 H 884.428 -0.928447 1.10072 0
M  V30 9129 H 886.381 -4.06569 1.10813 0
M  V30 9130 H 885.105 -3.26206 0.160275 0
M  V30 9131 H 883.764 -2.88689 2.25952 0
M  V30 9132 H 883.412 -4.95044 0.891083 0
M  V30 9133 H 883.112 -5.25973 2.61966 0
M  V30 9134 H 884.636 -5.81291 1.86905 0
M  V30 9135 H 886.05 -4.4139 3.65852 0
M  V30 9136 H 884.447 -4.09798 4.38389 0
M  V30 9137 H 885.517 -2.73676 4.00287 0
M  V30 9138 N 886.86 -1.21182 -1.00761 0
M  V30 9139 C 887.823 -0.970339 -2.07646 0
M  V30 9140 C 888.823 0.0576345 -1.60697 0
M  V30 9141 O 890.013 -0.179369 -1.73274 0
M  V30 9142 C 887.145 -0.462703 -3.37745 0
M  V30 9143 H 888.338 -1.91856 -2.30502 0
M  V30 9144 H 885.891 -1.02844 -1.17698 0
M  V30 9145 H 886.626 0.490559 -3.20568 0
M  V30 9146 H 886.411 -1.20416 -3.73152 0
M  V30 9147 H 887.901 -0.313531 -4.16421 0
M  V30 9148 N 888.338 1.20213 -1.01915 0
M  V30 9149 C 889.615 1.85348 -0.62495 0
M  V30 9150 C 889.995 1.91101 0.896854 0
M  V30 9151 O 889.343 1.42075 1.78961 0
M  V30 9152 C 889.553 3.24849 -1.27571 0
M  V30 9153 C 890.901 4.01107 -1.39277 0
M  V30 9154 O 891.925 3.34211 -1.23212 0
M  V30 9155 O 890.784 5.20914 -1.6526 0
M  V30 9156 H 887.878 0.798303 -0.215965 0
M  V30 9157 H 890.424 1.27782 -1.11669 0
M  V30 9158 H 889.196 3.1544 -2.31545 0
M  V30 9159 H 888.819 3.90049 -0.77122 0
M  V30 9160 N 889.816 0.795718 1.36037 0
M  V30 9161 C 891.227 0.433379 1.816 0
M  V30 9162 C 891.578 -1.04341 1.66155 0
M  V30 9163 O 890.703 -1.81004 1.18603 0
M  V30 9164 C 891.298 0.77985 3.29703 0
M  V30 9165 C 889.857 0.470256 3.73451 0
M  V30 9166 C 889.004 1.01119 2.58206 0
M  V30 9167 H 891.955 0.988317 1.24169 0
M  V30 9168 H 891.976 0.0732898 3.80429 0
M  V30 9169 H 891.488 1.85473 3.40913 0
M  V30 9170 H 889.589 -0.596332 3.67797 0
M  V30 9171 H 889.702 0.995276 4.68648 0
M  V30 9172 H 888.066 0.434077 2.50974 0
M  V30 9173 H 888.849 2.09196 2.72198 0
M  V30 9174 N 891.294 -1.47756 0.548274 0
M  V30 9175 C 892.226 -2.27921 -0.24177 0
M  V30 9176 C 893.239 -1.36471 -0.887658 0
M  V30 9177 O 894.428 -1.6137 -0.763016 0
M  V30 9178 C 891.528 -3.10449 -1.35922 0
M  V30 9179 C 890.701 -4.298 -0.811808 0
M  V30 9180 C 889.76 -4.93994 -1.81264 0
M  V30 9181 O 888.786 -5.52657 -1.3623 0
M  V30 9182 N 889.988 -4.87882 -3.14566 0
M  V30 9183 H 892.753 -2.96365 0.445848 0
M  V30 9184 H 890.314 -1.57286 0.383769 0
M  V30 9185 H 892.306 -3.50261 -2.02729 0
M  V30 9186 H 890.876 -2.44306 -1.95021 0
M  V30 9187 H 890.096 -3.94186 0.0327929 0
M  V30 9188 H 891.384 -5.0702 -0.425272 0
M  V30 9189 H 890.782 -4.41405 -3.53805 0
M  V30 9190 H 889.339 -5.3174 -3.76956 0
M  V30 9191 N 892.772 -0.284283 -1.55015 0
M  V30 9192 C 893.735 0.586182 -2.21577 0
M  V30 9193 C 894.735 1.07427 -1.1965 0
M  V30 9194 O 895.925 0.972977 -1.44495 0
M  V30 9195 C 893.057 1.80973 -2.88897 0
M  V30 9196 H 894.25 0.00487253 -2.999 0
M  V30 9197 H 891.803 -0.0349696 -1.56261 0
M  V30 9198 H 892.538 2.43131 -2.14611 0
M  V30 9199 H 892.323 1.46757 -3.636 0
M  V30 9200 H 893.813 2.42853 -3.39724 0
M  V30 9201 N 894.251 1.57596 -0.0117121 0
M  V30 9202 C 895.161 2.12596 0.991964 0
M  V30 9203 C 896.177 1.07399 1.36899 0
M  V30 9204 O 897.353 1.39365 1.45394 0
M  V30 9205 C 894.418 2.62796 2.2614 0
M  V30 9206 C 893.479 3.8264 1.94642 0
M  V30 9207 C 892.712 4.30435 3.15533 0
M  V30 9208 O 892.935 3.77495 4.27614 0
M  V30 9209 O 891.869 5.22469 2.98847 0
M  V30 9210 H 895.695 2.98597 0.554371 0
M  V30 9211 H 893.28 1.47947 0.207839 0
M  V30 9212 H 895.162 2.9523 3.00695 0
M  V30 9213 H 893.837 1.79886 2.69114 0
M  V30 9214 H 892.744 3.5516 1.17526 0
M  V30 9215 H 894.077 4.66658 1.56496 0
M  V30 9216 N 895.729 -0.261212 1.5542 0
M  V30 9217 C 897.006 -1.01321 1.67312 0
M  V30 9218 C 897.386 -2.0388 0.547356 0
M  V30 9219 O 896.734 -2.24003 -0.451083 0
M  V30 9220 C 896.944 -1.65943 3.07024 0
M  V30 9221 C 898.292 -2.16666 3.65159 0
M  V30 9222 O 899.316 -1.75909 3.09733 0
M  V30 9223 O 898.175 -2.91455 4.62294 0
M  V30 9224 H 895.269 -0.470714 0.679968 0
M  V30 9225 H 897.815 -0.256133 1.67756 0
M  V30 9226 H 896.587 -0.916868 3.80407 0
M  V30 9227 H 896.21 -2.48308 3.1053 0
M  V30 9228 N 897.207 -1.48554 -0.526253 0
M  V30 9229 C 898.623 -1.34757 -0.855138 0
M  V30 9230 C 898.823 -0.36142 -1.98232 0
M  V30 9231 O 897.879 0.216026 -2.51574 0
M  V30 9232 C 899.192 -2.74877 -1.21915 0
M  V30 9233 C 900.74 -2.83393 -1.32882 0
M  V30 9234 C 901.215 -4.24223 -1.72624 0
M  V30 9235 N 902.706 -4.26913 -1.7972 0
M  V30 9236 C 903.441 -5.32824 -2.11863 0
M  V30 9237 N 902.937 -6.49008 -2.42405 0
M  V30 9238 N 904.73 -5.20221 -2.12901 0
M  V30 9239 H 896.881 -2.11284 0.217422 0
M  V30 9240 H 899.144 -0.947367 0.0346362 0
M  V30 9241 H 898.85 -3.48619 -0.464486 0
M  V30 9242 H 898.724 -3.0864 -2.16844 0
M  V30 9243 H 901.111 -2.09904 -2.07424 0
M  V30 9244 H 901.192 -2.53245 -0.360638 0
M  V30 9245 H 900.836 -4.98229 -0.986411 0
M  V30 9246 H 900.766 -4.51817 -2.70498 0
M  V30 9247 H 903.257 -3.4311 -1.58379 0
M  V30 9248 H 903.57 -7.25561 -2.66048 0
M  V30 9249 H 901.915 -6.52277 -2.39917 0
M  V30 9250 H 905.106 -4.28469 -1.885 0
M  V30 9251 H 905.279 -6.02861 -2.37619 0
M  V30 9252 N 898.685 0.775411 -1.37205 0
M  V30 9253 C 900.096 1.35147 -1.28811 0
M  V30 9254 C 900.447 1.96089 0.0659168 0
M  V30 9255 O 899.572 1.93558 0.967684 0
M  V30 9256 C 900.167 2.45715 -2.33258 0
M  V30 9257 C 898.726 2.99099 -2.2851 0
M  V30 9258 C 897.873 1.72286 -2.17285 0
M  V30 9259 H 900.824 0.575954 -1.4788 0
M  V30 9260 H 900.845 3.251 -1.97712 0
M  V30 9261 H 900.357 2.01331 -3.31795 0
M  V30 9262 H 898.458 3.47868 -1.33485 0
M  V30 9263 H 898.571 3.54962 -3.21774 0
M  V30 9264 H 896.935 1.95068 -1.6377 0
M  V30 9265 H 897.718 1.3001 -3.1773 0
M  V30 9266 N 900.163 1.21714 1.00117 0
M  V30 9267 C 901.093 1.00397 2.10815 0
M  V30 9268 C 902.074 -0.0723502 1.69946 0
M  V30 9269 O 903.259 0.0882398 1.93999 0
M  V30 9270 C 900.389 0.572001 3.42557 0
M  V30 9271 C 899.343 1.59331 3.97237 0
M  V30 9272 C 898.669 1.01746 5.2493 0
M  V30 9273 C 899.969 2.98117 4.28863 0
M  V30 9274 H 901.663 1.92983 2.28906 0
M  V30 9275 H 899.209 0.929273 1.10002 0
M  V30 9276 H 901.162 0.410018 4.19401 0
M  V30 9277 H 899.886 -0.38951 3.24269 0
M  V30 9278 H 898.545 1.74293 3.22518 0
M  V30 9279 H 898.193 0.0475491 5.02978 0
M  V30 9280 H 897.893 1.69969 5.62481 0
M  V30 9281 H 899.417 0.866881 6.04415 0
M  V30 9282 H 900.831 2.86578 4.96534 0
M  V30 9283 H 899.228 3.63389 4.77565 0
M  V30 9284 H 900.298 3.48674 3.36979 0
M  V30 9285 N 901.641 -1.19671 1.02551 0
M  V30 9286 C 902.887 -1.89548 0.721069 0
M  V30 9287 C 903.22 -1.79209 -0.748176 0
M  V30 9288 O 902.495 -1.1822 -1.54448 0
M  V30 9289 C 902.778 -3.4061 1.16861 0
M  V30 9290 C 902.631 -3.59838 2.69883 0
M  V30 9291 C 903.95 -4.33718 0.746782 0
M  V30 9292 H 901.069 -0.688315 0.263422 0
M  V30 9293 H 903.711 -1.40883 1.27483 0
M  V30 9294 H 901.861 -3.82188 0.697477 0
M  V30 9295 H 903.533 -3.27454 3.24917 0
M  V30 9296 H 901.776 -3.03005 3.10435 0
M  V30 9297 H 902.447 -4.65766 2.96253 0
M  V30 9298 H 904.923 -3.99837 1.15195 0
M  V30 9299 H 903.799 -5.38012 1.08786 0
M  V30 9300 H 904.06 -4.40704 -0.351057 0
M  V30 9301 N 903.119 -0.802921 -1.35613 0
M  V30 9302 C 904.366 -0.381576 -1.98872 0
M  V30 9303 C 904.694 1.0503 -1.63704 0
M  V30 9304 O 903.949 1.7427 -0.890418 0
M  V30 9305 C 904.248 -0.507806 -3.53774 0
M  V30 9306 C 903.914 -1.90245 -4.088 0
M  V30 9307 C 902.576 -2.28401 -4.2354 0
M  V30 9308 C 904.928 -2.81504 -4.3864 0
M  V30 9309 C 902.256 -3.57192 -4.65436 0
M  V30 9310 C 904.608 -4.09737 -4.81973 0
M  V30 9311 C 903.272 -4.47897 -4.94919 0
M  V30 9312 H 902.542 -0.139629 -0.727726 0
M  V30 9313 H 905.189 -1.023 -1.61886 0
M  V30 9314 H 903.494 0.21708 -3.91198 0
M  V30 9315 H 905.191 -0.162625 -4.0067 0
M  V30 9316 H 901.781 -1.596 -3.97776 0
M  V30 9317 H 905.965 -2.53276 -4.26808 0
M  V30 9318 H 901.221 -3.86611 -4.73648 0
M  V30 9319 H 905.395 -4.80555 -5.04024 0
M  V30 9320 H 903.022 -5.47747 -5.27141 0
M  V30 9321 N 904.597 1.47463 -0.556102 0
M  V30 9322 C 905.844 2.02475 -0.0316337 0
M  V30 9323 C 906.172 1.43057 1.31777 0
M  V30 9324 O 905.427 0.575376 1.87051 0
M  V30 9325 C 905.726 3.57224 0.112126 0
M  V30 9326 C 905.392 4.35557 -1.16624 0
M  V30 9327 C 904.054 4.56678 -1.51654 0
M  V30 9328 C 906.406 4.8074 -2.01342 0
M  V30 9329 C 903.734 5.20231 -2.7125 0
M  V30 9330 C 906.086 5.45613 -3.2014 0
M  V30 9331 C 904.75 5.64967 -3.55484 0
M  V30 9332 H 904.02 0.74091 -0.0115756 0
M  V30 9333 H 906.667 1.77148 -0.727392 0
M  V30 9334 H 904.972 3.81538 0.890842 0
M  V30 9335 H 906.669 3.97438 0.533261 0
M  V30 9336 H 903.259 4.19395 -0.883489 0
M  V30 9337 H 907.443 4.64201 -1.75587 0
M  V30 9338 H 902.699 5.3341 -2.98804 0
M  V30 9339 H 906.873 5.79587 -3.86073 0
M  V30 9340 H 904.5 6.13984 -4.4825 0
M  V30 9341 N 906.075 0.2925 1.54862 0
M  V30 9342 C 907.352 -0.371946 1.92031 0
M  V30 9343 C 907.732 -1.72363 1.21878 0
M  V30 9344 O 907.08 -2.25779 0.351573 0
M  V30 9345 C 907.29 -0.495027 3.45471 0
M  V30 9346 C 908.638 -0.769855 4.17562 0
M  V30 9347 O 909.662 -0.579168 3.5146 0
M  V30 9348 O 908.521 -1.13561 5.34571 0
M  V30 9349 H 905.615 -0.206463 0.800813 0
M  V30 9350 H 908.161 0.339933 1.6626 0
M  V30 9351 H 906.933 0.455528 3.88639 0
M  V30 9352 H 906.556 -1.2557 3.7725 0
M  V30 9353 N 907.553 -1.57587 0.0200696 0
M  V30 9354 C 908.483 -2.12702 -0.963333 0
M  V30 9355 C 909.464 -1.04094 -1.34531 0
M  V30 9356 O 910.649 -1.31881 -1.42552 0
M  V30 9357 C 907.779 -2.64673 -2.24868 0
M  V30 9358 C 906.733 -3.77987 -2.00772 0
M  V30 9359 C 906.059 -4.16351 -3.35494 0
M  V30 9360 C 907.359 -5.0444 -1.35416 0
M  V30 9361 H 909.053 -2.95121 -0.504363 0
M  V30 9362 H 906.599 -1.41966 -0.24116 0
M  V30 9363 H 908.552 -3.01862 -2.94036 0
M  V30 9364 H 907.276 -1.79403 -2.72914 0
M  V30 9365 H 905.935 -3.41223 -1.34025 0
M  V30 9366 H 905.583 -3.28075 -3.81282 0
M  V30 9367 H 905.283 -4.92705 -3.20181 0
M  V30 9368 H 906.807 -4.56115 -4.05945 0
M  V30 9369 H 908.221 -5.39273 -1.94571 0
M  V30 9370 H 906.618 -5.85732 -1.30529 0
M  V30 9371 H 907.688 -4.83803 -0.325923 0
M  V30 9372 N 909.032 0.252966 -1.55557 0
M  V30 9373 C 909.979 1.3131 -1.89806 0
M  V30 9374 C 910.949 1.48121 -0.751633 0
M  V30 9375 O 912.134 1.62202 -1.00474 0
M  V30 9376 C 909.274 2.66467 -2.19293 0
M  V30 9377 C 908.387 2.57714 -3.46709 0
M  V30 9378 C 907.522 3.85184 -3.65796 0
M  V30 9379 C 906.561 3.71023 -4.86835 0
M  V30 9380 N 905.698 4.90371 -5.02474 0
M  V30 9381 H 910.538 1.01402 -2.80217 0
M  V30 9382 H 908.075 0.489462 -1.38718 0
M  V30 9383 H 910.033 3.45132 -2.34392 0
M  V30 9384 H 908.663 2.94536 -1.32093 0
M  V30 9385 H 907.715 1.70651 -3.39974 0
M  V30 9386 H 909.027 2.43158 -4.35517 0
M  V30 9387 H 908.181 4.72292 -3.80822 0
M  V30 9388 H 906.92 4.0263 -2.7521 0
M  V30 9389 H 905.925 2.82299 -4.71792 0
M  V30 9390 H 907.15 3.55078 -5.78875 0
M  V30 9391 H 905.096 5.0819 -4.14824 0
M  V30 9392 H 905.013 4.78423 -5.85361 0
M  V30 9393 H 906.281 5.78995 -5.21905 0
M  V30 9394 N 910.51 1.48831 0.518367 0
M  V30 9395 C 911.759 1.5669 1.27008 0
M  V30 9396 C 912.072 0.250934 1.93984 0
M  V30 9397 O 913.278 0.207884 2.70703 0
M  V30 9398 C 911.734 2.76387 2.30517 0
M  V30 9399 C 911.342 4.14673 1.69559 0
M  V30 9400 C 913.086 2.93566 3.06625 0
M  V30 9401 C 910.993 5.25616 2.71076 0
M  V30 9402 H 909.923 0.583362 0.477708 0
M  V30 9403 H 912.574 1.75187 0.546052 0
M  V30 9404 H 910.956 2.51348 3.06006 0
M  V30 9405 H 912.13 4.49779 1.00179 0
M  V30 9406 H 910.445 4.02708 1.05902 0
M  V30 9407 H 913.042 3.7362 3.82508 0
M  V30 9408 H 913.385 2.03462 3.63193 0
M  V30 9409 H 913.918 3.18562 2.38251 0
M  V30 9410 H 910.657 6.17723 2.19313 0
M  V30 9411 H 910.177 4.94985 3.38748 0
M  V30 9412 H 911.856 5.5422 3.3384 0
M  V30 9413 N 911.988 -0.768124 1.37614 0
M  V30 9414 C 913.265 -1.51637 1.23554 0
M  V30 9415 C 913.645 -2.1042 -0.169331 0
M  V30 9416 O 912.993 -1.95834 -1.17735 0
M  V30 9417 C 913.203 -2.59436 2.33439 0
M  V30 9418 C 914.551 -3.2674 2.71157 0
M  V30 9419 O 915.575 -2.69733 2.32642 0
M  V30 9420 O 914.434 -4.29814 3.37524 0
M  V30 9421 H 911.528 -0.671778 0.482332 0
M  V30 9422 H 914.074 -0.804779 1.49403 0
M  V30 9423 H 912.846 -2.14146 3.27502 0
M  V30 9424 H 912.469 -3.38192 2.09073 0
M  V30 9425 N 913.466 -1.22244 -0.994698 0
M  V30 9426 C 914.414 -0.988118 -2.10568 0
M  V30 9427 C 915.408 0.0681541 -1.69263 0
M  V30 9428 O 916.614 -0.0841311 -1.79803 0
M  V30 9429 H 912.989 -0.302343 -0.688544 0
M  V30 9430 H 914.96 -1.93091 -2.27505 0
M  V30 9431 C 913.709 -0.580557 -3.42819 0
M  V30 9432 H 913.032 -1.385 -3.75044 0
M  V30 9433 H 914.472 -0.456004 -4.21541 0
M  V30 9434 C 912.931 0.709692 -3.2934 0
M  V30 9435 O 913.461 1.76259 -3.60965 0
M  V30 9436 N 911.667 0.680155 -2.82528 0
M  V30 9437 H 911.214 -0.176977 -2.56991 0
M  V30 9438 H 911.172 1.54372 -2.73892 0
M  V30 9439 N 914.944 1.19125 -1.03184 0
M  V30 9440 C 915.854 2.26112 -0.625329 0
M  V30 9441 C 916.87 1.7056 0.344298 0
M  V30 9442 O 918.046 2.0039 0.20144 0
M  V30 9443 C 915.111 3.46697 0.0145169 0
M  V30 9444 C 914.172 4.17419 -1.00299 0
M  V30 9445 C 913.405 5.32247 -0.393581 0
M  V30 9446 O 913.628 5.64724 0.802659 0
M  V30 9447 O 912.562 5.91428 -1.1179 0
M  V30 9448 H 916.388 2.63131 -1.51643 0
M  V30 9449 H 913.973 1.26036 -0.802197 0
M  V30 9450 H 915.855 4.19762 0.371139 0
M  V30 9451 H 914.53 3.11521 0.879581 0
M  V30 9452 H 913.437 3.4646 -1.41125 0
M  V30 9453 H 914.77 4.56573 -1.83852 0
M  V30 9454 N 916.422 0.810101 1.35185 0
M  V30 9455 C 917.65 0.404696 2.02903 0
M  V30 9456 C 918.065 -0.985434 1.61042 0
M  V30 9457 O 917.422 -1.63557 0.809658 0
M  V30 9458 C 917.473 0.482493 3.58266 0
M  V30 9459 O 917.194 1.81782 3.98606 0
M  V30 9460 C 918.695 0.070345 4.43244 0
M  V30 9461 H 915.915 0.163972 0.650657 0
M  V30 9462 H 918.459 1.0947 1.72733 0
M  V30 9463 H 916.614 -0.159296 3.87072 0
M  V30 9464 H 917.028 1.78306 4.93262 0
M  V30 9465 H 918.502 0.175888 5.5172 0
M  V30 9466 H 918.979 -0.984724 4.28018 0
M  V30 9467 H 919.585 0.685427 4.1974 0
M  V30 9468 N 917.9 -1.47166 0.563914 0
M  V30 9469 C 918.832 -2.28165 -0.217583 0
M  V30 9470 C 919.845 -1.37405 -0.873134 0
M  V30 9471 O 921.034 -1.6217 -0.745857 0
M  V30 9472 C 918.134 -3.11873 -1.32621 0
M  V30 9473 C 917.307 -4.30637 -0.766177 0
M  V30 9474 C 916.366 -4.95889 -1.76014 0
M  V30 9475 O 915.392 -5.54071 -1.3036 0
M  V30 9476 N 916.594 -4.91191 -3.09373 0
M  V30 9477 H 919.359 -2.95876 0.477256 0
M  V30 9478 H 916.92 -1.5687 0.40043 0
M  V30 9479 H 918.912 -3.52392 -1.99003 0
M  V30 9480 H 917.482 -2.46361 -1.92419 0
M  V30 9481 H 916.702 -3.94129 0.0745998 0
M  V30 9482 H 917.99 -5.07442 -0.371472 0
M  V30 9483 H 917.388 -4.45133 -3.49104 0
M  V30 9484 H 915.945 -5.35708 -3.71295 0
M  V30 9485 N 919.378 -0.300708 -1.54705 0
M  V30 9486 C 920.325 0.57552 -2.23509 0
M  V30 9487 C 921.295 1.12979 -1.21758 0
M  V30 9488 O 922.48 1.17437 -1.50377 0
M  V30 9489 C 919.62 1.74167 -2.97926 0
M  V30 9490 C 918.733 1.21882 -4.1445 0
M  V30 9491 C 917.868 2.34881 -4.7645 0
M  V30 9492 C 916.907 1.79729 -5.85119 0
M  V30 9493 N 916.044 2.863 -6.41075 0
M  V30 9494 H 920.884 -0.0178257 -2.97995 0
M  V30 9495 H 918.421 -0.0205666 -1.47086 0
M  V30 9496 H 920.379 2.42753 -3.39303 0
M  V30 9497 H 919.009 2.30665 -2.25817 0
M  V30 9498 H 918.061 0.425227 -3.78016 0
M  V30 9499 H 919.373 0.775065 -4.92741 0
M  V30 9500 H 918.527 3.11415 -5.20678 0
M  V30 9501 H 917.266 2.82584 -3.97489 0
M  V30 9502 H 916.271 1.01684 -5.40315 0
M  V30 9503 H 917.496 1.32931 -6.65963 0
M  V30 9504 H 915.442 3.33337 -5.64998 0
M  V30 9505 H 915.359 2.46419 -7.14712 0
M  V30 9506 H 916.627 3.62732 -6.89961 0
M  V30 9507 N 920.856 1.57574 -0.0284266 0
M  V30 9508 C 922.105 1.9095 0.649704 0
M  V30 9509 C 922.418 0.906421 1.7333 0
M  V30 9510 O 923.624 1.1314 2.46803 0
M  V30 9511 C 922.08 3.39061 1.20687 0
M  V30 9512 C 921.688 4.47726 0.156597 0
M  V30 9513 C 923.432 3.81505 1.86156 0
M  V30 9514 C 921.339 5.86935 0.725365 0
M  V30 9515 H 920.269 0.712589 0.24644 0
M  V30 9516 H 922.92 1.83261 -0.0936143 0
M  V30 9517 H 921.302 3.41679 2.00178 0
M  V30 9518 H 922.476 4.56667 -0.6158 0
M  V30 9519 H 920.791 4.14481 -0.399288 0
M  V30 9520 H 923.388 4.82865 2.29665 0
M  V30 9521 H 923.731 3.16529 2.70398 0
M  V30 9522 H 924.264 3.81307 1.13356 0
M  V30 9523 H 921.003 6.55453 -0.0789081 0
M  V30 9524 H 920.523 5.81602 1.46627 0
M  V30 9525 H 922.202 6.35483 1.21532 0
M  V30 9526 N 922.334 -0.244713 1.55689 0
M  V30 9527 C 923.559 -0.994157 1.8202 0
M  V30 9528 C 923.984 -1.78079 0.60577 0
M  V30 9529 O 923.342 -1.75748 -0.445221 0
M  V30 9530 C 923.39 -1.90599 3.06111 0
M  V30 9531 O 922.494 -2.99804 2.8318 0
M  V30 9532 H 921.835 -0.282767 0.600782 0
M  V30 9533 H 924.365 -0.26504 2.02876 0
M  V30 9534 H 924.375 -2.32023 3.35603 0
M  V30 9535 H 923.05 -1.32763 3.9414 0
M  V30 9536 H 921.627 -2.62493 2.64862 0
M  V30 9537 N 923.813 -1.49104 -0.510467 0
M  V30 9538 C 924.745 -1.61183 -1.6295 0
M  V30 9539 C 925.758 -0.495003 -1.55092 0
M  V30 9540 O 926.947 -0.766671 -1.61197 0
M  V30 9541 C 924.047 -1.54373 -3.01699 0
M  V30 9542 C 923.22 -2.81428 -3.34838 0
M  V30 9543 C 922.279 -2.67802 -4.52956 0
M  V30 9544 O 921.305 -3.41723 -4.55208 0
M  V30 9545 N 922.507 -1.78715 -5.52305 0
M  V30 9546 H 925.272 -2.57693 -1.53018 0
M  V30 9547 H 922.833 -1.46073 -0.698152 0
M  V30 9548 H 924.825 -1.42924 -3.78622 0
M  V30 9549 H 923.395 -0.657597 -3.05605 0
M  V30 9550 H 922.615 -3.07299 -2.46903 0
M  V30 9551 H 923.903 -3.6568 -3.53773 0
M  V30 9552 H 923.301 -1.17897 -5.53278 0
M  V30 9553 H 921.858 -1.73194 -6.28369 0
M  V30 9554 N 925.291 0.760815 -1.38019 0
M  V30 9555 C 926.221 1.88811 -1.37377 0
M  V30 9556 C 927.202 1.68388 -0.240737 0
M  V30 9557 O 928.387 1.89086 -0.442739 0
M  V30 9558 C 925.517 3.26244 -1.1909 0
M  V30 9559 C 924.471 3.61254 -2.29521 0
M  V30 9560 C 923.797 4.97346 -1.96345 0
M  V30 9561 C 925.097 3.66874 -3.71753 0
M  V30 9562 H 926.791 1.89606 -2.31711 0
M  V30 9563 H 924.337 0.910818 -1.11535 0
M  V30 9564 H 926.29 4.04755 -1.17267 0
M  V30 9565 H 925.014 3.2591 -0.212152 0
M  V30 9566 H 923.673 2.85057 -2.30517 0
M  V30 9567 H 923.321 4.93564 -0.969728 0
M  V30 9568 H 923.021 5.21739 -2.703 0
M  V30 9569 H 924.545 5.78244 -1.96129 0
M  V30 9570 H 925.959 4.35514 -3.72828 0
M  V30 9571 H 924.356 4.02772 -4.44853 0
M  V30 9572 H 925.426 2.67273 -4.0459 0
M  V30 9573 N 926.769 1.22769 0.988202 0
M  V30 9574 C 927.732 1.00325 2.06076 0
M  V30 9575 C 928.732 -0.0320618 1.60768 0
M  V30 9576 O 929.922 0.206912 1.72967 0
M  V30 9577 C 927.054 0.516376 3.36966 0
M  V30 9578 H 928.247 1.95499 2.27421 0
M  V30 9579 H 925.8 1.04704 1.16047 0
M  V30 9580 H 926.535 -0.439498 3.21308 0
M  V30 9581 H 926.32 1.26337 3.71189 0
M  V30 9582 H 927.81 0.37974 4.1587 0
M  V30 9583 N 928.247 -1.18576 1.03814 0
M  V30 9584 C 929.21 -2.2033 0.63146 0
M  V30 9585 C 930.21 -1.57787 -0.309816 0
M  V30 9586 O 931.4 -1.73938 -0.0955598 0
M  V30 9587 C 928.532 -3.40818 -0.0745963 0
M  V30 9588 H 929.725 -2.57824 1.53189 0
M  V30 9589 H 927.278 -1.32416 0.830398 0
M  V30 9590 H 928.013 -3.08853 -0.988947 0
M  V30 9591 H 927.798 -3.87453 0.6019 0
M  V30 9592 H 929.288 -4.16166 -0.345727 0
M  V30 9593 N 929.725 -0.817259 -1.34754 0
M  V30 9594 C 930.971 -0.403244 -1.98751 0
M  V30 9595 C 931.304 1.02963 -1.64658 0
M  V30 9596 O 930.579 1.71617 -0.915314 0
M  V30 9597 C 930.862 -0.599188 -3.5508 0
M  V30 9598 C 930.715 -2.07777 -3.98934 0
M  V30 9599 C 932.034 -0.0315656 -4.40089 0
M  V30 9600 H 929.153 -0.147988 -0.721989 0
M  V30 9601 H 931.795 -1.02877 -1.59738 0
M  V30 9602 H 929.945 -0.0667116 -3.88443 0
M  V30 9603 H 931.617 -2.67345 -3.75931 0
M  V30 9604 H 929.86 -2.57031 -3.49453 0
M  V30 9605 H 930.531 -2.16571 -5.07741 0
M  V30 9606 H 933.007 -0.48644 -4.13247 0
M  V30 9607 H 931.883 -0.198507 -5.48541 0
M  V30 9608 H 932.144 1.06302 -4.2913 0
M  V30 9609 N 931.203 1.46865 -0.571711 0
M  V30 9610 C 932.151 2.31897 0.180714 0
M  V30 9611 C 933.145 1.43815 0.895191 0
M  V30 9612 O 934.351 1.60501 0.814828 0
M  V30 9613 H 930.726 0.748032 0.077148 0
M  V30 9614 H 932.697 2.93185 -0.555432 0
M  V30 9615 C 931.446 3.26766 1.18824 0
M  V30 9616 H 930.769 3.94515 0.64789 0
M  V30 9617 H 932.209 3.89067 1.68532 0
M  V30 9618 C 930.668 2.51325 2.2436 0
M  V30 9619 O 931.198 2.26825 3.31532 0
M  V30 9620 N 929.404 2.12079 1.98673 0
M  V30 9621 H 928.951 2.32204 1.1153 0
M  V30 9622 H 928.909 1.61921 2.69498 0
M  V30 9623 N 932.681 0.308908 1.54543 0
M  V30 9624 C 934.097 -0.0442273 1.59539 0
M  V30 9625 C 934.297 -1.51743 1.32575 0
M  V30 9626 O 933.353 -2.27134 1.10302 0
M  V30 9627 C 934.666 0.360826 2.98527 0
M  V30 9628 C 936.214 0.310252 3.11459 0
M  V30 9629 C 936.689 0.690246 4.52769 0
M  V30 9630 N 938.18 0.643084 4.58714 0
M  V30 9631 C 938.915 0.909483 5.66141 0
M  V30 9632 N 938.411 1.24226 6.81572 0
M  V30 9633 N 940.204 0.836018 5.55848 0
M  V30 9634 H 932.355 1.26893 1.70329 0
M  V30 9635 H 934.618 0.514986 0.795923 0
M  V30 9636 H 934.324 1.38669 3.23209 0
M  V30 9637 H 934.198 -0.281563 3.76148 0
M  V30 9638 H 936.585 -0.706375 2.86521 0
M  V30 9639 H 936.666 0.987373 2.35976 0
M  V30 9640 H 936.31 1.70472 4.78437 0
M  V30 9641 H 936.24 -0.00903075 5.26599 0
M  V30 9642 H 938.731 0.397138 3.75807 0
M  V30 9643 H 939.044 1.4313 7.5943 0
M  V30 9644 H 937.389 1.28038 6.83104 0
M  V30 9645 H 940.58 0.575637 4.64547 0
M  V30 9646 H 940.753 1.047 6.39486 0
M  V30 9647 N 934.159 -1.57557 0.0367827 0
M  V30 9648 C 935.069 -2.14148 -0.958017 0
M  V30 9649 C 936.085 -1.09564 -1.35173 0
M  V30 9650 O 937.261 -1.4166 -1.43158 0
M  V30 9651 C 934.326 -2.6636 -2.21931 0
M  V30 9652 C 933.387 -3.85688 -1.8853 0
M  V30 9653 C 932.62 -4.35401 -3.08645 0
M  V30 9654 O 932.843 -3.8425 -4.21554 0
M  V30 9655 O 931.777 -5.27158 -2.90497 0
M  V30 9656 H 935.603 -2.99442 -0.506797 0
M  V30 9657 H 933.188 -1.48259 -0.184275 0
M  V30 9658 H 935.07 -2.99976 -2.9596 0
M  V30 9659 H 933.745 -1.84145 -2.66219 0
M  V30 9660 H 932.652 -3.56985 -1.11861 0
M  V30 9661 H 933.985 -4.69089 -1.49052 0
M  V30 9662 N 935.637 0.236453 -1.55816 0
M  V30 9663 C 936.862 0.98449 -1.82545 0
M  V30 9664 C 937.287 1.77755 -0.615206 0
M  V30 9665 O 936.645 1.75982 0.435895 0
M  V30 9666 C 936.693 1.88973 -3.07118 0
M  V30 9667 O 935.797 2.98298 -2.84766 0
M  V30 9668 H 935.138 0.279577 -0.602273 0
M  V30 9669 H 937.668 0.254277 -2.03014 0
M  V30 9670 H 937.678 2.3024 -3.36829 0
M  V30 9671 H 936.353 1.30671 -3.94839 0
M  V30 9672 H 934.93 2.61085 -2.6625 0
M  V30 9673 N 937.115 1.49373 0.502552 0
M  V30 9674 C 938.062 1.65927 1.60427 0
M  V30 9675 C 939.032 0.500768 1.58371 0
M  V30 9676 O 940.217 0.727606 1.76382 0
M  V30 9677 C 937.357 1.73043 2.9858 0
M  V30 9678 C 936.47 3.00187 3.10663 0
M  V30 9679 C 935.605 2.98292 4.3954 0
M  V30 9680 C 934.644 4.20022 4.4525 0
M  V30 9681 N 933.781 4.16046 5.65553 0
M  V30 9682 H 938.621 2.59998 1.45619 0
M  V30 9683 H 936.158 1.28912 0.708519 0
M  V30 9684 H 938.116 1.7515 3.78653 0
M  V30 9685 H 936.746 0.824397 3.12095 0
M  V30 9686 H 935.798 3.07699 2.23663 0
M  V30 9687 H 937.11 3.9018 3.10742 0
M  V30 9688 H 936.264 2.98953 5.27932 0
M  V30 9689 H 935.003 2.06075 4.42023 0
M  V30 9690 H 934.008 4.19607 3.5526 0
M  V30 9691 H 935.233 5.13431 4.44484 0
M  V30 9692 H 933.179 3.26665 5.68881 0
M  V30 9693 H 933.096 4.99773 5.67242 0
M  V30 9694 H 934.364 4.20807 6.56156 0
M  V30 9695 N 938.594 -0.753485 1.38421 0
M  V30 9696 C 939.841 -1.51261 1.34634 0
M  V30 9697 C 940.169 -1.94396 -0.0635771 0
M  V30 9698 O 939.424 -1.65736 -1.04068 0
M  V30 9699 C 939.723 -2.77836 2.24816 0
M  V30 9700 C 939.389 -2.53662 3.72782 0
M  V30 9701 C 938.051 -2.46779 4.13103 0
M  V30 9702 C 940.403 -2.32548 4.66445 0
M  V30 9703 C 937.731 -2.16796 5.45176 0
M  V30 9704 C 940.083 -2.04085 5.98775 0
M  V30 9705 C 938.747 -1.95658 6.3818 0
M  V30 9706 H 938.017 -0.553503 0.492661 0
M  V30 9707 H 940.664 -0.866406 1.7078 0
M  V30 9708 H 938.969 -3.47106 1.81726 0
M  V30 9709 H 940.666 -3.35793 2.19189 0
M  V30 9710 H 937.256 -2.59891 3.40815 0
M  V30 9711 H 941.44 -2.36845 4.3614 0
M  V30 9712 H 936.696 -2.0878 5.74648 0
M  V30 9713 H 940.87 -1.86751 6.70893 0
M  V30 9714 H 938.497 -1.7219 7.40442 0
M  V30 9715 N 940.072 -1.23292 -0.981677 0
M  V30 9716 C 941.488 -0.995295 -1.24764 0
M  V30 9717 C 941.688 0.304379 -1.99188 0
M  V30 9718 O 940.744 1.02414 -2.30798 0
M  V30 9719 C 942.057 -2.20135 -2.04844 0
M  V30 9720 C 943.605 -2.24612 -2.17988 0
M  V30 9721 C 944.08 -3.448 -3.01458 0
M  V30 9722 N 945.571 -3.45031 -3.09044 0
M  V30 9723 C 946.306 -4.34683 -3.7395 0
M  V30 9724 N 945.802 -5.34569 -4.4069 0
M  V30 9725 N 947.595 -4.22429 -3.70823 0
M  V30 9726 H 939.746 -2.06834 -0.483052 0
M  V30 9727 H 942.009 -0.906929 -0.276014 0
M  V30 9728 H 941.715 -3.14446 -1.57532 0
M  V30 9729 H 941.589 -2.21115 -3.05594 0
M  V30 9730 H 943.976 -1.30841 -2.64508 0
M  V30 9731 H 944.057 -2.27664 -1.16631 0
M  V30 9732 H 943.701 -4.38877 -2.55635 0
M  V30 9733 H 943.631 -3.38988 -4.02982 0
M  V30 9734 H 946.122 -2.72759 -2.61555 0
M  V30 9735 H 946.435 -5.99236 -4.87991 0
M  V30 9736 H 944.78 -5.3847 -4.39403 0
M  V30 9737 H 947.971 -3.43639 -3.17851 0
M  V30 9738 H 948.144 -4.92501 -4.21126 0
M  V30 9739 N 941.55 1.18024 -1.04442 0
M  V30 9740 C 942.796 1.88377 -0.751133 0
M  V30 9741 C 943.129 1.80377 0.719571 0
M  V30 9742 O 942.404 1.20662 1.52548 0
M  V30 9743 C 942.687 3.38708 -1.22265 0
M  V30 9744 C 942.54 3.55499 -2.75574 0
M  V30 9745 C 943.859 4.32475 -0.815688 0
M  V30 9746 H 940.978 0.684037 -0.27434 0
M  V30 9747 H 943.62 1.38837 -1.29709 0
M  V30 9748 H 941.77 3.8103 -0.758192 0
M  V30 9749 H 943.442 3.22244 -3.30086 0
M  V30 9750 H 941.685 2.98028 -3.15217 0
M  V30 9751 H 942.356 4.60994 -3.03625 0
M  V30 9752 H 944.832 3.97953 -1.21542 0
M  V30 9753 H 943.708 5.36213 -1.17331 0
M  V30 9754 H 943.969 4.41207 0.280901 0
M  V30 9755 N 943.028 0.824394 1.34319 0
M  V30 9756 C 944.274 0.413779 1.98534 0
M  V30 9757 C 944.607 -1.02089 1.65201 0
M  V30 9758 O 943.882 -1.71129 0.924402 0
M  V30 9759 C 944.165 0.61801 3.54757 0
M  V30 9760 C 944.018 2.0989 3.97827 0
M  V30 9761 C 945.337 0.0549041 4.40066 0
M  V30 9762 H 942.456 0.151815 0.721194 0
M  V30 9763 H 945.098 1.03723 1.5919 0
M  V30 9764 H 943.248 0.0873107 3.88402 0
M  V30 9765 H 944.92 2.69335 3.74508 0
M  V30 9766 H 943.163 2.58881 3.48085 0
M  V30 9767 H 943.834 2.1926 5.06586 0
M  V30 9768 H 946.31 0.508348 4.12983 0
M  V30 9769 H 945.186 0.227595 5.48428 0
M  V30 9770 H 945.447 -1.04025 4.29687 0
M  V30 9771 N 944.506 -1.46559 0.579492 0
M  V30 9772 C 945.755 -2.01606 0.0615735 0
M  V30 9773 C 946.068 -1.45695 -1.30508 0
M  V30 9774 O 947.274 -1.92541 -1.91416 0
M  V30 9775 C 945.73 -3.59851 0.059496 0
M  V30 9776 C 945.338 -4.24757 1.42427 0
M  V30 9777 C 947.082 -4.22567 -0.404646 0
M  V30 9778 C 944.989 -5.75072 1.38009 0
M  V30 9779 H 943.919 -0.753754 0.0192491 0
M  V30 9780 H 946.57 -1.68326 0.73066 0
M  V30 9781 H 944.952 -3.90193 -0.675691 0
M  V30 9782 H 946.126 -4.06029 2.17893 0
M  V30 9783 H 944.441 -3.74121 1.82817 0
M  V30 9784 H 947.038 -5.32748 -0.456441 0
M  V30 9785 H 947.381 -3.91279 -1.42149 0
M  V30 9786 H 947.914 -3.96839 0.276376 0
M  V30 9787 H 944.653 -6.11014 2.37364 0
M  V30 9788 H 944.173 -5.96073 0.667583 0
M  V30 9789 H 945.852 -6.37724 1.09163 0
M  V30 9790 N 945.984 -0.3171 -1.54377 0
M  V30 9791 C 946.916 0.58571 -2.2159 0
M  V30 9792 C 947.929 1.08495 -1.21378 0
M  V30 9793 O 949.118 0.999638 -1.47883 0
M  V30 9794 C 946.218 1.8157 -2.86156 0
M  V30 9795 C 945.391 1.45625 -4.12447 0
M  V30 9796 C 944.45 2.54308 -4.60667 0
M  V30 9797 O 943.476 2.18724 -5.25498 0
M  V30 9798 N 944.678 3.85129 -4.34345 0
M  V30 9799 H 947.443 0.0102247 -2.99698 0
M  V30 9800 H 945.004 -0.140011 -1.61293 0
M  V30 9801 H 946.996 2.53657 -3.15341 0
M  V30 9802 H 945.566 2.29919 -2.11793 0
M  V30 9803 H 944.786 0.567294 -3.90097 0
M  V30 9804 H 946.074 1.19169 -4.94648 0
M  V30 9805 H 945.472 4.16841 -3.8244 0
M  V30 9806 H 944.029 4.53466 -4.68201 0
M  V30 9807 N 947.462 1.57535 -0.0451378 0
M  V30 9808 C 948.873 1.80116 0.491426 0
M  V30 9809 C 949.224 0.956846 1.71286 0
M  V30 9810 O 948.349 0.17173 2.15718 0
M  V30 9811 C 948.944 3.26674 0.898315 0
M  V30 9812 C 947.503 3.50194 1.37989 0
M  V30 9813 C 946.65 2.75054 0.352202 0
M  V30 9814 H 949.601 1.56368 -0.271065 0
M  V30 9815 H 949.622 3.37263 1.76164 0
M  V30 9816 H 949.134 3.88099 0.009141 0
M  V30 9817 H 947.235 2.94041 2.28846 0
M  V30 9818 H 947.348 4.58909 1.37622 0
M  V30 9819 H 945.712 2.4101 0.823784 0
M  V30 9820 H 946.495 3.39203 -0.528782 0
M  V30 9821 N 948.94 -0.228186 1.55939 0
M  V30 9822 C 949.85 -1.30386 1.9503 0
M  V30 9823 C 950.866 -1.51645 0.853218 0
M  V30 9824 O 952.042 -1.64904 1.15623 0
M  V30 9825 C 949.107 -2.63489 2.25332 0
M  V30 9826 C 948.168 -2.5059 3.48573 0
M  V30 9827 C 947.401 -3.77345 3.7742 0
M  V30 9828 O 947.624 -4.80067 3.08045 0
M  V30 9829 O 946.558 -3.74855 4.70922 0
M  V30 9830 H 950.384 -1.0022 2.86687 0
M  V30 9831 H 947.969 -0.430503 1.43063 0
M  V30 9832 H 949.851 -3.4211 2.46046 0
M  V30 9833 H 948.526 -2.93349 1.3685 0
M  V30 9834 H 947.433 -1.70191 3.33145 0
M  V30 9835 H 948.766 -2.2567 4.37417 0
M  V30 9836 N 950.418 -1.49637 -0.494624 0
M  V30 9837 C 951.381 -1.66252 -1.57775 0
M  V30 9838 C 952.381 -0.534054 -1.51672 0
M  V30 9839 O 953.571 -0.800637 -1.54711 0
M  V30 9840 C 950.703 -1.66584 -2.97426 0
M  V30 9841 H 951.896 -2.62864 -1.4437 0
M  V30 9842 H 949.449 -1.38764 -0.719323 0
M  V30 9843 H 950.184 -0.715798 -3.16302 0
M  V30 9844 H 949.969 -2.48543 -3.03264 0
M  V30 9845 H 951.459 -1.81474 -3.76108 0
M  V30 9846 N 951.896 0.746133 -1.38819 0
M  V30 9847 C 953.143 1.50545 -1.35434 0
M  V30 9848 C 953.471 1.94427 0.0532669 0
M  V30 9849 O 952.726 1.66285 1.03188 0
M  V30 9850 C 953.025 2.76639 -2.26286 0
M  V30 9851 C 952.691 2.51682 -3.74122 0
M  V30 9852 C 951.353 2.44584 -4.14406 0
M  V30 9853 C 953.705 2.30071 -4.67672 0
M  V30 9854 C 951.033 2.13902 -5.46318 0
M  V30 9855 C 953.385 2.00907 -5.99849 0
M  V30 9856 C 952.049 1.92271 -6.39209 0
M  V30 9857 H 951.319 0.550883 -0.49559 0
M  V30 9858 H 953.966 0.857337 -1.71237 0
M  V30 9859 H 952.271 3.46138 -1.83564 0
M  V30 9860 H 953.968 3.34626 -2.20967 0
M  V30 9861 H 950.558 2.5808 -3.42188 0
M  V30 9862 H 954.742 2.34528 -4.3739 0
M  V30 9863 H 949.998 2.0573 -5.75748 0
M  V30 9864 H 954.172 1.83191 -6.71874 0
M  V30 9865 H 951.799 1.68261 -7.41345 0
M  V30 9866 N 953.375 1.23811 0.975125 0
M  V30 9867 C 954.622 1.07336 1.71712 0
M  V30 9868 C 954.95 -0.388954 1.90571 0
M  V30 9869 O 954.205 -1.30409 1.45918 0
M  V30 9870 C 954.504 1.74994 3.11628 0
M  V30 9871 C 954.17 3.24918 3.12632 0
M  V30 9872 C 952.832 3.65822 3.12614 0
M  V30 9873 C 955.184 4.20797 3.07538 0
M  V30 9874 C 952.512 5.01054 3.05224 0
M  V30 9875 C 954.864 5.56027 3.0169 0
M  V30 9876 C 953.528 5.96287 2.99996 0
M  V30 9877 H 952.798 0.392771 0.62834 0
M  V30 9878 H 955.445 1.53815 1.14075 0
M  V30 9879 H 953.75 1.20889 3.72684 0
M  V30 9880 H 955.447 1.5972 3.67819 0
M  V30 9881 H 952.037 2.92359 3.13407 0
M  V30 9882 H 956.221 3.902 3.06688 0
M  V30 9883 H 951.477 5.31454 3.02268 0
M  V30 9884 H 955.651 6.3003 2.96706 0
M  V30 9885 H 953.278 7.01037 2.94025 0
M  V30 9886 N 954.853 -1.17469 1.05066 0
M  V30 9887 C 956.078 -1.92162 0.780298 0
M  V30 9888 C 956.503 -1.76222 -0.657832 0
M  V30 9889 O 955.861 -1.0791 -1.45688 0
M  V30 9890 C 955.909 -3.41292 1.16414 0
M  V30 9891 O 955.013 -4.1134 0.295531 0
M  V30 9892 H 954.354 -0.599127 0.286257 0
M  V30 9893 H 956.884 -1.48903 1.40318 0
M  V30 9894 H 956.894 -3.92029 1.13036 0
M  V30 9895 H 955.569 -3.52214 2.21175 0
M  V30 9896 H 954.146 -3.70857 0.389797 0
M  V30 9897 N 956.331 -0.831506 -1.3388 0
M  V30 9898 C 957.58 -0.420028 -1.97278 0
M  V30 9899 C 957.893 1.02441 -1.66629 0
M  V30 9900 O 959.099 1.54021 -2.23584 0
M  V30 9901 C 957.555 -0.700116 -3.53025 0
M  V30 9902 C 957.163 -2.15874 -3.92559 0
M  V30 9903 C 958.907 -0.355226 -4.23011 0
M  V30 9904 C 956.814 -2.38327 -5.41252 0
M  V30 9905 H 955.744 -0.153326 -0.738246 0
M  V30 9906 H 958.395 -1.01906 -1.52602 0
M  V30 9907 H 956.777 -0.0308044 -3.95988 0
M  V30 9908 H 957.951 -2.86792 -3.60675 0
M  V30 9909 H 956.266 -2.4659 -3.35533 0
M  V30 9910 H 958.863 -0.500701 -5.32351 0
M  V30 9911 H 959.206 0.70111 -4.10354 0
M  V30 9912 H 959.739 -0.979466 -3.85553 0
M  V30 9913 H 956.478 -3.42498 -5.58906 0
M  V30 9914 H 955.998 -1.71962 -5.74621 0
M  V30 9915 H 957.677 -2.21113 -6.08045 0
M  V30 9916 N 957.809 1.4625 -0.587256 0
M  V30 9917 C 959.039 2.06444 -0.0802135 0
M  V30 9918 C 959.447 1.43585 1.23207 0
M  V30 9919 O 958.79 0.536956 1.75677 0
M  V30 9920 C 958.852 3.59165 0.155129 0
M  V30 9921 C 958.516 4.44243 -1.07225 0
M  V30 9922 C 959.513 4.80497 -1.98542 0
M  V30 9923 C 957.198 4.8531 -1.29537 0
M  V30 9924 C 959.192 5.56649 -3.10516 0
M  V30 9925 C 956.879 5.61221 -2.41815 0
M  V30 9926 C 957.877 5.96805 -3.32134 0
M  V30 9927 O 957.565 6.71181 -4.42461 0
M  V30 9928 H 957.297 0.673626 -0.0566063 0
M  V30 9929 H 959.851 1.88797 -0.809004 0
M  V30 9930 H 958.081 3.75137 0.938583 0
M  V30 9931 H 959.77 4.01271 0.611243 0
M  V30 9932 H 960.536 4.49345 -1.82522 0
M  V30 9933 H 956.415 4.5706 -0.601431 0
M  V30 9934 H 959.959 5.84343 -3.81037 0
M  V30 9935 H 955.856 5.91786 -2.57797 0
M  V30 9936 H 956.624 6.8961 -4.40886 0
M  V30 9937 N 959.287 0.325282 1.54207 0
M  V30 9938 C 960.512 -0.281418 2.05482 0
M  V30 9939 C 960.937 -1.44869 1.19977 0
M  V30 9940 O 960.295 -1.80088 0.209275 0
M  V30 9941 C 960.343 -0.692029 3.53897 0
M  V30 9942 O 959.447 -1.7942 3.71325 0
M  V30 9943 H 958.788 -0.0504872 0.662078 0
M  V30 9944 H 961.318 0.474191 1.99029 0
M  V30 9945 H 961.328 -0.974219 3.96198 0
M  V30 9946 H 960.003 0.161709 4.15586 0
M  V30 9947 H 958.58 -1.51069 3.40929 0
M  V30 9948 N 960.765 -1.57509 0.0534917 0
M  V30 9949 C 961.712 -2.11667 -0.920101 0
M  V30 9950 C 962.682 -1.0246 -1.30733 0
M  V30 9951 O 963.867 -1.30021 -1.39639 0
M  V30 9952 C 961.007 -2.66803 -2.18883 0
M  V30 9953 C 960.12 -3.90104 -1.85588 0
M  V30 9954 C 959.255 -4.33547 -3.06937 0
M  V30 9955 C 958.294 -5.49542 -2.69573 0
M  V30 9956 N 957.431 -5.88029 -3.83623 0
M  V30 9957 H 962.271 -2.94562 -0.451371 0
M  V30 9958 H 959.808 -1.45576 -0.211168 0
M  V30 9959 H 961.766 -2.96871 -2.93127 0
M  V30 9960 H 960.396 -1.86702 -2.63329 0
M  V30 9961 H 959.448 -3.66613 -1.01484 0
M  V30 9962 H 960.76 -4.74404 -1.54087 0
M  V30 9963 H 959.914 -4.6518 -3.89477 0
M  V30 9964 H 958.653 -3.48064 -3.41618 0
M  V30 9965 H 957.658 -5.17579 -1.8545 0
M  V30 9966 H 958.883 -6.36743 -2.36082 0
M  V30 9967 H 956.829 -5.05498 -4.181 0
M  V30 9968 H 956.746 -6.67025 -3.55828 0
M  V30 9969 H 958.014 -6.24277 -4.66796 0
M  V30 9970 N 962.243 0.219913 -1.56058 0
M  V30 9971 C 963.206 1.25606 -1.91718 0
M  V30 9972 C 964.206 1.39721 -0.795912 0
M  V30 9973 O 965.396 1.37958 -1.06364 0
M  V30 9974 C 962.528 2.62961 -2.16943 0
M  V30 9975 H 963.721 0.951909 -2.84392 0
M  V30 9976 H 961.274 0.460398 -1.49365 0
M  V30 9977 H 962.009 2.98472 -1.26826 0
M  V30 9978 H 961.794 2.54093 -2.98629 0
M  V30 9979 H 963.284 3.37727 -2.45622 0
M  V30 9980 N 963.721 1.49897 0.486681 0
M  V30 9981 C 964.967 1.60342 1.2417 0
M  V30 9982 C 965.3 0.295694 1.91936 0
M  V30 9983 O 964.575 -0.701788 1.81398 0
M  V30 9984 C 964.858 2.77281 2.29755 0
M  V30 9985 C 964.711 4.1789 1.66397 0
M  V30 9986 C 966.03 2.89817 3.31201 0
M  V30 9987 H 963.149 0.583605 0.450083 0
M  V30 9988 H 965.791 1.82232 0.537734 0
M  V30 9989 H 963.941 2.58748 2.89796 0
M  V30 9990 H 965.613 4.47975 1.10073 0
M  V30 9991 H 963.856 4.22872 0.967579 0
M  V30 9992 H 964.527 4.95612 2.43049 0
M  V30 9993 H 967.003 3.06732 2.81167 0
M  V30 9994 H 965.879 3.7329 4.02425 0
M  V30 9995 H 966.14 1.9977 3.94391 0
M  V30 9996 N 965.199 -0.738761 1.39212 0
M  V30 9997 C 966.424 -1.5331 1.39681 0
M  V30 9998 C 966.849 -1.88098 -0.00768715 0
M  V30 9999 O 966.207 -1.51642 -0.993699 0
M  V30 10000 C 966.255 -2.79958 2.27279 0
M  V30 10001 O 965.359 -3.75727 1.70008 0
M  V30 10002 H 964.7 -0.463131 0.475821 0
M  V30 10003 H 967.23 -0.911768 1.83161 0
M  V30 10004 H 967.24 -3.28732 2.41659 0
M  V30 10005 H 965.915 -2.5397 3.29351 0
M  V30 10006 H 964.492 -3.34483 1.64851 0
M  V30 10007 N 966.677 -1.24326 -0.968545 0
M  V30 10008 C 967.607 -1.05951 -2.08079 0
M  V30 10009 C 968.588 0.0272666 -1.70078 0
M  V30 10010 O 969.773 -0.139644 -1.93697 0
M  V30 10011 C 966.903 -0.662623 -3.4092 0
M  V30 10012 C 965.857 -1.69807 -3.92873 0
M  V30 10013 C 965.183 -1.15628 -5.22048 0
M  V30 10014 C 966.483 -3.09383 -4.20808 0
M  V30 10015 H 968.177 -1.98984 -2.23709 0
M  V30 10016 H 965.723 -0.958112 -1.075 0
M  V30 10017 H 967.676 -0.521071 -4.18166 0
M  V30 10018 H 966.4 0.303399 -3.25188 0
M  V30 10019 H 965.059 -1.82783 -3.17783 0
M  V30 10020 H 964.707 -0.180888 -5.02675 0
M  V30 10021 H 964.407 -1.84822 -5.57776 0
M  V30 10022 H 965.931 -1.02683 -6.01904 0
M  V30 10023 H 967.345 -2.99642 -4.88761 0
M  V30 10024 H 965.742 -3.75923 -4.67763 0
M  V30 10025 H 966.812 -3.57486 -3.27616 0
M  V30 10026 N 968.156 1.1691 -1.05688 0
M  V30 10027 C 969.066 2.24735 -0.67315 0
M  V30 10028 C 970.082 1.71252 0.308043 0
M  V30 10029 O 971.258 2.00772 0.158889 0
M  V30 10030 C 968.323 3.4665 -0.059026 0
M  V30 10031 C 967.384 4.15198 -1.0913 0
M  V30 10032 C 966.617 5.31292 -0.50639 0
M  V30 10033 O 966.84 5.663 0.682692 0
M  V30 10034 O 965.774 5.88923 -1.2431 0
M  V30 10035 H 969.6 2.59855 -1.57191 0
M  V30 10036 H 967.185 1.24306 -0.828751 0
M  V30 10037 H 969.067 4.20455 0.282018 0
M  V30 10038 H 967.742 3.13316 0.813304 0
M  V30 10039 H 966.649 3.43389 -1.48442 0
M  V30 10040 H 967.982 4.52571 -1.93495 0
M  V30 10041 N 969.634 0.838594 1.33437 0
M  V30 10042 C 970.88 0.434813 1.98084 0
M  V30 10043 C 971.213 -1.00331 1.66275 0
M  V30 10044 O 970.488 -1.70139 0.942501 0
M  V30 10045 C 970.771 0.655602 3.54082 0
M  V30 10046 C 970.624 2.14097 3.95578 0
M  V30 10047 C 971.943 0.101576 4.39983 0
M  V30 10048 H 969.062 0.159456 0.719544 0
M  V30 10049 H 971.704 1.05406 1.58081 0
M  V30 10050 H 969.854 0.128501 3.88287 0
M  V30 10051 H 971.526 2.73292 3.71631 0
M  V30 10052 H 969.769 2.62558 3.4532 0
M  V30 10053 H 970.44 2.24621 5.04231 0
M  V30 10054 H 972.916 0.552122 4.12421 0
M  V30 10055 H 971.792 0.28575 5.48156 0
M  V30 10056 H 972.053 -0.994616 4.30767 0
M  V30 10057 N 971.112 -1.45937 0.595003 0
M  V30 10058 C 972.36 -2.01921 0.0851368 0
M  V30 10059 C 972.681 -1.46748 -1.28413 0
M  V30 10060 O 971.951 -0.656873 -1.84559 0
M  V30 10061 H 970.531 -0.746457 0.0284826 0
M  V30 10062 H 973.193 -1.78891 0.773561 0
M  V30 10063 H 972.289 -3.1209 0.0254002 0
M  V30 10064 N 972.59 -0.333456 -1.54032 0
M  V30 10065 C 973.52 0.52051 -2.27625 0
M  V30 10066 C 974.501 1.1111 -1.28797 0
M  V30 10067 O 975.686 1.13438 -1.57625 0
M  V30 10068 C 972.816 1.67663 -3.04149 0
M  V30 10069 C 971.77 1.21487 -4.10396 0
M  V30 10070 C 971.096 2.45872 -4.74817 0
M  V30 10071 C 972.396 0.322603 -5.21303 0
M  V30 10072 H 974.09 -0.0933823 -2.99254 0
M  V30 10073 H 971.636 -0.0463526 -1.43925 0
M  V30 10074 H 973.589 2.28041 -3.54366 0
M  V30 10075 H 972.313 2.31727 -2.30153 0
M  V30 10076 H 970.972 0.633966 -3.61077 0
M  V30 10077 H 970.62 3.0832 -3.97426 0
M  V30 10078 H 970.32 2.15662 -5.46593 0
M  V30 10079 H 971.844 3.06994 -5.27814 0
M  V30 10080 H 973.258 0.832942 -5.67217 0
M  V30 10081 H 971.655 0.112843 -5.99994 0
M  V30 10082 H 972.725 -0.643954 -4.80605 0
M  V30 10083 N 974.068 1.57479 -0.061844 0
M  V30 10084 C 975 2.09116 0.938245 0
M  V30 10085 C 976.013 1.0212 1.26788 0
M  V30 10086 O 977.202 1.2966 1.22681 0
M  V30 10087 C 974.302 2.52822 2.25686 0
M  V30 10088 C 973.475 3.83277 2.10755 0
M  V30 10089 C 972.534 4.13182 3.25833 0
M  V30 10090 O 971.56 4.82937 3.01265 0
M  V30 10091 N 972.762 3.65938 4.50633 0
M  V30 10092 H 975.527 2.95543 0.497433 0
M  V30 10093 H 973.088 1.61423 0.124134 0
M  V30 10094 H 975.08 2.69896 3.01559 0
M  V30 10095 H 973.65 1.71586 2.61299 0
M  V30 10096 H 972.87 3.7568 1.19409 0
M  V30 10097 H 974.158 4.68686 1.98018 0
M  V30 10098 H 973.556 3.09566 4.73482 0
M  V30 10099 H 972.113 3.8823 5.23565 0
M  V30 10100 N 975.546 -0.211634 1.56173 0
M  V30 10101 C 976.496 -1.26602 1.8962 0
M  V30 10102 C 977.48 -1.41808 0.760222 0
M  V30 10103 O 978.672 -1.44456 1.02281 0
M  V30 10104 C 975.801 -2.61438 2.22497 0
M  V30 10105 C 974.887 -2.50094 3.42511 0
M  V30 10106 N 975.278 -2.0841 4.60868 0
M  V30 10107 C 973.576 -2.81028 3.46322 0
M  V30 10108 C 974.277 -2.08557 5.43028 0
M  V30 10109 N 973.253 -2.49427 4.82998 0
M  V30 10110 H 977.055 -0.934806 2.78637 0
M  V30 10111 H 974.569 -0.420154 1.56871 0
M  V30 10112 H 976.566 -3.37577 2.44638 0
M  V30 10113 H 975.226 -2.95397 1.34798 0
M  V30 10114 H 976.237 -1.79382 4.85842 0
M  V30 10115 H 972.914 -3.19294 2.68994 0
M  V30 10116 H 974.304 -1.7837 6.47791 0
M  V30 10117 N 977.024 -1.50153 -0.478725 0
M  V30 10118 C 978.271 -1.6076 -1.23136 0
M  V30 10119 C 978.599 -0.30442 -1.92103 0
M  V30 10120 O 977.854 0.709213 -1.82397 0
M  V30 10121 C 978.153 -2.73208 -2.30417 0
M  V30 10122 C 977.819 -4.13953 -1.78755 0
M  V30 10123 C 976.481 -4.52251 -1.64386 0
M  V30 10124 C 978.833 -5.01949 -1.40344 0
M  V30 10125 C 976.161 -5.76292 -1.10018 0
M  V30 10126 C 978.513 -6.2653 -0.874206 0
M  V30 10127 C 977.177 -6.63637 -0.717085 0
M  V30 10128 H 976.447 -0.588264 -0.450585 0
M  V30 10129 H 979.094 -1.84061 -0.528551 0
M  V30 10130 H 977.399 -2.43965 -3.06575 0
M  V30 10131 H 979.096 -2.7862 -2.88395 0
M  V30 10132 H 975.686 -3.83736 -1.90904 0
M  V30 10133 H 979.87 -4.73 -1.50283 0
M  V30 10134 H 975.126 -6.03723 -0.965838 0
M  V30 10135 H 979.3 -6.94081 -0.567883 0
M  V30 10136 H 976.927 -7.59633 -0.293639 0
M  V30 10137 N 978.502 0.731368 -1.39602 0
M  V30 10138 C 979.432 1.85855 -1.41351 0
M  V30 10139 C 980.413 1.67839 -0.2764 0
M  V30 10140 O 981.598 1.88104 -0.482747 0
M  V30 10141 C 978.728 3.23644 -1.25983 0
M  V30 10142 C 977.682 3.56304 -2.37132 0
M  V30 10143 C 977.008 4.93069 -2.0685 0
M  V30 10144 C 978.308 3.58906 -3.79452 0
M  V30 10145 H 980.002 1.84648 -2.3568 0
M  V30 10146 H 977.548 0.886955 -1.13442 0
M  V30 10147 H 979.501 4.02176 -1.25826 0
M  V30 10148 H 978.225 3.25387 -0.281234 0
M  V30 10149 H 976.884 2.80104 -2.36511 0
M  V30 10150 H 976.532 4.91396 -1.0742 0
M  V30 10151 H 976.232 5.15888 -2.81306 0
M  V30 10152 H 977.756 5.73953 -2.0835 0
M  V30 10153 H 979.17 4.27508 -3.81982 0
M  V30 10154 H 977.567 3.93246 -4.53297 0
M  V30 10155 H 978.637 2.58631 -4.10168 0
M  V30 10156 N 979.98 1.24838 0.961938 0
M  V30 10157 C 981.205 1.11967 1.7458 0
M  V30 10158 C 981.63 -0.323287 1.85301 0
M  V30 10159 O 980.988 -1.23412 1.32812 0
M  V30 10160 C 981.036 1.77066 3.14134 0
M  V30 10161 O 980.14 1.04534 3.98932 0
M  V30 10162 H 979.481 0.391338 0.536424 0
M  V30 10163 H 982.011 1.65259 1.20626 0
M  V30 10164 H 982.021 1.83056 3.64629 0
M  V30 10165 H 980.696 2.82052 3.05646 0
M  V30 10166 H 979.273 1.06372 3.57407 0
M  V30 10167 N 981.458 -1.16348 1.06306 0
M  V30 10168 C 982.705 -1.86881 0.779852 0
M  V30 10169 C 983.033 -1.8171 -0.693668 0
M  V30 10170 O 982.288 -1.22769 -1.52401 0
M  V30 10171 C 982.587 -3.35936 1.21991 0
M  V30 10172 C 982.253 -3.61307 2.69756 0
M  V30 10173 C 980.915 -3.6794 3.10119 0
M  V30 10174 C 983.267 -3.71871 3.65187 0
M  V30 10175 C 980.595 -3.82639 4.44752 0
M  V30 10176 C 982.947 -3.88091 4.99568 0
M  V30 10177 C 981.611 -3.92967 5.39568 0
M  V30 10178 H 980.881 -0.683847 0.285368 0
M  V30 10179 H 983.528 -1.37569 1.33218 0
M  V30 10180 H 981.833 -3.87381 0.586774 0
M  V30 10181 H 983.53 -3.88895 0.977821 0
M  V30 10182 H 980.12 -3.56777 2.37504 0
M  V30 10183 H 984.304 -3.66057 3.35136 0
M  V30 10184 H 979.56 -3.84666 4.75228 0
M  V30 10185 H 983.734 -3.95207 5.73397 0
M  V30 10186 H 981.361 -4.04109 6.43895 0
M  V30 10187 N 982.937 -0.845659 -1.3299 0
M  V30 10188 C 983.867 -0.298957 -2.31578 0
M  V30 10189 C 984.848 0.597012 -1.59279 0
M  V30 10190 O 986.033 0.519142 -1.87132 0
M  V30 10191 C 983.163 0.521109 -3.43368 0
M  V30 10192 C 982.117 -0.279651 -4.27085 0
M  V30 10193 C 981.443 0.664591 -5.30554 0
M  V30 10194 C 982.743 -1.50046 -5.00283 0
M  V30 10195 H 984.437 -1.12272 -2.77552 0
M  V30 10196 H 981.983 -0.54132 -1.33438 0
M  V30 10197 H 983.936 0.913921 -4.1137 0
M  V30 10198 H 982.66 1.37815 -2.96099 0
M  V30 10199 H 981.319 -0.654106 -3.60717 0
M  V30 10200 H 980.967 1.51822 -4.79541 0
M  V30 10201 H 980.667 0.132871 -5.8745 0
M  V30 10202 H 982.191 1.05477 -6.01421 0
M  V30 10203 H 983.605 -1.18044 -5.61016 0
M  V30 10204 H 982.002 -1.96946 -5.66862 0
M  V30 10205 H 983.072 -2.26659 -4.28665 0
M  V30 10206 N 984.415 1.45619 -0.602734 0
M  V30 10207 C 985.64 2.07157 -0.100429 0
M  V30 10208 C 986.065 1.44524 1.20393 0
M  V30 10209 O 985.423 0.536191 1.7319 0
M  V30 10210 C 985.471 3.60587 0.0308604 0
M  V30 10211 O 984.575 3.97944 1.08234 0
M  V30 10212 H 983.916 0.6601 -0.0718643 0
M  V30 10213 H 986.446 1.86948 -0.831366 0
M  V30 10214 H 986.456 4.07348 0.230634 0
M  V30 10215 H 985.131 4.05561 -0.921581 0
M  V30 10216 H 983.708 3.62862 0.859414 0
M  V30 10217 N 985.893 0.34162 1.53853 0
M  V30 10218 C 987.118 -0.259608 2.05769 0
M  V30 10219 C 987.543 -1.43588 1.21507 0
M  V30 10220 O 986.901 -1.79856 0.228364 0
M  V30 10221 C 986.949 -0.654455 3.54611 0
M  V30 10222 O 986.053 -1.75472 3.73207 0
M  V30 10223 H 985.394 -0.0434621 0.662576 0
M  V30 10224 H 987.924 0.495274 1.98515 0
M  V30 10225 H 987.934 -0.932142 3.97209 0
M  V30 10226 H 986.609 0.205779 4.15391 0
M  V30 10227 H 985.186 -1.47444 3.42512 0
M  V30 10228 N 987.371 -1.57444 0.0701946 0
M  V30 10229 C 988.304 -2.08232 -0.93352 0
M  V30 10230 C 989.282 -0.987073 -1.29212 0
M  V30 10231 O 990.466 -1.26035 -1.40169 0
M  V30 10232 C 987.593 -2.53866 -2.2421 0
M  V30 10233 C 986.639 -3.7481 -2.03518 0
M  V30 10234 S 987.472 -5.1958 -1.29601 0
M  V30 10235 C 988.628 -5.68544 -2.61742 0
M  V30 10236 H 988.861 -2.93042 -0.501354 0
M  V30 10237 H 986.394 -1.53741 -0.142533 0
M  V30 10238 H 988.352 -2.80818 -2.99419 0
M  V30 10239 H 987.013 -1.69327 -2.64551 0
M  V30 10240 H 986.206 -4.04724 -3.00358 0
M  V30 10241 H 985.808 -3.48222 -1.36445 0
M  V30 10242 H 988.1 -5.75291 -3.57836 0
M  V30 10243 H 989.043 -6.67459 -2.3644 0
M  V30 10244 H 989.451 -4.96354 -2.68873 0
M  V30 10245 N 988.849 0.203349 -1.56283 0
M  V30 10246 C 990.265 0.55384 -1.49682 0
M  V30 10247 C 990.465 1.86261 -0.768701 0
M  V30 10248 O 989.521 2.50517 -0.315824 0
M  V30 10249 C 990.834 0.616216 -2.94318 0
M  V30 10250 C 992.382 0.705611 -3.04943 0
M  V30 10251 C 992.857 0.79917 -4.50974 0
M  V30 10252 N 994.348 0.862916 -4.55091 0
M  V30 10253 C 995.083 0.955334 -5.65386 0
M  V30 10254 N 994.579 1.01057 -6.8539 0
M  V30 10255 N 996.372 0.991884 -5.53279 0
M  V30 10256 H 988.523 -0.655244 -2.0204 0
M  V30 10257 H 990.786 -0.232344 -0.919087 0
M  V30 10258 H 990.492 -0.27619 -3.50614 0
M  V30 10259 H 990.366 1.47371 -3.4722 0
M  V30 10260 H 992.753 1.58845 -2.48701 0
M  V30 10261 H 992.834 -0.177921 -2.5518 0
M  V30 10262 H 992.478 -0.0792841 -5.07838 0
M  V30 10263 H 992.408 1.69838 -4.9846 0
M  V30 10264 H 994.899 0.829812 -3.68677 0
M  V30 10265 H 995.212 1.08137 -7.65197 0
M  V30 10266 H 993.557 0.979384 -6.88065 0
M  V30 10267 H 996.748 0.945514 -4.58451 0
M  V30 10268 H 996.921 1.06045 -6.39264 0
M  V30 10269 N 990.327 1.50405 0.470755 0
M  V30 10270 C 991.743 1.37838 0.804534 0
M  V30 10271 C 991.943 0.434743 1.96754 0
M  V30 10272 O 990.999 -0.122507 2.52203 0
M  V30 10273 C 992.312 2.79212 1.11629 0
M  V30 10274 C 993.86 2.88129 1.22272 0
M  V30 10275 C 994.335 4.30337 1.5676 0
M  V30 10276 N 995.826 4.3329 1.63751 0
M  V30 10277 C 996.561 5.4032 1.91942 0
M  V30 10278 N 996.057 6.57558 2.18151 0
M  V30 10279 N 997.85 5.27764 1.93446 0
M  V30 10280 H 990.001 2.10332 -0.295689 0
M  V30 10281 H 992.264 0.945429 -0.0697733 0
M  V30 10282 H 991.97 3.50103 0.334778 0
M  V30 10283 H 991.844 3.16475 2.0524 0
M  V30 10284 H 994.231 2.17457 1.9949 0
M  V30 10285 H 994.312 2.54409 0.2664 0
M  V30 10286 H 993.956 5.01547 0.800817 0
M  V30 10287 H 993.886 4.61545 2.53543 0
M  V30 10288 H 996.377 3.48752 1.45535 0
M  V30 10289 H 996.69 7.34935 2.38936 0
M  V30 10290 H 995.035 6.60732 2.15542 0
M  V30 10291 H 998.226 4.35169 1.72468 0
M  V30 10292 H 998.399 6.11264 2.15081 0
M  V30 10293 N 991.805 -0.723954 1.39988 0
M  V30 10294 C 993.216 -1.30273 1.33738 0
M  V30 10295 C 993.567 -1.96199 0.00690581 0
M  V30 10296 O 992.692 -1.97016 -0.895179 0
M  V30 10297 C 993.287 -2.36889 2.42217 0
M  V30 10298 C 991.846 -2.90412 2.39453 0
M  V30 10299 C 990.993 -1.64103 2.2353 0
M  V30 10300 H 993.944 -0.520672 1.49916 0
M  V30 10301 H 993.965 -3.17538 2.09642 0
M  V30 10302 H 993.477 -1.88878 3.39038 0
M  V30 10303 H 991.578 -3.42674 1.46304 0
M  V30 10304 H 991.691 -3.42775 3.34727 0
M  V30 10305 H 990.055 -1.88855 1.70897 0
M  V30 10306 H 990.838 -1.18128 3.22336 0
M  V30 10307 N 993.283 -1.25346 -0.955304 0
M  V30 10308 C 994.532 -1.0945 -1.69421 0
M  V30 10309 C 994.845 0.364459 -1.92175 0
M  V30 10310 O 996.051 0.643843 -2.63755 0
M  V30 10311 C 994.507 -1.91045 -3.05008 0
M  V30 10312 C 994.115 -3.41428 -2.90053 0
M  V30 10313 C 995.859 -1.83716 -3.82686 0
M  V30 10314 C 993.766 -4.1532 -4.21026 0
M  V30 10315 H 992.696 -0.405978 -0.635372 0
M  V30 10316 H 995.347 -1.49536 -1.06354 0
M  V30 10317 H 993.729 -1.43781 -3.68975 0
M  V30 10318 H 994.903 -3.9636 -2.35022 0
M  V30 10319 H 993.218 -3.49842 -2.25831 0
M  V30 10320 H 995.815 -2.36217 -4.79693 0
M  V30 10321 H 996.158 -0.804919 -4.08444 0
M  V30 10322 H 996.691 -2.28726 -3.25468 0
M  V30 10323 H 993.43 -5.18955 -4.00457 0
M  V30 10324 H 992.95 -3.65172 -4.75825 0
M  V30 10325 H 994.629 -4.22999 -4.89572 0
M  V30 10326 N 994.761 1.15782 -1.06922 0
M  V30 10327 C 995.691 2.22538 -0.707045 0
M  V30 10328 C 996.672 1.67371 0.303471 0
M  V30 10329 O 997.857 1.9339 0.177189 0
M  V30 10330 C 994.987 3.47158 -0.0994269 0
M  V30 10331 C 993.941 4.15257 -1.03661 0
M  V30 10332 C 993.267 5.33902 -0.291974 0
M  V30 10333 C 994.567 4.65516 -2.36837 0
M  V30 10334 H 996.261 2.53089 -1.59958 0
M  V30 10335 H 993.807 1.21649 -0.770552 0
M  V30 10336 H 995.76 4.21073 0.165852 0
M  V30 10337 H 994.484 3.15926 0.828155 0
M  V30 10338 H 993.143 3.43276 -1.28674 0
M  V30 10339 H 992.791 4.98926 0.638928 0
M  V30 10340 H 992.491 5.80407 -0.916613 0
M  V30 10341 H 994.015 6.1059 -0.0343915 0
M  V30 10342 H 995.429 5.30981 -2.16175 0
M  V30 10343 H 993.826 5.22666 -2.94856 0
M  V30 10344 H 994.896 3.81387 -2.99453 0
M  V30 10345 N 996.239 0.8527 1.3254 0
M  V30 10346 C 997.202 0.300959 2.27215 0
M  V30 10347 C 998.202 -0.538235 1.51525 0
M  V30 10348 O 999.392 -0.350027 1.70647 0
M  V30 10349 C 996.524 -0.574428 3.36025 0
M  V30 10350 H 997.717 1.13655 2.77529 0
M  V30 10351 H 995.27 0.626878 1.43178 0
M  V30 10352 H 996.005 -1.43191 2.90976 0
M  V30 10353 H 995.79 0.0262265 3.92091 0
M  V30 10354 H 997.28 -0.9533 4.06573 0
M  V30 10355 N 997.718 -1.45297 0.610449 0
M  V30 10356 C 998.958 -2.04105 0.109802 0
M  V30 10357 C 999.322 -1.46818 -1.23727 0
M  V30 10358 O 1000.52 -1.96997 -1.82881 0
M  V30 10359 C 998.794 -3.57323 0.0741377 0
M  V30 10360 S 1000.35 -4.3728 -0.364901 0
M  V30 10361 H 997.171 -0.709171 0.050967 0
M  V30 10362 H 999.773 -1.77967 0.809194 0
M  V30 10363 H 998.477 -3.96528 1.05801 0
M  V30 10364 H 998.008 -3.8804 -0.647158 0
M  V30 10365 H 1000.02 -4.69224 -1.61379 0
M  V30 10366 N 999.196 -0.349774 -1.5367 0
M  V30 10367 C 1000.43 0.245682 -2.05134 0
M  V30 10368 C 1000.83 1.44269 -1.22406 0
M  V30 10369 O 1000.18 1.81938 -0.25379 0
M  V30 10370 C 1000.24 0.718439 -3.52248 0
M  V30 10371 C 999.903 -0.35975 -4.55582 0
M  V30 10372 C 1000.9 -1.20449 -5.05755 0
M  V30 10373 C 998.585 -0.515463 -4.99648 0
M  V30 10374 C 1000.58 -2.19043 -5.98581 0
M  V30 10375 C 998.266 -1.50479 -5.92283 0
M  V30 10376 C 999.264 -2.34072 -6.41638 0
M  V30 10377 O 998.952 -3.31319 -7.3245 0
M  V30 10378 H 998.684 0.0501122 -0.67414 0
M  V30 10379 H 1001.24 -0.5018 -1.99176 0
M  V30 10380 H 999.468 1.51727 -3.55691 0
M  V30 10381 H 1001.16 1.23513 -3.86651 0
M  V30 10382 H 1001.92 -1.09531 -4.7247 0
M  V30 10383 H 997.802 0.12537 -4.60829 0
M  V30 10384 H 1001.35 -2.84327 -6.37027 0
M  V30 10385 H 997.243 -1.61451 -6.24983 0
M  V30 10386 H 998.011 -3.26863 -7.50402 0
M  V30 10387 N 1000.67 1.57404 -0.0785433 0
M  V30 10388 C 1001.62 2.13104 0.88631 0
M  V30 10389 C 1002.59 1.04527 1.29086 0
M  V30 10390 O 1003.78 1.32226 1.37553 0
M  V30 10391 C 1000.92 2.70252 2.14611 0
M  V30 10392 C 1000.03 3.93007 1.79358 0
M  V30 10393 C 999.164 4.38376 3 0
M  V30 10394 C 998.203 5.53761 2.60796 0
M  V30 10395 N 997.34 5.94058 3.74219 0
M  V30 10396 H 1002.18 2.95243 0.404452 0
M  V30 10397 H 999.717 1.45894 0.187982 0
M  V30 10398 H 1001.67 3.01497 2.88367 0
M  V30 10399 H 1000.3 1.90868 2.60326 0
M  V30 10400 H 999.357 3.68181 0.956384 0
M  V30 10401 H 1000.67 4.76795 1.4652 0
M  V30 10402 H 999.823 4.71317 3.82027 0
M  V30 10403 H 998.562 3.53455 3.36037 0
M  V30 10404 H 997.567 5.20464 1.77192 0
M  V30 10405 H 998.792 6.40419 2.25922 0
M  V30 10406 H 996.738 5.12085 4.10005 0
M  V30 10407 H 996.655 6.72602 3.45171 0
M  V30 10408 H 997.923 6.31624 4.56805 0
M  V30 10409 N 1002.15 -0.195058 1.56388 0
M  V30 10410 C 1003.08 -1.24444 1.97575 0
M  V30 10411 C 1004.06 -1.47471 0.847717 0
M  V30 10412 O 1005.25 -1.59208 1.11205 0
M  V30 10413 C 1002.38 -2.58866 2.31529 0
M  V30 10414 C 1001.33 -2.50451 3.47071 0
M  V30 10415 C 1000.66 -3.89146 3.667 0
M  V30 10416 C 1001.96 -2.02953 4.81256 0
M  V30 10417 H 1003.65 -0.902178 2.85484 0
M  V30 10418 H 1001.2 -0.43254 1.3735 0
M  V30 10419 H 1003.15 -3.3246 2.58936 0
M  V30 10420 H 1001.87 -2.94833 1.40502 0
M  V30 10421 H 1000.53 -1.79313 3.19754 0
M  V30 10422 H 1000.18 -4.22466 2.73004 0
M  V30 10423 H 999.882 -3.84391 4.44429 0
M  V30 10424 H 1001.41 -4.64363 3.96484 0
M  V30 10425 H 1002.82 -2.66306 5.07695 0
M  V30 10426 H 1001.22 -2.092 5.62455 0
M  V30 10427 H 1002.29 -0.982757 4.74837 0
M  V30 10428 N 1003.63 -1.50653 -0.462772 0
M  V30 10429 C 1004.88 -1.63264 -1.21311 0
M  V30 10430 C 1005.23 -0.332647 -1.89503 0
M  V30 10431 O 1004.52 0.669994 -1.79504 0
M  V30 10432 C 1004.72 -2.75637 -2.27507 0
M  V30 10433 C 1004.55 -4.16438 -1.69734 0
M  V30 10434 C 1003.32 -4.82727 -1.49341 0
M  V30 10435 C 1005.51 -5.00399 -1.18765 0
M  V30 10436 N 1003.5 -6.07718 -0.868991 0
M  V30 10437 C 1004.87 -6.16182 -0.68697 0
M  V30 10438 C 1006.92 -4.86112 -1.07699 0
M  V30 10439 C 1005.63 -7.19248 -0.0865268 0
M  V30 10440 C 1007.65 -5.89363 -0.490473 0
M  V30 10441 C 1007.01 -7.044 -0.000208479 0
M  V30 10442 H 1003.11 -0.651518 -0.432491 0
M  V30 10443 H 1005.7 -1.878 -0.51375 0
M  V30 10444 H 1003.87 -2.52809 -2.9486 0
M  V30 10445 H 1005.6 -2.77562 -2.94519 0
M  V30 10446 H 1002.35 -4.40161 -1.74801 0
M  V30 10447 H 1002.78 -6.74554 -0.574957 0
M  V30 10448 H 1007.42 -3.97452 -1.44194 0
M  V30 10449 H 1005.14 -8.07577 0.290614 0
M  V30 10450 H 1008.72 -5.80374 -0.407099 0
M  V30 10451 H 1007.6 -7.82928 0.44652 0
M  V30 10452 N 1005.11 0.71652 -1.4037 0
M  V30 10453 C 1006.36 1.47347 -1.38324 0
M  V30 10454 C 1006.68 1.94995 0.0139949 0
M  V30 10455 O 1005.95 1.7028 0.968585 0
M  V30 10456 H 1004.53 0.546662 -0.509087 0
M  V30 10457 H 1007.19 0.849455 -1.75415 0
M  V30 10458 H 1006.29 2.34675 -2.05752 0
M  V30 10459 N 1006.59 1.25851 0.948643 0
M  V30 10460 C 1008 1.09975 1.50872 0
M  V30 10461 C 1008.35 -0.322497 1.93531 0
M  V30 10462 O 1007.47 -1.21316 1.79197 0
M  V30 10463 C 1008.07 1.99021 2.74182 0
M  V30 10464 C 1006.63 1.87313 3.26483 0
M  V30 10465 C 1005.77 1.92815 1.99293 0
M  V30 10466 H 1008.73 1.3905 0.764908 0
M  V30 10467 H 1008.75 1.53372 3.4822 0
M  V30 10468 H 1008.26 3.02527 2.43103 0
M  V30 10469 H 1006.36 0.867136 3.62369 0
M  V30 10470 H 1006.47 2.72446 3.94094 0
M  V30 10471 H 1004.84 1.36774 2.1486 0
M  V30 10472 H 1005.62 2.97936 1.70554 0
M  V30 10473 N 1008.06 -1.15214 1.07534 0
M  V30 10474 C 1009.31 -1.85676 0.79805 0
M  V30 10475 C 1009.63 -1.82837 -0.677919 0
M  V30 10476 O 1008.9 -1.27059 -1.49107 0
M  V30 10477 H 1007.48 -0.687468 0.292227 0
M  V30 10478 H 1010.15 -1.39658 1.35947 0
M  V30 10479 H 1009.24 -2.9076 1.13423 0
M  V30 10480 N 1009.54 -0.859717 -1.32086 0
M  V30 10481 C 1010.47 -0.323502 -2.31248 0
M  V30 10482 C 1011.45 0.580085 -1.59903 0
M  V30 10483 O 1012.64 0.499265 -1.87673 0
M  V30 10484 C 1009.77 0.484661 -3.43902 0
M  V30 10485 C 1008.72 -0.324933 -4.26765 0
M  V30 10486 C 1008.05 0.608281 -5.31229 0
M  V30 10487 C 1009.35 -1.55344 -4.98664 0
M  V30 10488 H 1011.04 -1.15209 -2.76346 0
M  V30 10489 H 1008.59 -0.555442 -1.32856 0
M  V30 10490 H 1010.54 0.870238 -4.12316 0
M  V30 10491 H 1009.27 1.34666 -2.97544 0
M  V30 10492 H 1007.92 -0.692328 -3.60003 0
M  V30 10493 H 1007.57 1.46727 -4.81124 0
M  V30 10494 H 1007.27 0.0705571 -5.87558 0
M  V30 10495 H 1008.8 0.990925 -6.02506 0
M  V30 10496 H 1010.21 -1.23987 -5.59732 0
M  V30 10497 H 1008.61 -2.02947 -5.64741 0
M  V30 10498 H 1009.68 -2.31192 -4.26237 0
M  V30 10499 N 1011.02 1.44971 -0.618145 0
M  V30 10500 C 1012.43 1.85611 -0.201334 0
M  V30 10501 C 1012.78 1.51698 1.24427 0
M  V30 10502 O 1011.91 0.94875 1.94493 0
M  V30 10503 C 1012.5 3.36897 -0.358619 0
M  V30 10504 C 1011.06 3.764 0.00358196 0
M  V30 10505 C 1010.21 2.68881 -0.678118 0
M  V30 10506 H 1013.16 1.35622 -0.824152 0
M  V30 10507 H 1013.18 3.78326 0.406176 0
M  V30 10508 H 1012.69 3.61548 -1.41084 0
M  V30 10509 H 1010.79 3.57365 1.05457 0
M  V30 10510 H 1010.91 4.77449 -0.397427 0
M  V30 10511 H 1009.27 2.54442 -0.114699 0
M  V30 10512 H 1010.05 2.96367 -1.73268 0
M  V30 10513 N 1012.5 0.357919 1.53482 0
M  V30 10514 C 1013.45 -0.507364 2.26999 0
M  V30 10515 C 1014.44 -1.08987 1.29685 0
M  V30 10516 O 1015.65 -1.03396 1.47341 0
M  V30 10517 H 1012.02 -0.182326 0.729562 0
M  V30 10518 H 1013.99 0.134547 2.98097 0
M  V30 10519 C 1012.74 -1.63911 3.06641 0
M  V30 10520 H 1012.06 -1.20017 3.81361 0
M  V30 10521 H 1013.5 -2.21943 3.61272 0
M  V30 10522 C 1011.96 -2.57697 2.17011 0
M  V30 10523 O 1012.49 -3.60318 1.77578 0
M  V30 10524 N 1010.7 -2.2671 1.818 0
M  V30 10525 H 1010.25 -1.43296 2.14065 0
M  V30 10526 H 1010.2 -2.89716 1.22115 0
M  V30 10527 N 1013.98 -1.5736 0.0868897 0
M  V30 10528 C 1015.22 -1.94054 -0.578741 0
M  V30 10529 C 1015.55 -0.968047 -1.68698 0
M  V30 10530 O 1014.81 0.0137824 -1.95695 0
M  V30 10531 C 1015.11 -3.37316 -1.18123 0
M  V30 10532 C 1014.77 -4.50467 -0.197607 0
M  V30 10533 C 1013.43 -4.81145 0.072952 0
M  V30 10534 C 1015.79 -5.19036 0.474473 0
M  V30 10535 C 1013.11 -5.77723 1.02242 0
M  V30 10536 C 1015.47 -6.16632 1.41236 0
M  V30 10537 C 1014.13 -6.45719 1.69124 0
M  V30 10538 H 1013.4 -0.710093 -0.211776 0
M  V30 10539 H 1016.05 -1.90822 0.160978 0
M  V30 10540 H 1014.35 -3.37085 -1.99701 0
M  V30 10541 H 1016.05 -3.63003 -1.7038 0
M  V30 10542 H 1012.64 -4.2655 -0.418669 0
M  V30 10543 H 1016.82 -4.95518 0.278581 0
M  V30 10544 H 1012.08 -5.98578 1.24557 0
M  V30 10545 H 1016.25 -6.68862 1.939 0
M  V30 10546 H 1013.88 -7.20365 2.42855 0
M  V30 10547 N 1015.45 0.186762 -1.56489 0
M  V30 10548 C 1016.7 0.905852 -1.81109 0
M  V30 10549 C 1017.03 1.82906 -0.661477 0
M  V30 10550 O 1016.28 1.92504 0.35226 0
M  V30 10551 C 1016.58 1.74719 -3.11782 0
M  V30 10552 C 1016.25 0.974238 -4.40249 0
M  V30 10553 C 1014.91 0.760856 -4.75147 0
M  V30 10554 C 1017.26 0.430971 -5.19415 0
M  V30 10555 C 1014.59 -0.00714216 -5.867 0
M  V30 10556 C 1016.94 -0.323859 -6.3177 0
M  V30 10557 C 1015.61 -0.548183 -6.65245 0
M  V30 10558 H 1014.88 0.331475 -0.662726 0
M  V30 10559 H 1017.52 0.171703 -1.90729 0
M  V30 10560 H 1015.83 2.55027 -2.97437 0
M  V30 10561 H 1017.53 2.30634 -3.28038 0
M  V30 10562 H 1014.12 1.15057 -4.12868 0
M  V30 10563 H 1018.3 0.583205 -4.92861 0
M  V30 10564 H 1013.56 -0.190832 -6.11102 0
M  V30 10565 H 1017.73 -0.752155 -6.92326 0
M  V30 10566 H 1015.36 -1.14518 -7.51525 0
M  V30 10567 N 1016.93 1.50896 0.454776 0
M  V30 10568 C 1018.35 1.38684 0.78987 0
M  V30 10569 C 1018.55 0.455587 1.96282 0
M  V30 10570 O 1017.6 -0.0957503 2.52318 0
M  V30 10571 C 1018.92 2.80381 1.08661 0
M  V30 10572 C 1020.47 2.8941 1.19209 0
M  V30 10573 C 1020.94 4.31976 1.52187 0
M  V30 10574 N 1022.43 4.35002 1.59146 0
M  V30 10575 C 1023.17 5.42326 1.862 0
M  V30 10576 N 1022.66 6.59835 2.11164 0
M  V30 10577 N 1024.46 5.29786 1.87838 0
M  V30 10578 H 1016.61 2.10006 -0.317981 0
M  V30 10579 H 1018.87 0.944636 -0.0797969 0
M  V30 10580 H 1018.58 3.50438 0.297626 0
M  V30 10581 H 1018.45 3.18634 2.01872 0
M  V30 10582 H 1020.84 2.19561 1.97173 0
M  V30 10583 H 1020.92 2.54677 0.239401 0
M  V30 10584 H 1020.56 5.02368 0.747576 0
M  V30 10585 H 1020.49 4.64208 2.48633 0
M  V30 10586 H 1022.98 3.50276 1.41828 0
M  V30 10587 H 1023.3 7.37428 2.31128 0
M  V30 10588 H 1021.64 6.62981 2.08522 0
M  V30 10589 H 1024.83 4.36974 1.67843 0
M  V30 10590 H 1025 6.13511 2.08585 0
M  V30 10591 N 1018.41 -0.709066 1.40748 0
M  V30 10592 C 1019.37 -1.80485 1.41272 0
M  V30 10593 C 1020.37 -1.57872 0.305463 0
M  V30 10594 O 1021.56 -1.64793 0.564691 0
M  V30 10595 C 1018.7 -3.1867 1.21087 0
M  V30 10596 H 1019.89 -1.81417 2.38805 0
M  V30 10597 H 1017.44 -0.915356 1.26692 0
M  V30 10598 H 1018.18 -3.23385 0.243406 0
M  V30 10599 H 1017.96 -3.36484 2.01299 0
M  V30 10600 H 1019.45 -3.98685 1.24257 0
M  V30 10601 N 1019.89 -1.26353 -0.941956 0
M  V30 10602 C 1020.82 -1.10341 -2.05784 0
M  V30 10603 C 1021.8 -0.00881565 -1.70098 0
M  V30 10604 O 1022.99 -0.180699 -1.93357 0
M  V30 10605 C 1020.12 -0.734788 -3.39438 0
M  V30 10606 C 1019.07 -1.78103 -3.89183 0
M  V30 10607 C 1018.4 -1.26675 -5.19478 0
M  V30 10608 C 1019.7 -3.1824 -4.14151 0
M  V30 10609 H 1021.39 -2.03684 -2.19438 0
M  V30 10610 H 1018.94 -0.980698 -1.05443 0
M  V30 10611 H 1020.89 -0.609653 -4.16967 0
M  V30 10612 H 1019.61 0.234354 -3.25758 0
M  V30 10613 H 1018.27 -1.89482 -3.13835 0
M  V30 10614 H 1017.92 -0.287472 -5.02178 0
M  V30 10615 H 1017.62 -1.96612 -5.53731 0
M  V30 10616 H 1019.14 -1.15427 -5.99591 0
M  V30 10617 H 1020.56 -3.09942 -4.82296 0
M  V30 10618 H 1018.95 -3.8576 -4.59684 0
M  V30 10619 H 1020.02 -3.64354 -3.19959 0
M  V30 10620 N 1021.37 1.14642 -1.08144 0
M  V30 10621 C 1022.28 2.23257 -0.720668 0
M  V30 10622 C 1023.29 1.71866 0.271648 0
M  V30 10623 O 1024.47 2.01064 0.116266 0
M  V30 10624 C 1021.53 3.46447 -0.132542 0
M  V30 10625 C 1020.6 4.12789 -1.17913 0
M  V30 10626 C 1019.83 5.30099 -0.618971 0
M  V30 10627 O 1020.05 5.6762 0.562418 0
M  V30 10628 O 1018.99 5.86154 -1.36774 0
M  V30 10629 H 1022.81 2.56463 -1.62667 0
M  V30 10630 H 1020.4 1.22521 -0.854932 0
M  V30 10631 H 1022.28 4.20959 0.19277 0
M  V30 10632 H 1020.95 3.14971 0.746662 0
M  V30 10633 H 1019.86 3.40163 -1.55693 0
M  V30 10634 H 1021.19 4.48365 -2.03051 0
M  V30 10635 N 1022.85 0.866709 1.31628 0
M  V30 10636 C 1024.12 0.396828 1.91532 0
M  V30 10637 C 1024.5 -1.12081 1.78889 0
M  V30 10638 O 1023.85 -1.94791 1.19452 0
M  V30 10639 C 1024.06 0.874578 3.37864 0
M  V30 10640 C 1025.41 0.8988 4.14978 0
M  V30 10641 O 1026.43 0.820014 3.46633 0
M  V30 10642 O 1025.29 1.01223 5.37044 0
M  V30 10643 H 1022.39 0.1181 0.818524 0
M  V30 10644 H 1024.93 0.954407 1.40318 0
M  V30 10645 H 1023.7 1.91807 3.41066 0
M  V30 10646 H 1023.33 0.295126 3.96503 0
M  V30 10647 N 1024.32 -1.44642 0.625825 0
M  V30 10648 C 1025.57 -2.01308 0.125682 0
M  V30 10649 C 1025.89 -1.49773 -1.25807 0
M  V30 10650 O 1027.09 -1.98533 -1.85194 0
M  V30 10651 C 1025.55 -3.59479 0.17395 0
M  V30 10652 C 1025.16 -4.20011 1.55868 0
M  V30 10653 C 1026.9 -4.2364 -0.270005 0
M  V30 10654 C 1024.81 -5.7039 1.56235 0
M  V30 10655 H 1023.74 -0.75276 0.0432194 0
M  V30 10656 H 1026.39 -1.65916 0.783842 0
M  V30 10657 H 1024.77 -3.92145 -0.551212 0
M  V30 10658 H 1025.94 -3.98891 2.307 0
M  V30 10659 H 1024.26 -3.68116 1.94627 0
M  V30 10660 H 1026.86 -5.33931 -0.28672 0
M  V30 10661 H 1027.2 -3.95603 -1.29629 0
M  V30 10662 H 1027.73 -3.95759 0.402487 0
M  V30 10663 H 1024.47 -6.03154 2.56683 0
M  V30 10664 H 1023.99 -5.93648 0.856881 0
M  V30 10665 H 1025.67 -6.33929 1.29396 0
M  V30 10666 N 1025.8 -0.366053 -1.5329 0
M  V30 10667 C 1026.75 0.495319 -2.27265 0
M  V30 10668 C 1027.74 1.08298 -1.30261 0
M  V30 10669 O 1028.95 1.02613 -1.47887 0
M  V30 10670 H 1025.32 0.178454 -0.730519 0
M  V30 10671 H 1027.3 -0.150354 -2.98021 0
M  V30 10672 C 1026.04 1.62283 -3.07505 0
M  V30 10673 H 1025.37 1.17993 -3.81992 0
M  V30 10674 H 1026.81 2.20024 -3.62444 0
M  V30 10675 C 1025.27 2.56542 -2.18375 0
M  V30 10676 O 1025.8 3.59371 -1.79486 0
M  V30 10677 N 1024 2.25742 -1.82999 0
M  V30 10678 H 1023.55 1.42159 -2.14822 0
M  V30 10679 H 1023.51 2.89064 -1.2365 0
M  V30 10680 N 1027.28 1.57312 -0.0952337 0
M  V30 10681 C 1028.7 1.57445 0.261416 0
M  V30 10682 C 1028.9 1.10639 1.68408 0
M  V30 10683 O 1027.95 0.782912 2.40056 0
M  V30 10684 C 1029.26 3.00659 0.0497206 0
M  V30 10685 C 1030.81 3.1278 0.117459 0
M  V30 10686 C 1031.29 4.57952 -0.0662441 0
M  V30 10687 N 1032.78 4.63199 -0.0114146 0
M  V30 10688 C 1033.51 5.73255 -0.128799 0
M  V30 10689 N 1033.01 6.92146 -0.301026 0
M  V30 10690 N 1034.8 5.62056 -0.0700599 0
M  V30 10691 H 1026.95 1.86045 -1.02475 0
M  V30 10692 H 1029.22 0.858726 -0.401614 0
M  V30 10693 H 1028.92 3.39102 -0.932888 0
M  V30 10694 H 1028.8 3.68792 0.791975 0
M  V30 10695 H 1031.18 2.74209 1.09057 0
M  V30 10696 H 1031.26 2.47238 -0.656288 0
M  V30 10697 H 1030.91 4.97217 -1.03623 0
M  V30 10698 H 1030.84 5.21555 0.727198 0
M  V30 10699 H 1033.33 3.77712 0.119154 0
M  V30 10700 H 1033.64 7.71855 -0.382104 0
M  V30 10701 H 1031.99 6.94184 -0.336695 0
M  V30 10702 H 1035.18 4.68057 0.0633587 0
M  V30 10703 H 1035.35 6.4779 -0.164991 0
M  V30 10704 N 1028.76 -0.17846 1.56586 0
M  V30 10705 C 1029.69 -1.22342 1.98884 0
M  V30 10706 C 1030.67 -1.46564 0.86331 0
M  V30 10707 O 1031.85 -1.58019 1.12887 0
M  V30 10708 C 1028.98 -2.56396 2.34261 0
M  V30 10709 C 1027.94 -2.46756 3.49708 0
M  V30 10710 C 1027.26 -3.85235 3.70807 0
M  V30 10711 C 1028.56 -1.97838 4.83381 0
M  V30 10712 H 1030.26 -0.871848 2.86425 0
M  V30 10713 H 1027.8 -0.417948 1.37801 0
M  V30 10714 H 1029.76 -3.29695 2.62448 0
M  V30 10715 H 1028.48 -2.93327 1.43621 0
M  V30 10716 H 1027.14 -1.75912 3.21637 0
M  V30 10717 H 1026.79 -4.19547 2.7747 0
M  V30 10718 H 1026.49 -3.79655 4.48481 0
M  V30 10719 H 1028.01 -4.60131 4.01387 0
M  V30 10720 H 1029.43 -2.60906 5.10491 0
M  V30 10721 H 1027.82 -2.03223 5.64642 0
M  V30 10722 H 1028.89 -0.932339 4.75852 0
M  V30 10723 N 1030.24 -1.51135 -0.446768 0
M  V30 10724 C 1031.48 -1.64542 -1.19573 0
M  V30 10725 C 1031.84 -0.352728 -1.89139 0
M  V30 10726 O 1031.13 0.650917 -1.80204 0
M  V30 10727 C 1031.32 -2.78034 -2.2457 0
M  V30 10728 C 1031.15 -4.18214 -1.65308 0
M  V30 10729 C 1029.92 -4.84284 -1.44212 0
M  V30 10730 C 1032.12 -5.01631 -1.13451 0
M  V30 10731 N 1030.1 -6.08606 -0.804486 0
M  V30 10732 C 1031.47 -6.16876 -0.621577 0
M  V30 10733 C 1033.53 -4.87227 -1.02537 0
M  V30 10734 C 1032.23 -7.19299 -0.0102361 0
M  V30 10735 C 1034.26 -5.8985 -0.427936 0
M  V30 10736 C 1033.62 -7.04361 0.0745026 0
M  V30 10737 H 1029.72 -0.656068 -0.425556 0
M  V30 10738 H 1032.3 -1.88334 -0.493802 0
M  V30 10739 H 1030.47 -2.55922 -2.92162 0
M  V30 10740 H 1032.21 -2.8067 -2.91558 0
M  V30 10741 H 1028.96 -4.4199 -1.70123 0
M  V30 10742 H 1029.38 -6.75126 -0.503379 0
M  V30 10743 H 1034.03 -3.98959 -1.39971 0
M  V30 10744 H 1031.74 -8.07224 0.376252 0
M  V30 10745 H 1035.33 -5.80773 -0.34552 0
M  V30 10746 H 1034.21 -7.8241 0.529535 0
M  V30 10747 N 1031.71 0.701592 -1.41122 0
M  V30 10748 C 1032.62 1.84548 -1.44841 0
M  V30 10749 C 1033.64 1.70654 -0.339594 0
M  V30 10750 O 1034.82 1.92675 -0.586378 0
M  V30 10751 C 1031.88 3.20477 -1.3227 0
M  V30 10752 C 1030.94 3.46524 -2.53415 0
M  V30 10753 C 1030.17 4.75968 -2.41434 0
M  V30 10754 O 1030.4 5.52037 -1.43566 0
M  V30 10755 O 1029.33 5.02664 -3.31078 0
M  V30 10756 H 1033.16 1.84367 -2.41335 0
M  V30 10757 H 1030.74 0.853863 -1.22595 0
M  V30 10758 H 1032.62 4.01642 -1.2752 0
M  V30 10759 H 1031.3 3.21355 -0.388889 0
M  V30 10760 H 1030.21 2.65313 -2.63742 0
M  V30 10761 H 1031.54 3.50455 -3.45604 0
M  V30 10762 N 1033.19 1.2685 0.935242 0
M  V30 10763 C 1034.44 1.12745 1.68211 0
M  V30 10764 C 1034.77 -0.328128 1.91712 0
M  V30 10765 O 1034.02 -1.25701 1.49993 0
M  V30 10766 C 1034.32 1.8482 3.05903 0
M  V30 10767 C 1033.99 3.347 3.02137 0
M  V30 10768 C 1032.65 3.75583 3.00817 0
M  V30 10769 C 1035 4.30368 2.93995 0
M  V30 10770 C 1032.33 5.10511 2.89129 0
M  V30 10771 C 1034.68 5.65343 2.83848 0
M  V30 10772 C 1033.34 6.0553 2.80874 0
M  V30 10773 H 1032.61 0.412563 0.615527 0
M  V30 10774 H 1035.26 1.57366 1.09124 0
M  V30 10775 H 1033.57 1.32685 3.68649 0
M  V30 10776 H 1035.26 1.71341 3.62551 0
M  V30 10777 H 1031.85 3.02182 3.03947 0
M  V30 10778 H 1036.04 3.9976 2.94118 0
M  V30 10779 H 1031.29 5.40802 2.85208 0
M  V30 10780 H 1035.47 6.39151 2.76512 0
M  V30 10781 H 1033.09 7.10037 2.71573 0
M  V30 10782 N 1034.67 -1.14067 1.0875 0
M  V30 10783 C 1035.6 -2.18926 0.67852 0
M  V30 10784 C 1036.62 -1.60441 -0.276163 0
M  V30 10785 O 1037.8 -1.78388 -0.0632788 0
M  V30 10786 C 1034.9 -3.38893 -0.0218852 0
M  V30 10787 C 1034.08 -4.26901 0.952582 0
M  V30 10788 C 1033.14 -5.25418 0.286859 0
M  V30 10789 O 1032.16 -5.61512 0.932354 0
M  V30 10790 N 1033.36 -5.72476 -0.961831 0
M  V30 10791 H 1036.13 -2.54629 1.58063 0
M  V30 10792 H 1033.69 -1.29321 0.974042 0
M  V30 10793 H 1035.68 -4.01864 -0.478278 0
M  V30 10794 H 1034.25 -3.01486 -0.826141 0
M  V30 10795 H 1033.47 -3.60812 1.58772 0
M  V30 10796 H 1034.76 -4.82563 1.61279 0
M  V30 10797 H 1034.16 -5.45287 -1.50594 0
M  V30 10798 H 1032.72 -6.37418 -1.36166 0
M  V30 10799 N 1036.15 -0.873678 -1.31166 0
M  V30 10800 C 1037.06 -0.335726 -2.32185 0
M  V30 10801 C 1038.07 0.556259 -1.64869 0
M  V30 10802 O 1039.25 0.452087 -1.9626 0
M  V30 10803 C 1036.32 0.450822 -3.43756 0
M  V30 10804 C 1035.38 -0.469565 -4.26724 0
M  V30 10805 C 1034.61 0.279538 -5.32967 0
M  V30 10806 O 1034.83 1.50715 -5.50128 0
M  V30 10807 O 1033.77 -0.36452 -6.00795 0
M  V30 10808 H 1037.59 -1.17314 -2.80127 0
M  V30 10809 H 1035.18 -0.637163 -1.35132 0
M  V30 10810 H 1037.06 0.896582 -4.11752 0
M  V30 10811 H 1035.73 1.26472 -2.9797 0
M  V30 10812 H 1034.64 -0.963902 -3.61469 0
M  V30 10813 H 1035.97 -1.24916 -4.76085 0
M  V30 10814 N 1037.63 1.44308 -0.633487 0
M  V30 10815 C 1038.59 2.2912 0.060376 0
M  V30 10816 C 1039.59 1.41166 0.769992 0
M  V30 10817 O 1040.78 1.63012 0.614224 0
M  V30 10818 C 1037.91 3.22798 1.0961 0
M  V30 10819 H 1039.1 2.91958 -0.685617 0
M  V30 10820 H 1036.66 1.51259 -0.393738 0
M  V30 10821 H 1037.39 2.64815 1.87199 0
M  V30 10822 H 1037.18 3.87618 0.591161 0
M  V30 10823 H 1038.67 3.86504 1.58127 0
M  V30 10824 N 1039.1 0.374177 1.53094 0
M  V30 10825 C 1040.35 -0.213981 2.00562 0
M  V30 10826 C 1040.67 -1.4916 1.26533 0
M  V30 10827 O 1041.87 -2.15889 1.64634 0
M  V30 10828 C 1040.33 -0.431876 3.57299 0
M  V30 10829 C 1039.94 0.831615 4.40214 0
M  V30 10830 C 1041.68 -0.977222 4.13099 0
M  V30 10831 C 1039.59 0.582831 5.88521 0
M  V30 10832 H 1038.52 -0.0837386 0.749336 0
M  V30 10833 H 1041.17 0.494245 1.76719 0
M  V30 10834 H 1039.55 -1.20158 3.7733 0
M  V30 10835 H 1040.72 1.60477 4.31953 0
M  V30 10836 H 1039.04 1.30081 3.9556 0
M  V30 10837 H 1041.64 -1.17881 5.21544 0
M  V30 10838 H 1041.98 -1.94189 3.68234 0
M  V30 10839 H 1042.51 -0.267473 3.969 0
M  V30 10840 H 1039.25 1.51807 6.37679 0
M  V30 10841 H 1038.77 -0.151666 5.99608 0
M  V30 10842 H 1040.45 0.211604 6.46654 0
M  V30 10843 N 1040.58 -1.57259 0.103575 0
M  V30 10844 C 1041.81 -1.99424 -0.569638 0
M  V30 10845 C 1042.23 -0.982475 -1.60403 0
M  V30 10846 O 1041.59 0.0479231 -1.81237 0
M  V30 10847 C 1041.64 -3.40527 -1.18633 0
M  V30 10848 O 1040.74 -3.42167 -2.30208 0
M  V30 10849 H 1040.08 -0.648251 -0.143759 0
M  V30 10850 H 1042.61 -2.03739 0.187493 0
M  V30 10851 H 1042.62 -3.78404 -1.5256 0
M  V30 10852 H 1041.3 -4.13686 -0.428582 0
M  V30 10853 H 1039.88 -3.16093 -1.97837 0
M  V30 10854 N 1042.06 0.170153 -1.56679 0
M  V30 10855 C 1043.31 0.884841 -1.817 0
M  V30 10856 C 1043.63 1.82731 -0.680763 0
M  V30 10857 O 1042.9 1.936 0.299294 0
M  V30 10858 H 1041.48 0.329738 -0.670285 0
M  V30 10859 H 1044.14 0.169691 -1.9416 0
M  V30 10860 H 1043.24 1.46104 -2.7579 0
M  V30 10861 N 1043.54 1.5137 0.438746 0
M  V30 10862 C 1044.79 1.63969 1.1883 0
M  V30 10863 C 1045.11 0.355245 1.91228 0
M  V30 10864 O 1044.37 -0.660605 1.84213 0
M  V30 10865 C 1044.67 2.79221 2.23093 0
M  V30 10866 C 1044.33 4.18547 1.67717 0
M  V30 10867 C 1043 4.5645 1.52337 0
M  V30 10868 C 1045.35 5.05494 1.26986 0
M  V30 10869 C 1042.68 5.79007 0.946996 0
M  V30 10870 C 1045.03 6.28628 0.707785 0
M  V30 10871 C 1043.69 6.65305 0.540881 0
M  V30 10872 H 1042.96 0.600003 0.43483 0
M  V30 10873 H 1045.61 1.85398 0.479565 0
M  V30 10874 H 1043.91 2.52008 2.99999 0
M  V30 10875 H 1045.61 2.86168 2.80907 0
M  V30 10876 H 1042.2 3.88663 1.80663 0
M  V30 10877 H 1046.38 4.76818 1.37689 0
M  V30 10878 H 1041.64 6.06072 0.805432 0
M  V30 10879 H 1045.81 6.95342 0.38366 0
M  V30 10880 H 1043.44 7.60144 0.0921324 0
M  V30 10881 N 1045.02 -0.694098 1.41492 0
M  V30 10882 C 1045.95 -1.82042 1.46229 0
M  V30 10883 C 1046.93 -1.67047 0.320803 0
M  V30 10884 O 1048.11 -1.86758 0.53245 0
M  V30 10885 C 1045.24 -3.2019 1.34519 0
M  V30 10886 C 1044.2 -3.49892 2.46495 0
M  V30 10887 C 1043.52 -4.87411 2.1985 0
M  V30 10888 C 1044.82 -3.4872 3.88834 0
M  V30 10889 H 1046.52 -1.78335 2.40493 0
M  V30 10890 H 1044.06 -0.856566 1.15754 0
M  V30 10891 H 1046.02 -3.98699 1.36445 0
M  V30 10892 H 1044.74 -3.24527 0.367406 0
M  V30 10893 H 1043.4 -2.73734 2.43854 0
M  V30 10894 H 1043.05 -4.88375 1.20411 0
M  V30 10895 H 1042.75 -5.08248 2.94885 0
M  V30 10896 H 1044.27 -5.68228 2.23494 0
M  V30 10897 H 1045.68 -4.1723 3.93182 0
M  V30 10898 H 1044.08 -3.81089 4.63564 0
M  V30 10899 H 1045.15 -2.47665 4.16881 0
M  V30 10900 N 1046.49 -1.27344 -0.928501 0
M  V30 10901 C 1047.46 -1.10043 -2.01055 0
M  V30 10902 C 1048.46 -0.0446793 -1.60738 0
M  V30 10903 O 1049.65 -0.289202 -1.71783 0
M  V30 10904 C 1046.78 -0.676559 -3.34119 0
M  V30 10905 H 1047.97 -2.06126 -2.17835 0
M  V30 10906 H 1045.53 -1.10121 -1.10919 0
M  V30 10907 H 1046.26 0.285697 -3.23039 0
M  V30 10908 H 1046.05 -1.43903 -3.64739 0
M  V30 10909 H 1047.54 -0.577725 -4.13584 0
M  V30 10910 N 1047.97 1.13488 -1.09353 0
M  V30 10911 C 1048.94 2.17066 -0.735863 0
M  V30 10912 C 1049.94 1.59086 0.234181 0
M  V30 10913 O 1051.13 1.74196 0.012463 0
M  V30 10914 C 1048.26 3.40786 -0.0880975 0
M  V30 10915 H 1049.45 2.50221 -1.65316 0
M  V30 10916 H 1047 1.28304 -0.89263 0
M  V30 10917 H 1047.74 3.1322 0.840462 0
M  V30 10918 H 1047.52 3.8414 -0.786073 0
M  V30 10919 H 1049.01 4.17342 0.146775 0
M  V30 10920 N 1049.45 0.880621 1.30701 0
M  V30 10921 C 1050.38 0.360251 2.30704 0
M  V30 10922 C 1051.36 -0.554572 1.60806 0
M  V30 10923 O 1052.55 -0.469345 1.88443 0
M  V30 10924 C 1049.68 -0.429888 3.44629 0
M  V30 10925 C 1048.63 0.392786 4.26194 0
M  V30 10926 C 1047.96 -0.52369 5.32129 0
M  V30 10927 C 1049.26 1.63258 4.96129 0
M  V30 10928 H 1050.95 1.19591 2.74478 0
M  V30 10929 H 1048.5 0.576508 1.31956 0
M  V30 10930 H 1050.45 -0.804532 4.13649 0
M  V30 10931 H 1049.17 -1.29916 2.99649 0
M  V30 10932 H 1047.83 0.749514 3.58856 0
M  V30 10933 H 1047.48 -1.39054 4.83397 0
M  V30 10934 H 1047.18 0.0229272 5.87596 0
M  V30 10935 H 1048.71 -0.894946 6.04006 0
M  V30 10936 H 1050.12 1.32877 5.57689 0
M  V30 10937 H 1048.52 2.11906 5.61441 0
M  V30 10938 H 1049.59 2.37944 4.22505 0
M  V30 10939 N 1050.93 -1.4397 0.641131 0
M  V30 10940 C 1052.34 -1.85267 0.230838 0
M  V30 10941 C 1052.69 -1.53659 -1.21998 0
M  V30 10942 O 1051.82 -0.979572 -1.92959 0
M  V30 10943 C 1052.41 -3.36284 0.412171 0
M  V30 10944 C 1050.97 -3.76358 0.0563004 0
M  V30 10945 C 1050.12 -2.67768 0.720809 0
M  V30 10946 H 1053.07 -1.34294 0.845624 0
M  V30 10947 H 1053.09 -3.78924 -0.345936 0
M  V30 10948 H 1052.6 -3.59258 1.46818 0
M  V30 10949 H 1050.7 -3.58997 -0.997582 0
M  V30 10950 H 1050.82 -4.76756 0.473335 0
M  V30 10951 H 1049.18 -2.54227 0.155164 0
M  V30 10952 H 1049.96 -2.93573 1.77961 0
M  V30 10953 N 1052.41 -0.382291 -1.52893 0
M  V30 10954 C 1053.34 0.447829 -2.29165 0
M  V30 10955 C 1054.32 1.06956 -1.32267 0
M  V30 10956 O 1055.5 1.08365 -1.61154 0
M  V30 10957 C 1052.63 1.57902 -3.09329 0
M  V30 10958 C 1051.59 1.08369 -4.14053 0
M  V30 10959 C 1050.91 2.30641 -4.82399 0
M  V30 10960 C 1052.21 0.156591 -5.22065 0
M  V30 10961 H 1053.91 -0.188541 -2.98806 0
M  V30 10962 H 1051.45 -0.0921179 -1.43705 0
M  V30 10963 H 1053.41 2.16652 -3.61442 0
M  V30 10964 H 1052.13 2.24287 -2.37409 0
M  V30 10965 H 1050.79 0.518772 -3.62911 0
M  V30 10966 H 1050.44 2.9552 -4.07034 0
M  V30 10967 H 1050.14 1.98163 -5.53177 0
M  V30 10968 H 1051.66 2.90047 -5.37313 0
M  V30 10969 H 1053.08 0.652065 -5.6958 0
M  V30 10970 H 1051.47 -0.0780978 -6.00049 0
M  V30 10971 H 1052.54 -0.796529 -4.78313 0
M  V30 10972 N 1053.89 1.57202 -0.111913 0
M  V30 10973 C 1055.13 1.94125 0.547573 0
M  V30 10974 C 1055.45 0.997026 1.68282 0
M  V30 10975 O 1056.65 1.26063 2.40459 0
M  V30 10976 C 1055.11 3.44982 1.02545 0
M  V30 10977 C 1054.72 4.47927 -0.0809529 0
M  V30 10978 C 1056.46 3.90837 1.65671 0
M  V30 10979 C 1054.37 5.89955 0.413224 0
M  V30 10980 H 1053.3 0.724651 0.208321 0
M  V30 10981 H 1055.95 1.82507 -0.190625 0
M  V30 10982 H 1054.33 3.5181 1.81785 0
M  V30 10983 H 1055.51 4.52761 -0.857003 0
M  V30 10984 H 1053.82 4.11782 -0.618434 0
M  V30 10985 H 1056.42 4.9436 2.03746 0
M  V30 10986 H 1056.76 3.30417 2.53239 0
M  V30 10987 H 1057.29 3.8678 0.929844 0
M  V30 10988 H 1054.03 6.54113 -0.426238 0
M  V30 10989 H 1053.55 5.88557 1.15591 0
M  V30 10990 H 1055.23 6.41032 0.876756 0
M  V30 10991 N 1055.36 -0.161842 1.56767 0
M  V30 10992 C 1056.78 -0.51396 1.51098 0
M  V30 10993 C 1056.98 -1.84158 0.817815 0
M  V30 10994 O 1056.04 -2.49592 0.382133 0
M  V30 10995 C 1057.35 -0.537966 2.95849 0
M  V30 10996 C 1058.9 -0.624512 3.06706 0
M  V30 10997 C 1059.37 -0.679322 4.52934 0
M  V30 10998 N 1060.86 -0.741953 4.57219 0
M  V30 10999 C 1061.6 -0.805096 5.6772 0
M  V30 11000 N 1061.09 -0.828492 6.87828 0
M  V30 11001 N 1062.89 -0.844843 5.55715 0
M  V30 11002 H 1055.04 0.708581 2.00232 0
M  V30 11003 H 1057.3 0.25663 0.912603 0
M  V30 11004 H 1057.01 0.369052 3.49758 0
M  V30 11005 H 1056.88 -1.38113 3.51005 0
M  V30 11006 H 1059.27 -1.52195 2.52825 0
M  V30 11007 H 1059.35 0.245515 2.54619 0
M  V30 11008 H 1058.99 0.213901 5.07449 0
M  V30 11009 H 1058.92 -1.56563 5.02788 0
M  V30 11010 H 1061.41 -0.731772 3.70747 0
M  V30 11011 H 1061.73 -0.878109 7.67795 0
M  V30 11012 H 1060.07 -0.796612 6.9042 0
M  V30 11013 H 1063.26 -0.823632 4.60797 0
M  V30 11014 H 1063.44 -0.890588 6.41851 0
M  V30 11015 N 1056.84 -1.516 -0.430713 0
M  V30 11016 C 1057.75 -1.76247 -1.54836 0
M  V30 11017 C 1058.77 -0.646985 -1.61524 0
M  V30 11018 O 1059.94 -0.929987 -1.78643 0
M  V30 11019 C 1057.01 -1.88833 -2.90763 0
M  V30 11020 C 1056.07 -3.12701 -2.94137 0
M  V30 11021 C 1055.3 -3.24676 -4.23581 0
M  V30 11022 O 1055.53 -2.42429 -5.16318 0
M  V30 11023 O 1054.46 -4.17697 -4.33374 0
M  V30 11024 H 1058.29 -2.71069 -1.3695 0
M  V30 11025 H 1055.87 -1.36182 -0.614396 0
M  V30 11026 H 1057.75 -1.99057 -3.71422 0
M  V30 11027 H 1056.43 -0.971987 -3.08762 0
M  V30 11028 H 1055.33 -3.0795 -2.1241 0
M  V30 11029 H 1056.67 -4.04045 -2.81084 0
M  V30 11030 N 1058.32 0.686584 -1.41858 0
M  V30 11031 C 1059.74 0.998283 -1.24525 0
M  V30 11032 C 1059.94 2.01006 -0.141007 0
M  V30 11033 O 1058.99 2.47667 0.491648 0
M  V30 11034 C 1060.3 1.51432 -2.59786 0
M  V30 11035 C 1061.85 1.6327 -2.67043 0
M  V30 11036 C 1062.33 2.18274 -4.02642 0
M  V30 11037 N 1063.82 2.25622 -4.04535 0
M  V30 11038 C 1064.55 2.69229 -5.06264 0
M  V30 11039 N 1064.05 3.12375 -6.1838 0
M  V30 11040 N 1065.84 2.68873 -4.93623 0
M  V30 11041 H 1057.99 0.0164825 -2.12394 0
M  V30 11042 H 1060.26 0.0698613 -0.945422 0
M  V30 11043 H 1059.96 0.845426 -3.41388 0
M  V30 11044 H 1059.84 2.49502 -2.82894 0
M  V30 11045 H 1062.22 2.29269 -1.85794 0
M  V30 11046 H 1062.3 0.637221 -2.47736 0
M  V30 11047 H 1061.95 1.52887 -4.84343 0
M  V30 11048 H 1061.88 3.18591 -4.19294 0
M  V30 11049 H 1064.37 1.95186 -3.23591 0
M  V30 11050 H 1064.68 3.44301 -6.91864 0
M  V30 11051 H 1063.03 3.10262 -6.21902 0
M  V30 11052 H 1066.22 2.34521 -4.05114 0
M  V30 11053 H 1066.39 3.02539 -5.7304 0
M  V30 11054 N 1059.8 1.27835 0.921735 0
M  V30 11055 C 1061.04 1.14692 1.67253 0
M  V30 11056 C 1061.38 -0.305384 1.91784 0
M  V30 11057 O 1060.65 -1.22286 1.51249 0
M  V30 11058 C 1060.93 1.93743 3.03539 0
M  V30 11059 C 1060.79 3.46991 2.86212 0
M  V30 11060 C 1062.11 1.74658 4.03959 0
M  V30 11061 H 1059.23 0.418021 0.606983 0
M  V30 11062 H 1061.87 1.5706 1.06922 0
M  V30 11063 H 1060.02 1.57738 3.55037 0
M  V30 11064 H 1061.69 3.92858 2.41785 0
M  V30 11065 H 1059.93 3.73029 2.21432 0
M  V30 11066 H 1060.6 3.97551 3.82958 0
M  V30 11067 H 1063.08 2.06063 3.61493 0
M  V30 11068 H 1061.96 2.32353 4.97296 0
M  V30 11069 H 1062.22 0.696019 4.36587 0
M  V30 11070 N 1061.28 -1.12907 1.09954 0
M  V30 11071 C 1062.69 -1.65847 0.857417 0
M  V30 11072 C 1063.04 -1.86372 -0.613176 0
M  V30 11073 O 1062.16 -1.58654 -1.47166 0
M  V30 11074 C 1062.76 -3.01269 1.54991 0
M  V30 11075 C 1061.32 -3.51179 1.35462 0
M  V30 11076 C 1060.46 -2.26307 1.60251 0
M  V30 11077 H 1063.41 -0.96755 1.25794 0
M  V30 11078 H 1063.44 -3.675 0.986091 0
M  V30 11079 H 1062.95 -2.86299 2.6202 0
M  V30 11080 H 1061.05 -3.71343 0.305742 0
M  V30 11081 H 1061.16 -4.30955 2.09318 0
M  V30 11082 H 1059.53 -2.33167 1.02494 0
M  V30 11083 H 1060.31 -2.13896 2.68521 0
M  V30 11084 N 1062.75 -0.88754 -1.30232 0
M  V30 11085 C 1064 -0.506277 -1.95656 0
M  V30 11086 C 1064.32 0.948191 -1.70395 0
M  V30 11087 O 1063.59 1.66701 -1.02895 0
M  V30 11088 H 1062.17 -0.184235 -0.723924 0
M  V30 11089 H 1064.83 -1.13118 -1.58715 0
M  V30 11090 H 1063.93 -0.678673 -3.04632 0
M  V30 11091 N 1064.23 1.43628 -0.648757 0
M  V30 11092 C 1065.2 2.29172 0.0360713 0
M  V30 11093 C 1066.2 1.41974 0.754976 0
M  V30 11094 O 1067.39 1.63654 0.5969 0
M  V30 11095 C 1064.52 3.23942 1.0618 0
M  V30 11096 H 1065.71 2.91214 -0.716544 0
M  V30 11097 H 1063.26 1.50833 -0.409759 0
M  V30 11098 H 1064 2.66786 1.8438 0
M  V30 11099 H 1063.78 3.88223 0.550016 0
M  V30 11100 H 1065.27 3.8816 1.54019 0
M  V30 11101 N 1065.71 0.390394 1.52688 0
M  V30 11102 C 1066.94 -0.194013 2.06491 0
M  V30 11103 C 1067.36 -1.3965 1.26014 0
M  V30 11104 O 1066.72 -1.79038 0.285468 0
M  V30 11105 C 1066.77 -0.541306 3.56514 0
M  V30 11106 O 1065.87 -1.63509 3.78601 0
M  V30 11107 H 1065.21 -0.0223608 0.663623 0
M  V30 11108 H 1067.74 0.558179 1.96839 0
M  V30 11109 H 1067.75 -0.805301 3.99974 0
M  V30 11110 H 1066.43 0.337828 4.14526 0
M  V30 11111 H 1065 -1.36473 3.4703 0
M  V30 11112 N 1067.19 -1.57141 0.120249 0
M  V30 11113 C 1068.41 -2.00017 -0.548454 0
M  V30 11114 C 1068.84 -0.999433 -1.59352 0
M  V30 11115 O 1068.2 0.0286978 -1.81277 0
M  V30 11116 C 1068.24 -3.41766 -1.15015 0
M  V30 11117 O 1067.35 -3.44589 -2.26566 0
M  V30 11118 H 1066.69 -0.649739 -0.136875 0
M  V30 11119 H 1069.22 -2.03529 0.209092 0
M  V30 11120 H 1069.23 -3.80001 -1.48537 0
M  V30 11121 H 1067.9 -4.14117 -0.384681 0
M  V30 11122 H 1066.48 -3.18174 -1.94473 0
M  V30 11123 N 1068.67 0.153526 -1.5685 0
M  V30 11124 C 1069.91 0.867232 -1.8299 0
M  V30 11125 C 1070.24 1.81462 -0.700125 0
M  V30 11126 O 1069.5 1.93207 0.311348 0
M  V30 11127 C 1069.8 1.68066 -3.15418 0
M  V30 11128 C 1069.46 0.880635 -4.42217 0
M  V30 11129 C 1068.12 0.659899 -4.76654 0
M  V30 11130 C 1070.48 0.320698 -5.20212 0
M  V30 11131 C 1067.8 -0.131588 -5.86552 0
M  V30 11132 C 1070.16 -0.457794 -6.30941 0
M  V30 11133 C 1068.82 -0.689168 -6.63933 0
M  V30 11134 H 1068.09 0.317343 -0.669608 0
M  V30 11135 H 1070.74 0.131208 -1.9105 0
M  V30 11136 H 1069.04 2.4866 -3.02779 0
M  V30 11137 H 1070.74 2.23623 -3.32857 0
M  V30 11138 H 1067.33 1.06274 -4.15215 0
M  V30 11139 H 1071.51 0.47853 -4.93988 0
M  V30 11140 H 1066.77 -0.320413 -6.1056 0
M  V30 11141 H 1070.94 -0.898839 -6.90575 0
M  V30 11142 H 1068.57 -1.30433 -7.48927 0
M  V30 11143 N 1070.14 1.51827 0.422667 0
M  V30 11144 C 1071.09 1.74198 1.51406 0
M  V30 11145 C 1072.06 0.584013 1.55494 0
M  V30 11146 O 1073.25 0.820079 1.72277 0
M  V30 11147 C 1070.39 1.88627 2.88988 0
M  V30 11148 C 1069.5 3.16233 2.94314 0
M  V30 11149 C 1068.63 3.21172 4.2311 0
M  V30 11150 C 1067.67 4.43033 4.2236 0
M  V30 11151 N 1066.81 4.4544 5.42704 0
M  V30 11152 H 1071.65 2.67352 1.31632 0
M  V30 11153 H 1069.19 1.32487 0.63919 0
M  V30 11154 H 1071.15 1.94976 3.68837 0
M  V30 11155 H 1069.78 0.988673 3.07287 0
M  V30 11156 H 1068.83 3.19123 2.07039 0
M  V30 11157 H 1070.14 4.06104 2.89623 0
M  V30 11158 H 1069.29 3.26517 5.11343 0
M  V30 11159 H 1068.03 2.29216 4.30478 0
M  V30 11160 H 1067.04 4.37849 3.32518 0
M  V30 11161 H 1068.26 5.3627 4.16643 0
M  V30 11162 H 1066.21 3.56361 5.50766 0
M  V30 11163 H 1066.13 5.29138 5.39953 0
M  V30 11164 H 1067.39 4.54997 6.32928 0
M  V30 11165 N 1071.62 -0.679052 1.4222 0
M  V30 11166 C 1072.55 -1.80481 1.48152 0
M  V30 11167 C 1073.53 -1.66698 0.338502 0
M  V30 11168 O 1074.72 -1.86183 0.552228 0
M  V30 11169 C 1071.85 -3.18746 1.37908 0
M  V30 11170 C 1070.8 -3.47258 2.50192 0
M  V30 11171 C 1070.13 -4.85052 2.25008 0
M  V30 11172 C 1071.43 -3.44576 3.92511 0
M  V30 11173 H 1073.12 -1.75774 2.42371 0
M  V30 11174 H 1070.67 -0.844241 1.16656 0
M  V30 11175 H 1072.62 -3.97229 1.40666 0
M  V30 11176 H 1071.35 -3.24119 0.401806 0
M  V30 11177 H 1070 -2.71133 2.46744 0
M  V30 11178 H 1069.65 -4.8707 1.25584 0
M  V30 11179 H 1069.35 -5.05092 3.00259 0
M  V30 11180 H 1070.88 -5.65825 2.29508 0
M  V30 11181 H 1072.29 -4.13036 3.97585 0
M  V30 11182 H 1070.69 -3.76151 4.67579 0
M  V30 11183 H 1071.76 -2.4323 4.19484 0
M  V30 11184 N 1073.1 -1.28322 -0.914942 0
M  V30 11185 C 1074.05 -1.12146 -2.01722 0
M  V30 11186 C 1075.02 -0.0189279 -1.66089 0
M  V30 11187 O 1076.2 -0.183638 -1.89914 0
M  V30 11188 C 1073.34 -0.78808 -3.35981 0
M  V30 11189 C 1072.46 -1.96954 -3.84491 0
M  V30 11190 C 1071.59 -1.57688 -5.07255 0
M  V30 11191 C 1070.63 -2.72506 -5.48094 0
M  V30 11192 N 1069.77 -2.33741 -6.62049 0
M  V30 11193 H 1074.61 -2.06461 -2.1489 0
M  V30 11194 H 1072.14 -1.0276 -1.05256 0
M  V30 11195 H 1074.1 -0.575546 -4.13211 0
M  V30 11196 H 1072.73 0.118132 -3.22584 0
M  V30 11197 H 1071.78 -2.29423 -3.03429 0
M  V30 11198 H 1073.1 -2.8304 -4.10719 0
M  V30 11199 H 1072.25 -1.32634 -5.92025 0
M  V30 11200 H 1070.99 -0.687291 -4.82833 0
M  V30 11201 H 1069.99 -2.9826 -4.61867 0
M  V30 11202 H 1071.22 -3.62106 -5.74505 0
M  V30 11203 H 1069.16 -1.4725 -6.3926 0
M  V30 11204 H 1069.08 -3.13364 -6.87997 0
M  V30 11205 H 1070.35 -2.11968 -7.50127 0
M  V30 11206 N 1074.58 1.12322 -1.10551 0
M  V30 11207 C 1075.53 2.20166 -0.750317 0
M  V30 11208 C 1076.52 1.67484 0.254066 0
M  V30 11209 O 1077.73 1.79637 0.114309 0
M  V30 11210 H 1074.1 0.717642 -0.22471 0
M  V30 11211 H 1076.07 2.47378 -1.66873 0
M  V30 11212 C 1074.82 3.47126 -0.199651 0
M  V30 11213 H 1074.14 3.88011 -0.963735 0
M  V30 11214 H 1075.58 4.23999 0.0108033 0
M  V30 11215 C 1074.04 3.19526 1.06792 0
M  V30 11216 O 1074.57 3.39368 2.14923 0
M  V30 11217 N 1072.78 2.73324 0.987032 0
M  V30 11218 H 1072.33 2.57378 0.106997 0
M  V30 11219 H 1072.28 2.55234 1.83584 0
M  V30 11220 N 1076.06 0.894434 1.2976 0
M  V30 11221 C 1076.99 0.3847 2.30309 0
M  V30 11222 C 1077.97 -0.537486 1.61385 0
M  V30 11223 O 1079.15 -0.449332 1.8893 0
M  V30 11224 C 1076.28 -0.393311 3.45066 0
M  V30 11225 C 1075.24 0.437968 4.25753 0
M  V30 11226 C 1074.56 -0.467221 5.32655 0
M  V30 11227 C 1075.86 1.6851 4.9437 0
M  V30 11228 H 1077.56 1.22496 2.73194 0
M  V30 11229 H 1075.1 0.590471 1.31337 0
M  V30 11230 H 1077.06 -0.760614 4.14479 0
M  V30 11231 H 1075.78 -1.2673 3.0101 0
M  V30 11232 H 1074.44 0.787533 3.58041 0
M  V30 11233 H 1074.09 -1.33919 4.84845 0
M  V30 11234 H 1073.79 0.0852482 5.87538 0
M  V30 11235 H 1075.31 -0.830833 6.04921 0
M  V30 11236 H 1076.72 1.38784 5.56248 0
M  V30 11237 H 1075.12 2.17849 5.59162 0
M  V30 11238 H 1076.19 2.42412 4.19958 0
M  V30 11239 N 1077.53 -1.43282 0.656365 0
M  V30 11240 C 1078.5 -2.29188 -0.0239173 0
M  V30 11241 C 1079.5 -1.42373 -0.747436 0
M  V30 11242 O 1080.69 -1.63969 -0.588213 0
M  V30 11243 C 1077.82 -3.24501 -1.0446 0
M  V30 11244 H 1079.01 -2.9083 0.731978 0
M  V30 11245 H 1076.57 -1.50614 0.417752 0
M  V30 11246 H 1077.3 -2.6776 -1.82962 0
M  V30 11247 H 1077.09 -3.88509 -0.52942 0
M  V30 11248 H 1078.58 -3.88971 -1.51958 0
M  V30 11249 N 1079.01 -0.398486 -1.52479 0
M  V30 11250 C 1079.95 0.467426 -2.24383 0
M  V30 11251 C 1080.96 1.01908 -1.26959 0
M  V30 11252 O 1082.15 0.919843 -1.52974 0
M  V30 11253 C 1079.25 1.66146 -2.95379 0
M  V30 11254 C 1078.42 1.23557 -4.19586 0
M  V30 11255 C 1077.48 2.29532 -4.73499 0
M  V30 11256 O 1076.51 1.90561 -5.36354 0
M  V30 11257 N 1077.71 3.61564 -4.5415 0
M  V30 11258 H 1080.47 -0.148653 -2.99331 0
M  V30 11259 H 1078.03 -0.225313 -1.60325 0
M  V30 11260 H 1080.03 2.36585 -3.28344 0
M  V30 11261 H 1078.6 2.18369 -2.23682 0
M  V30 11262 H 1077.82 0.359715 -3.92555 0
M  V30 11263 H 1079.1 0.927812 -5.00269 0
M  V30 11264 H 1078.5 3.95983 -4.03998 0
M  V30 11265 H 1077.06 4.2801 -4.9158 0
M  V30 11266 N 1080.49 1.57075 -0.12858 0
M  V30 11267 C 1081.72 1.99876 0.534544 0
M  V30 11268 C 1082.13 1.00843 1.59612 0
M  V30 11269 O 1081.49 0.00268947 1.825 0
M  V30 11270 C 1081.54 3.42654 1.15198 0
M  V30 11271 O 1081.26 4.37899 0.132823 0
M  V30 11272 C 1082.76 4.00637 1.8975 0
M  V30 11273 H 1079.98 0.656073 0.140744 0
M  V30 11274 H 1082.53 2.03337 -0.217742 0
M  V30 11275 H 1080.68 3.40101 1.85499 0
M  V30 11276 H 1081.1 5.21253 0.582682 0
M  V30 11277 H 1082.57 5.02592 2.28266 0
M  V30 11278 H 1083.05 3.40313 2.7764 0
M  V30 11279 H 1083.65 4.06764 1.2419 0
M  V30 11280 N 1081.97 -0.145205 1.5693 0
M  V30 11281 C 1083.2 -0.871133 1.87336 0
M  V30 11282 C 1083.61 -1.7517 0.714992 0
M  V30 11283 O 1082.95 -1.80815 -0.324304 0
M  V30 11284 C 1083.01 -1.77775 3.12468 0
M  V30 11285 C 1082.68 -1.07416 4.44197 0
M  V30 11286 C 1083.67 -0.42722 5.18142 0
M  V30 11287 C 1081.36 -1.06313 4.9092 0
M  V30 11288 C 1083.35 0.221348 6.37016 0
M  V30 11289 C 1081.04 -0.410755 6.09718 0
M  V30 11290 C 1082.04 0.230357 6.82611 0
M  V30 11291 O 1081.73 0.872389 7.99152 0
M  V30 11292 H 1081.46 -0.257174 0.62517 0
M  V30 11293 H 1084.01 -0.142159 2.04907 0
M  V30 11294 H 1082.24 -2.54771 2.9091 0
M  V30 11295 H 1083.93 -2.37579 3.29107 0
M  V30 11296 H 1084.7 -0.427536 4.83112 0
M  V30 11297 H 1080.58 -1.55156 4.34105 0
M  V30 11298 H 1084.12 0.722349 6.9385 0
M  V30 11299 H 1080.02 -0.408112 6.44209 0
M  V30 11300 H 1080.78 0.774236 8.1483 0
M  V30 11301 N 1083.45 -1.52049 -0.414609 0
M  V30 11302 C 1084.38 -1.77956 -1.51175 0
M  V30 11303 C 1085.36 -0.630282 -1.57992 0
M  V30 11304 O 1086.54 -0.875324 -1.73354 0
M  V30 11305 C 1083.67 -1.92527 -2.89051 0
M  V30 11306 C 1082.63 -3.08096 -2.97087 0
M  V30 11307 C 1081.95 -3.07882 -4.37164 0
M  V30 11308 C 1083.25 -4.47656 -2.69075 0
M  V30 11309 H 1084.95 -2.69827 -1.29746 0
M  V30 11310 H 1082.49 -1.29839 -0.62273 0
M  V30 11311 H 1084.45 -2.09234 -3.65786 0
M  V30 11312 H 1083.17 -0.973235 -3.11762 0
M  V30 11313 H 1081.83 -2.91131 -2.22797 0
M  V30 11314 H 1081.48 -2.10411 -4.56877 0
M  V30 11315 H 1081.18 -3.85501 -4.43467 0
M  V30 11316 H 1082.7 -3.26712 -5.15841 0
M  V30 11317 H 1084.12 -4.64855 -3.35534 0
M  V30 11318 H 1082.51 -5.27151 -2.8676 0
M  V30 11319 H 1083.58 -4.56129 -1.64544 0
M  V30 11320 N 1084.93 0.6715 -1.42579 0
M  V30 11321 C 1085.89 1.76676 -1.46008 0
M  V30 11322 C 1086.89 1.57007 -0.347213 0
M  V30 11323 O 1088.08 1.63238 -0.608185 0
M  V30 11324 C 1085.21 3.15348 -1.29494 0
M  V30 11325 H 1086.4 1.75021 -2.43531 0
M  V30 11326 H 1083.96 0.881444 -1.29075 0
M  V30 11327 H 1084.69 3.22626 -0.32906 0
M  V30 11328 H 1084.48 3.31028 -2.10149 0
M  V30 11329 H 1085.97 3.95251 -1.34784 0
M  V30 11330 N 1086.4 1.28806 0.908124 0
M  V30 11331 C 1087.82 1.06634 1.18749 0
M  V30 11332 C 1088.02 -0.187729 2.00624 0
M  V30 11333 O 1087.08 -0.88784 2.36376 0
M  V30 11334 C 1088.39 2.31703 1.91661 0
M  V30 11335 C 1089.94 2.36939 2.04521 0
M  V30 11336 C 1090.41 3.61789 2.80843 0
M  V30 11337 N 1091.9 3.62462 2.88402 0
M  V30 11338 C 1092.64 4.55746 3.47971 0
M  V30 11339 N 1092.13 5.59353 4.08774 0
M  V30 11340 N 1093.93 4.43331 3.45564 0
M  V30 11341 H 1086.08 2.09299 0.36164 0
M  V30 11342 H 1088.34 0.921479 0.222668 0
M  V30 11343 H 1088.05 3.23096 1.38931 0
M  V30 11344 H 1087.92 2.38556 2.92183 0
M  V30 11345 H 1090.31 1.4604 2.5643 0
M  V30 11346 H 1090.39 2.34077 1.03159 0
M  V30 11347 H 1090.03 4.53035 2.29612 0
M  V30 11348 H 1089.96 3.61907 3.82532 0
M  V30 11349 H 1092.45 2.87544 2.45208 0
M  V30 11350 H 1092.77 6.26668 4.52224 0
M  V30 11351 H 1091.11 5.63173 4.07261 0
M  V30 11352 H 1094.3 3.61587 2.97276 0
M  V30 11353 H 1094.48 5.16216 3.91695 0
M  V30 11354 N 1087.88 -1.11734 1.11145 0
M  V30 11355 C 1088.83 -2.19765 0.761982 0
M  V30 11356 C 1089.82 -1.67616 -0.24518 0
M  V30 11357 O 1091.03 -1.79695 -0.104781 0
M  V30 11358 H 1087.4 -0.71644 0.228513 0
M  V30 11359 H 1089.38 -2.4649 1.68183 0
M  V30 11360 C 1088.12 -3.47016 0.218057 0
M  V30 11361 H 1087.45 -3.87494 0.984299 0
M  V30 11362 H 1088.89 -4.23998 0.0116825 0
M  V30 11363 C 1087.35 -3.20088 -1.05096 0
M  V30 11364 O 1087.88 -3.40503 -2.1312 0
M  V30 11365 N 1086.08 -2.73844 -0.972523 0
M  V30 11366 H 1085.63 -2.57431 -0.0933459 0
M  V30 11367 H 1085.59 -2.56204 -1.82228 0
M  V30 11368 N 1089.36 -0.901303 -1.29284 0
M  V30 11369 C 1090.29 -0.32479 -2.25877 0
M  V30 11370 C 1091.27 0.563944 -1.52507 0
M  V30 11371 O 1092.45 0.510393 -1.81459 0
M  V30 11372 C 1089.58 0.536897 -3.34418 0
M  V30 11373 C 1088.63 -0.28474 -4.25548 0
M  V30 11374 S 1089.46 -1.68355 -5.08347 0
M  V30 11375 C 1090.62 -0.828826 -6.20388 0
M  V30 11376 H 1090.85 -1.14352 -2.74428 0
M  V30 11377 H 1088.38 -0.701749 -1.37531 0
M  V30 11378 H 1090.34 1.02827 -3.97413 0
M  V30 11379 H 1089 1.32988 -2.84558 0
M  V30 11380 H 1088.19 0.373566 -5.02614 0
M  V30 11381 H 1087.8 -0.709313 -3.67212 0
M  V30 11382 H 1090.09 -0.0529234 -6.77479 0
M  V30 11383 H 1091.03 -1.57161 -6.90439 0
M  V30 11384 H 1091.44 -0.382503 -5.63203 0
M  V30 11385 N 1090.84 1.42931 -0.663954 0
M  V30 11386 C 1092.06 2.06544 -0.188201 0
M  V30 11387 C 1092.49 1.495 1.14155 0
M  V30 11388 O 1091.85 0.609164 1.7076 0
M  V30 11389 C 1091.89 3.60393 -0.122105 0
M  V30 11390 O 1091 4.02176 0.91258 0
M  V30 11391 H 1090.34 0.656458 -0.0997967 0
M  V30 11392 H 1092.87 1.83253 -0.909909 0
M  V30 11393 H 1092.88 4.07959 0.0576568 0
M  V30 11394 H 1091.55 4.01287 -1.09276 0
M  V30 11395 H 1090.13 3.6618 0.704738 0
M  V30 11396 N 1092.32 0.406567 1.52266 0
M  V30 11397 C 1093.23 -0.4271 2.30679 0
M  V30 11398 C 1094.24 -1.0559 1.383 0
M  V30 11399 O 1095.42 -1.05797 1.71374 0
M  V30 11400 C 1092.48 -1.53008 3.1111 0
M  V30 11401 C 1091.54 -0.924604 4.19225 0
M  V30 11402 C 1090.78 -1.97502 4.95811 0
M  V30 11403 O 1091 -3.19277 4.72671 0
M  V30 11404 O 1089.93 -1.58268 5.80719 0
M  V30 11405 H 1093.76 0.212187 3.02958 0
M  V30 11406 H 1091.34 0.169835 1.48432 0
M  V30 11407 H 1093.23 -2.17046 3.61205 0
M  V30 11408 H 1091.9 -2.15401 2.41628 0
M  V30 11409 H 1090.81 -0.247009 3.73284 0
M  V30 11410 H 1092.14 -0.34463 4.90992 0
M  V30 11411 N 1093.79 -1.57004 0.136909 0
M  V30 11412 C 1095.21 -1.58082 -0.21958 0
M  V30 11413 C 1095.41 -1.15065 -1.65415 0
M  V30 11414 O 1094.47 -0.846284 -2.37896 0
M  V30 11415 C 1095.78 -3.00685 0.0300112 0
M  V30 11416 C 1097.33 -3.12981 -0.0344899 0
M  V30 11417 C 1097.8 -4.57615 0.187639 0
M  V30 11418 N 1099.29 -4.63005 0.134219 0
M  V30 11419 C 1100.03 -5.72712 0.280743 0
M  V30 11420 N 1099.52 -6.91104 0.48443 0
M  V30 11421 N 1101.32 -5.61673 0.219055 0
M  V30 11422 H 1093.47 -1.83262 1.07372 0
M  V30 11423 H 1095.73 -0.847776 0.424241 0
M  V30 11424 H 1095.44 -3.36509 1.02247 0
M  V30 11425 H 1095.31 -3.70762 -0.693918 0
M  V30 11426 H 1097.7 -2.77004 -1.01749 0
M  V30 11427 H 1097.78 -2.45411 0.721608 0
M  V30 11428 H 1097.42 -4.94295 1.16769 0
M  V30 11429 H 1097.35 -5.23299 -0.588661 0
M  V30 11430 H 1099.84 -3.77895 -0.0189681 0
M  V30 11431 H 1100.16 -7.7057 0.586613 0
M  V30 11432 H 1098.5 -6.93047 0.520627 0
M  V30 11433 H 1101.69 -4.68061 0.0607606 0
M  V30 11434 H 1101.87 -6.47125 0.336683 0
M  V30 11435 N 1095.27 0.136881 -1.57004 0
M  V30 11436 C 1096.5 0.866405 -1.88436 0
M  V30 11437 C 1096.92 1.73483 -0.727006 0
M  V30 11438 O 1096.28 1.78398 0.323094 0
M  V30 11439 C 1096.33 1.69059 -3.18514 0
M  V30 11440 O 1095.43 2.79584 -3.03161 0
M  V30 11441 H 1094.77 0.240709 -0.618834 0
M  V30 11442 H 1097.3 0.124653 -2.0422 0
M  V30 11443 H 1097.31 2.08353 -3.50789 0
M  V30 11444 H 1095.99 1.05296 -4.0235 0
M  V30 11445 H 1094.57 2.43623 -2.82315 0
M  V30 11446 N 1096.75 1.52266 0.40654 0
M  V30 11447 C 1097.71 1.75168 1.47814 0
M  V30 11448 C 1098.71 0.621575 1.48301 0
M  V30 11449 O 1099.9 0.889476 1.4978 0
M  V30 11450 C 1097.04 1.83642 2.87208 0
M  V30 11451 H 1098.23 2.70834 1.28798 0
M  V30 11452 H 1095.78 1.42722 0.637196 0
M  V30 11453 H 1096.52 0.898994 3.1159 0
M  V30 11454 H 1096.3 2.65801 2.88257 0
M  V30 11455 H 1097.79 2.03093 3.64888 0
M  V30 11456 N 1098.23 -0.663929 1.42933 0
M  V30 11457 C 1099.16 -1.78876 1.41699 0
M  V30 11458 C 1100.14 -1.60174 0.27981 0
M  V30 11459 O 1101.32 -1.82502 0.471735 0
M  V30 11460 C 1098.45 -3.1603 1.2183 0
M  V30 11461 C 1097.5 -3.53457 2.38685 0
M  V30 11462 S 1098.33 -3.54648 4.01229 0
M  V30 11463 C 1099.49 -4.94477 3.83723 0
M  V30 11464 H 1099.72 -1.7965 2.36882 0
M  V30 11465 H 1097.25 -0.835596 1.29835 0
M  V30 11466 H 1099.21 -3.95193 1.11054 0
M  V30 11467 H 1097.87 -3.1283 0.282139 0
M  V30 11468 H 1097.06 -4.53178 2.20559 0
M  V30 11469 H 1096.67 -2.81681 2.46032 0
M  V30 11470 H 1098.96 -5.82851 3.45386 0
M  V30 11471 H 1099.9 -5.17652 4.83158 0
M  V30 11472 H 1100.31 -4.67507 3.16382 0
M  V30 11473 N 1099.71 -1.29285 -0.901281 0
M  V30 11474 C 1100.67 -1.14283 -1.98676 0
M  V30 11475 C 1101.67 -0.0787641 -1.60607 0
M  V30 11476 O 1102.86 -0.325574 -1.71131 0
M  V30 11477 C 1099.99 -0.747279 -3.32609 0
M  V30 11478 H 1101.18 -2.10701 -2.13413 0
M  V30 11479 H 1098.74 -1.12449 -1.08558 0
M  V30 11480 H 1099.47 0.217111 -3.23572 0
M  V30 11481 H 1099.26 -1.51608 -3.61604 0
M  V30 11482 H 1100.75 -0.665322 -4.12266 0
M  V30 11483 N 1101.18 1.11143 -1.11736 0
M  V30 11484 C 1102.15 2.15456 -0.78174 0
M  V30 11485 C 1103.15 1.59547 0.200383 0
M  V30 11486 O 1104.34 1.74183 -0.0244893 0
M  V30 11487 C 1101.47 3.40523 -0.160364 0
M  V30 11488 H 1102.66 2.46658 -1.70586 0
M  V30 11489 H 1100.22 1.26381 -0.919644 0
M  V30 11490 H 1100.95 3.14932 0.773835 0
M  V30 11491 H 1100.74 3.82386 -0.867378 0
M  V30 11492 H 1102.23 4.17559 0.0582175 0
M  V30 11493 N 1102.66 0.908147 1.28804 0
M  V30 11494 C 1103.91 0.539201 1.95501 0
M  V30 11495 C 1104.24 -0.913759 1.7136 0
M  V30 11496 O 1103.52 -1.64904 1.03136 0
M  V30 11497 C 1103.8 0.842372 3.50109 0
M  V30 11498 C 1103.65 2.34765 3.83673 0
M  V30 11499 C 1104.97 0.334658 4.38826 0
M  V30 11500 H 1102.09 0.197373 0.71008 0
M  V30 11501 H 1104.73 1.13637 1.52272 0
M  V30 11502 H 1102.88 0.334143 3.8706 0
M  V30 11503 H 1104.55 2.92607 3.56621 0
M  V30 11504 H 1102.8 2.80494 3.30916 0
M  V30 11505 H 1103.47 2.51034 4.91616 0
M  V30 11506 H 1105.94 0.769961 4.08914 0
M  V30 11507 H 1104.82 0.575914 5.4587 0
M  V30 11508 H 1105.08 -0.764878 4.35433 0
M  V30 11509 N 1104.14 -1.42577 0.671525 0
M  V30 11510 C 1105.07 -2.33499 0.00506984 0
M  V30 11511 C 1106.05 -1.50497 -0.792763 0
M  V30 11512 O 1107.24 -1.79109 -0.750574 0
M  V30 11513 C 1104.37 -3.34077 -0.949194 0
M  V30 11514 C 1103.32 -4.27208 -0.260187 0
M  V30 11515 C 1102.65 -5.17968 -1.32716 0
M  V30 11516 C 1103.95 -5.15192 0.858772 0
M  V30 11517 H 1105.64 -2.89477 0.764407 0
M  V30 11518 H 1103.19 -1.39191 0.369043 0
M  V30 11519 H 1105.14 -3.96594 -1.42448 0
M  V30 11520 H 1103.86 -2.76396 -1.73991 0
M  V30 11521 H 1102.52 -3.66082 0.194834 0
M  V30 11522 H 1102.17 -4.56615 -2.10979 0
M  V30 11523 H 1101.87 -5.81104 -0.871293 0
M  V30 11524 H 1103.39 -5.83359 -1.80345 0
M  V30 11525 H 1104.81 -5.71412 0.464844 0
M  V30 11526 H 1103.21 -5.87144 1.24023 0
M  V30 11527 H 1104.28 -4.53787 1.70895 0
M  V30 11528 N 1105.62 -0.414636 -1.52048 0
M  V30 11529 C 1106.58 0.396285 -2.25748 0
M  V30 11530 C 1107.58 0.969003 -1.28324 0
M  V30 11531 O 1108.77 0.847016 -1.52221 0
M  V30 11532 C 1105.9 1.55838 -3.03195 0
M  V30 11533 H 1107.1 -0.249311 -2.98862 0
M  V30 11534 H 1104.65 -0.167276 -1.55402 0
M  V30 11535 H 1105.38 2.24068 -2.34444 0
M  V30 11536 H 1105.17 1.15414 -3.74729 0
M  V30 11537 H 1106.66 2.13187 -3.59084 0
M  V30 11538 N 1107.1 1.56929 -0.145233 0
M  V30 11539 C 1108.03 2.12449 0.833107 0
M  V30 11540 C 1109.01 1.0476 1.24355 0
M  V30 11541 O 1110.19 1.32579 1.33997 0
M  V30 11542 C 1107.32 2.64274 2.11842 0
M  V30 11543 C 1106.36 3.84093 1.85404 0
M  V30 11544 S 1107.2 5.25172 1.04663 0
M  V30 11545 C 1108.35 5.80384 2.34318 0
M  V30 11546 H 1108.59 2.951 0.360969 0
M  V30 11547 H 1106.12 1.54246 0.0690187 0
M  V30 11548 H 1108.08 2.94783 2.8568 0
M  V30 11549 H 1106.74 1.81756 2.56171 0
M  V30 11550 H 1105.93 4.18593 2.80706 0
M  V30 11551 H 1105.53 3.54336 1.19675 0
M  V30 11552 H 1107.83 5.91709 3.29981 0
M  V30 11553 H 1108.77 6.7798 2.04325 0
M  V30 11554 H 1109.18 5.08617 2.44885 0
M  V30 11555 N 1108.58 -0.128553 1.57075 0
M  V30 11556 C 1109.99 -0.481794 1.52154 0
M  V30 11557 C 1110.19 -1.82381 0.856694 0
M  V30 11558 O 1109.25 -2.48725 0.434989 0
M  V30 11559 C 1110.56 -0.475091 2.96923 0
M  V30 11560 C 1112.11 -0.559315 3.07962 0
M  V30 11561 C 1112.58 -0.583095 4.54273 0
M  V30 11562 N 1114.07 -0.644803 4.5869 0
M  V30 11563 C 1114.81 -0.684493 5.693 0
M  V30 11564 N 1114.31 -0.682407 6.89431 0
M  V30 11565 N 1116.1 -0.726777 5.57382 0
M  V30 11566 H 1108.25 0.750894 1.98684 0
M  V30 11567 H 1110.51 0.27593 0.906955 0
M  V30 11568 H 1110.22 0.443157 3.48897 0
M  V30 11569 H 1110.09 -1.30637 3.53856 0
M  V30 11570 H 1112.48 -1.46798 2.55997 0
M  V30 11571 H 1112.56 0.299468 2.54041 0
M  V30 11572 H 1112.2 0.32149 5.06881 0
M  V30 11573 H 1112.13 -1.45863 5.05996 0
M  V30 11574 H 1114.63 -0.652967 3.72216 0
M  V30 11575 H 1114.94 -0.715051 7.69485 0
M  V30 11576 H 1113.28 -0.649984 6.91954 0
M  V30 11577 H 1116.47 -0.725704 4.6244 0
M  V30 11578 H 1116.65 -0.754242 6.43596 0
M  V30 11579 N 1110.05 -1.5248 -0.398459 0
M  V30 11580 C 1111.33 -1.57634 -1.15805 0
M  V30 11581 C 1111.71 -0.363785 -2.07942 0
M  V30 11582 O 1111.06 0.648598 -2.19101 0
M  V30 11583 C 1111.27 -2.91042 -1.92602 0
M  V30 11584 C 1112.62 -3.44433 -2.48296 0
M  V30 11585 O 1113.64 -2.92853 -2.0277 0
M  V30 11586 O 1112.5 -4.34529 -3.31432 0
M  V30 11587 H 1109.59 -0.63539 -0.529347 0
M  V30 11588 H 1112.14 -1.64812 -0.404376 0
M  V30 11589 H 1110.91 -3.7074 -1.25169 0
M  V30 11590 H 1110.53 -2.87206 -2.74952 0
M  V30 11591 N 1111.53 0.65634 -1.43283 0
M  V30 11592 C 1112.46 1.78101 -1.51004 0
M  V30 11593 C 1113.44 1.66138 -0.36498 0
M  V30 11594 O 1114.63 1.85281 -0.581778 0
M  V30 11595 C 1111.76 3.16511 -1.42961 0
M  V30 11596 C 1110.71 3.43233 -2.55685 0
M  V30 11597 C 1110.04 4.81411 -2.32696 0
M  V30 11598 C 1111.34 3.38288 -3.97943 0
M  V30 11599 H 1113.03 1.71896 -2.45137 0
M  V30 11600 H 1110.58 0.825575 -1.17984 0
M  V30 11601 H 1112.53 3.94941 -1.46968 0
M  V30 11602 H 1111.25 3.23439 -0.45332 0
M  V30 11603 H 1109.91 2.67173 -2.51026 0
M  V30 11604 H 1109.56 4.85011 -1.33317 0
M  V30 11605 H 1109.26 5.00251 -3.08257 0
M  V30 11606 H 1110.79 5.62102 -2.38481 0
M  V30 11607 H 1112.2 4.06659 -4.04106 0
M  V30 11608 H 1110.6 3.68664 -4.73505 0
M  V30 11609 H 1111.67 2.36525 -4.23301 0
M  V30 11610 N 1113.01 1.29761 0.894412 0
M  V30 11611 C 1114.25 1.19313 1.65963 0
M  V30 11612 C 1114.61 -0.25022 1.90363 0
M  V30 11613 O 1115.81 -0.477779 2.6452 0
M  V30 11614 C 1114.09 1.98934 2.96917 0
M  V30 11615 S 1115.64 2.05079 3.87928 0
M  V30 11616 H 1112.46 0.42535 0.569735 0
M  V30 11617 H 1115.06 1.64116 1.06236 0
M  V30 11618 H 1113.77 3.02932 2.76876 0
M  V30 11619 H 1113.3 1.54756 3.61682 0
M  V30 11620 H 1115.31 1.17131 4.82177 0
M  V30 11621 N 1114.49 -1.10549 1.12324 0
M  V30 11622 C 1115.9 -1.34508 0.85905 0
M  V30 11623 C 1116.1 -1.94901 -0.511468 0
M  V30 11624 O 1115.16 -2.18793 -1.2604 0
M  V30 11625 C 1116.47 -2.26788 1.97453 0
M  V30 11626 C 1118.02 -2.40328 2.00528 0
M  V30 11627 C 1118.5 -3.35936 3.11305 0
M  V30 11628 N 1119.99 -3.43504 3.1074 0
M  V30 11629 C 1120.72 -4.17449 3.93096 0
M  V30 11630 N 1120.22 -4.9429 4.85437 0
M  V30 11631 N 1122.01 -4.13055 3.81237 0
M  V30 11632 H 1114.16 -0.697171 2.00632 0
M  V30 11633 H 1116.42 -0.369548 0.873005 0
M  V30 11634 H 1116.13 -1.89621 2.96204 0
M  V30 11635 H 1116 -3.27086 1.87869 0
M  V30 11636 H 1118.39 -2.76765 1.02397 0
M  V30 11637 H 1118.47 -1.39849 2.14186 0
M  V30 11638 H 1118.12 -3.00225 4.09667 0
M  V30 11639 H 1118.05 -4.36291 2.94886 0
M  V30 11640 H 1120.54 -2.88702 2.43843 0
M  V30 11641 H 1120.85 -5.48109 5.4479 0
M  V30 11642 H 1119.2 -4.93419 4.89452 0
M  V30 11643 H 1122.39 -3.52117 3.08433 0
M  V30 11644 H 1122.56 -4.70424 4.45651 0
M  V30 11645 N 1115.97 -0.914965 -1.28321 0
M  V30 11646 C 1116.9 -0.421292 -2.29668 0
M  V30 11647 C 1117.88 0.511743 -1.6222 0
M  V30 11648 O 1119.06 0.419218 -1.89621 0
M  V30 11649 C 1116.19 0.338364 -3.45648 0
M  V30 11650 C 1115.15 -0.505646 -4.25003 0
M  V30 11651 C 1114.47 0.382421 -5.33331 0
M  V30 11652 C 1115.77 -1.76354 -4.91626 0
M  V30 11653 H 1117.47 -1.26826 -2.71211 0
M  V30 11654 H 1115.01 -0.611291 -1.30381 0
M  V30 11655 H 1116.96 0.694578 -4.15636 0
M  V30 11656 H 1115.69 1.21925 -3.02988 0
M  V30 11657 H 1114.35 -0.844395 -3.56743 0
M  V30 11658 H 1114 1.26189 -4.86914 0
M  V30 11659 H 1113.7 -0.17871 -5.87328 0
M  V30 11660 H 1115.22 0.73449 -6.06166 0
M  V30 11661 H 1116.63 -1.47616 -5.5397 0
M  V30 11662 H 1115.03 -2.26717 -5.55625 0
M  V30 11663 H 1116.1 -2.49063 -4.16048 0
M  V30 11664 N 1117.44 1.42219 -0.679077 0
M  V30 11665 C 1118.37 2.33493 -0.0174528 0
M  V30 11666 C 1119.35 1.50915 0.78477 0
M  V30 11667 O 1120.54 1.79504 0.741065 0
M  V30 11668 C 1117.67 3.34576 0.931463 0
M  V30 11669 C 1116.62 4.2734 0.237527 0
M  V30 11670 C 1115.95 5.18664 1.29967 0
M  V30 11671 C 1117.25 5.14729 -0.886082 0
M  V30 11672 H 1118.94 2.89068 -0.779748 0
M  V30 11673 H 1116.49 1.38993 -0.376419 0
M  V30 11674 H 1118.44 3.97343 1.40343 0
M  V30 11675 H 1117.17 2.77315 1.72523 0
M  V30 11676 H 1115.83 3.65973 -0.214245 0
M  V30 11677 H 1115.47 4.57727 2.08554 0
M  V30 11678 H 1115.17 5.81558 0.840463 0
M  V30 11679 H 1116.7 5.84308 1.77249 0
M  V30 11680 H 1118.11 5.71158 -0.495141 0
M  V30 11681 H 1116.51 5.86478 -1.27135 0
M  V30 11682 H 1117.58 4.52874 -1.733 0
M  V30 11683 N 1118.92 0.422693 1.51826 0
M  V30 11684 C 1119.83 -0.40261 2.31119 0
M  V30 11685 C 1120.85 -1.04117 1.39412 0
M  V30 11686 O 1122.02 -1.03973 1.72486 0
M  V30 11687 C 1119.09 -1.49699 3.12716 0
M  V30 11688 C 1118.15 -0.880088 4.20182 0
M  V30 11689 C 1117.38 -1.92232 4.97878 0
M  V30 11690 O 1117.61 -3.14246 4.76031 0
M  V30 11691 O 1116.54 -1.521 5.82365 0
M  V30 11692 H 1120.37 0.244308 3.02716 0
M  V30 11693 H 1117.95 0.185569 1.48243 0
M  V30 11694 H 1119.83 -2.13202 3.63487 0
M  V30 11695 H 1118.51 -2.12826 2.43899 0
M  V30 11696 H 1117.41 -0.207404 3.73525 0
M  V30 11697 H 1118.75 -0.292535 4.9133 0
M  V30 11698 N 1120.4 -1.5685 0.153553 0
M  V30 11699 C 1121.65 -1.96625 -0.49665 0
M  V30 11700 C 1121.98 -1.03877 -1.64083 0
M  V30 11701 O 1121.25 -0.0824112 -1.94325 0
M  V30 11702 C 1121.54 -3.46035 -0.996585 0
M  V30 11703 C 1121.39 -4.49561 0.146551 0
M  V30 11704 C 1122.71 -3.98104 -1.8762 0
M  V30 11705 H 1119.83 -0.714917 -0.179059 0
M  V30 11706 H 1122.47 -1.88527 0.236104 0
M  V30 11707 H 1120.62 -3.53066 -1.621 0
M  V30 11708 H 1122.29 -4.54604 0.783108 0
M  V30 11709 H 1120.53 -4.26271 0.804727 0
M  V30 11710 H 1121.21 -5.51456 -0.245078 0
M  V30 11711 H 1123.68 -3.93593 -1.34997 0
M  V30 11712 H 1122.56 -5.03098 -2.19508 0
M  V30 11713 H 1122.82 -3.40852 -2.81554 0
M  V30 11714 N 1121.88 0.120221 -1.57141 0
M  V30 11715 C 1123.1 0.84637 -1.89344 0
M  V30 11716 C 1123.53 1.72702 -0.745365 0
M  V30 11717 O 1122.89 1.7873 0.304155 0
M  V30 11718 C 1122.93 1.65671 -3.20289 0
M  V30 11719 O 1122.04 2.76353 -3.06109 0
M  V30 11720 H 1121.38 0.234132 -0.621352 0
M  V30 11721 H 1123.91 0.102986 -2.04341 0
M  V30 11722 H 1123.92 2.04621 -3.52979 0
M  V30 11723 H 1122.59 1.01023 -4.03444 0
M  V30 11724 H 1121.17 2.40615 -2.84884 0
M  V30 11725 N 1123.36 1.52689 0.390367 0
M  V30 11726 C 1124.77 1.59623 0.968366 0
M  V30 11727 C 1125.12 0.44824 1.91011 0
M  V30 11728 O 1124.24 -0.428868 2.12108 0
M  V30 11729 C 1124.84 2.89312 1.76306 0
M  V30 11730 C 1123.4 2.98664 2.29079 0
M  V30 11731 C 1122.54 2.54725 1.09593 0
M  V30 11732 H 1125.5 1.57787 0.169959 0
M  V30 11733 H 1125.52 2.75721 2.62217 0
M  V30 11734 H 1125.03 3.72846 1.07738 0
M  V30 11735 H 1123.13 2.19665 3.00962 0
M  V30 11736 H 1123.24 4.03277 2.58659 0
M  V30 11737 H 1121.61 2.09012 1.45554 0
M  V30 11738 H 1122.39 3.40651 0.425625 0
M  V30 11739 N 1124.83 -0.648732 1.43629 0
M  V30 11740 C 1126.08 -1.40579 1.45196 0
M  V30 11741 C 1126.4 -1.9484 0.0790556 0
M  V30 11742 O 1125.67 -1.74707 -0.886239 0
M  V30 11743 H 1124.25 -0.52175 0.53459 0
M  V30 11744 H 1126.92 -0.764796 1.79268 0
M  V30 11745 H 1126.01 -2.24591 2.16715 0
M  V30 11746 N 1126.31 -1.30234 -0.887518 0
M  V30 11747 C 1127.72 -1.17048 -1.45453 0
M  V30 11748 C 1128.07 0.229793 -1.9485 0
M  V30 11749 O 1127.2 1.12628 -1.84781 0
M  V30 11750 C 1127.79 -2.11876 -2.64375 0
M  V30 11751 C 1126.35 -2.02676 -3.17174 0
M  V30 11752 C 1125.5 -2.02104 -1.89866 0
M  V30 11753 H 1128.45 -1.42541 -0.697694 0
M  V30 11754 H 1128.47 -1.69811 -3.40506 0
M  V30 11755 H 1127.98 -3.13781 -2.28392 0
M  V30 11756 H 1126.09 -1.03904 -3.57819 0
M  V30 11757 H 1126.2 -2.90939 -3.80646 0
M  V30 11758 H 1124.56 -1.4687 -2.0809 0
M  V30 11759 H 1125.35 -3.05735 -1.56145 0
M  V30 11760 N 1127.79 1.09952 -1.12909 0
M  V30 11761 C 1128.72 2.16257 -0.759305 0
M  V30 11762 C 1129.74 1.61355 0.216427 0
M  V30 11763 O 1130.92 1.785 -0.00297224 0
M  V30 11764 C 1128.02 3.38741 -0.103908 0
M  V30 11765 C 1127.2 4.23072 -1.11037 0
M  V30 11766 C 1126.26 5.23991 -0.481667 0
M  V30 11767 O 1125.28 5.57665 -1.14011 0
M  V30 11768 N 1126.48 5.75652 0.748698 0
M  V30 11769 H 1129.25 2.48588 -1.67405 0
M  V30 11770 H 1126.81 1.25617 -1.02137 0
M  V30 11771 H 1128.8 4.03362 0.328799 0
M  V30 11772 H 1127.37 3.04344 0.713677 0
M  V30 11773 H 1126.59 3.5467 -1.72054 0
M  V30 11774 H 1127.88 4.76244 -1.79078 0
M  V30 11775 H 1127.28 5.505 1.30253 0
M  V30 11776 H 1125.84 6.42033 1.12415 0
M  V30 11777 N 1129.27 0.921757 1.27833 0
M  V30 11778 C 1130.2 0.433466 2.29441 0
M  V30 11779 C 1131.18 -0.503133 1.62489 0
M  V30 11780 O 1132.36 -0.409156 1.89841 0
M  V30 11781 C 1129.49 -0.320029 3.45822 0
M  V30 11782 C 1128.45 0.528178 4.24728 0
M  V30 11783 C 1127.77 -0.354132 5.33526 0
M  V30 11784 C 1129.07 1.78959 4.90684 0
M  V30 11785 H 1130.77 1.28263 2.70535 0
M  V30 11786 H 1128.31 0.618197 1.30055 0
M  V30 11787 H 1130.27 -0.672526 4.15999 0
M  V30 11788 H 1128.99 -1.20317 3.0363 0
M  V30 11789 H 1127.65 0.863302 3.5629 0
M  V30 11790 H 1127.3 -1.23605 4.87576 0
M  V30 11791 H 1127 0.209855 5.87225 0
M  V30 11792 H 1128.52 -0.702333 6.06547 0
M  V30 11793 H 1129.94 1.50552 5.53179 0
M  V30 11794 H 1128.33 2.29661 5.54415 0
M  V30 11795 H 1129.4 2.51265 4.14721 0
M  V30 11796 N 1130.75 -1.41857 0.686609 0
M  V30 11797 C 1131.71 -2.29187 0.0247022 0
M  V30 11798 C 1132.71 -1.43926 -0.717069 0
M  V30 11799 O 1133.9 -1.65179 -0.5533 0
M  V30 11800 C 1131.03 -3.26644 -0.975537 0
M  V30 11801 H 1132.22 -2.89212 0.793503 0
M  V30 11802 H 1129.78 -1.49694 0.449605 0
M  V30 11803 H 1130.51 -2.7158 -1.77242 0
M  V30 11804 H 1130.3 -3.89545 -0.446892 0
M  V30 11805 H 1131.79 -3.92107 -1.43673 0
M  V30 11806 N 1132.22 -0.430739 -1.51599 0
M  V30 11807 C 1133.16 0.419726 -2.25324 0
M  V30 11808 C 1134.17 0.991925 -1.29092 0
M  V30 11809 O 1135.36 0.887188 -1.54891 0
M  V30 11810 C 1132.46 1.59844 -2.98836 0
M  V30 11811 C 1131.63 1.14629 -4.22112 0
M  V30 11812 C 1130.69 2.19437 -4.78261 0
M  V30 11813 O 1129.72 1.79141 -5.40275 0
M  V30 11814 N 1130.92 3.51849 -4.61717 0
M  V30 11815 H 1133.68 -0.212112 -2.98948 0
M  V30 11816 H 1131.24 -0.259269 -1.59811 0
M  V30 11817 H 1133.24 2.29567 -3.33288 0
M  V30 11818 H 1131.81 2.13575 -2.28264 0
M  V30 11819 H 1131.03 0.276367 -3.9323 0
M  V30 11820 H 1132.31 0.821488 -5.02124 0
M  V30 11821 H 1131.71 3.87324 -4.12306 0
M  V30 11822 H 1130.27 4.17486 -5.00548 0
M  V30 11823 N 1133.7 1.56767 -0.161869 0
M  V30 11824 C 1134.65 2.1409 0.784183 0
M  V30 11825 C 1135.64 1.07262 1.19932 0
M  V30 11826 O 1136.83 1.33406 1.16326 0
M  V30 11827 C 1133.96 2.77778 2.01729 0
M  V30 11828 C 1133.04 3.91751 1.62457 0
M  V30 11829 N 1133.43 4.96972 0.940888 0
M  V30 11830 C 1131.73 4.02735 1.91626 0
M  V30 11831 C 1132.43 5.76858 0.748946 0
M  V30 11832 N 1131.41 5.28134 1.28745 0
M  V30 11833 H 1135.21 2.92811 0.252763 0
M  V30 11834 H 1132.73 1.62353 0.0391501 0
M  V30 11835 H 1134.72 3.17216 2.70517 0
M  V30 11836 H 1133.38 2.00535 2.55374 0
M  V30 11837 H 1134.39 5.14413 0.599981 0
M  V30 11838 H 1131.07 3.36585 2.47016 0
M  V30 11839 H 1132.46 6.71575 0.208991 0
M  V30 11840 N 1135.18 -0.111886 1.57202 0
M  V30 11841 C 1136.43 -0.819623 1.85499 0
M  V30 11842 C 1136.76 -1.7919 0.748629 0
M  V30 11843 O 1136.03 -1.92952 -0.244918 0
M  V30 11844 C 1136.32 -1.56324 3.24399 0
M  V30 11845 C 1136.17 -0.610081 4.45643 0
M  V30 11846 C 1137.49 -2.51777 3.60966 0
M  V30 11847 H 1134.61 -0.296512 0.674722 0
M  V30 11848 H 1137.25 -0.0836741 1.89816 0
M  V30 11849 H 1135.4 -2.1906 3.2085 0
M  V30 11850 H 1137.07 0.00898038 4.61299 0
M  V30 11851 H 1135.32 0.0778488 4.3373 0
M  V30 11852 H 1135.99 -1.16718 5.39519 0
M  V30 11853 H 1138.46 -1.99143 3.65351 0
M  V30 11854 H 1137.34 -3.00835 4.59118 0
M  V30 11855 H 1137.6 -3.34769 2.8876 0
M  V30 11856 N 1136.66 -1.52894 -0.382264 0
M  V30 11857 C 1137.89 -1.71902 -1.146 0
M  V30 11858 C 1138.3 -0.44017 -1.84009 0
M  V30 11859 O 1137.64 0.595616 -1.73776 0
M  V30 11860 C 1137.7 -2.81785 -2.23244 0
M  V30 11861 C 1137.37 -4.22684 -1.73745 0
M  V30 11862 C 1138.36 -5.05611 -1.21054 0
M  V30 11863 C 1136.05 -4.69031 -1.79763 0
M  V30 11864 C 1138.04 -6.32968 -0.750368 0
M  V30 11865 C 1135.73 -5.96371 -1.33358 0
M  V30 11866 C 1136.73 -6.7817 -0.810832 0
M  V30 11867 O 1136.41 -8.03122 -0.353577 0
M  V30 11868 H 1136.15 -0.578767 -0.349292 0
M  V30 11869 H 1138.7 -2.00359 -0.452246 0
M  V30 11870 H 1136.93 -2.48764 -2.96063 0
M  V30 11871 H 1138.62 -2.89131 -2.84883 0
M  V30 11872 H 1139.39 -4.70984 -1.15755 0
M  V30 11873 H 1135.26 -4.05447 -2.19394 0
M  V30 11874 H 1138.81 -6.96763 -0.341666 0
M  V30 11875 H 1134.71 -6.30501 -1.38344 0
M  V30 11876 H 1135.47 -8.17124 -0.474439 0
M  V30 11877 N 1138.14 0.641106 -1.43971 0
M  V30 11878 C 1139.55 1.22254 -1.41106 0
M  V30 11879 C 1139.9 1.95825 -0.121284 0
M  V30 11880 O 1139.02 2.01901 0.77879 0
M  V30 11881 C 1139.62 2.22364 -2.55617 0
M  V30 11882 C 1138.18 2.75957 -2.55978 0
M  V30 11883 C 1137.33 1.50792 -2.32717 0
M  V30 11884 H 1140.28 0.432381 -1.52696 0
M  V30 11885 H 1140.3 3.04775 -2.27799 0
M  V30 11886 H 1139.81 1.68789 -3.49474 0
M  V30 11887 H 1137.91 3.33562 -1.66034 0
M  V30 11888 H 1138.02 3.22676 -3.54142 0
M  V30 11889 H 1136.39 1.7857 -1.81617 0
M  V30 11890 H 1137.17 0.991343 -3.28675 0
M  V30 11891 N 1139.62 1.30703 0.880598 0
M  V30 11892 C 1140.86 1.19778 1.63277 0
M  V30 11893 C 1141.19 -0.246521 1.92931 0
M  V30 11894 O 1140.45 -1.19226 1.55189 0
M  V30 11895 C 1140.74 1.97628 2.97789 0
M  V30 11896 C 1140.41 3.47213 2.87669 0
M  V30 11897 C 1139.07 3.88004 2.84617 0
M  V30 11898 C 1141.42 4.4245 2.75477 0
M  V30 11899 C 1138.75 5.22315 2.67216 0
M  V30 11900 C 1141.1 5.76874 2.59614 0
M  V30 11901 C 1139.77 6.16898 2.54939 0
M  V30 11902 H 1139.04 0.438298 0.597475 0
M  V30 11903 H 1141.69 1.61853 1.02352 0
M  V30 11904 H 1139.99 1.48201 3.6269 0
M  V30 11905 H 1141.69 1.86563 3.54958 0
M  V30 11906 H 1138.28 3.14802 2.90857 0
M  V30 11907 H 1142.46 4.11875 2.76899 0
M  V30 11908 H 1137.72 5.52412 2.62014 0
M  V30 11909 H 1141.89 6.50304 2.49155 0
M  V30 11910 H 1139.52 7.20916 2.41214 0
M  V30 11911 N 1141.09 -1.09351 1.1349 0
M  V30 11912 C 1142.32 -1.85844 0.92069 0
M  V30 11913 C 1142.74 -1.80616 -0.525303 0
M  V30 11914 O 1142.1 -1.1842 -1.37282 0
M  V30 11915 C 1142.15 -3.31716 1.4141 0
M  V30 11916 O 1141.25 -4.08014 0.599838 0
M  V30 11917 H 1140.59 -0.576242 0.32991 0
M  V30 11918 H 1143.12 -1.38084 1.50976 0
M  V30 11919 H 1143.13 -3.82564 1.41805 0
M  V30 11920 H 1141.81 -3.34837 2.46692 0
M  V30 11921 H 1140.39 -3.66944 0.663816 0
M  V30 11922 N 1142.57 -0.928524 -1.27343 0
M  V30 11923 C 1143.8 -0.58516 -1.98974 0
M  V30 11924 C 1144.22 0.829964 -1.68799 0
M  V30 11925 O 1143.58 1.55705 -0.928738 0
M  V30 11926 C 1143.63 -0.818662 -3.51184 0
M  V30 11927 O 1142.73 0.115355 -4.12239 0
M  V30 11928 H 1142.07 -0.225203 -0.624644 0
M  V30 11929 H 1144.6 -1.248 -1.6213 0
M  V30 11930 H 1144.61 -0.734554 -4.01333 0
M  V30 11931 H 1143.29 -1.8502 -3.72479 0
M  V30 11932 H 1141.86 -0.0187371 -3.72895 0
M  V30 11933 N 1144.05 1.41491 -0.694123 0
M  V30 11934 C 1144.98 2.33462 -0.0422169 0
M  V30 11935 C 1145.96 1.51739 0.76872 0
M  V30 11936 O 1147.15 1.8028 0.721985 0
M  V30 11937 C 1144.28 3.35545 0.895925 0
M  V30 11938 C 1143.23 4.27568 0.192188 0
M  V30 11939 C 1142.56 5.20014 1.24459 0
M  V30 11940 C 1143.86 5.1376 -0.940626 0
M  V30 11941 H 1145.55 2.88225 -0.810363 0
M  V30 11942 H 1143.1 1.38586 -0.39114 0
M  V30 11943 H 1145.05 3.9881 1.36121 0
M  V30 11944 H 1143.77 2.79129 1.69572 0
M  V30 11945 H 1142.43 3.65726 -0.25305 0
M  V30 11946 H 1142.08 4.59913 2.03687 0
M  V30 11947 H 1141.78 5.82417 0.778734 0
M  V30 11948 H 1143.3 5.86155 1.71041 0
M  V30 11949 H 1144.72 5.70601 -0.555692 0
M  V30 11950 H 1143.11 5.85097 -1.33349 0
M  V30 11951 H 1144.18 4.51011 -1.78093 0
M  V30 11952 N 1145.53 0.438773 1.51369 0
M  V30 11953 C 1146.46 -0.407771 2.25543 0
M  V30 11954 C 1147.47 -0.985065 1.29616 0
M  V30 11955 O 1148.66 -0.878961 1.55359 0
M  V30 11956 C 1145.76 -1.58257 2.9968 0
M  V30 11957 C 1144.93 -1.12389 4.22714 0
M  V30 11958 C 1143.99 -2.16897 4.79418 0
M  V30 11959 O 1143.02 -1.76273 5.41218 0
M  V30 11960 N 1144.22 -3.49396 4.63576 0
M  V30 11961 H 1146.99 0.227963 2.98832 0
M  V30 11962 H 1144.55 0.267741 1.59671 0
M  V30 11963 H 1146.54 -2.27796 3.34501 0
M  V30 11964 H 1145.11 -2.12362 2.29393 0
M  V30 11965 H 1144.33 -0.255509 3.93371 0
M  V30 11966 H 1145.62 -0.794848 5.02553 0
M  V30 11967 H 1145.02 -3.85132 4.14355 0
M  V30 11968 H 1143.57 -4.14826 5.02755 0
M  V30 11969 N 1147.01 -1.56678 0.170181 0
M  V30 11970 C 1148.25 -1.98743 -0.477534 0
M  V30 11971 C 1148.61 -1.0538 -1.60497 0
M  V30 11972 O 1149.81 -1.3658 -2.31515 0
M  V30 11973 C 1148.08 -3.44565 -0.949186 0
M  V30 11974 S 1149.64 -4.08658 -1.59824 0
M  V30 11975 H 1146.46 -0.694202 -0.153639 0
M  V30 11976 H 1149.06 -1.93663 0.267373 0
M  V30 11977 H 1147.76 -4.1023 -0.118205 0
M  V30 11978 H 1147.3 -3.53409 -1.72816 0
M  V30 11979 H 1149.31 -4.03614 -2.88635 0
M  V30 11980 N 1148.48 0.103547 -1.57259 0
M  V30 11981 C 1149.73 0.808576 -1.85656 0
M  V30 11982 C 1150.06 1.79143 -0.757502 0
M  V30 11983 O 1149.31 1.941 0.249723 0
M  V30 11984 C 1149.61 1.57946 -3.20605 0
M  V30 11985 C 1149.28 0.739502 -4.44795 0
M  V30 11986 C 1147.94 0.507921 -4.78512 0
M  V30 11987 C 1150.29 0.155034 -5.20969 0
M  V30 11988 C 1147.62 -0.318129 -5.85837 0
M  V30 11989 C 1149.97 -0.658292 -6.29166 0
M  V30 11990 C 1148.64 -0.900044 -6.61404 0
M  V30 11991 H 1147.91 0.295879 -0.679365 0
M  V30 11992 H 1150.55 0.0703604 -1.91371 0
M  V30 11993 H 1148.86 2.38902 -3.10537 0
M  V30 11994 H 1150.56 2.12921 -3.39803 0
M  V30 11995 H 1147.15 0.930103 -4.18386 0
M  V30 11996 H 1151.33 0.32113 -4.9526 0
M  V30 11997 H 1146.59 -0.514495 -6.09231 0
M  V30 11998 H 1150.76 -1.11809 -6.87366 0
M  V30 11999 H 1148.39 -1.54194 -7.44398 0
M  V30 12000 N 1149.96 1.53094 0.37415 0
M  V30 12001 C 1150.92 1.78264 1.44065 0
M  V30 12002 C 1151.92 0.652892 1.46949 0
M  V30 12003 O 1153.11 0.921046 1.47859 0
M  V30 12004 C 1150.25 1.89693 2.83248 0
M  V30 12005 H 1151.44 2.73505 1.23025 0
M  V30 12006 H 1148.99 1.44041 0.60678 0
M  V30 12007 H 1149.73 0.964884 3.09613 0
M  V30 12008 H 1149.51 2.71855 2.82554 0
M  V30 12009 H 1151 2.10787 3.60498 0
M  V30 12010 N 1151.44 -0.633461 1.44309 0
M  V30 12011 C 1152.66 -1.42527 1.50668 0
M  V30 12012 C 1153.09 -1.87637 0.131861 0
M  V30 12013 O 1152.45 -1.58595 -0.878477 0
M  V30 12014 C 1152.5 -2.62328 2.47419 0
M  V30 12015 O 1151.6 -3.62081 1.97411 0
M  V30 12016 H 1150.94 -0.426559 0.508864 0
M  V30 12017 H 1153.47 -0.773392 1.8942 0
M  V30 12018 H 1153.48 -3.09901 2.65378 0
M  V30 12019 H 1152.16 -2.2884 3.47283 0
M  V30 12020 H 1150.73 -3.21333 1.89208 0
M  V30 12021 N 1152.92 -1.31168 -0.873655 0
M  V30 12022 C 1153.85 -1.21094 -1.99646 0
M  V30 12023 C 1154.83 -0.0989684 -1.69812 0
M  V30 12024 O 1156.01 -0.282939 -1.92128 0
M  V30 12025 C 1153.14 -0.913684 -3.35066 0
M  V30 12026 C 1152.1 -1.98482 -3.79195 0
M  V30 12027 C 1151.42 -1.54033 -5.12033 0
M  V30 12028 C 1152.72 -3.39745 -3.96699 0
M  V30 12029 H 1154.42 -2.1503 -2.08333 0
M  V30 12030 H 1151.96 -1.03521 -1.00097 0
M  V30 12031 H 1153.92 -0.829821 -4.13149 0
M  V30 12032 H 1152.64 0.0613471 -3.26542 0
M  V30 12033 H 1151.3 -2.05851 -3.03349 0
M  V30 12034 H 1150.95 -0.553261 -4.99948 0
M  V30 12035 H 1150.65 -2.25688 -5.4253 0
M  V30 12036 H 1152.17 -1.47047 -5.92629 0
M  V30 12037 H 1153.59 -3.35071 -4.65188 0
M  V30 12038 H 1151.98 -4.09585 -4.38589 0
M  V30 12039 H 1153.05 -3.80802 -3.00196 0
M  V30 12040 N 1154.4 1.08748 -1.14068 0
M  V30 12041 C 1155.33 2.1544 -0.782199 0
M  V30 12042 C 1156.34 1.61575 0.199301 0
M  V30 12043 O 1157.53 1.78487 -0.0219044 0
M  V30 12044 C 1154.63 3.38611 -0.13983 0
M  V30 12045 C 1153.8 4.2187 -1.15518 0
M  V30 12046 C 1152.86 5.23451 -0.537216 0
M  V30 12047 O 1151.89 5.56424 -1.1992 0
M  V30 12048 N 1153.09 5.76413 0.6876 0
M  V30 12049 H 1155.86 2.46798 -1.70032 0
M  V30 12050 H 1153.42 1.24527 -1.03463 0
M  V30 12051 H 1155.41 4.03688 0.285999 0
M  V30 12052 H 1153.98 3.05084 0.681357 0
M  V30 12053 H 1153.2 3.52825 -1.75806 0
M  V30 12054 H 1154.49 4.74318 -1.84119 0
M  V30 12055 H 1153.88 5.51851 1.24406 0
M  V30 12056 H 1152.44 6.43189 1.05599 0
M  V30 12057 N 1155.87 0.935264 1.26849 0
M  V30 12058 C 1157.29 0.623198 1.75992 0
M  V30 12059 C 1157.64 -0.861647 1.76267 0
M  V30 12060 O 1156.76 -1.6743 1.37099 0
M  V30 12061 C 1157.36 1.12451 3.19594 0
M  V30 12062 C 1155.92 0.862974 3.66374 0
M  V30 12063 C 1155.06 1.27886 2.4605 0
M  V30 12064 H 1158.01 1.11422 1.13008 0
M  V30 12065 H 1158.03 0.475626 3.77516 0
M  V30 12066 H 1157.55 2.20522 3.19361 0
M  V30 12067 H 1155.65 -0.203606 3.72043 0
M  V30 12068 H 1155.76 1.48582 4.55478 0
M  V30 12069 H 1154.12 0.697335 2.44968 0
M  V30 12070 H 1154.91 2.36837 2.48522 0
M  V30 12071 N 1157.35 -1.41121 0.701616 0
M  V30 12072 C 1158.28 -2.33436 0.0545974 0
M  V30 12073 C 1159.26 -1.52144 -0.760662 0
M  V30 12074 O 1160.45 -1.80661 -0.712414 0
M  V30 12075 C 1157.58 -3.36015 -0.878117 0
M  V30 12076 C 1156.53 -4.27664 -0.169511 0
M  V30 12077 C 1155.86 -5.20666 -1.21699 0
M  V30 12078 C 1157.16 -5.13254 0.967859 0
M  V30 12079 H 1158.85 -2.87791 0.825637 0
M  V30 12080 H 1156.4 -1.38377 0.398484 0
M  V30 12081 H 1158.35 -3.99526 -1.34004 0
M  V30 12082 H 1157.08 -2.80024 -1.68089 0
M  V30 12083 H 1155.73 -3.65586 0.272441 0
M  V30 12084 H 1155.38 -4.60987 -2.01246 0
M  V30 12085 H 1155.08 -5.82822 -0.747836 0
M  V30 12086 H 1156.61 -5.87053 -1.6793 0
M  V30 12087 H 1158.02 -5.70298 0.585944 0
M  V30 12088 H 1156.42 -5.84381 1.3645 0
M  V30 12089 H 1157.49 -4.5006 1.80483 0
M  V30 12090 N 1158.83 -0.446794 -1.51134 0
M  V30 12091 C 1160.08 0.116666 -2.02464 0
M  V30 12092 C 1160.41 1.41532 -1.32975 0
M  V30 12093 O 1159.68 1.89278 -0.447651 0
M  V30 12094 C 1159.97 0.325659 -3.58624 0
M  V30 12095 C 1159.82 -0.992307 -4.38718 0
M  V30 12096 C 1161.14 1.09121 -4.26357 0
M  V30 12097 H 1158.26 0.0409262 -0.735863 0
M  V30 12098 H 1160.9 -0.587641 -1.80684 0
M  V30 12099 H 1159.05 0.925585 -3.77313 0
M  V30 12100 H 1160.72 -1.62694 -4.31658 0
M  V30 12101 H 1158.97 -1.5947 -4.03425 0
M  V30 12102 H 1159.64 -0.800005 -5.46172 0
M  V30 12103 H 1162.11 0.582944 -4.11996 0
M  V30 12104 H 1160.99 1.20621 -5.35483 0
M  V30 12105 H 1161.25 2.12171 -3.87861 0
M  V30 12106 N 1160.31 1.56586 -0.178487 0
M  V30 12107 C 1161.24 2.155 0.780543 0
M  V30 12108 C 1162.25 1.11244 1.18864 0
M  V30 12109 O 1163.44 1.38403 1.12725 0
M  V30 12110 C 1160.54 2.68867 2.0631 0
M  V30 12111 C 1159.72 3.97854 1.81744 0
M  V30 12112 C 1158.77 4.36213 2.94287 0
M  V30 12113 O 1157.8 5.03954 2.64612 0
M  V30 12114 N 1159 3.98356 4.22247 0
M  V30 12115 H 1161.77 2.98419 0.276836 0
M  V30 12116 H 1159.33 1.61899 0.00405241 0
M  V30 12117 H 1161.32 2.91522 2.80708 0
M  V30 12118 H 1159.89 1.90496 2.47851 0
M  V30 12119 H 1159.11 3.83502 0.912127 0
M  V30 12120 H 1160.4 4.82083 1.62707 0
M  V30 12121 H 1159.8 3.43835 4.49215 0
M  V30 12122 H 1158.35 4.25998 4.93325 0
M  V30 12123 N 1161.79 -0.095206 1.57312 0
M  V30 12124 C 1162.75 -1.09974 2.01093 0
M  V30 12125 C 1163.75 -1.32954 0.904424 0
M  V30 12126 O 1164.94 -1.29069 1.16991 0
M  V30 12127 C 1162.07 -2.4489 2.37153 0
M  V30 12128 H 1163.26 -0.722906 2.91057 0
M  V30 12129 H 1160.82 -0.340249 1.52552 0
M  V30 12130 H 1161.55 -2.8745 1.50143 0
M  V30 12131 H 1161.34 -2.29559 3.17876 0
M  V30 12132 H 1162.83 -3.17141 2.71683 0
M  V30 12133 N 1163.26 -1.53291 -0.366026 0
M  V30 12134 C 1164.23 -1.79025 -1.43117 0
M  V30 12135 C 1165.23 -0.660676 -1.46601 0
M  V30 12136 O 1166.42 -0.928875 -1.47369 0
M  V30 12137 C 1163.55 -1.91192 -2.82238 0
M  V30 12138 H 1164.74 -2.74154 -1.21572 0
M  V30 12139 H 1162.3 -1.44361 -0.599132 0
M  V30 12140 H 1163.03 -0.98129 -3.09097 0
M  V30 12141 H 1162.82 -2.7335 -2.81109 0
M  V30 12142 H 1164.31 -2.12696 -3.59375 0
M  V30 12143 N 1164.74 0.6258 -1.44643 0
M  V30 12144 C 1165.99 1.3873 -1.47925 0
M  V30 12145 C 1166.32 1.93868 -0.113469 0
M  V30 12146 O 1165.6 1.73976 0.869639 0
M  V30 12147 C 1165.88 2.54867 -2.54391 0
M  V30 12148 C 1165.73 2.05044 -4.00346 0
M  V30 12149 C 1167.05 3.57043 -2.57309 0
M  V30 12150 H 1164.17 0.503087 -0.538584 0
M  V30 12151 H 1166.81 0.707102 -1.76352 0
M  V30 12152 H 1164.96 3.12894 -2.30281 0
M  V30 12153 H 1166.63 1.51807 -4.35606 0
M  V30 12154 H 1164.88 1.36185 -4.11869 0
M  V30 12155 H 1165.55 2.88681 -4.70497 0
M  V30 12156 H 1168.02 3.08826 -2.78865 0
M  V30 12157 H 1166.9 4.35818 -3.33698 0
M  V30 12158 H 1167.16 4.11464 -1.61708 0
M  V30 12159 N 1166.22 1.31629 0.866686 0
M  V30 12160 C 1167.15 1.22151 1.99001 0
M  V30 12161 C 1168.13 0.107972 1.69757 0
M  V30 12162 O 1169.32 0.293125 1.91975 0
M  V30 12163 C 1166.45 0.93144 3.34577 0
M  V30 12164 C 1165.4 2.0049 3.78137 0
M  V30 12165 C 1164.73 1.56747 5.11209 0
M  V30 12166 C 1166.03 3.41844 3.94892 0
M  V30 12167 H 1167.72 2.16132 2.0719 0
M  V30 12168 H 1165.27 1.04051 0.995463 0
M  V30 12169 H 1167.22 0.851719 4.12703 0
M  V30 12170 H 1165.94 -0.0440289 3.2657 0
M  V30 12171 H 1164.6 2.07457 3.02253 0
M  V30 12172 H 1164.25 0.579767 4.99648 0
M  V30 12173 H 1163.95 2.28562 5.41326 0
M  V30 12174 H 1165.47 1.50188 5.91841 0
M  V30 12175 H 1166.89 3.37534 4.63405 0
M  V30 12176 H 1165.29 4.11905 4.36411 0
M  V30 12177 H 1166.36 3.82389 2.98172 0
M  V30 12178 N 1167.7 -1.08142 1.14644 0
M  V30 12179 C 1169.11 -1.62061 0.926986 0
M  V30 12180 C 1169.46 -1.88805 -0.533578 0
M  V30 12181 O 1168.59 -1.64753 -1.40305 0
M  V30 12182 C 1169.18 -2.94425 1.67629 0
M  V30 12183 C 1167.74 -3.45118 1.50235 0
M  V30 12184 C 1166.89 -2.19307 1.69705 0
M  V30 12185 H 1169.84 -0.913326 1.29785 0
M  V30 12186 H 1169.86 -3.62987 1.14107 0
M  V30 12187 H 1169.37 -2.74928 2.73927 0
M  V30 12188 H 1167.47 -3.69713 0.462967 0
M  V30 12189 H 1167.59 -4.2169 2.27408 0
M  V30 12190 H 1165.95 -2.28611 1.12291 0
M  V30 12191 H 1166.73 -2.02315 2.77351 0
M  V30 12192 N 1169.18 -0.941978 -1.26351 0
M  V30 12193 C 1170.59 -0.644413 -1.46012 0
M  V30 12194 C 1170.79 0.802031 -1.84851 0
M  V30 12195 O 1169.85 1.57859 -1.9707 0
M  V30 12196 C 1171.16 -1.60652 -2.54188 0
M  V30 12197 C 1172.71 -1.6163 -2.68038 0
M  V30 12198 C 1173.19 -2.56573 -3.79387 0
M  V30 12199 N 1174.68 -2.54863 -3.8678 0
M  V30 12200 C 1175.41 -3.2501 -4.72394 0
M  V30 12201 N 1174.91 -4.04586 -5.6239 0
M  V30 12202 N 1176.7 -3.13958 -4.66247 0
M  V30 12203 H 1168.85 -1.8769 -0.994293 0
M  V30 12204 H 1171.11 -0.806621 -0.498063 0
M  V30 12205 H 1170.82 -2.63907 -2.32478 0
M  V30 12206 H 1170.69 -1.3592 -3.5186 0
M  V30 12207 H 1173.08 -0.59099 -2.89122 0
M  V30 12208 H 1173.16 -1.90417 -1.70807 0
M  V30 12209 H 1172.81 -3.59223 -3.59056 0
M  V30 12210 H 1172.74 -2.25077 -4.76076 0
M  V30 12211 H 1175.23 -1.97082 -3.22439 0
M  V30 12212 H 1175.54 -4.55061 -6.24612 0
M  V30 12213 H 1173.89 -4.08687 -5.62139 0
M  V30 12214 H 1177.08 -2.51273 -3.94943 0
M  V30 12215 H 1177.25 -3.68894 -5.32749 0
M  V30 12216 N 1170.66 1.40747 -0.709091 0
M  V30 12217 C 1171.62 2.29118 -0.0611607 0
M  V30 12218 C 1172.62 1.45049 0.694081 0
M  V30 12219 O 1173.81 1.66039 0.526952 0
M  V30 12220 C 1170.94 3.28154 0.923447 0
M  V30 12221 H 1172.13 2.87913 -0.839413 0
M  V30 12222 H 1169.69 1.4896 -0.473363 0
M  V30 12223 H 1170.42 2.74366 1.72899 0
M  V30 12224 H 1170.21 3.90207 0.384862 0
M  V30 12225 H 1171.7 3.94343 1.37417 0
M  V30 12226 N 1172.13 0.454803 1.50895 0
M  V30 12227 C 1173.04 -0.353495 2.31921 0
M  V30 12228 C 1174.06 -1.01136 1.41589 0
M  V30 12229 O 1175.24 -1.00291 1.74653 0
M  V30 12230 C 1172.3 -1.43032 3.15821 0
M  V30 12231 C 1171.36 -0.790763 4.21954 0
M  V30 12232 C 1170.59 -1.81628 5.01843 0
M  V30 12233 O 1170.82 -3.04078 4.8259 0
M  V30 12234 O 1169.75 -1.39713 5.8546 0
M  V30 12235 H 1173.58 0.308463 3.02129 0
M  V30 12236 H 1171.16 0.216971 1.47816 0
M  V30 12237 H 1173.04 -2.05444 3.67927 0
M  V30 12238 H 1171.72 -2.07605 2.48358 0
M  V30 12239 H 1170.63 -0.128127 3.73881 0
M  V30 12240 H 1171.96 -0.188251 4.9184 0
M  V30 12241 N 1173.61 -1.56489 0.186789 0
M  V30 12242 C 1174.57 -2.17478 -0.723596 0
M  V30 12243 C 1175.57 -1.12698 -1.14699 0
M  V30 12244 O 1176.76 -1.38128 -1.06143 0
M  V30 12245 C 1173.9 -2.77015 -1.98685 0
M  V30 12246 H 1175.09 -2.99282 -0.192403 0
M  V30 12247 H 1172.64 -1.56174 -0.0628153 0
M  V30 12248 H 1173.38 -1.98987 -2.56076 0
M  V30 12249 H 1173.16 -3.53711 -1.69207 0
M  V30 12250 H 1174.65 -3.23872 -2.63622 0
M  V30 12251 N 1175.09 0.086862 -1.5736 0
M  V30 12252 C 1176.51 0.441284 -1.53378 0
M  V30 12253 C 1176.71 1.80046 -0.904748 0
M  V30 12254 O 1175.76 2.47484 -0.500781 0
M  V30 12255 C 1177.07 0.3962 -2.98078 0
M  V30 12256 C 1178.62 0.477468 -3.09337 0
M  V30 12257 C 1179.1 0.462448 -4.55659 0
M  V30 12258 N 1180.59 0.522963 -4.60238 0
M  V30 12259 C 1181.32 0.533313 -5.70914 0
M  V30 12260 N 1180.82 0.499376 -6.90998 0
M  V30 12261 N 1182.61 0.578742 -5.59113 0
M  V30 12262 H 1174.76 -0.803308 -1.96623 0
M  V30 12263 H 1177.03 -0.299879 -0.89932 0
M  V30 12264 H 1176.73 -0.535505 -3.47599 0
M  V30 12265 H 1176.61 1.21209 -3.57195 0
M  V30 12266 H 1178.99 1.39959 -2.59799 0
M  V30 12267 H 1179.07 -0.366717 -2.53158 0
M  V30 12268 H 1178.72 -0.455768 -5.05851 0
M  V30 12269 H 1178.65 1.32396 -5.09685 0
M  V30 12270 H 1181.14 0.554051 -3.73816 0
M  V30 12271 H 1181.45 0.510784 -7.7111 0
M  V30 12272 H 1179.8 0.466296 -6.93434 0
M  V30 12273 H 1182.99 0.602841 -4.64202 0
M  V30 12274 H 1183.16 0.583339 -6.45369 0
M  V30 12275 N 1176.57 1.53483 0.357892 0
M  V30 12276 C 1177.5 1.83444 1.44466 0
M  V30 12277 C 1178.48 0.688486 1.55544 0
M  V30 12278 O 1179.66 0.93906 1.69986 0
M  V30 12279 C 1176.79 2.03122 2.81707 0
M  V30 12280 C 1175.75 3.1891 2.85448 0
M  V30 12281 C 1175.07 3.23895 4.25436 0
M  V30 12282 C 1176.37 4.57334 2.52275 0
M  V30 12283 H 1178.07 2.74456 1.19642 0
M  V30 12284 H 1175.61 1.3206 0.574112 0
M  V30 12285 H 1177.57 2.22666 3.57768 0
M  V30 12286 H 1176.29 1.08827 3.07935 0
M  V30 12287 H 1174.95 2.99199 2.11838 0
M  V30 12288 H 1174.6 2.27223 4.48753 0
M  V30 12289 H 1174.3 4.01694 4.28854 0
M  V30 12290 H 1175.82 3.45632 5.0336 0
M  V30 12291 H 1177.24 4.76988 3.1805 0
M  V30 12292 H 1175.63 5.37431 2.66998 0
M  V30 12293 H 1176.7 4.61921 1.47501 0
M  V30 12294 N 1178.05 -0.61812 1.44973 0
M  V30 12295 C 1178.98 -1.74035 1.55673 0
M  V30 12296 C 1179.96 -1.65112 0.4089 0
M  V30 12297 O 1181.14 -1.83673 0.630698 0
M  V30 12298 C 1178.27 -3.1261 1.51303 0
M  V30 12299 C 1177.23 -3.36334 2.64696 0
M  V30 12300 C 1176.55 -4.75072 2.45378 0
M  V30 12301 C 1177.85 -3.27618 4.06772 0
M  V30 12302 H 1179.55 -1.65336 2.49608 0
M  V30 12303 H 1177.09 -0.794003 1.20132 0
M  V30 12304 H 1179.04 -3.90906 1.57388 0
M  V30 12305 H 1177.77 -3.22123 0.538914 0
M  V30 12306 H 1176.43 -2.60423 2.58022 0
M  V30 12307 H 1176.08 -4.81306 1.46129 0
M  V30 12308 H 1175.78 -4.91903 3.21412 0
M  V30 12309 H 1177.3 -5.55582 2.53301 0
M  V30 12310 H 1178.71 -3.95802 4.14746 0
M  V30 12311 H 1177.11 -3.55981 4.83113 0
M  V30 12312 H 1178.18 -2.25219 4.29423 0
M  V30 12313 N 1179.52 -1.32087 -0.859693 0
M  V30 12314 C 1180.49 -1.20546 -1.94939 0
M  V30 12315 C 1181.49 -0.12982 -1.60275 0
M  V30 12316 O 1182.68 -0.379853 -1.70008 0
M  V30 12317 C 1179.81 -0.852717 -3.30063 0
M  V30 12318 H 1181 -2.17384 -2.06602 0
M  V30 12319 H 1178.55 -1.15846 -1.04926 0
M  V30 12320 H 1179.29 0.114059 -3.24099 0
M  V30 12321 H 1179.07 -1.63035 -3.56598 0
M  V30 12322 H 1180.56 -0.796145 -4.09941 0
M  V30 12323 N 1181 1.07532 -1.15215 0
M  V30 12324 C 1181.93 2.1668 -0.870171 0
M  V30 12325 C 1182.91 1.69161 0.178483 0
M  V30 12326 O 1184.1 1.94172 0.0332489 0
M  V30 12327 C 1181.23 3.45464 -0.356666 0
M  V30 12328 C 1180.18 4.06424 -1.34179 0
M  V30 12329 C 1179.51 5.30266 -0.687206 0
M  V30 12330 C 1180.81 4.46666 -2.70715 0
M  V30 12331 H 1182.5 2.40526 -1.7829 0
M  V30 12332 H 1180.05 1.15598 -0.858665 0
M  V30 12333 H 1182 4.21144 -0.146947 0
M  V30 12334 H 1180.72 3.21199 0.591527 0
M  V30 12335 H 1179.38 3.32786 -1.53783 0
M  V30 12336 H 1179.03 5.0229 0.267077 0
M  V30 12337 H 1178.73 5.72009 -1.34462 0
M  V30 12338 H 1180.26 6.08653 -0.487218 0
M  V30 12339 H 1181.67 5.13483 -2.54966 0
M  V30 12340 H 1180.07 4.99355 -3.32813 0
M  V30 12341 H 1181.14 3.58123 -3.26919 0
M  V30 12342 N 1182.48 0.948665 1.2585 0
M  V30 12343 C 1183.43 0.434929 2.23813 0
M  V30 12344 C 1184.41 -0.472518 1.53805 0
M  V30 12345 O 1185.61 -0.306542 1.74325 0
M  V30 12346 C 1182.74 -0.291678 3.42059 0
M  V30 12347 C 1181.82 0.633493 4.19342 0
M  V30 12348 N 1182.21 1.76254 4.74097 0
M  V30 12349 C 1180.51 0.440528 4.43819 0
M  V30 12350 C 1181.21 2.33968 5.32573 0
M  V30 12351 N 1180.19 1.62687 5.18685 0
M  V30 12352 H 1183.99 1.29668 2.63749 0
M  V30 12353 H 1181.5 0.805431 1.4102 0
M  V30 12354 H 1183.5 -0.676811 4.1137 0
M  V30 12355 H 1182.16 -1.15011 3.03649 0
M  V30 12356 H 1183.17 2.14453 4.71413 0
M  V30 12357 H 1179.85 -0.375515 4.15808 0
M  V30 12358 H 1181.24 3.2914 5.85761 0
M  V30 12359 N 1183.96 -1.40369 0.716545 0
M  V30 12360 C 1184.91 -2.32539 0.053472 0
M  V30 12361 C 1185.9 -1.5209 -0.745984 0
M  V30 12362 O 1187.11 -1.67883 -0.649245 0
M  V30 12363 H 1183.48 -0.751998 -0.00151088 0
M  V30 12364 H 1185.45 -2.86111 0.847535 0
M  V30 12365 C 1184.2 -3.37061 -0.853515 0
M  V30 12366 H 1183.52 -3.99032 -0.247754 0
M  V30 12367 H 1184.96 -4.04046 -1.28541 0
M  V30 12368 C 1183.42 -2.72619 -1.97941 0
M  V30 12369 O 1183.95 -2.59024 -3.07033 0
M  V30 12370 N 1182.16 -2.30988 -1.76332 0
M  V30 12371 H 1181.71 -2.42246 -0.876063 0
M  V30 12372 H 1181.66 -1.88209 -2.51843 0
M  V30 12373 N 1185.44 -0.462799 -1.50652 0
M  V30 12374 C 1186.68 0.0951853 -2.02576 0
M  V30 12375 C 1187.02 1.40113 -1.34469 0
M  V30 12376 O 1186.29 1.88793 -0.467702 0
M  V30 12377 C 1186.57 0.287603 -3.5895 0
M  V30 12378 C 1186.43 -1.03878 -4.37641 0
M  V30 12379 C 1187.75 1.04593 -4.27491 0
M  V30 12380 H 1184.86 0.0331191 -0.736255 0
M  V30 12381 H 1187.51 -0.606772 -1.80051 0
M  V30 12382 H 1185.66 0.885514 -3.78274 0
M  V30 12383 H 1187.33 -1.67263 -4.29908 0
M  V30 12384 H 1185.57 -1.6374 -4.01711 0
M  V30 12385 H 1186.24 -0.857889 -5.45293 0
M  V30 12386 H 1188.72 0.539213 -4.12591 0
M  V30 12387 H 1187.59 1.14935 -5.36732 0
M  V30 12388 H 1187.86 2.08045 -3.90089 0
M  V30 12389 N 1186.91 1.56388 -0.195085 0
M  V30 12390 C 1188.14 2.02406 0.452399 0
M  V30 12391 C 1188.56 1.07432 1.54402 0
M  V30 12392 O 1187.92 0.0578246 1.81208 0
M  V30 12393 C 1187.97 3.46864 0.985778 0
M  V30 12394 O 1187.07 3.55007 2.09867 0
M  V30 12395 H 1186.42 0.65553 0.105719 0
M  V30 12396 H 1188.95 2.02299 -0.30596 0
M  V30 12397 H 1188.96 3.86655 1.30238 0
M  V30 12398 H 1187.63 4.15481 0.186662 0
M  V30 12399 H 1186.21 3.2709 1.79071 0
M  V30 12400 N 1188.39 -0.0785156 1.57404 0
M  V30 12401 C 1189.64 -0.778938 1.86919 0
M  V30 12402 C 1189.97 -1.77915 0.785906 0
M  V30 12403 O 1189.22 -1.94473 -0.218811 0
M  V30 12404 C 1189.52 -1.52826 3.23078 0
M  V30 12405 C 1189.19 -0.668645 4.45915 0
M  V30 12406 C 1187.85 -0.43173 4.79259 0
M  V30 12407 C 1190.2 -0.0721327 5.2115 0
M  V30 12408 C 1187.53 0.41129 5.85257 0
M  V30 12409 C 1189.88 0.758303 6.28039 0
M  V30 12410 C 1188.55 1.00515 6.59889 0
M  V30 12411 H 1187.82 -0.285034 0.683986 0
M  V30 12412 H 1190.46 -0.039906 1.91458 0
M  V30 12413 H 1188.77 -2.33931 3.14299 0
M  V30 12414 H 1190.46 -2.07488 3.43147 0
M  V30 12415 H 1187.05 -0.863424 4.19813 0
M  V30 12416 H 1191.24 -0.242297 4.95708 0
M  V30 12417 H 1186.49 0.611354 6.08336 0
M  V30 12418 H 1190.67 1.2273 6.855 0
M  V30 12419 H 1188.3 1.66017 7.41851 0
M  V30 12420 N 1189.87 -1.5367 -0.349747 0
M  V30 12421 C 1190.8 -1.7603 -1.4522 0
M  V30 12422 C 1191.78 -0.609171 -1.50758 0
M  V30 12423 O 1192.97 -0.843613 -1.68569 0
M  V30 12424 C 1190.09 -1.85336 -2.83493 0
M  V30 12425 C 1189.14 -3.07438 -2.95608 0
M  V30 12426 S 1189.97 -4.66625 -2.62719 0
M  V30 12427 C 1191.13 -4.78802 -4.03112 0
M  V30 12428 H 1191.36 -2.69263 -1.26035 0
M  V30 12429 H 1188.89 -1.4446 -0.545044 0
M  V30 12430 H 1190.85 -1.91383 -3.63157 0
M  V30 12431 H 1189.51 -0.931267 -2.99977 0
M  V30 12432 H 1188.71 -3.10606 -3.96913 0
M  V30 12433 H 1188.31 -2.99585 -2.23886 0
M  V30 12434 H 1190.6 -4.5983 -4.97557 0
M  V30 12435 H 1191.54 -5.80886 -4.04941 0
M  V30 12436 H 1191.95 -4.07305 -3.90849 0
M  V30 12437 N 1191.35 0.610423 -1.45298 0
M  V30 12438 C 1192.26 1.74964 -1.56285 0
M  V30 12439 C 1193.27 1.68149 -0.447436 0
M  V30 12440 O 1194.45 1.88556 -0.707725 0
M  V30 12441 C 1191.52 3.11417 -1.52383 0
M  V30 12442 C 1190.58 3.29707 -2.7494 0
M  V30 12443 C 1189.81 4.5965 -2.71215 0
M  V30 12444 O 1190.03 5.41789 -1.78383 0
M  V30 12445 O 1188.97 4.80591 -3.62375 0
M  V30 12446 H 1192.79 1.68646 -2.52571 0
M  V30 12447 H 1190.38 0.774168 -1.27777 0
M  V30 12448 H 1192.26 3.9272 -1.52805 0
M  V30 12449 H 1190.93 3.18232 -0.592472 0
M  V30 12450 H 1189.84 2.48003 -2.80081 0
M  V30 12451 H 1191.17 3.27766 -3.67192 0
M  V30 12452 N 1192.83 1.32541 0.852676 0
M  V30 12453 C 1193.76 1.24254 1.97694 0
M  V30 12454 C 1194.74 0.125971 1.69633 0
M  V30 12455 O 1195.92 0.31347 1.91653 0
M  V30 12456 C 1193.05 0.966874 3.3357 0
M  V30 12457 C 1192.01 2.0449 3.75989 0
M  V30 12458 C 1191.33 1.6216 5.09518 0
M  V30 12459 C 1192.63 3.46013 3.91244 0
M  V30 12460 H 1194.33 2.18317 2.04886 0
M  V30 12461 H 1191.87 1.05101 0.984371 0
M  V30 12462 H 1193.83 0.895444 4.11776 0
M  V30 12463 H 1192.55 -0.0093893 3.26599 0
M  V30 12464 H 1191.21 2.10651 3.00036 0
M  V30 12465 H 1190.86 0.632729 4.99005 0
M  V30 12466 H 1190.56 2.3429 5.38871 0
M  V30 12467 H 1192.08 1.56457 5.90215 0
M  V30 12468 H 1193.49 3.4243 4.59799 0
M  V30 12469 H 1191.89 4.1651 4.32017 0
M  V30 12470 H 1192.96 3.8553 2.941 0
M  V30 12471 N 1194.3 -1.0692 1.15784 0
M  V30 12472 C 1195.23 -2.16216 0.881649 0
M  V30 12473 C 1196.22 -1.69253 -0.16951 0
M  V30 12474 O 1197.4 -1.94186 -0.0229511 0
M  V30 12475 C 1194.53 -3.4527 0.374982 0
M  V30 12476 C 1193.48 -4.05706 1.36332 0
M  V30 12477 C 1192.81 -5.29894 0.715317 0
M  V30 12478 C 1194.11 -4.45224 2.7308 0
M  V30 12479 H 1195.8 -2.39577 1.79563 0
M  V30 12480 H 1193.35 -1.15141 0.864784 0
M  V30 12481 H 1195.3 -4.2106 0.169279 0
M  V30 12482 H 1194.03 -3.21508 -0.574485 0
M  V30 12483 H 1192.69 -3.31965 1.55546 0
M  V30 12484 H 1192.33 -5.02425 -0.240436 0
M  V30 12485 H 1192.03 -5.71287 1.37494 0
M  V30 12486 H 1193.56 -6.08386 0.519489 0
M  V30 12487 H 1194.97 -5.12124 2.57686 0
M  V30 12488 H 1193.37 -4.97583 3.35457 0
M  V30 12489 H 1194.44 -3.56384 3.28813 0
M  V30 12490 N 1195.78 -0.955326 -1.25345 0
M  V30 12491 C 1197.01 -0.627233 -1.97688 0
M  V30 12492 C 1197.43 0.793973 -1.70522 0
M  V30 12493 O 1196.79 1.537 -0.961556 0
M  V30 12494 C 1196.84 -0.892969 -3.49369 0
M  V30 12495 O 1195.94 0.0278871 -4.12391 0
M  V30 12496 H 1195.28 -0.238402 -0.619726 0
M  V30 12497 H 1197.81 -1.28211 -1.59446 0
M  V30 12498 H 1197.82 -0.819517 -3.99685 0
M  V30 12499 H 1196.5 -1.92879 -3.6847 0
M  V30 12500 H 1195.08 -0.0978295 -3.72772 0
M  V30 12501 N 1197.26 1.39987 -0.723979 0
M  V30 12502 C 1198.22 2.29041 -0.0854583 0
M  V30 12503 C 1199.22 1.45777 0.678657 0
M  V30 12504 O 1200.41 1.66588 0.509311 0
M  V30 12505 C 1197.55 3.29115 0.88859 0
M  V30 12506 H 1198.74 2.87006 -0.869903 0
M  V30 12507 H 1196.29 1.48449 -0.489136 0
M  V30 12508 H 1197.03 2.76184 1.69979 0
M  V30 12509 H 1196.81 3.90593 0.343454 0
M  V30 12510 H 1198.3 3.95778 1.33227 0
M  V30 12511 N 1198.74 0.470782 1.50404 0
M  V30 12512 C 1199.69 -0.342183 2.25418 0
M  V30 12513 C 1200.67 -0.961726 1.28995 0
M  V30 12514 O 1201.87 -0.874327 1.53898 0
M  V30 12515 C 1198.99 -1.42378 3.12383 0
M  V30 12516 C 1198.08 -0.811982 4.16254 0
M  V30 12517 N 1198.47 0.0675245 5.05755 0
M  V30 12518 C 1196.77 -1.07596 4.32827 0
M  V30 12519 C 1197.47 0.414693 5.8022 0
M  V30 12520 N 1196.45 -0.210047 5.43194 0
M  V30 12521 H 1200.25 0.335344 2.91981 0
M  V30 12522 H 1197.76 0.284911 1.59881 0
M  V30 12523 H 1199.76 -2.01936 3.64729 0
M  V30 12524 H 1198.42 -2.1033 2.47369 0
M  V30 12525 H 1199.43 0.436333 5.16059 0
M  V30 12526 H 1196.11 -1.75048 3.79031 0
M  V30 12527 H 1197.5 1.13243 6.62288 0
M  V30 12528 N 1200.22 -1.56282 0.203376 0
M  V30 12529 C 1201.63 -1.58871 -0.152335 0
M  V30 12530 C 1201.83 -1.21978 -1.60386 0
M  V30 12531 O 1200.89 -0.946422 -2.34092 0
M  V30 12532 C 1202.2 -3.00287 0.157515 0
M  V30 12533 C 1203.75 -3.12846 0.098287 0
M  V30 12534 C 1204.23 -4.56408 0.38156 0
M  V30 12535 N 1205.72 -4.6202 0.330475 0
M  V30 12536 C 1206.45 -5.71006 0.523397 0
M  V30 12537 N 1205.95 -6.88428 0.777115 0
M  V30 12538 N 1207.74 -5.60238 0.457082 0
M  V30 12539 H 1199.89 -1.78543 1.15048 0
M  V30 12540 H 1202.15 -0.829019 0.459816 0
M  V30 12541 H 1201.86 -3.3187 1.16427 0
M  V30 12542 H 1201.73 -3.73372 -0.536041 0
M  V30 12543 H 1204.12 -2.8107 -0.899085 0
M  V30 12544 H 1204.2 -2.42129 0.825045 0
M  V30 12545 H 1203.85 -4.88897 1.37629 0
M  V30 12546 H 1203.78 -5.25325 -0.366182 0
M  V30 12547 H 1206.27 -3.77636 0.141327 0
M  V30 12548 H 1206.58 -7.67389 0.912911 0
M  V30 12549 H 1204.93 -6.90215 0.814104 0
M  V30 12550 H 1208.12 -4.67382 0.259226 0
M  V30 12551 H 1208.29 -6.45114 0.610848 0
M  V30 12552 N 1201.7 0.070167 -1.57444 0
M  V30 12553 C 1203.11 0.424991 -1.53838 0
M  V30 12554 C 1203.31 1.79076 -0.923793 0
M  V30 12555 O 1202.37 2.46939 -0.527002 0
M  V30 12556 C 1203.68 0.364562 -2.98482 0
M  V30 12557 C 1205.23 0.444631 -3.09826 0
M  V30 12558 C 1205.7 0.414093 -4.56124 0
M  V30 12559 N 1207.19 0.474119 -4.60767 0
M  V30 12560 C 1207.93 0.472729 -5.71448 0
M  V30 12561 N 1207.43 0.426059 -6.91489 0
M  V30 12562 N 1209.22 0.519408 -5.59695 0
M  V30 12563 H 1201.37 -0.824117 -1.9576 0
M  V30 12564 H 1203.63 -0.309401 -0.896089 0
M  V30 12565 H 1203.34 -0.572343 -3.47012 0
M  V30 12566 H 1203.21 1.17414 -3.5846 0
M  V30 12567 H 1205.6 1.37196 -2.61269 0
M  V30 12568 H 1205.68 -0.393547 -2.52755 0
M  V30 12569 H 1205.32 -0.509394 -5.05339 0
M  V30 12570 H 1205.25 1.26983 -5.11061 0
M  V30 12571 H 1207.75 0.514371 -3.74383 0
M  V30 12572 H 1208.06 0.428969 -7.71609 0
M  V30 12573 H 1206.4 0.392722 -6.9389 0
M  V30 12574 H 1209.59 0.553573 -4.64815 0
M  V30 12575 H 1209.77 0.514856 -6.45951 0
M  V30 12576 N 1203.17 1.53854 0.341593 0
M  V30 12577 C 1204.45 1.61823 1.09875 0
M  V30 12578 C 1204.83 0.440711 2.06448 0
M  V30 12579 O 1204.18 -0.566833 2.21358 0
M  V30 12580 C 1204.39 2.9799 1.81668 0
M  V30 12581 C 1205.74 3.53411 2.35341 0
M  V30 12582 O 1206.76 3.00177 1.91761 0
M  V30 12583 O 1205.62 4.4653 3.15076 0
M  V30 12584 H 1202.71 0.654599 0.5054 0
M  V30 12585 H 1205.26 1.66199 0.342929 0
M  V30 12586 H 1204.03 3.7513 1.11323 0
M  V30 12587 H 1203.65 2.97213 2.64103 0
M  V30 12588 N 1204.65 -0.602709 1.4562 0
M  V30 12589 C 1206.07 -0.923983 1.30133 0
M  V30 12590 C 1206.27 -1.99842 0.25796 0
M  V30 12591 O 1205.32 -2.50112 -0.346414 0
M  V30 12592 C 1206.64 -1.36029 2.68173 0
M  V30 12593 C 1208.18 -1.47423 2.76108 0
M  V30 12594 C 1208.66 -1.94427 4.14683 0
M  V30 12595 N 1210.15 -2.01653 4.17002 0
M  V30 12596 C 1210.89 -2.39255 5.211 0
M  V30 12597 N 1210.38 -2.75791 6.3554 0
M  V30 12598 N 1212.17 -2.39636 5.08459 0
M  V30 12599 H 1204.33 0.107377 2.12128 0
M  V30 12600 H 1206.59 -0.0146216 0.947887 0
M  V30 12601 H 1206.29 -0.644949 3.45736 0
M  V30 12602 H 1206.17 -2.32584 2.96959 0
M  V30 12603 H 1208.56 -2.18047 1.98845 0
M  V30 12604 H 1208.64 -0.4917 2.5103 0
M  V30 12605 H 1208.28 -1.24389 4.92433 0
M  V30 12606 H 1208.21 -2.93603 4.37156 0
M  V30 12607 H 1210.7 -1.75988 3.3442 0
M  V30 12608 H 1211.01 -3.03378 7.10761 0
M  V30 12609 H 1209.36 -2.73475 6.38934 0
M  V30 12610 H 1212.55 -2.10502 4.18098 0
M  V30 12611 H 1212.72 -2.68614 5.89704 0
M  V30 12612 N 1206.13 -1.32992 -0.845635 0
M  V30 12613 C 1207.06 -1.18513 -1.96182 0
M  V30 12614 C 1208.07 -0.11781 -1.62373 0
M  V30 12615 O 1209.26 -0.36761 -1.74674 0
M  V30 12616 C 1206.36 -0.793812 -3.29472 0
M  V30 12617 C 1205.54 -1.95134 -3.91461 0
M  V30 12618 C 1204.6 -1.54209 -5.03096 0
M  V30 12619 O 1203.62 -2.25545 -5.22607 0
M  V30 12620 N 1204.82 -0.443235 -5.78805 0
M  V30 12621 H 1207.59 -2.14663 -2.09141 0
M  V30 12622 H 1205.15 -1.25648 -1.02099 0
M  V30 12623 H 1207.14 -0.502263 -4.01571 0
M  V30 12624 H 1205.71 0.0768031 -3.12506 0
M  V30 12625 H 1204.93 -2.40889 -3.12035 0
M  V30 12626 H 1206.22 -2.72604 -4.2961 0
M  V30 12627 H 1205.62 0.150298 -5.655 0
M  V30 12628 H 1204.17 -0.211331 -6.51457 0
M  V30 12629 N 1207.61 1.06304 -1.1635 0
M  V30 12630 C 1208.86 1.78747 -0.943074 0
M  V30 12631 C 1209.18 1.87646 0.530483 0
M  V30 12632 O 1208.45 1.38506 1.38538 0
M  V30 12633 H 1207.03 0.662072 -0.345932 0
M  V30 12634 H 1209.69 1.28413 -1.46615 0
M  V30 12635 H 1208.78 2.80828 -1.3617 0
M  V30 12636 N 1209.09 0.96196 1.24836 0
M  V30 12637 C 1210.33 0.619489 1.92371 0
M  V30 12638 C 1210.65 -0.847233 1.75633 0
M  V30 12639 O 1209.92 -1.60419 1.12439 0
M  V30 12640 H 1208.5 0.226129 0.711951 0
M  V30 12641 H 1211.17 1.22179 1.5185 0
M  V30 12642 H 1210.26 0.855128 3.00157 0
M  V30 12643 N 1210.56 -1.39601 0.731392 0
M  V30 12644 C 1211.49 -2.33268 0.1041 0
M  V30 12645 C 1212.47 -1.53724 -0.728219 0
M  V30 12646 O 1213.66 -1.82131 -0.673933 0
M  V30 12647 C 1210.79 -3.37802 -0.806646 0
M  V30 12648 C 1209.74 -4.27928 -0.0787588 0
M  V30 12649 C 1209.07 -5.23131 -1.10628 0
M  V30 12650 C 1210.37 -5.11086 1.07651 0
M  V30 12651 H 1212.06 -2.85975 0.886496 0
M  V30 12652 H 1209.61 -1.375 0.427746 0
M  V30 12653 H 1211.56 -4.02278 -1.25499 0
M  V30 12654 H 1210.29 -2.83527 -1.62112 0
M  V30 12655 H 1208.95 -3.64926 0.349926 0
M  V30 12656 H 1208.59 -4.65152 -1.91422 0
M  V30 12657 H 1208.29 -5.84277 -0.624043 0
M  V30 12658 H 1209.82 -5.90483 -1.5544 0
M  V30 12659 H 1211.23 -5.68927 0.706781 0
M  V30 12660 H 1209.63 -5.81356 1.48814 0
M  V30 12661 H 1210.7 -4.46131 1.89988 0
M  V30 12662 N 1212.04 -0.478751 -1.50152 0
M  V30 12663 C 1212.99 0.311426 -2.28689 0
M  V30 12664 C 1213.96 0.980375 -1.34082 0
M  V30 12665 O 1215.14 0.991337 -1.63025 0
M  V30 12666 C 1212.28 1.38302 -3.16175 0
M  V30 12667 C 1211.4 0.728084 -4.2582 0
M  V30 12668 C 1210.53 1.77822 -5.00552 0
M  V30 12669 C 1209.57 1.10395 -6.02063 0
M  V30 12670 N 1208.71 2.09728 -6.70044 0
M  V30 12671 H 1213.55 -0.364592 -2.95761 0
M  V30 12672 H 1211.09 -0.191645 -1.45846 0
M  V30 12673 H 1213.04 2.01606 -3.65255 0
M  V30 12674 H 1211.67 2.0281 -2.51133 0
M  V30 12675 H 1210.73 -0.0177026 -3.80396 0
M  V30 12676 H 1212.04 0.196209 -4.98414 0
M  V30 12677 H 1211.19 2.48687 -5.53389 0
M  V30 12678 H 1209.93 2.34392 -4.27682 0
M  V30 12679 H 1208.94 0.38096 -5.48479 0
M  V30 12680 H 1210.16 0.545045 -6.76909 0
M  V30 12681 H 1208.11 2.65301 -5.9996 0
M  V30 12682 H 1208.02 1.61546 -7.38538 0
M  V30 12683 H 1209.29 2.7995 -7.27495 0
M  V30 12684 N 1213.52 1.56172 -0.211661 0
M  V30 12685 C 1214.47 2.19849 0.702515 0
M  V30 12686 C 1215.44 1.15091 1.19763 0
M  V30 12687 O 1216.62 1.43408 1.25852 0
M  V30 12688 C 1213.76 2.87468 1.90935 0
M  V30 12689 C 1212.88 4.06794 1.45406 0
M  V30 12690 C 1212.01 4.62224 2.61769 0
M  V30 12691 C 1211.05 5.73872 2.12926 0
M  V30 12692 N 1210.19 6.23635 3.22526 0
M  V30 12693 H 1215.03 2.97608 0.152777 0
M  V30 12694 H 1212.56 1.46962 0.0636596 0
M  V30 12695 H 1214.52 3.24851 2.61777 0
M  V30 12696 H 1213.15 2.12244 2.43213 0
M  V30 12697 H 1212.2 3.74962 0.640907 0
M  V30 12698 H 1213.52 4.87497 1.05584 0
M  V30 12699 H 1212.67 5.01999 3.40709 0
M  V30 12700 H 1211.41 3.80662 3.04873 0
M  V30 12701 H 1210.41 5.33609 1.32445 0
M  V30 12702 H 1211.64 6.57262 1.70833 0
M  V30 12703 H 1209.58 5.44991 3.65131 0
M  V30 12704 H 1209.5 6.99435 2.86926 0
M  V30 12705 H 1210.77 6.68066 4.01631 0
M  V30 12706 N 1215 -0.0618163 1.57479 0
M  V30 12707 C 1216.23 -0.770605 1.9169 0
M  V30 12708 C 1216.64 -1.71134 0.806841 0
M  V30 12709 O 1215.98 -1.8228 -0.228002 0
M  V30 12710 C 1216.04 -1.60962 3.21452 0
M  V30 12711 C 1215.71 -0.837193 4.49266 0
M  V30 12712 C 1216.7 -0.151964 5.19678 0
M  V30 12713 C 1214.39 -0.801414 4.95866 0
M  V30 12714 C 1216.38 0.558705 6.34947 0
M  V30 12715 C 1214.07 -0.0869788 6.11038 0
M  V30 12716 C 1215.07 0.591871 6.80431 0
M  V30 12717 O 1214.75 1.29478 7.93405 0
M  V30 12718 H 1214.49 -0.223673 0.637923 0
M  V30 12719 H 1217.04 -0.0333424 2.05373 0
M  V30 12720 H 1215.27 -2.38992 3.04006 0
M  V30 12721 H 1216.96 -2.19799 3.41238 0
M  V30 12722 H 1217.73 -0.170848 4.84699 0
M  V30 12723 H 1213.6 -1.31927 4.4172 0
M  V30 12724 H 1217.15 1.08913 6.89046 0
M  V30 12725 H 1213.05 -0.066057 6.45466 0
M  V30 12726 H 1213.81 1.20507 8.0958 0
M  V30 12727 N 1216.48 -1.54033 -0.333429 0
M  V30 12728 C 1217.7 -1.76031 -1.09672 0
M  V30 12729 C 1218.13 -0.502844 -1.81254 0
M  V30 12730 O 1217.48 0.54509 -1.72912 0
M  V30 12731 C 1217.53 -2.947 -2.07809 0
M  V30 12732 O 1216.64 -2.65555 -3.15522 0
M  V30 12733 H 1215.98 -0.583611 -0.316692 0
M  V30 12734 H 1218.51 -2.01026 -0.380732 0
M  V30 12735 H 1218.52 -3.21771 -2.50853 0
M  V30 12736 H 1217.19 -3.85895 -1.55106 0
M  V30 12737 H 1215.77 -2.49403 -2.77223 0
M  V30 12738 N 1217.95 0.594978 -1.45938 0
M  V30 12739 C 1219.37 0.917069 -1.30622 0
M  V30 12740 C 1219.57 1.99702 -0.268554 0
M  V30 12741 O 1218.63 2.50293 0.333146 0
M  V30 12742 C 1219.94 1.34604 -2.68891 0
M  V30 12743 C 1221.49 1.45957 -2.76886 0
M  V30 12744 C 1221.96 1.92225 -4.15708 0
M  V30 12745 N 1223.45 1.99439 -4.18065 0
M  V30 12746 C 1224.19 2.36488 -5.22361 0
M  V30 12747 N 1223.68 2.72416 -6.36994 0
M  V30 12748 N 1225.48 2.36936 -5.09723 0
M  V30 12749 H 1217.63 -0.118625 -2.12068 0
M  V30 12750 H 1219.89 0.00959453 -0.947951 0
M  V30 12751 H 1219.6 0.626605 -3.46073 0
M  V30 12752 H 1219.47 2.31006 -2.98188 0
M  V30 12753 H 1221.86 2.16989 -1.99999 0
M  V30 12754 H 1221.94 0.47838 -2.51287 0
M  V30 12755 H 1221.58 1.21775 -4.93085 0
M  V30 12756 H 1221.51 2.9128 -4.38707 0
M  V30 12757 H 1224 1.74212 -3.35349 0
M  V30 12758 H 1224.32 2.99604 -7.1236 0
M  V30 12759 H 1222.66 2.70083 -6.40375 0
M  V30 12760 H 1225.85 2.08282 -4.19209 0
M  V30 12761 H 1226.03 2.65483 -5.9112 0
M  V30 12762 N 1219.43 1.33438 0.838571 0
M  V30 12763 C 1220.66 1.27766 1.62356 0
M  V30 12764 C 1221.07 -0.15359 1.88576 0
M  V30 12765 O 1220.41 -1.10626 1.46654 0
M  V30 12766 C 1220.48 1.98435 2.99773 0
M  V30 12767 C 1220.14 3.47741 2.96522 0
M  V30 12768 C 1221.14 4.42938 2.72217 0
M  V30 12769 C 1218.82 3.89922 3.16648 0
M  V30 12770 C 1220.82 5.7829 2.68066 0
M  V30 12771 C 1218.5 5.25378 3.12123 0
M  V30 12772 C 1219.5 6.19374 2.87863 0
M  V30 12773 O 1219.19 7.52349 2.83242 0
M  V30 12774 H 1218.92 0.441527 0.511889 0
M  V30 12775 H 1221.47 1.76377 1.05262 0
M  V30 12776 H 1219.7 1.44415 3.58721 0
M  V30 12777 H 1221.39 1.86258 3.60642 0
M  V30 12778 H 1222.16 4.11673 2.56418 0
M  V30 12779 H 1218.04 3.17169 3.34552 0
M  V30 12780 H 1221.58 6.51629 2.4905 0
M  V30 12781 H 1217.48 5.56267 3.27471 0
M  V30 12782 H 1218.25 7.61901 2.99082 0
M  V30 12783 N 1220.91 -1.05686 1.16912 0
M  V30 12784 C 1221.84 -2.15268 0.904532 0
M  V30 12785 C 1222.82 -1.69424 -0.151548 0
M  V30 12786 O 1224.01 -1.942 -0.00235371 0
M  V30 12787 C 1221.14 -3.44853 0.411581 0
M  V30 12788 C 1220.09 -4.04237 1.40628 0
M  V30 12789 C 1219.42 -5.29105 0.771479 0
M  V30 12790 C 1220.72 -4.42303 2.77787 0
M  V30 12791 H 1222.41 -2.37659 1.82094 0
M  V30 12792 H 1219.96 -1.14217 0.876947 0
M  V30 12793 H 1221.91 -4.20857 0.213929 0
M  V30 12794 H 1220.63 -3.22099 -0.540352 0
M  V30 12795 H 1219.29 -3.30297 1.59058 0
M  V30 12796 H 1218.94 -5.02652 -0.187133 0
M  V30 12797 H 1218.64 -5.69797 1.43545 0
M  V30 12798 H 1220.16 -6.07801 0.583988 0
M  V30 12799 H 1221.58 -5.09362 2.63103 0
M  V30 12800 H 1219.98 -4.93997 3.40716 0
M  V30 12801 H 1221.05 -3.52877 3.32575 0
M  V30 12802 N 1222.39 -0.968567 -1.24324 0
M  V30 12803 C 1223.61 -0.648166 -1.97012 0
M  V30 12804 C 1224.04 0.775842 -1.71354 0
M  V30 12805 O 1223.4 1.52672 -0.977804 0
M  V30 12806 C 1223.44 -0.929974 -3.48402 0
M  V30 12807 O 1222.55 -0.015854 -4.12397 0
M  V30 12808 H 1221.89 -0.244961 -0.617163 0
M  V30 12809 H 1224.42 -1.29895 -1.58077 0
M  V30 12810 H 1224.43 -0.861863 -3.98793 0
M  V30 12811 H 1223.1 -1.96776 -3.66404 0
M  V30 12812 H 1221.68 -0.137361 -3.72647 0
M  V30 12813 N 1223.87 1.39211 -0.738786 0
M  V30 12814 C 1224.8 2.33209 -0.11647 0
M  V30 12815 C 1225.78 1.54108 0.720056 0
M  V30 12816 O 1226.96 1.82486 0.664264 0
M  V30 12817 C 1224.09 3.38226 0.78872 0
M  V30 12818 C 1223.05 4.27963 0.0560636 0
M  V30 12819 C 1222.37 5.2371 1.07852 0
M  V30 12820 C 1223.67 5.10508 -1.1036 0
M  V30 12821 H 1225.37 2.85501 -0.901649 0
M  V30 12822 H 1222.91 1.37272 -0.435032 0
M  V30 12823 H 1224.87 4.02938 1.23364 0
M  V30 12824 H 1223.59 2.84382 1.60606 0
M  V30 12825 H 1222.25 3.64735 -0.369274 0
M  V30 12826 H 1221.9 4.66161 1.88953 0
M  V30 12827 H 1221.6 5.846 0.593048 0
M  V30 12828 H 1223.12 5.91299 1.52307 0
M  V30 12829 H 1224.53 5.68544 -0.736943 0
M  V30 12830 H 1222.93 5.80558 -1.51895 0
M  V30 12831 H 1224 4.45117 -1.92352 0
M  V30 12832 N 1225.34 0.486708 1.49896 0
M  V30 12833 C 1226.28 -0.335809 2.26727 0
M  V30 12834 C 1227.29 -0.94333 1.32684 0
M  V30 12835 O 1228.48 -0.82909 1.58077 0
M  V30 12836 C 1225.58 -1.48642 3.04563 0
M  V30 12837 C 1224.75 -0.988837 4.26076 0
M  V30 12838 C 1223.81 -2.01535 4.86076 0
M  V30 12839 O 1222.84 -1.58966 5.46552 0
M  V30 12840 N 1224.04 -3.34471 4.74457 0
M  V30 12841 H 1226.8 0.322919 2.97955 0
M  V30 12842 H 1224.36 0.318403 1.58738 0
M  V30 12843 H 1226.36 -2.17039 3.41579 0
M  V30 12844 H 1224.93 -2.04956 2.36033 0
M  V30 12845 H 1224.15 -0.130232 3.93985 0
M  V30 12846 H 1225.43 -0.634562 5.04827 0
M  V30 12847 H 1224.83 -3.71755 4.26398 0
M  V30 12848 H 1223.39 -3.98621 5.15698 0
M  V30 12849 N 1226.82 -1.56058 0.219941 0
M  V30 12850 C 1228.05 -2.02652 -0.417101 0
M  V30 12851 C 1228.47 -1.09977 -1.53461 0
M  V30 12852 O 1227.82 -0.109088 -1.82174 0
M  V30 12853 C 1227.87 -3.48787 -0.950244 0
M  V30 12854 O 1227.6 -4.37928 0.12271 0
M  V30 12855 C 1229.1 -4.11018 -1.66069 0
M  V30 12856 H 1226.32 -0.663163 -0.102254 0
M  V30 12857 H 1228.86 -2.01722 0.335923 0
M  V30 12858 H 1227.02 -3.50338 -1.65355 0
M  V30 12859 H 1227.43 -5.23764 -0.277785 0
M  V30 12860 H 1228.9 -5.15046 -1.98575 0
M  V30 12861 H 1229.38 -3.55921 -2.57326 0
M  V30 12862 H 1229.99 -4.13313 -1.00263 0
M  V30 12863 N 1228.3 0.053464 -1.57509 0
M  V30 12864 C 1229.53 0.761533 -1.92375 0
M  V30 12865 C 1229.94 1.70179 -0.817585 0
M  V30 12866 O 1229.3 1.81313 0.207843 0
M  V30 12867 C 1229.35 1.53954 -3.27078 0
M  V30 12868 O 1229.07 0.637054 -4.33443 0
M  V30 12869 C 1230.57 2.34697 -3.76075 0
M  V30 12870 H 1227.79 0.215483 -0.635459 0
M  V30 12871 H 1230.34 0.0182624 -2.04492 0
M  V30 12872 H 1228.49 2.23492 -3.16434 0
M  V30 12873 H 1228.91 1.18006 -5.11053 0
M  V30 12874 H 1230.38 2.84716 -4.72906 0
M  V30 12875 H 1230.86 3.15041 -3.06016 0
M  V30 12876 H 1231.46 1.70281 -3.89724 0
M  V30 12877 N 1229.78 1.54207 0.325255 0
M  V30 12878 C 1231.01 1.76293 1.08298 0
M  V30 12879 C 1231.42 0.510722 1.81761 0
M  V30 12880 O 1230.78 -0.5185 1.7498 0
M  V30 12881 C 1230.83 2.95498 2.08238 0
M  V30 12882 O 1230.55 4.15877 1.37759 0
M  V30 12883 C 1232.05 3.29781 2.96242 0
M  V30 12884 H 1229.27 0.588576 0.322209 0
M  V30 12885 H 1231.82 2.0109 0.371896 0
M  V30 12886 H 1229.97 2.72979 2.74884 0
M  V30 12887 H 1230.39 4.82918 2.04672 0
M  V30 12888 H 1231.86 4.16495 3.62265 0
M  V30 12889 H 1232.34 2.46874 3.63249 0
M  V30 12890 H 1232.94 3.54372 2.3516 0
M  V30 12891 N 1231.26 -0.58723 1.46251 0
M  V30 12892 C 1232.19 -1.70694 1.5933 0
M  V30 12893 C 1233.17 -1.64208 0.443831 0
M  V30 12894 O 1234.35 -1.82294 0.669516 0
M  V30 12895 C 1231.48 -3.0933 1.579 0
M  V30 12896 C 1230.44 -3.30643 2.7177 0
M  V30 12897 C 1229.76 -4.69761 2.554 0
M  V30 12898 C 1231.06 -3.18916 4.1363 0
M  V30 12899 H 1232.76 -1.60004 2.53059 0
M  V30 12900 H 1230.3 -0.768343 1.21789 0
M  V30 12901 H 1232.26 -3.87479 1.65644 0
M  V30 12902 H 1230.98 -3.20907 0.60712 0
M  V30 12903 H 1229.64 -2.54892 2.63488 0
M  V30 12904 H 1229.29 -4.78098 1.56306 0
M  V30 12905 H 1228.99 -4.84974 3.31774 0
M  V30 12906 H 1230.51 -5.50084 2.65028 0
M  V30 12907 H 1231.93 -3.86915 4.23048 0
M  V30 12908 H 1230.32 -3.45653 4.90555 0
M  V30 12909 H 1231.39 -2.1606 4.34104 0
M  V30 12910 N 1232.74 -1.33881 -0.831482 0
M  V30 12911 C 1234.15 -1.23112 -1.40358 0
M  V30 12912 C 1234.5 0.146944 -1.95649 0
M  V30 12913 O 1233.62 1.04689 -1.89391 0
M  V30 12914 C 1234.22 -2.22899 -2.5515 0
M  V30 12915 C 1232.78 -2.15946 -3.08292 0
M  V30 12916 C 1231.92 -2.09975 -1.81124 0
M  V30 12917 H 1234.87 -1.45372 -0.63661 0
M  V30 12918 H 1234.9 -1.841 -3.32997 0
M  V30 12919 H 1234.41 -3.23186 -2.14878 0
M  V30 12920 H 1232.51 -1.18987 -3.53091 0
M  V30 12921 H 1232.62 -3.06822 -3.67964 0
M  V30 12922 H 1230.99 -1.55564 -2.01673 0
M  V30 12923 H 1231.77 -3.12082 -1.43037 0
M  V30 12924 N 1234.21 1.05064 -1.1747 0
M  V30 12925 C 1235.62 1.59547 -0.969628 0
M  V30 12926 C 1235.98 1.90153 0.483332 0
M  V30 12927 O 1235.1 1.68415 1.35887 0
M  V30 12928 C 1235.7 2.89877 -1.75377 0
M  V30 12929 C 1234.25 3.41013 -1.59332 0
M  V30 12930 C 1233.4 2.1473 -1.7546 0
M  V30 12931 H 1236.35 0.878595 -1.3216 0
M  V30 12932 H 1236.37 3.59834 -1.23691 0
M  V30 12933 H 1235.89 2.67569 -2.8112 0
M  V30 12934 H 1233.99 3.68355 -0.560827 0
M  V30 12935 H 1234.1 4.15512 -2.38509 0
M  V30 12936 H 1232.46 2.25553 -1.18313 0
M  V30 12937 H 1233.25 1.9489 -2.82618 0
M  V30 12938 N 1235.69 0.975146 1.23809 0
M  V30 12939 C 1236.65 0.516157 2.23312 0
M  V30 12940 C 1237.65 -0.39136 1.55965 0
M  V30 12941 O 1238.84 -0.185783 1.73206 0
M  V30 12942 C 1235.98 -0.251534 3.39971 0
M  V30 12943 H 1237.17 1.3959 2.65433 0
M  V30 12944 H 1234.72 0.760493 1.36551 0
M  V30 12945 H 1235.46 -1.14805 3.03299 0
M  V30 12946 H 1235.24 0.399825 3.90056 0
M  V30 12947 H 1236.73 -0.561438 4.13809 0
M  V30 12948 N 1237.17 -1.38817 0.746158 0
M  V30 12949 C 1238.1 -2.29081 0.0737986 0
M  V30 12950 C 1239.11 -1.47377 -0.691656 0
M  V30 12951 O 1240.3 -1.70326 -0.533973 0
M  V30 12952 C 1237.4 -3.26185 -0.919607 0
M  V30 12953 C 1236.58 -4.36879 -0.213349 0
M  V30 12954 C 1235.64 -5.1422 -1.11644 0
M  V30 12955 O 1234.66 -5.66137 -0.589747 0
M  V30 12956 N 1235.86 -5.26488 -2.44521 0
M  V30 12957 H 1238.63 -2.87424 0.848966 0
M  V30 12958 H 1236.19 -1.50518 0.596314 0
M  V30 12959 H 1238.18 -3.74802 -1.52662 0
M  V30 12960 H 1236.75 -2.68793 -1.5959 0
M  V30 12961 H 1235.97 -3.89994 0.574285 0
M  V30 12962 H 1237.26 -5.08053 0.275655 0
M  V30 12963 H 1236.66 -4.85846 -2.89777 0
M  V30 12964 H 1235.21 -5.78505 -3.00291 0
M  V30 12965 N 1238.65 -0.49465 -1.49636 0
M  V30 12966 C 1240.06 -0.0452894 -1.86645 0
M  V30 12967 C 1240.41 1.36686 -1.40753 0
M  V30 12968 O 1239.53 2.01751 -0.78265 0
M  V30 12969 C 1240.13 -0.0754115 -3.38716 0
M  V30 12970 C 1238.69 0.318579 -3.75049 0
M  V30 12971 C 1237.84 -0.450712 -2.73613 0
M  V30 12972 H 1240.79 -0.707758 -1.42044 0
M  V30 12973 H 1240.81 0.721372 -3.73599 0
M  V30 12974 H 1240.32 -1.10331 -3.72087 0
M  V30 12975 H 1238.42 1.34995 -3.47285 0
M  V30 12976 H 1238.53 0.00354416 -4.791 0
M  V30 12977 H 1236.9 0.0986455 -2.54509 0
M  V30 12978 H 1237.68 -1.47857 -3.09828 0
M  V30 12979 N 1240.13 1.55939 -0.228214 0
M  V30 12980 C 1241.09 2.1932 0.665681 0
M  V30 12981 C 1242.09 1.15699 1.11671 0
M  V30 12982 O 1243.28 1.40893 1.02444 0
M  V30 12983 C 1240.41 2.82185 1.9127 0
M  V30 12984 H 1241.6 2.99687 0.112986 0
M  V30 12985 H 1239.16 1.56285 0.0213865 0
M  V30 12986 H 1239.89 2.05706 2.5071 0
M  V30 12987 H 1239.68 3.58073 1.5977 0
M  V30 12988 H 1241.17 3.30748 2.54942 0
M  V30 12989 N 1241.6 -0.0451101 1.57535 0
M  V30 12990 C 1242.85 -0.739114 1.88529 0
M  V30 12991 C 1243.18 -1.76208 0.823468 0
M  V30 12992 O 1242.43 -1.94893 -0.177512 0
M  V30 12993 C 1242.73 -1.45938 3.26247 0
M  V30 12994 C 1242.4 -0.57391 4.47233 0
M  V30 12995 C 1241.06 -0.329974 4.80067 0
M  V30 12996 C 1243.41 0.0384272 5.21186 0
M  V30 12997 C 1240.74 0.535339 5.84253 0
M  V30 12998 C 1243.09 0.891349 6.26289 0
M  V30 12999 C 1241.76 1.1449 6.57608 0
M  V30 13000 H 1241.03 -0.270461 0.689878 0
M  V30 13001 H 1243.67 0.000714103 1.915 0
M  V30 13002 H 1241.98 -2.27212 3.1919 0
M  V30 13003 H 1243.68 -2.00162 3.47471 0
M  V30 13004 H 1240.27 -0.774181 4.2155 0
M  V30 13005 H 1244.45 -0.137096 4.96111 0
M  V30 13006 H 1239.71 0.740253 6.06902 0
M  V30 13007 H 1243.88 1.37243 6.82743 0
M  V30 13008 H 1241.51 1.81715 7.38162 0
M  V30 13009 N 1243.08 -1.54377 -0.317073 0
M  V30 13010 C 1244.03 -1.84948 -1.41057 0
M  V30 13011 C 1245.02 -0.721887 -1.53249 0
M  V30 13012 O 1246.23 -0.905648 -1.55557 0
M  V30 13013 H 1242.61 -0.586353 -0.470844 0
M  V30 13014 H 1244.58 -2.7638 -1.12501 0
M  V30 13015 C 1243.33 -2.09932 -2.77171 0
M  V30 13016 H 1242.65 -2.96162 -2.68566 0
M  V30 13017 H 1244.09 -2.35272 -3.52737 0
M  V30 13018 C 1242.55 -0.892855 -3.24853 0
M  V30 13019 O 1243.08 -0.105336 -4.01562 0
M  V30 13020 N 1241.28 -0.702685 -2.81976 0
M  V30 13021 H 1240.83 -1.34474 -2.19715 0
M  V30 13022 H 1240.79 0.103024 -3.14231 0
M  V30 13023 N 1244.56 0.579466 -1.4656 0
M  V30 13024 C 1245.49 1.69846 -1.60233 0
M  V30 13025 C 1246.47 1.6397 -0.452533 0
M  V30 13026 O 1247.66 1.81936 -0.679174 0
M  V30 13027 C 1244.79 3.08488 -1.59538 0
M  V30 13028 C 1243.74 3.29197 -2.7352 0
M  V30 13029 C 1243.07 4.684 -2.57887 0
M  V30 13030 C 1244.37 3.16718 -4.15315 0
M  V30 13031 H 1246.06 1.5866 -2.53904 0
M  V30 13032 H 1243.61 0.761873 -1.22194 0
M  V30 13033 H 1245.56 3.86595 -1.67696 0
M  V30 13034 H 1244.28 3.20581 -0.62413 0
M  V30 13035 H 1242.94 2.53491 -2.64836 0
M  V30 13036 H 1242.59 4.77262 -1.58839 0
M  V30 13037 H 1242.29 4.83208 -3.34341 0
M  V30 13038 H 1243.81 5.48671 -2.67942 0
M  V30 13039 H 1245.23 3.84666 -4.25094 0
M  V30 13040 H 1243.63 3.43047 -4.92381 0
M  V30 13041 H 1244.7 2.13755 -4.35244 0
M  V30 13042 N 1246.04 1.3432 0.824371 0
M  V30 13043 C 1246.97 1.21619 1.94271 0
M  V30 13044 C 1247.98 0.143628 1.62165 0
M  V30 13045 O 1249.17 0.395353 1.74067 0
M  V30 13046 C 1246.27 0.846128 3.28167 0
M  V30 13047 C 1245.45 2.01337 3.88307 0
M  V30 13048 C 1244.5 1.62194 5.00579 0
M  V30 13049 O 1243.53 2.33831 5.18953 0
M  V30 13050 N 1244.73 0.535262 5.78027 0
M  V30 13051 H 1247.5 2.17963 2.05699 0
M  V30 13052 H 1245.06 1.27256 1.00088 0
M  V30 13053 H 1247.05 0.566086 4.00721 0
M  V30 13054 H 1245.62 -0.0270764 3.12588 0
M  V30 13055 H 1244.84 2.45823 3.08164 0
M  V30 13056 H 1246.13 2.79404 4.25219 0
M  V30 13057 H 1245.53 -0.0603126 5.65668 0
M  V30 13058 H 1244.08 0.314946 6.51039 0
M  V30 13059 N 1247.52 -1.0444 1.18026 0
M  V30 13060 C 1248.48 -2.10532 0.906028 0
M  V30 13061 C 1249.48 -1.60443 -0.107022 0
M  V30 13062 O 1250.67 -1.73744 0.126001 0
M  V30 13063 C 1247.8 -3.39008 0.358625 0
M  V30 13064 H 1248.99 -2.36293 1.84677 0
M  V30 13065 H 1246.55 -1.20805 0.991763 0
M  V30 13066 H 1247.28 -3.18908 -0.588904 0
M  V30 13067 H 1247.07 -3.76678 1.08884 0
M  V30 13068 H 1248.56 -4.17189 0.185331 0
M  V30 13069 N 1248.99 -0.981699 -1.2329 0
M  V30 13070 C 1249.92 -0.542441 -2.27112 0
M  V30 13071 C 1250.91 0.425034 -1.64704 0
M  V30 13072 O 1252.09 0.318114 -1.91577 0
M  V30 13073 C 1249.22 0.154668 -3.46955 0
M  V30 13074 C 1248.17 -0.73022 -4.21725 0
M  V30 13075 C 1247.5 0.0991766 -5.34608 0
M  V30 13076 C 1248.8 -2.02166 -4.81587 0
M  V30 13077 H 1250.49 -1.41024 -2.64107 0
M  V30 13078 H 1248.04 -0.679544 -1.26957 0
M  V30 13079 H 1249.99 0.473281 -4.18734 0
M  V30 13080 H 1248.72 1.05693 -3.09025 0
M  V30 13081 H 1247.38 -1.03231 -3.51765 0
M  V30 13082 H 1247.02 1.00201 -4.92919 0
M  V30 13083 H 1246.72 -0.489788 -5.85555 0
M  V30 13084 H 1248.25 0.412141 -6.09207 0
M  V30 13085 H 1249.66 -1.76773 -5.45366 0
M  V30 13086 H 1248.06 -2.55851 -5.42826 0
M  V30 13087 H 1249.13 -2.70766 -4.02261 0
M  V30 13088 N 1250.47 1.3842 -0.753509 0
M  V30 13089 C 1251.72 1.99723 -0.309021 0
M  V30 13090 C 1252.04 1.60111 1.11308 0
M  V30 13091 O 1251.31 0.85792 1.76115 0
M  V30 13092 H 1249.89 0.738667 -0.111266 0
M  V30 13093 H 1252.55 1.69186 -0.967586 0
M  V30 13094 H 1251.65 3.09874 -0.372095 0
M  V30 13095 N 1251.95 0.502579 1.49372 0
M  V30 13096 C 1253.18 -0.0381429 2.06865 0
M  V30 13097 C 1253.59 -1.30674 1.36271 0
M  V30 13098 O 1252.95 -1.77078 0.441532 0
M  V30 13099 C 1253 -0.294068 3.60302 0
M  V30 13100 O 1252.72 0.924244 4.2824 0
M  V30 13101 C 1254.22 -0.878253 4.34513 0
M  V30 13102 H 1251.44 0.0211756 0.670666 0
M  V30 13103 H 1253.99 0.700387 1.92132 0
M  V30 13104 H 1252.14 -0.982583 3.74732 0
M  V30 13105 H 1252.56 0.688062 5.19967 0
M  V30 13106 H 1254.03 -1.0069 5.42739 0
M  V30 13107 H 1254.51 -1.87643 3.97098 0
M  V30 13108 H 1255.11 -0.227157 4.24693 0
M  V30 13109 N 1253.43 -1.55816 0.23648 0
M  V30 13110 C 1254.66 -2.02789 -0.39501 0
M  V30 13111 C 1255.07 -1.1153 -1.52832 0
M  V30 13112 O 1254.41 -0.120084 -1.83307 0
M  V30 13113 C 1254.47 -3.46052 -0.974066 0
M  V30 13114 C 1254.14 -4.56993 0.0256825 0
M  V30 13115 C 1255.13 -5.13208 0.831477 0
M  V30 13116 C 1252.82 -5.0208 0.148759 0
M  V30 13117 C 1254.81 -6.12994 1.74691 0
M  V30 13118 C 1252.5 -6.017 1.0677 0
M  V30 13119 C 1253.5 -6.57035 1.86531 0
M  V30 13120 O 1253.18 -7.54714 2.76878 0
M  V30 13121 H 1252.92 -0.668672 -0.0992687 0
M  V30 13122 H 1255.47 -2.02312 0.354826 0
M  V30 13123 H 1253.7 -3.43645 -1.77327 0
M  V30 13124 H 1255.39 -3.76586 -1.51453 0
M  V30 13125 H 1256.16 -4.79214 0.746922 0
M  V30 13126 H 1252.03 -4.58679 -0.461976 0
M  V30 13127 H 1255.58 -6.56111 2.36989 0
M  V30 13128 H 1251.48 -6.35115 1.15322 0
M  V30 13129 H 1252.24 -7.72292 2.71122 0
M  V30 13130 N 1254.91 0.036755 -1.57557 0
M  V30 13131 C 1256.15 0.729106 -1.88919 0
M  V30 13132 C 1256.48 1.75769 -0.832801 0
M  V30 13133 O 1255.74 1.94985 0.167173 0
M  V30 13134 C 1256.04 1.44206 -3.27016 0
M  V30 13135 C 1255.7 0.550184 -4.47531 0
M  V30 13136 C 1254.36 0.304511 -4.80236 0
M  V30 13137 C 1256.72 -0.0660664 -5.21158 0
M  V30 13138 C 1254.04 -0.566316 -5.8396 0
M  V30 13139 C 1256.4 -0.92455 -6.25807 0
M  V30 13140 C 1255.06 -1.17976 -6.56992 0
M  V30 13141 H 1254.33 0.266799 -0.691303 0
M  V30 13142 H 1256.98 -0.0108698 -1.91497 0
M  V30 13143 H 1255.28 2.25516 -3.2039 0
M  V30 13144 H 1256.98 1.98317 -3.48527 0
M  V30 13145 H 1253.57 0.751814 -4.21955 0
M  V30 13146 H 1257.75 0.110784 -4.96176 0
M  V30 13147 H 1253.01 -0.772428 -6.06501 0
M  V30 13148 H 1257.18 -1.40861 -6.82005 0
M  V30 13149 H 1254.81 -1.85627 -7.37188 0
M  V30 13150 N 1256.39 1.54543 0.308881 0
M  V30 13151 C 1257.3 1.87994 1.4034 0
M  V30 13152 C 1258.31 0.773294 1.55872 0
M  V30 13153 O 1259.49 1.069 1.70688 0
M  V30 13154 C 1256.55 2.11341 2.74838 0
M  V30 13155 C 1255.61 3.35086 2.68358 0
M  V30 13156 C 1254.85 3.5731 3.96441 0
M  V30 13157 O 1255.07 2.82692 4.9542 0
M  V30 13158 O 1254 4.50814 3.98811 0
M  V30 13159 H 1257.83 2.81094 1.14976 0
M  V30 13160 H 1255.41 1.40634 0.504236 0
M  V30 13161 H 1257.3 2.27943 3.54429 0
M  V30 13162 H 1255.97 1.21427 3.00062 0
M  V30 13163 H 1254.88 3.23855 1.87267 0
M  V30 13164 H 1256.21 4.25104 2.48087 0
M  V30 13165 N 1257.86 -0.571685 1.46866 0
M  V30 13166 C 1259.11 -1.32685 1.52444 0
M  V30 13167 C 1259.43 -1.94147 0.182225 0
M  V30 13168 O 1258.7 -1.79159 -0.792385 0
M  V30 13169 H 1257.28 -0.492679 0.561495 0
M  V30 13170 H 1259.94 -0.668694 1.8307 0
M  V30 13171 H 1259.04 -2.12788 2.28315 0
M  V30 13172 N 1259.34 -1.34755 -0.817236 0
M  V30 13173 C 1260.27 -1.29452 -1.94331 0
M  V30 13174 C 1261.25 -0.170902 -1.69239 0
M  V30 13175 O 1262.44 -0.364173 -1.90755 0
M  V30 13176 C 1259.57 -1.05497 -3.30889 0
M  V30 13177 C 1258.52 -2.14386 -3.70436 0
M  V30 13178 C 1257.85 -1.75612 -5.05039 0
M  V30 13179 C 1259.15 -3.56265 -3.81933 0
M  V30 13180 H 1260.84 -2.23672 -1.99025 0
M  V30 13181 H 1258.39 -1.07674 -0.956159 0
M  V30 13182 H 1260.34 -1.0043 -4.09257 0
M  V30 13183 H 1259.06 -0.0772059 -3.26509 0
M  V30 13184 H 1257.72 -2.18532 -2.94345 0
M  V30 13185 H 1257.37 -0.764809 -4.97152 0
M  V30 13186 H 1257.07 -2.48495 -5.3247 0
M  V30 13187 H 1258.6 -1.72051 -5.85859 0
M  V30 13188 H 1260.01 -3.545 -4.50558 0
M  V30 13189 H 1258.41 -4.27818 -4.20822 0
M  V30 13190 H 1259.48 -3.93192 -2.83775 0
M  V30 13191 N 1260.82 1.03812 -1.18578 0
M  V30 13192 C 1261.75 2.13802 -0.938665 0
M  V30 13193 C 1262.73 1.69643 0.124575 0
M  V30 13194 O 1263.92 1.94179 -0.0285421 0
M  V30 13195 C 1261.05 3.44154 -0.466392 0
M  V30 13196 C 1260 4.01949 -1.47041 0
M  V30 13197 C 1259.33 5.27811 -0.855558 0
M  V30 13198 C 1260.63 4.37827 -2.84789 0
M  V30 13199 H 1262.32 2.34732 -1.85852 0
M  V30 13200 H 1259.87 1.12808 -0.895007 0
M  V30 13201 H 1261.82 4.20463 -0.280856 0
M  V30 13202 H 1260.54 3.22918 0.489041 0
M  V30 13203 H 1259.2 3.27725 -1.64293 0
M  V30 13204 H 1258.85 5.02886 0.107142 0
M  V30 13205 H 1258.55 5.67441 -1.52592 0
M  V30 13206 H 1260.07 6.06795 -0.680609 0
M  V30 13207 H 1261.49 5.05112 -2.71173 0
M  V30 13208 H 1259.88 4.88514 -3.48532 0
M  V30 13209 H 1260.95 3.47541 -3.38147 0
M  V30 13210 N 1262.3 0.988223 1.22768 0
M  V30 13211 C 1263.21 0.543407 2.2822 0
M  V30 13212 C 1264.22 -0.405563 1.69208 0
M  V30 13213 O 1265.4 -0.273551 1.99534 0
M  V30 13214 C 1262.46 -0.139495 3.46419 0
M  V30 13215 C 1261.53 0.851853 4.20764 0
M  V30 13216 C 1260.76 0.201446 5.3332 0
M  V30 13217 O 1260.98 -1.00573 5.61464 0
M  V30 13218 O 1259.92 0.903956 5.95073 0
M  V30 13219 H 1263.74 1.42059 2.68427 0
M  V30 13220 H 1261.33 0.756239 1.28846 0
M  V30 13221 H 1263.21 -0.522226 4.18152 0
M  V30 13222 H 1261.88 -0.991315 3.08147 0
M  V30 13223 H 1260.79 1.28543 3.51322 0
M  V30 13224 H 1262.12 1.67273 4.62905 0
M  V30 13225 N 1263.78 -1.38018 0.760839 0
M  V30 13226 C 1265.02 -1.99557 0.319609 0
M  V30 13227 C 1265.34 -1.60699 -1.10457 0
M  V30 13228 O 1264.61 -0.867248 -1.75658 0
M  V30 13229 H 1263.19 -0.738066 0.115182 0
M  V30 13230 H 1265.86 -1.6867 0.976544 0
M  V30 13231 H 1264.95 -3.09672 0.388523 0
M  V30 13232 N 1265.25 -0.510493 -1.49103 0
M  V30 13233 C 1266.66 -0.0650831 -1.86587 0
M  V30 13234 C 1267.02 1.35185 -1.42195 0
M  V30 13235 O 1266.14 2.0091 -0.804004 0
M  V30 13236 C 1266.74 -0.111333 -3.38617 0
M  V30 13237 C 1265.29 0.278782 -3.75366 0
M  V30 13238 C 1264.44 -0.479707 -2.73119 0
M  V30 13239 H 1267.39 -0.722784 -1.41285 0
M  V30 13240 H 1267.41 0.681706 -3.74343 0
M  V30 13241 H 1266.93 -1.14271 -3.70896 0
M  V30 13242 H 1265.03 1.31304 -3.48698 0
M  V30 13243 H 1265.14 -0.047271 -4.79077 0
M  V30 13244 H 1263.5 0.0716459 -2.54599 0
M  V30 13245 H 1264.29 -1.51135 -3.08242 0
M  V30 13246 N 1266.73 1.55688 -0.24474 0
M  V30 13247 C 1267.69 2.20014 0.642382 0
M  V30 13248 C 1268.69 1.16877 1.10437 0
M  V30 13249 O 1269.88 1.41972 1.00943 0
M  V30 13250 C 1267.02 2.84198 1.88267 0
M  V30 13251 H 1268.21 2.9979 0.0811937 0
M  V30 13252 H 1265.76 1.56299 0.00480917 0
M  V30 13253 H 1266.5 2.08354 2.48514 0
M  V30 13254 H 1266.28 3.59747 1.55963 0
M  V30 13255 H 1267.77 3.33434 2.5142 0
M  V30 13256 N 1268.21 -0.0283989 1.57574 0
M  V30 13257 C 1269.14 -1.02828 2.09639 0
M  V30 13258 C 1270.12 -1.37668 0.999076 0
M  V30 13259 O 1271.31 -1.4654 1.27435 0
M  V30 13260 C 1268.44 -2.329 2.57633 0
M  V30 13261 C 1267.39 -2.12301 3.71635 0
M  V30 13262 C 1266.72 -3.48138 4.05837 0
M  V30 13263 C 1268.02 -1.50864 5.00037 0
M  V30 13264 H 1269.71 -0.594876 2.93431 0
M  V30 13265 H 1267.26 -0.284701 1.41158 0
M  V30 13266 H 1269.21 -3.03179 2.92678 0
M  V30 13267 H 1267.93 -2.78302 1.70926 0
M  V30 13268 H 1266.59 -1.44454 3.3694 0
M  V30 13269 H 1266.24 -3.9119 3.16195 0
M  V30 13270 H 1265.94 -3.3518 4.82626 0
M  V30 13271 H 1267.46 -4.19779 4.43417 0
M  V30 13272 H 1268.88 -2.11062 5.33035 0
M  V30 13273 H 1267.27 -1.48479 5.81441 0
M  V30 13274 H 1268.34 -0.474541 4.82572 0
M  V30 13275 N 1269.69 -1.54705 -0.300681 0
M  V30 13276 C 1270.65 -1.84934 -1.35395 0
M  V30 13277 C 1271.65 -0.72226 -1.43666 0
M  V30 13278 O 1272.84 -0.990543 -1.43296 0
M  V30 13279 C 1269.97 -2.02991 -2.73875 0
M  V30 13280 H 1271.17 -2.79063 -1.09835 0
M  V30 13281 H 1268.72 -1.46772 -0.537365 0
M  V30 13282 H 1269.45 -1.11151 -3.04657 0
M  V30 13283 H 1269.24 -2.85027 -2.69262 0
M  V30 13284 H 1270.73 -2.27747 -3.5003 0
M  V30 13285 N 1271.17 0.563888 -1.47167 0
M  V30 13286 C 1272.58 0.889156 -1.32537 0
M  V30 13287 C 1272.78 1.99088 -0.310854 0
M  V30 13288 O 1271.84 2.50943 0.27998 0
M  V30 13289 C 1273.15 1.28871 -2.71685 0
M  V30 13290 C 1274.7 1.40051 -2.79919 0
M  V30 13291 C 1275.17 1.83364 -4.19692 0
M  V30 13292 N 1276.67 1.90526 -4.22201 0
M  V30 13293 C 1277.4 2.25355 -5.2726 0
M  V30 13294 N 1276.9 2.58844 -6.42629 0
M  V30 13295 N 1278.69 2.26071 -5.14634 0
M  V30 13296 H 1270.84 -0.163581 -2.11769 0
M  V30 13297 H 1273.1 -0.0105151 -0.947942 0
M  V30 13298 H 1272.81 0.553057 -3.47324 0
M  V30 13299 H 1272.68 2.24629 -3.03021 0
M  V30 13300 H 1275.07 2.12698 -2.04557 0
M  V30 13301 H 1275.15 0.424971 -2.52245 0
M  V30 13302 H 1274.8 1.11289 -4.95557 0
M  V30 13303 H 1274.73 2.81909 -4.44786 0
M  V30 13304 H 1277.22 1.67059 -3.38968 0
M  V30 13305 H 1277.53 2.84427 -7.18555 0
M  V30 13306 H 1275.87 2.56439 -6.4596 0
M  V30 13307 H 1279.07 1.99343 -4.23533 0
M  V30 13308 H 1279.24 2.52885 -5.96618 0
M  V30 13309 N 1272.64 1.35187 0.810078 0
M  V30 13310 C 1273.61 1.27698 1.90331 0
M  V30 13311 C 1274.61 0.189216 1.59683 0
M  V30 13312 O 1275.8 0.442689 1.68481 0
M  V30 13313 C 1272.93 0.974631 3.26671 0
M  V30 13314 H 1274.12 2.24902 1.98392 0
M  V30 13315 H 1271.68 1.1966 1.00554 0
M  V30 13316 H 1272.41 0.0063068 3.24299 0
M  V30 13317 H 1272.2 1.76158 3.50301 0
M  V30 13318 H 1273.69 0.947743 4.06703 0
M  V30 13319 N 1274.12 -1.03182 1.19127 0
M  V30 13320 C 1275.03 -2.14875 0.94159 0
M  V30 13321 C 1276.05 -1.73727 -0.0973872 0
M  V30 13322 O 1277.22 -2.01214 0.0865775 0
M  V30 13323 C 1274.29 -3.43356 0.480366 0
M  V30 13324 C 1273.35 -3.98835 1.58838 0
M  V30 13325 C 1272.58 -5.21183 1.14907 0
M  V30 13326 O 1272.81 -5.70399 0.0114141 0
M  V30 13327 O 1271.74 -5.69423 1.95042 0
M  V30 13328 H 1275.57 -2.38799 1.8764 0
M  V30 13329 H 1273.15 -1.13299 0.973841 0
M  V30 13330 H 1275.03 -4.20763 0.231658 0
M  V30 13331 H 1273.71 -3.20884 -0.426041 0
M  V30 13332 H 1272.62 -3.22776 1.8912 0
M  V30 13333 H 1273.95 -4.25665 2.47123 0
M  V30 13334 N 1275.6 -0.99472 -1.22242 0
M  V30 13335 C 1276.85 -0.670275 -1.90661 0
M  V30 13336 C 1277.17 0.800369 -1.77818 0
M  V30 13337 O 1276.44 1.57381 -1.16653 0
M  V30 13338 H 1275.02 -0.244925 -0.705706 0
M  V30 13339 H 1277.68 -1.26162 -1.48557 0
M  V30 13340 H 1276.78 -0.934408 -2.97784 0
M  V30 13341 N 1277.08 1.37613 -0.768148 0
M  V30 13342 C 1278.32 2.00075 -0.331331 0
M  V30 13343 C 1278.66 1.60839 1.08833 0
M  V30 13344 O 1277.93 0.852849 1.74805 0
M  V30 13345 C 1278.22 3.57009 -0.470789 0
M  V30 13346 C 1278.07 4.06166 -1.9326 0
M  V30 13347 C 1279.39 4.39916 0.127111 0
M  V30 13348 H 1276.51 0.726855 -0.121864 0
M  V30 13349 H 1279.15 1.63343 -0.970518 0
M  V30 13350 H 1277.3 3.88431 0.0733688 0
M  V30 13351 H 1278.97 3.85325 -2.53618 0
M  V30 13352 H 1277.21 3.58492 -2.44266 0
M  V30 13353 H 1277.88 5.15219 -1.98125 0
M  V30 13354 H 1280.36 4.14732 -0.337144 0
M  V30 13355 H 1279.24 5.489 -0.000624226 0
M  V30 13356 H 1279.5 4.25018 1.21704 0
M  V30 13357 N 1278.56 0.518393 1.4883 0
M  V30 13358 C 1279.78 -0.0183131 2.07392 0
M  V30 13359 C 1280.21 -1.28468 1.37396 0
M  V30 13360 O 1279.56 -1.75975 0.436177 0
M  V30 13361 C 1279.61 -0.237211 3.59819 0
M  V30 13362 O 1278.72 -1.30835 3.91096 0
M  V30 13363 H 1278.06 0.0339621 0.663131 0
M  V30 13364 H 1280.59 0.722993 1.914 0
M  V30 13365 H 1280.6 -0.463424 4.0536 0
M  V30 13366 H 1279.27 0.687925 4.10171 0
M  V30 13367 H 1277.85 -1.06571 3.57347 0
M  V30 13368 N 1280.03 -1.55556 0.252993 0
M  V30 13369 C 1281.26 -2.03491 -0.374022 0
M  V30 13370 C 1281.68 -1.13208 -1.51094 0
M  V30 13371 O 1281.03 -0.147705 -1.81901 0
M  V30 13372 C 1281.09 -3.50724 -0.876047 0
M  V30 13373 O 1280.81 -4.37569 0.215574 0
M  V30 13374 C 1282.31 -4.14448 -1.57313 0
M  V30 13375 H 1279.53 -0.665183 -0.0881644 0
M  V30 13376 H 1282.07 -2.00964 0.378636 0
M  V30 13377 H 1280.23 -3.53766 -1.57886 0
M  V30 13378 H 1280.64 -5.24235 -0.166625 0
M  V30 13379 H 1282.11 -5.19142 -1.87606 0
M  V30 13380 H 1282.59 -3.61299 -2.49719 0
M  V30 13381 H 1283.2 -4.15346 -0.914735 0
M  V30 13382 N 1281.51 0.0200419 -1.57587 0
M  V30 13383 C 1282.92 0.565484 -1.7793 0
M  V30 13384 C 1283.27 1.75096 -0.885201 0
M  V30 13385 O 1282.4 2.16243 -0.0823831 0
M  V30 13386 C 1282.99 1.03263 -3.2268 0
M  V30 13387 C 1281.55 1.52352 -3.44189 0
M  V30 13388 C 1280.7 0.465637 -2.73363 0
M  V30 13389 H 1283.65 -0.206174 -1.57355 0
M  V30 13390 H 1283.67 1.89959 -3.2969 0
M  V30 13391 H 1283.18 0.169613 -3.87729 0
M  V30 13392 H 1281.29 2.40809 -2.84327 0
M  V30 13393 H 1281.4 1.5648 -4.52825 0
M  V30 13394 H 1279.76 0.922738 -2.37398 0
M  V30 13395 H 1280.55 -0.388068 -3.411 0
M  V30 13396 N 1282.99 1.54862 0.292472 0
M  V30 13397 C 1283.92 1.89406 1.36556 0
M  V30 13398 C 1284.9 0.753838 1.52484 0
M  V30 13399 O 1286.09 1.01031 1.6585 0
M  V30 13400 C 1283.22 2.14888 2.72838 0
M  V30 13401 C 1282.17 3.3073 2.71665 0
M  V30 13402 C 1281.5 3.41648 4.11316 0
M  V30 13403 C 1282.8 4.67622 2.32651 0
M  V30 13404 H 1284.49 2.79284 1.07894 0
M  V30 13405 H 1282.04 1.34377 0.517585 0
M  V30 13406 H 1283.99 2.3764 3.48002 0
M  V30 13407 H 1282.71 1.2179 3.03042 0
M  V30 13408 H 1281.37 3.07915 1.98958 0
M  V30 13409 H 1281.02 2.46051 4.38711 0
M  V30 13410 H 1280.72 4.19522 4.11431 0
M  V30 13411 H 1282.24 3.6667 4.88248 0
M  V30 13412 H 1283.66 4.90048 2.97533 0
M  V30 13413 H 1282.06 5.48272 2.43963 0
M  V30 13414 H 1283.13 4.67762 1.27777 0
M  V30 13415 N 1284.47 -0.556076 1.47464 0
M  V30 13416 C 1285.43 -1.64515 1.59586 0
M  V30 13417 C 1286.43 -1.53751 0.470881 0
M  V30 13418 O 1287.62 -1.57889 0.735979 0
M  V30 13419 C 1284.75 -3.0406 1.54143 0
M  V30 13420 H 1285.95 -1.55116 2.56669 0
M  V30 13421 H 1283.5 -0.776087 1.35671 0
M  V30 13422 H 1284.23 -3.18991 0.584395 0
M  V30 13423 H 1284.02 -3.13282 2.3579 0
M  V30 13424 H 1285.51 -3.8329 1.65766 0
M  V30 13425 N 1285.95 -1.35615 -0.802897 0
M  V30 13426 C 1287.2 -1.28839 -1.55708 0
M  V30 13427 C 1287.52 0.135906 -1.94526 0
M  V30 13428 O 1286.79 1.07317 -1.6389 0
M  V30 13429 H 1285.37 -0.473906 -0.577427 0
M  V30 13430 H 1288.03 -1.69759 -0.957487 0
M  V30 13431 H 1287.12 -1.90675 -2.47082 0
M  V30 13432 N 1287.43 1.02549 -1.19673 0
M  V30 13433 C 1288.84 1.28271 -0.94967 0
M  V30 13434 C 1289.04 1.97961 0.37599 0
M  V30 13435 O 1288.1 2.26955 1.10668 0
M  V30 13436 C 1289.41 2.12647 -2.12607 0
M  V30 13437 C 1290.96 2.25943 -2.16607 0
M  V30 13438 C 1291.43 3.13693 -3.33708 0
M  V30 13439 N 1292.92 3.21281 -3.33665 0
M  V30 13440 C 1293.66 3.89377 -4.20919 0
M  V30 13441 N 1293.16 4.59675 -5.18334 0
M  V30 13442 N 1294.95 3.85811 -4.08786 0
M  V30 13443 H 1287.1 0.557304 -2.04958 0
M  V30 13444 H 1289.36 0.308531 -0.896389 0
M  V30 13445 H 1289.07 1.68766 -3.08563 0
M  V30 13446 H 1288.94 3.13367 -2.09955 0
M  V30 13447 H 1291.33 2.69053 -1.2122 0
M  V30 13448 H 1291.41 1.24762 -2.23311 0
M  V30 13449 H 1291.05 2.7129 -4.29376 0
M  V30 13450 H 1290.98 4.14941 -3.2424 0
M  V30 13451 H 1293.48 2.71218 -2.63152 0
M  V30 13452 H 1293.79 5.09277 -5.81254 0
M  V30 13453 H 1292.13 4.58529 -5.22279 0
M  V30 13454 H 1295.32 3.30033 -3.31957 0
M  V30 13455 H 1295.5 4.38607 -4.76999 0
M  V30 13456 N 1288.9 1.00119 1.21713 0
M  V30 13457 C 1290.15 0.680377 1.90303 0
M  V30 13458 C 1290.47 -0.790927 1.7824 0
M  V30 13459 O 1289.74 -1.5676 1.17486 0
M  V30 13460 H 1288.32 0.248665 0.704397 0
M  V30 13461 H 1290.98 1.26948 1.47886 0
M  V30 13462 H 1290.08 0.950188 2.97284 0
M  V30 13463 N 1290.38 -1.37203 0.775435 0
M  V30 13464 C 1291.31 -2.32819 0.17826 0
M  V30 13465 C 1292.29 -1.55963 -0.678944 0
M  V30 13466 O 1293.48 -1.84183 -0.615648 0
M  V30 13467 C 1290.61 -3.40198 -0.698768 0
M  V30 13468 C 1289.56 -4.27961 0.057423 0
M  V30 13469 C 1288.89 -5.26385 -0.93929 0
M  V30 13470 C 1290.19 -5.07402 1.23856 0
M  V30 13471 H 1291.88 -2.8301 0.977028 0
M  V30 13472 H 1289.43 -1.3607 0.471274 0
M  V30 13473 H 1291.38 -4.06067 -1.12637 0
M  V30 13474 H 1290.1 -2.88541 -1.53009 0
M  V30 13475 H 1288.76 -3.63628 0.465848 0
M  V30 13476 H 1288.41 -4.71007 -1.76527 0
M  V30 13477 H 1288.11 -5.85966 -0.437844 0
M  V30 13478 H 1289.64 -5.9513 -1.36576 0
M  V30 13479 H 1291.05 -5.6639 0.887423 0
M  V30 13480 H 1289.45 -5.76327 1.67234 0
M  V30 13481 H 1290.52 -4.3986 2.04085 0
M  V30 13482 N 1291.86 -0.526279 -1.48553 0
M  V30 13483 C 1292.82 0.227739 -2.28066 0
M  V30 13484 C 1293.82 0.871146 -1.35158 0
M  V30 13485 O 1295.01 0.731769 -1.58085 0
M  V30 13486 C 1292.14 1.32918 -3.1392 0
M  V30 13487 H 1293.34 -0.470313 -2.96189 0
M  V30 13488 H 1290.89 -0.282089 -1.53733 0
M  V30 13489 H 1291.63 2.0606 -2.50419 0
M  V30 13490 H 1291.41 0.872991 -3.82258 0
M  V30 13491 H 1292.9 1.85964 -3.73908 0
M  V30 13492 N 1293.34 1.5542 -0.261239 0
M  V30 13493 C 1294.25 2.25627 0.642625 0
M  V30 13494 C 1295.26 1.27732 1.18155 0
M  V30 13495 O 1296.44 1.60639 1.21479 0
M  V30 13496 C 1293.5 2.95303 1.8165 0
M  V30 13497 C 1292.57 4.08644 1.31563 0
M  V30 13498 C 1291.8 4.74988 2.43355 0
M  V30 13499 O 1292.02 4.40474 3.62407 0
M  V30 13500 O 1290.96 5.63217 2.12299 0
M  V30 13501 H 1294.78 3.03609 0.0743091 0
M  V30 13502 H 1292.37 1.49372 -0.0291754 0
M  V30 13503 H 1294.25 3.3914 2.50125 0
M  V30 13504 H 1292.92 2.2025 2.37217 0
M  V30 13505 H 1291.83 3.69294 0.597746 0
M  V30 13506 H 1293.16 4.85558 0.805878 0
M  V30 13507 N 1294.82 -0.0116844 1.57596 0
M  V30 13508 C 1296.23 -0.367602 1.55309 0
M  V30 13509 C 1296.43 -1.75524 0.98962 0
M  V30 13510 O 1295.49 -2.44813 0.618289 0
M  V30 13511 C 1296.8 -0.253532 2.99629 0
M  V30 13512 C 1298.35 -0.329335 3.11263 0
M  V30 13513 C 1298.82 -0.24452 4.57347 0
M  V30 13514 N 1300.31 -0.302782 4.62209 0
M  V30 13515 C 1301.05 -0.260315 5.72809 0
M  V30 13516 N 1300.55 -0.169124 6.92594 0
M  V30 13517 N 1302.34 -0.311323 5.61237 0
M  V30 13518 H 1294.49 0.896204 1.92567 0
M  V30 13519 H 1296.75 0.342445 0.883988 0
M  V30 13520 H 1296.46 0.70074 3.44648 0
M  V30 13521 H 1296.33 -1.04029 3.62571 0
M  V30 13522 H 1298.72 -1.27405 2.66181 0
M  V30 13523 H 1298.8 0.487084 2.5112 0
M  V30 13524 H 1298.44 0.696597 5.031 0
M  V30 13525 H 1298.37 -1.07927 5.15421 0
M  V30 13526 H 1300.87 -0.375067 3.76034 0
M  V30 13527 H 1301.18 -0.142296 7.72669 0
M  V30 13528 H 1299.52 -0.134919 6.94869 0
M  V30 13529 H 1302.71 -0.380678 4.6655 0
M  V30 13530 H 1302.89 -0.274761 6.47417 0
M  V30 13531 N 1296.29 -1.55015 -0.284256 0
M  V30 13532 C 1297.26 -1.8636 -1.33426 0
M  V30 13533 C 1298.26 -0.737457 -1.42892 0
M  V30 13534 O 1299.45 -1.00569 -1.42238 0
M  V30 13535 C 1296.58 -2.05884 -2.71707 0
M  V30 13536 H 1297.77 -2.80212 -1.06869 0
M  V30 13537 H 1295.32 -1.47334 -0.521767 0
M  V30 13538 H 1296.06 -1.14376 -3.03461 0
M  V30 13539 H 1295.84 -2.87867 -2.66224 0
M  V30 13540 H 1297.33 -2.31447 -3.47595 0
M  V30 13541 N 1297.77 0.548248 -1.47757 0
M  V30 13542 C 1299 1.335 -1.58722 0
M  V30 13543 C 1299.42 1.86549 -0.241034 0
M  V30 13544 O 1298.78 1.63447 0.784517 0
M  V30 13545 C 1298.83 2.47457 -2.62293 0
M  V30 13546 O 1297.93 3.49956 -2.18185 0
M  V30 13547 H 1297.27 0.396166 -0.532868 0
M  V30 13548 H 1299.8 0.66164 -1.93607 0
M  V30 13549 H 1299.81 2.93901 -2.82995 0
M  V30 13550 H 1298.49 2.08203 -3.60034 0
M  V30 13551 H 1297.06 3.09755 -2.0762 0
M  V30 13552 N 1299.25 1.36039 0.795694 0
M  V30 13553 C 1300.18 1.25713 1.91648 0
M  V30 13554 C 1301.19 0.177993 1.61824 0
M  V30 13555 O 1302.38 0.432186 1.73189 0
M  V30 13556 C 1299.48 0.915546 3.26299 0
M  V30 13557 C 1298.66 2.09528 3.83949 0
M  V30 13558 C 1297.72 1.72775 4.97026 0
M  V30 13559 O 1296.74 2.44786 5.13876 0
M  V30 13560 N 1297.94 0.65775 5.76762 0
M  V30 13561 H 1300.71 2.22277 2.01029 0
M  V30 13562 H 1298.27 1.2935 0.973657 0
M  V30 13563 H 1300.26 0.650958 3.9943 0
M  V30 13564 H 1298.83 0.0392343 3.12575 0
M  V30 13565 H 1298.05 2.52304 3.0288 0
M  V30 13566 H 1299.34 2.88361 4.19196 0
M  V30 13567 H 1298.74 0.0596875 5.65669 0
M  V30 13568 H 1297.29 0.45297 6.50224 0
M  V30 13569 N 1300.73 -1.01913 1.20215 0
M  V30 13570 C 1301.66 -2.10513 0.906476 0
M  V30 13571 C 1302.67 -1.62463 -0.104758 0
M  V30 13572 O 1303.86 -1.78055 0.12593 0
M  V30 13573 C 1300.96 -3.3722 0.337012 0
M  V30 13574 C 1300.14 -4.14417 1.39917 0
M  V30 13575 C 1299.19 -5.19428 0.841489 0
M  V30 13576 O 1298.22 -5.48486 1.52157 0
M  V30 13577 N 1299.42 -5.79442 -0.350365 0
M  V30 13578 H 1302.19 -2.36465 1.84132 0
M  V30 13579 H 1299.75 -1.18283 1.10548 0
M  V30 13580 H 1301.74 -4.04669 -0.0501507 0
M  V30 13581 H 1300.31 -3.08538 -0.502325 0
M  V30 13582 H 1299.53 -3.41975 1.96078 0
M  V30 13583 H 1300.82 -4.62777 2.1146 0
M  V30 13584 H 1300.22 -5.58166 -0.920204 0
M  V30 13585 H 1298.77 -6.48252 -0.679194 0
M  V30 13586 N 1302.21 -1.00763 -1.2118 0
M  V30 13587 C 1303.43 -0.710515 -1.9485 0
M  V30 13588 C 1303.86 0.720934 -1.73736 0
M  V30 13589 O 1303.21 1.49484 -1.02588 0
M  V30 13590 C 1303.26 -1.04035 -3.45267 0
M  V30 13591 O 1302.37 -0.147047 -4.12138 0
M  V30 13592 H 1301.71 -0.264472 -0.609057 0
M  V30 13593 H 1304.24 -1.34858 -1.53865 0
M  V30 13594 H 1304.25 -0.9883 -3.95849 0
M  V30 13595 H 1302.92 -2.08334 -3.59958 0
M  V30 13596 H 1301.5 -0.255847 -3.72021 0
M  V30 13597 O 1303.72 1.32792 -0.919162 0
M  V30 13598 H 1304.41 1.86078 -0.538019 0
M  V30 END ATOM
M  V30 BEGIN BOND
M  V30 END BOND
M  V30 END CTAB
M  END
$$$$
