drugbank_target|P29622 Kallistatin (DB01593; DB09130; DB14487)
 OpenBabel12092121073D

  0  0  0     0  0            999 V3000
M  V30 BEGIN CTAB
M  V30 COUNTS 6867 6952 0 0 0
M  V30 BEGIN ATOM
M  V30 1 H -0.908 1.98254 -0.117106 0
M  V30 2 N 0 1.576 0 0
M  V30 3 C 0.933 2.03868 1.02534 0
M  V30 4 C 1.911 0.928543 1.3348 0
M  V30 5 O 3.095 1.19667 1.45644 0
M  V30 6 C 0.222 2.43627 2.35294 0
M  V30 7 C -0.732 3.65373 2.2001 0
M  V30 8 S 0.101 5.13292 1.52614 0
M  V30 9 C 1.257 5.56322 2.86805 0
M  V30 10 H 1.49 2.90518 0.631377 0
M  V30 11 H -0.977 1.52953 0.210867 0
M  V30 12 H 0.981 2.67203 3.11629 0
M  V30 13 H -0.358 1.57376 2.7183 0
M  V30 14 H -1.165 3.90944 3.18086 0
M  V30 15 H -1.563 3.418 1.51819 0
M  V30 16 H 0.729 5.58782 3.83104 0
M  V30 17 H 1.672 6.56266 2.65933 0
M  V30 18 H 2.08 4.83886 2.90714 0
M  V30 19 N 1.4781 -0.272755 1.55222 0
M  V30 20 C 2.4281 -1.33946 1.84506 0
M  V30 21 C 3.4121 -1.44682 0.70399 0
M  V30 22 O 4.6041 -1.48358 0.965338 0
M  V30 23 C 1.7331 -2.69968 2.12067 0
M  V30 24 C 0.8191 -2.63341 3.32434 0
M  V30 25 N 1.2101 -2.26335 4.52334 0
M  V30 26 C -0.4919 -2.94402 3.35028 0
M  V30 27 C 0.2091 -2.29705 5.34425 0
M  V30 28 N -0.8149 -2.68188 4.72838 0
M  V30 29 H 2.9871 -1.04343 2.74754 0
M  V30 30 H 0.5011 -0.481389 1.55101 0
M  V30 31 H 2.4981 -3.46916 2.31202 0
M  V30 32 H 1.1581 -3.00459 1.23103 0
M  V30 33 H 2.1691 -1.98309 4.78429 0
M  V30 34 H -1.1539 -3.29603 2.56257 0
M  V30 35 H 0.2361 -2.03653 6.40293 0
M  V30 36 N 2.9562 -1.48159 -0.537278 0
M  V30 37 C 3.8862 -1.65029 -1.6519 0
M  V30 38 C 4.8672 -0.499281 -1.62607 0
M  V30 39 O 6.0522 -0.730972 -1.79918 0
M  V30 40 C 3.1822 -1.68303 -3.03795 0
M  V30 41 C 2.1362 -2.8283 -3.21234 0
M  V30 42 C 1.4622 -2.71189 -4.60826 0
M  V30 43 C 2.7622 -4.24211 -3.04701 0
M  V30 44 H 4.4562 -2.58341 -1.51328 0
M  V30 45 H 2.0022 -1.24325 -0.726585 0
M  V30 46 H 3.9552 -1.78693 -3.81637 0
M  V30 47 H 2.6792 -0.715635 -3.18663 0
M  V30 48 H 1.3382 -2.71983 -2.45807 0
M  V30 49 H 0.9862 -1.72435 -4.7252 0
M  V30 50 H 0.6862 -3.48035 -4.7344 0
M  V30 51 H 2.2102 -2.83537 -5.40777 0
M  V30 52 H 3.6242 -4.3593 -3.72341 0
M  V30 53 H 2.0212 -5.01998 -3.28813 0
M  V30 54 H 3.0912 -4.41184 -2.01209 0
M  V30 55 N 4.4343 0.785586 -1.36625 0
M  V30 56 C 5.6833 1.53883 -1.30396 0
M  V30 57 C 5.9963 1.95271 0.113452 0
M  V30 58 O 7.2023 2.69858 0.298142 0
M  V30 59 C 5.6583 2.77808 -2.28802 0
M  V30 60 C 5.2663 2.43574 -3.75999 0
M  V30 61 C 7.0103 3.55783 -2.31558 0
M  V30 62 C 4.9173 3.63919 -4.66173 0
M  V30 63 H 3.8473 0.577678 -0.484566 0
M  V30 64 H 6.4983 0.861705 -1.62009 0
M  V30 65 H 4.8803 3.47339 -1.90188 0
M  V30 66 H 6.0543 1.81916 -4.23371 0
M  V30 67 H 4.3693 1.78803 -3.76056 0
M  V30 68 H 6.9663 4.45205 -2.96137 0
M  V30 69 H 7.3093 3.94644 -1.3252 0
M  V30 70 H 7.8423 2.93235 -2.68809 0
M  V30 71 H 4.5813 3.3015 -5.66287 0
M  V30 72 H 4.1013 4.2473 -4.23515 0
M  V30 73 H 5.7803 4.30901 -4.82632 0
M  V30 74 N 5.9124 1.20967 1.01018 0
M  V30 75 C 7.1894 0.93264 1.71934 0
M  V30 76 C 7.5694 -0.55692 2.03621 0
M  V30 77 O 6.9174 -1.52035 1.7058 0
M  V30 78 C 7.1274 1.81233 2.98254 0
M  V30 79 C 8.4754 2.05804 3.71389 0
M  V30 80 O 9.4994 1.78539 3.08225 0
M  V30 81 O 8.3584 2.51888 4.84989 0
M  V30 82 H 5.4524 0.349272 0.749625 0
M  V30 83 H 7.9984 1.31871 1.06808 0
M  V30 84 H 6.7704 2.82067 2.71208 0
M  V30 85 H 6.3934 1.42674 3.7112 0
M  V30 86 N 7.3905 -1.2043 1.01659 0
M  V30 87 C 8.6205 -1.93496 0.724081 0
M  V30 88 C 9.0285 -1.74998 -0.71918 0
M  V30 89 O 8.3715 -1.06118 -1.49949 0
M  V30 90 C 8.4335 -3.45886 0.97994 0
M  V30 91 C 8.0975 -3.88145 2.41232 0
M  V30 92 C 9.0945 -3.93907 3.39313 0
M  V30 93 C 6.7795 -4.20134 2.75305 0
M  V30 94 C 8.7735 -4.31069 4.6953 0
M  V30 95 C 6.4605 -4.56971 4.05735 0
M  V30 96 C 7.4585 -4.62411 5.02658 0
M  V30 97 O 7.1465 -4.98403 6.30754 0
M  V30 98 H 6.8785 -0.621824 0.265162 0
M  V30 99 H 9.4325 -1.53867 1.36066 0
M  V30 100 H 7.6625 -3.85639 0.286198 0
M  V30 101 H 9.3515 -4.0018 0.679021 0
M  V30 102 H 10.1175 -3.69357 3.14325 0
M  V30 103 H 5.9965 -4.1509 2.00551 0
M  V30 104 H 9.5405 -4.3523 5.45179 0
M  V30 105 H 5.4375 -4.80977 4.30502 0
M  V30 106 H 6.2055 -5.16395 6.35042 0
M  V30 107 N 8.8686 -0.792821 -1.36206 0
M  V30 108 C 9.7986 -0.207853 -2.32573 0
M  V30 109 C 10.7796 0.659055 -1.56813 0
M  V30 110 O 11.9646 0.592176 -1.84951 0
M  V30 111 C 9.0946 0.655449 -3.41059 0
M  V30 112 C 8.0486 -0.111842 -4.27854 0
M  V30 113 C 7.3746 0.872274 -5.27537 0
M  V30 114 C 8.6746 -1.30299 -5.05786 0
M  V30 115 H 10.3686 -1.01294 -2.81744 0
M  V30 116 H 7.9146 -0.48854 -1.3546 0
M  V30 117 H 9.8676 1.07464 -4.07467 0
M  V30 118 H 8.5916 1.49328 -2.90463 0
M  V30 119 H 7.2506 -0.512053 -3.63006 0
M  V30 120 H 6.8986 1.70523 -4.73214 0
M  V30 121 H 6.5986 0.363291 -5.86476 0
M  V30 122 H 8.1226 1.28996 -5.96818 0
M  V30 123 H 9.5366 -0.959379 -5.65216 0
M  V30 124 H 7.9336 -1.7455 -5.74154 0
M  V30 125 H 9.0036 -2.09663 -4.37229 0
M  V30 126 N 10.3467 1.47872 -0.545128 0
M  V30 127 C 11.2767 2.32661 0.197793 0
M  V30 128 C 12.2577 1.43041 0.920504 0
M  V30 129 O 13.4427 1.71912 0.90333 0
M  V30 130 C 10.5727 3.24569 1.23582 0
M  V30 131 C 9.5267 4.23333 0.630323 0
M  V30 132 C 8.8527 5.0448 1.77211 0
M  V30 133 C 10.1527 5.20704 -0.407974 0
M  V30 134 H 11.8467 2.95024 -0.510045 0
M  V30 135 H 9.3927 1.4187 -0.246731 0
M  V30 136 H 11.3457 3.8272 1.76362 0
M  V30 137 H 10.0697 2.60236 1.97344 0
M  V30 138 H 8.7287 3.6639 0.123922 0
M  V30 139 H 8.3767 4.36561 2.49847 0
M  V30 140 H 8.0767 5.71339 1.37281 0
M  V30 141 H 9.6007 5.65487 2.3034 0
M  V30 142 H 11.0147 5.7329 0.033305 0
M  V30 143 H 9.4117 5.95699 -0.725486 0
M  V30 144 H 10.4817 4.66917 -1.30828 0
M  V30 145 N 11.8248 0.280983 1.55075 0
M  V30 146 C 12.7548 -0.597469 2.25727 0
M  V30 147 C 13.7358 -1.15417 1.24952 0
M  V30 148 O 14.9208 -1.18722 1.53684 0
M  V30 149 C 12.0508 -1.7789 2.98283 0
M  V30 150 C 11.0048 -1.35347 4.06036 0
M  V30 151 C 10.3308 -2.61846 4.66198 0
M  V30 152 C 11.6308 -0.499354 5.19907 0
M  V30 153 H 13.3248 -0.00824265 2.99399 0
M  V30 154 H 10.8708 -0.0025244 1.44 0
M  V30 155 H 12.8238 -2.39937 3.46422 0
M  V30 156 H 11.5478 -2.39405 2.22155 0
M  V30 157 H 10.2068 -0.756156 3.58717 0
M  V30 158 H 9.8548 -3.21632 3.86732 0
M  V30 159 H 9.5548 -2.3409 5.38958 0
M  V30 160 H 11.0788 -3.24732 5.1709 0
M  V30 161 H 12.4928 -1.02498 5.64063 0
M  V30 162 H 10.8898 -0.316424 5.99265 0
M  V30 163 H 11.9598 0.480459 4.82514 0
M  V30 164 N 13.3029 -1.57598 0.00835791 0
M  V30 165 C 14.2329 -2.1198 -0.979113 0
M  V30 166 C 15.2139 -1.03091 -1.35301 0
M  V30 167 O 16.3989 -1.30818 -1.43528 0
M  V30 168 C 13.5289 -2.62995 -2.26828 0
M  V30 169 C 12.4829 -3.76485 -2.03576 0
M  V30 170 C 11.8089 -4.13846 -3.38579 0
M  V30 171 C 13.1089 -5.0342 -1.39161 0
M  V30 172 H 14.8029 -2.94738 -0.526281 0
M  V30 173 H 12.3489 -1.41783 -0.251704 0
M  V30 174 H 14.3019 -2.99669 -2.96271 0
M  V30 175 H 13.0259 -1.7737 -2.7424 0
M  V30 176 H 11.6849 -3.40217 -1.36557 0
M  V30 177 H 11.3329 -3.25232 -3.83709 0
M  V30 178 H 11.0329 -4.90312 -3.23834 0
M  V30 179 H 12.5569 -4.53086 -4.09323 0
M  V30 180 H 13.9709 -5.37812 -1.98573 0
M  V30 181 H 12.3679 -5.84746 -1.34878 0
M  V30 182 H 13.4379 -4.83548 -0.361868 0
M  V30 183 N 14.781 0.264519 -1.55364 0
M  V30 184 C 15.711 1.33121 -1.91836 0
M  V30 185 C 16.692 1.51101 -0.781192 0
M  V30 186 O 17.877 1.64003 -1.04003 0
M  V30 187 C 15.007 2.68921 -2.19769 0
M  V30 188 C 13.961 2.65661 -3.35571 0
M  V30 189 C 13.287 4.05093 -3.49004 0
M  V30 190 C 14.587 2.24187 -4.71739 0
M  V30 191 H 16.281 1.02844 -2.81182 0
M  V30 192 H 13.827 0.493286 -1.35287 0
M  V30 193 H 15.78 3.43663 -2.43872 0
M  V30 194 H 14.504 3.00799 -1.27231 0
M  V30 195 H 13.163 1.93377 -3.1145 0
M  V30 196 H 12.811 4.34206 -2.53917 0
M  V30 197 H 12.511 4.03804 -4.26868 0
M  V30 198 H 14.035 4.81561 -3.75408 0
M  V30 199 H 15.449 2.88654 -4.9533 0
M  V30 200 H 13.846 2.34044 -5.52579 0
M  V30 201 H 14.916 1.19327 -4.69988 0
M  V30 202 N 16.2591 1.48442 0.529413 0
M  V30 203 C 17.5051 1.5672 1.28711 0
M  V30 204 C 17.8381 0.2406 1.92704 0
M  V30 205 O 17.1131 -0.753454 1.79313 0
M  V30 206 C 17.3961 2.70587 2.37603 0
M  V30 207 C 17.2491 4.12953 1.78297 0
M  V30 208 C 18.5681 2.80212 3.39366 0
M  V30 209 H 15.6871 0.570474 0.466613 0
M  V30 210 H 18.3291 1.80617 0.589706 0
M  V30 211 H 16.4791 2.50342 2.97088 0
M  V30 212 H 18.1511 4.44639 1.22858 0
M  V30 213 H 16.3941 4.19927 1.0883 0
M  V30 214 H 17.0651 4.88448 2.57144 0
M  V30 215 H 19.5411 2.98553 2.89836 0
M  V30 216 H 18.4171 3.61611 4.12951 0
M  V30 217 H 18.6781 1.88393 3.99951 0
M  V30 218 N 17.7372 -0.778329 1.37039 0
M  V30 219 C 18.9852 -1.53361 1.31623 0
M  V30 220 C 19.3062 -1.94739 -0.100831 0
M  V30 221 O 18.5762 -1.65797 -1.04347 0
M  V30 222 H 17.1562 -0.568794 0.484234 0
M  V30 223 H 19.8182 -0.926742 1.71457 0
M  V30 224 H 18.9142 -2.43606 1.95096 0
M  V30 225 N 19.2153 -1.21501 -1.00376 0
M  V30 226 C 20.1453 -0.999478 -2.11028 0
M  V30 227 C 21.1263 0.0759671 -1.6993 0
M  V30 228 O 22.3113 -0.0841106 -1.94018 0
M  V30 229 C 19.4413 -0.564709 -3.42678 0
M  V30 230 C 18.3953 -1.58486 -3.97576 0
M  V30 231 C 17.7213 -1.00628 -5.25146 0
M  V30 232 C 19.0213 -2.97204 -4.29496 0
M  V30 233 H 20.7153 -1.92495 -2.29317 0
M  V30 234 H 18.2613 -0.92693 -1.102 0
M  V30 235 H 20.2143 -0.401091 -4.19487 0
M  V30 236 H 18.9383 0.396411 -3.24185 0
M  V30 237 H 17.5973 -1.73606 -3.22888 0
M  V30 238 H 17.2453 -0.0368439 -5.02987 0
M  V30 239 H 16.9453 -1.68771 -5.62841 0
M  V30 240 H 18.4693 -0.854015 -6.04598 0
M  V30 241 H 19.8833 -2.8552 -4.97143 0
M  V30 242 H 18.2803 -3.62372 -4.78338 0
M  V30 243 H 19.3503 -3.47956 -3.3772 0
M  V30 244 N 20.6934 1.19889 -1.02296 0
M  V30 245 C 21.6234 2.25141 -0.619174 0
M  V30 246 C 22.6044 1.66051 0.368915 0
M  V30 247 O 23.7894 1.92546 0.252941 0
M  V30 248 C 20.9194 3.4728 0.0368783 0
M  V30 249 C 19.8734 4.19005 -0.872865 0
M  V30 250 C 19.1994 5.34637 -0.0822402 0
M  V30 251 C 20.4994 4.74452 -2.18387 0
M  V30 252 H 22.1934 2.59171 -1.49903 0
M  V30 253 H 19.7394 1.24579 -0.722222 0
M  V30 254 H 21.6924 4.20098 0.330958 0
M  V30 255 H 20.4164 3.12433 0.95149 0
M  V30 256 H 19.0754 3.48061 -1.15105 0
M  V30 257 H 18.7234 4.96034 0.83422 0
M  V30 258 H 18.4234 5.83557 -0.688149 0
M  V30 259 H 19.9474 6.10255 0.205238 0
M  V30 260 H 21.3614 5.39055 -1.95172 0
M  V30 261 H 19.7584 5.33834 -2.74119 0
M  V30 262 H 20.8284 3.92844 -2.84257 0
M  V30 263 N 22.1715 0.800033 1.35784 0
M  V30 264 C 23.1345 0.211565 2.28221 0
M  V30 265 C 24.1345 -0.59728 1.49296 0
M  V30 266 O 25.3245 -0.416721 1.69142 0
M  V30 267 C 22.4565 -0.705846 3.33513 0
M  V30 268 H 23.6495 1.02677 2.81776 0
M  V30 269 H 21.2025 0.570211 1.45528 0
M  V30 270 H 21.9375 -1.54498 2.85133 0
M  V30 271 H 21.7225 -0.127655 3.91892 0
M  V30 272 H 23.2125 -1.11211 4.02519 0
M  V30 273 N 23.6496 -1.47581 0.552962 0
M  V30 274 C 24.5796 -2.32762 -0.185451 0
M  V30 275 C 25.5606 -1.43527 -0.912905 0
M  V30 276 O 26.7456 -1.72388 -0.894201 0
M  V30 277 C 23.8756 -3.25219 -1.21859 0
M  V30 278 C 22.8296 -4.23661 -0.607864 0
M  V30 279 C 22.1556 -5.05413 -1.74533 0
M  V30 280 C 23.4556 -5.20481 0.435582 0
M  V30 281 H 25.1496 -2.94749 0.525684 0
M  V30 282 H 22.6956 -1.41738 0.254251 0
M  V30 283 H 24.6486 -3.8365 -1.7433 0
M  V30 284 H 23.3726 -2.61279 -1.95961 0
M  V30 285 H 22.0316 -3.66451 -0.104489 0
M  V30 286 H 21.6796 -4.3788 -2.47529 0
M  V30 287 H 21.3796 -5.72059 -1.34249 0
M  V30 288 H 22.9036 -5.66701 -2.27338 0
M  V30 289 H 24.3176 -5.733 -0.00290157 0
M  V30 290 H 22.7146 -5.95305 0.757067 0
M  V30 291 H 23.7846 -4.66217 1.33303 0
M  V30 292 N 25.1277 -0.289203 -1.54924 0
M  V30 293 C 26.3527 0.329299 -2.04769 0
M  V30 294 C 26.7777 1.4763 -1.16564 0
M  V30 295 O 26.1357 1.80527 -0.167186 0
M  V30 296 C 26.1837 0.774438 -3.52186 0
M  V30 297 O 25.2877 1.88038 -3.67036 0
M  V30 298 H 24.6287 0.0659259 -0.660719 0
M  V30 299 H 27.1587 -0.42761 -2.00082 0
M  V30 300 H 27.1687 1.06642 -3.93816 0
M  V30 301 H 25.8437 -0.0646707 -4.1585 0
M  V30 302 H 24.4207 1.58985 -3.3731 0
M  V30 303 N 26.6058 1.57591 -0.0167156 0
M  V30 304 C 27.5558 2.05953 0.978137 0
M  V30 305 C 28.5398 0.957532 1.29306 0
M  V30 306 O 29.7318 1.22119 1.28125 0
M  V30 307 C 26.8608 2.58006 2.26468 0
M  V30 308 C 25.9468 3.75113 1.97867 0
M  V30 309 N 26.3378 4.86187 1.39486 0
M  V30 310 C 24.6358 3.83363 2.27924 0
M  V30 311 C 25.3368 5.67502 1.27735 0
M  V30 312 N 24.3128 5.14023 1.76866 0
M  V30 313 H 28.1148 2.89236 0.521522 0
M  V30 314 H 25.6288 1.61301 0.188596 0
M  V30 315 H 27.6258 2.90937 2.98599 0
M  V30 316 H 26.2858 1.76148 2.72767 0
M  V30 317 H 27.2968 5.06695 1.07147 0
M  V30 318 H 23.9738 3.1239 2.76982 0
M  V30 319 H 25.3638 6.66791 0.826978 0
M  V30 320 N 28.0839 -0.256276 1.55502 0
M  V30 321 C 29.3319 -0.983672 1.76545 0
M  V30 322 C 29.6529 -1.86206 0.578982 0
M  V30 323 O 28.9229 -1.91656 -0.405577 0
M  V30 324 H 27.5029 -0.366191 0.651086 0
M  V30 325 H 30.1649 -0.276479 1.92929 0
M  V30 326 H 29.2609 -1.61087 2.67315 0
M  V30 327 N 29.562 -1.4872 -0.521534 0
M  V30 328 C 30.494 -1.59968 -1.64143 0
M  V30 329 C 31.507 -0.483463 -1.55456 0
M  V30 330 O 32.696 -0.75467 -1.61762 0
M  V30 331 C 29.796 -1.52127 -3.02838 0
M  V30 332 C 28.969 -2.78932 -3.36921 0
M  V30 333 C 28.028 -2.64428 -4.54933 0
M  V30 334 O 27.054 -3.38331 -4.57735 0
M  V30 335 N 28.256 -1.74606 -5.53618 0
M  V30 336 H 31.021 -2.56548 -1.54929 0
M  V30 337 H 28.582 -1.45551 -0.708988 0
M  V30 338 H 30.574 -1.40106 -3.79674 0
M  V30 339 H 29.144 -0.634868 -3.06085 0
M  V30 340 H 28.364 -3.05455 -2.4918 0
M  V30 341 H 29.652 -3.63041 -3.56481 0
M  V30 342 H 29.05 -1.13782 -5.54139 0
M  V30 343 H 27.607 -1.6852 -6.29638 0
M  V30 344 N 31.0401 0.771051 -1.3745 0
M  V30 345 C 31.9701 1.89827 -1.3597 0
M  V30 346 C 32.9511 1.68562 -0.228216 0
M  V30 347 O 34.1361 1.8941 -0.428675 0
M  V30 348 C 31.2661 3.2712 -1.16662 0
M  V30 349 C 30.2201 3.6295 -2.2683 0
M  V30 350 C 29.5461 4.98791 -1.92644 0
M  V30 351 C 30.8461 3.69627 -3.69017 0
M  V30 352 H 32.5401 1.91323 -2.30295 0
M  V30 353 H 30.0861 0.919082 -1.10855 0
M  V30 354 H 32.0391 4.05615 -1.14256 0
M  V30 355 H 30.7631 3.26059 -0.187926 0
M  V30 356 H 29.4221 2.86763 -2.28392 0
M  V30 357 H 29.0701 4.94271 -0.933021 0
M  V30 358 H 28.7701 5.23733 -2.66416 0
M  V30 359 H 30.2941 5.79685 -1.91826 0
M  V30 360 H 31.7081 4.38273 -3.69581 0
M  V30 361 H 30.1051 4.06067 -4.41848 0
M  V30 362 H 31.1751 2.70273 -4.02592 0
M  V30 363 N 32.5182 1.22032 0.997298 0
M  V30 364 C 33.4682 0.953838 2.07089 0
M  V30 365 C 34.4522 -0.0938669 1.60626 0
M  V30 366 O 35.6442 0.116078 1.76619 0
M  V30 367 C 32.7732 0.528726 3.39204 0
M  V30 368 C 31.8592 1.61092 3.92314 0
M  V30 369 N 32.2502 2.83768 4.18699 0
M  V30 370 C 30.5482 1.48158 4.20672 0
M  V30 371 C 31.2492 3.53715 4.61802 0
M  V30 372 N 30.2252 2.81174 4.65233 0
M  V30 373 H 34.0272 1.88577 2.25424 0
M  V30 374 H 31.5412 1.11719 1.17867 0
M  V30 375 H 33.5382 0.31915 4.15677 0
M  V30 376 H 32.1982 -0.39635 3.22272 0
M  V30 377 H 33.2092 3.20238 4.07023 0
M  V30 378 H 29.8862 0.622369 4.12835 0
M  V30 379 H 31.2762 4.58793 4.90875 0
M  V30 380 N 33.9963 -1.19345 1.0293 0
M  V30 381 C 35.2423 -1.89318 0.727083 0
M  V30 382 C 35.5753 -1.79446 -0.742483 0
M  V30 383 O 34.8503 -1.1871 -1.54072 0
M  V30 384 C 35.1333 -3.40238 1.17942 0
M  V30 385 C 34.9863 -3.58979 2.71024 0
M  V30 386 C 36.3053 -4.33479 0.760548 0
M  V30 387 H 33.4243 -0.687475 0.265606 0
M  V30 388 H 36.0663 -1.40477 1.2793 0
M  V30 389 H 34.2163 -3.81964 0.709608 0
M  V30 390 H 35.8883 -3.26421 3.25955 0
M  V30 391 H 34.1313 -3.02018 3.11396 0
M  V30 392 H 34.8023 -4.64823 2.9773 0
M  V30 393 H 37.2783 -3.99469 1.16464 0
M  V30 394 H 36.1543 -5.37664 1.10493 0
M  V30 395 H 36.4153 -4.40813 -0.337063 0
M  V30 396 N 35.4744 -0.807222 -1.35358 0
M  V30 397 C 36.3844 -0.219594 -2.3357 0
M  V30 398 C 37.4004 0.637734 -1.61892 0
M  V30 399 O 38.5764 0.549336 -1.93763 0
M  V30 400 C 35.6414 0.62158 -3.41083 0
M  V30 401 C 34.7024 -0.256315 -4.28534 0
M  V30 402 C 33.9354 0.544807 -5.30912 0
M  V30 403 O 34.1584 1.77944 -5.41934 0
M  V30 404 O 33.0924 -0.0646478 -6.01865 0
M  V30 405 H 36.9184 -1.03208 -2.85625 0
M  V30 406 H 34.5034 -0.569025 -1.38139 0
M  V30 407 H 36.3854 1.10067 -4.06772 0
M  V30 408 H 35.0604 1.41165 -2.91297 0
M  V30 409 H 33.9674 -0.782559 -3.65823 0
M  V30 410 H 35.3004 -1.01034 -4.81719 0
M  V30 411 N 36.9525 1.47285 -0.560781 0
M  V30 412 C 37.9025 2.27073 0.205384 0
M  V30 413 C 38.8865 1.34569 0.882044 0
M  V30 414 O 40.0785 1.58899 0.77976 0
M  V30 415 C 37.2075 3.20414 1.23247 0
M  V30 416 C 36.2935 4.20399 0.559041 0
M  V30 417 N 36.6845 5.04423 -0.372927 0
M  V30 418 C 34.9825 4.38536 0.812522 0
M  V30 419 C 35.6835 5.76655 -0.764446 0
M  V30 420 N 34.6595 5.43471 -0.11848 0
M  V30 421 H 38.4615 2.89422 -0.511117 0
M  V30 422 H 35.9755 1.57868 -0.380975 0
M  V30 423 H 37.9725 3.76262 1.79534 0
M  V30 424 H 36.6325 2.59623 1.95002 0
M  V30 425 H 37.6435 5.1248 -0.747287 0
M  V30 426 H 34.3205 3.88913 1.51832 0
M  V30 427 H 35.7105 6.54238 -1.53045 0
M  V30 428 N 38.4306 0.297415 1.54768 0
M  V30 429 C 39.7076 -0.365847 1.92148 0
M  V30 430 C 40.0876 -1.71975 1.22424 0
M  V30 431 O 39.4356 -2.25666 0.358739 0
M  V30 432 C 39.6456 -0.484056 3.45627 0
M  V30 433 C 40.9936 -0.756594 4.17805 0
M  V30 434 O 42.0176 -0.568007 3.51642 0
M  V30 435 O 40.8766 -1.11863 5.34929 0
M  V30 436 H 37.9706 -0.203919 0.801465 0
M  V30 437 H 40.5166 0.34521 1.66152 0
M  V30 438 H 39.2886 0.467865 3.88493 0
M  V30 439 H 38.9116 -1.24372 3.77647 0
M  V30 440 N 39.9087 -1.5758 0.0250728 0
M  V30 441 C 41.1567 -1.91255 -0.653151 0
M  V30 442 C 41.4777 -0.901691 -1.729 0
M  V30 443 O 40.7477 0.0573785 -1.95816 0
M  V30 444 H 39.3277 -0.705942 -0.244243 0
M  V30 445 H 41.9897 -1.94767 0.0719209 0
M  V30 446 H 41.0857 -2.91752 -1.10847 0
M  V30 447 N 41.3868 0.248026 -1.55636 0
M  V30 448 C 42.2968 1.32859 -1.93354 0
M  V30 449 C 43.3128 1.52719 -0.833838 0
M  V30 450 O 44.4888 1.66363 -1.13513 0
M  V30 451 C 41.5538 2.66337 -2.21958 0
M  V30 452 C 40.6148 2.55008 -3.45354 0
M  V30 453 C 39.8478 3.82121 -3.72584 0
M  V30 454 O 40.0708 4.83951 -3.01907 0
M  V30 455 O 39.0048 3.80822 -4.6611 0
M  V30 456 H 42.8308 1.03862 -2.85388 0
M  V30 457 H 40.4158 0.448686 -1.42503 0
M  V30 458 H 42.2978 3.45216 -2.4167 0
M  V30 459 H 40.9728 2.95068 -1.33103 0
M  V30 460 H 39.8798 1.7442 -3.30951 0
M  V30 461 H 41.2128 2.31222 -4.34508 0
M  V30 462 N 42.8649 1.48995 0.513639 0
M  V30 463 C 44.0899 1.61792 1.29762 0
M  V30 464 C 44.5149 0.284475 1.85936 0
M  V30 465 O 43.8729 -0.746185 1.65232 0
M  V30 466 C 43.9209 2.67993 2.41272 0
M  V30 467 O 43.0249 2.26287 3.44772 0
M  V30 468 H 42.3659 0.541963 0.38363 0
M  V30 469 H 44.8959 1.95097 0.616307 0
M  V30 470 H 44.9059 2.89772 2.87221 0
M  V30 471 H 43.5809 3.64791 1.9975 0
M  V30 472 H 42.1579 2.14788 3.04829 0
M  V30 473 N 44.343 -0.763751 1.37857 0
M  V30 474 C 45.583 -1.53551 1.34913 0
M  V30 475 C 45.947 -1.91895 -0.0635882 0
M  V30 476 O 47.148 -2.67916 -0.217825 0
M  V30 477 C 45.419 -2.76126 2.26912 0
M  V30 478 S 46.978 -3.66105 2.41893 0
M  V30 479 H 43.796 -0.52559 0.478828 0
M  V30 480 H 46.398 -0.897435 1.73685 0
M  V30 481 H 45.102 -2.4605 3.28463 0
M  V30 482 H 44.633 -3.44887 1.89253 0
M  V30 483 H 46.648 -4.68473 1.63545 0
M  V30 484 N 45.8211 -1.22559 -0.990812 0
M  V30 485 C 47.0461 -1.07862 -1.77145 0
M  V30 486 C 47.4711 0.366447 -1.84496 0
M  V30 487 O 46.8291 1.26478 -1.29896 0
M  V30 488 C 46.8771 -1.69686 -3.18181 0
M  V30 489 O 45.9811 -0.951946 -4.01263 0
M  V30 490 H 45.3221 -0.378712 -0.545411 0
M  V30 491 H 47.8521 -1.62399 -1.2445 0
M  V30 492 H 47.8621 -1.74496 -3.68802 0
M  V30 493 H 46.5371 -2.74841 -3.12146 0
M  V30 494 H 45.1141 -0.980011 -3.59792 0
M  V30 495 N 47.2992 1.18797 -1.03562 0
M  V30 496 C 48.2472 2.24297 -0.615905 0
M  V30 497 C 49.2412 1.65643 0.354808 0
M  V30 498 O 50.4472 1.78618 0.22265 0
M  V30 499 H 46.8222 0.729909 -0.180934 0
M  V30 500 H 48.7932 2.5701 -1.5162 0
M  V30 501 C 47.5422 3.47698 0.0104735 0
M  V30 502 H 46.8652 3.93125 -0.727509 0
M  V30 503 H 48.3052 4.23159 0.266995 0
M  V30 504 C 46.7642 3.12489 1.25905 0
M  V30 505 O 47.2942 3.25761 2.35038 0
M  V30 506 N 45.5002 2.6686 1.15039 0
M  V30 507 H 45.0472 2.56261 0.262328 0
M  V30 508 H 45.0052 2.43674 1.98672 0
M  V30 509 N 48.7773 0.814389 1.34928 0
M  V30 510 C 50.0023 0.410097 2.03305 0
M  V30 511 C 50.4273 -0.973464 1.60951 0
M  V30 512 O 49.7853 -1.63185 0.789964 0
M  V30 513 C 49.8333 0.51049 3.56968 0
M  V30 514 O 48.9373 -0.473035 4.09678 0
M  V30 515 H 48.2783 0.170088 0.641846 0
M  V30 516 H 50.8083 1.10244 1.72358 0
M  V30 517 H 50.8183 0.383135 4.06197 0
M  V30 518 H 49.4933 1.51963 3.87144 0
M  V30 519 H 48.0703 -0.305272 3.71648 0
M  V30 520 N 50.2554 -1.46986 0.568584 0
M  V30 521 C 51.4804 -2.07335 0.0520528 0
M  V30 522 C 51.9054 -1.41675 -1.23733 0
M  V30 523 O 51.2634 -0.495623 -1.74394 0
M  V30 524 C 51.3114 -3.60417 -0.11501 0
M  V30 525 O 50.4154 -3.95309 -1.17492 0
M  V30 526 H 49.7564 -0.661597 0.0564385 0
M  V30 527 H 52.2864 -1.88837 0.787507 0
M  V30 528 H 52.2964 -4.06698 -0.325644 0
M  V30 529 H 50.9714 -4.07601 0.826675 0
M  V30 530 H 49.5484 -3.60757 -0.943869 0
M  V30 531 N 51.7335 -0.305618 -1.54608 0
M  V30 532 C 52.6835 0.583595 -2.20405 0
M  V30 533 C 53.6675 1.09539 -1.17856 0
M  V30 534 O 54.8595 1.0354 -1.43557 0
M  V30 535 C 51.9885 1.75277 -2.95183 0
M  V30 536 C 51.0745 1.25672 -4.05052 0
M  V30 537 N 51.4655 0.478998 -5.03527 0
M  V30 538 C 49.7635 1.53704 -4.18678 0
M  V30 539 C 50.4645 0.214269 -5.81305 0
M  V30 540 N 49.4405 0.795374 -5.3775 0
M  V30 541 H 53.2425 -0.0180946 -2.93894 0
M  V30 542 H 50.7565 -0.110601 -1.62023 0
M  V30 543 H 52.7535 2.4014 -3.40791 0
M  V30 544 H 51.4135 2.35812 -2.23211 0
M  V30 545 H 52.4245 0.123473 -5.17753 0
M  V30 546 H 49.1015 2.14954 -3.57912 0
M  V30 547 H 50.4915 -0.410656 -6.70644 0
M  V30 548 N 53.2116 1.57565 -0.0334293 0
M  V30 549 C 54.1436 2.0739 0.975811 0
M  V30 550 C 55.1566 0.998166 1.2861 0
M  V30 551 O 56.3456 1.27426 1.25 0
M  V30 552 C 53.4456 2.4871 2.30209 0
M  V30 553 C 52.6186 3.79413 2.17634 0
M  V30 554 C 51.6776 4.07237 3.33233 0
M  V30 555 O 50.7036 4.77425 3.09927 0
M  V30 556 N 51.9056 3.5775 4.5716 0
M  V30 557 H 54.6706 2.94598 0.55066 0
M  V30 558 H 52.2316 1.61173 0.15323 0
M  V30 559 H 54.2236 2.64413 3.06378 0
M  V30 560 H 52.7936 1.66845 2.64351 0
M  V30 561 H 52.0136 3.73465 1.26165 0
M  V30 562 H 53.3016 4.65038 2.0644 0
M  V30 563 H 52.6996 3.00976 4.78989 0
M  V30 564 H 51.2566 3.78724 5.30482 0
M  V30 565 N 54.6897 -0.239769 1.55765 0
M  V30 566 C 55.6217 -1.32001 1.87372 0
M  V30 567 C 56.6347 -1.43944 0.760522 0
M  V30 568 O 57.8237 -1.45167 1.0387 0
M  V30 569 C 54.9237 -2.69779 2.05115 0
M  V30 570 C 54.0967 -2.80014 3.36022 0
M  V30 571 C 53.1557 -3.98684 3.4342 0
M  V30 572 O 52.1817 -3.87877 4.16582 0
M  V30 573 N 53.3837 -5.12176 2.73232 0
M  V30 574 H 56.1487 -1.0522 2.80622 0
M  V30 575 H 53.7097 -0.429857 1.56089 0
M  V30 576 H 55.7017 -3.47517 2.07399 0
M  V30 577 H 54.2717 -2.89237 1.18577 0
M  V30 578 H 53.4917 -1.88896 3.45994 0
M  V30 579 H 54.7797 -2.83808 4.22292 0
M  V30 580 H 54.1777 -5.2385 2.13536 0
M  V30 581 H 52.7347 -5.88022 2.81199 0
M  V30 582 N 56.1678 -1.49265 -0.50573 0
M  V30 583 C 57.4168 -1.57761 -1.25675 0
M  V30 584 C 57.7298 -0.267371 -1.93764 0
M  V30 585 O 58.9358 -0.230827 -2.70517 0
M  V30 586 C 57.3918 -2.78332 -2.28165 0
M  V30 587 C 56.9998 -4.16096 -1.66037 0
M  V30 588 C 58.7438 -2.96155 -3.04125 0
M  V30 589 C 56.6508 -5.27895 -2.6661 0
M  V30 590 H 55.5808 -0.587391 -0.472745 0
M  V30 591 H 58.2318 -1.75644 -0.53118 0
M  V30 592 H 56.6138 -2.53934 -3.03865 0
M  V30 593 H 57.7878 -4.50612 -0.963622 0
M  V30 594 H 56.1028 -4.03591 -1.02484 0
M  V30 595 H 58.6998 -3.76849 -3.79327 0
M  V30 596 H 59.0428 -2.06534 -3.61455 0
M  V30 597 H 59.5758 -3.2057 -2.35541 0
M  V30 598 H 56.3148 -6.1956 -2.14068 0
M  V30 599 H 55.8348 -4.97839 -3.34539 0
M  V30 600 H 57.5138 -5.57031 -3.29129 0
M  V30 601 N 57.6459 0.756429 -1.3826 0
M  V30 602 C 58.5759 1.88374 -1.37976 0
M  V30 603 C 59.5569 1.68311 -0.246082 0
M  V30 604 O 60.7419 1.88944 -0.44874 0
M  V30 605 C 57.8719 3.25864 -1.20125 0
M  V30 606 C 56.8259 3.60523 -2.30666 0
M  V30 607 C 56.1519 4.9672 -1.97923 0
M  V30 608 C 57.4519 3.65692 -3.72916 0
M  V30 609 H 59.1459 1.88869 -2.32312 0
M  V30 610 H 56.6919 0.907272 -1.11824 0
M  V30 611 H 58.6449 4.0438 -1.18552 0
M  V30 612 H 57.3689 3.25841 -0.222498 0
M  V30 613 H 56.0279 2.84324 -2.3142 0
M  V30 614 H 55.6759 4.93253 -0.985393 0
M  V30 615 H 55.3759 5.20878 -2.71955 0
M  V30 616 H 56.8999 5.77618 -1.97964 0
M  V30 617 H 58.3139 4.34328 -3.74208 0
M  V30 618 H 56.7109 4.01358 -4.4613 0
M  V30 619 H 57.7809 2.65987 -4.05436 0
M  V30 620 N 59.124 1.23083 0.984299 0
M  V30 621 C 60.034 1.02515 2.11016 0
M  V30 622 C 61.05 -0.0291702 1.73976 0
M  V30 623 O 62.226 0.165434 2.00719 0
M  V30 624 C 59.291 0.614673 3.41208 0
M  V30 625 C 58.352 1.74359 3.92297 0
M  V30 626 C 57.585 1.35261 5.16275 0
M  V30 627 O 57.808 0.235136 5.69915 0
M  V30 628 O 56.742 2.17227 5.61334 0
M  V30 629 H 60.568 1.96862 2.31255 0
M  V30 630 H 58.153 1.01753 1.09392 0
M  V30 631 H 60.035 0.396518 4.1953 0
M  V30 632 H 58.71 -0.299851 3.22308 0
M  V30 633 H 57.617 2.01635 3.1511 0
M  V30 634 H 58.95 2.63629 4.15645 0
M  V30 635 N 60.6021 -1.18246 1.0419 0
M  V30 636 C 61.8301 -1.92195 0.766072 0
M  V30 637 C 62.2451 -1.76247 -0.676933 0
M  V30 638 O 61.6021 -1.09293 -1.46155 0
M  V30 639 C 61.6531 -3.43568 1.12442 0
M  V30 640 O 61.3741 -3.59015 2.51078 0
M  V30 641 C 62.8751 -4.34613 0.873275 0
M  V30 642 H 60.0951 -0.610114 0.279288 0
M  V30 643 H 62.6391 -1.50007 1.38989 0
M  V30 644 H 60.7941 -3.8354 0.545542 0
M  V30 645 H 61.2081 -4.5273 2.64831 0
M  V30 646 H 62.6821 -5.39374 1.17385 0
M  V30 647 H 63.1591 -4.38781 -0.191909 0
M  V30 648 H 63.7651 -4.00341 1.43551 0
M  V30 649 N 62.0802 -0.821533 -1.34494 0
M  V30 650 C 63.3282 -0.408139 -1.97936 0
M  V30 651 C 63.6492 1.03193 -1.65457 0
M  V30 652 O 62.9192 1.71622 -0.944595 0
M  V30 653 H 61.4992 -0.147928 -0.732206 0
M  V30 654 H 64.1612 -1.05067 -1.64155 0
M  V30 655 H 63.2572 -0.52601 -3.07635 0
M  V30 656 N 63.5583 1.46682 -0.576371 0
M  V30 657 C 64.4683 2.34032 0.163141 0
M  V30 658 C 65.4843 1.49367 0.892501 0
M  V30 659 O 66.6603 1.82252 0.857106 0
M  V30 660 C 63.7253 3.26435 1.16795 0
M  V30 661 C 62.7863 4.26998 0.443944 0
M  V30 662 C 62.0193 5.14986 1.40088 0
M  V30 663 O 62.2423 5.05785 2.637 0
M  V30 664 O 61.1763 5.94906 0.914917 0
M  V30 665 H 65.0023 2.98607 -0.55388 0
M  V30 666 H 62.5873 1.45554 -0.336821 0
M  V30 667 H 64.4693 3.83459 1.74748 0
M  V30 668 H 63.1443 2.64465 1.86655 0
M  V30 669 H 62.0513 3.7368 -0.177271 0
M  V30 670 H 63.3843 4.91736 -0.213566 0
M  V30 671 N 65.0364 0.313813 1.54444 0
M  V30 672 C 66.2844 -0.291099 1.99993 0
M  V30 673 C 66.6054 -1.53418 1.20366 0
M  V30 674 O 65.8754 -1.93544 0.302927 0
M  V30 675 H 64.4554 -0.110552 0.738774 0
M  V30 676 H 67.1174 0.428106 1.9014 0
M  V30 677 H 66.2134 -0.554268 3.07139 0
M  V30 678 N 66.5145 -1.57545 0.0417849 0
M  V30 679 C 67.7395 -1.97035 -0.647455 0
M  V30 680 C 68.1645 -0.918775 -1.64135 0
M  V30 681 O 67.5225 0.119006 -1.80909 0
M  V30 682 C 67.5705 -3.35609 -1.31905 0
M  V30 683 O 66.6745 -3.3287 -2.43457 0
M  V30 684 H 66.0155 -0.64211 -0.169086 0
M  V30 685 H 68.5455 -2.04318 0.107399 0
M  V30 686 H 68.5555 -3.72126 -1.67291 0
M  V30 687 H 67.2305 -4.11685 -0.590586 0
M  V30 688 H 65.8075 -3.08087 -2.10088 0
M  V30 689 N 67.9926 0.231505 -1.5589 0
M  V30 690 C 69.4036 0.799327 -1.68724 0
M  V30 691 C 69.7546 1.85398 -0.642022 0
M  V30 692 O 68.8796 2.1539 0.208784 0
M  V30 693 C 69.4746 1.45664 -3.05888 0
M  V30 694 C 68.0336 1.97197 -3.20609 0
M  V30 695 C 67.1806 0.828552 -2.64632 0
M  V30 696 H 70.1316 0.00702616 -1.58698 0
M  V30 697 H 70.1526 2.32517 -3.01191 0
M  V30 698 H 69.6646 0.688808 -3.81939 0
M  V30 699 H 67.7656 2.76813 -2.4941 0
M  V30 700 H 67.8786 2.15878 -4.27707 0
M  V30 701 H 66.2426 1.23321 -2.22854 0
M  V30 702 H 67.0256 0.0735544 -3.43221 0
M  V30 703 N 69.4707 1.49531 0.497807 0
M  V30 704 C 70.6957 1.63159 1.28039 0
M  V30 705 C 71.1207 0.30418 1.85624 0
M  V30 706 O 70.4787 -0.728618 1.66015 0
M  V30 707 C 70.5267 2.70537 2.38416 0
M  V30 708 O 69.6307 2.29931 3.42353 0
M  V30 709 H 68.9717 0.546001 0.377861 0
M  V30 710 H 71.5017 1.9574 0.59558 0
M  V30 711 H 71.5117 2.92802 2.84132 0
M  V30 712 H 70.1867 3.6689 1.95869 0
M  V30 713 H 68.7637 2.18009 3.02533 0
M  V30 714 N 70.9488 -0.749086 1.3866 0
M  V30 715 C 71.8788 -1.8764 1.38973 0
M  V30 716 C 72.8598 -1.68178 0.255004 0
M  V30 717 O 74.0448 -1.88704 0.458754 0
M  V30 718 C 71.1748 -3.25222 1.21851 0
M  V30 719 C 70.1288 -3.59295 2.32575 0
M  V30 720 C 69.4548 -4.95663 2.00555 0
M  V30 721 C 70.7548 -3.63709 3.7485 0
M  V30 722 H 72.4488 -1.87635 2.3331 0
M  V30 723 H 69.9948 -0.901329 1.12303 0
M  V30 724 H 71.9478 -4.03746 1.20695 0
M  V30 725 H 70.6718 -3.25719 0.239775 0
M  V30 726 H 69.3308 -2.83093 2.32925 0
M  V30 727 H 68.9788 -4.92724 1.01154 0
M  V30 728 H 68.6788 -5.19429 2.74714 0
M  V30 729 H 70.2028 -5.7656 2.01024 0
M  V30 730 H 71.6168 -4.32338 3.76506 0
M  V30 731 H 70.0138 -3.98986 4.48252 0
M  V30 732 H 71.0838 -2.63834 4.06841 0
M  V30 733 N 72.4269 -1.23603 -0.977757 0
M  V30 734 C 73.3739 -1.01954 -2.07061 0
M  V30 735 C 74.3439 0.0638697 -1.65977 0
M  V30 736 O 75.5289 -0.0887624 -1.90593 0
M  V30 737 C 72.6689 -0.619658 -3.39491 0
M  V30 738 C 71.7819 -1.77547 -3.93829 0
M  V30 739 C 70.9169 -1.32212 -5.14484 0
M  V30 740 C 69.9559 -2.44852 -5.60994 0
M  V30 741 N 69.0929 -2.00456 -6.72876 0
M  V30 742 H 73.9329 -1.95495 -2.24913 0
M  V30 743 H 71.4699 -0.973861 -1.10247 0
M  V30 744 H 73.4279 -0.368898 -4.15566 0
M  V30 745 H 72.0579 0.278752 -3.21594 0
M  V30 746 H 71.1099 -2.14016 -3.14486 0
M  V30 747 H 72.4219 -2.62219 -4.24314 0
M  V30 748 H 71.5759 -1.02965 -5.97899 0
M  V30 749 H 70.3149 -0.445808 -4.85658 0
M  V30 750 H 69.3199 -2.74871 -4.76157 0
M  V30 751 H 70.5449 -3.33024 -5.91837 0
M  V30 752 H 68.4909 -1.15208 -6.45804 0
M  V30 753 H 68.4079 -2.78687 -7.02759 0
M  V30 754 H 69.6759 -1.7432 -7.59758 0
M  V30 755 N 73.905 1.17692 -1.04816 0
M  V30 756 C 75.154 1.87192 -0.751132 0
M  V30 757 C 75.467 1.8169 0.724441 0
M  V30 758 O 76.673 2.46625 1.13527 0
M  V30 759 C 75.129 3.35857 -1.29338 0
M  V30 760 C 74.737 3.4987 -2.79812 0
M  V30 761 C 76.481 4.10709 -1.07322 0
M  V30 762 C 74.388 4.92536 -3.27356 0
M  V30 763 H 73.318 0.701162 -0.277288 0
M  V30 764 H 75.969 1.32932 -1.26496 0
M  V30 765 H 74.351 3.89631 -0.707376 0
M  V30 766 H 75.525 3.06332 -3.44235 0
M  V30 767 H 73.84 2.88433 -3.00325 0
M  V30 768 H 76.437 5.15952 -1.4035 0
M  V30 769 H 76.78 4.16299 -0.0108001 0
M  V30 770 H 77.313 3.6313 -1.62423 0
M  V30 771 H 74.052 4.92119 -4.33012 0
M  V30 772 H 73.572 5.3676 -2.67673 0
M  V30 773 H 75.251 5.61288 -3.21815 0
M  V30 774 N 75.3831 0.828654 1.34056 0
M  V30 775 C 76.3461 0.259927 2.27721 0
M  V30 776 C 77.3461 -0.565478 1.50529 0
M  V30 777 O 78.5361 -0.38075 1.69988 0
M  V30 778 C 75.6681 -0.634944 3.34935 0
M  V30 779 H 76.8611 1.0863 2.79534 0
M  V30 780 H 74.4141 0.600951 1.44285 0
M  V30 781 H 75.1491 -1.48416 2.88346 0
M  V30 782 H 74.9341 -0.0444999 3.92075 0
M  V30 783 H 76.4241 -1.02648 4.04788 0
M  V30 784 N 76.8612 -1.46375 0.584142 0
M  V30 785 C 78.2722 -1.86031 0.157959 0
M  V30 786 C 78.6232 -1.48753 -1.27933 0
M  V30 787 O 77.7482 -0.903098 -1.96655 0
M  V30 788 C 78.3432 -3.37642 0.279892 0
M  V30 789 C 76.9022 -3.76289 -0.09143 0
M  V30 790 C 76.0492 -2.7039 0.615178 0
M  V30 791 H 79.0002 -1.37509 0.792274 0
M  V30 792 H 79.0212 -3.77275 -0.494364 0
M  V30 793 H 78.5332 -3.64742 1.32607 0
M  V30 794 H 76.6342 -3.54806 -1.13769 0
M  V30 795 H 76.7472 -4.78246 0.285886 0
M  V30 796 H 75.1112 -2.5464 0.0552833 0
M  V30 797 H 75.8942 -3.0033 1.66303 0
M  V30 798 N 78.3393 -0.321999 -1.54275 0
M  V30 799 C 79.3023 0.531975 -2.22941 0
M  V30 800 C 80.3023 1.04478 -1.22234 0
M  V30 801 O 81.4923 0.937452 -1.46825 0
M  V30 802 C 78.6243 1.73874 -2.93224 0
M  V30 803 H 79.8173 -0.0682612 -2.99822 0
M  V30 804 H 77.3703 -0.0730644 -1.56129 0
M  V30 805 H 78.1053 2.37825 -2.20476 0
M  V30 806 H 77.8903 1.37847 -3.6707 0
M  V30 807 H 79.3803 2.34496 -3.45545 0
M  V30 808 N 79.8174 1.5752 -0.0501392 0
M  V30 809 C 80.7654 2.12651 0.942459 0
M  V30 810 C 81.7594 1.05807 1.32292 0
M  V30 811 O 82.9654 1.24217 1.3027 0
M  V30 812 H 79.3404 0.679673 0.321789 0
M  V30 813 H 81.3114 2.94951 0.452356 0
M  V30 814 C 80.0604 2.68565 2.20836 0
M  V30 815 H 79.3834 3.50439 1.92439 0
M  V30 816 H 80.8234 3.10761 2.8845 0
M  V30 817 C 79.2824 1.62291 2.95234 0
M  V30 818 O 79.8124 1.03508 3.88135 0
M  V30 819 N 78.0184 1.33836 2.57946 0
M  V30 820 H 77.5654 1.81826 1.82475 0
M  V30 821 H 77.5234 0.629595 3.08032 0
M  V30 822 N 81.2955 -0.223234 1.56011 0
M  V30 823 C 82.2585 -1.26014 1.9145 0
M  V30 824 C 83.2585 -1.3989 0.792937 0
M  V30 825 O 84.4485 -1.38184 1.0607 0
M  V30 826 C 81.5805 -2.63422 2.16383 0
M  V30 827 H 82.7735 -0.95796 2.84189 0
M  V30 828 H 80.3265 -0.463576 1.49267 0
M  V30 829 H 81.0615 -2.98741 1.2619 0
M  V30 830 H 80.8465 -2.54728 2.98088 0
M  V30 831 H 82.3365 -3.38249 2.44903 0
M  V30 832 N 82.7736 -1.49793 -0.48987 0
M  V30 833 C 84.0506 -1.50348 -1.25119 0
M  V30 834 C 84.4306 -0.237466 -2.0976 0
M  V30 835 O 83.7786 0.77981 -2.14782 0
M  V30 836 C 83.9886 -2.78872 -2.09837 0
M  V30 837 C 85.3366 -3.288 -2.68655 0
M  V30 838 O 86.3606 -2.80065 -2.20096 0
M  V30 839 O 85.2196 -4.13707 -3.57083 0
M  V30 840 H 82.3136 -0.602242 -0.566775 0
M  V30 841 H 84.8596 -1.62067 -0.503229 0
M  V30 842 H 83.6316 -3.62499 -1.47343 0
M  V30 843 H 83.2546 -2.70066 -2.91805 0
M  V30 844 N 84.2517 0.741722 -1.39055 0
M  V30 845 C 85.4987 1.50114 -1.35912 0
M  V30 846 C 85.8267 1.94443 0.0470937 0
M  V30 847 O 85.0817 1.66612 1.02659 0
M  V30 848 C 85.3807 2.7592 -2.27163 0
M  V30 849 C 85.0467 2.50493 -3.74919 0
M  V30 850 C 83.7087 2.43267 -4.1518 0
M  V30 851 C 86.0607 2.28585 -4.684 0
M  V30 852 C 83.3887 2.12166 -5.46994 0
M  V30 853 C 85.7407 1.99002 -6.00484 0
M  V30 854 C 84.4047 1.90241 -6.39816 0
M  V30 855 H 83.6747 0.549306 -0.497336 0
M  V30 856 H 86.3217 0.851896 -1.71508 0
M  V30 857 H 84.6267 3.45553 -1.84663 0
M  V30 858 H 86.3237 3.33923 -2.22028 0
M  V30 859 H 82.9137 2.56992 -3.43006 0
M  V30 860 H 87.0977 2.33139 -4.38132 0
M  V30 861 H 82.3537 2.03901 -5.76398 0
M  V30 862 H 86.5277 1.81057 -6.72452 0
M  V30 863 H 84.1547 1.65907 -7.41875 0
M  V30 864 N 85.7298 1.2412 0.971189 0
M  V30 865 C 86.6928 1.03156 2.04674 0
M  V30 866 C 87.6928 -0.00990322 1.60797 0
M  V30 867 O 88.8828 0.230729 1.72665 0
M  V30 868 C 86.0148 0.562765 3.36223 0
M  V30 869 H 87.2078 1.98614 2.24705 0
M  V30 870 H 84.7608 1.06293 1.14593 0
M  V30 871 H 85.4958 -0.395176 3.21883 0
M  V30 872 H 85.2808 1.31441 3.69413 0
M  V30 873 H 86.7708 0.437015 4.15307 0
M  V30 874 N 87.2079 -1.17134 1.05439 0
M  V30 875 C 88.4549 -1.87456 0.765942 0
M  V30 876 C 88.7829 -1.81189 -0.707153 0
M  V30 877 O 88.0379 -1.21633 -1.5331 0
M  V30 878 C 88.3369 -3.36833 1.19491 0
M  V30 879 C 88.0029 -3.63301 2.67063 0
M  V30 880 C 86.6649 -3.70234 3.07376 0
M  V30 881 C 89.0169 -3.74575 3.62413 0
M  V30 882 C 86.3449 -3.85933 4.41896 0
M  V30 883 C 88.6969 -3.91793 4.9667 0
M  V30 884 C 87.3609 -3.96966 5.36633 0
M  V30 885 H 86.6309 -0.685948 0.280278 0
M  V30 886 H 89.2779 -1.38556 1.32192 0
M  V30 887 H 87.5829 -3.87807 0.557969 0
M  V30 888 H 89.2799 -3.89611 0.948893 0
M  V30 889 H 85.8699 -3.58532 2.34846 0
M  V30 890 H 90.0539 -3.68537 3.32406 0
M  V30 891 H 85.3099 -3.88187 4.72357 0
M  V30 892 H 89.4839 -3.99458 5.70444 0
M  V30 893 H 87.1109 -4.08883 6.40874 0
M  V30 894 N 88.686 -0.835752 -1.33615 0
M  V30 895 C 90.102 -0.523139 -1.50783 0
M  V30 896 C 90.302 0.950171 -1.77691 0
M  V30 897 O 89.358 1.73411 -1.83534 0
M  V30 898 C 90.671 -1.39378 -2.66448 0
M  V30 899 C 92.219 -1.39223 -2.80332 0
M  V30 900 C 92.694 -2.24765 -3.99055 0
M  V30 901 N 94.185 -2.22458 -4.06284 0
M  V30 902 C 94.92 -2.85386 -4.97336 0
M  V30 903 N 94.416 -3.57354 -5.93523 0
M  V30 904 N 96.209 -2.74872 -4.90308 0
M  V30 905 H 88.36 -1.78952 -1.14411 0
M  V30 906 H 90.623 -0.763297 -0.562212 0
M  V30 907 H 90.329 -2.44061 -2.53234 0
M  V30 908 H 90.203 -1.0676 -3.61776 0
M  V30 909 H 92.59 -0.353136 -2.92979 0
M  V30 910 H 92.671 -1.75846 -1.85773 0
M  V30 911 H 92.315 -3.28732 -3.87167 0
M  V30 912 H 92.245 -1.85485 -4.92852 0
M  V30 913 H 94.736 -1.70119 -3.37443 0
M  V30 914 H 95.049 -4.02584 -6.59656 0
M  V30 915 H 93.394 -3.61461 -5.93608 0
M  V30 916 H 96.585 -2.18213 -4.14126 0
M  V30 917 H 96.758 -3.24199 -5.61069 0
M  V30 918 N 90.1641 1.46063 -0.591896 0
M  V30 919 C 91.4111 2.02338 -0.0809991 0
M  V30 920 C 91.7391 1.46228 1.28249 0
M  V30 921 O 90.9941 0.620818 1.85592 0
M  V30 922 C 91.2931 3.57391 0.0249813 0
M  V30 923 C 90.9591 4.32583 -1.27211 0
M  V30 924 C 89.6211 4.52844 -1.62745 0
M  V30 925 C 91.9731 4.75687 -2.13005 0
M  V30 926 C 89.3011 5.13462 -2.83855 0
M  V30 927 C 91.6531 5.37644 -3.3335 0
M  V30 928 C 90.3171 5.5613 -3.69155 0
M  V30 929 H 89.5871 0.740407 -0.0296397 0
M  V30 930 H 92.2341 1.75321 -0.770374 0
M  V30 931 H 90.5391 3.83597 0.797537 0
M  V30 932 H 92.2361 3.98621 0.436184 0
M  V30 933 H 88.8261 4.17116 -0.985499 0
M  V30 934 H 93.0101 4.59782 -1.86855 0
M  V30 935 H 88.2661 5.25965 -3.11722 0
M  V30 936 H 92.4401 5.7 -4.00092 0
M  V30 937 H 90.0671 6.0287 -4.63089 0
M  V30 938 N 91.6422 0.330177 1.54103 0
M  V30 939 C 92.8722 -0.271784 2.04805 0
M  V30 940 C 93.2802 -1.45816 1.20559 0
M  V30 941 O 92.6232 -1.82247 0.2306 0
M  V30 942 C 92.6852 -0.763238 3.51305 0
M  V30 943 C 92.3492 0.301705 4.56003 0
M  V30 944 C 93.3462 1.13999 5.07248 0
M  V30 945 C 91.0312 0.451793 5.00264 0
M  V30 946 C 93.0252 2.11402 6.01322 0
M  V30 947 C 90.7122 1.42924 5.94151 0
M  V30 948 C 91.7102 2.25882 6.44567 0
M  V30 949 O 91.3982 3.21965 7.3661 0
M  V30 950 H 91.1302 -0.058693 0.673447 0
M  V30 951 H 93.6842 0.476395 1.99799 0
M  V30 952 H 91.9142 -1.56244 3.5373 0
M  V30 953 H 93.6032 -1.28427 3.85047 0
M  V30 954 H 94.3692 1.03505 4.73827 0
M  V30 955 H 90.2482 -0.184044 4.60632 0
M  V30 956 H 93.7922 2.76192 6.40596 0
M  V30 957 H 89.6892 1.53479 6.26988 0
M  V30 958 H 90.4572 3.17281 7.54503 0
M  V30 959 N 93.1203 -1.57491 0.0584922 0
M  V30 960 C 94.3503 -1.9701 -0.622134 0
M  V30 961 C 94.7583 -0.935034 -1.6448 0
M  V30 962 O 94.1013 0.0882904 -1.83488 0
M  V30 963 C 94.1633 -3.32794 -1.35972 0
M  V30 964 C 93.8273 -4.54343 -0.492043 0
M  V30 965 C 94.8243 -5.19323 0.244901 0
M  V30 966 C 92.5093 -5.00534 -0.420821 0
M  V30 967 C 94.5033 -6.28835 1.04143 0
M  V30 968 C 92.1903 -6.09921 0.379389 0
M  V30 969 C 93.1883 -6.73933 1.10919 0
M  V30 970 O 92.8763 -7.81216 1.89623 0
M  V30 971 H 92.6083 -0.653127 -0.174359 0
M  V30 972 H 95.1623 -2.05029 0.123418 0
M  V30 973 H 93.3923 -3.21351 -2.15105 0
M  V30 974 H 95.0813 -3.5701 -1.93129 0
M  V30 975 H 95.8473 -4.8459 0.19939 0
M  V30 976 H 91.7263 -4.50496 -0.978474 0
M  V30 977 H 95.2703 -6.7873 1.61157 0
M  V30 978 H 91.1673 -6.44089 0.426512 0
M  V30 979 H 91.9353 -7.98029 1.81913 0
M  V30 980 N 94.5984 0.214957 -1.56127 0
M  V30 981 C 95.5284 1.2695 -1.95974 0
M  V30 982 C 96.5094 1.48539 -0.828868 0
M  V30 983 O 97.6944 1.60611 -1.09168 0
M  V30 984 C 94.8244 2.61794 -2.28214 0
M  V30 985 C 93.7784 2.54851 -3.43853 0
M  V30 986 C 93.1044 3.93785 -3.61715 0
M  V30 987 C 94.4044 2.09065 -4.78632 0
M  V30 988 H 96.0984 0.93846 -2.84312 0
M  V30 989 H 93.6444 0.449996 -1.36788 0
M  V30 990 H 95.5974 3.35731 -2.54682 0
M  V30 991 H 94.3214 2.96599 -1.36736 0
M  V30 992 H 92.9804 1.8337 -3.17444 0
M  V30 993 H 92.6284 4.25908 -2.67602 0
M  V30 994 H 92.3284 3.90019 -4.39498 0
M  V30 995 H 93.8524 4.69374 -3.90539 0
M  V30 996 H 95.2664 2.7275 -5.04262 0
M  V30 997 H 93.6634 2.16346 -5.59745 0
M  V30 998 H 94.7334 1.04315 -4.73547 0
M  V30 999 N 96.0765 1.50051 0.48192 0
M  V30 1000 C 97.3255 1.59741 1.23149 0
M  V30 1001 C 97.6385 0.298163 1.93314 0
M  V30 1002 O 98.8445 0.273835 2.70116 0
M  V30 1003 C 97.3005 2.81926 2.23708 0
M  V30 1004 C 96.9085 4.18685 1.59396 0
M  V30 1005 C 98.6525 3.00956 2.99375 0
M  V30 1006 C 96.5595 5.3207 2.58178 0
M  V30 1007 H 95.4895 0.594838 0.46334 0
M  V30 1008 H 98.1405 1.76467 0.503169 0
M  V30 1009 H 96.5225 2.58736 2.99786 0
M  V30 1010 H 97.6965 4.52088 0.891811 0
M  V30 1011 H 96.0115 4.05171 0.960503 0
M  V30 1012 H 98.6085 3.82836 3.73283 0
M  V30 1013 H 98.9515 2.12258 3.58123 0
M  V30 1014 H 99.4845 3.24277 2.30411 0
M  V30 1015 H 96.2235 6.22888 2.04184 0
M  V30 1016 H 95.7435 5.03098 3.26577 0
M  V30 1017 H 97.4225 5.62196 3.20225 0
M  V30 1018 N 97.5546 -0.734337 1.39446 0
M  V30 1019 C 98.5176 -1.83004 1.37994 0
M  V30 1020 C 99.5176 -1.58397 0.276938 0
M  V30 1021 O 100.708 -1.65785 0.534875 0
M  V30 1022 C 97.8396 -3.20802 1.1532 0
M  V30 1023 H 99.0326 -1.85694 2.35494 0
M  V30 1024 H 96.5856 -0.938059 1.25021 0
M  V30 1025 H 97.3206 -3.23772 0.185036 0
M  V30 1026 H 97.1056 -3.4006 1.95197 0
M  V30 1027 H 98.5956 -4.00862 1.17046 0
M  V30 1028 N 99.0327 -1.24633 -0.964593 0
M  V30 1029 C 100.258 -1.11596 -1.74818 0
M  V30 1030 C 100.683 0.32723 -1.85232 0
M  V30 1031 O 100.041 1.23695 -1.32549 0
M  V30 1032 C 100.089 -1.76397 -3.1451 0
M  V30 1033 O 99.1927 -1.03685 -3.99153 0
M  V30 1034 H 98.5337 -0.390196 -0.537255 0
M  V30 1035 H 101.064 -1.65002 -1.20977 0
M  V30 1036 H 101.074 -1.8228 -3.65018 0
M  V30 1037 H 99.7487 -2.81401 -3.06246 0
M  V30 1038 H 98.3257 -1.05611 -3.57632 0
M  V30 1039 N 100.511 1.16574 -1.06058 0
M  V30 1040 C 101.421 2.2452 -0.680282 0
M  V30 1041 C 102.437 1.71348 0.302604 0
M  V30 1042 O 103.613 2.00822 0.152513 0
M  V30 1043 C 100.678 3.46629 -0.0700315 0
M  V30 1044 C 99.7388 4.14849 -1.10448 0
M  V30 1045 C 98.9718 5.31129 -0.523256 0
M  V30 1046 O 99.1948 5.66514 0.664709 0
M  V30 1047 O 98.1288 5.88526 -1.26179 0
M  V30 1048 H 101.955 2.59355 -1.58015 0
M  V30 1049 H 99.5398 1.24043 -0.832694 0
M  V30 1050 H 101.422 4.20543 0.268667 0
M  V30 1051 H 100.097 3.13573 0.803353 0
M  V30 1052 H 99.0038 3.42916 -1.49532 0
M  V30 1053 H 100.337 4.51954 -1.94931 0
M  V30 1054 N 101.989 0.842826 1.3317 0
M  V30 1055 C 103.217 0.454055 2.01856 0
M  V30 1056 C 103.632 -0.94587 1.63397 0
M  V30 1057 O 102.989 -1.61534 0.849302 0
M  V30 1058 C 103.04 0.569715 3.56982 0
M  V30 1059 O 102.761 1.91448 3.94055 0
M  V30 1060 C 104.262 0.178412 4.42941 0
M  V30 1061 H 101.482 0.17979 0.646465 0
M  V30 1062 H 104.026 1.1365 1.70012 0
M  V30 1063 H 102.181 -0.0648587 3.87346 0
M  V30 1064 H 102.595 1.90282 4.88767 0
M  V30 1065 H 104.069 0.310376 5.51127 0
M  V30 1066 H 104.546 -0.880056 4.30293 0
M  V30 1067 H 105.152 0.787579 4.17944 0
M  V30 1068 N 103.467 -1.45747 0.599634 0
M  V30 1069 C 104.878 -1.85853 0.177681 0
M  V30 1070 C 105.229 -1.50102 -1.26348 0
M  V30 1071 O 104.354 -0.923905 -1.95686 0
M  V30 1072 C 104.949 -3.37326 0.315688 0
M  V30 1073 C 103.508 -3.76365 -0.0515144 0
M  V30 1074 C 102.655 -2.69722 0.643822 0
M  V30 1075 H 105.606 -1.36661 0.806814 0
M  V30 1076 H 105.627 -3.77778 -0.454321 0
M  V30 1077 H 105.139 -3.63315 1.36468 0
M  V30 1078 H 103.24 -3.55993 -1.09999 0
M  V30 1079 H 103.353 -4.77916 0.336594 0
M  V30 1080 H 101.717 -2.54567 0.0822881 0
M  V30 1081 H 102.5 -2.98549 1.6948 0
M  V30 1082 N 104.945 -0.338344 -1.53925 0
M  V30 1083 C 106.193 0.259245 -2.0043 0
M  V30 1084 C 106.514 1.51484 -1.22791 0
M  V30 1085 O 105.784 1.93037 -0.33368 0
M  V30 1086 H 104.364 0.0987845 -0.740439 0
M  V30 1087 H 107.026 -0.458302 -1.89435 0
M  V30 1088 H 106.122 0.505334 -3.07982 0
M  V30 1089 N 106.423 1.57458 -0.0668435 0
M  V30 1090 C 107.37 2.12439 0.902122 0
M  V30 1091 C 108.34 1.03565 1.2986 0
M  V30 1092 O 109.525 1.312 1.38532 0
M  V30 1093 C 106.665 2.6865 2.16614 0
M  V30 1094 C 105.778 3.91663 1.82274 0
M  V30 1095 C 104.913 4.36134 3.0325 0
M  V30 1096 C 103.952 5.51808 2.64904 0
M  V30 1097 N 103.089 5.9126 3.78624 0
M  V30 1098 H 107.929 2.94934 0.426382 0
M  V30 1099 H 105.466 1.4575 0.198819 0
M  V30 1100 H 107.424 2.99346 2.90599 0
M  V30 1101 H 106.054 1.88928 2.61737 0
M  V30 1102 H 105.106 3.6746 0.983719 0
M  V30 1103 H 106.418 4.75693 1.50059 0
M  V30 1104 H 105.572 4.68465 3.85519 0
M  V30 1105 H 104.311 3.50948 3.38655 0
M  V30 1106 H 103.316 5.19133 1.81055 0
M  V30 1107 H 104.541 6.38722 2.30675 0
M  V30 1108 H 102.487 5.09024 4.138 0
M  V30 1109 H 102.404 6.70018 3.5016 0
M  V30 1110 H 103.672 6.28212 4.61486 0
M  V30 1111 N 107.901 -0.206675 1.56239 0
M  V30 1112 C 108.849 -1.27571 1.94495 0
M  V30 1113 C 109.843 -1.47737 0.828862 0
M  V30 1114 O 111.049 -1.48735 1.0138 0
M  V30 1115 H 107.424 -0.428029 0.6183 0
M  V30 1116 H 109.395 -0.925961 2.8367 0
M  V30 1117 C 108.144 -2.61568 2.29079 0
M  V30 1118 H 107.467 -2.46863 3.14482 0
M  V30 1119 H 108.907 -3.35144 2.5972 0
M  V30 1120 C 107.366 -3.17695 1.12123 0
M  V30 1121 O 107.896 -3.99801 0.390153 0
M  V30 1122 N 106.102 -2.76276 0.901097 0
M  V30 1123 H 105.649 -2.09613 1.49733 0
M  V30 1124 H 105.607 -3.1417 0.120319 0
M  V30 1125 N 109.379 -1.50304 -0.473955 0
M  V30 1126 C 110.628 -1.60392 -1.22301 0
M  V30 1127 C 110.941 -0.308411 -1.93153 0
M  V30 1128 O 112.147 -0.288156 -2.69966 0
M  V30 1129 C 110.603 -2.83109 -2.2221 0
M  V30 1130 C 110.211 -4.19524 -1.57173 0
M  V30 1131 C 111.955 -3.0254 -2.97775 0
M  V30 1132 C 109.862 -5.33431 -2.55353 0
M  V30 1133 H 108.792 -0.597286 -0.460179 0
M  V30 1134 H 111.443 -1.76731 -0.493803 0
M  V30 1135 H 109.825 -2.60322 -2.9841 0
M  V30 1136 H 110.999 -4.52554 -0.867824 0
M  V30 1137 H 109.314 -4.05674 -0.939002 0
M  V30 1138 H 111.911 -3.84811 -3.71248 0
M  V30 1139 H 112.254 -2.14154 -3.56992 0
M  V30 1140 H 112.787 -3.25494 -2.28688 0
M  V30 1141 H 109.526 -6.23962 -2.00878 0
M  V30 1142 H 109.046 -5.04823 -3.23904 0
M  V30 1143 H 110.725 -5.63887 -3.17239 0
M  V30 1144 N 110.857 0.726932 -1.39834 0
M  V30 1145 C 112.104 1.48664 -1.37496 0
M  V30 1146 C 112.432 1.94482 0.0264678 0
M  V30 1147 O 111.687 1.67692 1.00886 0
M  V30 1148 C 111.986 2.73495 -2.30077 0
M  V30 1149 C 111.652 2.46502 -3.77555 0
M  V30 1150 C 110.314 2.3885 -4.17737 0
M  V30 1151 C 112.666 2.23604 -4.70798 0
M  V30 1152 C 109.994 2.06352 -5.49214 0
M  V30 1153 C 112.346 1.92622 -6.02561 0
M  V30 1154 C 111.01 1.83444 -6.41798 0
M  V30 1155 H 110.28 0.544001 -0.503135 0
M  V30 1156 H 112.927 0.833657 -1.72402 0
M  V30 1157 H 111.232 3.43575 -1.88317 0
M  V30 1158 H 112.929 3.31549 -2.25558 0
M  V30 1159 H 109.519 2.5334 -3.45712 0
M  V30 1160 H 113.703 2.28479 -4.40581 0
M  V30 1161 H 108.959 1.97776 -5.78528 0
M  V30 1162 H 113.133 1.73914 -6.74334 0
M  V30 1163 H 110.76 1.58029 -7.43593 0
M  V30 1164 N 112.336 1.25143 0.95797 0
M  V30 1165 C 113.583 1.09692 1.70217 0
M  V30 1166 C 113.911 -0.362654 1.91089 0
M  V30 1167 O 113.166 -1.28386 1.47701 0
M  V30 1168 C 113.465 1.79272 3.09187 0
M  V30 1169 C 113.131 3.29196 3.08125 0
M  V30 1170 C 111.793 3.70096 3.07543 0
M  V30 1171 C 114.145 4.24995 3.0171 0
M  V30 1172 C 111.473 5.05213 2.9829 0
M  V30 1173 C 113.825 5.60132 2.93999 0
M  V30 1174 C 112.489 6.00365 2.9175 0
M  V30 1175 H 111.759 0.401393 0.622868 0
M  V30 1176 H 114.406 1.55372 1.11945 0
M  V30 1177 H 112.711 1.26014 3.70982 0
M  V30 1178 H 114.408 1.64773 3.65583 0
M  V30 1179 H 110.998 2.96651 3.09348 0
M  V30 1180 H 115.182 3.9439 3.01281 0
M  V30 1181 H 110.438 5.35569 2.94916 0
M  V30 1182 H 114.612 6.3406 2.87996 0
M  V30 1183 H 112.239 7.05023 2.84336 0
M  V30 1184 N 113.814 -1.1601 1.06675 0
M  V30 1185 C 115.039 -1.91068 0.806706 0
M  V30 1186 C 115.464 -1.77112 -0.633485 0
M  V30 1187 O 114.822 -1.09908 -1.44187 0
M  V30 1188 C 114.87 -3.39655 1.21106 0
M  V30 1189 O 113.974 -4.10893 0.352189 0
M  V30 1190 H 113.315 -0.595125 0.294486 0
M  V30 1191 H 115.845 -1.46955 1.42356 0
M  V30 1192 H 115.855 -3.90434 1.18428 0
M  V30 1193 H 114.53 -3.49132 2.26008 0
M  V30 1194 H 113.107 -3.70285 0.440868 0
M  V30 1195 N 115.292 -0.849877 -1.32721 0
M  V30 1196 C 116.703 -0.506188 -1.79707 0
M  V30 1197 C 117.054 0.975627 -1.70223 0
M  V30 1198 O 116.179 1.76078 -1.25799 0
M  V30 1199 C 116.774 -0.912044 -3.26293 0
M  V30 1200 C 115.333 -0.620326 -3.71253 0
M  V30 1201 C 114.48 -1.11439 -2.53922 0
M  V30 1202 H 117.431 -1.03754 -1.20087 0
M  V30 1203 H 117.452 -0.226493 -3.79825 0
M  V30 1204 H 116.964 -1.99057 -3.33164 0
M  V30 1205 H 115.065 0.447674 -3.69901 0
M  V30 1206 H 115.178 -1.18327 -4.64258 0
M  V30 1207 H 113.542 -0.534834 -2.49021 0
M  V30 1208 H 114.325 -2.19992 -2.6355 0
M  V30 1209 N 116.77 1.45427 -0.607355 0
M  V30 1210 C 117.7 2.3329 0.0989352 0
M  V30 1211 C 118.681 1.46816 0.859007 0
M  V30 1212 O 119.866 1.75588 0.829604 0
M  V30 1213 C 116.996 3.29518 1.09705 0
M  V30 1214 C 115.95 4.25626 0.450206 0
M  V30 1215 C 115.276 5.11542 1.55655 0
M  V30 1216 C 116.576 5.18505 -0.628455 0
M  V30 1217 H 118.27 2.92595 -0.634716 0
M  V30 1218 H 115.816 1.40696 -0.306681 0
M  V30 1219 H 117.769 3.89855 1.59971 0
M  V30 1220 H 116.493 2.68372 1.86129 0
M  V30 1221 H 115.152 3.66586 -0.0315886 0
M  V30 1222 H 114.8 4.46765 2.31107 0
M  V30 1223 H 114.5 5.76647 1.12925 0
M  V30 1224 H 116.024 5.74748 2.06148 0
M  V30 1225 H 117.438 5.72916 -0.209877 0
M  V30 1226 H 115.835 5.92085 -0.977489 0
M  V30 1227 H 116.905 4.60948 -1.50514 0
M  V30 1228 N 118.248 0.346503 1.53744 0
M  V30 1229 C 119.473 -0.253074 2.0585 0
M  V30 1230 C 119.898 -1.43202 1.21962 0
M  V30 1231 O 119.256 -1.79783 0.234073 0
M  V30 1232 C 119.304 -0.643193 3.54817 0
M  V30 1233 O 118.408 -1.74286 3.73762 0
M  V30 1234 H 117.749 -0.0413583 0.662711 0
M  V30 1235 H 120.279 0.501574 1.98357 0
M  V30 1236 H 120.289 -0.919526 3.97503 0
M  V30 1237 H 118.964 0.218966 4.15323 0
M  V30 1238 H 117.541 -1.46356 3.42979 0
M  V30 1239 N 119.726 -1.57421 0.075193 0
M  V30 1240 C 120.975 -1.92794 -0.592731 0
M  V30 1241 C 121.288 -0.957478 -1.70563 0
M  V30 1242 O 122.494 -1.20417 -2.43335 0
M  V30 1243 C 120.95 -3.42495 -1.10569 0
M  V30 1244 C 120.558 -4.47994 -0.0236121 0
M  V30 1245 C 122.302 -3.86864 -1.74748 0
M  V30 1246 C 120.209 -5.88829 -0.550803 0
M  V30 1247 H 119.139 -0.719591 -0.225177 0
M  V30 1248 H 121.79 -1.82902 0.147978 0
M  V30 1249 H 120.172 -3.47471 -1.89947 0
M  V30 1250 H 121.346 -4.54637 0.751099 0
M  V30 1251 H 119.661 -4.13113 0.522159 0
M  V30 1252 H 122.258 -4.8947 -2.15229 0
M  V30 1253 H 122.601 -3.24417 -2.60882 0
M  V30 1254 H 123.134 -3.84504 -1.01986 0
M  V30 1255 H 119.873 -6.54929 0.273457 0
M  V30 1256 H 119.393 -5.85698 -1.29296 0
M  V30 1257 H 121.072 -6.38811 -1.02613 0
M  V30 1258 N 121.204 0.198386 -1.56346 0
M  V30 1259 C 122.429 0.939682 -1.84891 0
M  V30 1260 C 122.854 1.76202 -0.658369 0
M  V30 1261 O 122.212 1.76993 0.392851 0
M  V30 1262 C 122.26 1.81428 -3.11635 0
M  V30 1263 O 121.364 2.91265 -2.91956 0
M  V30 1264 H 120.705 0.264807 -0.608912 0
M  V30 1265 H 123.235 0.204695 -2.03573 0
M  V30 1266 H 123.245 2.21958 -3.42343 0
M  V30 1267 H 121.92 1.21004 -3.97908 0
M  V30 1268 H 120.497 2.54514 -2.72538 0
M  V30 1269 N 122.682 1.50554 0.465978 0
M  V30 1270 C 123.645 1.69233 1.54574 0
M  V30 1271 C 124.645 0.562901 1.50626 0
M  V30 1272 O 125.835 0.830016 1.53155 0
M  V30 1273 C 122.967 1.7223 2.94193 0
M  V30 1274 H 124.16 2.65571 1.39327 0
M  V30 1275 H 121.713 1.40111 0.692711 0
M  V30 1276 H 122.448 0.77603 3.14878 0
M  V30 1277 H 122.233 2.54285 2.98466 0
M  V30 1278 H 123.723 1.88618 3.72576 0
M  V30 1279 N 124.16 -0.719506 1.40217 0
M  V30 1280 C 125.123 -1.8153 1.39927 0
M  V30 1281 C 126.123 -1.58095 0.293723 0
M  V30 1282 O 127.313 -1.65209 0.552429 0
M  V30 1283 C 124.445 -3.19561 1.18716 0
M  V30 1284 H 125.638 -1.83186 2.37451 0
M  V30 1285 H 123.191 -0.924746 1.26008 0
M  V30 1286 H 123.926 -3.23557 0.219366 0
M  V30 1287 H 123.711 -3.3797 1.98793 0
M  V30 1288 H 125.201 -3.99598 1.21291 0
M  V30 1289 N 125.638 -1.25649 -0.95132 0
M  V30 1290 C 126.868 -1.13179 -1.72841 0
M  V30 1291 C 127.276 0.316827 -1.86528 0
M  V30 1292 O 126.619 1.22948 -1.3649 0
M  V30 1293 C 126.681 -1.71644 -3.15878 0
M  V30 1294 C 126.345 -3.20667 -3.25609 0
M  V30 1295 C 127.342 -4.17616 -3.09666 0
M  V30 1296 C 125.027 -3.6094 -3.49324 0
M  V30 1297 C 127.021 -5.52817 -3.17289 0
M  V30 1298 C 124.708 -4.96278 -3.56584 0
M  V30 1299 C 125.706 -5.92025 -3.40581 0
M  V30 1300 O 125.394 -7.24899 -3.47528 0
M  V30 1301 H 125.126 -0.395389 -0.54831 0
M  V30 1302 H 127.68 -1.66566 -1.20187 0
M  V30 1303 H 125.91 -1.12707 -3.69911 0
M  V30 1304 H 127.599 -1.54225 -3.75459 0
M  V30 1305 H 128.365 -3.87842 -2.91211 0
M  V30 1306 H 124.244 -2.86907 -3.6084 0
M  V30 1307 H 127.788 -6.2753 -3.04716 0
M  V30 1308 H 123.685 -5.25716 -3.74556 0
M  V30 1309 H 124.453 -7.33039 -3.64138 0
M  V30 1310 N 127.117 1.15442 -1.07289 0
M  V30 1311 C 128.08 2.18358 -0.696591 0
M  V30 1312 C 129.08 1.58637 0.262837 0
M  V30 1313 O 130.27 1.74145 0.0438809 0
M  V30 1314 C 127.402 3.4089 -0.0266151 0
M  V30 1315 H 128.595 2.53162 -1.60776 0
M  V30 1316 H 126.148 1.29893 -0.869342 0
M  V30 1317 H 126.883 3.11653 0.896822 0
M  V30 1318 H 126.668 3.85495 -0.716657 0
M  V30 1319 H 128.158 4.17009 0.222028 0
M  V30 1320 N 128.595 0.856903 1.32268 0
M  V30 1321 C 129.528 0.247937 2.26849 0
M  V30 1322 C 130.506 -0.615382 1.50505 0
M  V30 1323 O 131.69 -0.571689 1.79622 0
M  V30 1324 C 128.817 -0.650093 3.32403 0
M  V30 1325 C 127.863 0.140138 4.2627 0
M  V30 1326 S 128.696 1.51004 5.13769 0
M  V30 1327 C 129.852 0.61778 6.22844 0
M  V30 1328 H 130.085 1.04971 2.78152 0
M  V30 1329 H 127.618 0.654665 1.39834 0
M  V30 1330 H 129.576 -1.16256 3.93694 0
M  V30 1331 H 128.237 -1.4257 2.7988 0
M  V30 1332 H 127.43 -0.543945 5.01056 0
M  V30 1333 H 127.032 0.584267 3.69408 0
M  V30 1334 H 129.324 -0.177053 6.77269 0
M  V30 1335 H 130.267 1.33636 6.95375 0
M  V30 1336 H 130.675 0.191124 5.64176 0
M  V30 1337 N 130.073 -1.45103 0.615059 0
M  V30 1338 C 131.003 -2.33339 -0.0865619 0
M  V30 1339 C 131.984 -1.4727 -0.851209 0
M  V30 1340 O 133.169 -1.76026 -0.820281 0
M  V30 1341 C 130.299 -3.30095 -1.07956 0
M  V30 1342 C 129.253 -4.25858 -0.427628 0
M  V30 1343 C 128.579 -5.12361 -1.5294 0
M  V30 1344 C 129.879 -5.18165 0.655944 0
M  V30 1345 H 131.573 -2.92254 0.650224 0
M  V30 1346 H 129.119 -1.40532 0.314138 0
M  V30 1347 H 131.072 -3.90698 -1.57901 0
M  V30 1348 H 129.796 -2.69355 -1.84703 0
M  V30 1349 H 128.455 -3.66564 0.0510292 0
M  V30 1350 H 128.103 -4.47984 -2.28734 0
M  V30 1351 H 127.803 -5.77238 -1.09865 0
M  V30 1352 H 129.327 -5.75833 -2.03098 0
M  V30 1353 H 130.741 -5.72796 0.240257 0
M  V30 1354 H 129.138 -5.91559 1.00888 0
M  V30 1355 H 130.208 -4.60144 1.52957 0
M  V30 1356 N 131.551 -0.354651 -1.53558 0
M  V30 1357 C 132.776 0.242153 -2.05981 0
M  V30 1358 C 133.201 1.42553 -1.2272 0
M  V30 1359 O 132.559 1.79656 -0.243604 0
M  V30 1360 C 132.607 0.624367 -3.55154 0
M  V30 1361 O 131.711 1.72301 -3.74681 0
M  V30 1362 H 131.052 0.0378432 -0.662921 0
M  V30 1363 H 133.582 -0.512087 -1.98088 0
M  V30 1364 H 133.592 0.898433 -3.97985 0
M  V30 1365 H 132.267 -0.240989 -4.15201 0
M  V30 1366 H 130.844 1.44535 -3.4375 0
M  V30 1367 N 133.029 1.57378 -0.0835403 0
M  V30 1368 C 133.959 2.1641 0.87686 0
M  V30 1369 C 134.94 1.09429 1.30228 0
M  V30 1370 O 136.125 1.37516 1.37124 0
M  V30 1371 C 133.255 2.73517 2.14022 0
M  V30 1372 C 132.209 3.85769 1.85381 0
M  V30 1373 C 131.535 4.29529 3.18448 0
M  V30 1374 C 132.835 5.09486 1.14984 0
M  V30 1375 H 134.529 2.96914 0.385059 0
M  V30 1376 H 132.075 1.42823 0.18377 0
M  V30 1377 H 134.028 3.13463 2.81636 0
M  V30 1378 H 132.752 1.90252 2.65465 0
M  V30 1379 H 131.411 3.46345 1.20169 0
M  V30 1380 H 131.059 3.43169 3.67755 0
M  V30 1381 H 130.759 5.05204 3.00071 0
M  V30 1382 H 132.283 4.72099 3.8724 0
M  V30 1383 H 133.697 5.46674 1.72687 0
M  V30 1384 H 132.094 5.90515 1.06826 0
M  V30 1385 H 133.164 4.84724 0.130749 0
M  V30 1386 N 134.507 -0.190092 1.56449 0
M  V30 1387 C 135.755 -0.907908 1.80559 0
M  V30 1388 C 136.076 -1.83583 0.657438 0
M  V30 1389 O 135.346 -1.93203 -0.323924 0
M  V30 1390 H 133.926 -0.338247 0.666032 0
M  V30 1391 H 136.588 -0.194403 1.93928 0
M  V30 1392 H 135.684 -1.49604 2.73907 0
M  V30 1393 N 135.985 -1.50799 -0.457987 0
M  V30 1394 C 136.948 -1.7005 -1.53674 0
M  V30 1395 C 137.948 -0.570881 -1.50325 0
M  V30 1396 O 139.138 -0.838126 -1.52712 0
M  V30 1397 C 136.27 -1.73788 -2.93276 0
M  V30 1398 H 137.463 -2.66306 -1.37917 0
M  V30 1399 H 135.016 -1.40477 -0.685271 0
M  V30 1400 H 135.751 -0.792717 -3.14462 0
M  V30 1401 H 135.536 -2.55864 -2.97113 0
M  V30 1402 H 137.026 -1.90591 -3.71571 0
M  V30 1403 N 137.463 0.71206 -1.40597 0
M  V30 1404 C 138.703 1.48438 -1.40519 0
M  V30 1405 C 139.067 1.91998 -0.00767611 0
M  V30 1406 O 140.268 2.6854 0.118239 0
M  V30 1407 C 138.539 2.67514 -2.37004 0
M  V30 1408 S 140.098 3.56875 -2.55315 0
M  V30 1409 H 136.916 0.507457 -0.498005 0
M  V30 1410 H 139.518 0.832355 -1.76896 0
M  V30 1411 H 138.222 2.33689 -3.37368 0
M  V30 1412 H 137.753 3.37625 -2.01923 0
M  V30 1413 H 139.768 4.62081 -1.8082 0
M  V30 1414 N 138.941 1.26152 0.944643 0
M  V30 1415 C 140.166 1.14363 1.7302 0
M  V30 1416 C 140.591 -0.29772 1.85729 0
M  V30 1417 O 139.949 -1.2157 1.34501 0
M  V30 1418 C 139.997 1.81378 3.11664 0
M  V30 1419 O 139.101 1.10022 3.97453 0
M  V30 1420 H 138.442 0.398694 0.53098 0
M  V30 1421 H 140.972 1.66906 1.18337 0
M  V30 1422 H 140.982 1.88064 3.62072 0
M  V30 1423 H 139.657 2.86237 3.0173 0
M  V30 1424 H 138.234 1.11287 3.55907 0
M  V30 1425 N 140.419 -1.14872 1.07899 0
M  V30 1426 C 141.369 -2.17809 0.674027 0
M  V30 1427 C 142.353 -1.58008 -0.303699 0
M  V30 1428 O 143.545 -1.76616 -0.11654 0
M  V30 1429 C 140.674 -3.43208 0.0793318 0
M  V30 1430 C 139.76 -4.10051 1.08253 0
M  V30 1431 N 140.151 -4.52296 2.2641 0
M  V30 1432 C 138.449 -4.36469 0.917124 0
M  V30 1433 C 139.15 -5.04199 2.901 0
M  V30 1434 N 138.126 -4.98088 2.17736 0
M  V30 1435 H 141.928 -2.48207 1.57386 0
M  V30 1436 H 139.442 -1.315 0.952976 0
M  V30 1437 H 141.439 -4.16272 -0.228719 0
M  V30 1438 H 140.099 -3.14291 -0.815551 0
M  V30 1439 H 141.11 -4.45504 2.64096 0
M  V30 1440 H 137.787 -4.17432 0.0756078 0
M  V30 1441 H 139.177 -5.46802 3.90458 0
M  V30 1442 N 141.898 -0.863906 -1.31812 0
M  V30 1443 C 143.123 -0.48527 -2.01643 0
M  V30 1444 C 143.548 0.913058 -1.64453 0
M  V30 1445 O 142.906 1.6014 -0.849985 0
M  V30 1446 C 142.954 -0.642625 -3.54828 0
M  V30 1447 O 142.058 0.320659 -4.11151 0
M  V30 1448 H 141.399 -0.193793 -0.635091 0
M  V30 1449 H 143.929 -1.16565 -1.68148 0
M  V30 1450 H 143.939 -0.533628 -4.04495 0
M  V30 1451 H 142.614 -1.66227 -3.81237 0
M  V30 1452 H 141.191 0.167126 -3.72525 0
M  V30 1453 N 143.376 1.44774 -0.622745 0
M  V30 1454 C 144.792 1.56986 -0.287652 0
M  V30 1455 C 144.992 1.61167 1.20944 0
M  V30 1456 O 144.048 1.55015 1.99315 0
M  V30 1457 C 145.361 2.84551 -0.972188 0
M  V30 1458 C 146.909 2.9825 -0.949536 0
M  V30 1459 C 147.384 4.28605 -1.61437 0
M  V30 1460 N 148.875 4.35399 -1.58057 0
M  V30 1461 C 149.61 5.34964 -2.064 0
M  V30 1462 N 149.106 6.40981 -2.62897 0
M  V30 1463 N 150.899 5.26419 -1.97078 0
M  V30 1464 H 143.05 1.40304 -1.59463 0
M  V30 1465 H 145.313 0.671794 -0.668878 0
M  V30 1466 H 145.019 2.87417 -2.02693 0
M  V30 1467 H 144.893 3.73807 -0.504771 0
M  V30 1468 H 147.28 2.94941 0.0967067 0
M  V30 1469 H 147.361 2.10364 -1.45536 0
M  V30 1470 H 147.005 4.32672 -2.66002 0
M  V30 1471 H 146.935 5.15334 -1.08344 0
M  V30 1472 H 149.426 3.59397 -1.16801 0
M  V30 1473 H 149.739 7.13225 -2.97539 0
M  V30 1474 H 148.084 6.4169 -2.66943 0
M  V30 1475 H 151.275 4.42504 -1.52669 0
M  V30 1476 H 151.448 6.03861 -2.35066 0
M  V30 1477 N 144.854 0.36279 1.53368 0
M  V30 1478 C 146.079 -0.231226 2.06107 0
M  V30 1479 C 146.504 -1.419 1.23474 0
M  V30 1480 O 145.862 -1.79524 0.253128 0
M  V30 1481 C 145.91 -0.605523 3.5548 0
M  V30 1482 O 145.014 -1.70312 3.7559 0
M  V30 1483 H 144.355 -0.034327 0.663112 0
M  V30 1484 H 146.885 0.522584 1.97814 0
M  V30 1485 H 146.895 -0.877314 3.98456 0
M  V30 1486 H 145.57 0.263004 4.15068 0
M  V30 1487 H 144.147 -1.4271 3.44512 0
M  V30 1488 N 146.332 -1.57332 0.0918853 0
M  V30 1489 C 147.264 -2.10869 -0.898168 0
M  V30 1490 C 148.277 -1.04521 -1.24817 0
M  V30 1491 O 149.466 -1.31977 -1.20184 0
M  V30 1492 C 146.566 -2.57083 -2.2082 0
M  V30 1493 C 145.739 -3.87229 -2.03402 0
M  V30 1494 C 144.798 -4.19324 -3.17889 0
M  V30 1495 O 143.824 -4.88598 -2.91994 0
M  V30 1496 N 145.026 -3.74471 -4.43567 0
M  V30 1497 H 147.791 -2.96439 -0.440943 0
M  V30 1498 H 145.352 -1.61631 -0.0933064 0
M  V30 1499 H 147.344 -2.75602 -2.96354 0
M  V30 1500 H 145.914 -1.76541 -2.57977 0
M  V30 1501 H 145.134 -3.7789 -1.12218 0
M  V30 1502 H 146.422 -4.72379 -1.89038 0
M  V30 1503 H 145.82 -3.18546 -4.67488 0
M  V30 1504 H 144.377 -3.98151 -5.16061 0
M  V30 1505 N 147.81 0.181792 -1.56548 0
M  V30 1506 C 149.059 0.898348 -1.8059 0
M  V30 1507 C 149.372 1.83862 -0.667379 0
M  V30 1508 O 150.578 2.59678 -0.792446 0
M  V30 1509 C 149.034 1.64791 -3.19956 0
M  V30 1510 C 148.642 0.751789 -4.41647 0
M  V30 1511 C 150.386 2.35331 -3.53298 0
M  V30 1512 C 148.293 1.50098 -5.72035 0
M  V30 1513 H 147.223 0.339194 -0.673397 0
M  V30 1514 H 149.874 0.151413 -1.82874 0
M  V30 1515 H 148.256 2.43921 -3.11959 0
M  V30 1516 H 149.43 -0.0018076 -4.608 0
M  V30 1517 H 147.745 0.156562 -4.16106 0
M  V30 1518 H 150.342 2.91958 -4.47956 0
M  V30 1519 H 150.685 3.10164 -2.77676 0
M  V30 1520 H 151.218 1.63154 -3.62803 0
M  V30 1521 H 147.957 0.795175 -6.50659 0
M  V30 1522 H 147.477 2.22817 -5.56878 0
M  V30 1523 H 149.156 2.05125 -6.13622 0
M  V30 1524 N 149.288 1.51039 0.449983 0
M  V30 1525 C 150.218 1.74379 1.55288 0
M  V30 1526 C 151.199 0.593236 1.5942 0
M  V30 1527 O 152.384 0.834625 1.7535 0
M  V30 1528 C 149.514 1.85728 2.93466 0
M  V30 1529 C 148.468 3.01078 3.04197 0
M  V30 1530 C 147.794 2.97595 4.44231 0
M  V30 1531 C 149.094 4.41254 2.7945 0
M  V30 1532 H 150.788 2.66725 1.36008 0
M  V30 1533 H 148.334 1.2835 0.652864 0
M  V30 1534 H 150.287 2.0064 3.70569 0
M  V30 1535 H 149.011 0.900207 3.13949 0
M  V30 1536 H 147.67 2.85851 2.29531 0
M  V30 1537 H 147.318 1.99691 4.61663 0
M  V30 1538 H 147.018 3.75046 4.52343 0
M  V30 1539 H 148.542 3.14583 5.23326 0
M  V30 1540 H 149.956 4.56897 3.46292 0
M  V30 1541 H 148.353 5.20315 2.98985 0
M  V30 1542 H 149.423 4.52164 1.75144 0
M  V30 1543 N 150.766 -0.704594 1.40972 0
M  V30 1544 C 151.676 -1.84856 1.44448 0
M  V30 1545 C 152.692 -1.70726 0.335961 0
M  V30 1546 O 153.868 -1.92799 0.582276 0
M  V30 1547 C 150.933 -3.20758 1.31587 0
M  V30 1548 C 149.994 -3.47063 2.52677 0
M  V30 1549 C 149.227 -4.76481 2.4042 0
M  V30 1550 O 149.45 -5.52341 1.42391 0
M  V30 1551 O 148.384 -5.03367 3.30007 0
M  V30 1552 H 152.21 -1.8488 2.40942 0
M  V30 1553 H 149.795 -0.85647 1.22413 0
M  V30 1554 H 151.677 -4.01913 1.26665 0
M  V30 1555 H 150.352 -3.21438 0.382049 0
M  V30 1556 H 149.259 -2.65873 2.63177 0
M  V30 1557 H 150.592 -3.5119 3.44858 0
M  V30 1558 N 152.244 -1.26651 -0.937939 0
M  V30 1559 C 153.492 -1.12165 -1.68118 0
M  V30 1560 C 153.813 0.334983 -1.92101 0
M  V30 1561 O 153.083 1.23583 -1.52 0
M  V30 1562 H 151.663 -0.412093 -0.623048 0
M  V30 1563 H 154.325 -1.59027 -1.12678 0
M  V30 1564 H 153.421 -1.64289 -2.6536 0
M  V30 1565 N 153.722 1.14298 -1.08507 0
M  V30 1566 C 154.652 2.21542 -0.737646 0
M  V30 1567 C 155.633 1.67773 0.280377 0
M  V30 1568 O 156.818 1.93616 0.150521 0
M  V30 1569 C 153.948 3.46988 -0.147259 0
M  V30 1570 C 152.902 4.13789 -1.09374 0
M  V30 1571 C 152.228 5.33449 -0.365524 0
M  V30 1572 C 153.528 4.62208 -2.4323 0
M  V30 1573 H 155.222 2.5086 -1.6343 0
M  V30 1574 H 152.768 1.20576 -0.787243 0
M  V30 1575 H 154.721 4.21262 0.107808 0
M  V30 1576 H 153.445 3.17037 0.784538 0
M  V30 1577 H 152.104 3.4147 -1.33393 0
M  V30 1578 H 151.752 4.99759 0.57011 0
M  V30 1579 H 151.452 5.79088 -0.996512 0
M  V30 1580 H 152.976 6.10485 -0.118534 0
M  V30 1581 H 154.39 5.27952 -2.23472 0
M  V30 1582 H 152.787 5.18553 -3.02031 0
M  V30 1583 H 153.857 3.77224 -3.04681 0
M  V30 1584 N 155.201 0.870884 1.31352 0
M  V30 1585 C 156.449 0.48132 1.96285 0
M  V30 1586 C 156.77 -0.969813 1.69173 0
M  V30 1587 O 156.04 -1.67998 1.00764 0
M  V30 1588 H 154.62 0.175002 0.726212 0
M  V30 1589 H 157.282 1.11087 1.60143 0
M  V30 1590 H 156.378 0.639825 3.05471 0
M  V30 1591 N 156.679 -1.44442 0.630414 0
M  V30 1592 C 157.926 -2.02052 0.134617 0
M  V30 1593 C 158.254 -1.49576 -1.24327 0
M  V30 1594 O 157.509 -0.669806 -1.83881 0
M  V30 1595 C 157.808 -3.57332 0.0697835 0
M  V30 1596 C 157.474 -4.29058 1.38635 0
M  V30 1597 C 156.136 -4.4837 1.74694 0
M  V30 1598 C 158.488 -4.69872 2.25543 0
M  V30 1599 C 155.816 -5.05756 2.97369 0
M  V30 1600 C 158.168 -5.28616 3.47487 0
M  V30 1601 C 156.832 -5.46147 3.8377 0
M  V30 1602 H 156.102 -0.739361 0.0492598 0
M  V30 1603 H 158.749 -1.73217 0.816586 0
M  V30 1604 H 157.054 -3.85577 -0.695553 0
M  V30 1605 H 158.751 -3.99637 -0.330344 0
M  V30 1606 H 155.341 -4.14357 1.09574 0
M  V30 1607 H 159.525 -4.54666 1.98979 0
M  V30 1608 H 154.781 -5.17515 3.25558 0
M  V30 1609 H 158.955 -5.59192 4.15063 0
M  V30 1610 H 156.582 -5.9038 4.7891 0
M  V30 1611 N 158.157 -0.370918 -1.53173 0
M  V30 1612 C 159.105 0.488101 -2.27421 0
M  V30 1613 C 160.099 1.07884 -1.30604 0
M  V30 1614 O 161.305 1.02143 -1.48212 0
M  V30 1615 H 157.68 0.176134 -0.731082 0
M  V30 1616 H 159.651 -0.159815 -2.97972 0
M  V30 1617 C 158.4 1.61306 -3.08019 0
M  V30 1618 H 157.723 1.1678 -3.82364 0
M  V30 1619 H 159.163 2.18872 -3.63141 0
M  V30 1620 C 157.622 2.55848 -2.19188 0
M  V30 1621 O 158.152 3.58799 -1.80626 0
M  V30 1622 N 156.358 2.2516 -1.83715 0
M  V30 1623 H 155.905 1.41476 -2.15273 0
M  V30 1624 H 155.863 2.8867 -1.24567 0
M  V30 1625 N 159.635 1.57281 -0.100228 0
M  V30 1626 C 160.565 2.17328 0.853857 0
M  V30 1627 C 161.546 1.10804 1.2906 0
M  V30 1628 O 162.731 1.38963 1.35657 0
M  V30 1629 C 159.861 2.75772 2.11109 0
M  V30 1630 C 158.815 3.87713 1.81279 0
M  V30 1631 C 158.141 4.32882 3.13874 0
M  V30 1632 C 159.441 5.10677 1.09574 0
M  V30 1633 H 161.135 2.97305 0.353545 0
M  V30 1634 H 158.681 1.43009 0.168612 0
M  V30 1635 H 160.634 3.16433 2.78296 0
M  V30 1636 H 159.358 1.93057 2.63432 0
M  V30 1637 H 158.017 3.476 1.16489 0
M  V30 1638 H 157.665 3.47051 3.64095 0
M  V30 1639 H 157.365 5.08358 2.94696 0
M  V30 1640 H 158.889 4.7618 3.82211 0
M  V30 1641 H 160.303 5.48474 1.66879 0
M  V30 1642 H 158.7 5.91615 1.00557 0
M  V30 1643 H 159.77 4.84835 0.0793299 0
M  V30 1644 N 161.113 -0.173488 1.56642 0
M  V30 1645 C 162.341 -0.906095 1.86004 0
M  V30 1646 C 162.756 -1.75921 0.685355 0
M  V30 1647 O 162.113 -1.79198 -0.345578 0
M  V30 1648 C 162.164 -1.78462 3.14378 0
M  V30 1649 O 161.885 -0.965914 4.27319 0
M  V30 1650 C 163.386 -2.62707 3.57071 0
M  V30 1651 H 160.606 -0.263341 0.617165 0
M  V30 1652 H 163.15 -0.174236 2.03756 0
M  V30 1653 H 161.305 -2.46984 2.98459 0
M  V30 1654 H 161.719 -1.56655 5.00559 0
M  V30 1655 H 163.193 -3.19969 4.49804 0
M  V30 1656 H 163.67 -3.37472 2.81086 0
M  V30 1657 H 164.276 -1.99521 3.75595 0
M  V30 1658 N 162.591 -1.51276 -0.441967 0
M  V30 1659 C 163.501 -1.75092 -1.56141 0
M  V30 1660 C 164.517 -0.634963 -1.62001 0
M  V30 1661 O 165.693 -0.916686 -1.79329 0
M  V30 1662 C 162.758 -1.86666 -2.92158 0
M  V30 1663 C 161.819 -3.10506 -2.96453 0
M  V30 1664 C 161.052 -3.21519 -4.25982 0
M  V30 1665 O 161.275 -2.38586 -5.18105 0
M  V30 1666 O 160.209 -4.14465 -4.36466 0
M  V30 1667 H 164.035 -2.70044 -1.38961 0
M  V30 1668 H 161.62 -1.35722 -0.624499 0
M  V30 1669 H 163.502 -1.96292 -3.72891 0
M  V30 1670 H 162.177 -0.949014 -3.09476 0
M  V30 1671 H 161.084 -3.06363 -2.14692 0
M  V30 1672 H 162.417 -4.01945 -2.84079 0
M  V30 1673 N 164.069 0.697108 -1.41344 0
M  V30 1674 C 164.999 1.82353 -1.45841 0
M  V30 1675 C 165.98 1.67115 -0.317247 0
M  V30 1676 O 167.165 1.86871 -0.528474 0
M  V30 1677 C 164.295 3.20476 -1.33838 0
M  V30 1678 C 163.249 3.50415 -2.4575 0
M  V30 1679 C 162.575 4.87878 -2.18813 0
M  V30 1680 C 163.875 3.49546 -3.88091 0
M  V30 1681 H 165.569 1.78846 -2.40113 0
M  V30 1682 H 163.115 0.859028 -1.15571 0
M  V30 1683 H 165.068 3.98988 -1.35596 0
M  V30 1684 H 163.792 3.24604 -0.360498 0
M  V30 1685 H 162.451 2.74253 -2.43271 0
M  V30 1686 H 162.099 4.8863 -1.19371 0
M  V30 1687 H 161.799 5.08875 -2.93803 0
M  V30 1688 H 163.323 5.68702 -2.22284 0
M  V30 1689 H 164.737 4.18066 -3.92293 0
M  V30 1690 H 163.134 3.82075 -4.62751 0
M  V30 1691 H 164.204 2.48552 -4.16353 0
M  V30 1692 N 165.547 1.27147 0.931209 0
M  V30 1693 C 166.772 1.16191 1.71797 0
M  V30 1694 C 167.197 -0.278004 1.86034 0
M  V30 1695 O 166.555 -1.20137 1.35782 0
M  V30 1696 C 166.603 1.84673 3.09723 0
M  V30 1697 O 165.707 1.14231 3.96264 0
M  V30 1698 H 165.048 0.404303 0.526721 0
M  V30 1699 H 167.578 1.68152 1.1656 0
M  V30 1700 H 167.588 1.91893 3.60057 0
M  V30 1701 H 166.263 2.89421 2.98677 0
M  V30 1702 H 164.84 1.15056 3.54706 0
M  V30 1703 N 167.025 -1.13721 1.09112 0
M  V30 1704 C 167.935 -2.22638 0.73957 0
M  V30 1705 C 168.951 -1.72091 -0.257068 0
M  V30 1706 O 170.127 -2.01155 -0.0992154 0
M  V30 1707 C 167.192 -3.46322 0.16191 0
M  V30 1708 C 166.253 -4.11775 1.21408 0
M  V30 1709 C 165.486 -5.29555 0.663891 0
M  V30 1710 O 165.709 -5.68077 -0.514274 0
M  V30 1711 O 164.643 -5.84973 1.41738 0
M  V30 1712 H 168.469 -2.55074 1.64836 0
M  V30 1713 H 166.054 -1.21791 0.865289 0
M  V30 1714 H 167.936 -4.21107 -0.157073 0
M  V30 1715 H 166.611 -3.15593 -0.719932 0
M  V30 1716 H 165.518 -3.3883 1.58571 0
M  V30 1717 H 166.851 -4.46627 2.06845 0
M  V30 1718 N 168.503 -0.877838 -1.30888 0
M  V30 1719 C 169.728 -0.506629 -2.01117 0
M  V30 1720 C 170.153 0.895564 -1.65412 0
M  V30 1721 O 169.511 1.5923 -0.866922 0
M  V30 1722 C 169.559 -0.680223 -3.54126 0
M  V30 1723 O 168.663 0.277033 -4.11468 0
M  V30 1724 H 168.004 -0.200518 -0.633 0
M  V30 1725 H 170.534 -1.18342 -1.66902 0
M  V30 1726 H 170.544 -0.5765 -4.03907 0
M  V30 1727 H 169.219 -1.70261 -3.79452 0
M  V30 1728 H 167.796 0.127606 -3.72682 0
M  V30 1729 N 169.982 1.44106 -0.638065 0
M  V30 1730 C 171.259 1.95453 -0.0759321 0
M  V30 1731 C 171.639 1.57984 1.40015 0
M  V30 1732 O 170.987 0.857361 2.11806 0
M  V30 1733 C 171.197 3.47655 -0.306132 0
M  V30 1734 C 172.545 4.24114 -0.203008 0
M  V30 1735 O 173.569 3.55405 -0.237871 0
M  V30 1736 O 172.428 5.46381 -0.113827 0
M  V30 1737 H 169.522 0.826797 0.0183332 0
M  V30 1738 H 172.068 1.54122 -0.710251 0
M  V30 1739 H 170.84 3.68 -1.3301 0
M  V30 1740 H 170.463 3.95949 0.361991 0
M  V30 1741 N 171.46 0.379036 1.52974 0
M  V30 1742 C 172.706 -0.206727 2.01744 0
M  V30 1743 C 173.039 -1.47314 1.26539 0
M  V30 1744 O 172.314 -1.91084 0.362903 0
M  V30 1745 C 172.597 -0.485066 3.56818 0
M  V30 1746 C 172.45 0.795919 4.42702 0
M  V30 1747 C 173.769 -1.28003 4.21074 0
M  V30 1748 H 170.888 -0.0736607 0.73331 0
M  V30 1749 H 173.53 0.506581 1.83122 0
M  V30 1750 H 171.68 -1.09272 3.72816 0
M  V30 1751 H 173.352 1.43307 4.38476 0
M  V30 1752 H 171.595 1.41344 4.10127 0
M  V30 1753 H 172.266 0.555947 5.49193 0
M  V30 1754 H 174.742 -0.765867 4.08991 0
M  V30 1755 H 173.618 -1.44352 5.29579 0
M  V30 1756 H 173.879 -2.29236 3.78026 0
M  V30 1757 N 172.938 -1.57226 0.108567 0
M  V30 1758 C 173.888 -2.11305 -0.856396 0
M  V30 1759 C 174.872 -1.03129 -1.23504 0
M  V30 1760 O 176.064 -1.29381 -1.20787 0
M  V30 1761 C 173.193 -2.70771 -2.11041 0
M  V30 1762 C 172.279 -3.86011 -1.7566 0
M  V30 1763 N 172.67 -4.93492 -1.10902 0
M  V30 1764 C 170.968 -3.95999 -2.05185 0
M  V30 1765 C 171.669 -5.73984 -0.944308 0
M  V30 1766 N 170.645 -5.2346 -1.46596 0
M  V30 1767 H 174.447 -2.91784 -0.352002 0
M  V30 1768 H 171.961 -1.62126 -0.0942324 0
M  V30 1769 H 173.958 -3.07851 -2.81128 0
M  V30 1770 H 172.618 -1.91751 -2.62034 0
M  V30 1771 H 173.629 -5.1208 -0.774235 0
M  V30 1772 H 170.306 -3.28007 -2.58298 0
M  V30 1773 H 171.696 -6.70479 -0.436813 0
M  V30 1774 N 174.416 0.165178 -1.56732 0
M  V30 1775 C 175.832 0.517174 -1.50988 0
M  V30 1776 C 176.032 1.84331 -0.813894 0
M  V30 1777 O 175.088 2.49672 -0.37682 0
M  V30 1778 C 176.401 0.544261 -2.95733 0
M  V30 1779 C 177.949 0.631039 -3.06573 0
M  V30 1780 C 178.424 0.68896 -4.52788 0
M  V30 1781 N 179.915 0.751683 -4.5706 0
M  V30 1782 C 180.65 0.817177 -5.67547 0
M  V30 1783 N 180.146 0.843129 -6.8765 0
M  V30 1784 N 181.939 0.856668 -5.55534 0
M  V30 1785 H 174.09 -0.704318 -2.00382 0
M  V30 1786 H 176.353 -0.254687 -0.913148 0
M  V30 1787 H 176.059 -0.361607 -3.49836 0
M  V30 1788 H 175.933 1.3886 -3.5071 0
M  V30 1789 H 178.32 1.52733 -2.52501 0
M  V30 1790 H 178.401 -0.240095 -2.54671 0
M  V30 1791 H 178.045 -0.2031 -5.07494 0
M  V30 1792 H 177.975 1.57633 -5.02454 0
M  V30 1793 H 180.466 0.739661 -3.70591 0
M  V30 1794 H 180.779 0.894448 -7.67606 0
M  V30 1795 H 179.124 0.811304 -6.90248 0
M  V30 1796 H 182.315 0.833437 -4.60621 0
M  V30 1797 H 182.488 0.904247 -6.4166 0
M  V30 1798 N 175.894 1.51508 0.433938 0
M  V30 1799 C 177.142 1.6402 1.18075 0
M  V30 1800 C 177.463 0.360328 1.91642 0
M  V30 1801 O 176.733 -0.623945 1.85698 0
M  V30 1802 H 175.313 0.6045 0.43885 0
M  V30 1803 H 177.975 1.88452 0.497178 0
M  V30 1804 H 177.071 2.46949 1.90847 0
M  V30 1805 N 177.372 -0.689602 1.41712 0
M  V30 1806 C 178.619 -1.44966 1.4139 0
M  V30 1807 C 178.947 -1.94484 0.025105 0
M  V30 1808 O 178.202 -1.70307 -0.964048 0
M  V30 1809 C 178.501 -2.67298 2.37247 0
M  V30 1810 C 178.167 -2.36405 3.83958 0
M  V30 1811 C 176.829 -2.27691 4.23923 0
M  V30 1812 C 179.181 -2.11043 4.76561 0
M  V30 1813 C 176.509 -1.91719 5.54492 0
M  V30 1814 C 178.861 -1.76578 6.07456 0
M  V30 1815 C 177.525 -1.66363 6.46436 0
M  V30 1816 H 176.795 -0.53047 0.517381 0
M  V30 1817 H 179.442 -0.787655 1.74552 0
M  V30 1818 H 177.747 -3.38461 1.9736 0
M  V30 1819 H 179.444 -3.25452 2.34269 0
M  V30 1820 H 176.034 -2.44085 3.52308 0
M  V30 1821 H 180.218 -2.16717 4.46483 0
M  V30 1822 H 175.474 -1.82367 5.83568 0
M  V30 1823 H 179.648 -1.55974 6.78708 0
M  V30 1824 H 177.275 -1.38258 7.47522 0
M  V30 1825 N 178.85 -1.27639 -0.924453 0
M  V30 1826 C 179.782 -1.06442 -2.02985 0
M  V30 1827 C 180.795 -0.0194771 -1.62788 0
M  V30 1828 O 181.984 -0.261388 -1.76576 0
M  V30 1829 C 179.084 -0.59327 -3.33667 0
M  V30 1830 C 178.257 -1.71123 -4.02537 0
M  V30 1831 C 177.316 -1.23527 -5.11495 0
M  V30 1832 O 176.342 -1.93553 -5.35281 0
M  V30 1833 N 177.544 -0.0926678 -5.80426 0
M  V30 1834 H 180.309 -2.01633 -2.2173 0
M  V30 1835 H 177.87 -1.19248 -1.09505 0
M  V30 1836 H 179.862 -0.258686 -4.03872 0
M  V30 1837 H 178.432 0.265502 -3.1147 0
M  V30 1838 H 177.652 -2.21593 -3.26022 0
M  V30 1839 H 178.94 -2.46145 -4.45298 0
M  V30 1840 H 178.338 0.491741 -5.63559 0
M  V30 1841 H 176.895 0.182714 -6.51544 0
M  V30 1842 N 180.328 1.1314 -1.09713 0
M  V30 1843 C 181.278 2.16709 -0.708593 0
M  V30 1844 C 182.262 1.58471 0.278523 0
M  V30 1845 O 183.454 1.76779 0.088427 0
M  V30 1846 C 180.583 3.43039 -0.133923 0
M  V30 1847 C 179.669 4.08277 -1.14763 0
M  V30 1848 N 180.06 4.48637 -2.33577 0
M  V30 1849 C 178.358 4.34954 -0.986446 0
M  V30 1850 C 179.059 4.9952 -2.98085 0
M  V30 1851 N 178.035 4.94561 -2.25632 0
M  V30 1852 H 181.837 2.45672 -1.61315 0
M  V30 1853 H 179.351 1.29967 -0.973775 0
M  V30 1854 H 181.348 4.16583 0.162465 0
M  V30 1855 H 180.008 3.15549 0.765447 0
M  V30 1856 H 181.019 4.41246 -2.7115 0
M  V30 1857 H 177.696 4.17258 -0.142008 0
M  V30 1858 H 179.086 5.40521 -3.99108 0
M  V30 1859 N 181.806 0.884767 1.30421 0
M  V30 1860 C 182.736 0.367574 2.30589 0
M  V30 1861 C 183.717 -0.549464 1.60981 0
M  V30 1862 O 184.902 -0.46336 1.88591 0
M  V30 1863 C 182.032 -0.418944 3.44764 0
M  V30 1864 C 180.986 0.406316 4.26067 0
M  V30 1865 C 180.312 -0.506793 5.32293 0
M  V30 1866 C 181.612 1.64832 4.95608 0
M  V30 1867 H 183.306 1.20462 2.74097 0
M  V30 1868 H 180.852 0.580695 1.31772 0
M  V30 1869 H 182.805 -0.791395 4.13902 0
M  V30 1870 H 181.529 -1.28964 3.0006 0
M  V30 1871 H 180.188 0.760903 3.58617 0
M  V30 1872 H 179.836 -1.37519 4.83836 0
M  V30 1873 H 179.536 0.0415828 5.87585 0
M  V30 1874 H 181.06 -0.875764 6.04287 0
M  V30 1875 H 182.474 1.34646 5.57264 0
M  V30 1876 H 180.871 2.13688 5.60765 0
M  V30 1877 H 181.941 2.39284 4.21748 0
M  V30 1878 N 183.284 -1.43765 0.645699 0
M  V30 1879 C 184.214 -2.33471 -0.0370477 0
M  V30 1880 C 185.195 -1.49042 -0.819779 0
M  V30 1881 O 186.38 -1.77726 -0.782758 0
M  V30 1882 C 183.51 -3.32311 -1.0093 0
M  V30 1883 C 182.464 -4.2667 -0.337201 0
M  V30 1884 C 181.79 -5.1549 -1.42037 0
M  V30 1885 C 183.09 -5.16657 0.765706 0
M  V30 1886 H 184.784 -2.90809 0.712069 0
M  V30 1887 H 182.33 -1.39834 0.343876 0
M  V30 1888 H 184.283 -3.9396 -1.49578 0
M  V30 1889 H 183.007 -2.73213 -1.78948 0
M  V30 1890 H 181.666 -3.66374 0.128771 0
M  V30 1891 H 181.314 -4.52735 -2.1918 0
M  V30 1892 H 181.014 -5.79438 -0.975966 0
M  V30 1893 H 182.538 -5.80012 -1.90838 0
M  V30 1894 H 183.952 -5.72158 0.361702 0
M  V30 1895 H 182.349 -5.89286 1.13413 0
M  V30 1896 H 183.419 -4.56796 1.62683 0
M  V30 1897 N 184.763 -0.387143 -1.52771 0
M  V30 1898 C 185.713 0.465942 -2.23188 0
M  V30 1899 C 186.697 1.03138 -1.23496 0
M  V30 1900 O 187.889 0.957845 -1.48843 0
M  V30 1901 C 185.018 1.59384 -3.04059 0
M  V30 1902 C 184.104 1.04024 -4.11144 0
M  V30 1903 N 184.495 0.211416 -5.05358 0
M  V30 1904 C 182.793 1.31295 -4.26237 0
M  V30 1905 C 183.494 -0.0941698 -5.81624 0
M  V30 1906 N 182.47 0.509207 -5.4121 0
M  V30 1907 H 186.272 -0.173856 -2.93385 0
M  V30 1908 H 183.786 -0.19633 -1.61209 0
M  V30 1909 H 185.783 2.21738 -3.53041 0
M  V30 1910 H 184.443 2.23648 -2.35397 0
M  V30 1911 H 185.454 -0.151151 -5.17679 0
M  V30 1912 H 182.131 1.95679 -3.68803 0
M  V30 1913 H 183.521 -0.765572 -6.67524 0
M  V30 1914 N 186.241 1.57166 -0.116904 0
M  V30 1915 C 187.469 1.99473 0.549383 0
M  V30 1916 C 187.884 0.996541 1.60357 0
M  V30 1917 O 187.241 -0.0108731 1.82497 0
M  V30 1918 C 187.292 3.41788 1.17741 0
M  V30 1919 O 187.013 4.37788 0.165362 0
M  V30 1920 C 188.514 3.99216 1.92722 0
M  V30 1921 H 185.734 0.655009 0.145616 0
M  V30 1922 H 188.278 2.03494 -0.202625 0
M  V30 1923 H 186.433 3.38713 1.88021 0
M  V30 1924 H 186.847 5.20806 0.621403 0
M  V30 1925 H 188.321 5.00882 2.31995 0
M  V30 1926 H 188.798 3.3824 2.80161 0
M  V30 1927 H 189.404 4.0583 1.27209 0
M  V30 1928 N 187.719 -0.156864 1.56817 0
M  V30 1929 C 188.649 -1.19589 2.00551 0
M  V30 1930 C 189.63 -1.4536 0.883426 0
M  V30 1931 O 190.815 -1.56449 1.15054 0
M  V30 1932 C 187.945 -2.53143 2.37773 0
M  V30 1933 C 186.899 -2.41913 3.53075 0
M  V30 1934 C 186.225 -3.80088 3.76081 0
M  V30 1935 C 187.525 -1.91157 4.86062 0
M  V30 1936 H 189.219 -0.832293 2.87599 0
M  V30 1937 H 186.765 -0.398918 1.38364 0
M  V30 1938 H 188.718 -3.26047 2.66967 0
M  V30 1939 H 187.442 -2.91319 1.4765 0
M  V30 1940 H 186.101 -1.71462 3.24031 0
M  V30 1941 H 185.749 -4.15683 2.83225 0
M  V30 1942 H 185.449 -3.73439 4.53671 0
M  V30 1943 H 186.973 -4.54556 4.0769 0
M  V30 1944 H 188.387 -2.53846 5.14038 0
M  V30 1945 H 186.784 -1.95422 5.67389 0
M  V30 1946 H 187.854 -0.866673 4.77092 0
M  V30 1947 N 189.197 -1.51736 -0.425897 0
M  V30 1948 C 190.145 -1.74464 -1.53834 0
M  V30 1949 C 191.139 -0.611241 -1.57988 0
M  V30 1950 O 192.345 -0.792899 -1.61596 0
M  V30 1951 H 188.72 -0.551437 -0.511293 0
M  V30 1952 H 190.691 -2.67694 -1.31843 0
M  V30 1953 C 189.44 -1.8972 -2.91379 0
M  V30 1954 H 188.763 -2.76344 -2.88919 0
M  V30 1955 H 190.203 -2.09629 -3.68553 0
M  V30 1956 C 188.662 -0.65992 -3.30374 0
M  V30 1957 O 189.192 0.180083 -4.01296 0
M  V30 1958 N 187.398 -0.500677 -2.86254 0
M  V30 1959 H 186.945 -1.18532 -2.28709 0
M  V30 1960 H 186.903 0.325903 -3.12706 0
M  V30 1961 N 190.675 0.682077 -1.42076 0
M  V30 1962 C 191.605 1.80796 -1.47767 0
M  V30 1963 C 192.586 1.6677 -0.334954 0
M  V30 1964 O 193.771 1.863 -0.548264 0
M  V30 1965 C 190.901 3.19038 -1.37229 0
M  V30 1966 C 189.855 3.47789 -2.49453 0
M  V30 1967 C 189.181 4.8553 -2.23975 0
M  V30 1968 C 190.481 3.45411 -3.91776 0
M  V30 1969 H 192.175 1.7629 -2.41997 0
M  V30 1970 H 189.721 0.846721 -1.16476 0
M  V30 1971 H 191.674 3.97528 -1.39821 0
M  V30 1972 H 190.398 3.24204 -0.394907 0
M  V30 1973 H 189.057 2.71657 -2.46166 0
M  V30 1974 H 188.705 4.87337 -1.24547 0
M  V30 1975 H 188.405 5.0573 -2.99184 0
M  V30 1976 H 189.929 5.66312 -2.28304 0
M  V30 1977 H 191.343 4.13882 -3.96705 0
M  V30 1978 H 189.74 3.77145 -4.66778 0
M  V30 1979 H 190.81 2.44122 -4.18966 0
M  V30 1980 N 192.153 1.28127 0.917671 0
M  V30 1981 C 193.564 1.13622 1.48145 0
M  V30 1982 C 193.915 -0.275207 1.9426 0
M  V30 1983 O 193.04 -1.1691 1.82102 0
M  V30 1984 C 193.635 2.05648 2.69248 0
M  V30 1985 C 192.194 1.95219 3.21818 0
M  V30 1986 C 191.341 1.97618 1.94532 0
M  V30 1987 H 194.292 1.40874 0.730772 0
M  V30 1988 H 194.313 1.61818 3.44377 0
M  V30 1989 H 193.825 3.08365 2.35653 0
M  V30 1990 H 191.926 0.955244 3.60147 0
M  V30 1991 H 192.039 2.81976 3.87333 0
M  V30 1992 H 190.403 1.41973 2.11461 0
M  V30 1993 H 191.186 3.02007 1.63238 0
M  V30 1994 N 193.631 -1.12557 1.10312 0
M  V30 1995 C 194.879 -1.83675 0.843091 0
M  V30 1996 C 195.2 -1.84435 -0.633131 0
M  V30 1997 O 194.47 -1.30657 -1.45964 0
M  V30 1998 H 193.05 -0.680138 0.308904 0
M  V30 1999 H 195.712 -1.36301 1.39313 0
M  V30 2000 H 194.808 -2.87908 1.2048 0
M  V30 2001 N 195.109 -0.891671 -1.2995 0
M  V30 2002 C 196.059 -0.334811 -2.25528 0
M  V30 2003 C 197.043 0.540553 -1.51548 0
M  V30 2004 O 198.235 0.383882 -1.72787 0
M  V30 2005 C 195.364 0.44374 -3.4042 0
M  V30 2006 C 194.45 -0.44609 -4.21747 0
M  V30 2007 N 194.841 -1.54963 -4.81477 0
M  V30 2008 C 193.139 -0.242415 -4.45341 0
M  V30 2009 C 193.84 -2.10015 -5.42465 0
M  V30 2010 N 192.816 -1.39423 -5.25416 0
M  V30 2011 H 196.618 -1.17792 -2.69262 0
M  V30 2012 H 194.132 -0.741822 -1.44467 0
M  V30 2013 H 196.129 0.859362 -4.07947 0
M  V30 2014 H 194.789 1.28421 -2.98225 0
M  V30 2015 H 195.8 -1.93244 -4.80497 0
M  V30 2016 H 192.477 0.560342 -4.13723 0
M  V30 2017 H 193.867 -3.02724 -5.9984 0
M  V30 2018 N 196.587 1.43421 -0.653314 0
M  V30 2019 C 197.835 2.01414 -0.166415 0
M  V30 2020 C 198.156 1.51803 1.22397 0
M  V30 2021 O 197.426 0.730693 1.81763 0
M  V30 2022 H 196.006 0.744703 -0.0585319 0
M  V30 2023 H 198.668 1.75629 -0.845003 0
M  V30 2024 H 197.764 3.11734 -0.151111 0
M  V30 2025 N 198.065 0.39524 1.52563 0
M  V30 2026 C 198.995 -0.428384 2.29537 0
M  V30 2027 C 199.976 -1.05831 1.33169 0
M  V30 2028 O 201.161 -1.06995 1.62067 0
M  V30 2029 C 198.291 -1.55274 3.10656 0
M  V30 2030 C 197.245 -1.04855 4.14957 0
M  V30 2031 C 196.571 -2.26543 4.84337 0
M  V30 2032 C 197.871 -0.112324 5.22179 0
M  V30 2033 H 199.565 0.213867 2.98635 0
M  V30 2034 H 197.111 0.104298 1.43622 0
M  V30 2035 H 199.064 -2.1358 3.63265 0
M  V30 2036 H 197.788 -2.22266 2.39302 0
M  V30 2037 H 196.447 -0.487985 3.63338 0
M  V30 2038 H 196.095 -2.92059 4.09525 0
M  V30 2039 H 195.795 -1.93466 5.54837 0
M  V30 2040 H 197.319 -2.85481 5.39753 0
M  V30 2041 H 198.733 -0.603752 5.70112 0
M  V30 2042 H 197.13 0.128968 5.99961 0
M  V30 2043 H 198.2 0.837052 4.77621 0
M  V30 2044 N 199.544 -1.57102 0.125237 0
M  V30 2045 C 200.454 -2.19191 -0.8362 0
M  V30 2046 C 201.47 -1.16985 -1.28805 0
M  V30 2047 O 202.646 -1.49479 -1.34974 0
M  V30 2048 C 199.711 -2.78407 -2.06617 0
M  V30 2049 C 198.772 -3.9567 -1.66565 0
M  V30 2050 C 198.005 -4.52052 -2.83698 0
M  V30 2051 O 198.228 -4.07326 -3.99302 0
M  V30 2052 O 197.162 -5.42645 -2.60423 0
M  V30 2053 H 200.988 -3.01816 -0.337776 0
M  V30 2054 H 198.573 -1.4906 -0.100695 0
M  V30 2055 H 200.455 -3.16129 -2.7864 0
M  V30 2056 H 199.13 -1.9881 -2.55453 0
M  V30 2057 H 198.037 -3.62705 -0.916296 0
M  V30 2058 H 199.37 -4.76722 -1.22464 0
M  V30 2059 N 201.022 0.148545 -1.56898 0
M  V30 2060 C 202.25 0.876389 -1.87422 0
M  V30 2061 C 202.665 1.74809 -0.713256 0
M  V30 2062 O 202.022 1.79725 0.317025 0
M  V30 2063 C 202.073 1.73438 -3.17178 0
M  V30 2064 O 201.794 0.897809 -4.28802 0
M  V30 2065 C 203.295 2.56993 -3.61205 0
M  V30 2066 H 200.515 0.253489 -0.621277 0
M  V30 2067 H 203.059 0.141798 -2.04008 0
M  V30 2068 H 201.214 2.42205 -3.0235 0
M  V30 2069 H 201.628 1.48672 -5.02988 0
M  V30 2070 H 203.102 3.12773 -4.54838 0
M  V30 2071 H 203.579 3.32958 -2.86419 0
M  V30 2072 H 204.185 1.9352 -3.78722 0
M  V30 2073 N 202.5 1.5196 0.417844 0
M  V30 2074 C 203.916 1.40569 0.755816 0
M  V30 2075 C 204.116 0.503316 1.95113 0
M  V30 2076 O 203.172 -0.0341925 2.52477 0
M  V30 2077 C 204.485 2.82947 1.01791 0
M  V30 2078 C 206.033 2.92231 1.12116 0
M  V30 2079 C 206.508 4.35559 1.41608 0
M  V30 2080 N 207.999 4.38753 1.48491 0
M  V30 2081 C 208.734 5.46705 1.7292 0
M  V30 2082 N 208.23 6.64788 1.95011 0
M  V30 2083 N 210.023 5.34209 1.74863 0
M  V30 2084 H 202.174 2.09168 -0.369098 0
M  V30 2085 H 204.437 0.942409 -0.102809 0
M  V30 2086 H 204.143 3.5106 0.212081 0
M  V30 2087 H 204.017 3.23462 1.94042 0
M  V30 2088 H 206.404 2.24304 1.9176 0
M  V30 2089 H 206.485 2.55185 0.177225 0
M  V30 2090 H 206.129 5.04042 0.624848 0
M  V30 2091 H 206.059 4.70133 2.37239 0
M  V30 2092 H 208.55 3.5363 1.33244 0
M  V30 2093 H 208.863 7.42845 2.13076 0
M  V30 2094 H 207.208 6.67869 1.92293 0
M  V30 2095 H 210.399 4.40937 1.57137 0
M  V30 2096 H 210.572 6.18415 1.93563 0
M  V30 2097 N 203.978 -0.674533 1.42435 0
M  V30 2098 C 205.224 -1.43671 1.43131 0
M  V30 2099 C 205.557 -1.94142 0.0476021 0
M  V30 2100 O 204.832 -1.70924 -0.928188 0
M  V30 2101 C 205.115 -2.63355 2.45594 0
M  V30 2102 C 204.968 -2.18514 3.93156 0
M  V30 2103 C 206.287 -3.65571 2.45043 0
M  V30 2104 H 203.406 -0.521077 0.521198 0
M  V30 2105 H 206.048 -0.766551 1.7385 0
M  V30 2106 H 204.198 -3.2053 2.19528 0
M  V30 2107 H 205.87 -1.66504 4.30202 0
M  V30 2108 H 204.113 -1.50086 4.07009 0
M  V30 2109 H 204.784 -3.04484 4.60428 0
M  V30 2110 H 207.26 -3.18113 2.68223 0
M  V30 2111 H 206.136 -4.46893 3.18713 0
M  V30 2112 H 206.397 -4.16716 1.47649 0
M  V30 2113 N 205.456 -1.28612 -0.910864 0
M  V30 2114 C 206.704 -1.15705 -1.65701 0
M  V30 2115 C 207.025 0.29416 -1.92769 0
M  V30 2116 O 206.295 1.20331 -1.54588 0
M  V30 2117 H 204.875 -0.425216 -0.614167 0
M  V30 2118 H 207.537 -1.61381 -1.0928 0
M  V30 2119 H 206.633 -1.6988 -2.61815 0
M  V30 2120 N 206.934 1.1197 -1.10907 0
M  V30 2121 C 208.159 1.87942 -0.877064 0
M  V30 2122 C 208.584 1.79341 0.567314 0
M  V30 2123 O 207.942 1.15184 1.40009 0
M  V30 2124 C 207.99 3.34926 -1.33629 0
M  V30 2125 O 207.094 4.09303 -0.504447 0
M  V30 2126 H 206.435 0.583785 -0.316371 0
M  V30 2127 H 208.965 1.4157 -1.47712 0
M  V30 2128 H 208.975 3.8577 -1.32837 0
M  V30 2129 H 207.65 3.40504 -2.3881 0
M  V30 2130 H 206.227 3.68393 -0.577993 0
M  V30 2131 N 208.412 0.89855 1.29475 0
M  V30 2132 C 209.375 0.380272 2.26023 0
M  V30 2133 C 210.375 -0.484891 1.53315 0
M  V30 2134 O 211.565 -0.290108 1.71767 0
M  V30 2135 C 208.697 -0.45651 3.3783 0
M  V30 2136 H 209.89 1.23295 2.73383 0
M  V30 2137 H 207.443 0.676589 1.40897 0
M  V30 2138 H 208.178 -1.32922 2.95808 0
M  V30 2139 H 207.963 0.163393 3.91759 0
M  V30 2140 H 209.453 -0.810466 4.0966 0
M  V30 2141 N 209.89 -1.43072 0.660911 0
M  V30 2142 C 210.82 -2.33497 -0.0122829 0
M  V30 2143 C 211.801 -1.49903 -0.803925 0
M  V30 2144 O 212.986 -1.78546 -0.763864 0
M  V30 2145 C 210.116 -3.33363 -0.973994 0
M  V30 2146 C 209.07 -4.27003 -0.291928 0
M  V30 2147 C 208.396 -5.16967 -1.36562 0
M  V30 2148 C 209.696 -5.15816 0.820462 0
M  V30 2149 H 211.39 -2.90038 0.742873 0
M  V30 2150 H 208.936 -1.39461 0.358688 0
M  V30 2151 H 210.889 -3.95524 -1.45392 0
M  V30 2152 H 209.613 -2.75095 -1.7604 0
M  V30 2153 H 208.272 -3.66217 0.167623 0
M  V30 2154 H 207.92 -4.55034 -2.14366 0
M  V30 2155 H 207.62 -5.80441 -0.914454 0
M  V30 2156 H 209.144 -5.82003 -1.84675 0
M  V30 2157 H 210.558 -5.71742 0.422366 0
M  V30 2158 H 208.955 -5.8805 1.19656 0
M  V30 2159 H 210.025 -4.55045 1.67518 0
M  V30 2160 N 211.368 -0.403325 -1.52352 0
M  V30 2161 C 212.615 0.174347 -2.01748 0
M  V30 2162 C 212.943 1.45636 -1.2892 0
M  V30 2163 O 212.198 1.9193 -0.382258 0
M  V30 2164 C 212.497 0.474665 -3.54234 0
M  V30 2165 C 212.163 -0.717458 -4.45155 0
M  V30 2166 C 210.825 -1.04447 -4.69728 0
M  V30 2167 C 213.177 -1.51432 -4.98716 0
M  V30 2168 C 210.505 -2.16963 -5.45109 0
M  V30 2169 C 212.857 -2.6302 -5.75329 0
M  V30 2170 C 211.521 -2.96213 -5.98175 0
M  V30 2171 H 210.791 0.0637981 -0.738248 0
M  V30 2172 H 213.438 -0.543553 -1.83624 0
M  V30 2173 H 211.743 1.27406 -3.70506 0
M  V30 2174 H 213.44 0.934496 -3.89959 0
M  V30 2175 H 210.03 -0.452596 -4.26204 0
M  V30 2176 H 214.214 -1.27491 -4.79645 0
M  V30 2177 H 209.47 -2.43034 -5.61021 0
M  V30 2178 H 213.644 -3.25158 -6.15829 0
M  V30 2179 H 211.271 -3.83516 -6.56368 0
M  V30 2180 N 212.846 1.57033 -0.133567 0
M  V30 2181 C 213.776 2.1909 0.807567 0
M  V30 2182 C 214.757 1.13517 1.26681 0
M  V30 2183 O 215.942 1.41809 1.32679 0
M  V30 2184 C 213.072 2.80188 2.05212 0
M  V30 2185 C 212.026 3.91471 1.73015 0
M  V30 2186 C 211.352 4.39443 3.04622 0
M  V30 2187 C 212.652 5.12886 0.987168 0
M  V30 2188 H 214.346 2.97988 0.290403 0
M  V30 2189 H 211.892 1.43335 0.138239 0
M  V30 2190 H 213.845 3.22264 2.71521 0
M  V30 2191 H 212.569 1.98601 2.59278 0
M  V30 2192 H 211.228 3.49993 1.0909 0
M  V30 2193 H 210.876 3.54695 3.56651 0
M  V30 2194 H 210.576 5.14495 2.83847 0
M  V30 2195 H 212.1 4.8418 3.72024 0
M  V30 2196 H 213.514 5.51891 1.55208 0
M  V30 2197 H 211.911 5.93615 0.87985 0
M  V30 2198 H 212.981 4.84894 -0.0235286 0
M  V30 2199 N 214.325 -0.140222 1.56975 0
M  V30 2200 C 215.55 -0.870414 1.88251 0
M  V30 2201 C 215.975 -1.73637 0.723312 0
M  V30 2202 O 215.333 -1.78329 -0.32689 0
M  V30 2203 C 215.381 -1.69737 3.18154 0
M  V30 2204 O 214.485 -2.80229 3.02565 0
M  V30 2205 H 213.826 -0.242025 0.61832 0
M  V30 2206 H 216.356 -0.128999 2.04193 0
M  V30 2207 H 216.366 -2.09099 3.50345 0
M  V30 2208 H 215.041 -1.06152 4.02125 0
M  V30 2209 H 213.618 -2.44224 2.81796 0
M  V30 2210 N 215.803 -1.52179 -0.40978 0
M  V30 2211 C 216.753 -1.71857 -1.49831 0
M  V30 2212 C 217.737 -0.572469 -1.50372 0
M  V30 2213 O 218.929 -0.829509 -1.56359 0
M  V30 2214 C 216.058 -1.87206 -2.87765 0
M  V30 2215 C 215.144 -3.07685 -2.91875 0
M  V30 2216 N 215.535 -4.30403 -2.65683 0
M  V30 2217 C 213.833 -3.07505 -3.23043 0
M  V30 2218 C 214.534 -5.11868 -2.76344 0
M  V30 2219 N 213.51 -4.47101 -3.09195 0
M  V30 2220 H 217.312 -2.64381 -1.28375 0
M  V30 2221 H 214.826 -1.50203 -0.617479 0
M  V30 2222 H 216.823 -1.99419 -3.66111 0
M  V30 2223 H 215.483 -0.958814 -3.10221 0
M  V30 2224 H 216.494 -4.58887 -2.4009 0
M  V30 2225 H 213.171 -2.25915 -3.51096 0
M  V30 2226 H 214.561 -6.19634 -2.59814 0
M  V30 2227 N 217.281 0.66697 -1.42791 0
M  V30 2228 C 218.229 1.80157 -1.47127 0
M  V30 2229 C 219.223 1.65825 -0.346199 0
M  V30 2230 O 220.429 1.72338 -0.519572 0
M  V30 2231 H 216.804 0.594158 -0.460956 0
M  V30 2232 H 218.775 1.73619 -2.42692 0
M  V30 2233 C 217.524 3.18351 -1.39813 0
M  V30 2234 H 216.847 3.3001 -2.25684 0
M  V30 2235 H 218.287 3.97736 -1.46908 0
M  V30 2236 C 216.746 3.36707 -0.11391 0
M  V30 2237 O 217.276 3.93027 0.830241 0
M  V30 2238 N 215.482 2.90586 -0.0285295 0
M  V30 2239 H 215.029 2.4494 -0.79764 0
M  V30 2240 H 214.987 3.03245 0.830063 0
M  V30 2241 N 218.759 1.29093 0.90403 0
M  V30 2242 C 219.689 1.16401 2.02418 0
M  V30 2243 C 220.67 0.0593085 1.69997 0
M  V30 2244 O 221.855 0.238021 1.92736 0
M  V30 2245 C 218.985 0.835233 3.37107 0
M  V30 2246 C 217.939 1.89578 3.83724 0
M  V30 2247 C 217.265 1.42041 5.15489 0
M  V30 2248 C 218.565 3.30394 4.04521 0
M  V30 2249 H 220.259 2.10109 2.13295 0
M  V30 2250 H 217.805 1.01157 1.02486 0
M  V30 2251 H 219.758 0.733169 4.14973 0
M  V30 2252 H 218.482 -0.137543 3.2631 0
M  V30 2253 H 217.141 1.98715 3.08071 0
M  V30 2254 H 216.789 0.436426 5.01103 0
M  V30 2255 H 216.489 2.12964 5.4765 0
M  V30 2256 H 218.013 1.33176 5.959 0
M  V30 2257 H 219.427 3.24123 4.72882 0
M  V30 2258 H 217.824 3.99237 4.48029 0
M  V30 2259 H 218.894 3.73692 3.09002 0
M  V30 2260 N 220.237 -1.11381 1.11499 0
M  V30 2261 C 221.184 -2.17439 0.773887 0
M  V30 2262 C 222.154 -1.64132 -0.254899 0
M  V30 2263 O 223.339 -1.90345 -0.13168 0
M  V30 2264 C 220.479 -3.44373 0.223917 0
M  V30 2265 C 219.592 -4.1168 1.30934 0
M  V30 2266 C 218.727 -5.263 0.71984 0
M  V30 2267 C 217.766 -5.85493 1.78507 0
M  V30 2268 N 216.903 -6.91507 1.21502 0
M  V30 2269 H 221.743 -2.45962 1.68246 0
M  V30 2270 H 219.28 -1.20744 0.840191 0
M  V30 2271 H 221.238 -4.17047 -0.112921 0
M  V30 2272 H 219.868 -3.16232 -0.647851 0
M  V30 2273 H 218.92 -3.37073 1.76312 0
M  V30 2274 H 220.232 -4.51729 2.11524 0
M  V30 2275 H 219.386 -6.05785 0.333094 0
M  V30 2276 H 218.125 -4.87559 -0.117377 0
M  V30 2277 H 217.13 -5.04686 2.18111 0
M  V30 2278 H 218.355 -6.26301 2.62533 0
M  V30 2279 H 216.301 -6.54783 0.399455 0
M  V30 2280 H 216.218 -7.30214 1.95763 0
M  V30 2281 H 217.486 -7.74795 0.855181 0
M  V30 2282 N 221.715 -0.905404 -1.28997 0
M  V30 2283 C 222.962 -0.534248 -1.95325 0
M  V30 2284 C 223.29 0.920535 -1.71337 0
M  V30 2285 O 222.545 1.66861 -1.02254 0
M  V30 2286 C 222.844 -0.779906 -3.48787 0
M  V30 2287 C 222.51 -2.21293 -3.92861 0
M  V30 2288 C 221.172 -2.60475 -4.04606 0
M  V30 2289 C 223.524 -3.14587 -4.15553 0
M  V30 2290 C 220.852 -3.9212 -4.36416 0
M  V30 2291 C 223.204 -4.45787 -4.48839 0
M  V30 2292 C 221.868 -4.84834 -4.58794 0
M  V30 2293 H 221.138 -0.195495 -0.714747 0
M  V30 2294 H 223.785 -1.14514 -1.53488 0
M  V30 2295 H 222.09 -0.0861365 -3.91705 0
M  V30 2296 H 223.787 -0.472029 -3.98212 0
M  V30 2297 H 220.377 -1.89887 -3.84241 0
M  V30 2298 H 224.561 -2.85528 -4.0594 0
M  V30 2299 H 219.817 -4.22086 -4.42327 0
M  V30 2300 H 223.991 -5.18098 -4.65346 0
M  V30 2301 H 221.618 -5.86877 -4.83197 0
M  V30 2302 N 223.193 1.4272 -0.668489 0
M  V30 2303 C 224.123 2.335 -0.000100175 0
M  V30 2304 C 225.104 1.50328 0.795964 0
M  V30 2305 O 226.289 1.78949 0.754385 0
M  V30 2306 C 223.419 3.33874 0.956302 0
M  V30 2307 C 222.373 4.27152 0.269278 0
M  V30 2308 C 221.699 5.17684 1.33818 0
M  V30 2309 C 222.999 5.15373 -0.847805 0
M  V30 2310 H 224.693 2.89639 -0.758244 0
M  V30 2311 H 222.239 1.39269 -0.366079 0
M  V30 2312 H 224.192 3.9629 1.43292 0
M  V30 2313 H 222.916 2.76025 1.74579 0
M  V30 2314 H 221.575 3.66123 -0.187042 0
M  V30 2315 H 221.223 4.56165 2.1195 0
M  V30 2316 H 220.923 5.80918 0.883659 0
M  V30 2317 H 222.447 5.82974 1.81586 0
M  V30 2318 H 223.861 5.7151 -0.452681 0
M  V30 2319 H 222.258 5.87407 -1.22773 0
M  V30 2320 H 223.328 4.5415 -1.69929 0
M  V30 2321 N 224.671 0.411399 1.52136 0
M  V30 2322 C 225.634 -0.401089 2.25663 0
M  V30 2323 C 226.634 -0.971732 1.28117 0
M  V30 2324 O 227.824 -0.850254 1.52041 0
M  V30 2325 C 224.956 -1.56483 3.02863 0
M  V30 2326 H 226.149 0.24295 2.98914 0
M  V30 2327 H 223.702 0.163968 1.55438 0
M  V30 2328 H 224.437 -2.24567 2.33967 0
M  V30 2329 H 224.222 -1.16211 3.74483 0
M  V30 2330 H 225.712 -2.13951 3.58629 0
M  V30 2331 N 226.149 -1.5696 0.141893 0
M  V30 2332 C 227.096 -2.16501 -0.799737 0
M  V30 2333 C 228.066 -1.09643 -1.24771 0
M  V30 2334 O 229.251 -1.3766 -1.32115 0
M  V30 2335 C 226.391 -2.78679 -2.03549 0
M  V30 2336 C 225.504 -3.99914 -1.6338 0
M  V30 2337 C 224.639 -4.50106 -2.82096 0
M  V30 2338 C 223.678 -5.63819 -2.38275 0
M  V30 2339 N 222.815 -6.08651 -3.49983 0
M  V30 2340 H 227.655 -2.96632 -0.285179 0
M  V30 2341 H 225.192 -1.46533 -0.129053 0
M  V30 2342 H 227.15 -3.1287 -2.75986 0
M  V30 2343 H 225.78 -2.012 -2.52425 0
M  V30 2344 H 224.832 -3.71735 -0.807279 0
M  V30 2345 H 226.144 -4.82311 -1.27192 0
M  V30 2346 H 225.298 -4.86325 -3.62729 0
M  V30 2347 H 224.037 -3.66706 -3.21525 0
M  V30 2348 H 223.042 -5.2718 -1.56081 0
M  V30 2349 H 224.267 -6.49 -1.99938 0
M  V30 2350 H 222.213 -5.28188 -3.89042 0
M  V30 2351 H 222.13 -6.85961 -3.17794 0
M  V30 2352 H 223.398 -6.49515 -4.30988 0
M  V30 2353 N 227.627 0.131896 -1.57047 0
M  V30 2354 C 228.874 0.841932 -1.84168 0
M  V30 2355 C 229.202 1.8048 -0.725066 0
M  V30 2356 O 228.457 1.93618 0.284692 0
M  V30 2357 C 228.756 1.63703 -3.17704 0
M  V30 2358 C 228.422 0.81961 -4.43388 0
M  V30 2359 C 227.084 0.594148 -4.77518 0
M  V30 2360 C 229.436 0.248977 -5.20605 0
M  V30 2361 C 226.764 -0.212409 -5.86315 0
M  V30 2362 C 229.116 -0.544701 -6.30251 0
M  V30 2363 C 227.78 -0.780599 -6.6292 0
M  V30 2364 H 227.05 0.308085 -0.673917 0
M  V30 2365 H 229.697 0.104867 -1.91213 0
M  V30 2366 H 228.002 2.44464 -3.06177 0
M  V30 2367 H 229.699 2.19015 -3.35907 0
M  V30 2368 H 226.289 1.00542 -4.16641 0
M  V30 2369 H 230.473 0.410408 -4.946 0
M  V30 2370 H 225.729 -0.404524 -6.1006 0
M  V30 2371 H 229.903 -0.993922 -6.89271 0
M  V30 2372 H 227.53 -1.40742 -7.47058 0
M  V30 2373 N 229.106 1.52395 0.401703 0
M  V30 2374 C 230.036 1.79231 1.49661 0
M  V30 2375 C 231.017 0.643654 1.57452 0
M  V30 2376 O 232.202 0.889989 1.72606 0
M  V30 2377 C 229.332 1.94971 2.87409 0
M  V30 2378 C 228.286 3.10604 2.94465 0
M  V30 2379 C 227.612 3.11577 4.34538 0
M  V30 2380 C 228.912 4.49921 2.6527 0
M  V30 2381 H 230.606 2.70917 1.27454 0
M  V30 2382 H 228.152 1.30362 0.6117 0
M  V30 2383 H 230.105 2.12328 3.63999 0
M  V30 2384 H 228.829 0.999632 3.10926 0
M  V30 2385 H 227.488 2.93009 2.20321 0
M  V30 2386 H 227.136 2.14277 4.55076 0
M  V30 2387 H 226.836 3.89247 4.40183 0
M  V30 2388 H 228.36 3.31073 5.13053 0
M  V30 2389 H 229.774 4.67683 3.31581 0
M  V30 2390 H 228.171 5.29564 2.82281 0
M  V30 2391 H 229.241 4.57507 1.60671 0
M  V30 2392 N 230.584 -0.659388 1.43143 0
M  V30 2393 C 231.532 -1.79374 1.4808 0
M  V30 2394 C 232.526 -1.65639 0.354988 0
M  V30 2395 O 233.732 -1.7206 0.528704 0
M  V30 2396 H 230.107 -0.591705 0.4641 0
M  V30 2397 H 232.078 -1.72329 2.43609 0
M  V30 2398 C 230.827 -3.17606 1.41499 0
M  V30 2399 H 230.15 -3.28809 2.27431 0
M  V30 2400 H 231.59 -3.96951 1.49015 0
M  V30 2401 C 230.049 -3.36642 0.131765 0
M  V30 2402 O 230.579 -3.93461 -0.809386 0
M  V30 2403 N 228.785 -2.90567 0.0439396 0
M  V30 2404 H 228.332 -2.44513 0.810619 0
M  V30 2405 H 228.29 -3.03681 -0.813969 0
M  V30 2406 N 232.062 -1.29571 -0.897171 0
M  V30 2407 C 233.339 -1.08365 -1.62839 0
M  V30 2408 C 233.719 0.371331 -2.07808 0
M  V30 2409 O 233.067 1.3606 -1.83576 0
M  V30 2410 C 233.277 -2.0735 -2.80726 0
M  V30 2411 C 234.625 -2.38406 -3.51351 0
M  V30 2412 O 235.649 -2.05564 -2.90898 0
M  V30 2413 O 234.508 -2.9453 -4.60341 0
M  V30 2414 H 231.602 -0.415345 -0.715134 0
M  V30 2415 H 234.148 -1.40952 -0.945018 0
M  V30 2416 H 232.92 -3.05339 -2.44711 0
M  V30 2417 H 232.543 -1.75507 -3.56767 0
M  V30 2418 N 233.54 1.10788 -1.12088 0
M  V30 2419 C 234.768 1.86461 -0.896651 0
M  V30 2420 C 235.183 1.80492 0.553912 0
M  V30 2421 O 234.54 1.19102 1.38278 0
M  V30 2422 C 234.591 3.35006 -1.35843 0
M  V30 2423 O 234.312 3.40866 -2.75213 0
M  V30 2424 C 235.813 4.27565 -1.1706 0
M  V30 2425 H 233.033 0.589425 -0.320654 0
M  V30 2426 H 235.577 1.40076 -1.48993 0
M  V30 2427 H 233.732 3.7887 -0.808458 0
M  V30 2428 H 234.146 4.33411 -2.9539 0
M  V30 2429 H 235.62 5.30007 -1.54263 0
M  V30 2430 H 236.097 4.3906 -0.110814 0
M  V30 2431 H 236.703 3.89501 -1.70789 0
M  V30 2432 N 235.018 0.912232 1.28515 0
M  V30 2433 C 235.951 0.343928 2.25593 0
M  V30 2434 C 236.929 -0.550994 1.5298 0
M  V30 2435 O 238.113 -0.494991 1.81885 0
M  V30 2436 C 235.24 -0.508525 3.34861 0
M  V30 2437 C 234.286 0.320808 4.25292 0
M  V30 2438 S 235.119 1.72658 5.06902 0
M  V30 2439 C 236.275 0.881394 6.19663 0
M  V30 2440 H 236.508 1.16674 2.73449 0
M  V30 2441 H 234.041 0.713384 1.36931 0
M  V30 2442 H 235.999 -0.994539 3.9827 0
M  V30 2443 H 234.66 -1.30571 2.85675 0
M  V30 2444 H 233.853 -0.330941 5.02912 0
M  V30 2445 H 233.455 0.74042 3.66598 0
M  V30 2446 H 235.747 0.110359 6.7741 0
M  V30 2447 H 236.69 1.63009 6.89082 0
M  V30 2448 H 237.098 0.430239 5.62858 0
M  V30 2449 N 236.496 -1.42363 0.676048 0
M  V30 2450 C 237.459 -2.29199 0.00766941 0
M  V30 2451 C 238.459 -1.43389 -0.727745 0
M  V30 2452 O 239.649 -1.64764 -0.56556 0
M  V30 2453 C 236.781 -3.2591 -0.999785 0
M  V30 2454 H 237.974 -2.89794 0.771988 0
M  V30 2455 H 235.527 -1.50024 0.438468 0
M  V30 2456 H 236.262 -2.70256 -1.79255 0
M  V30 2457 H 236.047 -3.89202 -0.475829 0
M  V30 2458 H 237.537 -3.91028 -1.46583 0
M  V30 2459 N 237.974 -0.419461 -1.51915 0
M  V30 2460 C 239.22 0.153166 -2.02221 0
M  V30 2461 C 239.553 1.43907 -1.30401 0
M  V30 2462 O 238.828 1.90055 -0.413438 0
M  V30 2463 C 239.111 0.390291 -3.57979 0
M  V30 2464 C 238.964 -0.913014 -4.40436 0
M  V30 2465 C 240.283 1.16794 -4.2432 0
M  V30 2466 H 237.402 0.0541924 -0.735005 0
M  V30 2467 H 240.044 -0.554955 -1.81715 0
M  V30 2468 H 238.194 0.993491 -3.75582 0
M  V30 2469 H 239.866 -1.54882 -4.34522 0
M  V30 2470 H 238.109 -1.52168 -4.06236 0
M  V30 2471 H 238.78 -0.701361 -5.47526 0
M  V30 2472 H 241.256 0.657161 -4.10878 0
M  V30 2473 H 240.132 1.3026 -5.3322 0
M  V30 2474 H 240.393 2.19132 -3.83971 0
M  V30 2475 N 239.452 1.56882 -0.150215 0
M  V30 2476 C 240.682 2.00302 0.506213 0
M  V30 2477 C 241.09 1.02934 1.58749 0
M  V30 2478 O 240.433 0.0188384 1.8369 0
M  V30 2479 C 240.495 3.40156 1.16337 0
M  V30 2480 C 240.159 4.56439 0.226311 0
M  V30 2481 C 241.156 5.17012 -0.547265 0
M  V30 2482 C 238.841 5.02136 0.128279 0
M  V30 2483 C 240.835 6.21693 -1.40629 0
M  V30 2484 C 238.522 6.06672 -0.734345 0
M  V30 2485 C 239.52 6.6632 -1.50023 0
M  V30 2486 O 239.208 7.68831 -2.34848 0
M  V30 2487 H 238.94 0.662182 0.135984 0
M  V30 2488 H 241.494 2.03961 -0.242746 0
M  V30 2489 H 239.724 3.33346 1.96004 0
M  V30 2490 H 241.413 3.67663 1.71985 0
M  V30 2491 H 242.179 4.82603 -0.48158 0
M  V30 2492 H 238.058 4.55435 0.714157 0
M  V30 2493 H 241.602 6.68179 -2.00455 0
M  V30 2494 H 237.499 6.40507 -0.801309 0
M  V30 2495 H 238.267 7.86065 -2.28131 0
M  V30 2496 N 240.93 -0.123565 1.57115 0
M  V30 2497 C 241.84 -1.17074 2.033 0
M  V30 2498 C 242.856 -1.4561 0.952559 0
M  V30 2499 O 244.032 -1.56817 1.26374 0
M  V30 2500 C 241.097 -2.47857 2.42421 0
M  V30 2501 C 240.158 -2.26758 3.64526 0
M  V30 2502 C 239.391 -3.51305 4.01771 0
M  V30 2503 O 239.614 -4.5843 3.39409 0
M  V30 2504 O 238.548 -3.42578 4.94898 0
M  V30 2505 H 242.374 -0.808555 2.92739 0
M  V30 2506 H 239.959 -0.334027 1.45618 0
M  V30 2507 H 241.841 -3.2492 2.68338 0
M  V30 2508 H 240.516 -2.83558 1.5613 0
M  V30 2509 H 239.423 -1.47569 3.43765 0
M  V30 2510 H 240.756 -1.95963 4.51508 0
M  V30 2511 N 242.408 -1.52605 -0.393616 0
M  V30 2512 C 243.371 -1.76415 -1.46323 0
M  V30 2513 C 244.371 -0.634126 -1.47768 0
M  V30 2514 O 245.561 -0.902142 -1.4902 0
M  V30 2515 C 242.693 -1.8607 -2.85641 0
M  V30 2516 H 243.886 -2.71916 -1.26498 0
M  V30 2517 H 241.439 -1.43257 -0.625073 0
M  V30 2518 H 242.174 -0.925378 -3.10817 0
M  V30 2519 H 241.959 -2.68235 -2.85993 0
M  V30 2520 H 243.449 -2.06179 -3.63153 0
M  V30 2521 N 243.887 0.651787 -1.4349 0
M  V30 2522 C 244.834 1.76462 -1.4876 0
M  V30 2523 C 245.804 1.62641 -0.337189 0
M  V30 2524 O 246.989 1.82864 -0.544544 0
M  V30 2525 C 244.129 3.14623 -1.41796 0
M  V30 2526 C 243.242 3.39568 -2.67053 0
M  V30 2527 C 242.377 4.67585 -2.52068 0
M  V30 2528 C 241.416 4.85639 -3.72587 0
M  V30 2529 N 240.553 6.04915 -3.56402 0
M  V30 2530 H 245.393 1.71293 -2.43849 0
M  V30 2531 H 242.93 0.835889 -1.21043 0
M  V30 2532 H 244.888 3.94496 -1.35753 0
M  V30 2533 H 243.518 3.18859 -0.50288 0
M  V30 2534 H 242.57 2.53783 -2.8337 0
M  V30 2535 H 243.882 3.48795 -3.56572 0
M  V30 2536 H 243.036 5.55586 -2.4374 0
M  V30 2537 H 241.775 4.60681 -1.60075 0
M  V30 2538 H 240.78 3.96073 -3.81321 0
M  V30 2539 H 242.005 4.94372 -4.65589 0
M  V30 2540 H 239.951 5.9914 -2.67146 0
M  V30 2541 H 239.868 6.15106 -4.39524 0
M  V30 2542 H 241.136 6.95533 -3.51929 0
M  V30 2543 N 245.365 1.30045 0.890287 0
M  V30 2544 C 246.295 1.18541 2.01172 0
M  V30 2545 C 247.276 0.0773356 1.69924 0
M  V30 2546 O 248.461 0.25845 1.92473 0
M  V30 2547 C 245.591 0.870941 3.36202 0
M  V30 2548 C 244.545 1.93637 3.81692 0
M  V30 2549 C 243.871 1.475 5.13953 0
M  V30 2550 C 245.171 3.34666 4.00994 0
M  V30 2551 H 246.865 2.12359 2.11054 0
M  V30 2552 H 244.411 1.02238 1.01407 0
M  V30 2553 H 246.364 0.777141 4.14172 0
M  V30 2554 H 245.088 -0.102926 3.26438 0
M  V30 2555 H 243.747 2.01972 3.05946 0
M  V30 2556 H 243.395 0.489551 5.00612 0
M  V30 2557 H 243.095 2.1876 5.4536 0
M  V30 2558 H 244.619 1.39489 5.94454 0
M  V30 2559 H 246.033 3.2912 4.69417 0
M  V30 2560 H 244.43 4.03966 4.43769 0
M  V30 2561 H 245.5 3.76949 3.05021 0
M  V30 2562 N 246.843 -1.10192 1.12674 0
M  V30 2563 C 248.09 -1.82205 0.883606 0
M  V30 2564 C 248.418 -1.8532 -0.590492 0
M  V30 2565 O 247.673 -1.31137 -1.45264 0
M  V30 2566 C 247.972 -3.28552 1.4067 0
M  V30 2567 C 247.638 -3.45582 2.89627 0
M  V30 2568 C 246.3 -3.49937 3.30299 0
M  V30 2569 C 248.652 -3.50768 3.85501 0
M  V30 2570 C 245.98 -3.57049 4.65546 0
M  V30 2571 C 248.332 -3.59414 5.20581 0
M  V30 2572 C 246.996 -3.62034 5.60792 0
M  V30 2573 H 246.266 -0.666735 0.323334 0
M  V30 2574 H 248.913 -1.29868 1.40736 0
M  V30 2575 H 247.218 -3.83473 0.80347 0
M  V30 2576 H 248.915 -3.82788 1.19475 0
M  V30 2577 H 245.505 -3.42871 2.57172 0
M  V30 2578 H 249.689 -3.46651 3.55171 0
M  V30 2579 H 244.945 -3.57361 4.96088 0
M  V30 2580 H 249.119 -3.62371 5.94693 0
M  V30 2581 H 246.746 -3.67298 6.6558 0
M  V30 2582 N 248.321 -0.919034 -1.28029 0
M  V30 2583 C 249.271 -0.382574 -2.24767 0
M  V30 2584 C 250.255 0.508286 -1.52661 0
M  V30 2585 O 251.447 0.347145 -1.73562 0
M  V30 2586 C 248.576 0.371432 -3.41285 0
M  V30 2587 C 247.662 -0.535449 -4.20706 0
M  V30 2588 N 248.053 -1.65141 -4.78082 0
M  V30 2589 C 246.351 -0.336824 -4.44726 0
M  V30 2590 C 247.052 -2.21475 -5.37888 0
M  V30 2591 N 246.028 -1.50537 -5.22341 0
M  V30 2592 H 249.83 -1.23477 -2.66703 0
M  V30 2593 H 247.344 -0.772299 -1.42861 0
M  V30 2594 H 249.341 0.772638 -4.09678 0
M  V30 2595 H 248.001 1.22066 -3.00882 0
M  V30 2596 H 249.012 -2.03392 -4.7629 0
M  V30 2597 H 245.689 0.47246 -4.14818 0
M  V30 2598 H 247.079 -3.15379 -5.93284 0
M  V30 2599 N 249.799 1.42003 -0.683588 0
M  V30 2600 C 251.027 2.05746 -0.218182 0
M  V30 2601 C 251.442 1.51396 1.12804 0
M  V30 2602 O 250.799 0.657303 1.70252 0
M  V30 2603 C 250.85 3.61171 -0.154131 0
M  V30 2604 O 250.571 4.13508 -1.44716 0
M  V30 2605 C 252.072 4.42042 0.333713 0
M  V30 2606 H 249.292 0.662888 -0.10402 0
M  V30 2607 H 251.836 1.81987 -0.9328 0
M  V30 2608 H 249.991 3.84012 0.511231 0
M  V30 2609 H 250.405 5.07453 -1.32632 0
M  V30 2610 H 251.879 5.51028 0.327423 0
M  V30 2611 H 252.356 4.17269 1.37053 0
M  V30 2612 H 252.962 4.24239 -0.300222 0
M  V30 2613 N 251.277 0.427512 1.51691 0
M  V30 2614 C 252.225 -0.403359 2.29076 0
M  V30 2615 C 253.219 -1.02962 1.34518 0
M  V30 2616 O 254.425 -0.965715 1.51901 0
M  V30 2617 H 250.8 -0.148879 0.737115 0
M  V30 2618 H 252.771 0.270295 2.97173 0
M  V30 2619 C 251.52 -1.49763 3.13794 0
M  V30 2620 H 250.843 -1.02508 3.86435 0
M  V30 2621 H 252.283 -2.05244 3.71014 0
M  V30 2622 C 250.742 -2.47536 2.28533 0
M  V30 2623 O 251.272 -3.51848 1.93819 0
M  V30 2624 N 249.478 -2.18187 1.91945 0
M  V30 2625 H 249.025 -1.33389 2.20375 0
M  V30 2626 H 248.983 -2.83848 1.35195 0
M  V30 2627 N 252.755 -1.56801 0.158532 0
M  V30 2628 C 254.002 -1.9649 -0.489679 0
M  V30 2629 C 254.33 -1.04394 -1.6411 0
M  V30 2630 O 253.585 -0.0754401 -1.95555 0
M  V30 2631 C 253.884 -3.4235 -1.02623 0
M  V30 2632 C 253.55 -4.50899 0.00794526 0
M  V30 2633 C 252.212 -4.80312 0.292207 0
M  V30 2634 C 254.564 -5.16333 0.710584 0
M  V30 2635 C 251.892 -5.72461 1.28472 0
M  V30 2636 C 254.244 -6.09553 1.69199 0
M  V30 2637 C 252.908 -6.37339 1.98383 0
M  V30 2638 H 252.178 -0.719009 -0.179186 0
M  V30 2639 H 254.825 -1.8989 0.247798 0
M  V30 2640 H 253.13 -3.45838 -1.84128 0
M  V30 2641 H 254.827 -3.70393 -1.53656 0
M  V30 2642 H 251.417 -4.28015 -0.22379 0
M  V30 2643 H 255.601 -4.93732 0.504174 0
M  V30 2644 H 250.857 -5.92278 1.51714 0
M  V30 2645 H 255.031 -6.59327 2.24189 0
M  V30 2646 H 252.658 -7.08546 2.7544 0
M  V30 2647 N 254.233 0.115231 -1.57178 0
M  V30 2648 C 255.463 0.835224 -1.88964 0
M  V30 2649 C 255.871 1.73774 -0.74829 0
M  V30 2650 O 255.214 1.81401 0.289739 0
M  V30 2651 C 255.276 1.7178 -3.15804 0
M  V30 2652 C 254.94 0.989198 -4.46166 0
M  V30 2653 C 255.937 0.328263 -5.18863 0
M  V30 2654 C 253.622 0.969256 -4.9286 0
M  V30 2655 C 255.616 -0.342873 -6.36477 0
M  V30 2656 C 253.303 0.294324 -6.10391 0
M  V30 2657 C 254.301 -0.360582 -6.82048 0
M  V30 2658 O 253.989 -1.02474 -7.97342 0
M  V30 2659 H 253.721 0.245197 -0.629964 0
M  V30 2660 H 256.275 0.10303 -2.05141 0
M  V30 2661 H 254.505 2.49173 -2.95719 0
M  V30 2662 H 256.194 2.31255 -3.33581 0
M  V30 2663 H 256.96 0.335263 -4.8384 0
M  V30 2664 H 252.839 1.46844 -4.36987 0
M  V30 2665 H 256.383 -0.854629 -6.92345 0
M  V30 2666 H 252.28 0.285099 -6.4487 0
M  V30 2667 H 253.048 -0.929594 -8.13204 0
M  V30 2668 N 255.711 1.52812 0.385517 0
M  V30 2669 C 256.988 1.5861 1.14465 0
M  V30 2670 C 257.368 0.381402 2.07626 0
M  V30 2671 O 256.716 -0.629999 2.19643 0
M  V30 2672 C 256.926 2.92664 1.90128 0
M  V30 2673 C 258.274 3.46526 2.45367 0
M  V30 2674 O 259.298 2.94562 2.0028 0
M  V30 2675 O 258.157 4.37323 3.27736 0
M  V30 2676 H 255.251 0.639855 0.523941 0
M  V30 2677 H 257.797 1.65149 0.390389 0
M  V30 2678 H 256.569 3.71788 1.22022 0
M  V30 2679 H 256.192 2.89527 2.72507 0
M  V30 2680 N 257.189 -0.644168 1.43834 0
M  V30 2681 C 258.417 -1.43147 1.49387 0
M  V30 2682 C 258.832 -1.88452 0.114583 0
M  V30 2683 O 258.189 -1.60047 -0.876989 0
M  V30 2684 C 258.24 -2.66046 2.44748 0
M  V30 2685 O 257.961 -2.22633 3.77314 0
M  V30 2686 C 259.462 -3.59311 2.59635 0
M  V30 2687 H 256.682 -0.439447 0.507077 0
M  V30 2688 H 259.226 -0.78895 1.88669 0
M  V30 2689 H 257.381 -3.26418 2.08638 0
M  V30 2690 H 257.795 -3.02216 4.28679 0
M  V30 2691 H 259.269 -4.42187 3.30416 0
M  V30 2692 H 259.746 -4.07259 1.64427 0
M  V30 2693 H 260.352 -3.04816 2.96593 0
M  V30 2694 N 258.668 -1.30515 -0.883378 0
M  V30 2695 C 259.914 -1.19607 -1.63774 0
M  V30 2696 C 260.247 0.248314 -1.92606 0
M  V30 2697 O 259.522 1.17742 -1.54813 0
M  V30 2698 C 259.805 -2.02669 -2.97653 0
M  V30 2699 C 259.658 -3.55335 -2.75784 0
M  V30 2700 C 260.977 -1.86573 -3.98596 0
M  V30 2701 H 258.096 -0.435856 -0.594305 0
M  V30 2702 H 260.738 -1.60165 -1.02212 0
M  V30 2703 H 258.888 -1.68208 -3.50197 0
M  V30 2704 H 260.56 -3.99863 -2.30016 0
M  V30 2705 H 258.803 -3.79438 -2.1026 0
M  V30 2706 H 259.474 -4.08745 -3.70988 0
M  V30 2707 H 261.95 -2.16703 -3.55217 0
M  V30 2708 H 260.826 -2.47014 -4.90179 0
M  V30 2709 H 261.087 -0.825321 -4.34328 0
M  V30 2710 N 260.146 1.09593 -1.13257 0
M  V30 2711 C 261.394 1.81375 -0.891492 0
M  V30 2712 C 261.715 1.86049 0.584009 0
M  V30 2713 O 260.985 1.34481 1.42449 0
M  V30 2714 H 259.565 0.671708 -0.326828 0
M  V30 2715 H 262.227 1.3256 -1.42877 0
M  V30 2716 H 261.323 2.84612 -1.28071 0
M  V30 2717 N 261.624 0.925811 1.2754 0
M  V30 2718 C 262.852 0.581509 1.9856 0
M  V30 2719 C 263.267 -0.840041 1.69082 0
M  V30 2720 O 262.624 -1.55805 0.950312 0
M  V30 2721 C 262.675 0.795589 3.52637 0
M  V30 2722 O 262.396 2.16121 3.81082 0
M  V30 2723 C 263.897 0.459744 4.4091 0
M  V30 2724 H 261.117 0.220538 0.633722 0
M  V30 2725 H 263.661 1.24232 1.6244 0
M  V30 2726 H 261.816 0.18161 3.86974 0
M  V30 2727 H 262.23 2.2098 4.75676 0
M  V30 2728 H 263.704 0.660244 5.48037 0
M  V30 2729 H 264.181 -0.604625 4.35018 0
M  V30 2730 H 264.787 1.05178 4.12089 0
M  V30 2731 N 263.102 -1.41638 0.69111 0
M  V30 2732 C 264.351 -2.00526 0.217318 0
M  V30 2733 C 264.664 -1.55353 -1.18848 0
M  V30 2734 O 265.87 -2.06769 -1.75951 0
M  V30 2735 C 264.326 -3.58313 0.337639 0
M  V30 2736 C 263.934 -4.12469 1.74852 0
M  V30 2737 C 265.678 -4.24431 -0.0766066 0
M  V30 2738 C 263.585 -5.62675 1.82074 0
M  V30 2739 H 262.515 -0.750008 0.0774893 0
M  V30 2740 H 265.166 -1.6217 0.858661 0
M  V30 2741 H 263.548 -3.9425 -0.371879 0
M  V30 2742 H 264.722 -3.8796 2.48644 0
M  V30 2743 H 263.037 -3.58861 2.11205 0
M  V30 2744 H 265.634 -5.34683 -0.0430284 0
M  V30 2745 H 265.977 -4.01101 -1.1146 0
M  V30 2746 H 266.51 -3.93512 0.582476 0
M  V30 2747 H 263.249 -5.90826 2.83911 0
M  V30 2748 H 262.769 -5.89124 1.12661 0
M  V30 2749 H 264.448 -6.27371 1.58159 0
M  V30 2750 N 264.58 -0.43555 -1.51462 0
M  V30 2751 C 265.512 0.41257 -2.25456 0
M  V30 2752 C 266.525 0.987822 -1.29406 0
M  V30 2753 O 267.714 0.882266 -1.55172 0
M  V30 2754 C 264.814 1.58894 -2.99342 0
M  V30 2755 C 263.987 1.13288 -4.22474 0
M  V30 2756 C 263.046 2.17917 -4.78956 0
M  V30 2757 O 262.072 1.77425 -5.40841 0
M  V30 2758 N 263.274 3.50382 -4.62832 0
M  V30 2759 H 266.039 -0.221603 -2.9888 0
M  V30 2760 H 263.6 -0.264342 -1.59727 0
M  V30 2761 H 265.592 2.28508 -3.34015 0
M  V30 2762 H 264.162 2.12849 -2.28941 0
M  V30 2763 H 263.382 0.263881 -3.93316 0
M  V30 2764 H 264.67 0.805542 -5.02383 0
M  V30 2765 H 264.068 3.86013 -4.13534 0
M  V30 2766 H 262.625 4.15895 -5.01871 0
M  V30 2767 N 266.058 1.56714 -0.166846 0
M  V30 2768 C 266.988 2.20754 0.760913 0
M  V30 2769 C 267.969 1.16178 1.24244 0
M  V30 2770 O 269.154 1.44592 1.29641 0
M  V30 2771 C 266.284 2.84478 1.99223 0
M  V30 2772 C 265.238 3.95053 1.64672 0
M  V30 2773 C 264.564 4.45805 2.95232 0
M  V30 2774 C 265.864 5.14865 0.878155 0
M  V30 2775 H 267.558 2.98537 0.22713 0
M  V30 2776 H 265.104 1.43596 0.107805 0
M  V30 2777 H 267.057 3.27951 2.64624 0
M  V30 2778 H 265.781 2.04056 2.55007 0
M  V30 2779 H 264.44 3.52228 1.01641 0
M  V30 2780 H 264.088 3.62181 3.49047 0
M  V30 2781 H 263.788 5.204 2.7287 0
M  V30 2782 H 265.312 4.91962 3.6167 0
M  V30 2783 H 266.726 5.55059 1.43466 0
M  V30 2784 H 265.123 5.95348 0.753738 0
M  V30 2785 H 266.193 4.84735 -0.126377 0
M  V30 2786 N 267.536 -0.106894 1.57237 0
M  V30 2787 C 268.785 -0.811163 1.8467 0
M  V30 2788 C 269.098 -1.80469 0.754342 0
M  V30 2789 O 270.304 -2.55601 0.915439 0
M  V30 2790 C 268.76 -1.49337 3.27454 0
M  V30 2791 C 268.368 -0.540217 4.44731 0
M  V30 2792 C 270.112 -2.18206 3.64124 0
M  V30 2793 C 268.019 -1.22634 5.78545 0
M  V30 2794 H 266.949 -0.306679 0.688813 0
M  V30 2795 H 269.6 -0.0639887 1.83388 0
M  V30 2796 H 267.982 -2.2876 3.23241 0
M  V30 2797 H 269.156 0.221659 4.60267 0
M  V30 2798 H 267.471 0.042146 4.16379 0
M  V30 2799 H 270.068 -2.70253 4.61376 0
M  V30 2800 H 270.411 -2.96562 2.92158 0
M  V30 2801 H 270.944 -1.45658 3.70174 0
M  V30 2802 H 267.683 -0.483832 6.53712 0
M  V30 2803 H 267.203 -1.95993 5.66874 0
M  V30 2804 H 268.882 -1.75615 6.2271 0
M  V30 2805 N 269.014 -1.53014 -0.377408 0
M  V30 2806 C 269.962 -1.7927 -1.48206 0
M  V30 2807 C 270.956 -0.661195 -1.55963 0
M  V30 2808 O 272.162 -0.843908 -1.58991 0
M  V30 2809 H 268.537 -0.567425 -0.493491 0
M  V30 2810 H 270.508 -2.71753 -1.2326 0
M  V30 2811 C 269.257 -1.98894 -2.85196 0
M  V30 2812 H 268.58 -2.85395 -2.79981 0
M  V30 2813 H 270.02 -2.21249 -3.61698 0
M  V30 2814 C 268.479 -0.764691 -3.28107 0
M  V30 2815 O 269.009 0.0523226 -4.01666 0
M  V30 2816 N 267.215 -0.591493 -2.84517 0
M  V30 2817 H 266.762 -1.25749 -2.24822 0
M  V30 2818 H 266.72 0.226253 -3.13585 0
M  V30 2819 N 270.492 0.636531 -1.44174 0
M  V30 2820 C 271.769 1.39463 -1.37148 0
M  V30 2821 C 272.149 2.11082 -0.027507 0
M  V30 2822 O 271.497 2.05954 0.989716 0
M  V30 2823 C 271.707 2.36552 -2.56601 0
M  V30 2824 C 273.055 3.00048 -3.00427 0
M  V30 2825 O 274.079 2.46878 -2.56767 0
M  V30 2826 O 272.938 3.96488 -3.76111 0
M  V30 2827 H 270.032 0.623903 -0.542839 0
M  V30 2828 H 272.578 0.662039 -1.56253 0
M  V30 2829 H 271.35 1.82692 -3.46034 0
M  V30 2830 H 270.973 3.17236 -2.39681 0
M  V30 2831 N 271.97 1.30982 0.876444 0
M  V30 2832 C 272.92 1.14688 1.97055 0
M  V30 2833 C 273.904 0.0596593 1.60789 0
M  V30 2834 O 275.096 0.283892 1.74708 0
M  V30 2835 C 272.225 0.849627 3.3262 0
M  V30 2836 C 271.311 1.97752 3.75173 0
M  V30 2837 N 271.702 3.22384 3.89746 0
M  V30 2838 C 270 1.8758 4.04635 0
M  V30 2839 C 270.701 3.96121 4.25985 0
M  V30 2840 N 269.677 3.24237 4.36315 0
M  V30 2841 H 273.479 2.09204 2.06424 0
M  V30 2842 H 270.993 1.22445 1.06682 0
M  V30 2843 H 272.99 0.713895 4.10742 0
M  V30 2844 H 271.65 -0.087376 3.24582 0
M  V30 2845 H 272.661 3.57575 3.74647 0
M  V30 2846 H 269.338 1.01303 4.05024 0
M  V30 2847 H 270.728 5.03491 4.44911 0
M  V30 2848 N 273.449 -1.08991 1.13837 0
M  V30 2849 C 274.695 -1.81526 0.90422 0
M  V30 2850 C 275.028 -1.85706 -0.568066 0
M  V30 2851 O 274.303 -1.32855 -1.42056 0
M  V30 2852 C 274.586 -3.27447 1.49835 0
M  V30 2853 C 274.439 -3.31512 3.04006 0
M  V30 2854 C 275.758 -4.24256 1.17025 0
M  V30 2855 H 272.877 -0.659029 0.329923 0
M  V30 2856 H 275.519 -1.27644 1.40737 0
M  V30 2857 H 273.669 -3.73462 1.07044 0
M  V30 2858 H 275.341 -2.93867 3.55584 0
M  V30 2859 H 273.584 -2.70963 3.38765 0
M  V30 2860 H 274.255 -4.34329 3.40679 0
M  V30 2861 H 276.731 -3.86549 1.54009 0
M  V30 2862 H 275.607 -5.24684 1.61237 0
M  V30 2863 H 275.868 -4.42019 0.0846274 0
M  V30 2864 N 274.927 -0.932562 -1.27047 0
M  V30 2865 C 275.874 -0.434072 -2.26681 0
M  V30 2866 C 276.844 0.501639 -1.58344 0
M  V30 2867 O 278.029 0.419734 -1.86126 0
M  V30 2868 C 275.169 0.30261 -3.43771 0
M  V30 2869 C 274.282 -0.667774 -4.26808 0
M  V30 2870 C 273.417 0.0892393 -5.31125 0
M  V30 2871 C 272.456 -0.873532 -6.05835 0
M  V30 2872 N 271.593 -0.148832 -7.01942 0
M  V30 2873 H 276.433 -1.28868 -2.68695 0
M  V30 2874 H 273.97 -0.646713 -1.32121 0
M  V30 2875 H 275.928 0.746092 -4.10474 0
M  V30 2876 H 274.558 1.12142 -3.02695 0
M  V30 2877 H 273.61 -1.22978 -3.59973 0
M  V30 2878 H 274.922 -1.40337 -4.78651 0
M  V30 2879 H 274.076 0.592409 -6.03801 0
M  V30 2880 H 272.815 0.85777 -4.80097 0
M  V30 2881 H 271.82 -1.38791 -5.31994 0
M  V30 2882 H 273.045 -1.64193 -6.58952 0
M  V30 2883 H 270.991 0.601365 -6.53238 0
M  V30 2884 H 270.908 -0.82391 -7.51497 0
M  V30 2885 H 272.176 0.333527 -7.78786 0
M  V30 2886 N 276.405 1.4127 -0.698611 0
M  V30 2887 C 277.352 2.30773 -0.0352094 0
M  V30 2888 C 278.322 1.47273 0.768111 0
M  V30 2889 O 279.507 1.76053 0.735524 0
M  V30 2890 C 276.647 3.33346 0.893 0
M  V30 2891 C 275.76 4.31924 0.0809695 0
M  V30 2892 C 274.895 5.21566 1.0071 0
M  V30 2893 C 273.934 6.11811 0.188155 0
M  V30 2894 N 273.071 6.93926 1.06825 0
M  V30 2895 H 277.911 2.86943 -0.804207 0
M  V30 2896 H 275.448 1.4132 -0.408294 0
M  V30 2897 H 277.406 3.91368 1.44523 0
M  V30 2898 H 276.036 2.78719 1.62836 0
M  V30 2899 H 275.088 3.75825 -0.588224 0
M  V30 2900 H 276.4 4.95716 -0.553801 0
M  V30 2901 H 275.554 5.84437 1.62845 0
M  V30 2902 H 274.293 4.58008 1.67572 0
M  V30 2903 H 273.298 5.47986 -0.446254 0
M  V30 2904 H 274.523 6.77425 -0.476716 0
M  V30 2905 H 272.469 6.32973 1.72283 0
M  V30 2906 H 272.386 7.54416 0.489123 0
M  V30 2907 H 273.654 7.61262 1.67632 0
M  V30 2908 N 277.883 0.443576 1.51229 0
M  V30 2909 C 278.793 -0.370721 2.31652 0
M  V30 2910 C 279.809 -1.02186 1.40833 0
M  V30 2911 O 280.985 -1.01586 1.73903 0
M  V30 2912 C 278.05 -1.45376 3.14749 0
M  V30 2913 C 277.111 -0.822099 4.21355 0
M  V30 2914 C 276.344 -1.85353 5.0048 0
M  V30 2915 O 276.567 -3.07656 4.80316 0
M  V30 2916 O 275.501 -1.4406 5.84406 0
M  V30 2917 H 279.327 0.286002 3.0235 0
M  V30 2918 H 276.912 0.20598 1.47973 0
M  V30 2919 H 278.794 -2.08173 3.66391 0
M  V30 2920 H 277.469 -2.09445 2.46809 0
M  V30 2921 H 276.376 -0.155909 3.73775 0
M  V30 2922 H 277.709 -0.224797 4.91686 0
M  V30 2923 N 279.361 -1.56624 0.175154 0
M  V30 2924 C 280.589 -2.01374 -0.474971 0
M  V30 2925 C 281.004 -1.05537 -1.56548 0
M  V30 2926 O 280.361 -0.0568668 -1.82411 0
M  V30 2927 C 280.412 -3.45923 -1.04975 0
M  V30 2928 O 280.133 -4.381 -0.00276605 0
M  V30 2929 C 281.634 -4.06093 -1.77773 0
M  V30 2930 H 278.854 -0.659962 -0.121206 0
M  V30 2931 H 281.398 -2.02601 0.27801 0
M  V30 2932 H 279.553 -3.45458 -1.75321 0
M  V30 2933 H 279.967 -5.22753 -0.427681 0
M  V30 2934 H 281.441 -5.09147 -2.13245 0
M  V30 2935 H 281.918 -3.48405 -2.67414 0
M  V30 2936 H 282.524 -4.10272 -1.12059 0
M  V30 2937 N 280.839 0.0985539 -1.57292 0
M  V30 2938 C 282.255 0.45267 -1.53046 0
M  V30 2939 C 282.455 1.80713 -0.891342 0
M  V30 2940 O 281.511 2.4785 -0.482375 0
M  V30 2941 C 282.824 0.418341 -2.97776 0
M  V30 2942 C 284.372 0.500443 -3.08973 0
M  V30 2943 C 284.847 0.496297 -4.55303 0
M  V30 2944 N 286.338 0.557151 -4.59837 0
M  V30 2945 C 287.073 0.575726 -5.70502 0
M  V30 2946 N 286.569 0.550714 -6.90608 0
M  V30 2947 N 288.362 0.620277 -5.58667 0
M  V30 2948 H 280.513 -0.788673 -1.97215 0
M  V30 2949 H 282.776 -0.293188 -0.901524 0
M  V30 2950 H 282.482 -0.509659 -3.47988 0
M  V30 2951 H 282.356 1.2386 -3.56284 0
M  V30 2952 H 284.743 1.41886 -2.58751 0
M  V30 2953 H 284.824 -0.347894 -2.53423 0
M  V30 2954 H 284.468 -0.418162 -5.06176 0
M  V30 2955 H 284.398 1.3618 -5.08687 0
M  V30 2956 H 286.889 0.581816 -3.73394 0
M  V30 2957 H 287.202 0.568075 -7.70709 0
M  V30 2958 H 285.547 0.517816 -6.93068 0
M  V30 2959 H 288.738 0.637322 -4.63741 0
M  V30 2960 H 288.911 0.631283 -6.44918 0
M  V30 2961 N 282.317 1.53212 0.369288 0
M  V30 2962 C 283.565 1.68881 1.11012 0
M  V30 2963 C 283.886 0.441285 1.89941 0
M  V30 2964 O 283.156 -0.544623 1.88177 0
M  V30 2965 H 281.736 0.622569 0.412816 0
M  V30 2966 H 284.398 1.90391 0.416802 0
M  V30 2967 H 283.494 2.54822 1.80201 0
M  V30 2968 N 283.795 -0.628877 1.44509 0
M  V30 2969 C 284.742 -1.74074 1.51549 0
M  V30 2970 C 285.712 -1.62084 0.363021 0
M  V30 2971 O 286.897 -1.81975 0.573567 0
M  V30 2972 C 284.037 -3.12328 1.46784 0
M  V30 2973 C 283.15 -3.35277 2.72422 0
M  V30 2974 C 282.285 -4.63515 2.59475 0
M  V30 2975 C 281.324 -4.7965 3.80266 0
M  V30 2976 N 280.461 -5.99168 3.65981 0
M  V30 2977 H 285.301 -1.67392 2.46544 0
M  V30 2978 H 282.838 -0.816527 1.22357 0
M  V30 2979 H 284.796 -3.92286 1.42012 0
M  V30 2980 H 283.426 -3.18018 0.553544 0
M  V30 2981 H 282.478 -2.49242 2.87372 0
M  V30 2982 H 283.79 -3.43078 3.62076 0
M  V30 2983 H 282.944 -5.51638 2.52548 0
M  V30 2984 H 281.683 -4.58076 1.67384 0
M  V30 2985 H 280.688 -3.89957 3.87574 0
M  V30 2986 H 281.913 -4.86902 4.73395 0
M  V30 2987 H 279.859 -5.94814 2.76644 0
M  V30 2988 H 279.776 -6.08035 4.49254 0
M  V30 2989 H 281.044 -6.89846 3.6295 0
M  V30 2990 N 285.273 -1.31445 -0.869486 0
M  V30 2991 C 286.522 -1.20517 -1.61736 0
M  V30 2992 C 286.835 0.235341 -1.94179 0
M  V30 2993 O 288.041 0.466312 -2.67465 0
M  V30 2994 C 286.497 -2.10982 -2.91573 0
M  V30 2995 C 286.105 -3.60032 -2.66611 0
M  V30 2996 C 287.849 -2.08856 -3.69567 0
M  V30 2997 C 285.756 -4.42503 -3.92358 0
M  V30 2998 H 284.686 -0.447493 -0.606849 0
M  V30 2999 H 287.337 -1.56303 -0.96133 0
M  V30 3000 H 285.719 -1.68095 -3.58553 0
M  V30 3001 H 286.893 -4.11167 -2.08035 0
M  V30 3002 H 285.208 -3.64139 -2.0197 0
M  V30 3003 H 287.805 -2.67716 -4.62852 0
M  V30 3004 H 288.148 -1.07582 -4.02159 0
M  V30 3005 H 288.681 -2.49945 -3.09471 0
M  V30 3006 H 285.42 -5.44533 -3.64916 0
M  V30 3007 H 284.94 -3.96125 -4.50383 0
M  V30 3008 H 286.619 -4.54741 -4.60238 0
M  V30 3009 N 286.751 1.08385 -1.14413 0
M  V30 3010 C 287.997 1.81044 -0.913834 0
M  V30 3011 C 288.33 1.86004 0.558209 0
M  V30 3012 O 287.605 1.33606 1.4135 0
M  V30 3013 C 287.888 3.26648 -1.51569 0
M  V30 3014 C 287.741 3.29895 -3.0576 0
M  V30 3015 C 289.06 4.23629 -1.19273 0
M  V30 3016 H 286.179 0.65727 -0.333414 0
M  V30 3017 H 288.821 1.26896 -1.41412 0
M  V30 3018 H 286.971 3.72889 -1.09023 0
M  V30 3019 H 288.643 2.91977 -3.57137 0
M  V30 3020 H 286.886 2.69163 -3.40197 0
M  V30 3021 H 287.557 4.32516 -3.42977 0
M  V30 3022 H 290.033 3.85727 -1.56057 0
M  V30 3023 H 288.909 5.23822 -1.64017 0
M  V30 3024 H 289.17 4.41968 -0.108068 0
M  V30 3025 N 288.23 0.939286 1.26551 0
M  V30 3026 C 289.507 0.5038 1.89001 0
M  V30 3027 C 289.887 -1.01854 1.84903 0
M  V30 3028 O 289.235 -1.87773 1.30206 0
M  V30 3029 C 289.445 1.063 3.32417 0
M  V30 3030 C 290.793 1.13051 4.09273 0
M  V30 3031 O 291.817 1.01345 3.41479 0
M  V30 3032 O 290.676 1.31233 5.30509 0
M  V30 3033 H 287.77 0.163897 0.810597 0
M  V30 3034 H 290.316 1.03173 1.34735 0
M  V30 3035 H 289.088 2.10665 3.29752 0
M  V30 3036 H 288.711 0.517408 3.94219 0
M  V30 3037 N 289.708 -1.40897 0.706093 0
M  V30 3038 C 290.638 -2.33418 0.0620085 0
M  V30 3039 C 291.619 -1.52385 -0.755827 0
M  V30 3040 O 292.804 -1.80886 -0.706674 0
M  V30 3041 C 289.934 -3.36293 -0.867445 0
M  V30 3042 C 288.888 -4.27716 -0.155932 0
M  V30 3043 C 288.214 -5.2105 -1.20046 0
M  V30 3044 C 289.514 -5.12944 0.984149 0
M  V30 3045 H 291.208 -2.87527 0.83477 0
M  V30 3046 H 288.754 -1.38249 0.402875 0
M  V30 3047 H 290.707 -3.99949 -1.32735 0
M  V30 3048 H 289.431 -2.80556 -1.67199 0
M  V30 3049 H 288.09 -3.65498 0.284047 0
M  V30 3050 H 287.738 -4.61624 -1.99781 0
M  V30 3051 H 287.438 -5.83056 -0.729328 0
M  V30 3052 H 288.962 -5.87584 -1.66066 0
M  V30 3053 H 290.376 -5.70109 0.604048 0
M  V30 3054 H 288.773 -5.83945 1.38304 0
M  V30 3055 H 289.843 -4.49485 1.81911 0
M  V30 3056 N 291.186 -0.45159 -1.50991 0
M  V30 3057 C 292.432 0.110237 -2.025 0
M  V30 3058 C 292.765 1.41109 -1.33424 0
M  V30 3059 O 292.04 1.89135 -0.453659 0
M  V30 3060 C 292.323 0.314271 -3.58726 0
M  V30 3061 C 292.176 -1.00623 -4.38401 0
M  V30 3062 C 293.495 1.07767 -4.26702 0
M  V30 3063 H 290.614 0.0385897 -0.735989 0
M  V30 3064 H 293.256 -0.593374 -1.80497 0
M  V30 3065 H 291.406 0.913601 -3.77605 0
M  V30 3066 H 293.078 -1.64064 -4.31139 0
M  V30 3067 H 291.321 -1.6075 -4.02917 0
M  V30 3068 H 291.992 -0.817341 -5.45915 0
M  V30 3069 H 294.468 0.56986 -4.12179 0
M  V30 3070 H 293.344 1.18921 -5.35863 0
M  V30 3071 H 293.605 2.10939 -3.88532 0
M  V30 3072 N 292.664 1.56529 -0.183458 0
M  V30 3073 C 293.889 2.02064 0.467428 0
M  V30 3074 C 294.314 1.06282 1.55196 0
M  V30 3075 O 293.672 0.0443565 1.81246 0
M  V30 3076 C 293.72 3.46122 1.01153 0
M  V30 3077 O 292.824 3.53437 2.12499 0
M  V30 3078 H 292.165 0.654726 0.110588 0
M  V30 3079 H 294.695 2.02521 -0.290917 0
M  V30 3080 H 294.705 3.85676 1.33108 0
M  V30 3081 H 293.38 4.15331 0.217533 0
M  V30 3082 H 291.957 3.2575 1.81497 0
M  V30 3083 N 294.142 -0.090211 1.57342 0
M  V30 3084 C 295.052 -1.12735 2.05738 0
M  V30 3085 C 296.068 -1.43557 0.983231 0
M  V30 3086 O 297.244 -1.54101 1.29672 0
M  V30 3087 C 294.309 -2.42659 2.47624 0
M  V30 3088 C 293.37 -2.18975 3.69254 0
M  V30 3089 C 292.603 -3.42704 4.09133 0
M  V30 3090 O 292.826 -4.51127 3.49057 0
M  V30 3091 O 291.76 -3.32003 5.02053 0
M  V30 3092 H 295.586 -0.746279 2.94388 0
M  V30 3093 H 293.171 -0.303064 1.46294 0
M  V30 3094 H 295.053 -3.19155 2.7517 0
M  V30 3095 H 293.728 -2.80182 1.62109 0
M  V30 3096 H 292.635 -1.40244 3.46818 0
M  V30 3097 H 293.968 -1.86342 4.55563 0
M  V30 3098 N 295.62 -1.53406 -0.361157 0
M  V30 3099 C 296.55 -1.83136 -1.44857 0
M  V30 3100 C 297.531 -0.685174 -1.5569 0
M  V30 3101 O 298.716 -0.93544 -1.70186 0
M  V30 3102 C 295.846 -2.02522 -2.82138 0
M  V30 3103 C 294.8 -3.18302 -2.86126 0
M  V30 3104 C 294.126 -3.22989 -4.26125 0
M  V30 3105 C 295.426 -4.56796 -2.53248 0
M  V30 3106 H 297.12 -2.74201 -1.20226 0
M  V30 3107 H 294.666 -1.31938 -0.576922 0
M  V30 3108 H 296.619 -2.21904 -3.58241 0
M  V30 3109 H 295.343 -1.08172 -3.08166 0
M  V30 3110 H 294.002 -2.98747 -2.12475 0
M  V30 3111 H 293.65 -2.26267 -4.49235 0
M  V30 3112 H 293.35 -4.00781 -4.29708 0
M  V30 3113 H 294.874 -3.44559 -5.04094 0
M  V30 3114 H 296.288 -4.7631 -3.19064 0
M  V30 3115 H 294.685 -5.36862 -2.68141 0
M  V30 3116 H 295.755 -4.61606 -1.48484 0
M  V30 3117 N 297.098 0.621204 -1.44841 0
M  V30 3118 C 298.045 1.73267 -1.5247 0
M  V30 3119 C 299.015 1.6189 -0.371611 0
M  V30 3120 O 300.2 1.81668 -0.58321 0
M  V30 3121 C 297.34 3.11545 -1.48438 0
M  V30 3122 C 296.453 3.33827 -2.74196 0
M  V30 3123 C 295.588 4.62133 -2.61929 0
M  V30 3124 C 294.627 4.77627 -3.82804 0
M  V30 3125 N 293.764 5.97219 -3.69153 0
M  V30 3126 H 298.604 1.66082 -2.47428 0
M  V30 3127 H 296.141 0.810026 -1.22788 0
M  V30 3128 H 298.099 3.91528 -1.4409 0
M  V30 3129 H 296.729 3.1772 -0.570402 0
M  V30 3130 H 295.781 2.47715 -2.88689 0
M  V30 3131 H 297.093 3.41153 -3.6389 0
M  V30 3132 H 296.247 5.50291 -2.5547 0
M  V30 3133 H 294.986 4.57182 -1.69811 0
M  V30 3134 H 293.991 3.87896 -3.89637 0
M  V30 3135 H 295.216 4.84385 -4.75971 0
M  V30 3136 H 293.162 5.93339 -2.79794 0
M  V30 3137 H 293.079 6.05644 -4.52472 0
M  V30 3138 H 294.347 6.87912 -3.66603 0
M  V30 3139 N 298.576 1.31904 0.862503 0
M  V30 3140 C 299.523 1.20182 1.9704 0
M  V30 3141 C 300.493 0.0858247 1.65878 0
M  V30 3142 O 301.678 0.26 1.8902 0
M  V30 3143 C 298.818 0.922797 3.32533 0
M  V30 3144 C 297.931 2.12284 3.76244 0
M  V30 3145 C 297.066 1.77996 5.00491 0
M  V30 3146 C 296.105 2.94366 5.36671 0
M  V30 3147 N 295.242 2.60223 6.52095 0
M  V30 3148 H 300.082 2.14951 2.06398 0
M  V30 3149 H 297.619 1.06917 1.01031 0
M  V30 3150 H 299.577 0.741548 4.10557 0
M  V30 3151 H 298.207 0.0119227 3.22798 0
M  V30 3152 H 297.259 2.41461 2.9394 0
M  V30 3153 H 298.571 2.99357 3.98982 0
M  V30 3154 H 297.725 1.56377 5.862 0
M  V30 3155 H 296.464 0.881252 4.79672 0
M  V30 3156 H 295.469 3.16625 4.49476 0
M  V30 3157 H 296.694 3.84957 5.59451 0
M  V30 3158 H 294.64 1.72884 6.32809 0
M  V30 3159 H 294.557 3.40827 6.74814 0
M  V30 3160 H 295.825 2.42016 7.40978 0
M  V30 3161 N 300.054 -1.07777 1.14986 0
M  V30 3162 C 301.331 -1.7699 0.832695 0
M  V30 3163 C 301.711 -2.001 -0.672561 0
M  V30 3164 O 301.059 -1.61598 -1.6155 0
M  V30 3165 C 301.269 -3.08139 1.63863 0
M  V30 3166 C 302.617 -3.8256 1.84208 0
M  V30 3167 O 303.641 -3.17939 1.60603 0
M  V30 3168 O 302.5 -4.98612 2.23714 0
M  V30 3169 H 299.594 -0.768389 0.305791 0
M  V30 3170 H 302.14 -1.14182 1.25541 0
M  V30 3171 H 300.912 -2.86909 2.6608 0
M  V30 3172 H 300.535 -3.78678 1.21197 0
M  V30 3173 N 301.532 -0.945985 -1.26051 0
M  V30 3174 C 302.778 -0.597002 -1.93814 0
M  V30 3175 C 303.111 0.862484 -1.73997 0
M  V30 3176 O 302.386 1.61769 -1.07986 0
M  V30 3177 C 302.669 -0.945937 -3.47454 0
M  V30 3178 C 302.522 -2.46052 -3.76535 0
M  V30 3179 C 303.841 -0.464785 -4.37639 0
M  V30 3180 H 300.96 -0.218366 -0.703907 0
M  V30 3181 H 303.602 -1.18107 -1.48831 0
M  V30 3182 H 301.752 -0.448902 -3.85898 0
M  V30 3183 H 303.424 -3.03065 -3.47778 0
M  V30 3184 H 301.667 -2.90194 -3.22444 0
M  V30 3185 H 302.338 -2.65517 -4.83947 0
M  V30 3186 H 304.814 -0.891016 -4.06448 0
M  V30 3187 H 303.69 -0.737712 -5.4392 0
M  V30 3188 H 303.951 0.635274 -4.37512 0
M  V30 3189 N 303.011 1.40521 -0.713556 0
M  V30 3190 C 303.941 2.33381 -0.0743864 0
M  V30 3191 C 304.922 1.52784 0.747735 0
M  V30 3192 O 306.107 1.81258 0.697071 0
M  V30 3193 C 303.237 3.36748 0.849598 0
M  V30 3194 C 302.191 4.27793 0.133247 0
M  V30 3195 C 301.517 5.21679 1.17281 0
M  V30 3196 C 302.817 5.12415 -1.01134 0
M  V30 3197 H 304.511 2.87081 -0.850007 0
M  V30 3198 H 302.057 1.38034 -0.410201 0
M  V30 3199 H 304.01 4.00648 1.30612 0
M  V30 3200 H 302.734 2.81439 1.65709 0
M  V30 3201 H 301.393 3.65342 -0.303426 0
M  V30 3202 H 301.041 4.62677 1.9733 0
M  V30 3203 H 300.741 5.83435 0.698397 0
M  V30 3204 H 302.265 5.88456 1.62947 0
M  V30 3205 H 303.679 5.69781 -0.634274 0
M  V30 3206 H 302.076 5.83203 -1.41399 0
M  V30 3207 H 303.146 4.48514 -1.84292 0
M  V30 3208 N 304.489 0.459591 1.5075 0
M  V30 3209 C 305.422 -0.386257 2.24907 0
M  V30 3210 C 306.4 -1.006 1.27744 0
M  V30 3211 O 307.584 -1.04416 1.56938 0
M  V30 3212 C 304.711 -1.54021 3.01654 0
M  V30 3213 C 303.757 -1.03898 4.13651 0
M  V30 3214 S 304.59 0.0370501 5.35487 0
M  V30 3215 C 305.746 -1.12105 6.15779 0
M  V30 3216 H 305.979 0.243272 2.96303 0
M  V30 3217 H 303.512 0.244339 1.52454 0
M  V30 3218 H 305.47 -2.20163 3.46466 0
M  V30 3219 H 304.131 -2.14121 2.29806 0
M  V30 3220 H 303.324 -1.90254 4.66711 0
M  V30 3221 H 302.926 -0.45545 3.71216 0
M  V30 3222 H 305.218 -2.03501 6.46215 0
M  V30 3223 H 306.161 -0.62995 7.05292 0
M  V30 3224 H 306.569 -1.36967 5.47631 0
M  V30 3225 N 305.967 -1.56429 0.191757 0
M  V30 3226 C 307.213 -1.97777 -0.448554 0
M  V30 3227 C 307.546 -1.07847 -1.61501 0
M  V30 3228 O 306.821 -0.129774 -1.94067 0
M  V30 3229 C 307.104 -3.48362 -0.911906 0
M  V30 3230 C 306.957 -4.4907 0.256136 0
M  V30 3231 C 308.276 -4.02561 -1.77857 0
M  V30 3232 H 305.395 -0.719071 -0.161572 0
M  V30 3233 H 308.037 -1.87896 0.282007 0
M  V30 3234 H 306.187 -3.56914 -1.53442 0
M  V30 3235 H 307.859 -4.5256 0.893733 0
M  V30 3236 H 306.102 -4.24181 0.908436 0
M  V30 3237 H 306.773 -5.51889 -0.11053 0
M  V30 3238 H 309.249 -3.96767 -1.25359 0
M  V30 3239 H 308.125 -5.08301 -2.07174 0
M  V30 3240 H 308.386 -3.47616 -2.73158 0
M  V30 3241 N 307.445 0.0818655 -1.57387 0
M  V30 3242 C 308.375 1.09885 -2.06028 0
M  V30 3243 C 309.356 1.4098 -0.951774 0
M  V30 3244 O 310.541 1.50781 -1.22387 0
M  V30 3245 C 307.671 2.4151 -2.4958 0
M  V30 3246 C 306.625 2.24792 -3.64215 0
M  V30 3247 C 305.951 3.61712 -3.93787 0
M  V30 3248 C 307.251 1.67749 -4.94629 0
M  V30 3249 H 308.945 0.694128 -2.91243 0
M  V30 3250 H 306.491 0.332448 -1.4011 0
M  V30 3251 H 308.444 3.12939 -2.82219 0
M  V30 3252 H 307.168 2.83943 -1.61381 0
M  V30 3253 H 305.827 1.55807 -3.31843 0
M  V30 3254 H 305.475 4.01697 -3.02735 0
M  V30 3255 H 305.175 3.51368 -4.70971 0
M  V30 3256 H 306.699 4.34587 -4.28913 0
M  V30 3257 H 308.113 2.29032 -5.25564 0
M  V30 3258 H 306.51 1.68128 -5.76067 0
M  V30 3259 H 307.58 0.638059 -4.80684 0
M  V30 3260 N 308.923 1.53595 0.353017 0
M  V30 3261 C 310.169 1.70638 1.09593 0
M  V30 3262 C 310.502 0.463286 1.88593 0
M  V30 3263 O 309.777 -0.539597 1.86865 0
M  V30 3264 C 310.06 2.96406 2.04489 0
M  V30 3265 C 309.913 4.30901 1.29014 0
M  V30 3266 C 311.232 3.17812 3.0444 0
M  V30 3267 H 308.351 0.620913 0.397034 0
M  V30 3268 H 310.993 1.86254 0.375446 0
M  V30 3269 H 309.143 2.83223 2.65927 0
M  V30 3270 H 310.815 4.55917 0.702638 0
M  V30 3271 H 309.058 4.29741 0.592071 0
M  V30 3272 H 309.729 5.1506 1.98537 0
M  V30 3273 H 312.205 3.30263 2.53112 0
M  V30 3274 H 311.081 4.07223 3.6805 0
M  V30 3275 H 311.342 2.33669 3.75301 0
M  V30 3276 N 310.401 -0.613514 1.45168 0
M  V30 3277 C 311.349 -1.74572 1.53712 0
M  V30 3278 C 312.343 -1.64426 0.407505 0
M  V30 3279 O 313.549 -1.70291 0.583176 0
M  V30 3280 H 309.924 -0.576641 0.48269 0
M  V30 3281 H 311.895 -1.64492 2.48968 0
M  V30 3282 C 310.644 -3.12943 1.51532 0
M  V30 3283 H 309.967 -3.21407 2.37776 0
M  V30 3284 H 311.407 -3.9201 1.61569 0
M  V30 3285 C 309.866 -3.36053 0.238798 0
M  V30 3286 O 310.396 -3.95837 -0.6838 0
M  V30 3287 N 308.602 -2.9028 0.136359 0
M  V30 3288 H 308.149 -2.41811 0.887999 0
M  V30 3289 H 308.107 -3.06116 -0.716944 0
M  V30 3290 N 311.879 -1.3236 -0.855495 0
M  V30 3291 C 313.109 -1.25688 -1.6397 0
M  V30 3292 C 313.517 0.177592 -1.88365 0
M  V30 3293 O 312.86 1.12485 -1.45234 0
M  V30 3294 C 312.922 -1.94602 -3.02275 0
M  V30 3295 C 312.586 -3.43937 -3.00926 0
M  V30 3296 C 313.583 -4.39435 -2.77835 0
M  V30 3297 C 311.268 -3.85858 -3.21588 0
M  V30 3298 C 313.262 -5.74829 -2.75409 0
M  V30 3299 C 310.949 -5.21361 -3.18789 0
M  V30 3300 C 311.947 -6.15658 -2.95727 0
M  V30 3301 O 311.635 -7.48681 -2.928 0
M  V30 3302 H 311.367 -0.434972 -0.51747 0
M  V30 3303 H 313.921 -1.75023 -1.075 0
M  V30 3304 H 312.151 -1.39836 -3.60531 0
M  V30 3305 H 313.84 -1.81651 -3.62985 0
M  V30 3306 H 314.606 -4.08374 -2.6164 0
M  V30 3307 H 310.485 -3.12883 -3.38564 0
M  V30 3308 H 314.029 -6.48404 -2.57328 0
M  V30 3309 H 309.926 -5.52052 -3.34528 0
M  V30 3310 H 310.694 -7.5803 -3.0876 0
M  V30 3311 N 313.357 1.07166 -1.15556 0
M  V30 3312 C 314.606 1.79181 -0.926132 0
M  V30 3313 C 314.919 1.87768 0.547967 0
M  V30 3314 O 316.125 2.56323 0.895036 0
M  V30 3315 C 314.581 3.22 -1.60761 0
M  V30 3316 C 314.189 3.21607 -3.11886 0
M  V30 3317 C 315.933 3.9861 -1.4598 0
M  V30 3318 C 313.84 4.59092 -3.72812 0
M  V30 3319 H 312.77 0.67154 -0.342856 0
M  V30 3320 H 315.421 1.2027 -1.3859 0
M  V30 3321 H 313.803 3.81115 -1.07553 0
M  V30 3322 H 314.977 2.72127 -3.71865 0
M  V30 3323 H 313.292 2.58495 -3.2645 0
M  V30 3324 H 315.889 5.00225 -1.88888 0
M  V30 3325 H 316.232 4.143 -0.407541 0
M  V30 3326 H 316.765 3.45996 -1.96295 0
M  V30 3327 H 313.504 4.48606 -4.77946 0
M  V30 3328 H 313.024 5.08803 -3.17616 0
M  V30 3329 H 314.703 5.28059 -3.73848 0
M  V30 3330 N 314.835 0.952656 1.25548 0
M  V30 3331 C 316.065 0.622592 1.96996 0
M  V30 3332 C 316.473 -0.809112 1.71026 0
M  V30 3333 O 315.816 -1.55258 0.981861 0
M  V30 3334 C 315.878 0.798946 3.5051 0
M  V30 3335 C 315.542 2.20744 4.00151 0
M  V30 3336 C 316.539 3.18394 4.11001 0
M  V30 3337 C 314.224 2.5311 4.33867 0
M  V30 3338 C 316.218 4.46504 4.54877 0
M  V30 3339 C 313.905 3.8145 4.7743 0
M  V30 3340 C 314.903 4.77959 4.87897 0
M  V30 3341 O 314.591 6.04012 5.30494 0
M  V30 3342 H 314.323 0.232503 0.634758 0
M  V30 3343 H 316.877 1.2789 1.60728 0
M  V30 3344 H 315.107 0.0854903 3.86605 0
M  V30 3345 H 316.796 0.47023 4.03167 0
M  V30 3346 H 317.562 2.94715 3.85186 0
M  V30 3347 H 313.441 1.78719 4.24948 0
M  V30 3348 H 316.985 5.21835 4.62962 0
M  V30 3349 H 312.882 4.04936 5.0269 0
M  V30 3350 H 313.65 6.0736 5.48685 0
M  V30 3351 N 316.313 -1.40141 0.720998 0
M  V30 3352 C 317.56 -2.00787 0.262842 0
M  V30 3353 C 317.888 -1.5718 -1.14563 0
M  V30 3354 O 317.143 -0.785391 -1.79249 0
M  V30 3355 C 317.442 -3.56165 0.296892 0
M  V30 3356 C 317.108 -4.19373 1.65641 0
M  V30 3357 C 315.77 -4.36352 2.02855 0
M  V30 3358 C 318.122 -4.54578 2.54968 0
M  V30 3359 C 315.45 -4.8582 3.28931 0
M  V30 3360 C 317.802 -5.05447 3.80402 0
M  V30 3361 C 316.466 -5.20635 4.17726 0
M  V30 3362 H 315.736 -0.734731 0.0961807 0
M  V30 3363 H 318.383 -1.67673 0.925093 0
M  V30 3364 H 316.688 -3.8922 -0.448932 0
M  V30 3365 H 318.385 -4.00929 -0.0755208 0
M  V30 3366 H 314.975 -4.06549 1.35704 0
M  V30 3367 H 319.159 -4.41091 2.27491 0
M  V30 3368 H 314.415 -4.95764 3.57811 0
M  V30 3369 H 318.589 -5.31663 4.49786 0
M  V30 3370 H 316.216 -5.58728 5.15487 0
M  V30 3371 N 317.792 -0.46758 -1.50504 0
M  V30 3372 C 318.739 0.328413 -2.28452 0
M  V30 3373 C 319.709 0.990313 -1.33349 0
M  V30 3374 O 320.894 1.00343 -1.62284 0
M  V30 3375 C 318.034 1.40648 -3.15138 0
M  V30 3376 C 317.147 0.759709 -4.25267 0
M  V30 3377 C 316.282 1.81537 -4.99217 0
M  V30 3378 C 315.321 1.14866 -6.01226 0
M  V30 3379 N 314.458 2.14702 -6.68467 0
M  V30 3380 H 319.298 -0.342603 -2.96024 0
M  V30 3381 H 316.835 -0.180801 -1.45985 0
M  V30 3382 H 318.793 2.04315 -3.63746 0
M  V30 3383 H 317.423 2.04671 -2.49619 0
M  V30 3384 H 316.475 0.0105671 -3.80399 0
M  V30 3385 H 317.787 0.233243 -4.98254 0
M  V30 3386 H 316.941 2.52793 -5.51526 0
M  V30 3387 H 315.68 2.37564 -4.25928 0
M  V30 3388 H 314.685 0.42171 -5.4818 0
M  V30 3389 H 315.91 0.595334 -6.76485 0
M  V30 3390 H 313.856 2.69752 -5.97972 0
M  V30 3391 H 313.773 1.6703 -7.37317 0
M  V30 3392 H 315.041 2.85348 -7.25394 0
M  V30 3393 N 319.27 1.56325 -0.20005 0
M  V30 3394 C 320.233 2.18084 0.705132 0
M  V30 3395 C 321.233 1.13666 1.1374 0
M  V30 3396 O 322.423 1.39023 1.04968 0
M  V30 3397 C 319.555 2.78689 1.96329 0
M  V30 3398 H 320.748 2.99435 0.167023 0
M  V30 3399 H 318.301 1.56221 0.0495725 0
M  V30 3400 H 319.036 2.0115 2.5438 0
M  V30 3401 H 318.821 3.55133 1.66202 0
M  V30 3402 H 320.311 3.26096 2.60866 0
M  V30 3403 N 320.748 -0.0735177 1.57428 0
M  V30 3404 C 321.678 -1.0879 2.06608 0
M  V30 3405 C 322.659 -1.40473 0.959237 0
M  V30 3406 O 323.844 -1.5013 1.23185 0
M  V30 3407 C 320.974 -2.40183 2.50857 0
M  V30 3408 C 319.928 -2.22858 3.65402 0
M  V30 3409 C 319.254 -3.59619 3.957 0
M  V30 3410 C 320.554 -1.65123 4.95511 0
M  V30 3411 H 322.248 -0.678673 2.91607 0
M  V30 3412 H 319.794 -0.325013 1.40284 0
M  V30 3413 H 321.747 -3.11437 2.83874 0
M  V30 3414 H 320.471 -2.83083 1.62885 0
M  V30 3415 H 319.13 -1.54045 3.32664 0
M  V30 3416 H 318.778 -4.00086 3.04861 0
M  V30 3417 H 318.478 -3.48866 4.72828 0
M  V30 3418 H 320.002 -4.32306 4.31212 0
M  V30 3419 H 321.416 -2.26241 5.26771 0
M  V30 3420 H 319.813 -1.65071 5.7695 0
M  V30 3421 H 320.883 -0.612559 4.81015 0
M  V30 3422 N 322.226 -1.5378 -0.344866 0
M  V30 3423 C 323.472 -1.72158 -1.0832 0
M  V30 3424 C 323.827 -0.478218 -1.86362 0
M  V30 3425 O 323.12 0.529152 -1.84148 0
M  V30 3426 C 323.314 -2.92407 -2.05506 0
M  V30 3427 C 323.143 -4.28318 -1.37017 0
M  V30 3428 C 321.913 -4.92832 -1.11558 0
M  V30 3429 C 324.111 -5.08086 -0.797071 0
M  V30 3430 N 322.093 -6.12619 -0.396358 0
M  V30 3431 C 323.464 -6.1965 -0.208336 0
M  V30 3432 C 325.519 -4.92986 -0.697787 0
M  V30 3433 C 324.222 -7.17763 0.470023 0
M  V30 3434 C 326.248 -5.91391 -0.033171 0
M  V30 3435 C 325.61 -7.02292 0.544599 0
M  V30 3436 H 321.709 -0.683017 -0.380805 0
M  V30 3437 H 324.293 -1.91211 -0.366961 0
M  V30 3438 H 322.464 -2.74857 -2.74423 0
M  V30 3439 H 324.196 -2.9951 -2.72169 0
M  V30 3440 H 320.951 -4.52362 -1.40234 0
M  V30 3441 H 321.375 -6.7698 -0.0515119 0
M  V30 3442 H 326.017 -4.07414 -1.13022 0
M  V30 3443 H 323.735 -8.0291 0.914351 0
M  V30 3444 H 327.321 -5.81784 0.0430009 0
M  V30 3445 H 326.201 -7.77129 1.05073 0
M  V30 3446 N 323.704 0.605807 -1.45491 0
M  V30 3447 C 324.614 1.74466 -1.56839 0
M  V30 3448 C 325.63 1.68006 -0.452772 0
M  V30 3449 O 326.806 1.8833 -0.713708 0
M  V30 3450 C 323.871 3.10931 -1.53371 0
M  V30 3451 C 322.932 3.28832 -2.75986 0
M  V30 3452 C 322.165 4.58787 -2.72673 0
M  V30 3453 O 322.388 5.4122 -1.80102 0
M  V30 3454 O 321.322 4.79438 -3.63899 0
M  V30 3455 H 325.148 1.67843 -2.53106 0
M  V30 3456 H 322.733 0.770108 -1.28022 0
M  V30 3457 H 324.615 3.92233 -1.54051 0
M  V30 3458 H 323.29 3.18042 -0.602572 0
M  V30 3459 H 322.197 2.47112 -2.80867 0
M  V30 3460 H 323.53 3.26599 -3.68231 0
M  V30 3461 N 325.182 1.32811 0.848464 0
M  V30 3462 C 326.129 1.22265 1.95755 0
M  V30 3463 C 327.099 0.103413 1.65778 0
M  V30 3464 O 328.284 0.280033 1.88734 0
M  V30 3465 C 325.424 0.958014 3.31536 0
M  V30 3466 C 324.537 2.16262 3.73971 0
M  V30 3467 C 323.672 1.83295 4.98575 0
M  V30 3468 C 322.711 3.00041 5.33518 0
M  V30 3469 N 321.848 2.67125 6.49299 0
M  V30 3470 H 326.688 2.17128 2.04107 0
M  V30 3471 H 324.225 1.07982 0.998913 0
M  V30 3472 H 326.183 0.785052 4.09747 0
M  V30 3473 H 324.813 0.046159 3.22767 0
M  V30 3474 H 323.865 2.44565 2.91362 0
M  V30 3475 H 325.177 3.03572 3.95785 0
M  V30 3476 H 324.331 1.62586 5.84509 0
M  V30 3477 H 323.07 0.932078 4.7871 0
M  V30 3478 H 322.075 3.21374 4.46093 0
M  V30 3479 H 323.3 3.90869 5.55336 0
M  V30 3480 H 321.246 1.79586 6.3094 0
M  V30 3481 H 321.163 3.47965 6.71161 0
M  V30 3482 H 322.431 2.49861 7.3837 0
M  V30 3483 N 326.66 -1.06551 1.16123 0
M  V30 3484 C 328.071 -1.60768 0.949232 0
M  V30 3485 C 328.422 -1.89523 -0.507508 0
M  V30 3486 O 327.547 -1.66671 -1.38021 0
M  V30 3487 C 328.142 -2.92086 1.71671 0
M  V30 3488 C 326.701 -3.43015 1.54977 0
M  V30 3489 C 325.848 -2.16947 1.72711 0
M  V30 3490 H 328.799 -0.895354 1.31031 0
M  V30 3491 H 328.82 -3.6138 1.19099 0
M  V30 3492 H 328.332 -2.71127 2.7769 0
M  V30 3493 H 326.433 -3.69039 0.513873 0
M  V30 3494 H 326.546 -4.18516 2.33198 0
M  V30 3495 H 324.91 -2.27041 1.15431 0
M  V30 3496 H 325.693 -1.98473 2.80113 0
M  V30 3497 N 328.138 -0.959301 -1.25041 0
M  V30 3498 C 329.385 -0.616611 -1.92884 0
M  V30 3499 C 329.713 0.847036 -1.75087 0
M  V30 3500 O 328.968 1.62374 -1.09239 0
M  V30 3501 C 329.267 -0.927136 -3.45165 0
M  V30 3502 C 328.933 -2.37757 -3.83122 0
M  V30 3503 C 327.595 -2.77402 -3.93194 0
M  V30 3504 C 329.947 -3.31929 -4.01836 0
M  V30 3505 C 327.275 -4.10277 -4.19392 0
M  V30 3506 C 329.627 -4.64423 -4.29528 0
M  V30 3507 C 328.291 -5.03857 -4.37818 0
M  V30 3508 H 327.561 -0.225634 -0.705812 0
M  V30 3509 H 330.208 -1.20921 -1.48493 0
M  V30 3510 H 328.513 -0.252195 -3.90987 0
M  V30 3511 H 330.21 -0.6405 -3.95852 0
M  V30 3512 H 326.8 -2.06013 -3.75841 0
M  V30 3513 H 330.984 -3.02488 -3.93465 0
M  V30 3514 H 326.24 -4.40467 -4.24027 0
M  V30 3515 H 330.414 -5.37369 -4.42953 0
M  V30 3516 H 328.041 -6.06843 -4.57871 0
M  V30 3517 N 329.616 1.39756 -0.72842 0
M  V30 3518 C 330.865 1.99879 -0.270407 0
M  V30 3519 C 331.178 1.58449 1.14688 0
M  V30 3520 O 332.384 2.11362 1.70407 0
M  V30 3521 C 330.84 3.57292 -0.43252 0
M  V30 3522 C 330.448 4.07688 -1.85727 0
M  V30 3523 C 332.192 4.24485 -0.0359507 0
M  V30 3524 C 330.099 5.5765 -1.96928 0
M  V30 3525 H 329.029 0.747689 -0.0973472 0
M  V30 3526 H 331.68 1.59837 -0.901355 0
M  V30 3527 H 330.062 3.95097 0.267219 0
M  V30 3528 H 331.236 3.81231 -2.58843 0
M  V30 3529 H 329.551 3.53135 -2.20646 0
M  V30 3530 H 332.148 5.34609 -0.0987484 0
M  V30 3531 H 332.491 4.03915 1.00787 0
M  V30 3532 H 333.024 3.9183 -0.686604 0
M  V30 3533 H 329.763 5.8309 -2.99476 0
M  V30 3534 H 329.283 5.8593 -1.28241 0
M  V30 3535 H 330.962 6.22957 -1.74737 0
M  V30 3536 N 331.094 0.475555 1.50254 0
M  V30 3537 C 332.319 -0.0777042 2.07254 0
M  V30 3538 C 332.744 -1.3235 1.3366 0
M  V30 3539 O 332.102 -1.77152 0.385597 0
M  V30 3540 C 332.15 -0.340169 3.58992 0
M  V30 3541 O 331.254 -1.41982 3.87188 0
M  V30 3542 H 330.595 0.0149556 0.663832 0
M  V30 3543 H 333.125 0.667878 1.93392 0
M  V30 3544 H 333.135 -0.579332 4.03866 0
M  V30 3545 H 331.81 0.570167 4.11973 0
M  V30 3546 H 330.387 -1.16762 3.54148 0
M  V30 3547 N 332.573 -1.56217 0.208337 0
M  V30 3548 C 333.798 -2.02782 -0.435222 0
M  V30 3549 C 334.223 -1.08738 -1.53485 0
M  V30 3550 O 333.581 -0.0731855 -1.81152 0
M  V30 3551 C 333.629 -3.47687 -0.956335 0
M  V30 3552 O 332.733 -3.56773 -2.06849 0
M  V30 3553 H 332.074 -0.656403 -0.100158 0
M  V30 3554 H 334.604 -2.02033 0.3231 0
M  V30 3555 H 334.614 -3.87745 -1.26955 0
M  V30 3556 H 333.289 -4.15624 -0.15143 0
M  V30 3557 H 331.866 -3.28597 -1.76292 0
M  V30 3558 N 334.051 0.0651679 -1.57465 0
M  V30 3559 C 335.467 0.420105 -1.53972 0
M  V30 3560 C 335.667 1.78782 -0.929474 0
M  V30 3561 O 334.723 2.46771 -0.534839 0
M  V30 3562 C 336.036 0.355084 -2.98596 0
M  V30 3563 C 337.584 0.434792 -3.09965 0
M  V30 3564 C 338.059 0.399609 -4.56253 0
M  V30 3565 N 339.55 0.459488 -4.60915 0
M  V30 3566 C 340.285 0.454584 -5.71595 0
M  V30 3567 N 339.781 0.404102 -6.9162 0
M  V30 3568 N 341.574 0.501635 -5.59857 0
M  V30 3569 H 333.725 -0.830328 -1.95498 0
M  V30 3570 H 335.988 -0.312244 -0.895102 0
M  V30 3571 H 335.694 -0.583357 -3.46828 0
M  V30 3572 H 335.568 1.16275 -3.58831 0
M  V30 3573 H 337.955 1.36366 -2.61703 0
M  V30 3574 H 338.036 -0.40157 -2.52628 0
M  V30 3575 H 337.68 -0.525436 -5.05175 0
M  V30 3576 H 337.61 1.25359 -5.11461 0
M  V30 3577 H 340.101 0.502482 -3.74544 0
M  V30 3578 H 340.414 0.404468 -7.71741 0
M  V30 3579 H 338.759 0.37069 -6.94011 0
M  V30 3580 H 341.95 0.538812 -4.64989 0
M  V30 3581 H 342.123 0.494345 -6.46112 0
M  V30 3582 N 335.529 1.53961 0.336706 0
M  V30 3583 C 336.757 1.75483 1.09605 0
M  V30 3584 C 337.172 0.4972 1.82136 0
M  V30 3585 O 336.529 -0.53149 1.74589 0
M  V30 3586 C 336.58 2.93943 2.10428 0
M  V30 3587 O 336.301 4.14842 1.40846 0
M  V30 3588 C 337.802 3.27571 2.98684 0
M  V30 3589 H 335.022 0.586166 0.326574 0
M  V30 3590 H 337.566 2.00808 0.38683 0
M  V30 3591 H 335.721 2.70929 2.76905 0
M  V30 3592 H 336.135 4.81383 2.08255 0
M  V30 3593 H 337.609 4.13791 3.6535 0
M  V30 3594 H 338.086 2.44168 3.65074 0
M  V30 3595 H 338.692 3.52615 2.37787 0
M  V30 3596 N 337.007 -0.598083 1.45811 0
M  V30 3597 C 338.235 -1.38322 1.53866 0
M  V30 3598 C 338.65 -1.87992 0.174479 0
M  V30 3599 O 338.007 -1.62756 -0.825627 0
M  V30 3600 C 338.058 -2.58125 2.53089 0
M  V30 3601 O 337.779 -2.10516 3.84206 0
M  V30 3602 C 339.28 -3.50869 2.70935 0
M  V30 3603 H 336.5 -0.423093 0.520801 0
M  V30 3604 H 339.044 -0.728527 1.91083 0
M  V30 3605 H 337.199 -3.19615 2.18917 0
M  V30 3606 H 337.613 -2.88425 4.38077 0
M  V30 3607 H 339.087 -4.31451 3.44317 0
M  V30 3608 H 339.564 -4.01822 1.77301 0
M  V30 3609 H 340.17 -2.95225 3.06141 0
M  V30 3610 N 338.485 -1.33259 -0.841409 0
M  V30 3611 C 339.896 -1.22066 -1.41269 0
M  V30 3612 C 340.247 0.161479 -1.95534 0
M  V30 3613 O 339.372 1.06094 -1.88608 0
M  V30 3614 C 339.967 -2.20996 -2.568 0
M  V30 3615 C 338.526 -2.13649 -3.09888 0
M  V30 3616 C 337.673 -2.08623 -1.82679 0
M  V30 3617 H 340.624 -1.44895 -0.647395 0
M  V30 3618 H 340.645 -1.81621 -3.34356 0
M  V30 3619 H 340.157 -3.2158 -2.17274 0
M  V30 3620 H 338.258 -1.16359 -3.53965 0
M  V30 3621 H 338.371 -3.04079 -3.70234 0
M  V30 3622 H 336.735 -1.54061 -2.02824 0
M  V30 3623 H 337.518 -3.1101 -1.45353 0
M  V30 3624 N 339.963 1.05934 -1.16686 0
M  V30 3625 C 340.91 2.13499 -0.876748 0
M  V30 3626 C 341.88 1.65162 0.176299 0
M  V30 3627 O 343.065 1.90757 0.0407143 0
M  V30 3628 C 340.205 3.42912 -0.387967 0
M  V30 3629 C 339.318 4.04964 -1.50426 0
M  V30 3630 C 338.453 5.22266 -0.970125 0
M  V30 3631 C 337.492 5.76309 -2.06238 0
M  V30 3632 N 336.629 6.84922 -1.54356 0
M  V30 3633 H 341.469 2.37654 -1.7979 0
M  V30 3634 H 339.006 1.16598 -0.896843 0
M  V30 3635 H 340.964 4.17111 -0.086186 0
M  V30 3636 H 339.594 3.18963 0.496235 0
M  V30 3637 H 338.646 3.28277 -1.92193 0
M  V30 3638 H 339.958 4.41122 -2.32836 0
M  V30 3639 H 339.112 6.03506 -0.621743 0
M  V30 3640 H 337.851 4.87564 -0.115377 0
M  V30 3641 H 336.856 4.93704 -2.41942 0
M  V30 3642 H 338.081 6.13062 -2.92115 0
M  V30 3643 H 336.027 6.52131 -0.711406 0
M  V30 3644 H 335.944 7.20043 -2.30379 0
M  V30 3645 H 337.212 7.69832 -1.22387 0
M  V30 3646 N 341.441 0.965919 1.2453 0
M  V30 3647 C 342.718 0.543777 1.87889 0
M  V30 3648 C 343.098 -0.97909 1.87021 0
M  V30 3649 O 342.446 -1.84969 1.3416 0
M  V30 3650 C 342.656 1.13327 3.30088 0
M  V30 3651 C 344.004 1.21707 4.06783 0
M  V30 3652 O 345.028 1.08566 3.39252 0
M  V30 3653 O 343.887 1.42456 5.27606 0
M  V30 3654 H 340.981 0.181054 0.806938 0
M  V30 3655 H 343.527 1.06007 1.32516 0
M  V30 3656 H 342.299 2.17612 3.25209 0
M  V30 3657 H 341.922 0.600911 3.93033 0
M  V30 3658 N 342.919 -1.39368 0.735821 0
M  V30 3659 C 344.166 -2.00497 0.284123 0
M  V30 3660 C 344.494 -1.58387 -1.12889 0
M  V30 3661 O 343.749 -0.804359 -1.78406 0
M  V30 3662 C 344.048 -3.5583 0.334651 0
M  V30 3663 C 343.714 -4.17593 1.7008 0
M  V30 3664 C 342.376 -4.34176 2.07472 0
M  V30 3665 C 344.728 -4.51848 2.59775 0
M  V30 3666 C 342.056 -4.82304 3.34065 0
M  V30 3667 C 344.408 -5.01384 3.85741 0
M  V30 3668 C 343.072 -5.16175 4.23225 0
M  V30 3669 H 342.342 -0.73367 0.103968 0
M  V30 3670 H 344.989 -1.66683 0.942825 0
M  V30 3671 H 343.294 -3.89674 -0.407625 0
M  V30 3672 H 344.991 -4.00986 -0.0329927 0
M  V30 3673 H 341.581 -4.05087 1.40008 0
M  V30 3674 H 345.765 -4.38653 2.32157 0
M  V30 3675 H 341.021 -4.91941 3.63049 0
M  V30 3676 H 345.195 -5.26863 4.55399 0
M  V30 3677 H 342.822 -5.5323 5.21384 0
M  V30 3678 N 344.397 -0.483516 -1.5 0
M  V30 3679 C 345.627 0.0643896 -2.065 0
M  V30 3680 C 346.035 1.32949 -1.34615 0
M  V30 3681 O 345.378 1.79003 -0.412756 0
M  V30 3682 C 345.44 0.405983 -3.572 0
M  V30 3683 C 345.104 -0.758875 -4.50655 0
M  V30 3684 C 346.101 -1.64445 -4.93208 0
M  V30 3685 C 343.786 -0.952725 -4.93182 0
M  V30 3686 C 345.78 -2.70818 -5.77006 0
M  V30 3687 C 343.467 -2.01966 -5.76761 0
M  V30 3688 C 344.465 -2.89574 -6.18576 0
M  V30 3689 O 344.153 -3.94429 -7.00486 0
M  V30 3690 H 343.885 -0.00934786 -0.675935 0
M  V30 3691 H 346.439 -0.674959 -1.93993 0
M  V30 3692 H 344.669 1.19869 -3.67652 0
M  V30 3693 H 346.358 0.890433 -3.96013 0
M  V30 3694 H 347.124 -1.50643 -4.61012 0
M  V30 3695 H 343.003 -0.280247 -4.60147 0
M  V30 3696 H 346.547 -3.3923 -6.09565 0
M  V30 3697 H 342.444 -2.1577 -6.0837 0
M  V30 3698 H 343.212 -3.91568 -7.1876 0
M  V30 3699 N 345.875 1.56104 -0.216619 0
M  V30 3700 C 347.121 1.98466 0.417033 0
M  V30 3701 C 347.454 1.10403 1.59765 0
M  V30 3702 O 346.729 0.160632 1.93836 0
M  V30 3703 C 347.012 3.49769 0.85637 0
M  V30 3704 C 346.865 4.48606 -0.327546 0
M  V30 3705 C 348.184 4.05339 1.7143 0
M  V30 3706 H 345.303 0.721551 0.150112 0
M  V30 3707 H 347.945 1.87423 -0.311864 0
M  V30 3708 H 346.095 3.5931 1.47745 0
M  V30 3709 H 347.767 4.5108 -0.965618 0
M  V30 3710 H 346.01 4.22682 -0.975805 0
M  V30 3711 H 346.681 5.51995 0.0227149 0
M  V30 3712 H 349.157 3.98712 1.19031 0
M  V30 3713 H 348.033 5.11533 1.99061 0
M  V30 3714 H 348.294 3.51918 2.67593 0
M  V30 3715 N 347.353 -0.0568162 1.57498 0
M  V30 3716 C 348.63 -0.786954 1.79071 0
M  V30 3717 C 349.01 -1.95028 0.80792 0
M  V30 3718 O 348.358 -2.27968 -0.155858 0
M  V30 3719 C 348.568 -1.24594 3.26002 0
M  V30 3720 C 349.916 -1.67323 3.90241 0
M  V30 3721 O 350.94 -1.34124 3.29984 0
M  V30 3722 O 349.799 -2.28842 4.9628 0
M  V30 3723 H 346.893 -0.378262 0.735423 0
M  V30 3724 H 349.439 -0.035734 1.69662 0
M  V30 3725 H 348.211 -0.41423 3.89101 0
M  V30 3726 H 347.834 -2.05803 3.40192 0
M  V30 3727 N 348.832 -1.54138 -0.328536 0
M  V30 3728 C 349.742 -1.86192 -1.42723 0
M  V30 3729 C 350.758 -0.753382 -1.56844 0
M  V30 3730 O 351.934 -1.04718 -1.72035 0
M  V30 3731 C 348.999 -2.07824 -2.77507 0
M  V30 3732 C 348.06 -3.31641 -2.72603 0
M  V30 3733 C 347.293 -3.52232 -4.00959 0
M  V30 3734 O 347.516 -2.7636 -4.9898 0
M  V30 3735 O 346.45 -4.45699 -4.0452 0
M  V30 3736 H 350.276 -2.79608 -1.18547 0
M  V30 3737 H 347.861 -1.3998 -0.522104 0
M  V30 3738 H 349.743 -2.23411 -3.57303 0
M  V30 3739 H 348.418 -1.17596 -3.01584 0
M  V30 3740 H 347.325 -3.21444 -1.91376 0
M  V30 3741 H 348.658 -4.2191 -2.53481 0
M  V30 3742 N 350.31 0.590341 -1.46126 0
M  V30 3743 C 351.258 1.72105 -1.5647 0
M  V30 3744 C 352.252 1.63756 -0.433612 0
M  V30 3745 O 353.458 1.69342 -0.610194 0
M  V30 3746 H 349.833 0.568889 -0.491802 0
M  V30 3747 H 351.804 1.6051 -2.51553 0
M  V30 3748 C 350.553 3.10493 -1.56491 0
M  V30 3749 H 349.876 3.17583 -2.4286 0
M  V30 3750 H 351.316 3.8939 -1.67785 0
M  V30 3751 C 349.775 3.3563 -0.292231 0
M  V30 3752 O 350.305 3.96875 0.620739 0
M  V30 3753 N 348.511 2.90026 -0.182523 0
M  V30 3754 H 348.058 2.40367 -0.926356 0
M  V30 3755 H 348.016 3.07218 0.668152 0
M  V30 3756 N 351.788 1.33704 0.83433 0
M  V30 3757 C 353.016 1.28467 1.62185 0
M  V30 3758 C 353.431 -0.143526 1.88254 0
M  V30 3759 O 352.788 -1.08709 1.4659 0
M  V30 3760 C 352.839 2.06174 2.96942 0
M  V30 3761 O 352.56 3.43422 2.72016 0
M  V30 3762 C 354.061 2.08201 3.91366 0
M  V30 3763 H 351.281 0.4424 0.504503 0
M  V30 3764 H 353.825 1.76145 1.03891 0
M  V30 3765 H 351.98 1.62167 3.51825 0
M  V30 3766 H 352.394 3.83453 3.57861 0
M  V30 3767 H 353.868 2.67017 4.83121 0
M  V30 3768 H 354.345 1.07343 4.2588 0
M  V30 3769 H 354.951 2.52246 3.42421 0
M  V30 3770 N 353.266 -1.05314 1.17247 0
M  V30 3771 C 354.494 -1.81971 0.984593 0
M  V30 3772 C 354.909 -1.82929 -0.467166 0
M  V30 3773 O 354.266 -1.25564 -1.32438 0
M  V30 3774 C 354.317 -3.28143 1.51672 0
M  V30 3775 O 354.038 -3.27347 2.91163 0
M  V30 3776 C 355.539 -4.21493 1.37326 0
M  V30 3777 H 352.759 -0.573455 0.348411 0
M  V30 3778 H 355.303 -1.32808 1.55506 0
M  V30 3779 H 353.458 -3.74582 0.988302 0
M  V30 3780 H 353.872 -4.18824 3.15732 0
M  V30 3781 H 355.346 -5.22043 1.79375 0
M  V30 3782 H 355.823 -4.38031 0.320169 0
M  V30 3783 H 356.429 -3.80909 1.89178 0
M  V30 3784 N 354.744 -0.972509 -1.24016 0
M  V30 3785 C 355.99 -0.637978 -1.92504 0
M  V30 3786 C 356.323 0.825383 -1.75787 0
M  V30 3787 O 355.598 1.59442 -1.11393 0
M  V30 3788 C 355.881 -1.01942 -3.45369 0
M  V30 3789 C 355.734 -2.53983 -3.71231 0
M  V30 3790 C 357.053 -0.55751 -4.36555 0
M  V30 3791 H 354.172 -0.233248 -0.699117 0
M  V30 3792 H 356.814 -1.21238 -1.46292 0
M  V30 3793 H 354.964 -0.530656 -3.84859 0
M  V30 3794 H 356.636 -3.10374 -3.41271 0
M  V30 3795 H 354.879 -2.96968 -3.16216 0
M  V30 3796 H 355.55 -2.75723 -4.78206 0
M  V30 3797 H 358.026 -0.977029 -4.04467 0
M  V30 3798 H 356.902 -0.85292 -5.42233 0
M  V30 3799 H 357.163 0.542328 -4.38761 0
M  V30 3800 N 356.222 1.38976 -0.743202 0
M  V30 3801 C 357.638 1.53984 -0.419664 0
M  V30 3802 C 357.838 1.70837 1.0685 0
M  V30 3803 O 356.894 1.7135 1.8546 0
M  V30 3804 C 358.207 2.75287 -1.20985 0
M  V30 3805 C 359.755 2.89129 -1.19889 0
M  V30 3806 C 360.23 4.13381 -1.97181 0
M  V30 3807 N 361.721 4.20437 -1.94389 0
M  V30 3808 C 362.456 5.15547 -2.50996 0
M  V30 3809 N 361.952 6.16395 -3.16274 0
M  V30 3810 N 363.745 5.07822 -2.40984 0
M  V30 3811 H 355.896 1.26285 -1.7078 0
M  V30 3812 H 358.159 0.612689 -0.723406 0
M  V30 3813 H 357.865 2.69204 -2.26323 0
M  V30 3814 H 357.739 3.68184 -0.819759 0
M  V30 3815 H 360.126 2.947 -0.153606 0
M  V30 3816 H 360.207 1.97272 -1.62841 0
M  V30 3817 H 359.851 4.08572 -3.01714 0
M  V30 3818 H 359.781 5.04298 -1.51629 0
M  V30 3819 H 362.272 3.48205 -1.46839 0
M  V30 3820 H 362.585 6.85443 -3.56915 0
M  V30 3821 H 360.93 6.16758 -3.20367 0
M  V30 3822 H 364.121 4.27973 -1.89622 0
M  V30 3823 H 364.294 5.81767 -2.85397 0
M  V30 3824 N 357.7 0.491464 1.49741 0
M  V30 3825 C 358.946 -0.0565092 2.02721 0
M  V30 3826 C 359.279 -1.37522 1.37118 0
M  V30 3827 O 358.554 -1.87866 0.503645 0
M  V30 3828 C 358.837 -0.219051 3.59433 0
M  V30 3829 C 358.69 1.12211 4.35579 0
M  V30 3830 C 360.009 -0.964157 4.29409 0
M  V30 3831 H 357.128 -0.0190627 0.736753 0
M  V30 3832 H 359.77 0.641021 1.7886 0
M  V30 3833 H 357.92 -0.813165 3.79895 0
M  V30 3834 H 359.592 1.75437 4.26637 0
M  V30 3835 H 357.835 1.71377 3.98513 0
M  V30 3836 H 358.506 0.961794 5.43556 0
M  V30 3837 H 360.982 -0.460378 4.13545 0
M  V30 3838 H 359.858 -1.04671 5.38828 0
M  V30 3839 H 360.119 -2.00563 3.93988 0
M  V30 3840 N 359.178 -1.55987 0.224894 0
M  V30 3841 C 360.589 -1.84553 -0.282345 0
M  V30 3842 C 360.94 -1.14634 -1.59227 0
M  V30 3843 O 360.065 -0.417155 -2.12341 0
M  V30 3844 C 360.66 -3.348 -0.519062 0
M  V30 3845 C 359.219 -3.63671 -0.970604 0
M  V30 3846 C 358.366 -2.77277 -0.0355261 0
M  V30 3847 H 361.317 -1.52245 0.448006 0
M  V30 3848 H 361.338 -3.55187 -1.36463 0
M  V30 3849 H 360.85 -3.8566 0.43449 0
M  V30 3850 H 358.951 -3.1827 -1.9374 0
M  V30 3851 H 359.064 -4.71631 -0.842698 0
M  V30 3852 H 357.428 -2.48846 -0.542927 0
M  V30 3853 H 358.211 -3.30937 0.913003 0
M  V30 3854 N 360.656 0.0484629 -1.57525 0
M  V30 3855 C 361.589 1.08755 -2.00618 0
M  V30 3856 C 362.567 1.36272 -0.887058 0
M  V30 3857 O 363.751 1.49255 -1.15131 0
M  V30 3858 C 360.878 2.42675 -2.36277 0
M  V30 3859 C 359.924 2.31142 -3.58435 0
M  V30 3860 S 360.757 1.68326 -5.08357 0
M  V30 3861 C 361.913 3.03776 -5.47239 0
M  V30 3862 H 362.146 0.720415 -2.88439 0
M  V30 3863 H 359.679 0.257801 -1.52233 0
M  V30 3864 H 361.637 3.19699 -2.57494 0
M  V30 3865 H 360.298 2.76541 -1.48942 0
M  V30 3866 H 359.491 3.29957 -3.80978 0
M  V30 3867 H 359.093 1.62258 -3.36969 0
M  V30 3868 H 361.385 4.00106 -5.46737 0
M  V30 3869 H 362.328 2.85988 -6.47778 0
M  V30 3870 H 362.736 3.05456 -4.74718 0
M  V30 3871 N 362.134 1.5431 0.320358 0
M  V30 3872 C 363.067 1.78769 1.41834 0
M  V30 3873 C 364.045 0.63783 1.49568 0
M  V30 3874 O 365.229 0.875628 1.66928 0
M  V30 3875 C 362.356 1.90712 2.79905 0
M  V30 3876 C 361.402 3.13023 2.89687 0
M  V30 3877 S 362.235 4.71554 2.53766 0
M  V30 3878 C 363.391 4.86408 3.93902 0
M  V30 3879 H 363.624 2.71619 1.20874 0
M  V30 3880 H 361.157 1.45474 0.517377 0
M  V30 3881 H 363.115 1.98279 3.59438 0
M  V30 3882 H 361.776 0.988343 2.98145 0
M  V30 3883 H 360.969 3.18124 3.90913 0
M  V30 3884 H 360.571 3.03803 2.18128 0
M  V30 3885 H 362.863 4.69241 4.88691 0
M  V30 3886 H 363.806 5.88508 3.93782 0
M  V30 3887 H 364.214 4.14689 3.83005 0
M  V30 3888 N 363.613 -0.582584 1.46437 0
M  V30 3889 C 364.543 -1.70187 1.59871 0
M  V30 3890 C 365.524 -1.64066 0.449042 0
M  V30 3891 O 366.709 -1.82081 0.6753 0
M  V30 3892 C 363.839 -3.08827 1.58881 0
M  V30 3893 C 362.793 -3.29779 2.72819 0
M  V30 3894 C 362.119 -4.68947 2.5689 0
M  V30 3895 C 363.419 -3.17601 4.1464 0
M  V30 3896 H 365.113 -1.592 2.53566 0
M  V30 3897 H 362.659 -0.764472 1.22032 0
M  V30 3898 H 364.612 -3.86951 1.66873 0
M  V30 3899 H 363.336 -3.20713 0.617306 0
M  V30 3900 H 361.995 -2.54054 2.64296 0
M  V30 3901 H 361.643 -4.77599 1.57823 0
M  V30 3902 H 361.343 -4.83919 3.33312 0
M  V30 3903 H 362.867 -5.4924 2.66773 0
M  V30 3904 H 364.281 -3.8557 4.24274 0
M  V30 3905 H 362.678 -3.44094 4.9165 0
M  V30 3906 H 363.748 -2.14681 4.34788 0
M  V30 3907 N 365.091 -1.34144 -0.827227 0
M  V30 3908 C 366.023 -1.21206 -1.9453 0
M  V30 3909 C 367.036 -0.140176 -1.62195 0
M  V30 3910 O 368.225 -0.391647 -1.7415 0
M  V30 3911 C 365.325 -0.839141 -3.28347 0
M  V30 3912 C 364.498 -2.0051 -3.88734 0
M  V30 3913 C 363.557 -1.61128 -5.00923 0
M  V30 3914 O 362.583 -2.32726 -5.19449 0
M  V30 3915 N 363.785 -0.522958 -5.7814 0
M  V30 3916 H 366.55 -2.17525 -2.06162 0
M  V30 3917 H 364.111 -1.27043 -1.00358 0
M  V30 3918 H 366.103 -0.557556 -4.00841 0
M  V30 3919 H 364.673 0.0337293 -3.12582 0
M  V30 3920 H 363.893 -2.45166 -3.08686 0
M  V30 3921 H 365.181 -2.78498 -4.25812 0
M  V30 3922 H 364.579 0.0723518 -5.65654 0
M  V30 3923 H 363.136 -0.301089 -6.51104 0
M  V30 3924 N 366.569 1.04691 -1.17803 0
M  V30 3925 C 367.846 1.7472 -0.879328 0
M  V30 3926 C 368.226 2.01812 0.619271 0
M  V30 3927 O 367.574 1.65824 1.57209 0
M  V30 3928 C 367.784 3.03686 -1.71976 0
M  V30 3929 C 369.132 3.77542 -1.94286 0
M  V30 3930 O 370.156 3.13569 -1.68976 0
M  V30 3931 O 369.015 4.92506 -2.36855 0
M  V30 3932 H 366.109 0.760011 -0.326056 0
M  V30 3933 H 368.655 1.10813 -1.28525 0
M  V30 3934 H 367.427 2.79754 -2.73594 0
M  V30 3935 H 367.05 3.75332 -1.31194 0
M  V30 3936 N 368.047 0.979072 1.23499 0
M  V30 3937 C 368.979 0.476271 2.24197 0
M  V30 3938 C 369.992 -0.421166 1.57258 0
M  V30 3939 O 371.181 -0.225515 1.7707 0
M  V30 3940 C 368.281 -0.330503 3.37285 0
M  V30 3941 C 367.454 0.559744 4.33804 0
M  V30 3942 C 366.513 -0.192954 5.25846 0
M  V30 3943 O 365.539 0.416978 5.67671 0
M  V30 3944 N 366.741 -1.47932 5.61334 0
M  V30 3945 H 369.506 1.34211 2.67969 0
M  V30 3946 H 367.067 0.852189 1.37657 0
M  V30 3947 H 369.059 -0.842361 3.95836 0
M  V30 3948 H 367.629 -1.09734 2.92707 0
M  V30 3949 H 366.849 1.25245 3.73775 0
M  V30 3950 H 368.137 1.1665 4.95248 0
M  V30 3951 H 367.535 -1.9964 5.29302 0
M  V30 3952 H 366.092 -1.93664 6.22364 0
M  V30 3953 N 369.525 -1.3858 0.750561 0
M  V30 3954 C 370.435 -2.34278 0.122825 0
M  V30 3955 C 371.451 -1.59116 -0.704131 0
M  V30 3956 O 372.627 -1.91326 -0.628987 0
M  V30 3957 C 369.692 -3.38221 -0.762086 0
M  V30 3958 C 368.753 -4.29227 0.078896 0
M  V30 3959 C 367.986 -5.28205 -0.763874 0
M  V30 3960 O 368.209 -5.34112 -2.00201 0
M  V30 3961 O 367.143 -6.01618 -0.18428 0
M  V30 3962 H 370.969 -2.89649 0.913088 0
M  V30 3963 H 368.554 -1.40374 0.511417 0
M  V30 3964 H 370.436 -4.01872 -1.26793 0
M  V30 3965 H 369.111 -2.85211 -1.5309 0
M  V30 3966 H 368.018 -3.68747 0.630621 0
M  V30 3967 H 369.351 -4.85484 0.810289 0
M  V30 3968 N 371.003 -0.499398 -1.49478 0
M  V30 3969 C 371.953 0.299103 -2.2603 0
M  V30 3970 C 372.937 0.936934 -1.30807 0
M  V30 3971 O 374.129 0.844798 -1.55538 0
M  V30 3972 C 371.258 1.36391 -3.15044 0
M  V30 3973 C 370.344 0.732398 -4.17728 0
M  V30 3974 N 370.735 -0.164028 -5.05534 0
M  V30 3975 C 369.033 0.993162 -4.34801 0
M  V30 3976 C 369.734 -0.525345 -5.79323 0
M  V30 3977 N 368.71 0.106348 -5.43496 0
M  V30 3978 H 372.512 -0.391003 -2.91287 0
M  V30 3979 H 370.026 -0.31537 -1.59308 0
M  V30 3980 H 372.023 1.94939 -3.68516 0
M  V30 3981 H 370.683 2.05571 -2.51338 0
M  V30 3982 H 371.694 -0.534736 -5.15132 0
M  V30 3983 H 368.371 1.67783 -3.82302 0
M  V30 3984 H 369.761 -1.25862 -6.60006 0
M  V30 3985 N 372.481 1.55866 -0.233164 0
M  V30 3986 C 373.431 2.17442 0.685774 0
M  V30 3987 C 374.415 1.12617 1.14918 0
M  V30 3988 O 375.607 1.3857 1.10124 0
M  V30 3989 C 372.736 2.86685 1.88856 0
M  V30 3990 C 371.822 3.98749 1.4443 0
M  V30 3991 N 372.213 5.00744 0.713364 0
M  V30 3992 C 370.511 4.11052 1.73068 0
M  V30 3993 C 371.212 5.79673 0.485205 0
M  V30 3994 N 370.188 5.33454 1.04536 0
M  V30 3995 H 373.99 2.93659 0.119022 0
M  V30 3996 H 371.504 1.62362 -0.0348995 0
M  V30 3997 H 373.501 3.29218 2.55776 0
M  V30 3998 H 372.161 2.11967 2.45967 0
M  V30 3999 H 373.172 5.16613 0.364861 0
M  V30 4000 H 369.849 3.47495 2.31416 0
M  V30 4001 H 371.239 6.71829 -0.097365 0
M  V30 4002 N 373.959 -0.0401083 1.57549 0
M  V30 4003 C 375.205 -0.728793 1.89895 0
M  V30 4004 C 375.56 -1.73551 0.830535 0
M  V30 4005 O 374.853 -1.90914 -0.162007 0
M  V30 4006 C 375.047 -1.44902 3.26708 0
M  V30 4007 C 374.876 -0.513568 4.46758 0
M  V30 4008 C 373.646 -0.138698 5.0511 0
M  V30 4009 C 375.844 0.203341 5.13898 0
M  V30 4010 N 373.826 0.799159 6.08676 0
M  V30 4011 C 375.197 0.997246 6.11927 0
M  V30 4012 C 377.252 0.271459 4.97159 0
M  V30 4013 C 375.955 1.85299 6.95023 0
M  V30 4014 C 377.981 1.11429 5.80808 0
M  V30 4015 C 377.343 1.89615 6.78399 0
M  V30 4016 H 373.442 -0.241125 0.743897 0
M  V30 4017 H 376.026 0.0108016 1.94697 0
M  V30 4018 H 374.197 -2.15914 3.22856 0
M  V30 4019 H 375.929 -2.08921 3.46603 0
M  V30 4020 H 372.684 -0.498496 4.70969 0
M  V30 4021 H 373.108 1.26227 6.65128 0
M  V30 4022 H 377.75 -0.318709 4.21597 0
M  V30 4023 H 375.468 2.454 7.69938 0
M  V30 4024 H 379.054 1.17038 5.69906 0
M  V30 4025 H 377.934 2.53779 7.42001 0
M  V30 4026 N 375.437 -1.54477 -0.31217 0
M  V30 4027 C 376.667 -1.76948 -1.06645 0
M  V30 4028 C 377.075 -0.523593 -1.81811 0
M  V30 4029 O 376.418 0.51578 -1.76311 0
M  V30 4030 C 376.48 -2.91668 -2.10166 0
M  V30 4031 C 376.144 -4.30165 -1.54296 0
M  V30 4032 C 377.141 -5.10603 -0.978793 0
M  V30 4033 C 374.826 -4.76738 -1.58196 0
M  V30 4034 C 376.82 -6.3573 -0.461048 0
M  V30 4035 C 374.507 -6.01831 -1.06034 0
M  V30 4036 C 375.505 -6.81161 -0.500844 0
M  V30 4037 O 375.193 -8.03899 0.0128958 0
M  V30 4038 H 374.925 -0.594088 -0.322546 0
M  V30 4039 H 377.479 -2.02213 -0.360441 0
M  V30 4040 H 375.709 -2.62001 -2.84416 0
M  V30 4041 H 377.398 -3.01817 -2.71406 0
M  V30 4042 H 378.164 -4.75771 -0.941651 0
M  V30 4043 H 374.043 -4.15027 -2.00683 0
M  V30 4044 H 377.587 -6.97596 -0.0236894 0
M  V30 4045 H 373.484 -6.36152 -1.09459 0
M  V30 4046 H 374.252 -8.18437 -0.101457 0
M  V30 4047 N 376.915 0.57481 -1.46744 0
M  V30 4048 C 377.845 1.69337 -1.60771 0
M  V30 4049 C 378.826 1.63825 -0.457736 0
M  V30 4050 O 380.011 1.8172 -0.684947 0
M  V30 4051 C 377.141 3.0798 -1.60517 0
M  V30 4052 C 376.095 3.28327 -2.74564 0
M  V30 4053 C 375.421 4.67578 -2.59373 0
M  V30 4054 C 376.721 3.15398 -4.16319 0
M  V30 4055 H 378.415 1.57853 -2.54407 0
M  V30 4056 H 375.961 0.75799 -1.22436 0
M  V30 4057 H 377.914 3.86061 -1.68923 0
M  V30 4058 H 376.638 3.20381 -0.634305 0
M  V30 4059 H 375.297 2.52649 -2.65639 0
M  V30 4060 H 374.945 4.76755 -1.60353 0
M  V30 4061 H 374.645 4.82144 -3.35873 0
M  V30 4062 H 376.169 5.47817 -2.69682 0
M  V30 4063 H 377.583 3.83315 -4.26313 0
M  V30 4064 H 375.98 3.41482 -4.93468 0
M  V30 4065 H 377.05 2.12372 -4.3592 0
M  V30 4066 N 378.394 1.34581 0.820102 0
M  V30 4067 C 379.344 1.22943 1.92013 0
M  V30 4068 C 380.328 0.127802 1.60392 0
M  V30 4069 O 381.52 0.357737 1.73347 0
M  V30 4070 C 378.649 0.989938 3.28717 0
M  V30 4071 C 377.735 2.13486 3.66449 0
M  V30 4072 N 378.126 3.38625 3.75722 0
M  V30 4073 C 376.424 2.04573 3.96315 0
M  V30 4074 C 377.125 4.13832 4.08801 0
M  V30 4075 N 376.101 3.42451 4.22171 0
M  V30 4076 H 379.903 2.17771 1.97365 0
M  V30 4077 H 377.417 1.2686 1.01392 0
M  V30 4078 H 379.414 0.887462 4.07345 0
M  V30 4079 H 378.074 0.0503691 3.24661 0
M  V30 4080 H 379.085 3.73143 3.59144 0
M  V30 4081 H 375.762 1.1839 4.00362 0
M  V30 4082 H 377.152 5.21909 4.23156 0
M  V30 4083 N 379.872 -1.04064 1.18357 0
M  V30 4084 C 381.149 -1.74252 0.888581 0
M  V30 4085 C 381.529 -2.02138 -0.60856 0
M  V30 4086 O 380.877 -1.66656 -1.56327 0
M  V30 4087 C 381.087 -3.0277 1.73584 0
M  V30 4088 C 382.435 -3.76506 1.96286 0
M  V30 4089 O 383.459 -3.12668 1.70637 0
M  V30 4090 O 382.318 -4.91243 2.39464 0
M  V30 4091 H 379.412 -0.758271 0.330082 0
M  V30 4092 H 381.958 -1.1013 1.2911 0
M  V30 4093 H 380.73 -2.78299 2.75073 0
M  V30 4094 H 380.353 -3.74631 1.33183 0
M  V30 4095 N 381.35 -0.985608 -1.22978 0
M  V30 4096 C 382.766 -0.695104 -1.43668 0
M  V30 4097 C 382.966 0.736866 -1.87543 0
M  V30 4098 O 382.022 1.50868 -2.02473 0
M  V30 4099 C 383.335 -1.69447 -2.48412 0
M  V30 4100 C 384.883 -1.70909 -2.62219 0
M  V30 4101 C 385.358 -2.6969 -3.70178 0
M  V30 4102 N 386.849 -2.6824 -3.77626 0
M  V30 4103 C 387.584 -3.41339 -4.60733 0
M  V30 4104 N 387.08 -4.24015 -5.4789 0
M  V30 4105 N 388.873 -3.30079 -4.54977 0
M  V30 4106 H 381.024 -1.91054 -0.928016 0
M  V30 4107 H 383.287 -0.823553 -0.469536 0
M  V30 4108 H 382.993 -2.7188 -2.23102 0
M  V30 4109 H 382.867 -1.48147 -3.46889 0
M  V30 4110 H 385.254 -0.691785 -2.86877 0
M  V30 4111 H 385.335 -1.96276 -1.6404 0
M  V30 4112 H 384.979 -3.71566 -3.46268 0
M  V30 4113 H 384.909 -2.41595 -4.67909 0
M  V30 4114 H 387.4 -2.08243 -3.15346 0
M  V30 4115 H 387.713 -4.76636 -6.08308 0
M  V30 4116 H 386.058 -4.28104 -5.47496 0
M  V30 4117 H 389.249 -2.64937 -3.85909 0
M  V30 4118 H 389.422 -3.87308 -5.19516 0
M  V30 4119 N 382.828 1.3818 -0.7579 0
M  V30 4120 C 384.058 2.04004 -0.326463 0
M  V30 4121 C 384.466 1.57286 1.05156 0
M  V30 4122 O 383.809 0.743144 1.67997 0
M  V30 4123 C 383.871 3.58444 -0.275402 0
M  V30 4124 C 383.535 4.28237 -1.59569 0
M  V30 4125 C 384.532 4.53312 -2.54566 0
M  V30 4126 C 382.217 4.66341 -1.86631 0
M  V30 4127 C 384.211 5.15531 -3.74842 0
M  V30 4128 C 381.898 5.28283 -3.0718 0
M  V30 4129 C 382.896 5.52814 -4.01106 0
M  V30 4130 O 382.584 6.13465 -5.19534 0
M  V30 4131 H 382.316 0.662026 -0.136739 0
M  V30 4132 H 384.87 1.7777 -1.02893 0
M  V30 4133 H 383.1 3.83667 0.483337 0
M  V30 4134 H 384.789 4.05701 0.127099 0
M  V30 4135 H 385.555 4.24299 -2.34936 0
M  V30 4136 H 381.434 4.46591 -1.14358 0
M  V30 4137 H 384.978 5.34594 -4.48168 0
M  V30 4138 H 380.875 5.56719 -3.26702 0
M  V30 4139 H 381.643 6.31951 -5.20173 0
M  V30 4140 N 384.306 0.507319 1.49211 0
M  V30 4141 C 385.236 -0.256939 2.32082 0
M  V30 4142 C 386.217 -0.956609 1.40652 0
M  V30 4143 O 387.402 -0.946788 1.69557 0
M  V30 4144 C 384.532 -1.31802 3.21318 0
M  V30 4145 C 383.486 -0.737855 4.21592 0
M  V30 4146 C 382.812 -1.89992 4.99807 0
M  V30 4147 C 384.112 0.275325 5.21574 0
M  V30 4148 H 385.806 0.434798 2.96226 0
M  V30 4149 H 383.352 0.210546 1.42452 0
M  V30 4150 H 385.305 -1.86045 3.78107 0
M  V30 4151 H 384.029 -2.03903 2.5513 0
M  V30 4152 H 382.688 -0.217126 3.65956 0
M  V30 4153 H 382.336 -2.60877 4.30061 0
M  V30 4154 H 382.036 -1.51777 5.6766 0
M  V30 4155 H 383.56 -2.44657 5.59442 0
M  V30 4156 H 384.974 -0.179193 5.7302 0
M  V30 4157 H 383.371 0.573649 5.97352 0
M  V30 4158 H 384.441 1.18903 4.70096 0
M  V30 4159 N 385.784 -1.5574 0.241426 0
M  V30 4160 C 387.195 -1.84842 -0.262755 0
M  V30 4161 C 387.546 -1.16317 -1.58003 0
M  V30 4162 O 386.671 -0.439653 -2.11887 0
M  V30 4163 C 387.266 -3.35332 -0.483523 0
M  V30 4164 C 385.825 -3.6468 -0.931977 0
M  V30 4165 C 384.972 -2.77299 -0.0061151 0
M  V30 4166 H 387.923 -1.51761 0.464129 0
M  V30 4167 H 387.944 -3.56615 -1.32688 0
M  V30 4168 H 387.456 -3.85178 0.47537 0
M  V30 4169 H 385.557 -3.20307 -1.90353 0
M  V30 4170 H 385.67 -4.72498 -0.792628 0
M  V30 4171 H 384.034 -2.49408 -0.516503 0
M  V30 4172 H 384.817 -3.2995 0.948052 0
M  V30 4173 N 387.262 0.0317525 -1.57568 0
M  V30 4174 C 388.502 0.727979 -1.90997 0
M  V30 4175 C 388.866 1.72664 -0.839708 0
M  V30 4176 O 390.067 2.47092 -1.05825 0
M  V30 4177 C 388.338 1.38239 -3.29583 0
M  V30 4178 S 389.897 2.10814 -3.84841 0
M  V30 4179 H 386.715 0.241226 -0.668828 0
M  V30 4180 H 389.317 -0.0173037 -1.95492 0
M  V30 4181 H 388.021 0.642288 -4.05343 0
M  V30 4182 H 387.552 2.16628 -3.28384 0
M  V30 4183 H 389.567 3.3792 -3.63352 0
M  V30 4184 N 388.74 1.54641 0.303973 0
M  V30 4185 C 389.965 1.78092 1.06292 0
M  V30 4186 C 390.39 0.537342 1.80262 0
M  V30 4187 O 389.748 -0.511993 1.7392 0
M  V30 4188 C 389.796 2.98612 2.02147 0
M  V30 4189 O 388.9 2.71528 3.10397 0
M  V30 4190 H 388.241 0.589548 0.305497 0
M  V30 4191 H 390.771 2.01716 0.3423 0
M  V30 4192 H 390.781 3.265 2.44667 0
M  V30 4193 H 389.456 3.88785 1.47714 0
M  V30 4194 H 388.033 2.54648 2.72413 0
M  V30 4195 N 390.218 -0.567019 1.47046 0
M  V30 4196 C 391.464 -1.32658 1.53394 0
M  V30 4197 C 391.797 -1.93254 0.19148 0
M  V30 4198 O 391.072 -1.77338 -0.798844 0
M  V30 4199 C 391.355 -2.44412 2.64452 0
M  V30 4200 C 391.208 -1.88749 4.08282 0
M  V30 4201 C 392.527 -3.46387 2.71485 0
M  V30 4202 H 389.646 -0.48098 0.558415 0
M  V30 4203 H 392.288 -0.635481 1.79058 0
M  V30 4204 H 390.438 -3.03363 2.427 0
M  V30 4205 H 392.11 -1.34134 4.41368 0
M  V30 4206 H 390.353 -1.19481 4.17021 0
M  V30 4207 H 391.024 -2.69491 4.81745 0
M  V30 4208 H 393.5 -2.9734 2.91081 0
M  V30 4209 H 392.376 -4.2202 3.50985 0
M  V30 4210 H 392.637 -4.04616 1.78153 0
M  V30 4211 N 391.696 -1.35014 -0.812953 0
M  V30 4212 C 392.626 -1.30069 -1.93919 0
M  V30 4213 C 393.607 -0.176275 -1.69184 0
M  V30 4214 O 394.792 -0.370227 -1.90638 0
M  V30 4215 C 391.922 -1.06547 -3.30552 0
M  V30 4216 C 390.876 -2.15561 -3.69753 0
M  V30 4217 C 390.202 -1.77214 -5.04479 0
M  V30 4218 C 391.502 -3.57476 -3.808 0
M  V30 4219 H 393.196 -2.24303 -1.98314 0
M  V30 4220 H 390.742 -1.07977 -0.952736 0
M  V30 4221 H 392.695 -1.01729 -4.08937 0
M  V30 4222 H 391.419 -0.0875719 -3.26483 0
M  V30 4223 H 390.078 -2.19466 -2.9365 0
M  V30 4224 H 389.726 -0.780589 -4.96906 0
M  V30 4225 H 389.426 -2.50184 -5.31678 0
M  V30 4226 H 390.95 -1.7391 -5.8531 0
M  V30 4227 H 392.364 -3.55929 -4.4943 0
M  V30 4228 H 390.761 -4.29152 -4.19462 0
M  V30 4229 H 391.831 -3.94091 -2.82525 0
M  V30 4230 N 393.175 1.03435 -1.18907 0
M  V30 4231 C 394.591 1.28973 -0.940111 0
M  V30 4232 C 394.791 1.97676 0.390691 0
M  V30 4233 O 393.847 2.26127 1.12352 0
M  V30 4234 C 395.16 2.14221 -2.11021 0
M  V30 4235 C 396.708 2.27547 -2.14922 0
M  V30 4236 C 397.183 3.16164 -3.31367 0
M  V30 4237 N 398.674 3.23752 -3.31269 0
M  V30 4238 C 399.409 3.92495 -4.18014 0
M  V30 4239 N 398.905 4.63515 -5.14904 0
M  V30 4240 N 400.698 3.88838 -4.05908 0
M  V30 4241 H 392.849 0.57252 -2.04538 0
M  V30 4242 H 395.112 0.315184 -0.894071 0
M  V30 4243 H 394.818 1.71054 -3.073 0
M  V30 4244 H 394.692 3.14919 -2.0762 0
M  V30 4245 H 397.079 2.69947 -1.19217 0
M  V30 4246 H 397.16 1.26418 -2.22378 0
M  V30 4247 H 396.804 2.74474 -4.27348 0
M  V30 4248 H 396.734 4.17339 -3.21148 0
M  V30 4249 H 399.225 2.73167 -2.61129 0
M  V30 4250 H 399.538 5.13583 -5.77453 0
M  V30 4251 H 397.883 4.62398 -5.18857 0
M  V30 4252 H 401.074 3.32491 -3.29495 0
M  V30 4253 H 401.247 4.4214 -4.73726 0
M  V30 4254 N 394.653 0.992116 1.22453 0
M  V30 4255 C 395.586 0.486701 2.22949 0
M  V30 4256 C 396.564 -0.45259 1.56174 0
M  V30 4257 O 397.748 -0.378317 1.84665 0
M  V30 4258 C 394.875 -0.294537 3.37417 0
M  V30 4259 C 393.921 0.590628 4.22391 0
M  V30 4260 S 394.754 2.04546 4.94895 0
M  V30 4261 C 395.91 1.27369 6.12803 0
M  V30 4262 H 396.143 1.33828 2.65475 0
M  V30 4263 H 393.676 0.799023 1.32117 0
M  V30 4264 H 395.634 -0.739241 4.03789 0
M  V30 4265 H 394.295 -1.12139 2.934 0
M  V30 4266 H 393.488 -0.0104375 5.03999 0
M  V30 4267 H 393.09 0.972064 3.61147 0
M  V30 4268 H 395.382 0.540943 6.75337 0
M  V30 4269 H 396.325 2.06502 6.7732 0
M  V30 4270 H 396.733 0.787324 5.58983 0
M  V30 4271 N 396.131 -1.37776 0.765217 0
M  V30 4272 C 397.408 -1.93975 0.251596 0
M  V30 4273 C 397.788 -1.69949 -1.25222 0
M  V30 4274 O 397.136 -1.04457 -2.03226 0
M  V30 4275 C 397.346 -3.43487 0.617895 0
M  V30 4276 C 398.694 -4.20564 0.584029 0
M  V30 4277 O 399.718 -3.5182 0.556888 0
M  V30 4278 O 398.577 -5.43138 0.605291 0
M  V30 4279 H 395.671 -0.82509 0.0561806 0
M  V30 4280 H 398.217 -1.47101 0.846128 0
M  V30 4281 H 396.989 -3.5453 1.65602 0
M  V30 4282 H 396.612 -3.976 -0.00403411 0
M  V30 4283 N 397.609 -0.515225 -1.4894 0
M  V30 4284 C 398.839 0.0205735 -2.0659 0
M  V30 4285 C 399.247 1.30064 -1.37405 0
M  V30 4286 O 398.59 1.78087 -0.450632 0
M  V30 4287 C 398.652 0.330124 -3.57981 0
M  V30 4288 C 398.316 -0.854295 -4.48944 0
M  V30 4289 C 399.313 -1.7487 -4.89609 0
M  V30 4290 C 396.998 -1.05712 -4.9105 0
M  V30 4291 C 398.992 -2.82996 -5.71132 0
M  V30 4292 C 396.679 -2.14154 -5.72347 0
M  V30 4293 C 397.677 -3.0263 -6.12294 0
M  V30 4294 O 397.365 -4.09198 -6.91962 0
M  V30 4295 H 397.097 -0.0236833 -0.675585 0
M  V30 4296 H 399.651 -0.715956 -1.92518 0
M  V30 4297 H 397.881 1.12044 -3.70112 0
M  V30 4298 H 399.57 0.806233 -3.97812 0
M  V30 4299 H 400.336 -1.60388 -4.57712 0
M  V30 4300 H 396.215 -0.377788 -4.59449 0
M  V30 4301 H 399.759 -3.52083 -6.02232 0
M  V30 4302 H 395.656 -2.28626 -6.03656 0
M  V30 4303 H 396.424 -4.06726 -7.10293 0
M  V30 4304 N 399.087 1.5561 -0.249682 0
M  V30 4305 C 400.034 2.21496 0.648694 0
M  V30 4306 C 401.004 1.17977 1.16921 0
M  V30 4307 O 402.189 1.46434 1.22318 0
M  V30 4308 C 399.329 2.92039 1.83868 0
M  V30 4309 C 398.442 4.10219 1.35442 0
M  V30 4310 C 397.577 4.6847 2.50419 0
M  V30 4311 C 396.616 5.78893 1.98869 0
M  V30 4312 N 395.753 6.31315 3.07223 0
M  V30 4313 H 400.593 2.97892 0.0801582 0
M  V30 4314 H 398.13 1.47074 0.0278031 0
M  V30 4315 H 400.088 3.31138 2.53778 0
M  V30 4316 H 398.718 2.18111 2.37965 0
M  V30 4317 H 397.77 3.76413 0.54928 0
M  V30 4318 H 399.082 4.89927 0.936649 0
M  V30 4319 H 398.236 5.10158 3.28366 0
M  V30 4320 H 396.975 3.87984 2.95499 0
M  V30 4321 H 395.98 5.3668 1.19393 0
M  V30 4322 H 397.205 6.61232 1.54755 0
M  V30 4323 H 395.151 5.53733 3.51732 0
M  V30 4324 H 395.068 7.06224 2.69784 0
M  V30 4325 H 396.336 6.77662 3.8522 0
M  V30 4326 N 400.565 -0.0233959 1.57583 0
M  V30 4327 C 401.813 -0.711654 1.89156 0
M  V30 4328 C 402.134 -1.75591 0.848096 0
M  V30 4329 O 401.404 -1.95547 -0.117566 0
M  V30 4330 H 399.984 -0.265835 0.698098 0
M  V30 4331 H 402.646 0.0119948 1.94896 0
M  V30 4332 H 401.742 -1.19766 2.88206 0
M  V30 4333 N 402.043 -1.548 -0.295768 0
M  V30 4334 C 403.32 -1.65014 -1.05023 0
M  V30 4335 C 403.7 -0.501805 -2.05049 0
M  V30 4336 O 403.048 0.500869 -2.22943 0
M  V30 4337 C 403.258 -3.03252 -1.72741 0
M  V30 4338 C 404.606 -3.60242 -2.24746 0
M  V30 4339 O 405.63 -3.05737 -1.82765 0
M  V30 4340 O 404.489 -4.55687 -3.01681 0
M  V30 4341 H 401.583 -0.669314 -0.485744 0
M  V30 4342 H 404.129 -1.67144 -0.293438 0
M  V30 4343 H 402.901 -3.7827 -1.00138 0
M  V30 4344 H 402.524 -3.04922 -2.55163 0
M  V30 4345 N 403.521 0.559213 -1.47345 0
M  V30 4346 C 404.484 1.64854 -1.59235 0
M  V30 4347 C 405.484 1.53851 -0.467607 0
M  V30 4348 O 406.674 1.58045 -0.732617 0
M  V30 4349 C 403.806 3.04388 -1.53496 0
M  V30 4350 H 404.999 1.55662 -2.56339 0
M  V30 4351 H 402.552 0.778973 -1.35505 0
M  V30 4352 H 403.287 3.19115 -0.577604 0
M  V30 4353 H 403.072 3.13783 -2.35123 0
M  V30 4354 H 404.562 3.83642 -1.6495 0
M  V30 4355 N 404.999 1.35443 0.805782 0
M  V30 4356 C 406.227 1.31878 1.59423 0
M  V30 4357 C 406.642 -0.103562 1.88516 0
M  V30 4358 O 405.999 -1.05575 1.48863 0
M  V30 4359 C 406.05 2.12426 2.92502 0
M  V30 4360 O 405.771 3.49115 2.6467 0
M  V30 4361 C 407.272 2.16455 3.86862 0
M  V30 4362 H 404.492 0.453002 0.495005 0
M  V30 4363 H 407.036 1.78309 1.00131 0
M  V30 4364 H 405.191 1.69593 3.48306 0
M  V30 4365 H 405.605 3.90957 3.49647 0
M  V30 4366 H 407.079 2.77204 4.77349 0
M  V30 4367 H 407.556 1.16352 4.23508 0
M  V30 4368 H 408.162 2.59453 3.36993 0
M  V30 4369 N 406.477 -1.02803 1.19454 0
M  V30 4370 C 407.723 -1.76478 0.999171 0
M  V30 4371 C 408.056 -1.88456 -0.468828 0
M  V30 4372 O 407.331 -1.40198 -1.34814 0
M  V30 4373 C 407.614 -3.19044 1.66981 0
M  V30 4374 C 407.467 -3.14932 3.21151 0
M  V30 4375 C 408.786 -4.17456 1.39349 0
M  V30 4376 H 405.905 -0.640614 0.364393 0
M  V30 4377 H 408.547 -1.20005 1.47305 0
M  V30 4378 H 406.697 -3.67263 1.2669 0
M  V30 4379 H 408.369 -2.74605 3.70661 0
M  V30 4380 H 406.612 -2.52625 3.52652 0
M  V30 4381 H 407.283 -4.1566 3.63223 0
M  V30 4382 H 409.759 -3.77842 1.74283 0
M  V30 4383 H 408.635 -5.154 1.88823 0
M  V30 4384 H 408.896 -4.40949 0.318813 0
M  V30 4385 N 407.956 -0.998596 -1.21925 0
M  V30 4386 C 409.203 -0.677663 -1.90824 0
M  V30 4387 C 409.531 0.790905 -1.77693 0
M  V30 4388 O 408.786 1.58817 -1.14349 0
M  V30 4389 C 409.085 -1.03648 -3.42041 0
M  V30 4390 C 408.751 -2.49825 -3.75364 0
M  V30 4391 C 407.413 -2.8977 -3.8417 0
M  V30 4392 C 409.765 -3.44545 -3.91073 0
M  V30 4393 C 407.093 -4.23412 -4.06127 0
M  V30 4394 C 409.445 -4.77853 -4.14535 0
M  V30 4395 C 408.109 -5.17531 -4.21566 0
M  V30 4396 H 407.379 -0.247975 -0.698276 0
M  V30 4397 H 410.026 -1.25584 -1.44571 0
M  V30 4398 H 408.331 -0.376457 -3.89987 0
M  V30 4399 H 410.028 -0.766113 -3.93614 0
M  V30 4400 H 406.618 -2.17866 -3.69097 0
M  V30 4401 H 410.802 -3.14853 -3.83642 0
M  V30 4402 H 406.058 -4.53734 -4.09799 0
M  V30 4403 H 410.232 -5.51189 -4.25633 0
M  V30 4404 H 407.859 -6.21102 -4.38333 0
M  V30 4405 N 409.434 1.37368 -0.772513 0
M  V30 4406 C 410.681 1.99673 -0.337182 0
M  V30 4407 C 411.009 1.61324 1.0865 0
M  V30 4408 O 410.264 0.851377 1.7621 0
M  V30 4409 C 410.563 3.54817 -0.428876 0
M  V30 4410 C 410.229 4.12936 -1.81092 0
M  V30 4411 C 408.891 4.28523 -2.1891 0
M  V30 4412 C 411.243 4.44801 -2.71664 0
M  V30 4413 C 408.571 4.73277 -3.46735 0
M  V30 4414 C 410.923 4.90981 -3.98899 0
M  V30 4415 C 409.587 5.04773 -4.36761 0
M  V30 4416 H 408.857 0.730656 -0.123384 0
M  V30 4417 H 411.504 1.64124 -0.986686 0
M  V30 4418 H 409.809 3.90618 0.304167 0
M  V30 4419 H 411.506 4.00933 -0.0733334 0
M  V30 4420 H 408.096 4.01233 -1.50699 0
M  V30 4421 H 412.28 4.32344 -2.43706 0
M  V30 4422 H 407.536 4.82142 -3.75964 0
M  V30 4423 H 411.71 5.14603 -4.69208 0
M  V30 4424 H 409.337 5.39211 -5.35868 0
M  V30 4425 N 410.912 0.523116 1.48665 0
M  V30 4426 C 412.161 -0.01544 2.01694 0
M  V30 4427 C 412.474 -1.35975 1.40606 0
M  V30 4428 O 413.68 -1.98627 1.85093 0
M  V30 4429 C 412.136 -0.0779303 3.59816 0
M  V30 4430 C 411.744 1.26107 4.29885 0
M  V30 4431 C 413.488 -0.565678 4.20714 0
M  V30 4432 C 411.395 1.15954 5.79921 0
M  V30 4433 H 410.325 -0.00954163 0.75394 0
M  V30 4434 H 412.976 0.665865 1.70993 0
M  V30 4435 H 411.358 -0.824165 3.87329 0
M  V30 4436 H 412.532 2.02233 4.14051 0
M  V30 4437 H 410.847 1.68401 3.80828 0
M  V30 4438 H 413.444 -0.6595 5.30617 0
M  V30 4439 H 413.787 -1.56984 3.85567 0
M  V30 4440 H 414.32 0.12467 3.97605 0
M  V30 4441 H 411.059 2.13864 6.19631 0
M  V30 4442 H 410.579 0.439529 5.98187 0
M  V30 4443 H 412.258 0.847361 6.41427 0
M  V30 4444 N 412.39 -1.55475 0.257931 0
M  V30 4445 C 413.32 -2.24815 -0.630912 0
M  V30 4446 C 414.301 -1.23224 -1.17259 0
M  V30 4447 O 415.486 -1.51904 -1.20991 0
M  V30 4448 C 412.616 -2.95609 -1.82298 0
M  V30 4449 C 411.57 -4.03982 -1.41359 0
M  V30 4450 C 410.896 -4.6226 -2.68738 0
M  V30 4451 C 412.196 -5.19109 -0.57648 0
M  V30 4452 H 413.89 -2.99354 -0.0526878 0
M  V30 4453 H 411.436 -1.4398 -0.023901 0
M  V30 4454 H 413.389 -3.42822 -2.45054 0
M  V30 4455 H 412.113 -2.18577 -2.42676 0
M  V30 4456 H 410.772 -3.57555 -0.809324 0
M  V30 4457 H 410.42 -3.81915 -3.27338 0
M  V30 4458 H 410.12 -5.35424 -2.42065 0
M  V30 4459 H 411.644 -5.12212 -3.32372 0
M  V30 4460 H 413.058 -5.62479 -1.10861 0
M  V30 4461 H 411.455 -5.98729 -0.405351 0
M  V30 4462 H 412.525 -4.83174 0.408776 0
M  V30 4463 N 413.868 0.0150385 -1.57593 0
M  V30 4464 C 415.279 0.559832 -1.78109 0
M  V30 4465 C 415.63 1.74814 -0.890756 0
M  V30 4466 O 414.755 2.16216 -0.0892482 0
M  V30 4467 C 415.35 1.02238 -3.23006 0
M  V30 4468 C 413.909 1.51258 -3.44671 0
M  V30 4469 C 413.056 0.456955 -2.73509 0
M  V30 4470 H 416.007 -0.211169 -1.57289 0
M  V30 4471 H 416.028 1.88912 -3.30292 0
M  V30 4472 H 415.54 0.157302 -3.87781 0
M  V30 4473 H 413.641 2.39905 -2.8509 0
M  V30 4474 H 413.754 1.55042 -4.5332 0
M  V30 4475 H 412.118 0.915196 -2.37689 0
M  V30 4476 H 412.901 -0.398896 -3.40975 0
M  V30 4477 N 415.346 1.54954 0.287554 0
M  V30 4478 C 416.294 1.87606 1.37502 0
M  V30 4479 C 417.288 0.751001 1.51843 0
M  V30 4480 O 418.494 0.935169 1.53801 0
M  V30 4481 H 414.869 0.595231 0.459569 0
M  V30 4482 H 416.84 2.78477 1.07206 0
M  V30 4483 C 415.589 2.15183 2.73115 0
M  V30 4484 H 414.912 3.01234 2.62866 0
M  V30 4485 H 416.352 2.4196 3.48183 0
M  V30 4486 C 414.811 0.954686 3.2309 0
M  V30 4487 O 415.341 0.181949 4.01288 0
M  V30 4488 N 413.547 0.756368 2.80584 0
M  V30 4489 H 413.094 1.38643 2.17108 0
M  V30 4490 H 413.052 -0.0430391 3.14371 0
M  V30 4491 N 416.824 -0.551391 1.4764 0
M  V30 4492 C 417.756 -1.67333 1.56628 0
M  V30 4493 C 418.769 -1.56398 0.452045 0
M  V30 4494 O 419.958 -1.6325 0.721926 0
M  V30 4495 C 417.058 -3.05841 1.45994 0
M  V30 4496 C 416.231 -3.42472 2.72088 0
M  V30 4497 C 415.29 -4.60168 2.55209 0
M  V30 4498 O 414.316 -4.64458 3.2904 0
M  V30 4499 N 415.518 -5.57024 1.63416 0
M  V30 4500 H 418.283 -1.60066 2.53375 0
M  V30 4501 H 415.844 -0.738169 1.44093 0
M  V30 4502 H 417.836 -3.8242 1.32428 0
M  V30 4503 H 416.406 -3.07302 0.573071 0
M  V30 4504 H 415.626 -2.55284 3.00373 0
M  V30 4505 H 416.914 -3.63723 3.55785 0
M  V30 4506 H 416.312 -5.56319 1.02594 0
M  V30 4507 H 414.869 -6.32906 1.558 0
M  V30 4508 N 418.302 -1.35869 -0.798587 0
M  V30 4509 C 419.55 -1.29332 -1.55298 0
M  V30 4510 C 419.871 0.129729 -1.94568 0
M  V30 4511 O 419.141 1.06796 -1.6423 0
M  V30 4512 H 417.721 -0.475737 -0.57592 0
M  V30 4513 H 420.383 -1.70062 -0.952093 0
M  V30 4514 H 419.479 -1.91458 -2.46476 0
M  V30 4515 N 419.78 1.02168 -1.19998 0
M  V30 4516 C 420.727 2.10601 -0.944228 0
M  V30 4517 C 421.697 1.65639 0.123664 0
M  V30 4518 O 422.882 1.9079 -0.0199941 0
M  V30 4519 C 420.022 3.41504 -0.496865 0
M  V30 4520 C 419.135 3.99973 -1.63234 0
M  V30 4521 C 418.27 5.18915 -1.13579 0
M  V30 4522 C 417.309 5.69456 -2.24468 0
M  V30 4523 N 416.446 6.79665 -1.76068 0
M  V30 4524 H 421.286 2.31814 -1.8726 0
M  V30 4525 H 418.823 1.13686 -0.933483 0
M  V30 4526 H 420.781 4.16626 -0.218843 0
M  V30 4527 H 419.411 3.2038 0.394508 0
M  V30 4528 H 418.463 3.21997 -2.0254 0
M  V30 4529 H 419.775 4.33492 -2.46752 0
M  V30 4530 H 418.929 6.01222 -0.813429 0
M  V30 4531 H 417.668 4.8695 -0.270434 0
M  V30 4532 H 416.673 4.85757 -2.57526 0
M  V30 4533 H 417.898 6.03459 -3.11472 0
M  V30 4534 H 415.844 6.49538 -0.918516 0
M  V30 4535 H 415.761 7.12349 -2.5317 0
M  V30 4536 H 417.029 7.65549 -1.46817 0
M  V30 4537 N 421.258 1.00505 1.21394 0
M  V30 4538 C 422.191 0.51032 2.22421 0
M  V30 4539 C 423.169 -0.436 1.56645 0
M  V30 4540 O 424.353 -0.358709 1.85055 0
M  V30 4541 C 421.48 -0.258733 3.3771 0
M  V30 4542 C 420.526 0.635395 4.2174 0
M  V30 4543 S 421.359 2.09783 4.92698 0
M  V30 4544 C 422.515 1.33862 6.11418 0
M  V30 4545 H 422.748 1.36637 2.64041 0
M  V30 4546 H 420.281 0.812991 1.31262 0
M  V30 4547 H 422.239 -0.696372 4.0455 0
M  V30 4548 H 420.9 -1.0902 2.94573 0
M  V30 4549 H 420.093 0.0430189 5.03982 0
M  V30 4550 H 419.695 1.01031 3.60095 0
M  V30 4551 H 421.987 0.612541 6.74725 0
M  V30 4552 H 422.93 2.13675 6.75092 0
M  V30 4553 H 423.338 0.846568 5.58116 0
M  V30 4554 N 422.737 -1.36956 0.779787 0
M  V30 4555 C 424.153 -1.52817 0.460342 0
M  V30 4556 C 424.353 -1.7361 -1.02283 0
M  V30 4557 O 423.409 -1.76207 -1.80852 0
M  V30 4558 C 424.722 -2.71983 1.28241 0
M  V30 4559 C 426.27 -2.85849 1.27512 0
M  V30 4560 C 426.745 -4.08008 2.08072 0
M  V30 4561 N 428.236 -4.15135 2.05467 0
M  V30 4562 C 428.971 -5.08711 2.64577 0
M  V30 4563 N 428.467 -6.07792 3.32506 0
M  V30 4564 N 430.26 -5.01254 2.54363 0
M  V30 4565 H 422.411 -1.21713 1.74068 0
M  V30 4566 H 424.674 -0.593294 0.739396 0
M  V30 4567 H 424.38 -2.63109 2.33381 0
M  V30 4568 H 424.254 -3.65882 0.917088 0
M  V30 4569 H 426.641 -2.94189 0.231686 0
M  V30 4570 H 426.722 -1.92886 1.68014 0
M  V30 4571 H 426.366 -4.00429 3.12441 0
M  V30 4572 H 426.296 -5.001 1.64947 0
M  V30 4573 H 428.787 -3.44189 1.5602 0
M  V30 4574 H 429.1 -6.75739 3.74963 0
M  V30 4575 H 427.445 -6.08047 3.36606 0
M  V30 4576 H 430.636 -4.22795 2.00902 0
M  V30 4577 H 430.809 -5.73995 3.00722 0
M  V30 4578 N 424.215 -0.530993 -1.48385 0
M  V30 4579 C 425.125 0.23503 -2.3342 0
M  V30 4580 C 426.141 0.93801 -1.46552 0
M  V30 4581 O 427.317 0.912745 -1.7953 0
M  V30 4582 C 424.382 1.26778 -3.22689 0
M  V30 4583 C 423.443 0.575038 -4.25431 0
M  V30 4584 C 422.676 1.55858 -5.10435 0
M  V30 4585 O 422.899 2.79129 -4.97437 0
M  V30 4586 O 421.833 1.09742 -5.91811 0
M  V30 4587 H 425.659 -0.461794 -3.00169 0
M  V30 4588 H 423.244 -0.291903 -1.46521 0
M  V30 4589 H 425.126 1.86457 -3.77904 0
M  V30 4590 H 423.801 1.94699 -2.586 0
M  V30 4591 H 422.708 -0.0622782 -3.74048 0
M  V30 4592 H 424.041 -0.062253 -4.92161 0
M  V30 4593 N 425.693 1.55336 -0.266172 0
M  V30 4594 C 426.942 1.98574 0.353749 0
M  V30 4595 C 427.255 1.15789 1.57646 0
M  V30 4596 O 428.461 1.49129 2.26876 0
M  V30 4597 C 426.917 3.53403 0.680747 0
M  V30 4598 C 426.525 4.44953 -0.52165 0
M  V30 4599 C 428.269 4.05251 1.26379 0
M  V30 4600 C 426.176 5.91156 -0.169736 0
M  V30 4601 H 425.106 0.741643 0.135949 0
M  V30 4602 H 427.757 1.79743 -0.369421 0
M  V30 4603 H 426.139 3.68001 1.46257 0
M  V30 4604 H 427.313 4.42121 -1.29869 0
M  V30 4605 H 425.628 4.03691 -1.02093 0
M  V30 4606 H 428.225 5.12021 1.54074 0
M  V30 4607 H 428.568 3.53749 2.19471 0
M  V30 4608 H 429.101 3.94057 0.544447 0
M  V30 4609 H 425.84 6.46736 -1.0683 0
M  V30 4610 H 425.36 5.97079 0.570717 0
M  V30 4611 H 427.039 6.4655 0.241245 0
M  V30 4612 N 427.171 -0.0066808 1.57599 0
M  V30 4613 C 428.081 -1.01671 2.11424 0
M  V30 4614 C 429.097 -1.38143 1.05795 0
M  V30 4615 O 430.273 -1.47011 1.37658 0
M  V30 4616 C 427.338 -2.29192 2.60139 0
M  V30 4617 C 426.399 -1.99094 3.80342 0
M  V30 4618 C 425.632 -3.20535 4.26724 0
M  V30 4619 O 425.855 -4.3199 3.72479 0
M  V30 4620 O 424.789 -3.04924 5.18946 0
M  V30 4621 H 428.615 -0.589181 2.9793 0
M  V30 4622 H 426.2 -0.225091 1.47695 0
M  V30 4623 H 428.082 -3.0412 2.917 0
M  V30 4624 H 426.757 -2.71195 1.76733 0
M  V30 4625 H 425.664 -1.21663 3.53764 0
M  V30 4626 H 426.997 -1.61931 4.648 0
M  V30 4627 N 428.649 -1.55105 -0.279332 0
M  V30 4628 C 429.559 -1.90638 -1.36727 0
M  V30 4629 C 430.575 -0.802899 -1.54368 0
M  V30 4630 O 431.751 -1.10138 -1.68616 0
M  V30 4631 C 428.816 -2.16547 -2.70755 0
M  V30 4632 C 427.877 -3.40146 -2.61915 0
M  V30 4633 C 427.11 -3.6481 -3.8955 0
M  V30 4634 O 427.333 -2.92095 -4.89935 0
M  V30 4635 O 426.267 -4.58343 -3.90135 0
M  V30 4636 H 430.093 -2.83237 -1.09591 0
M  V30 4637 H 427.678 -1.4157 -0.477306 0
M  V30 4638 H 429.56 -2.34665 -3.50014 0
M  V30 4639 H 428.235 -1.27131 -2.9769 0
M  V30 4640 H 427.142 -3.2737 -1.81052 0
M  V30 4641 H 428.475 -4.29761 -2.3993 0
M  V30 4642 N 430.127 0.543554 -1.4793 0
M  V30 4643 C 431.373 1.30201 -1.55485 0
M  V30 4644 C 431.706 1.92925 -0.222201 0
M  V30 4645 O 430.981 1.78586 0.77053 0
M  V30 4646 C 431.264 2.40174 -2.68307 0
M  V30 4647 C 431.117 1.8223 -4.11233 0
M  V30 4648 C 432.436 3.42024 -2.76961 0
M  V30 4649 H 429.555 0.472036 -0.565996 0
M  V30 4650 H 432.197 0.606914 -1.80046 0
M  V30 4651 H 430.347 2.99463 -2.47495 0
M  V30 4652 H 432.019 1.27096 -4.43446 0
M  V30 4653 H 430.262 1.12832 -4.18869 0
M  V30 4654 H 430.933 2.61793 -4.85972 0
M  V30 4655 H 433.409 2.92672 -2.95774 0
M  V30 4656 H 432.285 4.16383 -3.57654 0
M  V30 4657 H 432.546 4.0173 -1.84568 0
M  V30 4658 N 431.605 1.3629 0.791371 0
M  V30 4659 C 432.535 1.33137 1.91825 0
M  V30 4660 C 433.516 0.203168 1.68882 0
M  V30 4661 O 434.701 0.400509 1.90025 0
M  V30 4662 C 431.831 1.11793 3.28816 0
M  V30 4663 C 430.785 2.21417 3.66277 0
M  V30 4664 C 430.111 1.85218 5.01596 0
M  V30 4665 C 431.411 3.63489 3.75064 0
M  V30 4666 H 433.105 2.2743 1.9472 0
M  V30 4667 H 430.651 1.09479 0.935437 0
M  V30 4668 H 432.604 1.08222 4.07266 0
M  V30 4669 H 431.328 0.139501 3.26302 0
M  V30 4670 H 429.987 2.2411 2.90121 0
M  V30 4671 H 429.635 0.859544 4.95602 0
M  V30 4672 H 429.335 2.58611 5.27631 0
M  V30 4673 H 430.859 1.832 5.82469 0
M  V30 4674 H 432.273 3.63034 4.43711 0
M  V30 4675 H 430.67 4.35771 4.12582 0
M  V30 4676 H 431.74 3.98536 2.76219 0
M  V30 4677 N 433.083 -1.0153 1.20538 0
M  V30 4678 C 434.311 -1.78746 1.04199 0
M  V30 4679 C 434.726 -1.84323 -0.408733 0
M  V30 4680 O 434.083 -1.29714 -1.28377 0
M  V30 4681 C 434.134 -3.23152 1.62035 0
M  V30 4682 O 433.855 -3.17918 3.0143 0
M  V30 4683 C 435.356 -4.16911 1.50666 0
M  V30 4684 H 432.576 -0.56208 0.366479 0
M  V30 4685 H 435.12 -1.27794 1.59653 0
M  V30 4686 H 433.275 -3.71248 1.10697 0
M  V30 4687 H 433.689 -4.08567 3.28897 0
M  V30 4688 H 435.163 -5.16072 1.95892 0
M  V30 4689 H 435.64 -4.36791 0.459363 0
M  V30 4690 H 436.246 -3.74698 2.01201 0
M  V30 4691 N 434.561 -1.01147 -1.20859 0
M  V30 4692 C 435.972 -0.730205 -1.71828 0
M  V30 4693 C 436.323 0.751662 -1.8123 0
M  V30 4694 O 435.448 1.58686 -1.47132 0
M  V30 4695 C 436.043 -1.31885 -3.12077 0
M  V30 4696 C 434.602 -1.08656 -3.60376 0
M  V30 4697 C 433.749 -1.42769 -2.37723 0
M  V30 4698 H 436.7 -1.18158 -1.05945 0
M  V30 4699 H 436.721 -0.706793 -3.73878 0
M  V30 4700 H 436.233 -2.39737 -3.05201 0
M  V30 4701 H 434.334 -0.0254814 -3.72591 0
M  V30 4702 H 434.447 -1.76301 -4.45483 0
M  V30 4703 H 432.811 -0.846603 -2.40218 0
M  V30 4704 H 433.594 -2.51666 -2.33493 0
M  V30 4705 N 436.039 1.36541 -0.78704 0
M  V30 4706 C 436.949 2.3387 -0.184896 0
M  V30 4707 C 437.965 1.60927 0.661697 0
M  V30 4708 O 439.141 1.92927 0.57804 0
M  V30 4709 C 436.206 3.40122 0.672145 0
M  V30 4710 C 435.267 4.28867 -0.19267 0
M  V30 4711 C 434.5 5.30045 0.623561 0
M  V30 4712 O 434.723 5.39232 1.8597 0
M  V30 4713 O 433.657 6.01895 0.0247068 0
M  V30 4714 H 437.483 2.87126 -0.989562 0
M  V30 4715 H 435.068 1.38969 -0.548455 0
M  V30 4716 H 436.95 4.05093 1.16094 0
M  V30 4717 H 435.625 2.89169 1.45474 0
M  V30 4718 H 434.532 3.66945 -0.728166 0
M  V30 4719 H 435.865 4.83165 -0.938722 0
M  V30 4720 N 437.518 0.538854 1.48102 0
M  V30 4721 C 438.451 -0.266495 2.26639 0
M  V30 4722 C 439.429 -0.93687 1.32897 0
M  V30 4723 O 440.613 -0.959507 1.62252 0
M  V30 4724 C 437.74 -1.37814 3.09394 0
M  V30 4725 C 436.786 -0.818247 4.18577 0
M  V30 4726 S 437.619 0.320848 5.34538 0
M  V30 4727 C 438.775 -0.793059 6.20855 0
M  V30 4728 H 439.008 0.399994 2.94597 0
M  V30 4729 H 436.541 0.324808 1.50945 0
M  V30 4730 H 438.499 -2.01488 3.57649 0
M  V30 4731 H 437.16 -2.01639 2.40833 0
M  V30 4732 H 436.353 -1.65247 4.7614 0
M  V30 4733 H 435.955 -0.258036 3.73109 0
M  V30 4734 H 438.247 -1.68961 6.56093 0
M  V30 4735 H 439.19 -0.255204 7.0764 0
M  V30 4736 H 439.598 -1.07746 5.54122 0
M  V30 4737 N 438.996 -1.55193 0.274407 0
M  V30 4738 C 439.926 -2.25471 -0.607032 0
M  V30 4739 C 440.907 -1.24461 -1.15946 0
M  V30 4740 O 442.092 -1.53179 -1.19373 0
M  V30 4741 C 439.222 -2.97526 -1.79153 0
M  V30 4742 C 438.176 -4.05459 -1.37067 0
M  V30 4743 C 437.502 -4.65084 -2.6382 0
M  V30 4744 C 438.802 -5.19691 -0.521389 0
M  V30 4745 H 440.496 -2.99393 -0.0209343 0
M  V30 4746 H 438.042 -1.43997 -0.00862866 0
M  V30 4747 H 439.995 -3.45402 -2.41404 0
M  V30 4748 H 438.719 -2.21138 -2.40344 0
M  V30 4749 H 437.378 -3.58393 -0.771355 0
M  V30 4750 H 437.026 -3.85365 -3.23268 0
M  V30 4751 H 436.726 -5.37961 -2.36372 0
M  V30 4752 H 438.25 -5.15708 -3.26921 0
M  V30 4753 H 439.664 -5.63623 -1.04889 0
M  V30 4754 H 438.061 -5.99126 -0.341825 0
M  V30 4755 H 439.131 -4.82713 0.46 0
M  V30 4756 N 440.474 -0.00167713 -1.576 0
M  V30 4757 C 441.407 1.02317 -2.03977 0
M  V30 4758 C 442.385 1.33381 -0.929963 0
M  V30 4759 O 443.569 1.45517 -1.19822 0
M  V30 4760 C 440.696 2.35035 -2.43878 0
M  V30 4761 C 439.742 2.19621 -3.65607 0
M  V30 4762 S 440.575 1.52068 -5.13455 0
M  V30 4763 C 441.731 2.86212 -5.56627 0
M  V30 4764 H 441.964 0.628285 -2.90585 0
M  V30 4765 H 439.497 0.209239 -1.52976 0
M  V30 4766 H 441.455 3.11345 -2.67534 0
M  V30 4767 H 440.116 2.71663 -1.57665 0
M  V30 4768 H 439.309 3.1767 -3.91282 0
M  V30 4769 H 438.911 1.51455 -3.41961 0
M  V30 4770 H 441.203 3.82509 -5.59189 0
M  V30 4771 H 442.146 2.65235 -6.56549 0
M  V30 4772 H 442.554 2.90199 -4.84195 0
M  V30 4773 N 441.952 1.55251 0.271103 0
M  V30 4774 C 443.368 1.47133 0.618393 0
M  V30 4775 C 443.568 0.686994 1.89427 0
M  V30 4776 O 442.624 0.206609 2.51653 0
M  V30 4777 C 443.937 2.91361 0.743593 0
M  V30 4778 C 445.485 3.01587 0.837522 0
M  V30 4779 C 445.96 4.47073 0.994483 0
M  V30 4780 N 447.451 4.50909 1.05996 0
M  V30 4781 C 448.186 5.60698 1.20024 0
M  V30 4782 N 447.682 6.80348 1.30759 0
M  V30 4783 N 449.475 5.48444 1.23149 0
M  V30 4784 H 441.626 2.04698 -0.566784 0
M  V30 4785 H 443.889 0.928319 -0.192165 0
M  V30 4786 H 443.595 3.51483 -0.123493 0
M  V30 4787 H 443.469 3.40484 1.62328 0
M  V30 4788 H 445.856 2.4156 1.69507 0
M  V30 4789 H 445.937 2.55713 -0.0668086 0
M  V30 4790 H 445.581 5.07703 0.141582 0
M  V30 4791 H 445.511 4.90605 1.91349 0
M  V30 4792 H 448.002 3.6472 0.989316 0
M  V30 4793 H 448.315 7.59772 1.41303 0
M  V30 4794 H 446.66 6.83156 1.27761 0
M  V30 4795 H 449.851 4.53907 1.14394 0
M  V30 4796 H 450.024 6.34049 1.33738 0
M  V30 4797 N 443.43 -0.535701 1.48216 0
M  V30 4798 C 444.676 -1.2913 1.57153 0
M  V30 4799 C 445.031 -1.90899 0.239823 0
M  V30 4800 O 444.324 -1.76022 -0.756748 0
M  V30 4801 C 444.518 -2.4068 2.64212 0
M  V30 4802 C 444.347 -1.89844 4.07663 0
M  V30 4803 C 443.117 -1.72708 4.74869 0
M  V30 4804 C 445.315 -1.43031 4.94011 0
M  V30 4805 N 443.297 -1.16437 6.02757 0
M  V30 4806 C 444.668 -0.986691 6.12098 0
M  V30 4807 C 446.723 -1.3128 4.80281 0
M  V30 4808 C 445.426 -0.437231 7.1797 0
M  V30 4809 C 447.452 -0.777346 5.86269 0
M  V30 4810 C 446.814 -0.343774 7.03561 0
M  V30 4811 H 442.913 -0.463753 0.629648 0
M  V30 4812 H 445.497 -0.604736 1.8507 0
M  V30 4813 H 443.668 -3.06839 2.38126 0
M  V30 4814 H 445.4 -3.07706 2.62867 0
M  V30 4815 H 442.155 -1.96061 4.31111 0
M  V30 4816 H 442.579 -0.903281 6.70947 0
M  V30 4817 H 447.221 -1.63408 3.89946 0
M  V30 4818 H 444.939 -0.103621 8.08034 0
M  V30 4819 H 448.525 -0.689688 5.77698 0
M  V30 4820 H 447.405 0.0641219 7.84174 0
M  V30 4821 N 444.908 -1.36708 -0.784132 0
M  V30 4822 C 445.856 -1.31533 -1.91838 0
M  V30 4823 C 446.85 -0.206205 -1.6814 0
M  V30 4824 O 448.056 -0.373519 -1.76082 0
M  V30 4825 H 444.431 -0.409613 -0.630651 0
M  V30 4826 H 446.402 -2.2731 -1.9332 0
M  V30 4827 C 445.151 -1.12679 -3.28936 0
M  V30 4828 H 444.474 -1.97274 -3.4774 0
M  V30 4829 H 445.914 -1.13106 -4.08636 0
M  V30 4830 C 444.373 0.168281 -3.36479 0
M  V30 4831 O 444.903 1.15625 -3.84699 0
M  V30 4832 N 443.109 0.214762 -2.89805 0
M  V30 4833 H 442.656 -0.589852 -2.50756 0
M  V30 4834 H 442.614 1.08094 -2.95234 0
M  V30 4835 N 446.386 1.0089 -1.21074 0
M  V30 4836 C 447.334 2.11707 -0.963476 0
M  V30 4837 C 448.328 1.69172 0.0879032 0
M  V30 4838 O 449.534 1.79889 -0.0631415 0
M  V30 4839 H 445.909 0.692026 -0.294287 0
M  V30 4840 H 447.88 2.29743 -1.90422 0
M  V30 4841 C 446.629 3.43473 -0.540509 0
M  V30 4842 H 445.952 3.76634 -1.34114 0
M  V30 4843 H 447.392 4.22044 -0.406777 0
M  V30 4844 C 445.851 3.2849 0.748079 0
M  V30 4845 O 446.381 3.58883 1.8046 0
M  V30 4846 N 444.587 2.81715 0.713081 0
M  V30 4847 H 444.134 2.5718 -0.146973 0
M  V30 4848 H 444.092 2.72071 1.57558 0
M  V30 4849 N 447.864 1.01787 1.20321 0
M  V30 4850 C 448.794 0.609625 2.25401 0
M  V30 4851 C 449.775 -0.375951 1.65893 0
M  V30 4852 O 450.96 -0.261101 1.92437 0
M  V30 4853 C 448.09 -0.0515995 3.47262 0
M  V30 4854 C 447.044 0.855095 4.19371 0
M  V30 4855 C 446.37 0.0595757 5.34667 0
M  V30 4856 C 447.67 2.16374 4.75373 0
M  V30 4857 H 449.364 1.48803 2.59804 0
M  V30 4858 H 446.91 0.716934 1.24884 0
M  V30 4859 H 448.863 -0.348764 4.19954 0
M  V30 4860 H 447.587 -0.964726 3.12027 0
M  V30 4861 H 446.246 1.13628 3.48546 0
M  V30 4862 H 445.894 -0.85524 4.95676 0
M  V30 4863 H 445.594 0.663406 5.83843 0
M  V30 4864 H 447.118 -0.231105 6.10162 0
M  V30 4865 H 448.532 1.92885 5.39878 0
M  V30 4866 H 446.929 2.71853 5.34991 0
M  V30 4867 H 447.999 2.82589 3.94045 0
M  V30 4868 N 449.342 -1.36122 0.79427 0
M  V30 4869 C 450.272 -2.32551 0.210328 0
M  V30 4870 C 451.253 -1.56884 -0.657386 0
M  V30 4871 O 452.438 -1.85014 -0.590207 0
M  V30 4872 C 449.568 -3.41128 -0.651819 0
M  V30 4873 C 448.522 -4.27842 0.116395 0
M  V30 4874 C 447.848 -5.2763 -0.86666 0
M  V30 4875 C 449.148 -5.05647 1.30837 0
M  V30 4876 H 450.842 -2.81636 1.01594 0
M  V30 4877 H 448.388 -1.35407 0.489981 0
M  V30 4878 H 450.341 -4.07581 -1.07031 0
M  V30 4879 H 449.065 -2.90622 -1.49019 0
M  V30 4880 H 447.724 -3.62952 0.515915 0
M  V30 4881 H 447.372 -4.73395 -1.70019 0
M  V30 4882 H 447.072 -5.86514 -0.35705 0
M  V30 4883 H 448.596 -5.96955 -1.28361 0
M  V30 4884 H 450.01 -5.65113 0.965393 0
M  V30 4885 H 448.407 -5.73967 1.75161 0
M  V30 4886 H 449.477 -4.37006 2.10128 0
M  V30 4887 N 450.82 -0.546701 -1.47814 0
M  V30 4888 C 452.236 -0.205717 -1.58269 0
M  V30 4889 C 452.436 1.29153 -1.54667 0
M  V30 4890 O 451.492 2.07098 -1.44453 0
M  V30 4891 C 452.805 -0.823065 -2.89216 0
M  V30 4892 C 454.353 -0.793328 -3.02779 0
M  V30 4893 C 454.828 -1.38955 -4.36412 0
M  V30 4894 N 456.319 -1.35227 -4.43021 0
M  V30 4895 C 457.054 -1.78333 -5.44963 0
M  V30 4896 N 456.55 -2.29246 -6.53772 0
M  V30 4897 N 458.343 -1.69467 -5.35945 0
M  V30 4898 H 450.494 -1.5196 -1.48398 0
M  V30 4899 H 452.757 -0.633078 -0.705632 0
M  V30 4900 H 452.463 -1.8749 -2.97558 0
M  V30 4901 H 452.337 -0.309915 -3.75925 0
M  V30 4902 H 454.724 0.249784 -2.94041 0
M  V30 4903 H 454.805 -1.34412 -2.17639 0
M  V30 4904 H 454.449 -2.43168 -4.45906 0
M  V30 4905 H 454.379 -0.814291 -5.20266 0
M  V30 4906 H 456.87 -0.979739 -3.64979 0
M  V30 4907 H 457.183 -2.60089 -7.27718 0
M  V30 4908 H 455.528 -2.3325 -6.5469 0
M  V30 4909 H 458.719 -1.29477 -4.49837 0
M  V30 4910 H 458.892 -2.03381 -6.15256 0
M  V30 4911 N 452.299 1.55045 -0.282633 0
M  V30 4912 C 453.246 2.22822 0.601566 0
M  V30 4913 C 454.216 1.20431 1.14392 0
M  V30 4914 O 455.401 1.48996 1.19184 0
M  V30 4915 C 452.541 2.95873 1.77632 0
M  V30 4916 C 451.654 4.12999 1.26711 0
M  V30 4917 C 450.789 4.73676 2.40426 0
M  V30 4918 C 449.828 5.82981 1.86545 0
M  V30 4919 N 448.965 6.3769 2.93762 0
M  V30 4920 H 453.805 2.97995 0.0169528 0
M  V30 4921 H 451.342 1.471 -0.00339964 0
M  V30 4922 H 453.3 3.36447 2.46697 0
M  V30 4923 H 451.93 2.2311 2.33285 0
M  V30 4924 H 450.982 3.77494 0.469314 0
M  V30 4925 H 452.294 4.91803 0.832518 0
M  V30 4926 H 451.448 5.17008 3.17471 0
M  V30 4927 H 450.187 3.94164 2.87203 0
M  V30 4928 H 449.192 5.39092 1.07983 0
M  V30 4929 H 450.417 6.64366 1.40694 0
M  V30 4930 H 448.363 5.61069 3.39908 0
M  V30 4931 H 448.28 7.11788 2.54744 0
M  V30 4932 H 449.548 6.8568 3.7076 0
M  V30 4933 N 453.777 0.010035 1.57597 0
M  V30 4934 C 455.193 -0.346164 1.55801 0
M  V30 4935 C 455.393 -1.74144 1.01371 0
M  V30 4936 O 454.449 -2.43938 0.651968 0
M  V30 4937 C 455.762 -0.212216 2.9995 0
M  V30 4938 C 457.31 -0.286409 3.11687 0
M  V30 4939 C 457.785 -0.18147 4.5764 0
M  V30 4940 N 459.276 -0.239056 4.62583 0
M  V30 4941 C 460.011 -0.181351 5.73113 0
M  V30 4942 N 459.507 -0.073661 6.92761 0
M  V30 4943 N 461.3 -0.233949 5.61613 0
M  V30 4944 H 453.451 0.922657 1.91313 0
M  V30 4945 H 455.714 0.354595 0.879185 0
M  V30 4946 H 455.42 0.748169 3.4365 0
M  V30 4947 H 455.294 -0.990224 3.6397 0
M  V30 4948 H 457.681 -1.23724 2.67911 0
M  V30 4949 H 457.762 0.521645 2.50425 0
M  V30 4950 H 457.406 0.765863 5.02093 0
M  V30 4951 H 457.336 -1.00814 5.1686 0
M  V30 4952 H 459.827 -0.32321 3.76515 0
M  V30 4953 H 460.14 -0.0358003 7.72792 0
M  V30 4954 H 458.485 -0.0391461 6.94989 0
M  V30 4955 H 461.676 -0.316347 4.6703 0
M  V30 4956 H 461.849 -0.185514 6.47734 0
M  V30 4957 N 455.255 -1.55392 -0.262866 0
M  V30 4958 C 456.203 -1.8977 -1.345 0
M  V30 4959 C 457.197 -0.775063 -1.50629 0
M  V30 4960 O 458.403 -0.959519 -1.52293 0
M  V30 4961 H 454.778 -0.602467 -0.450041 0
M  V30 4962 H 456.749 -2.80147 -1.02762 0
M  V30 4963 C 455.498 -2.19501 -2.69657 0
M  V30 4964 H 454.821 -3.05378 -2.5804 0
M  V30 4965 H 456.261 -2.47469 -3.44289 0
M  V30 4966 C 454.72 -1.00597 -3.21531 0
M  V30 4967 O 455.25 -0.245768 -4.00947 0
M  V30 4968 N 453.456 -0.800911 -2.79345 0
M  V30 4969 H 453.003 -1.42079 -2.14875 0
M  V30 4970 H 452.961 -0.00697996 -3.14399 0
M  V30 4971 N 456.733 0.527833 -1.48498 0
M  V30 4972 C 457.98 1.28354 -1.56625 0
M  V30 4973 C 458.308 1.93 -0.241096 0
M  V30 4974 O 457.563 1.79967 0.768798 0
M  V30 4975 C 457.862 2.39275 -2.65485 0
M  V30 4976 C 457.528 1.92268 -4.07853 0
M  V30 4977 C 456.19 1.79166 -4.46602 0
M  V30 4978 C 458.542 1.56771 -4.97064 0
M  V30 4979 C 455.87 1.28905 -5.72364 0
M  V30 4980 C 458.222 1.07972 -6.23318 0
M  V30 4981 C 456.886 0.934887 -6.60921 0
M  V30 4982 H 456.156 0.469682 -0.573131 0
M  V30 4983 H 458.803 0.588781 -1.82224 0
M  V30 4984 H 457.108 3.1443 -2.33754 0
M  V30 4985 H 458.805 2.974 -2.68988 0
M  V30 4986 H 455.395 2.03417 -3.77252 0
M  V30 4987 H 459.579 1.65753 -4.67803 0
M  V30 4988 H 454.835 1.16381 -6.00221 0
M  V30 4989 H 459.009 0.795775 -6.91838 0
M  V30 4990 H 456.636 0.543231 -7.58257 0
M  V30 4991 N 458.211 1.37122 0.776871 0
M  V30 4992 C 459.441 1.35034 1.56363 0
M  V30 4993 C 459.849 -0.0674681 1.8908 0
M  V30 4994 O 459.192 -1.03826 1.51545 0
M  V30 4995 C 459.254 2.11894 2.90415 0
M  V30 4996 C 458.918 3.60897 2.80362 0
M  V30 4997 C 459.915 4.54887 2.51742 0
M  V30 4998 C 457.6 4.03951 2.98545 0
M  V30 4999 C 459.594 5.89909 2.41426 0
M  V30 5000 C 457.281 5.3906 2.87849 0
M  V30 5001 C 458.279 6.31852 2.5933 0
M  V30 5002 O 457.967 7.64479 2.48651 0
M  V30 5003 H 457.699 0.464402 0.49123 0
M  V30 5004 H 460.253 1.80992 0.971127 0
M  V30 5005 H 458.483 1.60618 3.51765 0
M  V30 5006 H 460.172 2.02505 3.51776 0
M  V30 5007 H 460.938 4.22934 2.37385 0
M  V30 5008 H 456.817 3.3209 3.19746 0
M  V30 5009 H 460.361 6.62304 2.19086 0
M  V30 5010 H 456.258 5.70617 3.01773 0
M  V30 5011 H 457.026 7.74742 2.64039 0
M  V30 5012 N 459.689 -1.00246 1.21608 0
M  V30 5013 C 460.636 -2.09073 0.977613 0
M  V30 5014 C 461.606 -1.65815 -0.097297 0
M  V30 5015 O 462.791 -1.90734 0.0503445 0
M  V30 5016 C 459.931 -3.40671 0.551133 0
M  V30 5017 C 459.044 -3.97326 1.69576 0
M  V30 5018 C 458.179 -5.17043 1.2182 0
M  V30 5019 C 457.218 -5.65813 2.335 0
M  V30 5020 N 456.355 -6.76778 1.86859 0
M  V30 5021 H 461.195 -2.28806 1.90924 0
M  V30 5022 H 458.732 -1.12186 0.951452 0
M  V30 5023 H 460.69 -4.16225 0.285097 0
M  V30 5024 H 459.32 -3.20967 -0.343489 0
M  V30 5025 H 458.372 -3.18734 2.07637 0
M  V30 5026 H 459.684 -4.29511 2.53617 0
M  V30 5027 H 458.838 -5.99852 0.908975 0
M  V30 5028 H 457.577 -4.86458 0.347869 0
M  V30 5029 H 456.582 -4.81599 2.65222 0
M  V30 5030 H 457.807 -5.98427 3.21033 0
M  V30 5031 H 455.753 -6.47994 1.02174 0
M  V30 5032 H 455.67 -7.08231 2.64471 0
M  V30 5033 H 456.938 -7.63116 1.58978 0
M  V30 5034 N 461.167 -1.02423 -1.1978 0
M  V30 5035 C 462.114 -0.601023 -2.22837 0
M  V30 5036 C 463.084 0.382801 -1.61629 0
M  V30 5037 O 464.269 0.280514 -1.88727 0
M  V30 5038 C 461.409 0.0467755 -3.45068 0
M  V30 5039 C 460.522 -0.98253 -4.20678 0
M  V30 5040 C 459.657 -0.304982 -5.30324 0
M  V30 5041 C 458.696 -1.32052 -5.97686 0
M  V30 5042 N 457.833 -0.669105 -6.98904 0
M  V30 5043 H 462.673 -1.48444 -2.58396 0
M  V30 5044 H 460.21 -0.742936 -1.2696 0
M  V30 5045 H 462.168 0.439556 -4.14878 0
M  V30 5046 H 460.798 0.893796 -3.10179 0
M  V30 5047 H 459.85 -1.49341 -3.49859 0
M  V30 5048 H 461.162 -1.75455 -4.66923 0
M  V30 5049 H 460.316 0.142893 -6.06532 0
M  V30 5050 H 459.055 0.499283 -4.85138 0
M  V30 5051 H 458.06 -1.7787 -5.20233 0
M  V30 5052 H 459.285 -2.1262 -6.44957 0
M  V30 5053 H 457.231 0.115152 -6.55899 0
M  V30 5054 H 457.148 -1.37908 -7.43315 0
M  V30 5055 H 458.416 -0.245076 -7.79115 0
M  V30 5056 N 462.645 1.35699 -0.801477 0
M  V30 5057 C 463.575 2.32436 -0.222658 0
M  V30 5058 C 464.556 1.5723 0.649057 0
M  V30 5059 O 465.741 1.85324 0.580387 0
M  V30 5060 C 462.871 3.41469 0.633719 0
M  V30 5061 C 461.825 4.27774 -0.139083 0
M  V30 5062 C 461.151 5.28082 0.838666 0
M  V30 5063 C 462.451 5.04946 -1.33517 0
M  V30 5064 H 464.145 2.81094 -1.03086 0
M  V30 5065 H 461.691 1.35146 -0.497155 0
M  V30 5066 H 463.644 4.08143 1.04868 0
M  V30 5067 H 462.368 2.91408 1.47475 0
M  V30 5068 H 461.027 3.62673 -0.535156 0
M  V30 5069 H 460.675 4.7429 1.67506 0
M  V30 5070 H 460.375 5.86695 0.32594 0
M  V30 5071 H 461.899 5.97628 1.25194 0
M  V30 5072 H 463.313 5.64593 -0.995349 0
M  V30 5073 H 461.71 5.7303 -1.78202 0
M  V30 5074 H 462.78 4.35886 -2.12442 0
M  V30 5075 N 464.123 0.554532 1.47522 0
M  V30 5076 C 465.033 -0.197865 2.33764 0
M  V30 5077 C 466.049 -0.914576 1.48025 0
M  V30 5078 O 467.225 -0.884067 1.80959 0
M  V30 5079 C 464.29 -1.21628 3.24665 0
M  V30 5080 C 463.351 -0.507283 4.26292 0
M  V30 5081 C 462.584 -1.47718 5.1285 0
M  V30 5082 O 462.807 -2.7118 5.01814 0
M  V30 5083 O 461.741 -1.00313 5.93482 0
M  V30 5084 H 465.567 0.50949 2.99396 0
M  V30 5085 H 463.152 0.315176 1.46038 0
M  V30 5086 H 465.034 -1.80421 3.80823 0
M  V30 5087 H 463.709 -1.9056 2.61665 0
M  V30 5088 H 462.616 0.121778 3.73902 0
M  V30 5089 H 463.949 0.140544 4.91999 0
M  V30 5090 N 465.601 -1.54893 0.290851 0
M  V30 5091 C 466.531 -2.26103 -0.583084 0
M  V30 5092 C 467.512 -1.25684 -1.14619 0
M  V30 5093 O 468.697 -1.54436 -1.17741 0
M  V30 5094 C 465.827 -2.99409 -1.75987 0
M  V30 5095 C 464.781 -4.0689 -1.32758 0
M  V30 5096 C 464.107 -4.67856 -2.58872 0
M  V30 5097 C 465.407 -5.20215 -0.46624 0
M  V30 5098 H 467.101 -2.99398 0.0108214 0
M  V30 5099 H 464.647 -1.43998 0.00664468 0
M  V30 5100 H 466.6 -3.47943 -2.37727 0
M  V30 5101 H 465.324 -2.23675 -2.37985 0
M  V30 5102 H 463.983 -3.59191 -0.733299 0
M  V30 5103 H 463.631 -3.88772 -3.19163 0
M  V30 5104 H 463.331 -5.40438 -2.30653 0
M  V30 5105 H 464.855 -5.19147 -3.21433 0
M  V30 5106 H 466.269 -5.64704 -0.989047 0
M  V30 5107 H 464.666 -5.99455 -0.27826 0
M  V30 5108 H 465.736 -4.82198 0.511173 0
M  V30 5109 N 467.08 -0.0183926 -1.57589 0
M  V30 5110 C 468.03 0.975944 -2.06057 0
M  V30 5111 C 469.014 1.29204 -0.958908 0
M  V30 5112 O 470.206 1.27995 -1.22255 0
M  V30 5113 C 467.335 2.26194 -2.58247 0
M  V30 5114 C 466.421 1.97467 -3.75323 0
M  V30 5115 N 466.812 1.38968 -4.86335 0
M  V30 5116 C 465.11 2.27515 -3.83605 0
M  V30 5117 C 465.811 1.27131 -5.67638 0
M  V30 5118 N 464.787 1.76319 -5.14211 0
M  V30 5119 H 468.589 0.518444 -2.89291 0
M  V30 5120 H 466.103 0.18688 -1.61321 0
M  V30 5121 H 468.1 2.98289 -2.91255 0
M  V30 5122 H 466.76 2.7258 -1.76438 0
M  V30 5123 H 467.771 1.06608 -5.06809 0
M  V30 5124 H 464.448 2.76649 -3.12684 0
M  V30 5125 H 465.838 0.819882 -6.66879 0
M  V30 5126 N 468.558 1.5553 0.254621 0
M  V30 5127 C 469.488 1.9268 1.31897 0
M  V30 5128 C 470.469 0.790797 1.506 0
M  V30 5129 O 471.654 1.05045 1.63337 0
M  V30 5130 C 468.784 2.21477 2.67517 0
M  V30 5131 C 467.738 3.37256 2.63519 0
M  V30 5132 C 467.064 3.51576 4.02862 0
M  V30 5133 C 468.364 4.73157 2.21179 0
M  V30 5134 H 470.058 2.81832 1.01051 0
M  V30 5135 H 467.604 1.35599 0.484662 0
M  V30 5136 H 469.557 2.46055 3.42104 0
M  V30 5137 H 468.281 1.29144 2.99982 0
M  V30 5138 H 466.94 3.12675 1.9139 0
M  V30 5139 H 466.588 2.56676 4.32581 0
M  V30 5140 H 466.288 4.2943 4.01078 0
M  V30 5141 H 467.812 3.78467 4.79161 0
M  V30 5142 H 469.226 4.97158 2.85494 0
M  V30 5143 H 467.623 5.54058 2.30521 0
M  V30 5144 H 468.693 4.70739 1.16332 0
M  V30 5145 N 470.036 -0.519951 1.48776 0
M  V30 5146 C 471.447 -1.10177 1.50725 0
M  V30 5147 C 471.798 -1.94153 0.282678 0
M  V30 5148 O 470.923 -2.07645 -0.609298 0
M  V30 5149 C 471.518 -2.00482 2.73116 0
M  V30 5150 C 470.077 -2.53862 2.77905 0
M  V30 5151 C 469.224 -1.31047 2.44381 0
M  V30 5152 H 472.175 -0.30473 1.55747 0
M  V30 5153 H 472.196 -2.8491 2.52203 0
M  V30 5154 H 471.708 -1.39335 3.62225 0
M  V30 5155 H 469.809 -3.18702 1.93029 0
M  V30 5156 H 469.922 -2.9231 3.79594 0
M  V30 5157 H 468.286 -1.62953 1.95751 0
M  V30 5158 H 469.069 -0.71637 3.35743 0
M  V30 5159 N 471.514 -1.37532 -0.769588 0
M  V30 5160 C 472.461 -1.3347 -1.88293 0
M  V30 5161 C 473.431 -0.199891 -1.64893 0
M  V30 5162 O 474.616 -0.389594 -1.8678 0
M  V30 5163 C 471.756 -1.14968 -3.25387 0
M  V30 5164 C 470.869 -2.37698 -3.60727 0
M  V30 5165 C 470.004 -2.12051 -4.8704 0
M  V30 5166 C 469.043 -3.30636 -5.15117 0
M  V30 5167 N 468.18 -3.04527 -6.3262 0
M  V30 5168 H 473.02 -2.28658 -1.911 0
M  V30 5169 H 470.557 -1.13622 -0.934257 0
M  V30 5170 H 472.515 -1.02261 -4.04473 0
M  V30 5171 H 471.145 -0.234263 -3.21949 0
M  V30 5172 H 470.197 -2.61137 -2.76608 0
M  V30 5173 H 471.509 -3.26131 -3.77413 0
M  V30 5174 H 470.663 -1.96388 -5.74035 0
M  V30 5175 H 469.402 -1.20959 -4.72462 0
M  V30 5176 H 468.407 -3.46836 -4.26597 0
M  V30 5177 H 469.632 -4.22582 -5.31603 0
M  V30 5178 H 467.578 -2.16067 -6.19396 0
M  V30 5179 H 467.495 -3.86503 -6.49732 0
M  V30 5180 H 468.763 -2.92485 -7.22546 0
M  V30 5181 N 472.992 0.995999 -1.22138 0
M  V30 5182 C 474.239 1.7351 -1.04406 0
M  V30 5183 C 474.567 1.89884 0.421244 0
M  V30 5184 O 473.822 1.43683 1.32867 0
M  V30 5185 C 474.121 3.14553 -1.6968 0
M  V30 5186 C 473.787 3.18102 -3.19565 0
M  V30 5187 C 472.449 3.18778 -3.60464 0
M  V30 5188 C 474.801 3.14636 -4.15516 0
M  V30 5189 C 472.129 3.13684 -4.95801 0
M  V30 5190 C 474.481 3.11084 -5.50826 0
M  V30 5191 C 473.145 3.10074 -5.91109 0
M  V30 5192 H 472.415 0.634916 -0.38205 0
M  V30 5193 H 475.062 1.1667 -1.51857 0
M  V30 5194 H 473.367 3.74682 -1.14546 0
M  V30 5195 H 475.064 3.70477 -1.53454 0
M  V30 5196 H 471.654 3.18324 -2.86998 0
M  V30 5197 H 475.838 3.13266 -3.84939 0
M  V30 5198 H 471.094 3.11245 -5.26247 0
M  V30 5199 H 475.268 3.07357 -6.24904 0
M  V30 5200 H 472.895 3.05882 -6.95946 0
M  V30 5201 N 474.47 1.03057 1.19235 0
M  V30 5202 C 475.695 0.74757 1.93458 0
M  V30 5203 C 476.12 -0.687648 1.7508 0
M  V30 5204 O 475.478 -1.47499 1.05422 0
M  V30 5205 C 475.526 1.10604 3.43219 0
M  V30 5206 O 474.63 0.225671 4.11782 0
M  V30 5207 H 473.971 0.276047 0.603899 0
M  V30 5208 H 476.501 1.3777 1.51263 0
M  V30 5209 H 476.511 1.06366 3.93891 0
M  V30 5210 H 475.186 2.15165 3.55917 0
M  V30 5211 H 473.763 0.326795 3.71465 0
M  V30 5212 N 475.948 -1.35272 0.808662 0
M  V30 5213 C 477.197 -1.97963 0.386483 0
M  V30 5214 C 477.51 -1.64866 -1.05255 0
M  V30 5215 O 478.716 -2.20937 -1.57794 0
M  V30 5216 C 477.172 -3.54162 0.640096 0
M  V30 5217 C 476.78 -3.96166 2.0918 0
M  V30 5218 C 478.524 -4.23553 0.283376 0
M  V30 5219 C 476.431 -5.4522 2.29106 0
M  V30 5220 H 475.361 -0.740742 0.140774 0
M  V30 5221 H 478.012 -1.5431 0.993012 0
M  V30 5222 H 476.394 -3.95983 -0.0364117 0
M  V30 5223 H 477.568 -3.65491 2.80629 0
M  V30 5224 H 475.883 -3.3967 2.40859 0
M  V30 5225 H 478.48 -5.33124 0.410273 0
M  V30 5226 H 478.823 -4.09105 -0.770659 0
M  V30 5227 H 479.356 -3.8716 0.913884 0
M  V30 5228 H 476.095 -5.64638 3.32962 0
M  V30 5229 H 475.615 -5.77457 1.62184 0
M  V30 5230 H 477.294 -6.1171 2.1076 0
M  V30 5231 N 477.426 -0.562348 -1.47226 0
M  V30 5232 C 478.651 -0.0432632 -2.07355 0
M  V30 5233 C 479.076 1.24332 -1.41149 0
M  V30 5234 O 478.434 1.74603 -0.488226 0
M  V30 5235 C 478.482 0.130288 -3.60365 0
M  V30 5236 O 477.586 1.19166 -3.94808 0
M  V30 5237 H 476.927 -0.0536334 -0.66183 0
M  V30 5238 H 479.457 -0.779495 -1.89169 0
M  V30 5239 H 479.467 0.342881 -4.06557 0
M  V30 5240 H 478.142 -0.809389 -4.07948 0
M  V30 5241 H 476.719 0.959153 -3.60354 0
M  V30 5242 N 478.904 1.54736 -0.299062 0
M  V30 5243 C 480.152 1.99706 0.31017 0
M  V30 5244 C 480.473 1.18896 1.54559 0
M  V30 5245 O 479.743 0.284445 1.93824 0
M  V30 5246 H 478.323 0.737686 0.117596 0
M  V30 5247 H 480.985 1.9054 -0.409943 0
M  V30 5248 H 480.081 3.06596 0.58355 0
M  V30 5249 N 480.382 0.0267497 1.57577 0
M  V30 5250 C 481.607 -0.666227 1.96408 0
M  V30 5251 C 482.032 -1.65004 0.903071 0
M  V30 5252 O 481.39 -1.80787 -0.136263 0
M  V30 5253 C 481.438 -1.35101 3.34335 0
M  V30 5254 O 480.542 -2.46623 3.30531 0
M  V30 5255 H 479.883 -0.175206 0.640468 0
M  V30 5256 H 482.413 0.0878977 2.04411 0
M  V30 5257 H 482.423 -1.70834 3.70513 0
M  V30 5258 H 481.098 -0.629844 4.11103 0
M  V30 5259 H 479.675 -2.13019 3.06068 0
M  V30 5260 N 481.861 -1.55662 -0.24637 0
M  V30 5261 C 483.091 -1.81312 -0.990438 0
M  V30 5262 C 483.499 -0.600234 -1.79426 0
M  V30 5263 O 482.842 0.440537 -1.78339 0
M  V30 5264 C 482.904 -3.0032 -1.97607 0
M  V30 5265 C 482.568 -4.36322 -1.35912 0
M  V30 5266 C 483.565 -5.14295 -0.761348 0
M  V30 5267 C 481.25 -4.83019 -1.37833 0
M  V30 5268 C 483.244 -6.37114 -0.190998 0
M  V30 5269 C 480.931 -6.05786 -0.804128 0
M  V30 5270 C 481.929 -6.82672 -0.211489 0
M  V30 5271 O 481.617 -8.03121 0.353845 0
M  V30 5272 H 481.349 -0.607233 -0.297058 0
M  V30 5273 H 483.903 -2.0356 -0.274351 0
M  V30 5274 H 482.133 -2.73829 -2.73047 0
M  V30 5275 H 483.822 -3.13057 -2.58361 0
M  V30 5276 H 484.588 -4.79337 -0.739013 0
M  V30 5277 H 480.467 -4.23165 -1.829 0
M  V30 5278 H 484.011 -6.97069 0.272206 0
M  V30 5279 H 479.908 -6.40222 -0.823792 0
M  V30 5280 H 480.676 -8.18131 0.245761 0
M  V30 5281 N 483.339 0.512053 -1.4905 0
M  V30 5282 C 484.585 1.26874 -1.58212 0
M  V30 5283 C 484.918 1.9241 -0.263073 0
M  V30 5284 O 484.193 1.80181 0.732476 0
M  V30 5285 C 484.476 2.34428 -2.73341 0
M  V30 5286 C 484.329 1.73466 -4.15006 0
M  V30 5287 C 485.648 3.36073 -2.84154 0
M  V30 5288 H 482.767 0.459924 -0.575881 0
M  V30 5289 H 485.409 0.568587 -1.81293 0
M  V30 5290 H 483.559 2.94146 -2.53792 0
M  V30 5291 H 485.231 1.17661 -4.46042 0
M  V30 5292 H 483.474 1.03921 -4.21168 0
M  V30 5293 H 484.145 2.51426 -4.91415 0
M  V30 5294 H 486.621 2.86332 -3.01916 0
M  V30 5295 H 485.497 4.08703 -3.66406 0
M  V30 5296 H 485.758 3.97725 -1.93048 0
M  V30 5297 N 484.817 1.37938 0.762283 0
M  V30 5298 C 485.747 1.37176 1.88958 0
M  V30 5299 C 486.728 0.238945 1.68413 0
M  V30 5300 O 487.913 0.440726 1.89133 0
M  V30 5301 C 485.043 1.18742 3.2637 0
M  V30 5302 C 483.997 2.29136 3.61498 0
M  V30 5303 C 483.323 1.95816 4.97554 0
M  V30 5304 C 484.623 3.71363 3.6727 0
M  V30 5305 H 486.317 2.31509 1.89853 0
M  V30 5306 H 483.863 1.11438 0.912005 0
M  V30 5307 H 485.816 1.16837 4.04879 0
M  V30 5308 H 484.54 0.208683 3.25933 0
M  V30 5309 H 483.199 2.30213 2.85303 0
M  V30 5310 H 482.847 0.964475 4.93667 0
M  V30 5311 H 482.547 2.69745 5.22026 0
M  V30 5312 H 484.071 1.95513 5.78452 0
M  V30 5313 H 485.485 3.72364 4.35911 0
M  V30 5314 H 483.882 4.44425 4.03245 0
M  V30 5315 H 484.952 4.04305 2.67704 0
M  V30 5316 N 486.295 -0.989507 1.22664 0
M  V30 5317 C 487.572 -1.70326 0.961688 0
M  V30 5318 C 487.952 -2.04537 -0.522279 0
M  V30 5319 O 487.3 -1.73136 -1.49118 0
M  V30 5320 C 487.51 -2.95135 1.86269 0
M  V30 5321 C 488.858 -3.67842 2.12078 0
M  V30 5322 O 489.882 -3.0515 1.83745 0
M  V30 5323 O 488.741 -4.80644 2.60083 0
M  V30 5324 H 485.835 -0.743589 0.361946 0
M  V30 5325 H 488.381 -1.04555 1.33665 0
M  V30 5326 H 487.153 -2.66382 2.8663 0
M  V30 5327 H 486.776 -3.68645 1.48952 0
M  V30 5328 N 487.773 -1.03688 -1.18687 0
M  V30 5329 C 488.705 -0.582696 -2.21669 0
M  V30 5330 C 489.718 0.345656 -1.59088 0
M  V30 5331 O 490.907 0.140776 -1.77944 0
M  V30 5332 C 488.007 0.169204 -3.38477 0
M  V30 5333 C 487.18 -0.766079 -4.30639 0
M  V30 5334 C 486.239 -0.0581541 -5.26168 0
M  V30 5335 O 485.265 -0.687346 -5.65035 0
M  V30 5336 N 486.467 1.20981 -5.67753 0
M  V30 5337 H 489.232 -1.46843 -2.61261 0
M  V30 5338 H 486.793 -0.916896 -1.33434 0
M  V30 5339 H 488.785 0.652543 -3.99405 0
M  V30 5340 H 487.355 0.956435 -2.97609 0
M  V30 5341 H 486.575 -1.42935 -3.67373 0
M  V30 5342 H 487.863 -1.40146 -4.89118 0
M  V30 5343 H 487.261 1.74159 -5.38224 0
M  V30 5344 H 485.818 1.6375 -6.30896 0
M  V30 5345 N 489.251 1.34841 -0.815825 0
M  V30 5346 C 490.5 1.97755 -0.396976 0
M  V30 5347 C 490.813 1.65422 1.04379 0
M  V30 5348 O 492.019 2.21771 1.5662 0
M  V30 5349 C 490.475 3.53818 -0.658869 0
M  V30 5350 C 490.083 3.95051 -2.11278 0
M  V30 5351 C 491.827 4.23397 -0.305834 0
M  V30 5352 C 489.734 5.43997 -2.31994 0
M  V30 5353 H 488.664 0.739985 -0.1447 0
M  V30 5354 H 491.315 1.53781 -1.00118 0
M  V30 5355 H 489.697 3.95997 0.0154112 0
M  V30 5356 H 490.871 3.63998 -2.82564 0
M  V30 5357 H 489.186 3.38388 -2.42657 0
M  V30 5358 H 491.783 5.32899 -0.43854 0
M  V30 5359 H 492.126 4.09508 0.748952 0
M  V30 5360 H 492.659 3.8667 -0.934403 0
M  V30 5361 H 489.398 5.62865 -3.35952 0
M  V30 5362 H 488.918 5.76589 -1.65244 0
M  V30 5363 H 490.597 6.10584 -2.14001 0
M  V30 5364 N 490.729 0.570148 1.46925 0
M  V30 5365 C 491.659 -0.158274 2.32963 0
M  V30 5366 C 492.64 -0.896093 1.44583 0
M  V30 5367 O 493.825 -0.874022 1.7342 0
M  V30 5368 C 490.955 -1.18055 3.26619 0
M  V30 5369 C 489.909 -0.558379 4.24342 0
M  V30 5370 C 489.235 -1.68623 5.07415 0
M  V30 5371 C 490.535 0.496295 5.19937 0
M  V30 5372 H 492.229 0.560046 2.94115 0
M  V30 5373 H 489.775 0.270775 1.41431 0
M  V30 5374 H 491.728 -1.69841 3.85658 0
M  V30 5375 H 490.452 -1.92899 2.63548 0
M  V30 5376 H 489.111 -0.0617157 3.66548 0
M  V30 5377 H 488.759 -2.42402 4.40738 0
M  V30 5378 H 488.459 -1.27564 5.73586 0
M  V30 5379 H 489.983 -2.20709 5.69315 0
M  V30 5380 H 491.397 0.0640052 5.73264 0
M  V30 5381 H 489.794 0.82649 5.94381 0
M  V30 5382 H 490.864 1.38735 4.6463 0
M  V30 5383 N 492.207 -1.54576 0.307264 0
M  V30 5384 C 493.618 -1.8579 -0.184121 0
M  V30 5385 C 493.969 -1.22914 -1.52927 0
M  V30 5386 O 493.094 -0.529126 -2.09831 0
M  V30 5387 C 493.689 -3.37081 -0.340862 0
M  V30 5388 C 492.248 -3.68304 -0.776465 0
M  V30 5389 C 491.395 -2.77076 0.111503 0
M  V30 5390 H 494.346 -1.49656 0.528078 0
M  V30 5391 H 494.367 -3.61922 -1.17443 0
M  V30 5392 H 493.879 -3.82815 0.638309 0
M  V30 5393 H 491.98 -3.28092 -1.76596 0
M  V30 5394 H 492.093 -4.75434 -0.591512 0
M  V30 5395 H 490.457 -2.51374 -0.410256 0
M  V30 5396 H 491.24 -3.25632 1.08714 0
M  V30 5397 N 493.685 -0.035106 -1.57561 0
M  V30 5398 C 495.101 0.321334 -1.56332 0
M  V30 5399 C 495.301 1.72509 -1.04129 0
M  V30 5400 O 494.357 2.4287 -0.690694 0
M  V30 5401 C 495.67 0.164469 -3.0025 0
M  V30 5402 C 497.218 0.236786 -3.12103 0
M  V30 5403 C 497.693 0.10864 -4.57871 0
M  V30 5404 N 499.184 0.165433 -4.62904 0
M  V30 5405 C 499.919 0.0901506 -5.73329 0
M  V30 5406 N 499.415 -0.0365606 -6.9279 0
M  V30 5407 N 501.208 0.144572 -5.61914 0
M  V30 5408 H 493.359 -0.952976 -1.89821 0
M  V30 5409 H 495.622 -0.368537 -0.873432 0
M  V30 5410 H 495.328 -0.802746 -3.42416 0
M  V30 5411 H 495.202 0.932194 -3.655 0
M  V30 5412 H 497.589 1.19446 -2.69845 0
M  V30 5413 H 497.67 -0.561419 -2.49563 0
M  V30 5414 H 497.314 -0.845644 -5.00811 0
M  V30 5415 H 497.244 0.925786 -5.18398 0
M  V30 5416 H 499.735 0.263269 -3.76982 0
M  V30 5417 H 500.048 -0.0871487 -7.72751 0
M  V30 5418 H 498.393 -0.0714256 -6.94963 0
M  V30 5419 H 501.584 0.242006 -4.67474 0
M  V30 5420 H 501.757 0.0824413 -6.47948 0
M  V30 5421 N 495.163 1.55791 0.238111 0
M  V30 5422 C 496.093 1.94068 1.29846 0
M  V30 5423 C 497.074 0.806726 1.49753 0
M  V30 5424 O 498.259 1.06772 1.62214 0
M  V30 5425 C 495.389 2.24302 2.65153 0
M  V30 5426 C 494.343 3.40032 2.59927 0
M  V30 5427 C 493.669 3.55829 3.99111 0
M  V30 5428 C 494.969 4.75476 2.16148 0
M  V30 5429 H 496.663 2.82887 0.980563 0
M  V30 5430 H 494.209 1.36105 0.470253 0
M  V30 5431 H 496.162 2.4967 3.39475 0
M  V30 5432 H 494.886 1.32318 2.98596 0
M  V30 5433 H 493.545 3.14687 1.88063 0
M  V30 5434 H 493.193 2.6125 4.29834 0
M  V30 5435 H 492.893 4.3366 3.96501 0
M  V30 5436 H 494.417 3.83528 4.7512 0
M  V30 5437 H 495.831 5.00158 2.80205 0
M  V30 5438 H 494.228 5.56472 2.24631 0
M  V30 5439 H 495.298 4.71946 1.11333 0
M  V30 5440 N 496.642 -0.504142 1.49319 0
M  V30 5441 C 497.89 -1.25598 1.58334 0
M  V30 5442 C 498.211 -1.93114 0.270538 0
M  V30 5443 O 497.481 -1.82585 -0.709891 0
M  V30 5444 H 496.061 -0.466571 0.58337 0
M  V30 5445 H 498.723 -0.584547 1.85928 0
M  V30 5446 H 497.819 -2.02159 2.37778 0
M  V30 5447 N 498.12 -1.38341 -0.754957 0
M  V30 5448 C 499.367 -1.34473 -1.51404 0
M  V30 5449 C 499.695 0.0656458 -1.94389 0
M  V30 5450 O 498.95 1.04244 -1.65625 0
M  V30 5451 C 499.249 -2.2452 -2.78075 0
M  V30 5452 C 498.915 -3.72512 -2.54059 0
M  V30 5453 C 497.577 -4.1284 -2.47218 0
M  V30 5454 C 499.929 -4.66197 -2.33044 0
M  V30 5455 C 497.257 -5.44945 -2.17376 0
M  V30 5456 C 499.609 -5.98558 -2.04723 0
M  V30 5457 C 498.273 -6.37972 -1.96337 0
M  V30 5458 H 497.543 -0.492072 -0.554027 0
M  V30 5459 H 500.19 -1.70687 -0.868223 0
M  V30 5460 H 498.495 -1.81357 -3.473 0
M  V30 5461 H 500.192 -2.18832 -3.36026 0
M  V30 5462 H 496.782 -3.40538 -2.60253 0
M  V30 5463 H 500.966 -4.35888 -2.37309 0
M  V30 5464 H 496.222 -5.74426 -2.09391 0
M  V30 5465 H 500.396 -6.70693 -1.87465 0
M  V30 5466 H 498.023 -7.40258 -1.72978 0
M  V30 5467 N 499.598 0.982988 -1.23187 0
M  V30 5468 C 500.826 1.75921 -1.08901 0
M  V30 5469 C 501.241 1.85341 0.359719 0
M  V30 5470 O 500.598 1.33072 1.24892 0
M  V30 5471 C 500.649 3.18742 -1.70545 0
M  V30 5472 O 500.37 3.09814 -3.09753 0
M  V30 5473 C 501.871 4.1277 -1.61667 0
M  V30 5474 H 499.091 0.552166 -0.381252 0
M  V30 5475 H 501.635 1.23516 -1.62985 0
M  V30 5476 H 499.79 3.68182 -1.20501 0
M  V30 5477 H 500.204 3.99703 -3.39614 0
M  V30 5478 H 501.678 5.10697 -2.09506 0
M  V30 5479 H 502.155 4.3542 -0.575009 0
M  V30 5480 H 502.761 3.69232 -2.11064 0
M  V30 5481 N 501.076 1.04316 1.18135 0
M  V30 5482 C 502.353 0.662166 1.84051 0
M  V30 5483 C 502.733 -0.858169 1.9287 0
M  V30 5484 O 502.081 -1.76062 1.45652 0
M  V30 5485 C 502.291 1.3409 3.22212 0
M  V30 5486 C 503.639 1.4733 3.9822 0
M  V30 5487 O 504.663 1.29921 3.31661 0
M  V30 5488 O 503.522 1.75722 5.17479 0
M  V30 5489 H 500.616 0.232005 0.79379 0
M  V30 5490 H 503.162 1.1422 1.25506 0
M  V30 5491 H 501.934 2.37853 3.10711 0
M  V30 5492 H 501.557 0.849649 3.88416 0
M  V30 5493 N 502.554 -1.34406 0.822964 0
M  V30 5494 C 503.484 -2.32052 0.259608 0
M  V30 5495 C 504.465 -1.58243 -0.623961 0
M  V30 5496 O 505.65 -1.86224 -0.55083 0
M  V30 5497 C 502.78 -3.42434 -0.579314 0
M  V30 5498 C 501.734 -4.27499 0.20712 0
M  V30 5499 C 501.06 -5.29349 -0.754547 0
M  V30 5500 C 502.36 -5.02758 1.41533 0
M  V30 5501 H 504.054 -2.79418 1.07545 0
M  V30 5502 H 501.6 -1.34338 0.518593 0
M  V30 5503 H 503.553 -4.0976 -0.983612 0
M  V30 5504 H 502.277 -2.93717 -1.4282 0
M  V30 5505 H 500.936 -3.61776 0.592787 0
M  V30 5506 H 500.584 -4.76895 -1.59939 0
M  V30 5507 H 500.284 -5.8714 -0.232561 0
M  V30 5508 H 501.808 -5.99544 -1.1567 0
M  V30 5509 H 503.222 -5.62938 1.08504 0
M  V30 5510 H 501.619 -5.70123 1.87296 0
M  V30 5511 H 502.689 -4.32451 2.1935 0
M  V30 5512 N 504.032 -0.577932 -1.46621 0
M  V30 5513 C 505.279 -0.0616879 -2.02406 0
M  V30 5514 C 505.607 1.29638 -1.44997 0
M  V30 5515 O 504.862 1.86176 -0.60308 0
M  V30 5516 C 505.161 0.0590832 -3.57351 0
M  V30 5517 C 504.827 -1.23077 -4.33777 0
M  V30 5518 C 503.489 -1.58416 -4.54376 0
M  V30 5519 C 505.841 -2.08457 -4.77698 0
M  V30 5520 C 503.169 -2.78943 -5.16147 0
M  V30 5521 C 505.521 -3.28204 -5.408 0
M  V30 5522 C 504.185 -3.63832 -5.59627 0
M  V30 5523 H 503.455 -0.0225732 -0.740656 0
M  V30 5524 H 506.102 -0.753609 -1.76048 0
M  V30 5525 H 504.407 0.834104 -3.82818 0
M  V30 5526 H 506.104 0.474202 -3.98186 0
M  V30 5527 H 502.694 -0.945652 -4.18038 0
M  V30 5528 H 506.878 -1.82459 -4.61544 0
M  V30 5529 H 502.134 -3.06689 -5.28916 0
M  V30 5530 H 506.308 -3.94634 -5.73792 0
M  V30 5531 H 503.935 -4.57315 -6.07262 0
M  V30 5532 N 505.51 1.54411 -0.315457 0
M  V30 5533 C 506.735 2.05299 0.294496 0
M  V30 5534 C 507.16 1.19052 1.4563 0
M  V30 5535 O 506.518 0.197804 1.80218 0
M  V30 5536 C 506.566 3.5345 0.714549 0
M  V30 5537 O 505.67 3.70175 1.81781 0
M  V30 5538 H 505.011 0.661743 0.0547019 0
M  V30 5539 H 507.541 1.99327 -0.461508 0
M  V30 5540 H 507.551 3.9557 0.999426 0
M  V30 5541 H 506.226 4.1568 -0.135244 0
M  V30 5542 H 504.803 3.3996 1.53236 0
M  V30 5543 N 506.988 0.0434614 1.5754 0
M  V30 5544 C 507.935 -0.93356 2.11077 0
M  V30 5545 C 508.905 -1.31383 1.01626 0
M  V30 5546 O 510.09 -1.40465 1.29129 0
M  V30 5547 C 507.23 -2.20578 2.65404 0
M  V30 5548 C 506.343 -1.88068 3.88914 0
M  V30 5549 C 505.478 -3.09691 4.31584 0
M  V30 5550 C 504.517 -2.73067 5.47815 0
M  V30 5551 N 503.654 -3.87359 5.85574 0
M  V30 5552 H 508.494 -0.470118 2.94268 0
M  V30 5553 H 506.031 -0.220434 1.45439 0
M  V30 5554 H 507.989 -2.95011 2.94999 0
M  V30 5555 H 506.619 -2.64513 1.85021 0
M  V30 5556 H 505.671 -1.03816 3.6596 0
M  V30 5557 H 506.983 -1.57104 4.73413 0
M  V30 5558 H 506.137 -3.92431 4.62691 0
M  V30 5559 H 504.876 -3.43827 3.45882 0
M  V30 5560 H 503.881 -1.88742 5.16388 0
M  V30 5561 H 505.106 -2.40131 6.35227 0
M  V30 5562 H 503.052 -4.21311 5.02825 0
M  V30 5563 H 502.969 -3.60068 6.64746 0
M  V30 5564 H 504.237 -4.70761 6.21292 0
M  V30 5565 N 508.466 -1.55915 -0.229846 0
M  V30 5566 C 509.712 -1.79718 -0.952517 0
M  V30 5567 C 510.067 -0.61514 -1.82301 0
M  V30 5568 O 509.36 0.391098 -1.87566 0
M  V30 5569 C 509.554 -3.06845 -1.8325 0
M  V30 5570 C 509.383 -4.37302 -1.04868 0
M  V30 5571 C 508.153 -4.99749 -0.746932 0
M  V30 5572 C 510.351 -5.12599 -0.417989 0
M  V30 5573 N 508.333 -6.13871 0.0591596 0
M  V30 5574 C 509.704 -6.19488 0.251879 0
M  V30 5575 C 511.759 -4.96804 -0.33018 0
M  V30 5576 C 510.462 -7.12299 1.00115 0
M  V30 5577 C 512.488 -5.90007 0.4056 0
M  V30 5578 C 511.85 -6.96317 1.06404 0
M  V30 5579 H 507.949 -0.709382 -0.329091 0
M  V30 5580 H 510.533 -1.93406 -0.224114 0
M  V30 5581 H 508.704 -2.94456 -2.53279 0
M  V30 5582 H 510.436 -3.18874 -2.49202 0
M  V30 5583 H 507.191 -4.61518 -1.06292 0
M  V30 5584 H 507.615 -6.75497 0.450798 0
M  V30 5585 H 512.257 -4.14675 -0.824898 0
M  V30 5586 H 509.975 -7.93916 1.50741 0
M  V30 5587 H 513.561 -5.79862 0.474436 0
M  V30 5588 H 512.441 -7.67194 1.62429 0
M  V30 5589 N 509.944 0.496216 -1.49584 0
M  V30 5590 C 510.907 1.57952 -1.66084 0
M  V30 5591 C 511.907 1.51729 -0.53244 0
M  V30 5592 O 513.097 1.54796 -0.79899 0
M  V30 5593 C 510.229 2.97604 -1.66268 0
M  V30 5594 H 511.422 1.44649 -2.6271 0
M  V30 5595 H 508.975 0.7208 -1.38687 0
M  V30 5596 H 509.71 3.16378 -0.712432 0
M  V30 5597 H 509.495 3.03528 -2.4822 0
M  V30 5598 H 510.985 3.76301 -1.81073 0
M  V30 5599 N 511.423 1.38739 0.74761 0
M  V30 5600 C 512.7 1.25791 1.49786 0
M  V30 5601 C 513.08 -0.138075 2.10648 0
M  V30 5602 O 512.428 -1.14815 1.9756 0
M  V30 5603 C 512.638 2.37265 2.55942 0
M  V30 5604 C 513.986 2.75978 3.22679 0
M  V30 5605 O 515.01 2.36621 2.6625 0
M  V30 5606 O 513.869 3.43867 4.24756 0
M  V30 5607 H 510.963 0.492251 0.664543 0
M  V30 5608 H 513.509 1.50582 0.782511 0
M  V30 5609 H 512.281 3.30644 2.0926 0
M  V30 5610 H 511.904 2.14071 3.35051 0
M  V30 5611 N 512.901 -0.976442 1.23707 0
M  V30 5612 C 513.831 -2.08749 1.04624 0
M  V30 5613 C 514.812 -1.70057 -0.0380956 0
M  V30 5614 O 515.997 -1.93782 0.127308 0
M  V30 5615 C 513.127 -3.41335 0.640902 0
M  V30 5616 C 512.081 -3.93947 1.67302 0
M  V30 5617 C 511.407 -5.22774 1.12301 0
M  V30 5618 C 512.707 -4.22769 3.06697 0
M  V30 5619 H 514.401 -2.24972 1.97555 0
M  V30 5620 H 511.947 -1.08108 0.951247 0
M  V30 5621 H 513.9 -4.18489 0.494434 0
M  V30 5622 H 512.624 -3.24988 -0.324099 0
M  V30 5623 H 511.283 -3.18941 1.80755 0
M  V30 5624 H 510.931 -5.0278 0.148877 0
M  V30 5625 H 510.631 -5.58942 1.81267 0
M  V30 5626 H 512.155 -6.02546 0.988479 0
M  V30 5627 H 513.569 -4.90659 2.96524 0
M  V30 5628 H 511.966 -4.70147 3.72937 0
M  V30 5629 H 513.036 -3.29885 3.55392 0
M  V30 5630 N 514.379 -1.04941 -1.1758 0
M  V30 5631 C 515.604 -0.778253 -1.92245 0
M  V30 5632 C 516.029 0.659707 -1.76152 0
M  V30 5633 O 515.387 1.45803 -1.07755 0
M  V30 5634 C 515.435 -1.16051 -3.41416 0
M  V30 5635 O 514.539 -0.291153 -4.11371 0
M  V30 5636 H 513.88 -0.285619 -0.599431 0
M  V30 5637 H 516.41 -1.40159 -1.49052 0
M  V30 5638 H 516.42 -1.12619 -3.92149 0
M  V30 5639 H 515.095 -2.208 -3.52449 0
M  V30 5640 H 513.672 -0.385851 -3.70898 0
M  V30 5641 N 515.857 1.33968 -0.830081 0
M  V30 5642 C 517.105 1.97672 -0.420734 0
M  V30 5643 C 517.426 1.66111 1.02138 0
M  V30 5644 O 516.696 0.955503 1.71017 0
M  V30 5645 H 515.276 0.73125 -0.152587 0
M  V30 5646 H 517.938 1.63483 -1.0611 0
M  V30 5647 H 517.034 3.07294 -0.545588 0
M  V30 5648 N 517.335 0.585699 1.46312 0
M  V30 5649 C 518.584 0.0701192 2.01578 0
M  V30 5650 C 518.897 -1.29889 1.46247 0
M  V30 5651 O 520.103 -1.90598 1.93351 0
M  V30 5652 C 518.559 0.0747499 3.59822 0
M  V30 5653 C 518.167 1.44226 4.24149 0
M  V30 5654 C 519.911 -0.38673 4.22735 0
M  V30 5655 C 517.818 1.40446 5.74481 0
M  V30 5656 H 516.748 0.0224441 0.753666 0
M  V30 5657 H 519.399 0.737789 1.68015 0
M  V30 5658 H 517.781 -0.659144 3.90476 0
M  V30 5659 H 518.955 2.19612 4.05101 0
M  V30 5660 H 517.27 1.84401 3.73343 0
M  V30 5661 H 519.867 -0.433853 5.32937 0
M  V30 5662 H 520.21 -1.40489 3.91878 0
M  V30 5663 H 520.743 0.293195 3.96718 0
M  V30 5664 H 517.482 2.39952 6.10003 0
M  V30 5665 H 517.002 0.692845 5.95785 0
M  V30 5666 H 518.681 1.11865 6.37256 0
M  V30 5667 N 518.813 -1.54241 0.323641 0
M  V30 5668 C 520.041 -2.04985 -0.280871 0
M  V30 5669 C 520.456 -1.19978 -1.45777 0
M  V30 5670 O 519.813 -0.230471 -1.81039 0
M  V30 5671 C 519.864 -3.54353 -0.715258 0
M  V30 5672 O 519.585 -4.36132 0.414817 0
M  V30 5673 C 521.086 -4.21189 -1.38257 0
M  V30 5674 H 518.306 -0.66851 -0.0577502 0
M  V30 5675 H 520.85 -1.99029 0.469852 0
M  V30 5676 H 519.005 -3.60596 -1.41596 0
M  V30 5677 H 519.419 -5.2445 0.0725227 0
M  V30 5678 H 520.893 -5.27154 -1.63745 0
M  V30 5679 H 521.37 -3.72307 -2.32989 0
M  V30 5680 H 521.976 -4.19085 -0.724447 0
M  V30 5681 N 520.291 -0.0518155 -1.57515 0
M  V30 5682 C 521.238 0.922352 -2.11569 0
M  V30 5683 C 522.208 1.30842 -1.02321 0
M  V30 5684 O 523.393 1.39778 -1.29872 0
M  V30 5685 C 520.533 2.19167 -2.6657 0
M  V30 5686 C 519.646 1.86003 -3.89906 0
M  V30 5687 C 518.781 3.07398 -4.33221 0
M  V30 5688 C 517.82 2.70158 -5.49255 0
M  V30 5689 N 516.957 3.84248 -5.8762 0
M  V30 5690 H 521.797 0.454506 -2.94514 0
M  V30 5691 H 519.334 0.212718 -1.45554 0
M  V30 5692 H 521.292 2.93443 -2.96559 0
M  V30 5693 H 519.922 2.63528 -1.86421 0
M  V30 5694 H 518.974 1.01874 -3.66505 0
M  V30 5695 H 520.286 1.54592 -4.74239 0
M  V30 5696 H 519.44 3.89972 -4.64765 0
M  V30 5697 H 518.179 3.41988 -3.477 0
M  V30 5698 H 517.184 1.86001 -5.17382 0
M  V30 5699 H 518.409 2.36759 -6.36492 0
M  V30 5700 H 516.355 4.18638 -5.05053 0
M  V30 5701 H 516.272 3.56538 -6.66646 0
M  V30 5702 H 517.54 4.6746 -6.2378 0
M  V30 5703 N 521.769 1.56035 0.221574 0
M  V30 5704 C 522.701 1.889 1.29805 0
M  V30 5705 C 523.714 0.777269 1.43047 0
M  V30 5706 O 524.903 1.05557 1.43945 0
M  V30 5707 C 522.003 2.0825 2.67367 0
M  V30 5708 C 521.176 3.39267 2.76073 0
M  V30 5709 C 520.235 3.48049 3.94649 0
M  V30 5710 O 519.261 4.2108 3.82988 0
M  V30 5711 N 520.463 2.79191 5.08953 0
M  V30 5712 H 523.228 2.81831 1.01938 0
M  V30 5713 H 520.789 1.5658 0.411612 0
M  V30 5714 H 522.781 2.11441 3.45072 0
M  V30 5715 H 521.351 1.21944 2.87834 0
M  V30 5716 H 520.571 3.48175 1.84846 0
M  V30 5717 H 521.859 4.25575 2.7886 0
M  V30 5718 H 521.257 2.19635 5.21322 0
M  V30 5719 H 519.814 2.88043 5.84701 0
M  V30 5720 N 523.247 -0.488276 1.49845 0
M  V30 5721 C 524.179 -1.60539 1.63584 0
M  V30 5722 C 525.192 -1.5434 0.517972 0
M  V30 5723 O 526.381 -1.60041 0.790516 0
M  V30 5724 C 523.481 -2.99374 1.58835 0
M  V30 5725 C 522.654 -3.30624 2.86368 0
M  V30 5726 C 521.713 -4.4893 2.74496 0
M  V30 5727 O 520.739 -4.50085 3.48443 0
M  V30 5728 N 521.941 -5.49591 1.86894 0
M  V30 5729 H 524.706 -1.49176 2.59936 0
M  V30 5730 H 522.267 -0.67639 1.47094 0
M  V30 5731 H 524.259 -3.76459 1.48529 0
M  V30 5732 H 522.829 -3.04595 0.702892 0
M  V30 5733 H 522.049 -2.42314 3.1093 0
M  V30 5734 H 523.337 -3.48305 3.70892 0
M  V30 5735 H 522.735 -5.51467 1.26097 0
M  V30 5736 H 521.292 -6.25728 1.82503 0
M  V30 5737 N 524.725 -1.39134 -0.740242 0
M  V30 5738 C 525.672 -1.37434 -1.8542 0
M  V30 5739 C 526.642 -0.234822 -1.64432 0
M  V30 5740 O 527.827 -0.429125 -1.85912 0
M  V30 5741 C 524.967 -1.21844 -3.22875 0
M  V30 5742 C 524.08 -2.45296 -3.55603 0
M  V30 5743 C 523.215 -2.22334 -4.82432 0
M  V30 5744 C 522.254 -3.41488 -5.07988 0
M  V30 5745 N 521.391 -3.17877 -6.26018 0
M  V30 5746 H 526.231 -2.3266 -1.86207 0
M  V30 5747 H 523.768 -1.15578 -0.909946 0
M  V30 5748 H 525.726 -1.10818 -4.02213 0
M  V30 5749 H 524.356 -0.3025 -3.21379 0
M  V30 5750 H 523.408 -2.66945 -2.71006 0
M  V30 5751 H 524.72 -3.34063 -3.7041 0
M  V30 5752 H 523.874 -2.0852 -5.69741 0
M  V30 5753 H 522.613 -1.30954 -4.6979 0
M  V30 5754 H 521.618 -3.55807 -4.19144 0
M  V30 5755 H 522.843 -4.33763 -5.22519 0
M  V30 5756 H 520.789 -2.29156 -6.14673 0
M  V30 5757 H 520.706 -4.00198 -6.41387 0
M  V30 5758 H 521.974 -3.07746 -7.16179 0
M  V30 5759 N 526.204 0.969867 -1.24223 0
M  V30 5760 C 527.134 2.08191 -1.05729 0
M  V30 5761 C 528.115 1.70075 0.0290765 0
M  V30 5762 O 529.3 1.93712 -0.137583 0
M  V30 5763 C 526.43 3.40991 -0.658995 0
M  V30 5764 C 525.384 3.93054 -1.69389 0
M  V30 5765 C 524.71 5.22171 -1.15072 0
M  V30 5766 C 526.01 4.21137 -3.08935 0
M  V30 5767 H 527.704 2.23921 -1.98746 0
M  V30 5768 H 525.25 1.07602 -0.956967 0
M  V30 5769 H 527.203 4.18221 -0.51662 0
M  V30 5770 H 525.927 3.25155 0.30686 0
M  V30 5771 H 524.586 3.17977 -1.82444 0
M  V30 5772 H 524.234 5.02694 -0.175539 0
M  V30 5773 H 523.934 5.57973 -1.84229 0
M  V30 5774 H 525.458 6.02013 -1.02042 0
M  V30 5775 H 526.872 4.8908 -2.99121 0
M  V30 5776 H 525.269 4.68163 -3.75425 0
M  V30 5777 H 526.339 3.27996 -3.57137 0
M  V30 5778 N 527.682 1.05563 1.17022 0
M  V30 5779 C 528.592 0.670758 2.24807 0
M  V30 5780 C 529.608 -0.309865 1.71219 0
M  V30 5781 O 530.784 -0.161025 2.00755 0
M  V30 5782 C 527.849 0.055337 3.46656 0
M  V30 5783 C 526.91 1.08688 4.15314 0
M  V30 5784 C 526.143 0.500736 5.31346 0
M  V30 5785 O 526.366 -0.688718 5.66227 0
M  V30 5786 O 525.3 1.23683 5.89055 0
M  V30 5787 H 529.126 1.56914 2.60023 0
M  V30 5788 H 526.711 0.827428 1.24395 0
M  V30 5789 H 528.593 -0.286492 4.20425 0
M  V30 5790 H 527.268 -0.816638 3.13229 0
M  V30 5791 H 526.175 1.48077 3.43546 0
M  V30 5792 H 527.508 1.93014 4.52777 0
M  V30 5793 N 529.16 -1.33526 0.837174 0
M  V30 5794 C 530.123 -2.27551 0.274421 0
M  V30 5795 C 531.123 -1.50886 -0.555881 0
M  V30 5796 O 532.313 -1.70227 -0.369918 0
M  V30 5797 C 529.445 -3.35332 -0.613605 0
M  V30 5798 H 530.638 -2.78837 1.10408 0
M  V30 5799 H 528.191 -1.439 0.610126 0
M  V30 5800 H 528.926 -2.89285 -1.46577 0
M  V30 5801 H 528.711 -3.92095 -0.0195341 0
M  V30 5802 H 530.201 -4.05433 -1.00068 0
M  V30 5803 N 530.638 -0.59345 -1.46 0
M  V30 5804 C 531.863 -0.0872365 -2.07216 0
M  V30 5805 C 532.288 1.2131 -1.43755 0
M  V30 5806 O 531.646 1.73528 -0.525152 0
M  V30 5807 C 531.694 0.0538197 -3.6056 0
M  V30 5808 O 530.798 1.10765 -3.97247 0
M  V30 5809 H 530.139 -0.0676598 -0.660544 0
M  V30 5810 H 532.669 -0.819445 -1.87473 0
M  V30 5811 H 532.679 0.256567 -4.07193 0
M  V30 5812 H 531.354 -0.895739 -4.0614 0
M  V30 5813 H 529.931 0.882501 -3.62307 0
M  V30 5814 N 532.116 1.54067 -0.331816 0
M  V30 5815 C 533.063 2.24623 0.530372 0
M  V30 5816 C 534.033 1.24009 1.10503 0
M  V30 5817 O 535.218 1.52712 1.14384 0
M  V30 5818 C 532.358 3.01374 1.68129 0
M  V30 5819 C 531.471 4.16821 1.13507 0
M  V30 5820 C 530.606 4.81085 2.25234 0
M  V30 5821 C 529.645 5.88621 1.67903 0
M  V30 5822 N 528.782 6.46713 2.73326 0
M  V30 5823 H 533.622 2.97898 -0.0778607 0
M  V30 5824 H 531.159 1.47014 -0.0501965 0
M  V30 5825 H 533.117 3.44125 2.35868 0
M  V30 5826 H 531.747 2.30419 2.26069 0
M  V30 5827 H 530.799 3.78796 0.348979 0
M  V30 5828 H 532.111 4.94203 0.675633 0
M  V30 5829 H 531.265 5.26846 3.00862 0
M  V30 5830 H 530.004 4.03102 2.74518 0
M  V30 5831 H 529.009 5.42254 0.907773 0
M  V30 5832 H 530.234 6.68506 1.19487 0
M  V30 5833 H 528.18 5.71599 3.21886 0
M  V30 5834 H 528.097 7.19532 2.3197 0
M  V30 5835 H 529.365 6.97129 3.48758 0
M  V30 5836 N 533.594 0.0601682 1.57485 0
M  V30 5837 C 534.819 -0.624416 1.97777 0
M  V30 5838 C 535.244 -1.63051 0.937867 0
M  V30 5839 O 534.602 -1.81036 -0.0978845 0
M  V30 5840 C 534.65 -1.27979 3.37126 0
M  V30 5841 O 533.754 -2.39556 3.35688 0
M  V30 5842 H 533.095 -0.161581 0.64404 0
M  V30 5843 H 535.625 0.131237 2.04179 0
M  V30 5844 H 535.635 -1.62937 3.74053 0
M  V30 5845 H 534.31 -0.542501 4.12347 0
M  V30 5846 H 532.887 -2.06478 3.10517 0
M  V30 5847 N 535.072 -1.5615 -0.213296 0
M  V30 5848 C 536.319 -1.79546 -0.936462 0
M  V30 5849 C 536.647 -0.630337 -1.84003 0
M  V30 5850 O 535.902 0.384883 -1.91878 0
M  V30 5851 C 536.201 -3.08772 -1.79985 0
M  V30 5852 C 535.867 -4.38532 -1.04882 0
M  V30 5853 C 534.529 -4.73787 -0.841393 0
M  V30 5854 C 536.881 -5.18609 -0.51907 0
M  V30 5855 C 534.209 -5.86627 -0.0924403 0
M  V30 5856 C 536.561 -6.32229 0.216581 0
M  V30 5857 C 535.225 -6.6608 0.435191 0
M  V30 5858 H 534.495 -0.657004 -0.342676 0
M  V30 5859 H 537.142 -1.9041 -0.204051 0
M  V30 5860 H 535.447 -2.93065 -2.60038 0
M  V30 5861 H 537.144 -3.24077 -2.36168 0
M  V30 5862 H 533.734 -4.10855 -1.22048 0
M  V30 5863 H 537.918 -4.91801 -0.666775 0
M  V30 5864 H 533.174 -6.11338 0.087081 0
M  V30 5865 H 537.348 -6.93503 0.634538 0
M  V30 5866 H 534.975 -7.5336 1.01746 0
M  V30 5867 N 536.55 0.480323 -1.50102 0
M  V30 5868 C 537.5 1.57685 -1.6468 0
M  V30 5869 C 538.484 1.52878 -0.5017 0
M  V30 5870 O 539.676 1.60058 -0.755668 0
M  V30 5871 C 536.805 2.96185 -1.73578 0
M  V30 5872 C 535.891 3.0591 -2.93734 0
M  V30 5873 N 536.282 2.85471 -4.1754 0
M  V30 5874 C 534.58 3.37036 -2.92101 0
M  V30 5875 C 535.281 2.99921 -4.9842 0
M  V30 5876 N 534.257 3.29715 -4.32191 0
M  V30 5877 H 538.059 1.40568 -2.58104 0
M  V30 5878 H 535.573 0.686874 -1.47159 0
M  V30 5879 H 537.57 3.75015 -1.82124 0
M  V30 5880 H 536.23 3.14356 -0.813057 0
M  V30 5881 H 537.241 2.61235 -4.47188 0
M  V30 5882 H 533.918 3.61253 -2.09291 0
M  V30 5883 H 535.308 2.88436 -6.06839 0
M  V30 5884 N 538.028 1.39524 0.732853 0
M  V30 5885 C 538.975 1.38416 1.84688 0
M  V30 5886 C 539.945 0.243539 1.64305 0
M  V30 5887 O 541.13 0.438979 1.85681 0
M  V30 5888 C 538.27 1.23555 3.22224 0
M  V30 5889 C 537.383 2.47179 3.54298 0
M  V30 5890 C 536.518 2.2489 4.81246 0
M  V30 5891 C 535.557 3.44178 5.0617 0
M  V30 5892 N 534.694 3.21192 6.24323 0
M  V30 5893 H 539.534 2.33645 1.84971 0
M  V30 5894 H 537.071 1.16059 0.903804 0
M  V30 5895 H 539.029 1.12949 4.0162 0
M  V30 5896 H 537.659 0.31954 3.21215 0
M  V30 5897 H 536.711 2.68379 2.69587 0
M  V30 5898 H 538.023 3.36022 3.68633 0
M  V30 5899 H 537.177 2.11538 5.68627 0
M  V30 5900 H 535.916 1.33443 4.69089 0
M  V30 5901 H 534.921 3.58025 4.17251 0
M  V30 5902 H 536.146 4.36528 5.20212 0
M  V30 5903 H 534.092 2.32413 6.1345 0
M  V30 5904 H 534.009 4.03594 6.39256 0
M  V30 5905 H 535.277 3.1154 7.14537 0
M  V30 5906 N 539.506 -0.963266 1.24736 0
M  V30 5907 C 540.469 -2.04013 1.04457 0
M  V30 5908 C 541.469 -1.608 0.000335555 0
M  V30 5909 O 542.659 -1.72515 0.241719 0
M  V30 5910 C 539.791 -3.35858 0.584162 0
M  V30 5911 H 540.984 -2.23436 2.00041 0
M  V30 5912 H 538.537 -1.13914 1.07021 0
M  V30 5913 H 539.272 -3.22128 -0.374673 0
M  V30 5914 H 539.057 -3.68568 1.3379 0
M  V30 5915 H 540.547 -4.1502 0.463451 0
M  V30 5916 N 540.985 -1.06182 -1.16461 0
M  V30 5917 C 542.213 -0.798583 -1.90867 0
M  V30 5918 C 542.628 0.646921 -1.77371 0
M  V30 5919 O 541.985 1.44279 -1.11758 0
M  V30 5920 C 542.036 -1.18258 -3.4161 0
M  V30 5921 O 541.757 -2.57135 -3.54701 0
M  V30 5922 C 543.258 -0.946917 -4.33069 0
M  V30 5923 H 540.478 -0.289603 -0.605286 0
M  V30 5924 H 543.022 -1.41515 -1.47627 0
M  V30 5925 H 541.177 -0.610562 -3.82558 0
M  V30 5926 H 541.591 -2.72477 -4.4817 0
M  V30 5927 H 543.065 -1.26523 -5.37304 0
M  V30 5928 H 543.542 0.117406 -4.39043 0
M  V30 5929 H 544.148 -1.50326 -3.97847 0
M  V30 5930 N 542.463 1.3308 -0.844243 0
M  V30 5931 C 543.393 2.3161 -0.296493 0
M  V30 5932 C 544.374 1.59215 0.598707 0
M  V30 5933 O 545.559 1.87077 0.521134 0
M  V30 5934 C 542.689 3.43313 0.524762 0
M  V30 5935 C 541.643 4.27115 -0.275106 0
M  V30 5936 C 540.969 5.30483 0.670236 0
M  V30 5937 C 542.269 5.00443 -1.49514 0
M  V30 5938 H 543.963 2.77672 -1.11976 0
M  V30 5939 H 541.509 1.33496 -0.539899 0
M  V30 5940 H 543.462 4.11273 0.918298 0
M  V30 5941 H 542.186 2.95952 1.3813 0
M  V30 5942 H 540.845 3.60787 -0.650267 0
M  V30 5943 H 540.493 4.79379 1.52332 0
M  V30 5944 H 540.193 5.87435 0.139123 0
M  V30 5945 H 541.717 6.01308 1.06117 0
M  V30 5946 H 543.131 5.61141 -1.17447 0
M  V30 5947 H 541.528 5.67071 -1.96343 0
M  V30 5948 H 542.598 4.28906 -2.26202 0
M  V30 5949 N 543.941 0.601185 1.45683 0
M  V30 5950 C 545.218 0.0261659 1.95582 0
M  V30 5951 C 545.598 -1.4399 1.5437 0
M  V30 5952 O 544.946 -2.13919 0.80318 0
M  V30 5953 C 545.156 0.217557 3.48321 0
M  V30 5954 C 546.504 0.0950076 4.24494 0
M  V30 5955 O 547.528 0.147345 3.55895 0
M  V30 5956 O 546.387 -0.025261 5.46494 0
M  V30 5957 H 543.481 -0.0393688 0.826062 0
M  V30 5958 H 546.027 0.670798 1.55879 0
M  V30 5959 H 544.799 1.23601 3.71266 0
M  V30 5960 H 544.422 -0.46264 3.94899 0
M  V30 5961 N 545.419 -1.53889 0.339982 0
M  V30 5962 C 546.665 -2.01152 -0.258003 0
M  V30 5963 C 546.998 -1.22749 -1.50487 0
M  V30 5964 O 546.273 -0.314156 -1.91946 0
M  V30 5965 C 546.556 -3.55468 -0.575717 0
M  V30 5966 C 546.409 -4.44584 0.682996 0
M  V30 5967 C 547.728 -4.1768 -1.38677 0
M  V30 5968 H 544.847 -0.731198 -0.0922992 0
M  V30 5969 H 547.489 -1.84352 0.459814 0
M  V30 5970 H 545.639 -3.69914 -1.18725 0
M  V30 5971 H 547.311 -4.41981 1.32102 0
M  V30 5972 H 545.554 -4.13592 1.3086 0
M  V30 5973 H 546.225 -5.5043 0.416001 0
M  V30 5974 H 548.701 -4.0691 -0.869705 0
M  V30 5975 H 547.577 -5.25734 -1.57783 0
M  V30 5976 H 547.838 -3.72069 -2.38782 0
M  V30 5977 N 546.897 -0.0685191 -1.57451 0
M  V30 5978 C 548.174 0.642167 -1.84758 0
M  V30 5979 C 548.554 1.87991 -0.960344 0
M  V30 5980 O 547.902 2.28485 -0.0257894 0
M  V30 5981 C 548.112 0.982946 -3.34872 0
M  V30 5982 C 549.46 1.35784 -4.02303 0
M  V30 5983 O 550.484 1.07477 -3.39598 0
M  V30 5984 O 549.343 1.88681 -5.12895 0
M  V30 5985 H 546.437 0.318625 -0.763156 0
M  V30 5986 H 548.983 -0.0992015 -1.6941 0
M  V30 5987 H 547.755 0.10372 -3.91163 0
M  V30 5988 H 547.378 1.78119 -3.55471 0
M  V30 5989 N 548.375 1.56261 0.205012 0
M  V30 5990 C 549.285 1.96944 1.27476 0
M  V30 5991 C 550.301 0.875636 1.50362 0
M  V30 5992 O 551.477 1.18058 1.6317 0
M  V30 5993 C 548.542 2.29219 2.60115 0
M  V30 5994 C 547.603 3.52255 2.45387 0
M  V30 5995 C 546.836 3.8298 3.71701 0
M  V30 5996 O 547.059 3.15138 4.75441 0
M  V30 5997 O 545.993 4.76435 3.67823 0
M  V30 5998 H 549.819 2.88144 0.959527 0
M  V30 5999 H 547.404 1.43686 0.409217 0
M  V30 6000 H 549.286 2.51098 3.3842 0
M  V30 6001 H 547.961 1.4119 2.91285 0
M  V30 6002 H 546.868 3.35635 1.65227 0
M  V30 6003 H 548.201 4.40719 2.19152 0
M  V30 6004 N 549.853 -0.472356 1.50355 0
M  V30 6005 C 550.816 -1.5529 1.68576 0
M  V30 6006 C 551.816 -1.50863 0.556511 0
M  V30 6007 O 553.006 -1.53505 0.823516 0
M  V30 6008 C 550.138 -2.94921 1.70981 0
M  V30 6009 H 551.331 -1.40451 2.64978 0
M  V30 6010 H 548.884 -0.698645 1.39816 0
M  V30 6011 H 549.619 -3.15204 0.762675 0
M  V30 6012 H 549.404 -2.99541 2.53017 0
M  V30 6013 H 550.894 -3.73372 1.87037 0
M  V30 6014 N 551.331 -1.39911 -0.725443 0
M  V30 6015 C 552.579 -1.37382 -1.48224 0
M  V30 6016 C 552.9 0.0264107 -1.94982 0
M  V30 6017 O 552.17 0.979408 -1.6966 0
M  V30 6018 H 550.75 -0.505596 -0.549892 0
M  V30 6019 H 553.412 -1.7487 -0.860608 0
M  V30 6020 H 552.508 -2.04254 -2.3598 0
M  V30 6021 N 552.809 0.956637 -1.25245 0
M  V30 6022 C 554.037 1.73571 -1.12608 0
M  V30 6023 C 554.452 1.86063 0.320324 0
M  V30 6024 O 553.809 1.35691 1.22042 0
M  V30 6025 C 553.86 3.15053 -1.77268 0
M  V30 6026 O 553.581 3.03174 -3.16255 0
M  V30 6027 C 555.082 4.09248 -1.70386 0
M  V30 6028 H 552.302 0.543955 -0.392879 0
M  V30 6029 H 554.846 1.20031 -1.65568 0
M  V30 6030 H 553.001 3.65543 -1.28284 0
M  V30 6031 H 553.415 3.9241 -3.48015 0
M  V30 6032 H 554.889 5.06138 -2.20291 0
M  V30 6033 H 555.366 4.34102 -0.667239 0
M  V30 6034 H 555.972 3.64672 -2.18849 0
M  V30 6035 N 554.287 1.06798 1.15896 0
M  V30 6036 C 555.197 0.694564 2.24083 0
M  V30 6037 C 556.213 -0.291687 1.71538 0
M  V30 6038 O 557.389 -0.139723 2.00915 0
M  V30 6039 C 554.454 0.0921014 3.46578 0
M  V30 6040 C 553.515 1.13087 4.14137 0
M  V30 6041 C 552.748 0.557064 5.30785 0
M  V30 6042 O 552.971 -0.628623 5.66925 0
M  V30 6043 O 551.905 1.29924 5.8771 0
M  V30 6044 H 555.731 1.59663 2.58344 0
M  V30 6045 H 553.316 0.840575 1.2351 0
M  V30 6046 H 555.198 -0.241884 4.20705 0
M  V30 6047 H 553.873 -0.78337 3.14078 0
M  V30 6048 H 552.78 1.51712 3.41957 0
M  V30 6049 H 554.113 1.97805 4.50704 0
M  V30 6050 N 555.766 -1.3263 0.851289 0
M  V30 6051 C 556.729 -2.27247 0.298541 0
M  V30 6052 C 557.729 -1.51467 -0.539847 0
M  V30 6053 O 558.919 -1.7061 -0.351843 0
M  V30 6054 C 556.051 -3.35964 -0.578004 0
M  V30 6055 H 557.244 -2.7765 1.13359 0
M  V30 6056 H 554.797 -1.43245 0.625354 0
M  V30 6057 H 555.532 -2.90823 -1.435 0
M  V30 6058 H 555.317 -3.92094 0.0220539 0
M  V30 6059 H 556.807 -4.06472 -0.957626 0
M  V30 6060 N 557.244 -0.608902 -1.45362 0
M  V30 6061 C 558.207 0.0992563 -2.28985 0
M  V30 6062 C 559.207 0.793841 -1.39838 0
M  V30 6063 O 560.397 0.641804 -1.61946 0
M  V30 6064 C 557.529 1.15073 -3.20891 0
M  V30 6065 H 558.722 -0.635964 -2.93079 0
M  V30 6066 H 556.275 -0.368007 -1.51906 0
M  V30 6067 H 557.01 1.91667 -2.616 0
M  V30 6068 H 556.795 0.656867 -3.86559 0
M  V30 6069 H 558.285 1.64665 -3.83765 0
M  V30 6070 N 558.722 1.53707 -0.348139 0
M  V30 6071 C 559.685 2.23812 0.494058 0
M  V30 6072 C 560.685 1.23989 1.02388 0
M  V30 6073 O 561.875 1.48395 0.912396 0
M  V30 6074 C 559.007 2.96133 1.68872 0
M  V30 6075 H 560.2 2.99663 -0.119141 0
M  V30 6076 H 557.753 1.55983 -0.0995539 0
M  V30 6077 H 558.488 2.24481 2.34049 0
M  V30 6078 H 558.273 3.69357 1.31596 0
M  V30 6079 H 559.763 3.49475 2.28597 0
M  V30 6080 N 560.2 0.0768682 1.57412 0
M  V30 6081 C 561.163 -0.873949 2.11884 0
M  V30 6082 C 562.163 -1.22301 1.04398 0
M  V30 6083 O 563.353 -1.15545 1.30365 0
M  V30 6084 C 560.485 -2.17575 2.62438 0
M  V30 6085 H 561.678 -0.401278 2.97203 0
M  V30 6086 H 559.231 -0.171904 1.55352 0
M  V30 6087 H 559.966 -2.69368 1.80587 0
M  V30 6088 H 559.751 -1.93534 3.41009 0
M  V30 6089 H 561.241 -2.85631 3.04639 0
M  V30 6090 N 561.678 -1.56367 -0.196722 0
M  V30 6091 C 562.906 -1.84639 -0.933608 0
M  V30 6092 C 563.321 -0.659164 -1.76919 0
M  V30 6093 O 562.678 0.372142 -1.78665 0
M  V30 6094 C 562.729 -3.11694 -1.83109 0
M  V30 6095 O 562.45 -4.25838 -1.02924 0
M  V30 6096 C 563.951 -3.53132 -2.67979 0
M  V30 6097 H 561.171 -0.613188 -0.272473 0
M  V30 6098 H 563.715 -2.03475 -0.204465 0
M  V30 6099 H 561.87 -2.94759 -2.51387 0
M  V30 6100 H 562.284 -4.98178 -1.64069 0
M  V30 6101 H 563.758 -4.45005 -3.26611 0
M  V30 6102 H 564.235 -2.76045 -3.41608 0
M  V30 6103 H 564.841 -3.72592 -2.05074 0
M  V30 6104 N 563.156 0.464375 -1.50603 0
M  V30 6105 C 564.381 1.24372 -1.65971 0
M  V30 6106 C 564.806 1.84901 -0.345453 0
M  V30 6107 O 564.164 1.67596 0.691457 0
M  V30 6108 C 564.212 2.32331 -2.7578 0
M  V30 6109 O 563.316 3.37146 -2.375 0
M  V30 6110 H 562.657 0.365604 -0.554283 0
M  V30 6111 H 565.187 0.55183 -1.97018 0
M  V30 6112 H 565.197 2.77539 -2.99059 0
M  V30 6113 H 563.872 1.87648 -3.71162 0
M  V30 6114 H 562.449 2.97602 -2.24694 0
M  V30 6115 N 564.634 1.40294 0.718013 0
M  V30 6116 C 565.881 1.3844 1.47786 0
M  V30 6117 C 566.209 -0.0140838 1.94495 0
M  V30 6118 O 565.464 -0.998165 1.68331 0
M  V30 6119 C 565.763 2.31814 2.72024 0
M  V30 6120 C 565.429 3.79117 2.44093 0
M  V30 6121 C 564.091 4.19249 2.36185 0
M  V30 6122 C 566.443 4.72212 2.20602 0
M  V30 6123 C 563.771 5.50516 2.02851 0
M  V30 6124 C 566.123 6.03775 1.88781 0
M  V30 6125 C 564.787 6.42953 1.79354 0
M  V30 6126 H 564.057 0.506588 0.540786 0
M  V30 6127 H 566.704 1.72929 0.822663 0
M  V30 6128 H 565.009 1.90501 3.42369 0
M  V30 6129 H 566.706 2.27664 3.30106 0
M  V30 6130 H 563.296 3.47318 2.51133 0
M  V30 6131 H 567.48 4.42026 2.25669 0
M  V30 6132 H 562.736 5.79776 1.94088 0
M  V30 6133 H 566.91 6.75428 1.69617 0
M  V30 6134 H 564.537 7.44584 1.53291 0
M  V30 6135 N 566.112 -0.949982 1.2575 0
M  V30 6136 C 567.075 -2.02894 1.06615 0
M  V30 6137 C 568.075 -1.60791 0.0173905 0
M  V30 6138 O 569.265 -1.72249 0.260003 0
M  V30 6139 C 566.397 -3.35219 0.619751 0
M  V30 6140 H 567.59 -2.21302 2.02399 0
M  V30 6141 H 565.143 -1.12772 1.08223 0
M  V30 6142 H 565.878 -3.22508 -0.340486 0
M  V30 6143 H 565.663 -3.67129 1.37692 0
M  V30 6144 H 567.153 -4.14505 0.507443 0
M  V30 6145 N 567.59 -1.07411 -1.15328 0
M  V30 6146 C 568.839 -0.792643 -1.85473 0
M  V30 6147 C 569.152 0.683789 -1.83259 0
M  V30 6148 O 570.358 1.08005 -2.49093 0
M  V30 6149 C 568.814 -1.36787 -3.32892 0
M  V30 6150 C 568.422 -2.87536 -3.43551 0
M  V30 6151 C 570.166 -1.16444 -4.08217 0
M  V30 6152 C 568.073 -3.38247 -4.85122 0
M  V30 6153 H 567.003 -0.292838 -0.694811 0
M  V30 6154 H 569.654 -1.29426 -1.30082 0
M  V30 6155 H 568.036 -0.793993 -3.87958 0
M  V30 6156 H 569.21 -3.50973 -2.98588 0
M  V30 6157 H 567.525 -3.06676 -2.81672 0
M  V30 6158 H 570.122 -1.51808 -5.12697 0
M  V30 6159 H 570.465 -0.10353 -4.16171 0
M  V30 6160 H 570.998 -1.70472 -3.59422 0
M  V30 6161 H 567.737 -4.43866 -4.82351 0
M  V30 6162 H 567.257 -2.79564 -5.30664 0
M  V30 6163 H 568.936 -3.34238 -5.5398 0
M  V30 6164 N 569.068 1.32177 -0.85831 0
M  V30 6165 C 570.015 2.28794 -0.303607 0
M  V30 6166 C 570.985 1.55213 0.591453 0
M  V30 6167 O 572.17 1.83418 0.525585 0
M  V30 6168 C 569.31 3.41475 0.49889 0
M  V30 6169 C 568.423 4.2993 -0.422373 0
M  V30 6170 C 567.558 5.29743 0.393111 0
M  V30 6171 C 566.597 6.09842 -0.525317 0
M  V30 6172 N 565.734 7.01643 0.253208 0
M  V30 6173 H 570.574 2.75631 -1.13276 0
M  V30 6174 H 568.111 1.35606 -0.570026 0
M  V30 6175 H 570.069 4.05531 0.979826 0
M  V30 6176 H 568.699 2.95779 1.29284 0
M  V30 6177 H 567.751 3.66422 -1.02171 0
M  V30 6178 H 569.063 4.85899 -1.12709 0
M  V30 6179 H 568.217 5.9942 0.937056 0
M  V30 6180 H 566.956 4.744 1.13117 0
M  V30 6181 H 565.961 5.39066 -1.08112 0
M  V30 6182 H 567.186 6.6727 -1.26205 0
M  V30 6183 H 565.132 6.48725 0.974295 0
M  V30 6184 H 565.049 7.54981 -0.392398 0
M  V30 6185 H 566.317 7.756 0.778761 0
M  V30 6186 N 570.547 0.616602 1.45037 0
M  V30 6187 C 571.794 0.115331 2.02171 0
M  V30 6188 C 572.122 -1.25748 1.48383 0
M  V30 6189 O 571.377 -1.84511 0.652229 0
M  V30 6190 C 571.676 0.0356829 3.57382 0
M  V30 6191 C 571.342 1.34535 4.30362 0
M  V30 6192 C 570.004 1.70408 4.50016 0
M  V30 6193 C 572.356 2.21049 4.72003 0
M  V30 6194 C 569.684 2.92529 5.0857 0
M  V30 6195 C 572.036 3.42427 5.31908 0
M  V30 6196 C 570.7 3.78541 5.49784 0
M  V30 6197 H 569.97 0.0422024 0.739797 0
M  V30 6198 H 572.617 0.80002 1.73988 0
M  V30 6199 H 570.922 -0.732314 3.84895 0
M  V30 6200 H 572.619 -0.368463 3.99304 0
M  V30 6201 H 569.209 1.05615 4.15383 0
M  V30 6202 H 573.393 1.94632 4.56544 0
M  V30 6203 H 568.649 3.20605 5.20598 0
M  V30 6204 H 572.823 4.09709 5.63127 0
M  V30 6205 H 570.45 4.73255 5.94923 0
M  V30 6206 N 572.025 -1.5352 0.356285 0
M  V30 6207 C 573.272 -2.01117 -0.236303 0
M  V30 6208 C 573.6 -1.24381 -1.49531 0
M  V30 6209 O 572.855 -0.323057 -1.93015 0
M  V30 6210 C 573.154 -3.52607 -0.583369 0
M  V30 6211 C 572.82 -4.47151 0.58023 0
M  V30 6212 C 571.482 -4.72718 0.899528 0
M  V30 6213 C 573.834 -5.03137 1.36024 0
M  V30 6214 C 571.162 -5.51523 2.00098 0
M  V30 6215 C 573.514 -5.83145 2.45204 0
M  V30 6216 C 572.178 -6.07001 2.77679 0
M  V30 6217 H 571.448 -0.735938 -0.0864695 0
M  V30 6218 H 574.095 -1.85209 0.48683 0
M  V30 6219 H 572.4 -3.66413 -1.38739 0
M  V30 6220 H 574.097 -3.86901 -1.05397 0
M  V30 6221 H 570.687 -4.27394 0.321322 0
M  V30 6222 H 574.871 -4.83339 1.12682 0
M  V30 6223 H 570.127 -5.68229 2.25668 0
M  V30 6224 H 574.301 -6.25537 3.06067 0
M  V30 6225 H 571.928 -6.67851 3.63151 0
M  V30 6226 N 573.503 -0.0852151 -1.57369 0
M  V30 6227 C 574.728 0.592872 -1.98746 0
M  V30 6228 C 575.153 1.61538 -0.963689 0
M  V30 6229 O 574.511 1.81168 0.069071 0
M  V30 6230 C 574.559 1.22599 -3.39119 0
M  V30 6231 O 573.663 2.34185 -3.39457 0
M  V30 6232 H 573.004 0.151314 -0.646529 0
M  V30 6233 H 575.534 -0.163703 -2.03944 0
M  V30 6234 H 575.544 1.56965 -3.76598 0
M  V30 6235 H 574.219 0.476831 -4.13158 0
M  V30 6236 H 572.796 2.01512 -3.13763 0
M  V30 6237 N 574.981 1.5647 0.188427 0
M  V30 6238 C 575.944 1.9421 1.21718 0
M  V30 6239 C 576.944 0.823901 1.38089 0
M  V30 6240 O 578.134 1.09122 1.35787 0
M  V30 6241 C 575.266 2.22197 2.58537 0
M  V30 6242 H 576.459 2.86252 0.894418 0
M  V30 6243 H 574.012 1.50263 0.430211 0
M  V30 6244 H 574.747 1.32814 2.95856 0
M  V30 6245 H 574.532 3.03688 2.48025 0
M  V30 6246 H 576.022 2.52376 3.3271 0
M  V30 6247 N 576.459 -0.456382 1.50847 0
M  V30 6248 C 577.391 -1.57033 1.66953 0
M  V30 6249 C 578.404 -1.53207 0.550593 0
M  V30 6250 O 579.593 -1.58328 0.824285 0
M  V30 6251 C 576.693 -2.95937 1.65149 0
M  V30 6252 C 575.866 -3.24475 2.93317 0
M  V30 6253 C 574.925 -4.43007 2.83957 0
M  V30 6254 O 573.951 -4.42592 3.57912 0
M  V30 6255 N 575.153 -5.45503 1.9851 0
M  V30 6256 H 577.918 -1.43629 2.63042 0
M  V30 6257 H 575.479 -0.645037 1.48495 0
M  V30 6258 H 577.471 -3.73224 1.56481 0
M  V30 6259 H 576.041 -3.03036 0.767343 0
M  V30 6260 H 575.261 -2.35664 3.16 0
M  V30 6261 H 576.549 -3.4036 3.78196 0
M  V30 6262 H 575.947 -5.48668 1.37766 0
M  V30 6263 H 574.504 -6.21716 1.95735 0
M  V30 6264 N 577.937 -1.40673 -0.710563 0
M  V30 6265 C 579.165 -1.42547 -1.4996 0
M  V30 6266 C 579.58 -0.0265485 -1.88781 0
M  V30 6267 O 578.937 0.950694 -1.55782 0
M  V30 6268 C 578.988 -2.32071 -2.77173 0
M  V30 6269 O 578.709 -3.66518 -2.39992 0
M  V30 6270 C 580.21 -2.42591 -3.71032 0
M  V30 6271 H 577.43 -0.486025 -0.462623 0
M  V30 6272 H 579.974 -1.84783 -0.876102 0
M  V30 6273 H 578.129 -1.93184 -3.35795 0
M  V30 6274 H 578.543 -4.14115 -3.21884 0
M  V30 6275 H 580.017 -3.09429 -4.57119 0
M  V30 6276 H 580.494 -1.4525 -4.14486 0
M  V30 6277 H 581.1 -2.82051 -3.18319 0
M  V30 6278 N 579.415 0.9433 -1.26252 0
M  V30 6279 C 580.363 2.06302 -1.07434 0
M  V30 6280 C 581.357 1.694 -0.00189471 0
M  V30 6281 O 582.563 1.79302 -0.158408 0
M  V30 6282 H 578.938 0.675453 -0.330556 0
M  V30 6283 H 580.909 2.19326 -2.02333 0
M  V30 6284 C 579.658 3.40125 -0.721817 0
M  V30 6285 H 578.981 3.68996 -1.5389 0
M  V30 6286 H 580.421 4.19295 -0.629922 0
M  V30 6287 C 578.88 3.31993 0.572902 0
M  V30 6288 O 579.41 3.67945 1.61182 0
M  V30 6289 N 577.616 2.85099 0.562748 0
M  V30 6290 H 577.163 2.5604 -0.283092 0
M  V30 6291 H 577.121 2.80041 1.42915 0
M  V30 6292 N 580.893 1.08022 1.14757 0
M  V30 6293 C 582.309 0.807072 1.3769 0
M  V30 6294 C 582.509 -0.585504 1.92806 0
M  V30 6295 O 581.565 -1.34301 2.13821 0
M  V30 6296 C 582.878 1.88651 2.34161 0
M  V30 6297 C 584.426 1.91206 2.47809 0
M  V30 6298 C 584.901 2.98253 3.47576 0
M  V30 6299 N 586.392 2.974 3.55117 0
M  V30 6300 C 587.127 3.76872 4.32152 0
M  V30 6301 N 586.623 4.66212 5.12463 0
M  V30 6302 N 588.416 3.6519 4.27309 0
M  V30 6303 H 580.567 1.97824 0.77326 0
M  V30 6304 H 582.83 0.85826 0.402608 0
M  V30 6305 H 582.536 2.88749 2.00791 0
M  V30 6306 H 582.41 1.75244 3.3402 0
M  V30 6307 H 584.797 0.917564 2.80472 0
M  V30 6308 H 584.878 2.08691 1.47925 0
M  V30 6309 H 584.522 3.97907 3.15646 0
M  V30 6310 H 584.452 2.78014 4.47231 0
M  V30 6311 H 586.943 2.32643 2.97801 0
M  V30 6312 H 587.256 5.23468 5.68508 0
M  V30 6313 H 585.601 4.70257 5.11745 0
M  V30 6314 H 588.792 2.94765 3.63636 0
M  V30 6315 H 588.965 4.27366 4.87095 0
M  V30 6316 N 582.371 -1.3172 0.865308 0
M  V30 6317 C 583.321 -2.26157 0.289305 0
M  V30 6318 C 584.305 -1.50428 -0.570977 0
M  V30 6319 O 585.497 -1.71978 -0.418617 0
M  V30 6320 C 582.626 -3.39457 -0.512237 0
M  V30 6321 C 581.712 -4.22561 0.361028 0
M  V30 6322 N 582.103 -4.84501 1.45231 0
M  V30 6323 C 580.401 -4.45739 0.152641 0
M  V30 6324 C 581.102 -5.46586 1.99043 0
M  V30 6325 N 580.078 -5.28119 1.28809 0
M  V30 6326 H 583.88 -2.71581 1.12344 0
M  V30 6327 H 581.394 -1.45932 0.712565 0
M  V30 6328 H 583.391 -4.06133 -0.941379 0
M  V30 6329 H 582.051 -2.95577 -1.34404 0
M  V30 6330 H 583.062 -4.84293 1.83524 0
M  V30 6331 H 579.739 -4.1251 -0.643583 0
M  V30 6332 H 581.129 -6.05817 2.90577 0
M  V30 6333 N 583.85 -0.624285 -1.44708 0
M  V30 6334 C 585.099 -0.123539 -2.01321 0
M  V30 6335 C 585.412 1.25966 -1.49639 0
M  V30 6336 O 586.618 1.85405 -1.98336 0
M  V30 6337 C 585.074 -0.170124 -3.59498 0
M  V30 6338 C 584.682 -1.55421 -4.20176 0
M  V30 6339 C 586.426 0.274513 -4.23611 0
M  V30 6340 C 584.332 -1.55628 -5.70556 0
M  V30 6341 H 583.263 -0.0424183 -0.752806 0
M  V30 6342 H 585.913 -0.782076 -1.65999 0
M  V30 6343 H 584.296 0.555385 -3.92086 0
M  V30 6344 H 585.47 -2.30276 -3.99136 0
M  V30 6345 H 583.784 -1.94235 -3.68323 0
M  V30 6346 H 586.382 0.292402 -5.339 0
M  V30 6347 H 586.725 1.3005 -3.95465 0
M  V30 6348 H 587.258 -0.398275 -3.95801 0
M  V30 6349 H 583.997 -2.56041 -6.03426 0
M  V30 6350 H 583.517 -0.850563 -5.93739 0
M  V30 6351 H 585.196 -1.28721 -6.34066 0
M  V30 6352 N 585.328 1.53329 -0.364422 0
M  V30 6353 C 586.258 2.28627 0.474543 0
M  V30 6354 C 587.239 1.31009 1.08492 0
M  V30 6355 O 588.424 1.59878 1.10239 0
M  V30 6356 C 585.554 3.07465 1.61501 0
M  V30 6357 C 584.508 4.1276 1.13194 0
M  V30 6358 C 583.834 4.79674 2.36255 0
M  V30 6359 C 585.134 5.21847 0.217507 0
M  V30 6360 H 586.828 2.99005 -0.153656 0
M  V30 6361 H 584.374 1.43803 -0.0753406 0
M  V30 6362 H 586.327 3.58889 2.20855 0
M  V30 6363 H 585.051 2.34775 2.27042 0
M  V30 6364 H 583.71 3.62281 0.56109 0
M  V30 6365 H 583.358 4.03557 3.00251 0
M  V30 6366 H 583.058 5.50827 2.04606 0
M  V30 6367 H 584.582 5.33892 2.96297 0
M  V30 6368 H 585.996 5.6878 0.718493 0
M  V30 6369 H 584.393 6.00099 -0.00806408 0
M  V30 6370 H 585.463 4.7921 -0.740653 0
M  V30 6371 N 586.806 0.0935595 1.57322 0
M  V30 6372 C 588.222 -0.263091 1.57417 0
M  V30 6373 C 588.422 -1.68526 1.1046 0
M  V30 6374 O 587.478 -2.40139 0.780357 0
M  V30 6375 C 588.791 -0.0529201 3.00653 0
M  V30 6376 C 590.339 -0.120788 3.12767 0
M  V30 6377 C 590.814 0.0613707 4.57959 0
M  V30 6378 N 592.305 0.00648534 4.632 0
M  V30 6379 C 593.04 0.122699 5.73269 0
M  V30 6380 N 592.536 0.29366 6.92177 0
M  V30 6381 N 594.329 0.0640787 5.62063 0
M  V30 6382 H 586.48 1.02277 1.86154 0
M  V30 6383 H 588.743 0.4007 0.859153 0
M  V30 6384 H 588.449 0.929279 3.39201 0
M  V30 6385 H 588.323 -0.795899 3.68708 0
M  V30 6386 H 590.71 -1.09349 2.74093 0
M  V30 6387 H 590.791 0.653656 2.47307 0
M  V30 6388 H 590.435 1.03093 4.97327 0
M  V30 6389 H 590.365 -0.732748 5.21477 0
M  V30 6390 H 592.856 -0.123173 3.77699 0
M  V30 6391 H 593.169 0.37389 7.71895 0
M  V30 6392 H 591.514 0.329307 6.94219 0
M  V30 6393 H 594.705 -0.0683396 4.6805 0
M  V30 6394 H 594.878 0.158097 6.47807 0
M  V30 6395 N 588.284 -1.56567 -0.180126 0
M  V30 6396 C 589.531 -1.81492 -0.898167 0
M  V30 6397 C 589.859 -0.669225 -1.82624 0
M  V30 6398 O 589.114 0.344096 -1.92651 0
M  V30 6399 C 589.413 -3.1252 -1.73395 0
M  V30 6400 C 589.079 -4.40658 -0.955567 0
M  V30 6401 C 587.741 -4.75465 -0.740707 0
M  V30 6402 C 590.093 -5.19593 -0.408948 0
M  V30 6403 C 587.421 -5.86691 0.0320128 0
M  V30 6404 C 589.773 -6.31627 0.350638 0
M  V30 6405 C 588.437 -6.65007 0.576378 0
M  V30 6406 H 587.707 -0.664125 -0.328662 0
M  V30 6407 H 590.354 -1.908 -0.163616 0
M  V30 6408 H 588.659 -2.98515 -2.53763 0
M  V30 6409 H 590.356 -3.29013 -2.29241 0
M  V30 6410 H 586.946 -4.13352 -1.13306 0
M  V30 6411 H 591.13 -4.93104 -0.562307 0
M  V30 6412 H 586.386 -6.11016 0.216735 0
M  V30 6413 H 590.56 -6.92001 0.781497 0
M  V30 6414 H 588.187 -7.51033 1.17703 0
M  V30 6415 N 589.762 0.448376 -1.51087 0
M  V30 6416 C 590.71 1.56407 -1.72161 0
M  V30 6417 C 591.704 1.58878 -0.587721 0
M  V30 6418 O 592.91 1.62755 -0.768822 0
M  V30 6419 H 589.285 0.519423 -0.543786 0
M  V30 6420 H 591.256 1.35803 -2.65707 0
M  V30 6421 C 590.005 2.94163 -1.85373 0
M  V30 6422 H 589.328 2.9299 -2.72024 0
M  V30 6423 H 590.768 3.71625 -2.04135 0
M  V30 6424 C 589.227 3.31317 -0.610803 0
M  V30 6425 O 589.757 4.00985 0.239636 0
M  V30 6426 N 587.963 2.86966 -0.458127 0
M  V30 6427 H 587.51 2.30443 -1.15124 0
M  V30 6428 H 587.468 3.12188 0.372289 0
M  V30 6429 N 591.24 1.41047 0.703093 0
M  V30 6430 C 592.656 1.23351 1.01275 0
M  V30 6431 C 592.856 0.11754 2.01157 0
M  V30 6432 O 591.912 -0.520518 2.47077 0
M  V30 6433 C 593.225 2.58001 1.54454 0
M  V30 6434 C 594.773 2.65119 1.66376 0
M  V30 6435 C 595.248 4.00067 2.22958 0
M  V30 6436 N 596.739 4.01875 2.30328 0
M  V30 6437 C 597.474 5.03087 2.75119 0
M  V30 6438 N 596.97 6.14692 3.19571 0
M  V30 6439 N 598.763 4.90451 2.74616 0
M  V30 6440 H 590.914 2.1236 0.0412686 0
M  V30 6441 H 593.177 0.944543 0.08089 0
M  V30 6442 H 592.883 3.40378 0.88521 0
M  V30 6443 H 592.757 2.79962 2.52786 0
M  V30 6444 H 595.144 1.83106 2.31422 0
M  V30 6445 H 595.225 2.46975 0.666089 0
M  V30 6446 H 594.869 4.82526 1.58529 0
M  V30 6447 H 594.799 4.15547 3.23462 0
M  V30 6448 H 597.29 3.21291 1.98949 0
M  V30 6449 H 597.603 6.87799 3.52352 0
M  V30 6450 H 595.948 6.18239 3.17498 0
M  V30 6451 H 599.139 4.0235 2.39233 0
M  V30 6452 H 599.312 5.6947 3.09206 0
M  V30 6453 N 592.718 -0.936591 1.26751 0
M  V30 6454 C 594.129 -1.49816 1.1141 0
M  V30 6455 C 594.48 -1.9383 -0.304015 0
M  V30 6456 O 593.605 -1.80346 -1.196 0
M  V30 6457 C 594.2 -2.72271 2.01629 0
M  V30 6458 C 592.759 -3.2468 1.9042 0
M  V30 6459 C 591.906 -1.97444 1.94708 0
M  V30 6460 H 594.857 -0.751604 1.39773 0
M  V30 6461 H 594.878 -3.46741 1.56688 0
M  V30 6462 H 594.39 -2.40205 3.04833 0
M  V30 6463 H 592.491 -3.61525 0.901674 0
M  V30 6464 H 592.604 -3.91476 2.76195 0
M  V30 6465 H 590.968 -2.13545 1.38818 0
M  V30 6466 H 591.751 -1.67703 2.9955 0
M  V30 6467 N 594.196 -1.08629 -1.14182 0
M  V30 6468 C 595.443 -0.817345 -1.85272 0
M  V30 6469 C 595.771 0.656917 -1.83071 0
M  V30 6470 O 595.026 1.49897 -1.25815 0
M  V30 6471 C 595.325 -1.28734 -3.3341 0
M  V30 6472 C 594.991 -2.76981 -3.55798 0
M  V30 6473 C 593.653 -3.17469 -3.61617 0
M  V30 6474 C 596.005 -3.72605 -3.64438 0
M  V30 6475 C 593.333 -4.52371 -3.736 0
M  V30 6476 C 595.685 -5.07286 -3.77947 0
M  V30 6477 C 594.349 -5.47376 -3.82016 0
M  V30 6478 H 593.619 -0.299088 -0.677958 0
M  V30 6479 H 596.266 -1.35962 -1.34857 0
M  V30 6480 H 594.571 -0.664702 -3.8612 0
M  V30 6481 H 596.268 -1.05598 -3.86846 0
M  V30 6482 H 592.858 -2.44644 -3.51919 0
M  V30 6483 H 597.042 -3.42443 -3.5923 0
M  V30 6484 H 592.298 -4.82882 -3.75013 0
M  V30 6485 H 596.472 -5.81243 -3.83575 0
M  V30 6486 H 594.099 -6.51906 -3.91054 0
M  V30 6487 N 595.674 1.31259 -0.872281 0
M  V30 6488 C 596.604 2.30929 -0.345554 0
M  V30 6489 C 597.585 1.60449 0.5648 0
M  V30 6490 O 598.77 1.8814 0.481335 0
M  V30 6491 C 595.9 3.44348 0.451823 0
M  V30 6492 C 594.854 4.26435 -0.365641 0
M  V30 6493 C 594.18 5.31785 0.557562 0
M  V30 6494 C 595.48 4.97159 -1.60095 0
M  V30 6495 H 597.174 2.75234 -1.17841 0
M  V30 6496 H 594.72 1.3232 -0.568094 0
M  V30 6497 H 596.673 4.13128 0.830854 0
M  V30 6498 H 595.397 2.98816 1.31821 0
M  V30 6499 H 594.056 3.59326 -0.726649 0
M  V30 6500 H 593.704 4.82502 1.4213 0
M  V30 6501 H 593.404 5.87598 0.0144878 0
M  V30 6502 H 594.928 6.03424 0.933387 0
M  V30 6503 H 596.342 5.58523 -1.29323 0
M  V30 6504 H 594.739 5.62779 -2.08327 0
M  V30 6505 H 595.809 4.24012 -2.35249 0
M  V30 6506 N 597.152 0.631951 1.44375 0
M  V30 6507 C 598.398 0.13697 2.02337 0
M  V30 6508 C 598.731 -1.23826 1.49602 0
M  V30 6509 O 598.006 -1.8221 0.680415 0
M  V30 6510 C 598.289 0.124536 3.59885 0
M  V30 6511 C 598.142 1.53217 4.229 0
M  V30 6512 C 599.461 -0.550481 4.36644 0
M  V30 6513 H 596.58 0.051247 0.735216 0
M  V30 6514 H 599.222 0.808581 1.71936 0
M  V30 6515 H 597.372 -0.44737 3.85916 0
M  V30 6516 H 599.044 2.15303 4.07973 0
M  V30 6517 H 597.287 2.0858 3.80364 0
M  V30 6518 H 597.958 1.4755 5.31914 0
M  V30 6519 H 600.434 -0.0641154 4.16051 0
M  V30 6520 H 599.31 -0.528371 5.46351 0
M  V30 6521 H 599.571 -1.62097 4.11311 0
M  V30 6522 N 598.631 -1.53133 0.372548 0
M  V30 6523 C 599.877 -2.01654 -0.215277 0
M  V30 6524 C 600.21 -1.25914 -1.47849 0
M  V30 6525 O 599.485 -0.3548 -1.91237 0
M  V30 6526 C 599.768 -3.56609 -0.500187 0
M  V30 6527 C 599.621 -4.43036 0.777145 0
M  V30 6528 C 600.94 -4.20528 -1.29786 0
M  V30 6529 H 598.059 -0.732991 -0.0767686 0
M  V30 6530 H 600.701 -1.83335 0.498814 0
M  V30 6531 H 598.851 -3.7235 -1.10852 0
M  V30 6532 H 600.523 -4.39079 1.41447 0
M  V30 6533 H 598.766 -4.10723 1.39604 0
M  V30 6534 H 599.437 -5.49424 0.532662 0
M  V30 6535 H 601.913 -4.08663 -0.783198 0
M  V30 6536 H 600.789 -5.28962 -1.46596 0
M  V30 6537 H 601.05 -3.77051 -2.30836 0
M  V30 6538 N 600.109 -0.101901 -1.5727 0
M  V30 6539 C 601.358 0.559922 -1.93772 0
M  V30 6540 C 601.671 1.68913 -0.98629 0
M  V30 6541 O 602.877 2.41256 -1.24529 0
M  V30 6542 C 601.333 1.04739 -3.44322 0
M  V30 6543 C 600.941 -0.05243 -4.47969 0
M  V30 6544 C 602.685 1.68157 -3.89774 0
M  V30 6545 C 600.592 0.450781 -5.8968 0
M  V30 6546 H 599.522 0.212931 -0.723309 0
M  V30 6547 H 602.173 -0.179001 -1.82625 0
M  V30 6548 H 600.555 1.84021 -3.50645 0
M  V30 6549 H 601.729 -0.828157 -4.53297 0
M  V30 6550 H 600.044 -0.592202 -4.12167 0
M  V30 6551 H 602.641 2.0689 -4.93052 0
M  V30 6552 H 602.984 2.55338 -3.28798 0
M  V30 6553 H 603.517 0.954453 -3.8618 0
M  V30 6554 H 600.256 -0.38458 -6.54371 0
M  V30 6555 H 599.776 1.19336 -5.87809 0
M  V30 6556 H 601.455 0.917555 -6.40461 0
M  V30 6557 N 601.587 1.56661 0.17182 0
M  V30 6558 C 602.834 1.81965 0.888529 0
M  V30 6559 C 603.162 0.6789 1.82267 0
M  V30 6560 O 602.417 -0.333875 1.92831 0
M  V30 6561 C 602.716 3.13435 1.71736 0
M  V30 6562 C 602.382 4.41159 0.932184 0
M  V30 6563 C 601.044 4.75851 0.715481 0
M  V30 6564 C 603.396 5.19803 0.381387 0
M  V30 6565 C 600.724 5.86666 -0.063126 0
M  V30 6566 C 603.076 6.31433 -0.384129 0
M  V30 6567 C 601.74 6.64692 -0.611637 0
M  V30 6568 H 601.01 0.665859 0.325136 0
M  V30 6569 H 603.657 1.90884 0.153495 0
M  V30 6570 H 601.962 2.99857 2.52177 0
M  V30 6571 H 603.659 3.30224 2.27493 0
M  V30 6572 H 600.249 4.13947 1.11112 0
M  V30 6573 H 604.433 4.93396 0.536148 0
M  V30 6574 H 599.689 6.10892 -0.249136 0
M  V30 6575 H 603.863 6.91577 -0.818185 0
M  V30 6576 H 601.49 7.50398 -1.21684 0
M  V30 6577 N 603.065 -0.440357 1.51323 0
M  V30 6578 C 604.29 -1.21716 1.67928 0
M  V30 6579 C 604.715 -1.84328 0.374826 0
M  V30 6580 O 604.073 -1.68675 -0.664706 0
M  V30 6581 C 604.121 -2.27914 2.79442 0
M  V30 6582 O 603.225 -3.33325 2.42834 0
M  V30 6583 H 602.566 -0.35674 0.560029 0
M  V30 6584 H 605.096 -0.520417 1.97871 0
M  V30 6585 H 605.106 -2.72746 3.03436 0
M  V30 6586 H 603.781 -1.8172 3.741 0
M  V30 6587 H 602.358 -2.9399 2.294 0
M  V30 6588 N 604.543 -1.41418 -0.695603 0
M  V30 6589 C 605.771 -1.4413 -1.48439 0
M  V30 6590 C 606.186 -0.0465698 -1.88743 0
M  V30 6591 O 605.543 0.934117 -1.56782 0
M  V30 6592 C 605.594 -2.34998 -2.74696 0
M  V30 6593 O 605.315 -3.69043 -2.36091 0
M  V30 6594 C 606.816 -2.46513 -3.68438 0
M  V30 6595 H 604.036 -0.490905 -0.457442 0
M  V30 6596 H 606.58 -1.85702 -0.856454 0
M  V30 6597 H 604.735 -1.96735 -3.33728 0
M  V30 6598 H 605.149 -4.17505 -3.17474 0
M  V30 6599 H 606.623 -3.1426 -4.53811 0
M  V30 6600 H 607.1 -1.49638 -4.12922 0
M  V30 6601 H 607.706 -2.85412 -3.1531 0
M  V30 6602 N 606.021 0.929856 -1.27246 0
M  V30 6603 C 607.246 1.71674 -1.16374 0
M  V30 6604 C 607.671 1.86064 0.276024 0
M  V30 6605 O 607.029 1.3591 1.19992 0
M  V30 6606 C 607.077 3.09526 -1.85003 0
M  V30 6607 O 606.181 3.96142 -1.14653 0
M  V30 6608 H 605.522 0.52629 -0.404863 0
M  V30 6609 H 608.052 1.16381 -1.68276 0
M  V30 6610 H 608.062 3.59852 -1.92276 0
M  V30 6611 H 606.737 2.98369 -2.89739 0
M  V30 6612 H 605.314 3.54584 -1.15433 0
M  V30 6613 N 607.499 1.09233 1.13605 0
M  V30 6614 C 608.727 0.848908 1.88683 0
M  V30 6615 C 609.142 -0.599667 1.79024 0
M  V30 6616 O 608.499 -1.41265 1.15544 0
M  V30 6617 C 608.55 1.27273 3.38355 0
M  V30 6618 O 608.271 2.66449 3.47759 0
M  V30 6619 C 609.772 1.0614 4.30406 0
M  V30 6620 H 606.992 0.305549 0.597395 0
M  V30 6621 H 609.536 1.4538 1.43823 0
M  V30 6622 H 607.691 0.711776 3.80805 0
M  V30 6623 H 608.105 2.84264 4.40788 0
M  V30 6624 H 609.579 1.40725 5.33761 0
M  V30 6625 H 610.056 -0.000960332 4.392 0
M  V30 6626 H 610.662 1.60821 3.93722 0
M  V30 6627 N 608.977 -1.30795 0.87923 0
M  V30 6628 C 609.909 -2.27241 0.299025 0
M  V30 6629 C 610.922 -1.53472 -0.543166 0
M  V30 6630 O 612.111 -1.74756 -0.363651 0
M  V30 6631 C 609.211 -3.33655 -0.593931 0
M  V30 6632 C 608.384 -4.36857 0.2179 0
M  V30 6633 C 607.443 -5.22715 -0.604646 0
M  V30 6634 O 606.469 -5.69192 -0.0293838 0
M  V30 6635 N 607.671 -5.48008 -1.91488 0
M  V30 6636 H 610.436 -2.77667 1.12788 0
M  V30 6637 H 607.997 -1.43914 0.741637 0
M  V30 6638 H 609.989 -3.88013 -1.15012 0
M  V30 6639 H 608.559 -2.83202 -1.32346 0
M  V30 6640 H 607.779 -3.82444 0.955536 0
M  V30 6641 H 609.067 -5.02869 0.774614 0
M  V30 6642 H 608.465 -5.1202 -2.40525 0
M  V30 6643 H 607.022 -6.05264 -2.41864 0
M  V30 6644 N 610.455 -0.639598 -1.44038 0
M  V30 6645 C 611.68 -0.153117 -2.06834 0
M  V30 6646 C 612.105 1.16676 -1.47541 0
M  V30 6647 O 611.463 1.71769 -0.580093 0
M  V30 6648 C 611.511 -0.0609169 -3.60549 0
M  V30 6649 O 610.615 0.98071 -4.00569 0
M  V30 6650 H 609.956 -0.0886402 -0.658057 0
M  V30 6651 H 612.486 -0.878674 -1.84771 0
M  V30 6652 H 612.496 0.126892 -4.07803 0
M  V30 6653 H 611.171 -1.0245 -4.03084 0
M  V30 6654 H 609.748 0.766789 -3.64931 0
M  V30 6655 N 611.933 1.52934 -0.380664 0
M  V30 6656 C 613.179 2.01765 0.20458 0
M  V30 6657 C 613.512 1.26696 1.47179 0
M  V30 6658 O 612.787 0.364936 1.91046 0
M  V30 6659 C 613.07 3.56869 0.481269 0
M  V30 6660 C 612.923 4.42617 -0.800629 0
M  V30 6661 C 614.242 4.2121 1.27554 0
M  V30 6662 H 611.361 0.733388 0.0728803 0
M  V30 6663 H 614.003 1.83068 -0.50853 0
M  V30 6664 H 612.153 3.72932 1.08875 0
M  V30 6665 H 613.825 4.38323 -1.43773 0
M  V30 6666 H 612.068 4.09977 -1.4178 0
M  V30 6667 H 612.739 5.49134 -0.561791 0
M  V30 6668 H 615.215 4.09072 0.761514 0
M  V30 6669 H 614.091 5.29732 1.43788 0
M  V30 6670 H 614.352 3.78269 2.28833 0
M  V30 6671 N 613.412 0.11024 1.57214 0
M  V30 6672 C 614.342 -0.840002 2.17867 0
M  V30 6673 C 615.323 -1.28352 1.11624 0
M  V30 6674 O 616.508 -1.3477 1.39824 0
M  V30 6675 C 613.638 -2.09349 2.77111 0
M  V30 6676 C 612.592 -1.78807 3.8886 0
M  V30 6677 C 611.918 -3.11112 4.34872 0
M  V30 6678 C 613.218 -1.0632 5.11364 0
M  V30 6679 H 614.912 -0.334608 2.97524 0
M  V30 6680 H 612.458 -0.159502 1.43114 0
M  V30 6681 H 614.411 -2.76275 3.18198 0
M  V30 6682 H 613.135 -2.62198 1.9473 0
M  V30 6683 H 611.794 -1.14273 3.48335 0
M  V30 6684 H 611.442 -3.61877 3.49362 0
M  V30 6685 H 611.142 -2.91453 5.10224 0
M  V30 6686 H 612.666 -3.79171 4.78604 0
M  V30 6687 H 614.08 -1.63383 5.49526 0
M  V30 6688 H 612.477 -0.967876 5.92243 0
M  V30 6689 H 613.547 -0.0484569 4.84876 0
M  V30 6690 N 614.89 -1.56749 -0.16351 0
M  V30 6691 C 616.137 -1.82434 -0.878866 0
M  V30 6692 C 616.465 -0.688557 -1.81904 0
M  V30 6693 O 615.72 0.323644 -1.93005 0
M  V30 6694 C 616.019 -3.14342 -1.70071 0
M  V30 6695 C 615.685 -4.41647 -0.908775 0
M  V30 6696 C 614.347 -4.76224 -0.690236 0
M  V30 6697 C 616.699 -5.19998 -0.353815 0
M  V30 6698 C 614.027 -5.86624 0.0942374 0
M  V30 6699 C 616.379 -6.3122 0.41761 0
M  V30 6700 C 615.043 -6.64358 0.646879 0
M  V30 6701 H 614.313 -0.667574 -0.3216 0
M  V30 6702 H 616.96 -1.90963 -0.14337 0
M  V30 6703 H 615.265 -3.0119 -2.50583 0
M  V30 6704 H 616.962 -3.31426 -2.25738 0
M  V30 6705 H 613.552 -4.1453 -1.08916 0
M  V30 6706 H 617.736 -4.93673 -0.509975 0
M  V30 6707 H 612.992 -6.10751 0.281529 0
M  V30 6708 H 617.166 -6.91133 0.854849 0
M  V30 6709 H 614.793 -7.49742 1.25662 0
M  V30 6710 N 616.368 0.432326 -1.51554 0
M  V30 6711 C 617.298 1.53242 -1.76179 0
M  V30 6712 C 618.279 1.58717 -0.611801 0
M  V30 6713 O 619.464 1.74364 -0.855033 0
M  V30 6714 C 616.594 2.91278 -1.89141 0
M  V30 6715 C 615.548 3.00663 -3.04608 0
M  V30 6716 C 614.874 4.40728 -3.02759 0
M  V30 6717 C 616.174 2.74281 -4.44485 0
M  V30 6718 H 617.868 1.32886 -2.68294 0
M  V30 6719 H 615.414 0.637841 -1.29103 0
M  V30 6720 H 617.367 3.68203 -2.04951 0
M  V30 6721 H 616.091 3.12877 -0.936785 0
M  V30 6722 H 614.75 2.26179 -2.88511 0
M  V30 6723 H 614.398 4.59301 -2.05065 0
M  V30 6724 H 614.098 4.47936 -3.80299 0
M  V30 6725 H 615.622 5.19619 -3.20669 0
M  V30 6726 H 617.036 3.40936 -4.60907 0
M  V30 6727 H 615.433 2.92893 -5.23769 0
M  V30 6728 H 616.503 1.69856 -4.54177 0
M  V30 6729 N 617.846 1.41785 0.688094 0
M  V30 6730 C 619.094 1.41264 1.4453 0
M  V30 6731 C 619.415 0.0252946 1.94984 0
M  V30 6732 O 618.685 -0.934081 1.72197 0
M  V30 6733 H 617.265 0.519998 0.536294 0
M  V30 6734 H 619.927 1.7709 0.813941 0
M  V30 6735 H 619.023 2.10439 2.30482 0
M  V30 6736 N 619.324 -0.923095 1.27737 0
M  V30 6737 C 620.271 -2.02432 1.1086 0
M  V30 6738 C 621.241 -1.66098 0.00835195 0
M  V30 6739 O 622.426 -1.90027 0.171542 0
M  V30 6740 C 619.566 -3.36476 0.766671 0
M  V30 6741 C 618.679 -3.85737 1.94501 0
M  V30 6742 C 617.814 -5.08249 1.54455 0
M  V30 6743 C 616.853 -5.49818 2.6901 0
M  V30 6744 N 615.99 -6.63524 2.29521 0
M  V30 6745 H 620.83 -2.16201 2.05089 0
M  V30 6746 H 618.367 -1.05909 1.02087 0
M  V30 6747 H 620.325 -4.13569 0.549223 0
M  V30 6748 H 618.955 -3.22502 -0.13867 0
M  V30 6749 H 618.007 -3.04883 2.27487 0
M  V30 6750 H 619.319 -4.12513 2.80419 0
M  V30 6751 H 618.473 -5.92857 1.28862 0
M  V30 6752 H 617.212 -4.83261 0.656534 0
M  V30 6753 H 616.217 -4.63757 2.95313 0
M  V30 6754 H 617.442 -5.76799 3.5844 0
M  V30 6755 H 615.388 -6.40185 1.43177 0
M  V30 6756 H 615.305 -6.89978 3.08977 0
M  V30 6757 H 616.573 -7.51461 2.07187 0
M  V30 6758 N 620.802 -1.09834 -1.13024 0
M  V30 6759 C 622.048 -0.83819 -1.84668 0
M  V30 6760 C 622.381 0.634645 -1.83537 0
M  V30 6761 O 621.656 1.46753 -1.27647 0
M  V30 6762 C 621.939 -1.37933 -3.32636 0
M  V30 6763 C 621.792 -2.91857 -3.42257 0
M  V30 6764 C 623.111 -1.01654 -4.28199 0
M  V30 6765 H 620.23 -0.30595 -0.670495 0
M  V30 6766 H 622.872 -1.36044 -1.32635 0
M  V30 6767 H 621.022 -0.935111 -3.77078 0
M  V30 6768 H 622.694 -3.44759 -3.06495 0
M  V30 6769 H 620.937 -3.28776 -2.83 0
M  V30 6770 H 621.608 -3.24799 -4.46329 0
M  V30 6771 H 624.084 -1.39973 -3.9185 0
M  V30 6772 H 622.96 -1.42217 -5.30156 0
M  V30 6773 H 623.221 0.0747794 -4.42037 0
M  V30 6774 N 622.28 1.30327 -0.886154 0
M  V30 6775 C 623.526 1.96388 -0.505941 0
M  V30 6776 C 623.859 1.69784 0.942712 0
M  V30 6777 O 623.134 1.00322 1.6663 0
M  V30 6778 C 623.417 3.51488 -0.782826 0
M  V30 6779 C 623.27 3.87603 -2.28219 0
M  V30 6780 C 624.589 4.39331 -0.260128 0
M  V30 6781 H 621.708 0.713327 -0.185292 0
M  V30 6782 H 624.35 1.54178 -1.11036 0
M  V30 6783 H 622.5 3.87572 -0.268399 0
M  V30 6784 H 624.172 3.61537 -2.86512 0
M  V30 6785 H 622.415 3.3563 -2.74837 0
M  V30 6786 H 623.086 4.95806 -2.42653 0
M  V30 6787 H 625.562 4.10162 -0.700444 0
M  V30 6788 H 624.438 5.46769 -0.483179 0
M  V30 6789 H 624.699 4.34072 0.838674 0
M  V30 6790 N 623.758 0.647228 1.43697 0
M  V30 6791 C 625.035 0.0883758 1.954 0
M  V30 6792 C 625.415 -1.39006 1.58873 0
M  V30 6793 O 624.763 -2.11255 0.87083 0
M  V30 6794 C 624.973 0.328263 3.47453 0
M  V30 6795 C 626.321 0.230009 4.23977 0
M  V30 6796 O 627.345 0.260496 3.55246 0
M  V30 6797 O 626.204 0.148615 5.46298 0
M  V30 6798 H 623.298 -0.0130683 0.826897 0
M  V30 6799 H 625.844 0.72005 1.53666 0
M  V30 6800 H 624.616 1.3535 3.67146 0
M  V30 6801 H 624.239 -0.336772 3.96171 0
M  V30 6802 N 625.236 -1.5273 0.388769 0
M  V30 6803 C 626.647 -1.86505 -0.0853788 0
M  V30 6804 C 626.998 -1.30847 -1.46197 0
M  V30 6805 O 626.123 -0.639609 -2.06732 0
M  V30 6806 C 626.718 -3.38414 -0.161703 0
M  V30 6807 C 625.277 -3.71902 -0.580144 0
M  V30 6808 C 624.424 -2.76095 0.258218 0
M  V30 6809 H 627.375 -1.46647 0.606665 0
M  V30 6810 H 627.396 -3.67638 -0.980936 0
M  V30 6811 H 626.908 -3.78893 0.840333 0
M  V30 6812 H 625.009 -3.36992 -1.58957 0
M  V30 6813 H 625.122 -4.77902 -0.338663 0
M  V30 6814 H 623.486 -2.53195 -0.276432 0
M  V30 6815 H 624.269 -3.19411 1.25822 0
M  V30 6816 N 626.714 -0.118576 -1.57153 0
M  V30 6817 C 627.942 0.54726 -1.99531 0
M  V30 6818 C 628.357 1.60251 -0.998246 0
M  V30 6819 O 627.714 1.82498 0.00893106 0
M  V30 6820 C 627.765 1.17378 -3.41913 0
M  V30 6821 O 627.486 0.160703 -4.37805 0
M  V30 6822 C 628.987 1.92297 -3.9942 0
M  V30 6823 H 626.207 0.144919 -0.655164 0
M  V30 6824 H 628.751 -0.20479 -2.03472 0
M  V30 6825 H 626.906 1.87661 -3.38913 0
M  V30 6826 H 627.32 0.61586 -5.20872 0
M  V30 6827 H 628.794 2.31462 -5.01128 0
M  V30 6828 H 629.271 2.79801 -3.38538 0
M  V30 6829 H 629.877 1.26777 -4.05965 0
M  V30 6830 N 628.193 1.56834 0.155195 0
M  V30 6831 C 629.14 1.97646 1.19184 0
M  V30 6832 C 630.11 0.842788 1.4313 0
M  V30 6833 O 631.295 1.1042 1.55602 0
M  V30 6834 C 628.435 2.35527 2.52232 0
M  V30 6835 C 627.548 3.62147 2.35529 0
M  V30 6836 C 626.683 3.89167 3.61555 0
M  V30 6837 C 625.722 5.09084 3.39853 0
M  V30 6838 N 624.859 5.32156 4.5799 0
M  V30 6839 H 629.699 2.8601 0.836802 0
M  V30 6840 H 627.236 1.41507 0.401758 0
M  V30 6841 H 629.194 2.55516 3.29799 0
M  V30 6842 H 627.824 1.50253 2.85699 0
M  V30 6843 H 626.876 3.4998 1.49057 0
M  V30 6844 H 628.188 4.49871 2.15448 0
M  V30 6845 H 627.342 4.09611 4.47553 0
M  V30 6846 H 626.081 2.9985 3.84632 0
M  V30 6847 H 625.086 4.88522 2.52243 0
M  V30 6848 H 626.311 5.99947 3.18183 0
M  V30 6849 H 624.257 4.45791 4.81255 0
M  V30 6850 H 624.174 6.14133 4.40882 0
M  V30 6851 H 625.442 5.57091 5.45225 0
M  V30 6852 N 629.671 -0.424282 1.51781 0
M  V30 6853 C 631.082 -1.00368 1.57427 0
M  V30 6854 C 631.433 -1.91962 0.40558 0
M  V30 6855 O 630.558 -2.111 -0.47601 0
M  V30 6856 C 631.153 -1.82707 2.85313 0
M  V30 6857 C 629.712 -2.35675 2.93487 0
M  V30 6858 C 628.859 -1.1524 2.5222 0
M  V30 6859 H 631.81 -0.205064 1.5737 0
M  V30 6860 H 631.831 -2.68294 2.69812 0
M  V30 6861 H 631.343 -1.16017 3.70353 0
M  V30 6862 H 629.444 -3.05781 2.12906 0
M  V30 6863 H 629.557 -2.67578 3.97415 0
M  V30 6864 H 627.921 -1.50174 2.05718 0
M  V30 6865 H 628.704 -0.5014 3.39619 0
M  V30 6866 O 631.188 -1.51103 -0.570103 0
M  V30 6867 H 631.879 -1.50032 -1.22516 0
M  V30 END ATOM
M  V30 BEGIN BOND
M  V30 END BOND
M  V30 END CTAB
M  END
$$$$
