drugbank_target|P29717 Glucan 1,3-beta-glucosidase (DB01816)
 OpenBabel12092119523D

  0  0  0     0  0            999 V3000
M  V30 BEGIN CTAB
M  V30 COUNTS 6895 7008 0 0 0
M  V30 BEGIN ATOM
M  V30 1 H -0.908 1.98254 -0.117106 0
M  V30 2 N 0 1.576 0 0
M  V30 3 C 0.933 2.03868 1.02534 0
M  V30 4 C 1.911 0.928543 1.3348 0
M  V30 5 O 3.095 1.19667 1.45644 0
M  V30 6 C 0.222 2.43627 2.35294 0
M  V30 7 C -0.732 3.65373 2.2001 0
M  V30 8 S 0.101 5.13292 1.52614 0
M  V30 9 C 1.257 5.56322 2.86805 0
M  V30 10 H 1.49 2.90518 0.631377 0
M  V30 11 H -0.977 1.52953 0.210867 0
M  V30 12 H 0.981 2.67203 3.11629 0
M  V30 13 H -0.358 1.57376 2.7183 0
M  V30 14 H -1.165 3.90944 3.18086 0
M  V30 15 H -1.563 3.418 1.51819 0
M  V30 16 H 0.729 5.58782 3.83104 0
M  V30 17 H 1.672 6.56266 2.65933 0
M  V30 18 H 2.08 4.83886 2.90714 0
M  V30 19 N 1.4781 -0.272755 1.55222 0
M  V30 20 C 2.4101 -1.35946 1.8453 0
M  V30 21 C 3.4231 -1.45525 0.729818 0
M  V30 22 O 4.6121 -1.47337 1.00767 0
M  V30 23 C 1.7121 -2.74069 1.99347 0
M  V30 24 C 0.8851 -2.87079 3.30007 0
M  V30 25 C -0.0559 -4.05879 3.34886 0
M  V30 26 O -1.0299 -3.96626 4.08261 0
M  V30 27 N 0.1721 -5.17857 2.62307 0
M  V30 28 H 2.9371 -1.11149 2.78327 0
M  V30 29 H 0.4981 -0.462869 1.55142 0
M  V30 30 H 2.4901 -3.51838 1.99981 0
M  V30 31 H 1.0601 -2.91688 1.12415 0
M  V30 32 H 0.2801 -1.96193 3.41909 0
M  V30 33 H 1.5681 -2.92701 4.16177 0
M  V30 34 H 0.9661 -5.28261 2.02377 0
M  V30 35 H -0.4769 -5.93855 2.68663 0
M  V30 36 N 2.9562 -1.48159 -0.537278 0
M  V30 37 C 3.8862 -1.65029 -1.6519 0
M  V30 38 C 4.8672 -0.499281 -1.62607 0
M  V30 39 O 6.0522 -0.730972 -1.79918 0
M  V30 40 C 3.1822 -1.68303 -3.03795 0
M  V30 41 C 2.1362 -2.8283 -3.21234 0
M  V30 42 C 1.4622 -2.71189 -4.60826 0
M  V30 43 C 2.7622 -4.24211 -3.04701 0
M  V30 44 H 4.4562 -2.58341 -1.51328 0
M  V30 45 H 2.0022 -1.24325 -0.726585 0
M  V30 46 H 3.9552 -1.78693 -3.81637 0
M  V30 47 H 2.6792 -0.715635 -3.18663 0
M  V30 48 H 1.3382 -2.71983 -2.45807 0
M  V30 49 H 0.9862 -1.72435 -4.7252 0
M  V30 50 H 0.6862 -3.48035 -4.7344 0
M  V30 51 H 2.2102 -2.83537 -5.40777 0
M  V30 52 H 3.6242 -4.3593 -3.72341 0
M  V30 53 H 2.0212 -5.01998 -3.28813 0
M  V30 54 H 3.0912 -4.41184 -2.01209 0
M  V30 55 N 4.4343 0.785586 -1.36625 0
M  V30 56 C 5.6593 1.57963 -1.34397 0
M  V30 57 C 6.0843 1.87964 0.071526 0
M  V30 58 O 5.4423 1.48182 1.0446 0
M  V30 59 C 5.4903 2.87511 -2.17646 0
M  V30 60 O 4.5943 3.81281 -1.57158 0
M  V30 61 H 3.9353 0.479014 -0.459828 0
M  V30 62 H 6.4653 0.973411 -1.79961 0
M  V30 63 H 6.4753 3.36745 -2.30362 0
M  V30 64 H 5.1503 2.65002 -3.20541 0
M  V30 65 H 3.7273 3.39885 -1.53403 0
M  V30 66 N 5.9124 1.20967 1.01018 0
M  V30 67 C 7.1594 1.02374 1.74716 0
M  V30 68 C 7.4874 -0.443375 1.89379 0
M  V30 69 O 6.7424 -1.34535 1.42123 0
M  V30 70 C 7.0414 1.65997 3.16512 0
M  V30 71 C 6.7074 3.15831 3.2181 0
M  V30 72 C 5.3694 3.56719 3.22963 0
M  V30 73 C 7.7214 4.11816 3.19464 0
M  V30 74 C 5.0494 4.92107 3.19449 0
M  V30 75 C 7.4014 5.47158 3.17491 0
M  V30 76 C 6.0654 5.87451 3.16951 0
M  V30 77 H 5.3354 0.374614 0.639332 0
M  V30 78 H 7.9824 1.50485 1.18434 0
M  V30 79 H 6.2874 1.10166 3.75993 0
M  V30 80 H 7.9844 1.49119 3.72242 0
M  V30 81 H 4.5744 2.83263 3.21652 0
M  V30 82 H 8.7584 3.81257 3.17737 0
M  V30 83 H 4.0144 5.22579 3.17366 0
M  V30 84 H 8.1884 6.21274 3.14629 0
M  V30 85 H 5.8154 6.92329 3.13983 0
M  V30 86 N 7.3905 -1.2043 1.01659 0
M  V30 87 C 8.6395 -1.89118 0.701237 0
M  V30 88 C 8.9525 -1.79705 -0.772358 0
M  V30 89 O 10.1585 -2.43528 -1.20026 0
M  V30 90 C 8.6145 -3.39168 1.20388 0
M  V30 91 C 8.2225 -3.57166 2.70438 0
M  V30 92 C 9.9665 -4.1341 0.963953 0
M  V30 93 C 7.8735 -5.01042 3.14183 0
M  V30 94 H 6.8035 -0.708267 0.2586 0
M  V30 95 H 9.4545 -1.36239 1.22927 0
M  V30 96 H 7.8365 -3.91369 0.603824 0
M  V30 97 H 9.0105 -3.15351 3.35992 0
M  V30 98 H 7.3255 -2.96294 2.92572 0
M  V30 99 H 9.9225 -5.19491 1.26621 0
M  V30 100 H 10.2655 -4.16181 -0.099578 0
M  V30 101 H 10.7985 -3.67309 1.52738 0
M  V30 102 H 7.5375 -5.03426 4.19812 0
M  V30 103 H 7.0575 -5.43668 2.53348 0
M  V30 104 H 8.7365 -5.69623 3.0682 0
M  V30 105 N 8.8686 -0.792821 -1.36206 0
M  V30 106 C 9.7986 -0.207853 -2.32573 0
M  V30 107 C 10.7796 0.659055 -1.56813 0
M  V30 108 O 11.9646 0.592176 -1.84951 0
M  V30 109 C 9.0946 0.655449 -3.41059 0
M  V30 110 C 8.0486 -0.111842 -4.27854 0
M  V30 111 C 7.3746 0.872274 -5.27537 0
M  V30 112 C 8.6746 -1.30299 -5.05786 0
M  V30 113 H 10.3686 -1.01294 -2.81744 0
M  V30 114 H 7.9146 -0.48854 -1.3546 0
M  V30 115 H 9.8676 1.07464 -4.07467 0
M  V30 116 H 8.5916 1.49328 -2.90463 0
M  V30 117 H 7.2506 -0.512053 -3.63006 0
M  V30 118 H 6.8986 1.70523 -4.73214 0
M  V30 119 H 6.5986 0.363291 -5.86476 0
M  V30 120 H 8.1226 1.28996 -5.96818 0
M  V30 121 H 9.5366 -0.959379 -5.65216 0
M  V30 122 H 7.9336 -1.7455 -5.74154 0
M  V30 123 H 9.0036 -2.09663 -4.37229 0
M  V30 124 N 10.3467 1.47872 -0.545128 0
M  V30 125 C 11.5747 2.06889 -0.021084 0
M  V30 126 C 11.9897 1.39955 1.2672 0
M  V30 127 O 11.3467 0.492036 1.75742 0
M  V30 128 C 11.3977 3.60996 0.190817 0
M  V30 129 O 11.1187 4.25419 -1.04644 0
M  V30 130 C 12.6197 4.36849 0.753521 0
M  V30 131 H 9.8397 0.669785 -0.0403635 0
M  V30 132 H 12.3837 1.90049 -0.755095 0
M  V30 133 H 10.5387 3.77391 0.87492 0
M  V30 134 H 10.9527 5.17785 -0.836611 0
M  V30 135 H 12.4267 5.45399 0.851139 0
M  V30 136 H 12.9037 4.02306 1.762 0
M  V30 137 H 13.5097 4.25169 0.105503 0
M  V30 138 N 11.8248 0.280983 1.55075 0
M  V30 139 C 13.0498 -0.340154 2.04592 0
M  V30 140 C 13.4748 -1.48246 1.15779 0
M  V30 141 O 12.8328 -1.80614 0.15761 0
M  V30 142 C 12.8808 -0.793104 3.5177 0
M  V30 143 O 11.9848 -1.89981 3.66034 0
M  V30 144 H 11.3258 -0.0694289 0.66036 0
M  V30 145 H 13.8558 0.416993 2.00306 0
M  V30 146 H 13.8658 -1.08729 3.93245 0
M  V30 147 H 12.5408 0.0426163 4.15878 0
M  V30 148 H 11.1178 -1.60771 3.36463 0
M  V30 149 N 13.3029 -1.57598 0.00835791 0
M  V30 150 C 14.5279 -1.95617 -0.689103 0
M  V30 151 C 14.9529 -0.883753 -1.66046 0
M  V30 152 O 14.3109 0.157352 -1.80616 0
M  V30 153 C 14.3589 -3.32736 -1.38994 0
M  V30 154 O 13.4629 -3.27631 -2.50463 0
M  V30 155 H 12.8039 -0.638379 -0.182668 0
M  V30 156 H 15.3339 -2.045 0.064036 0
M  V30 157 H 15.3439 -3.68494 -1.75147 0
M  V30 158 H 14.0189 -4.1034 -0.677778 0
M  V30 159 H 12.5959 -3.03561 -2.16576 0
M  V30 160 N 14.781 0.264519 -1.55364 0
M  V30 161 C 16.027 0.99646 -1.76631 0
M  V30 162 C 16.36 1.85632 -0.570478 0
M  V30 163 O 15.635 1.89647 0.43175 0
M  V30 164 C 15.918 1.87187 -3.07625 0
M  V30 165 C 15.771 1.04138 -4.37579 0
M  V30 166 C 17.09 2.85749 -3.34717 0
M  V30 167 H 14.209 0.360841 -0.642622 0
M  V30 168 H 16.851 0.268218 -1.88097 0
M  V30 169 H 15.001 2.49279 -2.9798 0
M  V30 170 H 16.673 0.440517 -4.59192 0
M  V30 171 H 14.916 0.345115 -4.32425 0
M  V30 172 H 15.587 1.68729 -5.2558 0
M  V30 173 H 18.063 2.33793 -3.4421 0
M  V30 174 H 16.939 3.44136 -4.27623 0
M  V30 175 H 17.2 3.61311 -2.54768 0
M  V30 176 N 16.2591 1.48442 0.529413 0
M  V30 177 C 17.5061 1.56488 1.28521 0
M  V30 178 C 17.8341 0.239042 1.93025 0
M  V30 179 O 17.0891 -0.770713 1.79885 0
M  V30 180 C 17.3881 2.6523 2.39558 0
M  V30 181 C 17.0541 4.07648 1.92702 0
M  V30 182 C 15.7161 4.46411 1.79641 0
M  V30 183 C 18.0681 4.96896 1.573 0
M  V30 184 C 15.3961 5.72226 1.29514 0
M  V30 185 C 17.7481 6.23202 1.08636 0
M  V30 186 C 16.4121 6.60821 0.941919 0
M  V30 187 H 15.6821 0.572631 0.470292 0
M  V30 188 H 18.3291 1.82161 0.59072 0
M  V30 189 H 16.6341 2.33419 3.14679 0
M  V30 190 H 18.3311 2.68671 2.97686 0
M  V30 191 H 14.9211 3.77036 2.03819 0
M  V30 192 H 19.1051 4.67626 1.66251 0
M  V30 193 H 14.3611 6.00097 1.17019 0
M  V30 194 H 18.5351 6.91753 0.803136 0
M  V30 195 H 16.1621 7.58198 0.5513 0
M  V30 196 N 17.7372 -0.778329 1.37039 0
M  V30 197 C 18.9862 -1.53189 1.3121 0
M  V30 198 C 19.2992 -1.95328 -0.103095 0
M  V30 199 O 20.5052 -2.70012 -0.283826 0
M  V30 200 C 18.9612 -2.76591 2.30272 0
M  V30 201 C 18.5692 -2.41577 3.77286 0
M  V30 202 C 20.3132 -3.5455 2.33441 0
M  V30 203 C 18.2202 -3.61441 4.68096 0
M  V30 204 H 17.1502 -0.5751 0.487622 0
M  V30 205 H 19.8012 -0.853101 1.62464 0
M  V30 206 H 18.1832 -3.46326 1.92027 0
M  V30 207 H 19.3572 -1.79668 4.2433 0
M  V30 208 H 17.6722 -1.76806 3.76999 0
M  V30 209 H 20.2692 -4.43628 2.98493 0
M  V30 210 H 20.6122 -3.93936 1.34611 0
M  V30 211 H 21.1452 -2.91805 2.7036 0
M  V30 212 H 17.8842 -3.27142 5.6803 0
M  V30 213 H 17.4042 -4.22478 4.25761 0
M  V30 214 H 19.0832 -4.28335 4.8491 0
M  V30 215 N 19.2153 -1.21501 -1.00376 0
M  V30 216 C 20.1453 -0.999478 -2.11028 0
M  V30 217 C 21.1263 0.0759671 -1.6993 0
M  V30 218 O 22.3113 -0.0841106 -1.94018 0
M  V30 219 C 19.4413 -0.564709 -3.42678 0
M  V30 220 C 18.3953 -1.58486 -3.97576 0
M  V30 221 C 17.7213 -1.00628 -5.25146 0
M  V30 222 C 19.0213 -2.97204 -4.29496 0
M  V30 223 H 20.7153 -1.92495 -2.29317 0
M  V30 224 H 18.2613 -0.92693 -1.102 0
M  V30 225 H 20.2143 -0.401091 -4.19487 0
M  V30 226 H 18.9383 0.396411 -3.24185 0
M  V30 227 H 17.5973 -1.73606 -3.22888 0
M  V30 228 H 17.2453 -0.0368439 -5.02987 0
M  V30 229 H 16.9453 -1.68771 -5.62841 0
M  V30 230 H 18.4693 -0.854015 -6.04598 0
M  V30 231 H 19.8833 -2.8552 -4.97143 0
M  V30 232 H 18.2803 -3.62372 -4.78338 0
M  V30 233 H 19.3503 -3.47956 -3.3772 0
M  V30 234 N 20.6934 1.19889 -1.02296 0
M  V30 235 C 21.6234 2.25141 -0.619174 0
M  V30 236 C 22.6044 1.66051 0.368915 0
M  V30 237 O 23.7894 1.92546 0.252941 0
M  V30 238 C 20.9194 3.4728 0.0368783 0
M  V30 239 C 19.8734 4.19005 -0.872865 0
M  V30 240 C 19.1994 5.34637 -0.0822402 0
M  V30 241 C 20.4994 4.74452 -2.18387 0
M  V30 242 H 22.1934 2.59171 -1.49903 0
M  V30 243 H 19.7394 1.24579 -0.722222 0
M  V30 244 H 21.6924 4.20098 0.330958 0
M  V30 245 H 20.4164 3.12433 0.95149 0
M  V30 246 H 19.0754 3.48061 -1.15105 0
M  V30 247 H 18.7234 4.96034 0.83422 0
M  V30 248 H 18.4234 5.83557 -0.688149 0
M  V30 249 H 19.9474 6.10255 0.205238 0
M  V30 250 H 21.3614 5.39055 -1.95172 0
M  V30 251 H 19.7584 5.33834 -2.74119 0
M  V30 252 H 20.8284 3.92844 -2.84257 0
M  V30 253 N 22.1715 0.800033 1.35784 0
M  V30 254 C 23.1015 0.220184 2.3246 0
M  V30 255 C 24.0825 -0.65073 1.57161 0
M  V30 256 O 25.2675 -0.582359 1.85263 0
M  V30 257 C 22.3975 -0.637353 3.41402 0
M  V30 258 C 21.3515 0.134531 4.27789 0
M  V30 259 C 20.6775 -0.844285 5.27992 0
M  V30 260 C 21.9775 1.32979 5.05088 0
M  V30 261 H 23.6715 1.02787 2.81203 0
M  V30 262 H 21.2175 0.495717 1.35199 0
M  V30 263 H 23.1705 -1.05302 4.08031 0
M  V30 264 H 21.8945 -1.47785 2.91251 0
M  V30 265 H 20.5535 0.531296 3.6273 0
M  V30 266 H 20.2015 -1.68011 4.74111 0
M  V30 267 H 19.9015 -0.332184 5.8666 0
M  V30 268 H 21.4255 -1.2583 5.97494 0
M  V30 269 H 22.8395 0.98934 5.64699 0
M  V30 270 H 21.2365 1.77593 5.7322 0
M  V30 271 H 22.3065 2.11978 4.36111 0
M  V30 272 N 23.6496 -1.47581 0.552962 0
M  V30 273 C 24.5596 -2.33743 -0.200353 0
M  V30 274 C 25.5756 -1.47928 -0.916151 0
M  V30 275 O 26.7516 -1.80865 -0.885993 0
M  V30 276 C 23.8166 -3.24536 -1.21973 0
M  V30 277 C 22.8776 -4.26238 -0.511819 0
M  V30 278 C 22.1106 -5.12693 -1.48263 0
M  V30 279 O 22.3336 -5.01525 -2.71714 0
M  V30 280 O 21.2676 -5.93375 -1.00945 0
M  V30 281 H 25.0936 -2.9945 0.506304 0
M  V30 282 H 22.6786 -1.46071 0.313622 0
M  V30 283 H 24.5606 -3.80631 -1.80827 0
M  V30 284 H 23.2356 -2.61462 -1.90839 0
M  V30 285 H 22.1426 -3.73914 0.117799 0
M  V30 286 H 23.4756 -4.92014 0.135308 0
M  V30 287 N 25.1277 -0.289203 -1.54924 0
M  V30 288 C 26.3747 0.323519 -1.99899 0
M  V30 289 C 26.7027 1.54797 -1.17762 0
M  V30 290 O 25.9577 1.94237 -0.238835 0
M  V30 291 C 26.2567 0.736119 -3.49737 0
M  V30 292 C 25.9227 -0.385276 -4.49251 0
M  V30 293 C 24.5847 -0.693156 -4.76181 0
M  V30 294 C 26.9367 -1.14021 -5.08575 0
M  V30 295 C 24.2647 -1.7593 -5.59701 0
M  V30 296 C 26.6167 -2.19619 -5.93254 0
M  V30 297 C 25.2807 -2.51026 -6.185 0
M  V30 298 H 24.5507 0.118384 -0.731482 0
M  V30 299 H 27.1977 -0.405847 -1.8715 0
M  V30 300 H 25.5027 1.54539 -3.60035 0
M  V30 301 H 27.1997 1.22118 -3.81953 0
M  V30 302 H 23.7897 -0.135202 -4.28387 0
M  V30 303 H 27.9737 -0.915611 -4.87781 0
M  V30 304 H 23.2297 -2.0075 -5.77503 0
M  V30 305 H 27.4037 -2.78581 -6.38252 0
M  V30 306 H 25.0307 -3.33772 -6.83008 0
M  V30 307 N 26.6058 1.57591 -0.0167156 0
M  V30 308 C 27.8518 1.91567 0.665582 0
M  V30 309 C 28.1848 0.892298 1.72487 0
M  V30 310 O 27.4598 -0.0867127 1.94307 0
M  V30 311 C 27.7428 3.36069 1.29342 0
M  V30 312 C 27.5958 4.49135 0.244541 0
M  V30 313 C 28.9148 3.803 2.21495 0
M  V30 314 H 26.0338 0.69666 0.240488 0
M  V30 315 H 28.6758 1.89866 -0.0714356 0
M  V30 316 H 26.8258 3.3765 1.92158 0
M  V30 317 H 28.4978 4.59689 -0.385228 0
M  V30 318 H 26.7408 4.3165 -0.431379 0
M  V30 319 H 27.4118 5.47242 0.723207 0
M  V30 320 H 29.8878 3.80377 1.68678 0
M  V30 321 H 28.7638 4.82127 2.62382 0
M  V30 322 H 29.0248 3.15104 3.101 0
M  V30 323 N 28.0839 -0.256276 1.55502 0
M  V30 324 C 29.0309 -1.31714 1.89526 0
M  V30 325 C 30.0009 -1.4828 0.748479 0
M  V30 326 O 31.1859 -1.62416 1.00128 0
M  V30 327 C 28.3259 -2.66933 2.18725 0
M  V30 328 C 27.4389 -2.58452 3.4616 0
M  V30 329 C 26.5739 -3.85961 3.64976 0
M  V30 330 C 25.6129 -3.72059 4.86044 0
M  V30 331 N 24.7499 -4.9144 5.01429 0
M  V30 332 H 29.5899 -1.01998 2.80001 0
M  V30 333 H 27.1269 -0.492413 1.38613 0
M  V30 334 H 29.0849 -3.4563 2.33657 0
M  V30 335 H 27.7149 -2.94816 1.31466 0
M  V30 336 H 26.7669 -1.71374 3.3961 0
M  V30 337 H 28.0789 -2.44085 4.34999 0
M  V30 338 H 27.2329 -4.73101 3.79816 0
M  V30 339 H 25.9719 -4.03215 2.74353 0
M  V30 340 H 24.9769 -2.83302 4.7119 0
M  V30 341 H 26.2019 -3.56309 5.78118 0
M  V30 342 H 24.1479 -5.09072 4.13741 0
M  V30 343 H 24.0649 -4.79668 5.84341 0
M  V30 344 H 25.3329 -5.80104 5.20672 0
M  V30 345 N 29.562 -1.4872 -0.521534 0
M  V30 346 C 30.525 -1.63379 -1.60748 0
M  V30 347 C 31.525 -0.50661 -1.52611 0
M  V30 348 O 32.715 -0.772601 -1.5613 0
M  V30 349 C 29.847 -1.61192 -3.00383 0
M  V30 350 H 31.04 -2.60217 -1.49087 0
M  V30 351 H 28.593 -1.37444 -0.744235 0
M  V30 352 H 29.328 -0.65863 -3.17541 0
M  V30 353 H 29.113 -2.43032 -3.07698 0
M  V30 354 H 30.603 -1.7466 -3.7932 0
M  V30 355 N 31.0401 0.771051 -1.3745 0
M  V30 356 C 32.2651 1.56529 -1.36065 0
M  V30 357 C 32.6901 1.88029 0.0515859 0
M  V30 358 O 32.0481 1.49282 1.02882 0
M  V30 359 C 32.0961 2.85187 -2.20683 0
M  V30 360 O 31.2001 3.79593 -1.61193 0
M  V30 361 H 30.5411 0.47411 -0.464883 0
M  V30 362 H 33.0711 0.954269 -1.80983 0
M  V30 363 H 33.0811 3.34283 -2.33921 0
M  V30 364 H 31.7561 2.61588 -3.23334 0
M  V30 365 H 30.3331 3.38239 -1.56999 0
M  V30 366 N 32.5182 1.22032 0.997298 0
M  V30 367 C 33.7642 1.04376 1.73878 0
M  V30 368 C 34.0972 -0.420716 1.89588 0
M  V30 369 O 33.3722 -1.31202 1.43583 0
M  V30 370 C 33.6552 1.75047 3.14691 0
M  V30 371 C 33.5082 3.29062 3.06656 0
M  V30 372 C 34.8272 1.49928 4.13775 0
M  V30 373 H 31.9462 0.380578 0.631133 0
M  V30 374 H 34.5882 1.50312 1.16217 0
M  V30 375 H 32.7382 1.35996 3.63919 0
M  V30 376 H 34.4102 3.7753 2.65083 0
M  V30 377 H 32.6532 3.58967 2.43568 0
M  V30 378 H 33.3242 3.73683 4.06282 0
M  V30 379 H 35.8002 1.83842 3.73285 0
M  V30 380 H 34.6762 2.01878 5.10428 0
M  V30 381 H 34.9372 0.430929 4.39995 0
M  V30 382 N 33.9963 -1.19345 1.0293 0
M  V30 383 C 35.2453 -1.88363 0.721256 0
M  V30 384 C 35.5583 -1.80514 -0.753254 0
M  V30 385 O 36.7643 -2.44788 -1.17436 0
M  V30 386 C 35.2203 -3.37872 1.23978 0
M  V30 387 C 34.8283 -3.54278 2.74211 0
M  V30 388 C 36.5723 -4.12365 1.00775 0
M  V30 389 C 34.4793 -4.97682 3.19479 0
M  V30 390 H 33.4093 -0.705484 0.266098 0
M  V30 391 H 36.0603 -1.34928 1.24365 0
M  V30 392 H 34.4423 -3.90707 0.6453 0
M  V30 393 H 35.6163 -3.11769 3.39318 0
M  V30 394 H 33.9313 -2.93174 2.95699 0
M  V30 395 H 36.5283 -5.18119 1.32123 0
M  V30 396 H 36.8713 -4.16263 -0.0554308 0
M  V30 397 H 37.4043 -3.65668 1.56625 0
M  V30 398 H 34.1433 -4.98945 4.25128 0
M  V30 399 H 33.6633 -5.4095 2.591 0
M  V30 400 H 35.3423 -5.66337 3.12845 0
M  V30 401 N 35.4744 -0.807222 -1.35358 0
M  V30 402 C 36.6994 -0.399309 -2.0352 0
M  V30 403 C 37.1244 0.981986 -1.60433 0
M  V30 404 O 36.4824 1.63601 -0.781299 0
M  V30 405 C 36.5304 -0.491552 -3.57234 0
M  V30 406 O 35.6344 0.494754 -4.09421 0
M  V30 407 H 34.9754 -0.166682 -0.642739 0
M  V30 408 H 37.5054 -1.09328 -1.72941 0
M  V30 409 H 37.5154 -0.361588 -4.06395 0
M  V30 410 H 36.1904 -1.49907 -3.87944 0
M  V30 411 H 34.7674 0.324977 -3.71481 0
M  V30 412 N 36.9525 1.47285 -0.560781 0
M  V30 413 C 37.9005 2.31756 0.197942 0
M  V30 414 C 38.8945 1.43146 0.905854 0
M  V30 415 O 40.1005 1.59891 0.826733 0
M  V30 416 H 36.4755 0.747438 0.0827049 0
M  V30 417 H 38.4465 2.9359 -0.533629 0
M  V30 418 C 37.1955 3.25874 1.21249 0
M  V30 419 H 36.5185 3.94023 0.67719 0
M  V30 420 H 37.9585 3.87803 1.71419 0
M  V30 421 C 36.4175 2.49651 2.26221 0
M  V30 422 O 36.9475 2.24355 3.33208 0
M  V30 423 N 35.1535 2.10597 2.00243 0
M  V30 424 H 34.7005 2.31369 1.13252 0
M  V30 425 H 34.6585 1.59913 2.70694 0
M  V30 426 N 38.4306 0.297415 1.54768 0
M  V30 427 C 39.8416 -0.195947 1.85669 0
M  V30 428 C 40.1926 -1.53707 1.21937 0
M  V30 429 O 39.3176 -2.10164 0.515754 0
M  V30 430 C 39.9126 -0.362318 3.36857 0
M  V30 431 C 38.4716 -0.799901 3.67802 0
M  V30 432 C 37.6186 0.0938578 2.77141 0
M  V30 433 H 40.5696 0.518538 1.4999 0
M  V30 434 H 40.5906 -1.19745 3.61167 0
M  V30 435 H 40.1026 0.613921 3.83214 0
M  V30 436 H 38.2036 -1.78682 3.26961 0
M  V30 437 H 38.3166 -0.621773 4.75048 0
M  V30 438 H 36.6806 -0.426254 2.51108 0
M  V30 439 H 37.4636 1.06639 3.26318 0
M  V30 440 N 39.9087 -1.5758 0.0250728 0
M  V30 441 C 41.1557 -1.91633 -0.654444 0
M  V30 442 C 41.4837 -0.901103 -1.72367 0
M  V30 443 O 40.7387 0.0905647 -1.9549 0
M  V30 444 C 41.0377 -3.32421 -1.31268 0
M  V30 445 C 40.7037 -4.49344 -0.374223 0
M  V30 446 C 39.3657 -4.8106 -0.115911 0
M  V30 447 C 41.7177 -5.20498 0.270432 0
M  V30 448 C 39.0457 -5.8129 0.79493 0
M  V30 449 C 41.3977 -6.21699 1.1693 0
M  V30 450 C 40.0617 -6.51859 1.43655 0
M  V30 451 H 39.3317 -0.701236 -0.239478 0
M  V30 452 H 41.9787 -1.91307 0.0859734 0
M  V30 453 H 40.2837 -3.28989 -2.12775 0
M  V30 454 H 41.9807 -3.56038 -1.84494 0
M  V30 455 H 38.5707 -4.24579 -0.58573 0
M  V30 456 H 42.7547 -4.96229 0.0839194 0
M  V30 457 H 38.0107 -6.03005 1.00973 0
M  V30 458 H 42.1847 -6.75955 1.67504 0
M  V30 459 H 39.8117 -7.2934 2.144 0
M  V30 460 N 41.3868 0.248026 -1.55636 0
M  V30 461 C 42.3338 1.30707 -1.90222 0
M  V30 462 C 43.3038 1.47881 -0.756332 0
M  V30 463 O 44.4888 1.61883 -1.00988 0
M  V30 464 C 41.6288 2.65769 -2.20138 0
M  V30 465 C 40.7418 2.56612 -3.47526 0
M  V30 466 C 39.8768 3.8402 -3.67017 0
M  V30 467 C 38.9158 3.69476 -4.8801 0
M  V30 468 N 38.0528 4.88774 -5.04029 0
M  V30 469 H 42.8928 1.00512 -2.80538 0
M  V30 470 H 40.4298 0.485055 -1.38873 0
M  V30 471 H 42.3878 3.44386 -2.35487 0
M  V30 472 H 41.0178 2.94115 -1.33027 0
M  V30 473 H 40.0698 1.69571 -3.40514 0
M  V30 474 H 41.3818 2.41774 -4.36287 0
M  V30 475 H 40.5358 4.7108 -3.8232 0
M  V30 476 H 39.2748 4.01754 -2.76487 0
M  V30 477 H 38.2798 2.80799 -4.72686 0
M  V30 478 H 39.5048 3.53238 -5.8 0
M  V30 479 H 37.4508 5.0687 -4.16435 0
M  V30 480 H 37.3678 4.76562 -5.86877 0
M  V30 481 H 38.6358 5.77335 -5.23741 0
M  V30 482 N 42.8649 1.48995 0.513639 0
M  V30 483 C 44.2759 1.5119 1.09537 0
M  V30 484 C 44.6269 0.290906 1.94031 0
M  V30 485 O 43.7519 -0.60049 2.07902 0
M  V30 486 C 44.3469 2.73964 1.99322 0
M  V30 487 C 42.9059 2.78978 2.52682 0
M  V30 488 C 42.0529 2.44934 1.30009 0
M  V30 489 H 45.0039 1.55875 0.298125 0
M  V30 490 H 45.0249 2.53409 2.83838 0
M  V30 491 H 44.5369 3.62813 1.37799 0
M  V30 492 H 42.6379 1.94378 3.1788 0
M  V30 493 H 42.7509 3.8083 2.90698 0
M  V30 494 H 41.1149 1.9644 1.62122 0
M  V30 495 H 41.8979 3.36043 0.702131 0
M  V30 496 N 44.343 -0.763751 1.37857 0
M  V30 497 C 45.291 -1.89864 1.34367 0
M  V30 498 C 46.285 -1.67816 0.231143 0
M  V30 499 O 47.491 -1.75508 0.399617 0
M  V30 500 H 43.866 -0.624501 0.41893 0
M  V30 501 H 45.837 -1.89925 2.30155 0
M  V30 502 C 44.586 -3.27227 1.1755 0
M  V30 503 H 43.909 -3.44773 2.02414 0
M  V30 504 H 45.349 -4.06911 1.1916 0
M  V30 505 C 43.808 -3.36692 -0.118311 0
M  V30 506 O 44.338 -3.86374 -1.09902 0
M  V30 507 N 42.544 -2.90092 -0.171717 0
M  V30 508 H 42.091 -2.49853 0.627012 0
M  V30 509 H 42.049 -2.96806 -1.03699 0
M  V30 510 N 45.8211 -1.22559 -0.990812 0
M  V30 511 C 47.0691 -1.04933 -1.72724 0
M  V30 512 C 47.3901 0.416158 -1.90508 0
M  V30 513 O 46.6601 1.29918 -1.46622 0
M  V30 514 H 45.2401 -0.385296 -0.639965 0
M  V30 515 H 47.9021 -1.54105 -1.19322 0
M  V30 516 H 46.9981 -1.52886 -2.72089 0
M  V30 517 N 47.2992 1.18797 -1.03562 0
M  V30 518 C 48.2472 2.24297 -0.615905 0
M  V30 519 C 49.2412 1.65643 0.354808 0
M  V30 520 O 50.4472 1.78618 0.22265 0
M  V30 521 H 46.8222 0.729909 -0.180934 0
M  V30 522 H 48.7932 2.5701 -1.5162 0
M  V30 523 C 47.5422 3.47698 0.0104735 0
M  V30 524 H 46.8652 3.93125 -0.727509 0
M  V30 525 H 48.3052 4.23159 0.266995 0
M  V30 526 C 46.7642 3.12489 1.25905 0
M  V30 527 O 47.2942 3.25761 2.35038 0
M  V30 528 N 45.5002 2.6686 1.15039 0
M  V30 529 H 45.0472 2.56261 0.262328 0
M  V30 530 H 45.0052 2.43674 1.98672 0
M  V30 531 N 48.7773 0.814389 1.34928 0
M  V30 532 C 49.7073 0.244827 2.32213 0
M  V30 533 C 50.6883 -0.634024 1.57842 0
M  V30 534 O 51.8733 -0.562676 1.8587 0
M  V30 535 C 49.0033 -0.601106 3.42058 0
M  V30 536 C 47.9573 0.179896 4.27622 0
M  V30 537 C 47.2833 -0.788237 5.28858 0
M  V30 538 C 48.5833 1.38329 5.03649 0
M  V30 539 H 50.2773 1.05763 2.80097 0
M  V30 540 H 47.8233 0.510029 1.34665 0
M  V30 541 H 49.7763 -1.00968 4.09125 0
M  V30 542 H 48.5003 -1.44688 2.92802 0
M  V30 543 H 47.1593 0.569739 3.62146 0
M  V30 544 H 46.8073 -1.62973 4.75866 0
M  V30 545 H 46.5073 -0.269942 5.8698 0
M  V30 546 H 48.0313 -1.19485 5.98795 0
M  V30 547 H 49.4453 1.04918 5.63618 0
M  V30 548 H 47.8423 1.83662 5.71304 0
M  V30 549 H 48.9123 2.16592 4.33839 0
M  V30 550 N 50.2554 -1.46986 0.568584 0
M  V30 551 C 51.2024 -2.30153 -0.172707 0
M  V30 552 C 52.1724 -1.39759 -0.897586 0
M  V30 553 O 53.3574 -1.68716 -0.891044 0
M  V30 554 C 50.4974 -3.23952 -1.1895 0
M  V30 555 C 49.6104 -4.29441 -0.469517 0
M  V30 556 C 48.7454 -5.1038 -1.47259 0
M  V30 557 C 47.7844 -6.07632 -0.738225 0
M  V30 558 N 46.9214 -6.8149 -1.68868 0
M  V30 559 H 51.7614 -2.93019 0.542596 0
M  V30 560 H 49.2984 -1.44422 0.279401 0
M  V30 561 H 51.2564 -3.76767 -1.79173 0
M  V30 562 H 49.8864 -2.62926 -1.87269 0
M  V30 563 H 48.9384 -3.79594 0.247467 0
M  V30 564 H 50.2504 -4.98689 0.105241 0
M  V30 565 H 49.4044 -5.67402 -2.14803 0
M  V30 566 H 48.1434 -4.4106 -2.08128 0
M  V30 567 H 47.1484 -5.49778 -0.0489293 0
M  V30 568 H 48.3734 -6.78966 -0.135129 0
M  V30 569 H 46.3194 -6.14891 -2.28573 0
M  V30 570 H 46.2364 -7.46948 -1.16636 0
M  V30 571 H 47.5044 -7.43078 -2.3549 0
M  V30 572 N 51.7335 -0.305618 -1.54608 0
M  V30 573 C 52.9805 0.302298 -2.00231 0
M  V30 574 C 53.3085 1.5354 -1.19398 0
M  V30 575 O 52.5635 1.93973 -0.259423 0
M  V30 576 C 52.8625 0.698983 -3.50498 0
M  V30 577 C 52.5285 -0.432903 -4.48817 0
M  V30 578 C 51.1905 -0.743622 -4.75419 0
M  V30 579 C 53.5425 -1.19409 -5.07337 0
M  V30 580 C 50.8705 -1.81857 -5.57804 0
M  V30 581 C 53.2225 -2.25899 -5.90891 0
M  V30 582 C 51.8865 -2.57572 -6.15803 0
M  V30 583 H 51.1565 0.110619 -0.732697 0
M  V30 584 H 53.8035 -0.425674 -1.86709 0
M  V30 585 H 52.1085 1.50711 -3.61654 0
M  V30 586 H 53.8055 1.1806 -3.83227 0
M  V30 587 H 50.3955 -0.18063 -4.28219 0
M  V30 588 H 54.5795 -0.967295 -4.86782 0
M  V30 589 H 49.8355 -2.06864 -5.75341 0
M  V30 590 H 54.0095 -2.85335 -6.35261 0
M  V30 591 H 51.6365 -3.40998 -6.7943 0
M  V30 592 N 53.2116 1.57565 -0.0334293 0
M  V30 593 C 54.1586 2.10478 0.946981 0
M  V30 594 C 55.1286 1.00787 1.32027 0
M  V30 595 O 56.3136 1.28232 1.41284 0
M  V30 596 C 53.4536 2.63994 2.22263 0
M  V30 597 C 52.5666 3.87709 1.90541 0
M  V30 598 C 51.7016 4.29604 3.12433 0
M  V30 599 C 50.7406 5.46065 2.76549 0
M  V30 600 N 49.8776 5.83096 3.9108 0
M  V30 601 H 54.7176 2.93963 0.488846 0
M  V30 602 H 52.2546 1.45296 0.22969 0
M  V30 603 H 54.2126 2.93114 2.96884 0
M  V30 604 H 52.8426 1.83333 2.65685 0
M  V30 605 H 51.8946 3.65291 1.06144 0
M  V30 606 H 53.2066 4.72403 1.60116 0
M  V30 607 H 52.3606 4.60182 3.9537 0
M  V30 608 H 51.0996 3.43685 3.46023 0
M  V30 609 H 50.1046 5.15176 1.92026 0
M  V30 610 H 51.3296 6.33685 2.44171 0
M  V30 611 H 49.2756 5.00132 4.24504 0
M  V30 612 H 49.1926 6.6244 3.64293 0
M  V30 613 H 50.4606 6.18282 4.74708 0
M  V30 614 N 54.6897 -0.239769 1.55765 0
M  V30 615 C 56.1057 -0.588624 1.48349 0
M  V30 616 C 56.3057 -1.88005 0.72502 0
M  V30 617 O 55.3617 -2.51186 0.257269 0
M  V30 618 C 56.6747 -0.68474 2.928 0
M  V30 619 C 58.2227 -0.77659 3.03213 0
M  V30 620 C 58.6977 -0.904207 4.48986 0
M  V30 621 N 60.1887 -0.968896 4.52953 0
M  V30 622 C 60.9237 -1.08703 5.63002 0
M  V30 623 N 60.4197 -1.17026 6.82845 0
M  V30 624 N 62.2127 -1.12074 5.50814 0
M  V30 625 H 54.3637 0.607911 2.03515 0
M  V30 626 H 56.6267 0.21083 0.924259 0
M  V30 627 H 56.3327 0.194284 3.51163 0
M  V30 628 H 56.2067 -1.55435 3.43686 0
M  V30 629 H 58.5937 -1.64606 2.44926 0
M  V30 630 H 58.6747 0.118315 2.55526 0
M  V30 631 H 58.3187 -0.0392633 5.07885 0
M  V30 632 H 58.2487 -1.81426 4.9436 0
M  V30 633 H 60.7397 -0.915633 3.6664 0
M  V30 634 H 61.0527 -1.25966 7.62465 0
M  V30 635 H 59.3977 -1.13971 6.85591 0
M  V30 636 H 62.5887 -1.05226 4.5612 0
M  V30 637 H 62.7617 -1.20936 6.36615 0
M  V30 638 N 56.1678 -1.49265 -0.50573 0
M  V30 639 C 57.4158 -1.582 -1.25766 0
M  V30 640 C 57.7368 -0.268482 -1.93143 0
M  V30 641 O 57.0068 0.711833 -1.8251 0
M  V30 642 H 55.5868 -0.582873 -0.467191 0
M  V30 643 H 58.2488 -1.85865 -0.586525 0
M  V30 644 H 57.3448 -2.37563 -2.02412 0
M  V30 645 N 57.6459 0.756429 -1.3826 0
M  V30 646 C 58.8939 1.51248 -1.34047 0
M  V30 647 C 59.2149 1.94875 0.0698372 0
M  V30 648 O 58.4849 1.67436 1.01696 0
M  V30 649 H 57.0649 0.561018 -0.493222 0
M  V30 650 H 59.7269 0.899347 -1.7291 0
M  V30 651 H 58.8229 2.40472 -1.98947 0
M  V30 652 N 59.124 1.23083 0.984299 0
M  V30 653 C 60.372 1.05848 1.72165 0
M  V30 654 C 60.693 -0.406049 1.90726 0
M  V30 655 O 59.963 -1.29139 1.47309 0
M  V30 656 H 58.543 0.388685 0.637913 0
M  V30 657 H 61.205 1.54736 1.18503 0
M  V30 658 H 60.301 1.54327 2.71274 0
M  V30 659 N 60.6021 -1.18246 1.0419 0
M  V30 660 C 61.5521 -2.19843 0.604392 0
M  V30 661 C 62.5361 -1.56962 -0.353814 0
M  V30 662 O 63.7281 -1.76156 -0.17267 0
M  V30 663 C 60.8571 -3.43287 -0.0298975 0
M  V30 664 C 59.9431 -4.13288 0.951531 0
M  V30 665 N 60.3341 -4.59271 2.11906 0
M  V30 666 C 58.6321 -4.39165 0.7778 0
M  V30 667 C 59.3331 -5.13173 2.73912 0
M  V30 668 N 58.3091 -5.04763 2.01779 0
M  V30 669 H 62.1111 -2.53089 1.4941 0
M  V30 670 H 59.6251 -1.34465 0.910658 0
M  V30 671 H 61.6221 -4.15334 -0.361037 0
M  V30 672 H 60.2821 -3.11537 -0.915127 0
M  V30 673 H 61.2931 -4.5368 2.49789 0
M  V30 674 H 57.9701 -4.17461 -0.0572331 0
M  V30 675 H 59.3601 -5.58947 3.72864 0
M  V30 676 N 62.0802 -0.821533 -1.34494 0
M  V30 677 C 63.0282 -0.230702 -2.31453 0
M  V30 678 C 64.0222 0.627793 -1.57338 0
M  V30 679 O 65.2282 0.519288 -1.72347 0
M  V30 680 H 61.6032 -0.0558577 -0.749923 0
M  V30 681 H 63.5742 -1.06332 -2.78812 0
M  V30 682 C 62.3232 0.59391 -3.4259 0
M  V30 683 H 61.6462 -0.0573588 -3.99759 0
M  V30 684 H 63.0862 0.973446 -4.12674 0
M  V30 685 C 61.5452 1.76568 -2.86924 0
M  V30 686 O 62.0752 2.8638 -2.81691 0
M  V30 687 N 60.2812 1.58198 -2.43766 0
M  V30 688 H 59.8282 0.68872 -2.48222 0
M  V30 689 H 59.7862 2.36752 -2.06871 0
M  V30 690 N 63.5583 1.46682 -0.576371 0
M  V30 691 C 64.8043 2.02712 -0.0596221 0
M  V30 692 C 65.1373 1.44765 1.29448 0
M  V30 693 O 64.4123 0.610355 1.84675 0
M  V30 694 C 64.6953 3.60098 0.0129503 0
M  V30 695 C 64.5483 4.28441 -1.3696 0
M  V30 696 C 65.8673 4.34224 0.71678 0
M  V30 697 H 62.9863 0.736637 -0.0231407 0
M  V30 698 H 65.6283 1.74898 -0.742351 0
M  V30 699 H 63.7783 3.83926 0.594378 0
M  V30 700 H 65.4503 4.15896 -1.9957 0
M  V30 701 H 63.6933 3.8805 -1.93907 0
M  V30 702 H 64.3643 5.3716 -1.27135 0
M  V30 703 H 66.8403 4.15503 0.222908 0
M  V30 704 H 65.7163 5.43936 0.73657 0
M  V30 705 H 65.9773 4.04823 1.77682 0
M  V30 706 N 65.0364 0.313813 1.54444 0
M  V30 707 C 65.9994 -0.54379 2.22656 0
M  V30 708 C 66.9994 -1.05124 1.21678 0
M  V30 709 O 68.1894 -0.945225 1.46325 0
M  V30 710 C 65.3214 -1.75427 2.92298 0
M  V30 711 H 66.5144 0.0523599 2.99854 0
M  V30 712 H 64.0674 0.0647834 1.56166 0
M  V30 713 H 64.8024 -2.38991 2.19211 0
M  V30 714 H 64.5874 -1.39791 3.66334 0
M  V30 715 H 66.0774 -2.36325 3.44297 0
M  V30 716 N 66.5145 -1.57545 0.0417849 0
M  V30 717 C 67.7605 -1.93424 -0.629168 0
M  V30 718 C 68.1155 -0.919564 -1.69002 0
M  V30 719 O 67.4085 0.0626178 -1.91498 0
M  V30 720 C 67.6025 -3.33794 -1.27735 0
M  V30 721 C 67.4315 -4.48822 -0.280806 0
M  V30 722 C 66.2015 -5.05148 0.123869 0
M  V30 723 C 68.3995 -5.12148 0.470012 0
M  V30 724 N 66.3815 -6.03703 1.11426 0
M  V30 725 C 67.7525 -6.05921 1.31377 0
M  V30 726 C 69.8075 -4.95078 0.529343 0
M  V30 727 C 68.5105 -6.84459 2.21152 0
M  V30 728 C 70.5365 -5.74235 1.41448 0
M  V30 729 C 69.8985 -6.67634 2.24598 0
M  V30 730 H 65.9975 -0.755418 -0.202158 0
M  V30 731 H 68.5815 -1.94378 0.111923 0
M  V30 732 H 66.7525 -3.33635 -1.98852 0
M  V30 733 H 68.4845 -3.56988 -1.90635 0
M  V30 734 H 65.2395 -4.72923 -0.253178 0
M  V30 735 H 65.6635 -6.57674 1.60607 0
M  V30 736 H 70.3055 -4.22683 -0.0992798 0
M  V30 737 H 68.0235 -7.56151 2.85063 0
M  V30 738 H 71.6095 -5.63057 1.46484 0
M  V30 739 H 70.4895 -7.27817 2.9198 0
M  V30 740 N 67.9926 0.231505 -1.5589 0
M  V30 741 C 69.2696 0.981096 -1.69215 0
M  V30 742 C 69.6496 2.02799 -0.586164 0
M  V30 743 O 68.9976 2.24823 0.408253 0
M  V30 744 C 69.2076 1.60054 -3.10135 0
M  V30 745 C 70.5556 2.09658 -3.69227 0
M  V30 746 O 71.5796 1.69967 -3.13033 0
M  V30 747 O 70.4386 2.8258 -4.67772 0
M  V30 748 H 67.5326 0.457653 -0.688827 0
M  V30 749 H 70.0786 0.224073 -1.68214 0
M  V30 750 H 68.8506 0.844105 -3.82087 0
M  V30 751 H 68.4736 2.42336 -3.15212 0
M  V30 752 N 69.4707 1.49531 0.497807 0
M  V30 753 C 70.7007 1.62657 1.27382 0
M  V30 754 C 71.1087 0.298488 1.86831 0
M  V30 755 O 70.4517 -0.72647 1.68725 0
M  V30 756 C 70.5137 2.6393 2.44093 0
M  V30 757 C 70.1777 4.08195 2.05489 0
M  V30 758 C 71.1747 4.949 1.59279 0
M  V30 759 C 68.8597 4.53948 2.15026 0
M  V30 760 C 70.8537 6.25397 1.23113 0
M  V30 761 C 68.5407 5.84458 1.78473 0
M  V30 762 C 69.5387 6.70006 1.32591 0
M  V30 763 O 69.2267 7.98083 0.965327 0
M  V30 764 H 68.9587 0.550429 0.392434 0
M  V30 765 H 71.5127 1.96325 0.603801 0
M  V30 766 H 69.7427 2.25449 3.14181 0
M  V30 767 H 71.4317 2.66552 3.06113 0
M  V30 768 H 72.1977 4.60779 1.51354 0
M  V30 769 H 68.0767 3.87525 2.4969 0
M  V30 770 H 71.6207 6.92125 0.872299 0
M  V30 771 H 67.5177 6.18107 1.86048 0
M  V30 772 H 68.2857 8.11122 1.09652 0
M  V30 773 N 70.9488 -0.749086 1.3866 0
M  V30 774 C 72.2258 -1.4992 1.25632 0
M  V30 775 C 72.6058 -2.10633 -0.140317 0
M  V30 776 O 71.9538 -1.97437 -1.15025 0
M  V30 777 C 72.1638 -2.56195 2.36992 0
M  V30 778 C 73.5118 -3.22972 2.75634 0
M  V30 779 O 74.5358 -2.66502 2.36337 0
M  V30 780 O 73.3948 -4.25122 3.43415 0
M  V30 781 H 70.4888 -0.665067 0.491544 0
M  V30 782 H 73.0348 -0.784113 1.50498 0
M  V30 783 H 71.8068 -2.09612 3.30422 0
M  V30 784 H 71.4298 -3.35279 2.13714 0
M  V30 785 N 72.4269 -1.23603 -0.977757 0
M  V30 786 C 73.3749 -1.01704 -2.09187 0
M  V30 787 C 74.3689 0.0448214 -1.69341 0
M  V30 788 O 75.5749 -0.108902 -1.7967 0
M  V30 789 H 71.9499 -0.311803 -0.684312 0
M  V30 790 H 73.9209 -1.96207 -2.24823 0
M  V30 791 C 72.6699 -0.627746 -3.41986 0
M  V30 792 H 71.9929 -1.43656 -3.73099 0
M  V30 793 H 73.4329 -0.514053 -4.20872 0
M  V30 794 C 71.8919 0.664238 -3.30287 0
M  V30 795 O 72.4219 1.71268 -3.6336 0
M  V30 796 N 70.6279 0.641156 -2.83439 0
M  V30 797 H 70.1749 -0.212376 -2.56723 0
M  V30 798 H 70.1329 1.50583 -2.75993 0
M  V30 799 N 73.905 1.17692 -1.04816 0
M  V30 800 C 74.853 2.23632 -0.63966 0
M  V30 801 C 75.847 1.6601 0.337219 0
M  V30 802 O 77.053 1.78844 0.203693 0
M  V30 803 H 73.428 0.727949 -0.188665 0
M  V30 804 H 75.399 2.55387 -1.54337 0
M  V30 805 C 74.148 3.4769 -0.0264051 0
M  V30 806 H 73.471 3.92331 -0.769164 0
M  V30 807 H 74.911 4.23418 0.222098 0
M  V30 808 C 73.37 3.13807 1.22584 0
M  V30 809 O 73.9 3.28236 2.31569 0
M  V30 810 N 72.106 2.68065 1.12202 0
M  V30 811 H 71.653 2.56525 0.235133 0
M  V30 812 H 71.611 2.45767 1.96076 0
M  V30 813 N 75.3831 0.828654 1.34056 0
M  V30 814 C 76.6291 0.42008 1.98402 0
M  V30 815 C 76.9621 -1.01564 1.65525 0
M  V30 816 O 76.2371 -1.70834 0.929831 0
M  V30 817 C 76.5201 0.62927 3.54559 0
M  V30 818 C 76.3731 2.11152 3.97159 0
M  V30 819 C 77.6921 0.0688756 4.40046 0
M  V30 820 H 74.8111 0.154104 0.720709 0
M  V30 821 H 77.4531 1.04228 1.5886 0
M  V30 822 H 75.6031 0.0996418 3.88372 0
M  V30 823 H 77.2751 2.70522 3.73651 0
M  V30 824 H 75.5181 2.59985 3.47261 0
M  V30 825 H 76.1891 2.20868 5.05887 0
M  V30 826 H 78.6651 0.521458 4.1282 0
M  V30 827 H 77.5411 0.245006 5.48353 0
M  V30 828 H 77.8021 -1.0266 4.30015 0
M  V30 829 N 76.8612 -1.46375 0.584142 0
M  V30 830 C 78.1102 -2.01585 0.0679741 0
M  V30 831 C 78.4232 -1.46109 -1.30045 0
M  V30 832 O 79.6292 -1.93148 -1.90804 0
M  V30 833 C 78.0852 -3.5983 0.0709207 0
M  V30 834 C 77.6932 -4.24303 1.43775 0
M  V30 835 C 79.4372 -4.22693 -0.391228 0
M  V30 836 C 77.3442 -5.74631 1.39834 0
M  V30 837 H 76.2742 -0.753689 0.0216421 0
M  V30 838 H 78.9252 -1.68093 0.736001 0
M  V30 839 H 77.3072 -3.90405 -0.663299 0
M  V30 840 H 78.4812 -4.05335 2.19181 0
M  V30 841 H 76.7962 -3.73539 1.84004 0
M  V30 842 H 79.3932 -5.3289 -0.439524 0
M  V30 843 H 79.7362 -3.91728 -1.40906 0
M  V30 844 H 80.2692 -3.96749 0.288974 0
M  V30 845 H 77.0082 -6.10258 2.39303 0
M  V30 846 H 76.5282 -5.95858 0.686505 0
M  V30 847 H 78.2072 -6.37375 1.11187 0
M  V30 848 N 78.3393 -0.321999 -1.54275 0
M  V30 849 C 79.7553 0.0306999 -1.5957 0
M  V30 850 C 79.9553 1.50614 -1.33857 0
M  V30 851 O 79.0113 2.2619 -1.12223 0
M  V30 852 C 80.3243 -0.386122 -2.98211 0
M  V30 853 C 81.8723 -0.336647 -3.11184 0
M  V30 854 C 82.3473 -0.728607 -4.52167 0
M  V30 855 N 83.8383 -0.681952 -4.58152 0
M  V30 856 C 84.5733 -0.957449 -5.6535 0
M  V30 857 N 84.0693 -1.3 -6.80494 0
M  V30 858 N 85.8623 -0.883113 -5.55119 0
M  V30 859 H 78.0133 -1.28332 -1.69247 0
M  V30 860 H 80.2763 -0.521716 -0.791528 0
M  V30 861 H 79.9823 -1.41404 -3.22022 0
M  V30 862 H 79.8563 0.249662 -3.76373 0
M  V30 863 H 82.2433 0.682058 -2.8711 0
M  V30 864 H 82.3243 -1.00734 -2.3513 0
M  V30 865 H 81.9683 -1.74522 -4.76974 0
M  V30 866 H 81.8983 -0.0356152 -5.26588 0
M  V30 867 H 84.3893 -0.428985 -3.75457 0
M  V30 868 H 84.7023 -1.49563 -7.58189 0
M  V30 869 H 83.0473 -1.33824 -6.81994 0
M  V30 870 H 86.2383 -0.615001 -4.64042 0
M  V30 871 H 86.4113 -1.10118 -6.38575 0
M  V30 872 N 79.8174 1.5752 -0.0501392 0
M  V30 873 C 81.0654 1.9227 0.622642 0
M  V30 874 C 81.3864 0.929083 1.71444 0
M  V30 875 O 80.6564 -0.0262186 1.95882 0
M  V30 876 H 79.2364 0.709739 0.232981 0
M  V30 877 H 81.8984 1.94628 -0.102898 0
M  V30 878 H 80.9944 2.93479 1.06191 0
M  V30 879 N 81.2955 -0.223234 1.56011 0
M  V30 880 C 82.5415 -0.949279 1.79211 0
M  V30 881 C 82.8745 -1.84054 0.619494 0
M  V30 882 O 82.1495 -1.90726 -0.381317 0
M  V30 883 C 82.4325 -1.78965 3.12479 0
M  V30 884 C 82.2855 -0.924997 4.40186 0
M  V30 885 C 83.6045 -2.76774 3.42175 0
M  V30 886 H 80.7235 -0.343676 0.651963 0
M  V30 887 H 83.3655 -0.218253 1.88742 0
M  V30 888 H 81.5155 -2.41291 3.04485 0
M  V30 889 H 83.1875 -0.318615 4.60198 0
M  V30 890 H 81.4305 -0.230344 4.33188 0
M  V30 891 H 82.1015 -1.54735 5.29869 0
M  V30 892 H 84.5775 -2.24584 3.50287 0
M  V30 893 H 83.4535 -3.32678 4.36597 0
M  V30 894 H 83.7145 -3.54429 2.64258 0
M  V30 895 N 82.7736 -1.49793 -0.48987 0
M  V30 896 C 83.7216 -1.67783 -1.61095 0
M  V30 897 C 84.7156 -0.543683 -1.60438 0
M  V30 898 O 85.9216 -0.723647 -1.64813 0
M  V30 899 H 82.2966 -0.529255 -0.534222 0
M  V30 900 H 84.2676 -2.61861 -1.43078 0
M  V30 901 C 83.0166 -1.77191 -2.99164 0
M  V30 902 H 82.3396 -2.63841 -3.0038 0
M  V30 903 H 83.7796 -1.93809 -3.77113 0
M  V30 904 C 82.2386 -0.519203 -3.32875 0
M  V30 905 O 82.7686 0.350124 -4.00171 0
M  V30 906 N 80.9746 -0.378816 -2.8812 0
M  V30 907 H 80.5216 -1.08725 -2.33531 0
M  V30 908 H 80.4796 0.458239 -3.11043 0
M  V30 909 N 84.2517 0.741722 -1.39055 0
M  V30 910 C 85.1817 1.869 -1.39966 0
M  V30 911 C 86.1627 1.6804 -0.26392 0
M  V30 912 O 87.3477 1.88458 -0.468755 0
M  V30 913 C 84.4777 3.24572 -1.23574 0
M  V30 914 C 83.4317 3.58056 -2.34477 0
M  V30 915 C 82.7577 4.94593 -2.0318 0
M  V30 916 C 84.0577 3.61716 -3.76774 0
M  V30 917 H 85.7517 1.86395 -2.34302 0
M  V30 918 H 83.2977 0.895361 -1.1278 0
M  V30 919 H 85.2507 4.031 -1.22834 0
M  V30 920 H 83.9747 3.25587 -0.257045 0
M  V30 921 H 82.6337 2.81854 -2.34423 0
M  V30 922 H 82.2817 4.92181 -1.03765 0
M  V30 923 H 81.9817 5.17964 -2.77465 0
M  V30 924 H 83.5057 5.75486 -2.04079 0
M  V30 925 H 84.9197 4.30335 -3.78794 0
M  V30 926 H 83.3167 3.96603 -4.50362 0
M  V30 927 H 84.3867 2.61672 -4.08235 0
M  V30 928 N 85.7298 1.2412 0.971189 0
M  V30 929 C 86.9778 1.07668 1.71032 0
M  V30 930 C 87.2988 -0.385797 1.91146 0
M  V30 931 O 86.5688 -1.27569 1.4867 0
M  V30 932 H 85.1488 0.395429 0.633755 0
M  V30 933 H 87.8108 1.55984 1.16855 0
M  V30 934 H 86.9068 1.57195 2.69622 0
M  V30 935 N 87.2079 -1.17134 1.05439 0
M  V30 936 C 88.4559 -1.87085 0.764429 0
M  V30 937 C 88.7769 -1.81584 -0.710787 0
M  V30 938 O 88.0469 -1.24349 -1.51374 0
M  V30 939 H 86.6269 -0.692627 0.279779 0
M  V30 940 H 89.2889 -1.42087 1.33406 0
M  V30 941 H 88.3849 -2.92759 1.0816 0
M  V30 942 N 88.686 -0.835752 -1.33615 0
M  V30 943 C 89.932 -0.439817 -1.98588 0
M  V30 944 C 90.287 0.989274 -1.65019 0
M  V30 945 O 89.58 1.68168 -0.918159 0
M  V30 946 C 89.774 -0.593925 -3.52431 0
M  V30 947 C 89.603 -2.03644 -4.00948 0
M  V30 948 C 88.373 -2.67103 -4.28934 0
M  V30 949 C 90.571 -3.00479 -4.17393 0
M  V30 950 N 88.553 -4.02462 -4.6357 0
M  V30 951 C 89.924 -4.20777 -4.55353 0
M  V30 952 C 91.979 -2.96926 -3.99674 0
M  V30 953 C 90.682 -5.37994 -4.77447 0
M  V30 954 C 92.708 -4.1337 -4.22941 0
M  V30 955 C 92.07 -5.32422 -4.61201 0
M  V30 956 H 88.169 -0.209303 -0.75347 0
M  V30 957 H 90.753 -1.08316 -1.61789 0
M  V30 958 H 88.924 0.019599 -3.88395 0
M  V30 959 H 90.656 -0.169738 -4.04344 0
M  V30 960 H 87.411 -2.18259 -4.20309 0
M  V30 961 H 87.835 -4.72232 -4.85104 0
M  V30 962 H 92.477 -2.06015 -3.69212 0
M  V30 963 H 90.195 -6.29451 -5.06771 0
M  V30 964 H 93.781 -4.12034 -4.10754 0
M  V30 965 H 92.661 -6.21027 -4.78848 0
M  V30 966 N 90.1641 1.46063 -0.591896 0
M  V30 967 C 91.4111 2.02338 -0.0809991 0
M  V30 968 C 91.7391 1.46228 1.28249 0
M  V30 969 O 90.9941 0.620818 1.85592 0
M  V30 970 C 91.2931 3.57391 0.0249813 0
M  V30 971 C 90.9591 4.32583 -1.27211 0
M  V30 972 C 89.6211 4.52844 -1.62745 0
M  V30 973 C 91.9731 4.75687 -2.13005 0
M  V30 974 C 89.3011 5.13462 -2.83855 0
M  V30 975 C 91.6531 5.37644 -3.3335 0
M  V30 976 C 90.3171 5.5613 -3.69155 0
M  V30 977 H 89.5871 0.740407 -0.0296397 0
M  V30 978 H 92.2341 1.75321 -0.770374 0
M  V30 979 H 90.5391 3.83597 0.797537 0
M  V30 980 H 92.2361 3.98621 0.436184 0
M  V30 981 H 88.8261 4.17116 -0.985499 0
M  V30 982 H 93.0101 4.59782 -1.86855 0
M  V30 983 H 88.2661 5.25965 -3.11722 0
M  V30 984 H 92.4401 5.7 -4.00092 0
M  V30 985 H 90.0671 6.0287 -4.63089 0
M  V30 986 N 91.6422 0.330177 1.54103 0
M  V30 987 C 92.8882 -0.270806 2.00984 0
M  V30 988 C 93.2212 -1.51265 1.21789 0
M  V30 989 O 92.4962 -1.92142 0.301927 0
M  V30 990 C 92.7792 -0.598339 3.55094 0
M  V30 991 C 92.6322 0.654674 4.4501 0
M  V30 992 C 93.9512 -1.41334 4.16789 0
M  V30 993 H 91.0702 -0.0969531 0.730595 0
M  V30 994 H 93.7122 0.448066 1.84641 0
M  V30 995 H 91.8622 -1.21078 3.69151 0
M  V30 996 H 93.5342 1.29285 4.42813 0
M  V30 997 H 91.7772 1.28224 4.14416 0
M  V30 998 H 92.4482 0.380944 5.50684 0
M  V30 999 H 94.9242 -0.895597 4.06347 0
M  V30 1000 H 93.8002 -1.61127 5.24718 0
M  V30 1001 H 94.0612 -2.41146 3.70541 0
M  V30 1002 N 93.1203 -1.57491 0.0584922 0
M  V30 1003 C 94.0503 -2.14988 -0.911178 0
M  V30 1004 C 95.0313 -1.07343 -1.31952 0
M  V30 1005 O 96.2163 -1.35318 -1.39294 0
M  V30 1006 C 93.3463 -2.70078 -2.18347 0
M  V30 1007 C 92.3003 -3.82771 -1.91495 0
M  V30 1008 C 91.6263 -4.24408 -3.25241 0
M  V30 1009 C 92.9263 -5.07592 -1.23075 0
M  V30 1010 H 94.6203 -2.96263 -0.432246 0
M  V30 1011 H 92.1663 -1.42512 -0.206469 0
M  V30 1012 H 94.1193 -3.08943 -2.86587 0
M  V30 1013 H 92.8433 -1.86005 -2.68458 0
M  V30 1014 H 91.5023 -3.44389 -1.25664 0
M  V30 1015 H 91.1503 -3.37275 -3.73168 0
M  V30 1016 H 90.8503 -5.00366 -3.08071 0
M  V30 1017 H 92.3743 -4.65879 -3.94701 0
M  V30 1018 H 93.7883 -5.43857 -1.81362 0
M  V30 1019 H 92.1853 -5.88741 -1.16207 0
M  V30 1020 H 93.2553 -4.84454 -0.207847 0
M  V30 1021 N 94.5984 0.214957 -1.56127 0
M  V30 1022 C 95.5084 1.28727 -1.96129 0
M  V30 1023 C 96.5244 1.50916 -0.866044 0
M  V30 1024 O 97.7004 1.63918 -1.17016 0
M  V30 1025 C 94.7654 2.61569 -2.27558 0
M  V30 1026 C 93.8264 2.47625 -3.50685 0
M  V30 1027 C 93.0594 3.74132 -3.80606 0
M  V30 1028 O 93.2824 4.77438 -3.12104 0
M  V30 1029 O 92.2164 3.70849 -4.74083 0
M  V30 1030 H 96.0424 0.977855 -2.87527 0
M  V30 1031 H 93.6274 0.418358 -1.43423 0
M  V30 1032 H 95.5094 3.40012 -2.48938 0
M  V30 1033 H 94.1844 2.92178 -1.39332 0
M  V30 1034 H 93.0914 1.67361 -3.34576 0
M  V30 1035 H 94.4244 2.21954 -4.39315 0
M  V30 1036 N 96.0765 1.50051 0.48192 0
M  V30 1037 C 97.4875 1.5348 1.06305 0
M  V30 1038 C 97.8385 0.331997 1.93371 0
M  V30 1039 O 96.9635 -0.556256 2.09129 0
M  V30 1040 C 97.5585 2.7813 1.93466 0
M  V30 1041 C 96.1175 2.84275 2.46707 0
M  V30 1042 C 95.2645 2.47637 1.24785 0
M  V30 1043 H 98.2155 1.56472 0.264995 0
M  V30 1044 H 98.2365 2.59372 2.78399 0
M  V30 1045 H 97.7485 3.65654 1.30072 0
M  V30 1046 H 95.8495 2.01077 3.13686 0
M  V30 1047 H 95.9625 3.8691 2.82555 0
M  V30 1048 H 94.3265 1.99835 1.57918 0
M  V30 1049 H 95.1095 3.37457 0.630694 0
M  V30 1050 N 97.5546 -0.734337 1.39446 0
M  V30 1051 C 98.7846 -1.52137 1.39778 0
M  V30 1052 C 99.1926 -1.89198 -0.00929312 0
M  V30 1053 O 98.5356 -1.54666 -0.991168 0
M  V30 1054 C 98.5976 -2.83762 2.20724 0
M  V30 1055 C 98.2616 -2.69131 3.69347 0
M  V30 1056 C 99.2586 -2.37635 4.62413 0
M  V30 1057 C 96.9436 -2.85982 4.1294 0
M  V30 1058 C 98.9376 -2.23172 5.97054 0
M  V30 1059 C 96.6246 -2.71137 5.47657 0
M  V30 1060 C 97.6226 -2.39777 6.39528 0
M  V30 1061 O 97.3106 -2.25026 7.71763 0
M  V30 1062 H 97.0426 -0.476717 0.479288 0
M  V30 1063 H 99.5966 -0.915012 1.83893 0
M  V30 1064 H 97.8266 -3.4666 1.71359 0
M  V30 1065 H 99.5156 -3.45383 2.13226 0
M  V30 1066 H 100.282 -2.24267 4.30034 0
M  V30 1067 H 96.1606 -3.09383 3.41765 0
M  V30 1068 H 99.7046 -1.98617 6.68728 0
M  V30 1069 H 95.6016 -2.84083 5.79626 0
M  V30 1070 H 96.3696 -2.40091 7.82495 0
M  V30 1071 N 99.0327 -1.24633 -0.964593 0
M  V30 1072 C 99.9657 -0.984662 -2.05863 0
M  V30 1073 C 100.944 0.0826554 -1.6239 0
M  V30 1074 O 102.128 -0.0549296 -1.8842 0
M  V30 1075 C 99.2547 -0.486529 -3.35187 0
M  V30 1076 C 98.3007 -1.54286 -3.97615 0
M  V30 1077 S 99.1337 -3.12513 -4.34851 0
M  V30 1078 C 100.29 -2.6441 -5.67308 0
M  V30 1079 H 100.523 -1.91104 -2.27743 0
M  V30 1080 H 98.0557 -1.08052 -1.10291 0
M  V30 1081 H 100.014 -0.205757 -4.09984 0
M  V30 1082 H 98.6747 0.419186 -3.1129 0
M  V30 1083 H 97.8677 -1.14481 -4.90826 0
M  V30 1084 H 97.4697 -1.7738 -3.2926 0
M  V30 1085 H 99.7617 -2.07416 -6.44969 0
M  V30 1086 H 100.705 -3.56222 -6.11973 0
M  V30 1087 H 101.113 -2.04734 -5.26065 0
M  V30 1088 N 100.511 1.16574 -1.06058 0
M  V30 1089 C 101.739 1.90952 -0.796552 0
M  V30 1090 C 102.154 1.77302 0.648808 0
M  V30 1091 O 101.511 1.11605 1.44397 0
M  V30 1092 C 101.562 3.41736 -1.17894 0
M  V30 1093 O 101.283 3.54975 -2.56758 0
M  V30 1094 C 102.784 4.33169 -0.942308 0
M  V30 1095 H 100.004 0.605594 -0.288959 0
M  V30 1096 H 102.548 1.47777 -1.41358 0
M  V30 1097 H 100.703 3.82623 -0.606491 0
M  V30 1098 H 101.117 4.4846 -2.72 0
M  V30 1099 H 102.591 5.37439 -1.25952 0
M  V30 1100 H 103.068 4.3903 0.122078 0
M  V30 1101 H 103.674 3.98007 -1.49902 0
M  V30 1102 N 101.989 0.842826 1.3317 0
M  V30 1103 C 103.4 0.496651 1.79973 0
M  V30 1104 C 103.751 -0.984641 1.69703 0
M  V30 1105 O 102.876 -1.76743 1.24863 0
M  V30 1106 C 103.471 0.894727 3.26772 0
M  V30 1107 C 102.03 0.600629 3.71577 0
M  V30 1108 C 101.177 1.10091 2.5451 0
M  V30 1109 H 104.128 1.03116 1.20635 0
M  V30 1110 H 104.149 0.206347 3.7994 0
M  V30 1111 H 103.661 1.97287 3.34215 0
M  V30 1112 H 101.762 -0.467284 3.69658 0
M  V30 1113 H 101.875 1.15863 4.64879 0
M  V30 1114 H 100.239 0.52162 2.49301 0
M  V30 1115 H 101.022 2.18591 2.64713 0
M  V30 1116 N 103.467 -1.45747 0.599634 0
M  V30 1117 C 104.692 -2.07178 0.0960198 0
M  V30 1118 C 105.117 -1.44268 -1.207 0
M  V30 1119 O 104.475 -0.532503 -1.73303 0
M  V30 1120 C 104.523 -3.60579 -0.0385348 0
M  V30 1121 O 103.627 -3.97713 -1.0908 0
M  V30 1122 H 102.968 -0.660251 0.0704593 0
M  V30 1123 H 105.498 -1.87124 0.827385 0
M  V30 1124 H 105.508 -4.07298 -0.239304 0
M  V30 1125 H 104.183 -4.05756 0.912947 0
M  V30 1126 H 102.76 -3.62678 -0.867135 0
M  V30 1127 N 104.945 -0.338344 -1.53925 0
M  V30 1128 C 105.875 0.51328 -2.27789 0
M  V30 1129 C 106.856 1.107 -1.29149 0
M  V30 1130 O 108.041 1.12937 -1.57984 0
M  V30 1131 C 105.171 1.66697 -3.04679 0
M  V30 1132 C 104.125 1.20183 -4.1078 0
M  V30 1133 C 103.451 2.44363 -4.75595 0
M  V30 1134 C 104.751 0.30605 -5.21403 0
M  V30 1135 H 106.445 -0.102883 -2.99223 0
M  V30 1136 H 103.991 -0.0509219 -1.4391 0
M  V30 1137 H 105.944 2.26915 -3.55088 0
M  V30 1138 H 104.668 2.30995 -2.30887 0
M  V30 1139 H 103.327 0.622499 -3.61276 0
M  V30 1140 H 102.975 3.07057 -3.98403 0
M  V30 1141 H 102.675 2.13925 -5.47275 0
M  V30 1142 H 104.199 3.05317 -5.28786 0
M  V30 1143 H 105.613 0.814929 -5.67478 0
M  V30 1144 H 104.01 0.0937929 -6.00027 0
M  V30 1145 H 105.08 -0.65921 -4.80398 0
M  V30 1146 N 106.423 1.57458 -0.0668435 0
M  V30 1147 C 107.67 1.93301 0.603406 0
M  V30 1148 C 107.998 0.946486 1.69917 0
M  V30 1149 O 107.253 -0.0387021 1.95662 0
M  V30 1150 C 107.552 3.35784 1.22409 0
M  V30 1151 C 107.218 4.50179 0.254955 0
M  V30 1152 C 105.88 4.81199 -0.0116746 0
M  V30 1153 C 108.232 5.19598 -0.408338 0
M  V30 1154 C 105.56 5.78978 -0.94877 0
M  V30 1155 C 107.912 6.18381 -1.33372 0
M  V30 1156 C 106.576 6.47821 -1.60887 0
M  V30 1157 H 105.846 0.707338 0.220802 0
M  V30 1158 H 108.493 1.91012 -0.136665 0
M  V30 1159 H 106.798 3.34515 2.03978 0
M  V30 1160 H 108.495 3.60804 1.74989 0
M  V30 1161 H 105.085 4.25983 0.472954 0
M  V30 1162 H 109.269 4.95832 -0.215456 0
M  V30 1163 H 104.525 6.00115 -1.16925 0
M  V30 1164 H 108.699 6.71277 -1.85367 0
M  V30 1165 H 106.326 7.23399 -2.33661 0
M  V30 1166 N 107.901 -0.206675 1.56239 0
M  V30 1167 C 108.811 -1.27686 1.96808 0
M  V30 1168 C 109.827 -1.50455 0.874035 0
M  V30 1169 O 111.003 -1.63295 1.17884 0
M  V30 1170 C 108.068 -2.60358 2.28942 0
M  V30 1171 C 107.129 -2.45762 3.51994 0
M  V30 1172 C 106.362 -3.72108 3.82585 0
M  V30 1173 O 106.585 -4.75776 3.14631 0
M  V30 1174 O 105.519 -3.6833 4.76043 0
M  V30 1175 H 109.345 -0.962593 2.88041 0
M  V30 1176 H 106.93 -0.410746 1.43643 0
M  V30 1177 H 108.812 -3.38687 2.50737 0
M  V30 1178 H 107.487 -2.91435 1.4088 0
M  V30 1179 H 106.394 -1.65584 3.35459 0
M  V30 1180 H 107.727 -2.19621 4.40486 0
M  V30 1181 N 109.379 -1.50304 -0.473955 0
M  V30 1182 C 110.79 -1.54042 -1.0549 0
M  V30 1183 C 111.141 -0.342248 -1.93192 0
M  V30 1184 O 110.266 0.545157 -2.09421 0
M  V30 1185 C 110.861 -2.79152 -1.91989 0
M  V30 1186 C 109.42 -2.8558 -2.45196 0
M  V30 1187 C 108.567 -2.48295 -1.2347 0
M  V30 1188 H 111.518 -1.5661 -0.256693 0
M  V30 1189 H 111.539 -2.60845 -2.7702 0
M  V30 1190 H 111.051 -3.66339 -1.28131 0
M  V30 1191 H 109.152 -2.02738 -3.12615 0
M  V30 1192 H 109.265 -3.88403 -2.80499 0
M  V30 1193 H 107.629 -2.00669 -1.56856 0
M  V30 1194 H 108.412 -3.37787 -0.612789 0
M  V30 1195 N 110.857 0.726932 -1.39834 0
M  V30 1196 C 112.104 1.48664 -1.37496 0
M  V30 1197 C 112.432 1.94482 0.0264678 0
M  V30 1198 O 111.687 1.67692 1.00886 0
M  V30 1199 C 111.986 2.73495 -2.30077 0
M  V30 1200 C 111.652 2.46502 -3.77555 0
M  V30 1201 C 110.314 2.3885 -4.17737 0
M  V30 1202 C 112.666 2.23604 -4.70798 0
M  V30 1203 C 109.994 2.06352 -5.49214 0
M  V30 1204 C 112.346 1.92622 -6.02561 0
M  V30 1205 C 111.01 1.83444 -6.41798 0
M  V30 1206 H 110.28 0.544001 -0.503135 0
M  V30 1207 H 112.927 0.833657 -1.72402 0
M  V30 1208 H 111.232 3.43575 -1.88317 0
M  V30 1209 H 112.929 3.31549 -2.25558 0
M  V30 1210 H 109.519 2.5334 -3.45712 0
M  V30 1211 H 113.703 2.28479 -4.40581 0
M  V30 1212 H 108.959 1.97776 -5.78528 0
M  V30 1213 H 113.133 1.73914 -6.74334 0
M  V30 1214 H 110.76 1.58029 -7.43593 0
M  V30 1215 N 112.336 1.25143 0.95797 0
M  V30 1216 C 113.268 1.01023 2.05735 0
M  V30 1217 C 114.281 -0.0236902 1.62783 0
M  V30 1218 O 115.47 0.21448 1.77207 0
M  V30 1219 C 112.57 0.504595 3.35122 0
M  V30 1220 C 111.743 1.6039 4.06932 0
M  V30 1221 C 110.802 1.09922 5.14591 0
M  V30 1222 O 109.828 1.79293 5.40225 0
M  V30 1223 N 111.03 -0.0612545 5.80468 0
M  V30 1224 H 113.795 1.95683 2.26998 0
M  V30 1225 H 111.356 1.16303 1.12629 0
M  V30 1226 H 113.348 0.151516 4.04416 0
M  V30 1227 H 111.918 -0.347989 3.10657 0
M  V30 1228 H 111.138 2.12872 3.31782 0
M  V30 1229 H 112.426 2.34252 4.51667 0
M  V30 1230 H 111.824 -0.640985 5.62057 0
M  V30 1231 H 110.381 -0.355395 6.5083 0
M  V30 1232 N 113.814 -1.1601 1.06675 0
M  V30 1233 C 114.762 -2.22586 0.675157 0
M  V30 1234 C 115.756 -1.66525 -0.310766 0
M  V30 1235 O 116.962 -1.79145 -0.175215 0
M  V30 1236 H 113.337 -0.724855 0.200223 0
M  V30 1237 H 115.308 -2.52899 1.58381 0
M  V30 1238 C 114.057 -3.47604 0.0817162 0
M  V30 1239 H 113.38 -3.91058 0.831484 0
M  V30 1240 H 114.82 -4.23718 -0.154708 0
M  V30 1241 C 113.279 -3.15718 -1.17576 0
M  V30 1242 O 113.809 -3.31878 -2.26318 0
M  V30 1243 N 112.015 -2.69816 -1.07923 0
M  V30 1244 H 111.562 -2.56866 -0.194293 0
M  V30 1245 H 111.52 -2.48855 -1.92141 0
M  V30 1246 N 115.292 -0.849877 -1.32721 0
M  V30 1247 C 116.54 -0.450032 -1.97026 0
M  V30 1248 C 116.861 0.996604 -1.67609 0
M  V30 1249 O 116.131 1.6958 -0.980786 0
M  V30 1250 H 114.711 -0.163426 -0.728904 0
M  V30 1251 H 117.373 -1.08526 -1.6189 0
M  V30 1252 H 116.469 -0.591146 -3.0645 0
M  V30 1253 N 116.77 1.45427 -0.607355 0
M  V30 1254 C 117.718 2.32269 0.12411 0
M  V30 1255 C 118.712 1.45955 0.859854 0
M  V30 1256 O 119.918 1.6244 0.775447 0
M  V30 1257 H 116.293 0.749691 0.0588839 0
M  V30 1258 H 118.264 2.91743 -0.626762 0
M  V30 1259 C 117.013 3.29567 1.1082 0
M  V30 1260 H 116.336 3.95978 0.551492 0
M  V30 1261 H 117.776 3.93061 1.58995 0
M  V30 1262 C 116.235 2.56722 2.18164 0
M  V30 1263 O 116.765 2.34842 3.25902 0
M  V30 1264 N 114.971 2.16861 1.93442 0
M  V30 1265 H 114.518 2.34855 1.05834 0
M  V30 1266 H 114.476 1.68444 2.65469 0
M  V30 1267 N 118.248 0.346503 1.53744 0
M  V30 1268 C 119.525 -0.304532 1.93215 0
M  V30 1269 C 119.905 -1.67993 1.27834 0
M  V30 1270 O 119.253 -2.24411 0.430352 0
M  V30 1271 C 119.463 -0.373852 3.46992 0
M  V30 1272 C 120.811 -0.62329 4.2 0
M  V30 1273 O 121.835 -0.455847 3.53271 0
M  V30 1274 O 120.694 -0.947879 5.38217 0
M  V30 1275 H 117.788 -0.178318 0.807547 0
M  V30 1276 H 120.334 0.397895 1.64969 0
M  V30 1277 H 119.106 0.591224 3.86808 0
M  V30 1278 H 118.729 -1.12294 3.81413 0
M  V30 1279 N 119.726 -1.57421 0.075193 0
M  V30 1280 C 120.658 -2.09904 -0.920483 0
M  V30 1281 C 121.671 -1.03191 -1.25918 0
M  V30 1282 O 122.86 -1.30695 -1.21577 0
M  V30 1283 C 119.96 -2.54726 -2.23534 0
M  V30 1284 C 119.133 -3.8505 -2.07498 0
M  V30 1285 C 118.192 -4.15929 -3.22319 0
M  V30 1286 O 117.218 -4.85474 -2.9716 0
M  V30 1287 N 118.42 -3.69745 -4.47514 0
M  V30 1288 H 121.185 -2.95954 -0.472359 0
M  V30 1289 H 118.746 -1.61523 -0.110444 0
M  V30 1290 H 120.738 -2.72443 -2.9926 0
M  V30 1291 H 119.308 -1.73795 -2.59835 0
M  V30 1292 H 118.528 -3.76679 -1.16219 0
M  V30 1293 H 119.816 -4.70348 -1.94038 0
M  V30 1294 H 119.214 -3.13569 -4.7084 0
M  V30 1295 H 117.771 -3.92655 -5.20255 0
M  V30 1296 N 121.204 0.198386 -1.56346 0
M  V30 1297 C 122.429 0.939682 -1.84891 0
M  V30 1298 C 122.854 1.76202 -0.658369 0
M  V30 1299 O 122.212 1.76993 0.392851 0
M  V30 1300 C 122.26 1.81428 -3.11635 0
M  V30 1301 O 121.364 2.91265 -2.91956 0
M  V30 1302 H 120.705 0.264807 -0.608912 0
M  V30 1303 H 123.235 0.204695 -2.03573 0
M  V30 1304 H 123.245 2.21958 -3.42343 0
M  V30 1305 H 121.92 1.21004 -3.97908 0
M  V30 1306 H 120.497 2.54514 -2.72538 0
M  V30 1307 N 122.682 1.50554 0.465978 0
M  V30 1308 C 123.93 1.61479 1.21528 0
M  V30 1309 C 124.251 0.319596 1.92363 0
M  V30 1310 O 123.521 -0.663194 1.84333 0
M  V30 1311 H 122.101 0.595055 0.451573 0
M  V30 1312 H 124.763 1.87355 0.53704 0
M  V30 1313 H 123.859 2.42846 1.96042 0
M  V30 1314 N 124.16 -0.719506 1.40217 0
M  V30 1315 C 125.406 -1.48152 1.38488 0
M  V30 1316 C 125.739 -1.94195 -0.0141867 0
M  V30 1317 O 125.014 -1.67884 -0.982096 0
M  V30 1318 C 125.297 -2.71035 2.37091 0
M  V30 1319 C 125.15 -2.30912 3.86005 0
M  V30 1320 C 126.469 -3.73182 2.33288 0
M  V30 1321 H 123.588 -0.537395 0.504357 0
M  V30 1322 H 126.23 -0.821472 1.71324 0
M  V30 1323 H 124.38 -3.27352 2.0922 0
M  V30 1324 H 126.052 -1.80107 4.24687 0
M  V30 1325 H 124.295 -1.62958 4.02029 0
M  V30 1326 H 124.966 -3.18978 4.50508 0
M  V30 1327 H 127.442 -3.26485 2.57966 0
M  V30 1328 H 126.318 -4.56806 3.04334 0
M  V30 1329 H 126.579 -4.21202 1.34317 0
M  V30 1330 N 125.638 -1.25649 -0.95132 0
M  V30 1331 C 127.049 -1.09654 -1.51106 0
M  V30 1332 C 127.4 0.326615 -1.93462 0
M  V30 1333 O 126.525 1.21697 -1.78938 0
M  V30 1334 C 127.12 -1.98437 -2.74605 0
M  V30 1335 C 125.679 -1.86618 -3.2688 0
M  V30 1336 C 124.826 -1.9239 -1.99703 0
M  V30 1337 H 127.777 -1.38887 -0.767865 0
M  V30 1338 H 127.798 -1.5263 -3.48546 0
M  V30 1339 H 127.31 -3.02009 -2.43746 0
M  V30 1340 H 125.411 -0.859421 -3.62553 0
M  V30 1341 H 125.524 -2.71607 -3.94673 0
M  V30 1342 H 123.888 -1.36317 -2.15151 0
M  V30 1343 H 124.671 -2.97573 -1.71188 0
M  V30 1344 N 127.117 1.15442 -1.07289 0
M  V30 1345 C 128.363 1.86489 -0.796846 0
M  V30 1346 C 128.696 1.82078 0.675371 0
M  V30 1347 O 127.971 1.24346 1.4956 0
M  V30 1348 C 128.254 3.35626 -1.30489 0
M  V30 1349 C 128.107 3.48673 -2.84161 0
M  V30 1350 C 129.426 4.30357 -0.920907 0
M  V30 1351 H 126.545 0.677144 -0.290939 0
M  V30 1352 H 129.187 1.35633 -1.33056 0
M  V30 1353 H 127.337 3.79068 -0.850883 0
M  V30 1354 H 129.009 3.14099 -3.37846 0
M  V30 1355 H 127.252 2.90253 -3.22391 0
M  V30 1356 H 127.923 4.53453 -3.14777 0
M  V30 1357 H 130.399 3.94871 -1.3121 0
M  V30 1358 H 129.275 5.33193 -1.30372 0
M  V30 1359 H 129.536 4.4176 0.173226 0
M  V30 1360 N 128.595 0.856903 1.32268 0
M  V30 1361 C 129.872 0.382583 1.91822 0
M  V30 1362 C 130.252 -1.13407 1.78051 0
M  V30 1363 O 129.6 -1.95673 1.18001 0
M  V30 1364 C 129.81 0.849446 3.38505 0
M  V30 1365 C 131.158 0.867936 4.15634 0
M  V30 1366 O 132.182 0.794232 3.47232 0
M  V30 1367 O 131.041 0.972286 5.37781 0
M  V30 1368 H 128.135 0.112014 0.819379 0
M  V30 1369 H 130.681 0.943952 1.41024 0
M  V30 1370 H 129.453 1.89267 3.42482 0
M  V30 1371 H 129.076 0.265652 3.96712 0
M  V30 1372 N 130.073 -1.45103 0.615059 0
M  V30 1373 C 130.983 -2.34382 -0.101034 0
M  V30 1374 C 131.999 -1.51681 -0.852585 0
M  V30 1375 O 133.175 -1.8446 -0.808484 0
M  V30 1376 C 130.24 -3.29417 -1.08099 0
M  V30 1377 C 129.301 -4.28025 -0.330577 0
M  V30 1378 C 128.534 -5.1852 -1.26385 0
M  V30 1379 O 128.757 -5.12598 -2.50198 0
M  V30 1380 O 127.691 -5.97122 -0.756866 0
M  V30 1381 H 131.517 -2.97033 0.632855 0
M  V30 1382 H 129.102 -1.4461 0.375293 0
M  V30 1383 H 130.984 -3.87958 -1.6452 0
M  V30 1384 H 129.659 -2.69321 -1.79577 0
M  V30 1385 H 128.566 -3.73078 0.276283 0
M  V30 1386 H 129.899 -4.90997 0.343866 0
M  V30 1387 N 131.551 -0.354651 -1.53558 0
M  V30 1388 C 132.781 0.239167 -2.05211 0
M  V30 1389 C 133.189 1.43879 -1.22863 0
M  V30 1390 O 132.532 1.81857 -0.259565 0
M  V30 1391 C 132.594 0.707251 -3.52474 0
M  V30 1392 C 132.258 -0.374212 -4.55465 0
M  V30 1393 C 133.255 -1.22054 -5.0537 0
M  V30 1394 C 130.94 -0.531323 -4.99482 0
M  V30 1395 C 132.934 -2.20942 -5.97882 0
M  V30 1396 C 130.621 -1.52358 -5.91802 0
M  V30 1397 C 131.619 -2.36108 -6.40892 0
M  V30 1398 O 131.307 -3.33643 -7.31394 0
M  V30 1399 H 131.039 0.0479716 -0.674296 0
M  V30 1400 H 133.593 -0.508121 -1.99016 0
M  V30 1401 H 131.823 1.50596 -3.56171 0
M  V30 1402 H 133.512 1.22285 -3.87042 0
M  V30 1403 H 134.278 -1.1103 -4.7212 0
M  V30 1404 H 130.157 0.110738 -4.60867 0
M  V30 1405 H 133.701 -2.86348 -6.36121 0
M  V30 1406 H 129.598 -1.63434 -6.24467 0
M  V30 1407 H 130.366 -3.29244 -7.4936 0
M  V30 1408 N 133.029 1.57378 -0.0835403 0
M  V30 1409 C 133.979 2.09916 0.889905 0
M  V30 1410 C 134.963 1.01151 1.25129 0
M  V30 1411 O 136.155 1.27443 1.2283 0
M  V30 1412 C 133.284 2.67379 2.15322 0
M  V30 1413 C 132.37 3.83167 1.81779 0
M  V30 1414 N 132.761 4.91665 1.18739 0
M  V30 1415 C 131.059 3.92685 2.11459 0
M  V30 1416 C 131.76 5.72409 1.0355 0
M  V30 1417 N 130.736 5.21062 1.54906 0
M  V30 1418 H 134.538 2.91188 0.398378 0
M  V30 1419 H 132.052 1.61956 0.120013 0
M  V30 1420 H 134.049 3.0334 2.8599 0
M  V30 1421 H 132.709 1.87558 2.65051 0
M  V30 1422 H 133.72 5.10784 0.855604 0
M  V30 1423 H 130.397 3.23856 2.63483 0
M  V30 1424 H 131.787 6.69699 0.543425 0
M  V30 1425 N 134.507 -0.190092 1.56449 0
M  V30 1426 C 135.753 -0.906472 1.82084 0
M  V30 1427 C 136.108 -1.80677 0.661335 0
M  V30 1428 O 135.401 -1.88501 -0.343237 0
M  V30 1429 C 135.595 -1.75382 3.1141 0
M  V30 1430 C 135.424 -0.937053 4.39829 0
M  V30 1431 C 134.194 -0.619507 5.01488 0
M  V30 1432 C 136.392 -0.2874 5.13496 0
M  V30 1433 N 134.374 0.215367 6.13522 0
M  V30 1434 C 135.745 0.409454 6.18646 0
M  V30 1435 C 137.8 -0.203639 4.97483 0
M  V30 1436 C 136.503 1.1821 7.0952 0
M  V30 1437 C 138.529 0.555622 5.88784 0
M  V30 1438 C 137.891 1.24091 6.93384 0
M  V30 1439 H 133.99 -0.310931 0.717528 0
M  V30 1440 H 136.574 -0.174821 1.93914 0
M  V30 1441 H 134.745 -2.45703 3.00806 0
M  V30 1442 H 136.477 -2.41006 3.25112 0
M  V30 1443 H 133.232 -0.945126 4.64074 0
M  V30 1444 H 133.656 0.622562 6.74131 0
M  V30 1445 H 138.298 -0.719099 4.1664 0
M  V30 1446 H 136.016 1.70897 7.89823 0
M  V30 1447 H 139.602 0.621854 5.78467 0
M  V30 1448 H 138.482 1.81901 7.62812 0
M  V30 1449 N 135.985 -1.50799 -0.457987 0
M  V30 1450 C 137.213 -1.66218 -1.23203 0
M  V30 1451 C 137.628 -0.350894 -1.85511 0
M  V30 1452 O 136.985 0.668546 -1.69814 0
M  V30 1453 C 137.036 -2.76291 -2.33121 0
M  V30 1454 O 136.757 -4.02338 -1.73366 0
M  V30 1455 C 138.258 -3.028 -3.2377 0
M  V30 1456 H 135.478 -0.558361 -0.372121 0
M  V30 1457 H 138.022 -1.97099 -0.545179 0
M  V30 1458 H 136.177 -2.48068 -2.97558 0
M  V30 1459 H 136.591 -4.63312 -2.4585 0
M  V30 1460 H 138.065 -3.8345 -3.97077 0
M  V30 1461 H 138.542 -2.14385 -3.83322 0
M  V30 1462 H 139.148 -3.32604 -2.65056 0
M  V30 1463 N 137.463 0.71206 -1.40597 0
M  V30 1464 C 138.395 1.83704 -1.37061 0
M  V30 1465 C 139.408 1.60453 -0.275426 0
M  V30 1466 O 140.597 1.70262 -0.53602 0
M  V30 1467 C 137.697 3.20172 -1.11099 0
M  V30 1468 C 136.87 3.7059 -2.3234 0
M  V30 1469 C 135.929 4.85681 -2.02485 0
M  V30 1470 O 134.955 4.9815 -2.75382 0
M  V30 1471 N 136.157 5.71735 -1.00497 0
M  V30 1472 H 138.922 1.87235 -2.34016 0
M  V30 1473 H 136.483 0.893739 -1.34996 0
M  V30 1474 H 138.475 3.94768 -0.891064 0
M  V30 1475 H 137.045 3.11767 -0.227989 0
M  V30 1476 H 136.265 2.87085 -2.7014 0
M  V30 1477 H 137.553 4.01011 -3.13157 0
M  V30 1478 H 136.951 5.64275 -0.401298 0
M  V30 1479 H 135.508 6.463 -0.844942 0
M  V30 1480 N 138.941 1.26152 0.944643 0
M  V30 1481 C 140.169 1.14259 1.72489 0
M  V30 1482 C 140.584 -0.302555 1.8636 0
M  V30 1483 O 139.941 -1.20741 1.36849 0
M  V30 1484 C 139.992 1.80266 3.13347 0
M  V30 1485 O 139.713 3.19133 3.00143 0
M  V30 1486 C 141.214 1.74283 4.07603 0
M  V30 1487 H 138.434 0.398051 0.540181 0
M  V30 1488 H 140.978 1.66706 1.18446 0
M  V30 1489 H 139.133 1.31766 3.64303 0
M  V30 1490 H 139.547 3.51744 3.89071 0
M  V30 1491 H 141.021 2.25111 5.04013 0
M  V30 1492 H 141.498 0.708631 4.33446 0
M  V30 1493 H 142.104 2.22319 3.62567 0
M  V30 1494 N 140.419 -1.14872 1.07899 0
M  V30 1495 C 141.349 -2.2193 0.725887 0
M  V30 1496 C 142.33 -1.67622 -0.28927 0
M  V30 1497 O 143.515 -1.93533 -0.160787 0
M  V30 1498 C 140.645 -3.47061 0.128856 0
M  V30 1499 C 139.599 -4.14363 1.07178 0
M  V30 1500 C 138.925 -5.33636 0.337229 0
M  V30 1501 C 140.225 -4.63492 2.40775 0
M  V30 1502 H 141.919 -2.51724 1.62097 0
M  V30 1503 H 139.465 -1.20991 0.780838 0
M  V30 1504 H 141.418 -4.21199 -0.130147 0
M  V30 1505 H 140.142 -3.16617 -0.80134 0
M  V30 1506 H 138.801 -3.42173 1.3158 0
M  V30 1507 H 138.449 -4.99449 -0.596606 0
M  V30 1508 H 138.149 -5.79609 0.965788 0
M  V30 1509 H 139.673 -6.10539 0.0861567 0
M  V30 1510 H 141.087 -5.2913 2.20669 0
M  V30 1511 H 139.484 -5.20148 2.99276 0
M  V30 1512 H 140.554 -3.78834 3.02676 0
M  V30 1513 N 141.898 -0.863906 -1.31812 0
M  V30 1514 C 143.146 -0.470904 -1.96537 0
M  V30 1515 C 143.467 0.978771 -1.68657 0
M  V30 1516 O 142.737 1.6853 -0.998717 0
M  V30 1517 H 141.317 -0.171148 -0.72713 0
M  V30 1518 H 143.979 -1.10236 -1.60729 0
M  V30 1519 H 143.075 -0.623616 -3.05806 0
M  V30 1520 N 143.376 1.44774 -0.622745 0
M  V30 1521 C 144.323 2.30635 0.0871679 0
M  V30 1522 C 145.293 1.42994 0.845097 0
M  V30 1523 O 146.478 1.71907 0.827812 0
M  V30 1524 C 143.618 3.28144 1.06844 0
M  V30 1525 C 142.731 4.30888 0.309809 0
M  V30 1526 C 141.866 5.15494 1.28215 0
M  V30 1527 C 140.905 6.09953 0.512198 0
M  V30 1528 N 140.042 6.87287 1.43458 0
M  V30 1529 H 144.882 2.90803 -0.650974 0
M  V30 1530 H 142.419 1.43286 -0.33281 0
M  V30 1531 H 144.377 3.83157 1.65066 0
M  V30 1532 H 143.007 2.69695 1.77382 0
M  V30 1533 H 142.059 3.78414 -0.388181 0
M  V30 1534 H 143.371 4.97955 -0.290254 0
M  V30 1535 H 142.525 5.74983 1.93596 0
M  V30 1536 H 141.264 4.48481 1.91614 0
M  V30 1537 H 140.269 5.49581 -0.155151 0
M  V30 1538 H 141.494 6.78999 -0.116958 0
M  V30 1539 H 139.44 6.2295 2.05594 0
M  V30 1540 H 139.357 7.50763 0.888335 0
M  V30 1541 H 140.625 7.51306 2.07749 0
M  V30 1542 N 144.854 0.36279 1.53368 0
M  V30 1543 C 145.764 -0.492994 2.29362 0
M  V30 1544 C 146.78 -1.09507 1.35219 0
M  V30 1545 O 147.956 -1.10662 1.68273 0
M  V30 1546 C 145.021 -1.61855 3.066 0
M  V30 1547 C 144.082 -1.04429 4.16405 0
M  V30 1548 C 143.315 -2.11621 4.89951 0
M  V30 1549 O 143.538 -3.32684 4.63333 0
M  V30 1550 O 142.472 -1.74835 5.75948 0
M  V30 1551 H 146.298 0.125331 3.03441 0
M  V30 1552 H 143.883 0.127253 1.48857 0
M  V30 1553 H 145.765 -2.27302 3.54841 0
M  V30 1554 H 144.44 -2.22233 2.3536 0
M  V30 1555 H 143.347 -0.353819 3.72423 0
M  V30 1556 H 144.68 -0.485113 4.89804 0
M  V30 1557 N 146.332 -1.57332 0.0918853 0
M  V30 1558 C 147.295 -2.12708 -0.85369 0
M  V30 1559 C 148.295 -1.05561 -1.213 0
M  V30 1560 O 149.485 -1.31461 -1.14296 0
M  V30 1561 C 146.617 -2.64503 -2.15061 0
M  V30 1562 H 147.81 -2.97573 -0.3729 0
M  V30 1563 H 145.363 -1.55509 -0.157072 0
M  V30 1564 H 146.098 -1.83149 -2.67632 0
M  V30 1565 H 145.883 -3.4284 -1.90272 0
M  V30 1566 H 147.373 -3.07351 -2.82711 0
M  V30 1567 N 147.81 0.181792 -1.56548 0
M  V30 1568 C 148.773 1.20894 -1.94724 0
M  V30 1569 C 149.773 1.37738 -0.829747 0
M  V30 1570 O 150.963 1.35323 -1.09697 0
M  V30 1571 C 148.095 2.57593 -2.23291 0
M  V30 1572 H 149.288 0.882275 -2.86629 0
M  V30 1573 H 146.841 0.423838 -1.50444 0
M  V30 1574 H 147.576 2.95291 -1.34067 0
M  V30 1575 H 147.361 2.46735 -3.04736 0
M  V30 1576 H 148.851 3.31637 -2.53785 0
M  V30 1577 N 149.288 1.51039 0.449983 0
M  V30 1578 C 150.513 1.6715 1.22783 0
M  V30 1579 C 150.938 0.363081 1.84563 0
M  V30 1580 O 150.296 -0.675433 1.68249 0
M  V30 1581 C 150.344 2.77985 2.29689 0
M  V30 1582 O 149.448 2.40707 3.34864 0
M  V30 1583 H 148.789 0.557746 0.360299 0
M  V30 1584 H 151.319 1.97535 0.533005 0
M  V30 1585 H 151.329 3.01693 2.74673 0
M  V30 1586 H 150.004 3.72935 1.84098 0
M  V30 1587 H 148.581 2.27523 2.95445 0
M  V30 1588 N 150.766 -0.704594 1.40972 0
M  V30 1589 C 152.182 -1.01406 1.23244 0
M  V30 1590 C 152.382 -2.01169 0.115399 0
M  V30 1591 O 151.438 -2.47021 -0.523147 0
M  V30 1592 C 152.751 -1.54728 2.57836 0
M  V30 1593 C 154.299 -1.66658 2.64942 0
M  V30 1594 C 154.774 -2.23383 3.9983 0
M  V30 1595 N 156.265 -2.30756 4.01629 0
M  V30 1596 C 157 -2.75655 5.02794 0
M  V30 1597 N 156.496 -3.20225 6.14352 0
M  V30 1598 N 158.289 -2.75138 4.90159 0
M  V30 1599 H 150.44 -0.0435285 2.12355 0
M  V30 1600 H 152.703 -0.0818951 0.944456 0
M  V30 1601 H 152.409 -0.888832 3.40283 0
M  V30 1602 H 152.283 -2.53084 2.79693 0
M  V30 1603 H 154.67 -2.31617 1.8286 0
M  V30 1604 H 154.751 -0.668717 2.46904 0
M  V30 1605 H 154.395 -1.59043 4.82357 0
M  V30 1606 H 154.325 -3.23904 4.15203 0
M  V30 1607 H 156.816 -1.99291 3.21079 0
M  V30 1608 H 157.129 -3.53084 6.87424 0
M  V30 1609 H 155.474 -3.18156 6.17901 0
M  V30 1610 H 158.665 -2.39661 4.02095 0
M  V30 1611 H 158.838 -3.09812 5.6914 0
M  V30 1612 N 152.244 -1.26651 -0.937939 0
M  V30 1613 C 153.493 -1.11775 -1.67897 0
M  V30 1614 C 153.806 0.33794 -1.92659 0
M  V30 1615 O 155.012 0.607434 -2.64618 0
M  V30 1616 C 153.468 -1.9523 -3.02346 0
M  V30 1617 C 153.076 -3.45393 -2.8532 0
M  V30 1618 C 154.82 -1.88972 -3.80118 0
M  V30 1619 C 152.727 -4.21083 -4.15263 0
M  V30 1620 H 151.657 -0.414696 -0.629717 0
M  V30 1621 H 154.308 -1.50988 -1.04283 0
M  V30 1622 H 152.69 -1.48853 -3.66959 0
M  V30 1623 H 153.864 -3.99561 -2.29537 0
M  V30 1624 H 152.179 -3.52921 -2.20988 0
M  V30 1625 H 154.776 -2.42805 -4.76392 0
M  V30 1626 H 155.119 -0.86113 -4.07296 0
M  V30 1627 H 155.652 -2.33189 -3.22285 0
M  V30 1628 H 152.391 -5.24425 -3.93267 0
M  V30 1629 H 151.911 -3.71695 -4.70747 0
M  V30 1630 H 153.59 -4.29706 -4.83696 0
M  V30 1631 N 153.722 1.14298 -1.08507 0
M  V30 1632 C 154.652 2.21542 -0.737646 0
M  V30 1633 C 155.633 1.67773 0.280377 0
M  V30 1634 O 156.818 1.93616 0.150521 0
M  V30 1635 C 153.948 3.46988 -0.147259 0
M  V30 1636 C 152.902 4.13789 -1.09374 0
M  V30 1637 C 152.228 5.33449 -0.365524 0
M  V30 1638 C 153.528 4.62208 -2.4323 0
M  V30 1639 H 155.222 2.5086 -1.6343 0
M  V30 1640 H 152.768 1.20576 -0.787243 0
M  V30 1641 H 154.721 4.21262 0.107808 0
M  V30 1642 H 153.445 3.17037 0.784538 0
M  V30 1643 H 152.104 3.4147 -1.33393 0
M  V30 1644 H 151.752 4.99759 0.57011 0
M  V30 1645 H 151.452 5.79088 -0.996512 0
M  V30 1646 H 152.976 6.10485 -0.118534 0
M  V30 1647 H 154.39 5.27952 -2.23472 0
M  V30 1648 H 152.787 5.18553 -3.02031 0
M  V30 1649 H 153.857 3.77224 -3.04681 0
M  V30 1650 N 155.201 0.870884 1.31352 0
M  V30 1651 C 156.133 0.28455 2.27427 0
M  V30 1652 C 157.146 -0.552927 1.53123 0
M  V30 1653 O 158.335 -0.374771 1.74521 0
M  V30 1654 C 155.435 -0.615164 3.3327 0
M  V30 1655 C 154.608 0.190079 4.36987 0
M  V30 1656 C 153.667 -0.637917 5.22319 0
M  V30 1657 O 152.693 -0.065626 5.69162 0
M  V30 1658 N 153.895 -1.94973 5.46778 0
M  V30 1659 H 156.66 1.11017 2.7838 0
M  V30 1660 H 154.221 0.732458 1.44384 0
M  V30 1661 H 156.213 -1.1748 3.87273 0
M  V30 1662 H 154.783 -1.34146 2.82354 0
M  V30 1663 H 154.003 0.931165 3.83044 0
M  V30 1664 H 155.291 0.742579 5.03352 0
M  V30 1665 H 154.689 -2.4378 5.10478 0
M  V30 1666 H 153.246 -2.45713 6.03712 0
M  V30 1667 N 156.679 -1.44442 0.630414 0
M  V30 1668 C 157.626 -2.30678 -0.0749355 0
M  V30 1669 C 158.596 -1.4344 -0.837502 0
M  V30 1670 O 159.781 -1.72343 -0.818684 0
M  V30 1671 C 156.921 -3.28706 -1.05103 0
M  V30 1672 C 156.034 -4.31046 -0.286954 0
M  V30 1673 C 155.169 -5.16167 -1.2548 0
M  V30 1674 C 154.208 -6.10216 -0.479843 0
M  V30 1675 N 153.345 -6.88039 -1.39811 0
M  V30 1676 H 158.185 -2.90454 0.666386 0
M  V30 1677 H 155.722 -1.43107 0.340404 0
M  V30 1678 H 157.68 -3.84027 -1.63031 0
M  V30 1679 H 156.31 -2.70632 -1.75949 0
M  V30 1680 H 155.362 -3.78203 0.408243 0
M  V30 1681 H 156.674 -4.97794 0.316657 0
M  V30 1682 H 155.828 -5.76002 -1.90544 0
M  V30 1683 H 154.567 -4.49491 -1.89233 0
M  V30 1684 H 153.572 -5.49491 0.184295 0
M  V30 1685 H 154.797 -6.78928 0.152965 0
M  V30 1686 H 152.743 -6.24032 -2.02287 0
M  V30 1687 H 152.66 -7.51223 -0.848508 0
M  V30 1688 H 153.928 -7.52397 -2.03762 0
M  V30 1689 N 158.157 -0.370918 -1.53173 0
M  V30 1690 C 159.107 0.489588 -2.22681 0
M  V30 1691 C 160.091 1.04442 -1.22395 0
M  V30 1692 O 161.283 0.973578 -1.47819 0
M  V30 1693 C 158.412 1.626 -3.02351 0
M  V30 1694 C 157.498 1.08379 -4.10018 0
M  V30 1695 N 157.889 0.265004 -5.05105 0
M  V30 1696 C 156.187 1.35809 -4.2482 0
M  V30 1697 C 156.888 -0.0324755 -5.81691 0
M  V30 1698 N 155.864 0.566581 -5.40639 0
M  V30 1699 H 159.666 -0.142729 -2.93553 0
M  V30 1700 H 157.18 -0.179221 -1.61408 0
M  V30 1701 H 159.177 2.2547 -3.50669 0
M  V30 1702 H 157.837 2.26132 -2.33011 0
M  V30 1703 H 158.848 -0.0962352 -5.17811 0
M  V30 1704 H 155.525 1.9958 -3.66707 0
M  V30 1705 H 156.915 -0.69473 -6.68299 0
M  V30 1706 N 159.635 1.57281 -0.100228 0
M  V30 1707 C 160.881 1.95626 0.556946 0
M  V30 1708 C 161.236 0.981655 1.65473 0
M  V30 1709 O 160.529 0.00849847 1.91598 0
M  V30 1710 C 160.723 3.38305 1.15259 0
M  V30 1711 C 160.552 4.49555 0.114035 0
M  V30 1712 C 159.322 5.0434 -0.311266 0
M  V30 1713 C 161.52 5.10051 -0.659768 0
M  V30 1714 N 159.502 5.99152 -1.33755 0
M  V30 1715 C 160.873 6.00628 -1.53774 0
M  V30 1716 C 162.928 4.92772 -0.712723 0
M  V30 1717 C 161.631 6.7578 -2.46403 0
M  V30 1718 C 163.657 5.6859 -1.62663 0
M  V30 1719 C 163.019 6.58838 -2.49222 0
M  V30 1720 H 159.118 0.7624 0.173982 0
M  V30 1721 H 161.702 1.93829 -0.183988 0
M  V30 1722 H 159.873 3.40786 1.86332 0
M  V30 1723 H 161.605 3.63817 1.77254 0
M  V30 1724 H 158.36 4.73537 0.0774812 0
M  V30 1725 H 158.784 6.5126 -1.84905 0
M  V30 1726 H 163.426 4.22761 -0.0576648 0
M  V30 1727 H 161.144 7.4505 -3.12931 0
M  V30 1728 H 164.73 5.57233 -1.67281 0
M  V30 1729 H 163.61 7.16479 -3.18791 0
M  V30 1730 N 161.113 -0.173488 1.56642 0
M  V30 1731 C 162.338 -0.910149 1.86363 0
M  V30 1732 C 162.763 -1.75132 0.686318 0
M  V30 1733 O 162.121 -1.77595 -0.364643 0
M  V30 1734 C 162.169 -1.76447 3.14482 0
M  V30 1735 O 161.273 -2.86584 2.96553 0
M  V30 1736 H 160.614 -0.255086 0.613047 0
M  V30 1737 H 163.144 -0.172283 2.03873 0
M  V30 1738 H 163.154 -2.16483 3.45831 0
M  V30 1739 H 161.829 -1.14658 3.99783 0
M  V30 1740 H 160.406 -2.50146 2.76553 0
M  V30 1741 N 162.591 -1.51276 -0.441967 0
M  V30 1742 C 163.819 -1.67516 -1.21434 0
M  V30 1743 C 164.234 -0.37055 -1.85128 0
M  V30 1744 O 163.591 0.650498 -1.70513 0
M  V30 1745 C 163.642 -2.78748 -2.30177 0
M  V30 1746 O 163.363 -4.04154 -1.69089 0
M  V30 1747 C 164.864 -3.06217 -3.20541 0
M  V30 1748 H 162.084 -0.562276 -0.366178 0
M  V30 1749 H 164.628 -1.97666 -0.524244 0
M  V30 1750 H 162.783 -2.5121 -2.94911 0
M  V30 1751 H 163.197 -4.65894 -2.40922 0
M  V30 1752 H 164.671 -3.8764 -3.92987 0
M  V30 1753 H 165.148 -2.18439 -3.81026 0
M  V30 1754 H 165.754 -3.35397 -2.61513 0
M  V30 1755 N 164.069 0.697108 -1.41344 0
M  V30 1756 C 165.315 1.45796 -1.41828 0
M  V30 1757 C 165.67 1.92382 -0.0261743 0
M  V30 1758 O 164.963 1.66522 0.947688 0
M  V30 1759 C 165.157 2.68553 -2.35826 0
M  V30 1760 C 164.986 2.33975 -3.84039 0
M  V30 1761 C 163.756 2.24414 -4.52732 0
M  V30 1762 C 165.954 1.97048 -4.75054 0
M  V30 1763 N 163.936 1.82705 -5.86082 0
M  V30 1764 C 165.307 1.66086 -5.9734 0
M  V30 1765 C 167.362 1.83845 -4.62715 0
M  V30 1766 C 166.065 1.23246 -7.08663 0
M  V30 1767 C 168.091 1.4241 -5.73998 0
M  V30 1768 C 167.453 1.12357 -6.95381 0
M  V30 1769 H 163.552 0.530859 -0.574206 0
M  V30 1770 H 166.136 0.806674 -1.77203 0
M  V30 1771 H 164.307 3.31404 -2.02549 0
M  V30 1772 H 166.039 3.35015 -2.2704 0
M  V30 1773 H 162.794 2.4276 -4.0665 0
M  V30 1774 H 163.218 1.64337 -6.56751 0
M  V30 1775 H 167.86 2.05734 -3.69369 0
M  V30 1776 H 165.578 1.00102 -8.01876 0
M  V30 1777 H 169.164 1.32746 -5.66454 0
M  V30 1778 H 168.044 0.807795 -7.80028 0
M  V30 1779 N 165.547 1.27147 0.931209 0
M  V30 1780 C 166.796 1.12664 1.67302 0
M  V30 1781 C 167.109 -0.327718 1.92835 0
M  V30 1782 O 168.315 -0.593392 2.64936 0
M  V30 1783 C 166.771 1.9683 3.01307 0
M  V30 1784 C 166.379 3.46901 2.83485 0
M  V30 1785 C 168.123 1.90985 3.79111 0
M  V30 1786 C 166.03 4.23279 4.13024 0
M  V30 1787 H 164.96 0.41803 0.627509 0
M  V30 1788 H 167.611 1.51539 1.03481 0
M  V30 1789 H 165.993 1.50797 3.66164 0
M  V30 1790 H 167.167 4.00773 2.27415 0
M  V30 1791 H 165.482 3.54088 2.19113 0
M  V30 1792 H 168.079 2.45328 4.75098 0
M  V30 1793 H 168.422 0.882718 4.06834 0
M  V30 1794 H 168.955 2.34895 3.21044 0
M  V30 1795 H 165.694 5.26503 3.90481 0
M  V30 1796 H 165.214 3.74186 4.6877 0
M  V30 1797 H 166.893 4.32265 4.81411 0
M  V30 1798 N 167.025 -1.13721 1.09112 0
M  V30 1799 C 168.253 -1.88773 0.846899 0
M  V30 1800 C 168.668 -1.7896 -0.601572 0
M  V30 1801 O 168.025 -1.15394 -1.41388 0
M  V30 1802 C 168.076 -3.3849 1.26913 0
M  V30 1803 O 167.797 -3.48043 2.66079 0
M  V30 1804 C 169.298 -4.30518 1.05682 0
M  V30 1805 H 166.518 -0.59772 0.304914 0
M  V30 1806 H 169.062 -1.43977 1.45227 0
M  V30 1807 H 167.217 -3.80881 0.707723 0
M  V30 1808 H 167.631 -4.4109 2.83795 0
M  V30 1809 H 169.105 -5.3391 1.40156 0
M  V30 1810 H 169.582 -4.392 -0.00563416 0
M  V30 1811 H 170.188 -3.93893 1.60402 0
M  V30 1812 N 168.503 -0.877838 -1.30888 0
M  V30 1813 C 169.413 -0.343096 -2.32078 0
M  V30 1814 C 170.429 0.551022 -1.65045 0
M  V30 1815 O 171.605 0.445854 -1.96403 0
M  V30 1816 C 168.67 0.439905 -3.43898 0
M  V30 1817 C 167.731 -0.483111 -4.26573 0
M  V30 1818 C 166.964 0.262616 -5.33053 0
M  V30 1819 O 167.187 1.48967 -5.50604 0
M  V30 1820 O 166.121 -0.383593 -6.00676 0
M  V30 1821 H 169.947 -1.18203 -2.79753 0
M  V30 1822 H 167.532 -0.64145 -1.34929 0
M  V30 1823 H 169.414 0.883504 -4.12034 0
M  V30 1824 H 168.089 1.25526 -2.98371 0
M  V30 1825 H 166.996 -0.975374 -3.61161 0
M  V30 1826 H 168.329 -1.26427 -4.75686 0
M  V30 1827 N 169.982 1.44106 -0.638065 0
M  V30 1828 C 170.914 2.28976 0.101205 0
M  V30 1829 C 171.927 1.4167 0.802088 0
M  V30 1830 O 173.116 1.65755 0.662375 0
M  V30 1831 C 170.216 3.18217 1.16581 0
M  V30 1832 C 169.389 4.33978 0.546066 0
M  V30 1833 C 168.448 5.04202 1.50554 0
M  V30 1834 O 167.474 5.59986 1.01999 0
M  V30 1835 N 168.676 5.06296 2.8398 0
M  V30 1836 H 171.441 2.93064 -0.627186 0
M  V30 1837 H 169.002 1.54629 -0.479731 0
M  V30 1838 H 170.994 3.62061 1.80815 0
M  V30 1839 H 169.564 2.55833 1.79634 0
M  V30 1840 H 168.784 3.93239 -0.275046 0
M  V30 1841 H 170.072 5.08675 0.112793 0
M  V30 1842 H 169.47 4.62319 3.26002 0
M  V30 1843 H 168.027 5.53907 3.43556 0
M  V30 1844 N 171.46 0.379036 1.52974 0
M  V30 1845 C 172.737 -0.263479 1.93817 0
M  V30 1846 C 173.117 -1.65244 1.31368 0
M  V30 1847 O 172.465 -2.23448 0.477856 0
M  V30 1848 C 172.675 -0.300166 3.47707 0
M  V30 1849 C 174.023 -0.534061 4.21228 0
M  V30 1850 O 175.047 -0.38081 3.54159 0
M  V30 1851 O 173.906 -0.833501 5.40106 0
M  V30 1852 H 171 -0.161149 0.811147 0
M  V30 1853 H 173.546 0.432798 1.64088 0
M  V30 1854 H 172.318 0.673138 3.85467 0
M  V30 1855 H 171.941 -1.04179 3.83709 0
M  V30 1856 N 172.938 -1.57226 0.108567 0
M  V30 1857 C 174.185 -1.94833 -0.551943 0
M  V30 1858 C 174.513 -0.991204 -1.67348 0
M  V30 1859 O 173.768 -0.0131878 -1.95696 0
M  V30 1860 C 174.067 -3.38911 -1.13463 0
M  V30 1861 C 173.733 -4.50696 -0.135509 0
M  V30 1862 C 172.395 -4.80998 0.139252 0
M  V30 1863 C 174.747 -5.18333 0.545957 0
M  V30 1864 C 172.075 -5.76259 1.10194 0
M  V30 1865 C 174.427 -6.14627 1.49721 0
M  V30 1866 C 173.091 -6.43327 1.78006 0
M  V30 1867 H 172.361 -0.712944 -0.20197 0
M  V30 1868 H 175.008 -1.90582 0.18726 0
M  V30 1869 H 173.313 -3.39805 -1.95037 0
M  V30 1870 H 175.01 -3.65317 -1.65362 0
M  V30 1871 H 171.6 -4.27087 -0.359846 0
M  V30 1872 H 175.784 -4.95087 0.346842 0
M  V30 1873 H 171.04 -5.96804 1.32795 0
M  V30 1874 H 175.214 -6.66126 2.03099 0
M  V30 1875 H 172.841 -7.1695 2.52759 0
M  V30 1876 N 174.416 0.165178 -1.56732 0
M  V30 1877 C 175.363 1.2044 -1.96883 0
M  V30 1878 C 176.333 1.43664 -0.833657 0
M  V30 1879 O 177.518 1.56302 -1.09427 0
M  V30 1880 C 174.658 2.53727 -2.33916 0
M  V30 1881 C 173.771 2.3783 -3.6064 0
M  V30 1882 C 172.906 3.64026 -3.86857 0
M  V30 1883 C 171.945 3.43088 -5.06909 0
M  V30 1884 N 171.082 4.61369 -5.29229 0
M  V30 1885 H 175.922 0.854996 -2.85471 0
M  V30 1886 H 173.459 0.41076 -1.41249 0
M  V30 1887 H 175.417 3.31419 -2.53411 0
M  V30 1888 H 174.047 2.8665 -1.48431 0
M  V30 1889 H 173.099 1.51282 -3.49024 0
M  V30 1890 H 174.411 2.18308 -4.4849 0
M  V30 1891 H 173.565 4.50152 -4.06753 0
M  V30 1892 H 172.304 3.86533 -2.97394 0
M  V30 1893 H 171.309 2.55349 -4.86906 0
M  V30 1894 H 172.534 3.21997 -5.97909 0
M  V30 1895 H 170.48 4.84084 -4.42718 0
M  V30 1896 H 170.397 4.44783 -6.11313 0
M  V30 1897 H 171.665 5.48761 -5.53608 0
M  V30 1898 N 175.894 1.51508 0.433938 0
M  V30 1899 C 176.826 1.69266 1.54537 0
M  V30 1900 C 177.839 0.573276 1.52373 0
M  V30 1901 O 179.028 0.847698 1.57087 0
M  V30 1902 C 176.128 1.69524 2.93453 0
M  V30 1903 C 175.301 2.98101 3.20085 0
M  V30 1904 C 174.36 2.90502 4.38742 0
M  V30 1905 O 173.386 3.64442 4.3723 0
M  V30 1906 N 174.588 2.06586 5.42496 0
M  V30 1907 H 177.353 2.65145 1.39708 0
M  V30 1908 H 174.914 1.49437 0.622922 0
M  V30 1909 H 176.906 1.62004 3.70859 0
M  V30 1910 H 175.476 0.812245 3.01863 0
M  V30 1911 H 174.696 3.19464 2.30947 0
M  V30 1912 H 175.984 3.83207 3.34708 0
M  V30 1913 H 175.382 1.45896 5.46563 0
M  V30 1914 H 173.939 2.04943 6.18742 0
M  V30 1915 N 177.372 -0.689602 1.41712 0
M  V30 1916 C 178.621 -1.44534 1.40686 0
M  V30 1917 C 178.934 -1.95588 0.0213352 0
M  V30 1918 O 180.14 -2.71271 -0.111534 0
M  V30 1919 C 178.596 -2.61387 2.47396 0
M  V30 1920 C 178.204 -2.17094 3.91885 0
M  V30 1921 C 179.948 -3.38986 2.55517 0
M  V30 1922 C 177.855 -3.3094 4.90135 0
M  V30 1923 H 176.785 -0.542925 0.52321 0
M  V30 1924 H 179.436 -0.748054 1.6756 0
M  V30 1925 H 177.818 -3.33412 2.13664 0
M  V30 1926 H 178.992 -1.52318 4.34897 0
M  V30 1927 H 177.307 -1.52473 3.8748 0
M  V30 1928 H 179.904 -4.23747 3.26102 0
M  V30 1929 H 180.247 -3.84578 1.59391 0
M  V30 1930 H 180.78 -2.74021 2.8837 0
M  V30 1931 H 177.519 -2.90355 5.87685 0
M  V30 1932 H 177.039 -3.94546 4.51767 0
M  V30 1933 H 178.718 -3.9663 5.11169 0
M  V30 1934 N 178.85 -1.27639 -0.924453 0
M  V30 1935 C 180.075 -1.17101 -1.71179 0
M  V30 1936 C 180.5 0.268134 -1.86179 0
M  V30 1937 O 179.858 1.19415 -1.36418 0
M  V30 1938 C 179.906 -1.86313 -3.08739 0
M  V30 1939 O 179.01 -1.16331 -3.95652 0
M  V30 1940 H 178.351 -0.407091 -0.524569 0
M  V30 1941 H 180.881 -1.68767 -1.15666 0
M  V30 1942 H 180.891 -1.938 -3.59034 0
M  V30 1943 H 179.566 -2.91001 -2.97138 0
M  V30 1944 H 178.143 -1.16935 -3.54091 0
M  V30 1945 N 180.328 1.1314 -1.09713 0
M  V30 1946 C 181.276 2.20717 -0.733934 0
M  V30 1947 C 182.27 1.6729 0.266506 0
M  V30 1948 O 183.476 1.79547 0.127656 0
M  V30 1949 H 179.851 0.719292 -0.21937 0
M  V30 1950 H 181.822 2.48611 -1.6503 0
M  V30 1951 C 180.571 3.47265 -0.173849 0
M  V30 1952 H 179.894 3.88716 -0.934873 0
M  V30 1953 H 181.334 4.23979 0.0423126 0
M  V30 1954 C 179.793 3.18724 1.09164 0
M  V30 1955 O 180.323 3.37762 2.17439 0
M  V30 1956 N 178.529 2.72583 1.00732 0
M  V30 1957 H 178.076 2.57291 0.126121 0
M  V30 1958 H 178.034 2.53862 1.85476 0
M  V30 1959 N 181.806 0.884767 1.30421 0
M  V30 1960 C 182.736 0.367574 2.30589 0
M  V30 1961 C 183.717 -0.549464 1.60981 0
M  V30 1962 O 184.902 -0.46336 1.88591 0
M  V30 1963 C 182.032 -0.418944 3.44764 0
M  V30 1964 C 180.986 0.406316 4.26067 0
M  V30 1965 C 180.312 -0.506793 5.32293 0
M  V30 1966 C 181.612 1.64832 4.95608 0
M  V30 1967 H 183.306 1.20462 2.74097 0
M  V30 1968 H 180.852 0.580695 1.31772 0
M  V30 1969 H 182.805 -0.791395 4.13902 0
M  V30 1970 H 181.529 -1.28964 3.0006 0
M  V30 1971 H 180.188 0.760903 3.58617 0
M  V30 1972 H 179.836 -1.37519 4.83836 0
M  V30 1973 H 179.536 0.0415828 5.87585 0
M  V30 1974 H 181.06 -0.875764 6.04287 0
M  V30 1975 H 182.474 1.34646 5.57264 0
M  V30 1976 H 180.871 2.13688 5.60765 0
M  V30 1977 H 181.941 2.39284 4.21748 0
M  V30 1978 N 183.284 -1.43765 0.645699 0
M  V30 1979 C 184.532 -2.01499 0.155731 0
M  V30 1980 C 184.853 -1.51151 -1.232 0
M  V30 1981 O 184.123 -0.721044 -1.82148 0
M  V30 1982 H 182.703 -0.745003 0.0545817 0
M  V30 1983 H 185.365 -1.76075 0.835677 0
M  V30 1984 H 184.461 -3.1181 0.134577 0
M  V30 1985 N 184.763 -0.387143 -1.52771 0
M  V30 1986 C 185.693 0.440551 -2.29306 0
M  V30 1987 C 186.674 1.06535 -1.32606 0
M  V30 1988 O 187.859 1.07853 -1.61497 0
M  V30 1989 C 184.989 1.56919 -3.09829 0
M  V30 1990 C 183.943 1.07054 -4.14395 0
M  V30 1991 C 183.269 2.29109 -4.83129 0
M  V30 1992 C 184.569 0.140015 -5.22112 0
M  V30 1993 H 186.263 -0.198026 -2.98744 0
M  V30 1994 H 183.809 -0.09668 -1.43675 0
M  V30 1995 H 185.762 2.15503 -3.62128 0
M  V30 1996 H 184.486 2.23532 -2.3812 0
M  V30 1997 H 183.145 0.507247 -3.63074 0
M  V30 1998 H 182.793 2.94227 -4.0797 0
M  V30 1999 H 182.493 1.96406 -5.53804 0
M  V30 2000 H 184.017 2.88339 -5.38231 0
M  V30 2001 H 185.431 0.633978 -5.69784 0
M  V30 2002 H 183.828 -0.0971485 -6.00021 0
M  V30 2003 H 184.898 -0.811711 -4.78058 0
M  V30 2004 N 186.241 1.57166 -0.116904 0
M  V30 2005 C 187.189 2.16457 0.851418 0
M  V30 2006 C 188.183 1.11323 1.27686 0
M  V30 2007 O 189.389 1.2963 1.24884 0
M  V30 2008 H 185.764 0.69271 0.292672 0
M  V30 2009 H 187.735 2.96605 0.32685 0
M  V30 2010 C 186.484 2.77689 2.09246 0
M  V30 2011 H 185.807 3.58285 1.77402 0
M  V30 2012 H 187.247 3.22716 2.7501 0
M  V30 2013 C 185.706 1.74667 2.88085 0
M  V30 2014 O 186.236 1.19877 3.83396 0
M  V30 2015 N 184.442 1.44656 2.52038 0
M  V30 2016 H 183.989 1.89402 1.74599 0
M  V30 2017 H 183.947 0.759675 3.05084 0
M  V30 2018 N 187.719 -0.156864 1.56817 0
M  V30 2019 C 188.966 -0.871125 1.82805 0
M  V30 2020 C 189.294 -1.81611 0.696262 0
M  V30 2021 O 188.549 -1.93141 -0.315459 0
M  V30 2022 C 188.848 -1.68737 3.1506 0
M  V30 2023 C 188.514 -0.890045 4.42028 0
M  V30 2024 C 187.176 -0.670042 4.76512 0
M  V30 2025 C 189.528 -0.331769 5.20143 0
M  V30 2026 C 186.856 0.119104 5.86579 0
M  V30 2027 C 189.208 0.444365 6.31037 0
M  V30 2028 C 187.872 0.675035 6.64078 0
M  V30 2029 H 187.142 -0.318767 0.668931 0
M  V30 2030 H 189.789 -0.135274 1.91022 0
M  V30 2031 H 188.094 -2.49304 3.0225 0
M  V30 2032 H 189.791 -2.24331 3.3238 0
M  V30 2033 H 186.381 -1.07157 4.14988 0
M  V30 2034 H 190.565 -0.489043 4.93885 0
M  V30 2035 H 185.821 0.307417 6.10627 0
M  V30 2036 H 189.995 0.884139 6.90765 0
M  V30 2037 H 187.622 1.28839 7.49203 0
M  V30 2038 N 189.197 -1.51736 -0.425897 0
M  V30 2039 C 190.443 -1.65214 -1.1761 0
M  V30 2040 C 190.776 -0.372778 -1.90589 0
M  V30 2041 O 190.051 0.628139 -1.84078 0
M  V30 2042 C 190.334 -2.86312 -2.18398 0
M  V30 2043 C 190.187 -4.24254 -1.49426 0
M  V30 2044 C 191.506 -3.02925 -3.19256 0
M  V30 2045 H 188.625 -0.601263 -0.426206 0
M  V30 2046 H 191.267 -1.8425 -0.463882 0
M  V30 2047 H 189.417 -2.70213 -2.79137 0
M  V30 2048 H 191.089 -4.52046 -0.919362 0
M  V30 2049 H 189.332 -4.26426 -0.796432 0
M  V30 2050 H 190.003 -5.05001 -2.22885 0
M  V30 2051 H 192.479 -3.1781 -2.68581 0
M  V30 2052 H 191.355 -3.89199 -3.8706 0
M  V30 2053 H 191.616 -2.15497 -3.86023 0
M  V30 2054 N 190.675 0.682077 -1.42076 0
M  V30 2055 C 192.091 0.994324 -1.24841 0
M  V30 2056 C 192.291 2.0096 -0.147389 0
M  V30 2057 O 191.347 2.47822 0.483782 0
M  V30 2058 C 192.66 1.50607 -2.60265 0
M  V30 2059 C 194.208 1.62421 -2.6756 0
M  V30 2060 C 194.683 2.16994 -4.03333 0
M  V30 2061 N 196.174 2.24337 -4.0525 0
M  V30 2062 C 196.909 2.67621 -5.07116 0
M  V30 2063 N 196.405 3.1041 -6.19368 0
M  V30 2064 N 198.198 2.67305 -4.94474 0
M  V30 2065 H 190.349 0.00973908 -2.12398 0
M  V30 2066 H 192.612 0.0668593 -0.945639 0
M  V30 2067 H 192.318 0.834583 -3.41654 0
M  V30 2068 H 192.192 2.48602 -2.83684 0
M  V30 2069 H 194.579 2.28678 -1.86521 0
M  V30 2070 H 194.66 0.629352 -2.47937 0
M  V30 2071 H 194.304 1.51349 -4.84826 0
M  V30 2072 H 194.234 3.17258 -4.20304 0
M  V30 2073 H 196.725 1.94158 -3.24209 0
M  V30 2074 H 197.038 3.42103 -6.92954 0
M  V30 2075 H 195.383 3.08286 -6.22884 0
M  V30 2076 H 198.574 2.33233 -4.05857 0
M  V30 2077 H 198.747 3.00718 -5.73997 0
M  V30 2078 N 192.153 1.28127 0.917671 0
M  V30 2079 C 193.402 1.14432 1.66097 0
M  V30 2080 C 193.715 -0.307247 1.93172 0
M  V30 2081 O 194.921 -0.565259 2.65551 0
M  V30 2082 C 193.377 2.00015 2.99202 0
M  V30 2083 C 192.985 3.49889 2.79789 0
M  V30 2084 C 194.729 1.94996 3.77064 0
M  V30 2085 C 192.636 4.27636 4.08511 0
M  V30 2086 H 191.566 0.424662 0.62304 0
M  V30 2087 H 194.217 1.52628 1.01868 0
M  V30 2088 H 192.599 1.54672 3.64544 0
M  V30 2089 H 193.773 4.03162 2.23152 0
M  V30 2090 H 192.088 3.56392 2.15345 0
M  V30 2091 H 194.685 2.50354 4.72469 0
M  V30 2092 H 195.028 0.925819 4.05875 0
M  V30 2093 H 195.561 2.38287 3.18534 0
M  V30 2094 H 192.3 5.30615 3.84874 0
M  V30 2095 H 191.82 3.79137 4.64774 0
M  V30 2096 H 193.499 4.37346 4.76799 0
M  V30 2097 N 193.631 -1.12557 1.10312 0
M  V30 2098 C 195.042 -1.65574 0.862678 0
M  V30 2099 C 195.393 -1.86566 -0.607256 0
M  V30 2100 O 194.518 -1.59121 -1.46662 0
M  V30 2101 C 195.113 -3.00776 1.55947 0
M  V30 2102 C 193.672 -3.50748 1.36576 0
M  V30 2103 C 192.819 -2.25797 1.60968 0
M  V30 2104 H 195.77 -0.963552 1.26101 0
M  V30 2105 H 195.791 -3.67185 0.997753 0
M  V30 2106 H 195.303 -2.85465 2.62928 0
M  V30 2107 H 193.404 -3.71245 0.317531 0
M  V30 2108 H 193.517 -4.30289 2.10686 0
M  V30 2109 H 191.881 -2.32841 1.03234 0
M  V30 2110 H 192.664 -2.13043 2.69198 0
M  V30 2111 N 195.109 -0.891671 -1.2995 0
M  V30 2112 C 196.358 -0.509521 -1.95158 0
M  V30 2113 C 196.671 0.947388 -1.71125 0
M  V30 2114 O 197.877 1.43669 -2.30372 0
M  V30 2115 C 196.333 -0.860315 -3.49466 0
M  V30 2116 C 195.941 -2.33545 -3.8231 0
M  V30 2117 C 197.685 -0.547687 -4.20952 0
M  V30 2118 C 195.592 -2.62752 -5.29826 0
M  V30 2119 H 194.522 -0.18682 -0.730489 0
M  V30 2120 H 197.173 -1.08756 -1.47798 0
M  V30 2121 H 195.555 -0.211285 -3.95436 0
M  V30 2122 H 196.729 -3.02936 -3.47227 0
M  V30 2123 H 195.044 -2.61629 -3.23944 0
M  V30 2124 H 197.641 -0.742854 -5.29515 0
M  V30 2125 H 197.984 0.51332 -4.13123 0
M  V30 2126 H 198.517 -1.1542 -3.80688 0
M  V30 2127 H 195.256 -3.6762 -5.42712 0
M  V30 2128 H 194.776 -1.97977 -5.66185 0
M  V30 2129 H 196.455 -2.48601 -5.97333 0
M  V30 2130 N 196.587 1.43421 -0.653314 0
M  V30 2131 C 197.835 2.01414 -0.166415 0
M  V30 2132 C 198.156 1.51803 1.22397 0
M  V30 2133 O 197.426 0.730693 1.81763 0
M  V30 2134 H 196.006 0.744703 -0.0585319 0
M  V30 2135 H 198.668 1.75629 -0.845003 0
M  V30 2136 H 197.764 3.11734 -0.151111 0
M  V30 2137 N 198.065 0.39524 1.52563 0
M  V30 2138 C 199.295 -0.184675 2.05773 0
M  V30 2139 C 199.703 -1.40571 1.26635 0
M  V30 2140 O 199.046 -1.81105 0.30769 0
M  V30 2141 C 199.108 -0.613551 3.54226 0
M  V30 2142 C 198.772 0.49484 4.54313 0
M  V30 2143 C 199.769 1.3541 5.01956 0
M  V30 2144 C 197.454 0.663565 4.97898 0
M  V30 2145 C 199.448 2.36716 5.91814 0
M  V30 2146 C 197.135 1.67996 5.87555 0
M  V30 2147 C 198.133 2.53017 6.34406 0
M  V30 2148 O 197.821 3.52917 7.22291 0
M  V30 2149 H 197.553 -0.030077 0.675331 0
M  V30 2150 H 200.107 0.560708 1.97599 0
M  V30 2151 H 198.337 -1.411 3.60038 0
M  V30 2152 H 200.026 -1.11981 3.90148 0
M  V30 2153 H 200.792 1.23509 4.6901 0
M  V30 2154 H 196.671 0.0114913 4.60999 0
M  V30 2155 H 200.215 3.03113 6.28306 0
M  V30 2156 H 196.112 1.79933 6.19915 0
M  V30 2157 H 196.88 3.48996 7.40367 0
M  V30 2158 N 199.544 -1.57102 0.125237 0
M  V30 2159 C 200.79 -1.96488 -0.525753 0
M  V30 2160 C 201.145 -1.00786 -1.6389 0
M  V30 2161 O 200.438 -0.038979 -1.9156 0
M  V30 2162 C 200.632 -3.40096 -1.09862 0
M  V30 2163 C 200.461 -4.4968 -0.0425004 0
M  V30 2164 C 199.231 -5.03781 0.391463 0
M  V30 2165 C 201.429 -5.08936 0.740829 0
M  V30 2166 N 199.411 -5.96948 1.4327 0
M  V30 2167 C 200.782 -5.98105 1.6331 0
M  V30 2168 C 202.837 -4.91576 0.791029 0
M  V30 2169 C 201.54 -6.71774 2.57122 0
M  V30 2170 C 203.566 -5.6593 1.71688 0
M  V30 2171 C 202.928 -6.5479 2.59672 0
M  V30 2172 H 199.027 -0.765072 -0.161831 0
M  V30 2173 H 201.611 -1.93511 0.214801 0
M  V30 2174 H 199.782 -3.43707 -1.80887 0
M  V30 2175 H 201.514 -3.66591 -1.71444 0
M  V30 2176 H 198.269 -4.736 -0.00213584 0
M  V30 2177 H 198.693 -6.48236 1.95243 0
M  V30 2178 H 203.335 -4.22615 0.124915 0
M  V30 2179 H 201.053 -7.39977 3.24744 0
M  V30 2180 H 204.639 -5.54501 1.76125 0
M  V30 2181 H 203.519 -7.11316 3.30149 0
M  V30 2182 N 201.022 0.148545 -1.56898 0
M  V30 2183 C 201.985 1.16736 -1.97244 0
M  V30 2184 C 202.985 1.35947 -0.858777 0
M  V30 2185 O 204.175 1.32966 -1.12542 0
M  V30 2186 C 201.307 2.52798 -2.28705 0
M  V30 2187 H 202.5 0.821279 -2.88435 0
M  V30 2188 H 200.053 0.391831 -1.51309 0
M  V30 2189 H 200.788 2.92381 -1.403 0
M  V30 2190 H 200.573 2.40216 -3.09901 0
M  V30 2191 H 202.063 3.26179 -2.60762 0
M  V30 2192 N 202.5 1.5196 0.417844 0
M  V30 2193 C 203.747 1.65591 1.16559 0
M  V30 2194 C 204.075 0.381565 1.90721 0
M  V30 2195 O 203.33 -0.635156 1.85106 0
M  V30 2196 C 203.629 2.82269 2.19223 0
M  V30 2197 C 203.295 4.20819 1.61933 0
M  V30 2198 C 201.957 4.58506 1.46033 0
M  V30 2199 C 204.309 5.07196 1.20008 0
M  V30 2200 C 201.637 5.80257 0.867113 0
M  V30 2201 C 203.989 6.29544 0.621086 0
M  V30 2202 C 202.653 6.65987 0.449144 0
M  V30 2203 H 201.923 0.605939 0.42652 0
M  V30 2204 H 204.57 1.86041 0.45397 0
M  V30 2205 H 202.875 2.56118 2.96498 0
M  V30 2206 H 204.572 2.90012 2.76936 0
M  V30 2207 H 201.162 3.91116 1.7529 0
M  V30 2208 H 205.346 4.7867 1.31105 0
M  V30 2209 H 200.602 6.07124 0.721833 0
M  V30 2210 H 204.776 6.95805 0.287798 0
M  V30 2211 H 202.403 7.60199 -0.012632 0
M  V30 2212 N 203.978 -0.674533 1.42435 0
M  V30 2213 C 204.91 -1.80005 1.41883 0
M  V30 2214 C 205.923 -1.59667 0.31787 0
M  V30 2215 O 207.112 -1.68781 0.580973 0
M  V30 2216 C 204.212 -3.17114 1.19549 0
M  V30 2217 C 203.385 -3.64299 2.42084 0
M  V30 2218 C 202.444 -4.80142 2.15291 0
M  V30 2219 O 201.47 -4.90673 2.88493 0
M  V30 2220 N 202.672 -5.68869 1.1562 0
M  V30 2221 H 205.437 -1.80964 2.38898 0
M  V30 2222 H 202.998 -0.857633 1.37318 0
M  V30 2223 H 204.99 -3.92267 0.995417 0
M  V30 2224 H 203.56 -3.11053 0.310569 0
M  V30 2225 H 202.78 -2.79822 2.77657 0
M  V30 2226 H 204.068 -3.92567 3.23679 0
M  V30 2227 H 203.466 -5.63012 0.550765 0
M  V30 2228 H 202.023 -6.43833 1.016 0
M  V30 2229 N 205.456 -1.28612 -0.910864 0
M  V30 2230 C 206.386 -1.15326 -2.03032 0
M  V30 2231 C 207.367 -0.0502924 -1.70026 0
M  V30 2232 O 208.552 -0.227797 -1.92859 0
M  V30 2233 C 205.682 -0.817343 -3.37545 0
M  V30 2234 C 204.636 -1.8754 -3.84724 0
M  V30 2235 C 203.962 -1.39305 -5.16235 0
M  V30 2236 C 205.262 -3.28244 -4.06267 0
M  V30 2237 H 206.956 -2.08975 -2.14406 0
M  V30 2238 H 204.502 -1.00612 -1.03021 0
M  V30 2239 H 206.455 -0.711151 -4.15356 0
M  V30 2240 H 205.179 0.154846 -3.26233 0
M  V30 2241 H 203.838 -1.97079 -3.09121 0
M  V30 2242 H 203.486 -0.409846 -5.01328 0
M  V30 2243 H 203.186 -2.10057 -5.48771 0
M  V30 2244 H 204.71 -1.30014 -5.96598 0
M  V30 2245 H 206.124 -3.21611 -4.74594 0
M  V30 2246 H 204.521 -3.96855 -4.5014 0
M  V30 2247 H 205.591 -3.72048 -3.10979 0
M  V30 2248 N 206.934 1.1197 -1.10907 0
M  V30 2249 C 207.864 2.19928 -0.784473 0
M  V30 2250 C 208.845 1.6833 0.244726 0
M  V30 2251 O 210.03 1.93892 0.109418 0
M  V30 2252 C 207.16 3.46597 -0.220827 0
M  V30 2253 C 206.114 4.11376 -1.18127 0
M  V30 2254 C 205.44 5.32554 -0.478594 0
M  V30 2255 C 206.74 4.56945 -2.52979 0
M  V30 2256 H 208.434 2.47337 -1.68715 0
M  V30 2257 H 205.98 1.18879 -0.812642 0
M  V30 2258 H 207.933 4.21396 0.0184278 0
M  V30 2259 H 206.657 3.1863 0.717113 0
M  V30 2260 H 205.316 3.38564 -1.40606 0
M  V30 2261 H 204.964 5.00856 0.463976 0
M  V30 2262 H 204.664 5.76844 -1.11912 0
M  V30 2263 H 206.188 6.10096 -0.248 0
M  V30 2264 H 207.602 5.23093 -2.3462 0
M  V30 2265 H 205.999 5.1203 -3.12962 0
M  V30 2266 H 207.069 3.70676 -3.12614 0
M  V30 2267 N 208.412 0.89855 1.29475 0
M  V30 2268 C 209.689 0.443416 1.90508 0
M  V30 2269 C 210.069 -1.07685 1.81569 0
M  V30 2270 O 209.417 -1.9182 1.24166 0
M  V30 2271 C 209.627 0.956708 3.35631 0
M  V30 2272 C 210.975 0.999728 4.12663 0
M  V30 2273 O 211.999 0.904299 3.4453 0
M  V30 2274 O 210.858 1.14289 5.34416 0
M  V30 2275 H 207.952 0.138025 0.815401 0
M  V30 2276 H 210.498 0.98834 1.37949 0
M  V30 2277 H 209.27 2.00067 3.36287 0
M  V30 2278 H 208.893 0.391728 3.95666 0
M  V30 2279 N 209.89 -1.43072 0.660911 0
M  V30 2280 C 210.838 -2.32569 -0.0378199 0
M  V30 2281 C 211.832 -1.49046 -0.805092 0
M  V30 2282 O 213.038 -1.65206 -0.714624 0
M  V30 2283 H 209.413 -0.75136 -0.031019 0
M  V30 2284 H 211.384 -2.89216 0.734609 0
M  V30 2285 C 210.133 -3.33453 -0.985124 0
M  V30 2286 H 209.456 -3.97752 -0.404147 0
M  V30 2287 H 210.896 -3.98691 -1.44297 0
M  V30 2288 C 209.355 -2.64642 -2.08486 0
M  V30 2289 O 209.885 -2.46776 -3.16961 0
M  V30 2290 N 208.091 -2.23891 -1.8526 0
M  V30 2291 H 207.638 -2.38621 -0.970449 0
M  V30 2292 H 207.596 -1.78181 -2.59034 0
M  V30 2293 N 211.368 -0.403325 -1.52352 0
M  V30 2294 C 212.645 0.232611 -1.94212 0
M  V30 2295 C 213.025 1.63133 -1.33981 0
M  V30 2296 O 212.373 2.22659 -0.513344 0
M  V30 2297 C 212.583 0.244811 -3.4814 0
M  V30 2298 C 213.931 0.46698 -4.22024 0
M  V30 2299 O 214.955 0.324419 -3.5472 0
M  V30 2300 O 213.814 0.74747 -5.41364 0
M  V30 2301 H 210.908 0.148223 -0.813609 0
M  V30 2302 H 213.454 -0.458848 -1.63379 0
M  V30 2303 H 212.226 -0.734378 -3.84347 0
M  V30 2304 H 211.849 0.980611 -3.85318 0
M  V30 2305 N 212.846 1.57033 -0.133567 0
M  V30 2306 C 214.257 1.82593 0.389464 0
M  V30 2307 C 214.608 1.05156 1.6564 0
M  V30 2308 O 213.733 0.292644 2.14412 0
M  V30 2309 C 214.328 3.31204 0.713377 0
M  V30 2310 C 212.887 3.57393 1.18098 0
M  V30 2311 C 212.034 2.76598 0.197126 0
M  V30 2312 H 214.985 1.54598 -0.358481 0
M  V30 2313 H 215.006 3.46627 1.56939 0
M  V30 2314 H 214.518 3.87537 -0.2089 0
M  V30 2315 H 212.619 3.06433 2.11966 0
M  V30 2316 H 212.732 4.65915 1.11624 0
M  V30 2317 H 211.096 2.45257 0.687088 0
M  V30 2318 H 211.879 3.35697 -0.718504 0
M  V30 2319 N 214.325 -0.140222 1.56975 0
M  V30 2320 C 215.555 -0.865181 1.87612 0
M  V30 2321 C 215.963 -1.74942 0.72055 0
M  V30 2322 O 215.306 -1.80917 -0.318561 0
M  V30 2323 C 215.368 -1.76782 3.13031 0
M  V30 2324 C 215.032 -1.06005 4.44536 0
M  V30 2325 C 216.029 -0.410768 5.18275 0
M  V30 2326 C 213.714 -1.04754 4.91255 0
M  V30 2327 C 215.708 0.241572 6.36942 0
M  V30 2328 C 213.395 -0.391394 6.09845 0
M  V30 2329 C 214.393 0.252029 6.82535 0
M  V30 2330 O 214.081 0.897757 7.98871 0
M  V30 2331 H 213.813 -0.255188 0.625983 0
M  V30 2332 H 216.367 -0.135653 2.04952 0
M  V30 2333 H 214.597 -2.53846 2.91718 0
M  V30 2334 H 216.286 -2.36533 3.29859 0
M  V30 2335 H 217.052 -0.412195 4.83245 0
M  V30 2336 H 212.931 -1.53777 4.34596 0
M  V30 2337 H 216.475 0.744375 6.93617 0
M  V30 2338 H 212.372 -0.387656 6.44335 0
M  V30 2339 H 213.14 0.800102 8.1458 0
M  V30 2340 N 215.803 -1.52179 -0.40978 0
M  V30 2341 C 217.049 -1.66453 -1.15851 0
M  V30 2342 C 217.382 -0.392972 -1.90182 0
M  V30 2343 O 216.657 0.608579 -1.84734 0
M  V30 2344 C 216.94 -2.88612 -2.15349 0
M  V30 2345 C 216.793 -4.25815 -1.44918 0
M  V30 2346 C 218.112 -3.06294 -3.16026 0
M  V30 2347 H 215.231 -0.60575 -0.419805 0
M  V30 2348 H 217.873 -1.84732 -0.444314 0
M  V30 2349 H 216.023 -2.73158 -2.76255 0
M  V30 2350 H 217.695 -4.52995 -0.871365 0
M  V30 2351 H 215.938 -4.27247 -0.751159 0
M  V30 2352 H 216.609 -5.07337 -2.17516 0
M  V30 2353 H 219.085 -3.20641 -2.65195 0
M  V30 2354 H 217.961 -3.93283 -3.8291 0
M  V30 2355 H 218.222 -2.19579 -3.83715 0
M  V30 2356 N 217.281 0.66697 -1.42791 0
M  V30 2357 C 218.213 1.7925 -1.42836 0
M  V30 2358 C 219.226 1.59496 -0.326333 0
M  V30 2359 O 220.415 1.6847 -0.589916 0
M  V30 2360 C 217.515 3.16476 -1.21229 0
M  V30 2361 C 216.688 3.63011 -2.44013 0
M  V30 2362 C 215.747 4.78993 -2.17834 0
M  V30 2363 O 214.773 4.89137 -2.91091 0
M  V30 2364 N 215.975 5.68248 -1.18635 0
M  V30 2365 H 218.74 1.79695 -2.39854 0
M  V30 2366 H 216.301 0.850338 -1.37771 0
M  V30 2367 H 218.293 3.91734 -1.01621 0
M  V30 2368 H 216.863 3.10884 -0.32706 0
M  V30 2369 H 216.083 2.78346 -2.79137 0
M  V30 2370 H 217.371 3.90845 -3.25757 0
M  V30 2371 H 216.769 5.62712 -0.580615 0
M  V30 2372 H 215.326 6.43285 -1.05013 0
M  V30 2373 N 218.759 1.29093 0.90403 0
M  V30 2374 C 220.007 1.16583 1.65085 0
M  V30 2375 C 220.328 -0.283933 1.92922 0
M  V30 2376 O 219.598 -1.19509 1.55224 0
M  V30 2377 H 218.178 0.428467 0.611903 0
M  V30 2378 H 220.84 1.61959 1.08422 0
M  V30 2379 H 219.936 1.71266 2.6091 0
M  V30 2380 N 220.237 -1.11381 1.11499 0
M  V30 2381 C 221.169 -2.17207 0.731704 0
M  V30 2382 C 222.182 -1.61066 -0.236957 0
M  V30 2383 O 223.371 -1.78489 -0.0197591 0
M  V30 2384 C 220.471 -3.38846 0.0607624 0
M  V30 2385 C 219.644 -4.24451 1.0564 0
M  V30 2386 C 218.703 -5.24562 0.4149 0
M  V30 2387 O 217.729 -5.59071 1.069 0
M  V30 2388 N 218.931 -5.74651 -0.821943 0
M  V30 2389 H 221.696 -2.50699 1.64225 0
M  V30 2390 H 219.257 -1.26908 1.00529 0
M  V30 2391 H 221.249 -4.02911 -0.380139 0
M  V30 2392 H 219.819 -3.03411 -0.752376 0
M  V30 2393 H 219.039 -3.56833 1.67524 0
M  V30 2394 H 220.327 -4.78486 1.72998 0
M  V30 2395 H 219.725 -5.48797 -1.37252 0
M  V30 2396 H 218.282 -6.40549 -1.20582 0
M  V30 2397 N 221.715 -0.905404 -1.28997 0
M  V30 2398 C 222.961 -0.535039 -1.95615 0
M  V30 2399 C 223.294 0.917404 -1.71165 0
M  V30 2400 O 222.569 1.65123 -1.02785 0
M  V30 2401 C 222.852 -0.834918 -3.50287 0
M  V30 2402 C 222.705 -2.33948 -3.84172 0
M  V30 2403 C 224.024 -0.325318 -4.38896 0
M  V30 2404 H 221.143 -0.195861 -0.710498 0
M  V30 2405 H 223.785 -1.13313 -1.52513 0
M  V30 2406 H 221.935 -0.325904 -3.87131 0
M  V30 2407 H 223.607 -2.91847 -3.57243 0
M  V30 2408 H 221.85 -2.79789 -3.31513 0
M  V30 2409 H 222.521 -2.49987 -4.92149 0
M  V30 2410 H 224.997 -0.761256 -4.09077 0
M  V30 2411 H 223.873 -0.564295 -5.45992 0
M  V30 2412 H 224.134 0.774144 -4.35269 0
M  V30 2413 N 223.193 1.4272 -0.668489 0
M  V30 2414 C 224.125 2.2914 0.052613 0
M  V30 2415 C 225.138 1.43339 0.771857 0
M  V30 2416 O 226.327 1.67123 0.627067 0
M  V30 2417 C 223.427 3.20618 1.09804 0
M  V30 2418 C 222.6 4.35039 0.45389 0
M  V30 2419 C 221.659 5.07282 1.39825 0
M  V30 2420 O 220.685 5.62024 0.900978 0
M  V30 2421 N 221.887 5.12206 2.73176 0
M  V30 2422 H 224.652 2.91668 -0.689209 0
M  V30 2423 H 222.213 1.53577 -0.512422 0
M  V30 2424 H 224.205 3.65815 1.73094 0
M  V30 2425 H 222.775 2.59585 1.74167 0
M  V30 2426 H 221.995 3.92567 -0.358396 0
M  V30 2427 H 223.283 5.088 0.00486972 0
M  V30 2428 H 222.681 4.6913 3.16122 0
M  V30 2429 H 221.238 5.61069 3.31729 0
M  V30 2430 N 224.671 0.411399 1.52136 0
M  V30 2431 C 225.901 -0.16284 2.05957 0
M  V30 2432 C 226.309 -1.3922 1.28119 0
M  V30 2433 O 225.652 -1.80768 0.326881 0
M  V30 2434 C 225.714 -0.575946 3.54856 0
M  V30 2435 C 225.378 0.542998 4.53763 0
M  V30 2436 C 226.375 1.40726 5.00492 0
M  V30 2437 C 224.06 0.716337 4.97166 0
M  V30 2438 C 226.054 2.4298 5.8927 0
M  V30 2439 C 223.741 1.74218 5.8574 0
M  V30 2440 C 224.739 2.59731 6.31687 0
M  V30 2441 O 224.427 3.60558 7.18507 0
M  V30 2442 H 224.159 -0.0229125 0.675612 0
M  V30 2443 H 226.713 0.581634 1.96993 0
M  V30 2444 H 224.943 -1.37274 3.61515 0
M  V30 2445 H 226.632 -1.07836 3.91313 0
M  V30 2446 H 227.398 1.28476 4.67674 0
M  V30 2447 H 223.277 0.0603857 4.6096 0
M  V30 2448 H 226.821 3.0976 6.25055 0
M  V30 2449 H 222.718 1.86498 6.17971 0
M  V30 2450 H 223.486 3.56829 7.36624 0
M  V30 2451 N 226.149 -1.5696 0.141893 0
M  V30 2452 C 227.079 -2.19516 -0.795936 0
M  V30 2453 C 228.06 -1.14187 -1.26077 0
M  V30 2454 O 229.245 -1.42511 -1.31925 0
M  V30 2455 C 226.375 -2.81272 -2.03723 0
M  V30 2456 C 225.329 -3.92384 -1.70936 0
M  V30 2457 C 224.655 -4.41052 -3.02287 0
M  V30 2458 C 225.955 -5.13403 -0.959954 0
M  V30 2459 H 227.649 -2.98138 -0.274596 0
M  V30 2460 H 225.195 -1.43406 -0.130636 0
M  V30 2461 H 227.148 -3.237 -2.69808 0
M  V30 2462 H 225.872 -1.99973 -2.58221 0
M  V30 2463 H 224.531 -3.50566 -1.07232 0
M  V30 2464 H 224.179 -3.56582 -3.54765 0
M  V30 2465 H 223.879 -5.15993 -2.81114 0
M  V30 2466 H 225.403 -4.86146 -3.69451 0
M  V30 2467 H 226.817 -5.52706 -1.52279 0
M  V30 2468 H 225.214 -5.94073 -0.848357 0
M  V30 2469 H 226.284 -4.84875 0.0492434 0
M  V30 2470 N 227.627 0.131896 -1.57047 0
M  V30 2471 C 228.537 1.1815 -2.02676 0
M  V30 2472 C 229.553 1.46113 -0.944824 0
M  V30 2473 O 230.729 1.57485 -1.25541 0
M  V30 2474 C 227.794 2.49139 -2.41103 0
M  V30 2475 C 226.855 2.28688 -3.63318 0
M  V30 2476 C 226.088 3.53431 -3.99903 0
M  V30 2477 O 226.311 4.60223 -3.36973 0
M  V30 2478 O 225.245 3.45198 -4.93074 0
M  V30 2479 H 229.071 0.824069 -2.92306 0
M  V30 2480 H 226.656 0.341745 -1.45439 0
M  V30 2481 H 228.538 3.26338 -2.66611 0
M  V30 2482 H 227.213 2.84382 -1.54624 0
M  V30 2483 H 226.12 1.4939 -3.42977 0
M  V30 2484 H 227.453 1.98355 -4.50462 0
M  V30 2485 N 229.106 1.52395 0.401703 0
M  V30 2486 C 230.053 1.76268 1.48991 0
M  V30 2487 C 231.023 0.605386 1.54675 0
M  V30 2488 O 232.208 0.843742 1.7113 0
M  V30 2489 C 229.348 1.92592 2.86361 0
M  V30 2490 C 228.461 3.20259 2.89928 0
M  V30 2491 C 227.596 3.26972 4.18644 0
M  V30 2492 C 226.635 4.48812 4.16214 0
M  V30 2493 N 225.772 4.52877 5.36514 0
M  V30 2494 H 230.612 2.6914 1.27935 0
M  V30 2495 H 228.149 1.33355 0.620871 0
M  V30 2496 H 230.107 2.0004 3.66115 0
M  V30 2497 H 228.737 1.03093 3.05895 0
M  V30 2498 H 227.789 3.21945 2.02621 0
M  V30 2499 H 229.101 4.10056 2.83999 0
M  V30 2500 H 228.255 3.33533 5.06794 0
M  V30 2501 H 226.994 2.35126 4.27278 0
M  V30 2502 H 225.999 4.4239 3.26453 0
M  V30 2503 H 227.224 5.41961 4.09213 0
M  V30 2504 H 225.17 3.63917 5.45802 0
M  V30 2505 H 225.087 5.36529 5.32609 0
M  V30 2506 H 226.355 4.63676 6.26597 0
M  V30 2507 N 230.584 -0.659388 1.43143 0
M  V30 2508 C 231.547 -1.75432 1.47501 0
M  V30 2509 C 232.547 -1.56707 0.360512 0
M  V30 2510 O 233.737 -1.62717 0.622002 0
M  V30 2511 C 230.869 -3.14239 1.32162 0
M  V30 2512 H 232.062 -1.7295 2.45006 0
M  V30 2513 H 229.615 -0.870469 1.29817 0
M  V30 2514 H 230.35 -3.22336 0.356401 0
M  V30 2515 H 230.135 -3.29235 2.12948 0
M  V30 2516 H 231.625 -3.94094 1.3813 0
M  V30 2517 N 232.062 -1.29571 -0.897171 0
M  V30 2518 C 232.992 -1.17473 -2.01798 0
M  V30 2519 C 233.973 -0.068323 -1.69963 0
M  V30 2520 O 235.158 -0.248239 -1.92607 0
M  V30 2521 C 232.288 -0.853099 -3.36659 0
M  V30 2522 C 231.242 -1.9161 -3.82713 0
M  V30 2523 C 230.568 -1.44773 -5.14728 0
M  V30 2524 C 231.868 -3.32535 -4.02763 0
M  V30 2525 H 233.562 -2.11237 -2.12177 0
M  V30 2526 H 231.108 -1.01699 -1.01948 0
M  V30 2527 H 233.061 -0.755165 -4.14578 0
M  V30 2528 H 231.785 0.120236 -3.26379 0
M  V30 2529 H 230.444 -2.00346 -3.07013 0
M  V30 2530 H 230.092 -0.462995 -5.00865 0
M  V30 2531 H 229.792 -2.15865 -5.46513 0
M  V30 2532 H 231.316 -1.36334 -5.95185 0
M  V30 2533 H 232.73 -3.26626 -4.71156 0
M  V30 2534 H 231.127 -4.01607 -4.45905 0
M  V30 2535 H 232.197 -3.75326 -3.07016 0
M  V30 2536 N 233.54 1.10788 -1.12088 0
M  V30 2537 C 234.788 1.8231 -0.872205 0
M  V30 2538 C 235.109 1.85419 0.603709 0
M  V30 2539 O 234.379 1.32963 1.43867 0
M  V30 2540 H 232.959 0.675137 -0.319686 0
M  V30 2541 H 235.621 1.34068 -1.41463 0
M  V30 2542 H 234.717 2.85955 -1.25045 0
M  V30 2543 N 235.018 0.912232 1.28515 0
M  V30 2544 C 236.264 0.554851 1.95686 0
M  V30 2545 C 236.619 -0.89138 1.70506 0
M  V30 2546 O 235.912 -1.62529 1.01464 0
M  V30 2547 C 236.106 0.798392 3.48368 0
M  V30 2548 C 235.935 2.26674 3.88393 0
M  V30 2549 C 234.705 2.91657 4.12631 0
M  V30 2550 C 236.903 3.24303 3.99164 0
M  V30 2551 N 234.885 4.28805 4.39317 0
M  V30 2552 C 236.256 4.4661 4.30046 0
M  V30 2553 C 238.311 3.19723 3.81683 0
M  V30 2554 C 237.014 5.64915 4.45268 0
M  V30 2555 C 239.04 4.37325 3.98121 0
M  V30 2556 C 238.402 5.58406 4.29375 0
M  V30 2557 H 234.501 0.252876 0.739985 0
M  V30 2558 H 237.085 1.17565 1.55199 0
M  V30 2559 H 235.256 0.20688 3.87849 0
M  V30 2560 H 236.988 0.405193 4.02666 0
M  V30 2561 H 233.743 2.42393 4.06869 0
M  V30 2562 H 234.167 4.99712 4.56746 0
M  V30 2563 H 238.809 2.27191 3.56573 0
M  V30 2564 H 236.527 6.57927 4.6921 0
M  V30 2565 H 240.113 4.35282 3.86033 0
M  V30 2566 H 238.993 6.47889 4.41825 0
M  V30 2567 N 236.496 -1.42363 0.676048 0
M  V30 2568 C 237.459 -2.29199 0.00766941 0
M  V30 2569 C 238.459 -1.43389 -0.727745 0
M  V30 2570 O 239.649 -1.64764 -0.56556 0
M  V30 2571 C 236.781 -3.2591 -0.999785 0
M  V30 2572 H 237.974 -2.89794 0.771988 0
M  V30 2573 H 235.527 -1.50024 0.438468 0
M  V30 2574 H 236.262 -2.70256 -1.79255 0
M  V30 2575 H 236.047 -3.89202 -0.475829 0
M  V30 2576 H 237.537 -3.91028 -1.46583 0
M  V30 2577 N 237.974 -0.419461 -1.51915 0
M  V30 2578 C 239.39 -0.0708431 -1.59443 0
M  V30 2579 C 239.59 1.41796 -1.43164 0
M  V30 2580 O 238.646 2.18596 -1.26381 0
M  V30 2581 C 239.959 -0.574991 -2.95151 0
M  V30 2582 C 241.507 -0.533867 -3.08413 0
M  V30 2583 C 241.982 -1.01469 -4.46618 0
M  V30 2584 N 243.473 -0.971939 -4.52888 0
M  V30 2585 C 244.208 -1.31505 -5.58116 0
M  V30 2586 N 243.704 -1.73014 -6.70849 0
M  V30 2587 N 245.497 -1.23436 -5.48379 0
M  V30 2588 H 237.648 -1.38836 -1.60743 0
M  V30 2589 H 239.911 -0.570998 -0.756747 0
M  V30 2590 H 239.617 -1.61597 -3.12377 0
M  V30 2591 H 239.491 0.00979777 -3.77199 0
M  V30 2592 H 241.878 0.498086 -2.90866 0
M  V30 2593 H 241.959 -1.15484 -2.28248 0
M  V30 2594 H 241.603 -2.04502 -4.6491 0
M  V30 2595 H 241.533 -0.370433 -5.25295 0
M  V30 2596 H 244.024 -0.666893 -3.71969 0
M  V30 2597 H 244.337 -1.97479 -7.47143 0
M  V30 2598 H 242.682 -1.76926 -6.72103 0
M  V30 2599 H 245.873 -0.908869 -4.59192 0
M  V30 2600 H 246.046 -1.50506 -6.30279 0
M  V30 2601 N 239.452 1.56882 -0.150215 0
M  V30 2602 C 240.399 2.16922 0.788244 0
M  V30 2603 C 241.369 1.10303 1.24187 0
M  V30 2604 O 242.554 1.38359 1.31383 0
M  V30 2605 C 239.694 2.79754 2.02068 0
M  V30 2606 C 238.807 4.00775 1.61257 0
M  V30 2607 C 237.942 4.51595 2.79705 0
M  V30 2608 C 236.981 5.65074 2.35282 0
M  V30 2609 N 236.118 6.10499 3.4675 0
M  V30 2610 H 240.958 2.96779 0.269444 0
M  V30 2611 H 238.495 1.46599 0.12128 0
M  V30 2612 H 240.453 3.14329 2.74323 0
M  V30 2613 H 239.083 2.02536 2.51354 0
M  V30 2614 H 238.135 3.72158 0.787553 0
M  V30 2615 H 239.447 4.82978 1.24633 0
M  V30 2616 H 238.601 4.88242 3.60145 0
M  V30 2617 H 237.34 3.68406 3.19576 0
M  V30 2618 H 236.345 5.28 1.53283 0
M  V30 2619 H 237.57 6.50052 1.96493 0
M  V30 2620 H 235.516 5.30243 3.86236 0
M  V30 2621 H 235.433 6.87637 3.14152 0
M  V30 2622 H 236.701 6.51791 4.27537 0
M  V30 2623 N 240.93 -0.123565 1.57115 0
M  V30 2624 C 241.878 -1.17082 2.00984 0
M  V30 2625 C 242.872 -1.43136 0.906009 0
M  V30 2626 O 244.078 -1.43152 1.09121 0
M  V30 2627 H 240.453 -0.394653 0.64012 0
M  V30 2628 H 242.424 -0.774292 2.88179 0
M  V30 2629 C 241.173 -2.49057 2.42623 0
M  V30 2630 H 240.496 -2.29846 3.27125 0
M  V30 2631 H 241.936 -3.20906 2.7712 0
M  V30 2632 C 240.395 -3.11305 1.28805 0
M  V30 2633 O 240.925 -3.97171 0.60153 0
M  V30 2634 N 239.131 -2.71111 1.04628 0
M  V30 2635 H 238.678 -2.01382 1.60634 0
M  V30 2636 H 238.636 -3.1309 0.286685 0
M  V30 2637 N 242.408 -1.52605 -0.393616 0
M  V30 2638 C 243.356 -1.77688 -1.50099 0
M  V30 2639 C 244.35 -0.644615 -1.56656 0
M  V30 2640 O 245.556 -0.826997 -1.59877 0
M  V30 2641 H 241.931 -0.562159 -0.499481 0
M  V30 2642 H 243.902 -2.7043 -1.26135 0
M  V30 2643 C 242.651 -1.95858 -2.87289 0
M  V30 2644 H 241.974 -2.8241 -2.82992 0
M  V30 2645 H 243.414 -2.174 -3.64024 0
M  V30 2646 C 241.873 -0.729848 -3.28899 0
M  V30 2647 O 242.403 0.0949217 -4.01588 0
M  V30 2648 N 240.609 -0.561283 -2.85128 0
M  V30 2649 H 240.156 -1.23357 -2.26143 0
M  V30 2650 H 240.114 0.2595 -3.13327 0
M  V30 2651 N 243.887 0.651787 -1.4349 0
M  V30 2652 C 245.136 1.40754 -1.44469 0
M  V30 2653 C 245.449 1.95463 -0.0731845 0
M  V30 2654 O 246.655 2.71471 0.0395721 0
M  V30 2655 C 245.111 2.54735 -2.5424 0
M  V30 2656 C 244.719 2.06628 -3.97504 0
M  V30 2657 C 246.463 3.32092 -2.64414 0
M  V30 2658 C 244.37 3.17829 -4.98737 0
M  V30 2659 H 243.3 0.528862 -0.53742 0
M  V30 2660 H 245.951 0.703365 -1.69485 0
M  V30 2661 H 244.333 3.2763 -2.22428 0
M  V30 2662 H 245.507 1.40734 -4.38783 0
M  V30 2663 H 243.822 1.42146 -3.91387 0
M  V30 2664 H 246.419 4.14952 -3.37223 0
M  V30 2665 H 246.762 3.80217 -1.69532 0
M  V30 2666 H 247.295 2.66279 -2.95534 0
M  V30 2667 H 244.034 2.74671 -5.95177 0
M  V30 2668 H 243.554 3.82429 -4.62069 0
M  V30 2669 H 245.233 3.82937 -5.21505 0
M  V30 2670 N 245.365 1.30045 0.890287 0
M  V30 2671 C 246.781 1.08261 1.17268 0
M  V30 2672 C 246.981 -0.160063 2.00863 0
M  V30 2673 O 246.037 -0.855181 2.37577 0
M  V30 2674 C 247.35 2.34323 1.8845 0
M  V30 2675 C 248.898 2.39735 2.01237 0
M  V30 2676 C 249.373 3.65625 2.7583 0
M  V30 2677 N 250.864 3.66402 2.83379 0
M  V30 2678 C 251.599 4.60498 3.41657 0
M  V30 2679 N 251.095 5.64933 4.01026 0
M  V30 2680 N 252.888 4.48051 3.39421 0
M  V30 2681 H 245.039 2.09777 0.332762 0
M  V30 2682 H 247.302 0.92446 0.209948 0
M  V30 2683 H 247.008 3.2498 1.34465 0
M  V30 2684 H 246.882 2.4256 2.88867 0
M  V30 2685 H 249.269 1.4956 2.54393 0
M  V30 2686 H 249.35 2.35476 0.999232 0
M  V30 2687 H 248.994 4.56156 2.23347 0
M  V30 2688 H 248.924 3.67144 3.77509 0
M  V30 2689 H 251.415 2.90896 2.41222 0
M  V30 2690 H 251.728 6.32841 4.43545 0
M  V30 2691 H 250.073 5.68732 3.99461 0
M  V30 2692 H 253.264 3.65649 2.92264 0
M  V30 2693 H 253.437 5.21565 3.84544 0
M  V30 2694 N 246.843 -1.10192 1.12674 0
M  V30 2695 C 248.089 -1.82475 0.884915 0
M  V30 2696 C 248.422 -1.85093 -0.58773 0
M  V30 2697 O 247.697 -1.3134 -1.43457 0
M  V30 2698 C 247.98 -3.29018 1.46353 0
M  V30 2699 C 247.833 -3.34718 3.00473 0
M  V30 2700 C 249.152 -4.25473 1.12519 0
M  V30 2701 H 246.271 -0.662492 0.322915 0
M  V30 2702 H 248.913 -1.2913 1.39375 0
M  V30 2703 H 247.063 -3.74576 1.03077 0
M  V30 2704 H 248.735 -2.97622 3.52447 0
M  V30 2705 H 246.978 -2.74541 3.35872 0
M  V30 2706 H 247.649 -4.37918 3.36053 0
M  V30 2707 H 250.125 -3.88161 1.499 0
M  V30 2708 H 249.001 -5.26365 1.55663 0
M  V30 2709 H 249.262 -4.42084 0.0377407 0
M  V30 2710 N 248.321 -0.919034 -1.28029 0
M  V30 2711 C 249.567 -0.565221 -1.95389 0
M  V30 2712 C 249.922 0.882325 -1.70976 0
M  V30 2713 O 249.215 1.61988 -1.02325 0
M  V30 2714 C 249.409 -0.816855 -3.4794 0
M  V30 2715 C 249.238 -2.28731 -3.87185 0
M  V30 2716 C 248.008 -2.93841 -4.11079 0
M  V30 2717 C 250.206 -3.26415 -3.97439 0
M  V30 2718 N 248.188 -4.31129 -4.37037 0
M  V30 2719 C 249.559 -4.48884 -4.27672 0
M  V30 2720 C 251.614 -3.21742 -3.79982 0
M  V30 2721 C 250.317 -5.67268 -4.42266 0
M  V30 2722 C 252.343 -4.39431 -3.95796 0
M  V30 2723 C 251.705 -5.60675 -4.26407 0
M  V30 2724 H 247.804 -0.256797 -0.738633 0
M  V30 2725 H 250.388 -1.18386 -1.54573 0
M  V30 2726 H 248.559 -0.227445 -3.87733 0
M  V30 2727 H 250.291 -0.426542 -4.02446 0
M  V30 2728 H 247.046 -2.44547 -4.05578 0
M  V30 2729 H 247.47 -5.02127 -4.5409 0
M  V30 2730 H 252.112 -2.29079 -3.55363 0
M  V30 2731 H 249.83 -6.60406 -4.65714 0
M  V30 2732 H 253.416 -4.37323 -3.83719 0
M  V30 2733 H 252.296 -6.50223 -4.38383 0
M  V30 2734 N 249.799 1.42003 -0.683588 0
M  V30 2735 C 251.048 2.00638 -0.206681 0
M  V30 2736 C 251.361 1.5472 1.19671 0
M  V30 2737 O 252.567 2.05833 1.77045 0
M  V30 2738 C 251.023 3.58487 -0.318632 0
M  V30 2739 C 250.631 4.1339 -1.72663 0
M  V30 2740 C 252.375 4.24384 0.0991141 0
M  V30 2741 C 250.282 5.63633 -1.79087 0
M  V30 2742 H 249.212 0.750408 -0.0735107 0
M  V30 2743 H 251.863 1.62624 -0.850048 0
M  V30 2744 H 250.245 3.94047 0.392781 0
M  V30 2745 H 251.419 3.89273 -2.46583 0
M  V30 2746 H 249.734 3.59976 -2.09299 0
M  V30 2747 H 252.331 5.34652 0.0713833 0
M  V30 2748 H 252.674 4.00505 1.13586 0
M  V30 2749 H 253.207 3.93816 -0.561599 0
M  V30 2750 H 249.946 5.92323 -2.80774 0
M  V30 2751 H 249.466 5.89714 -1.09535 0
M  V30 2752 H 251.145 6.28201 -1.5483 0
M  V30 2753 N 251.277 0.427512 1.51691 0
M  V30 2754 C 252.554 -0.201684 1.94557 0
M  V30 2755 C 252.934 -1.60981 1.36559 0
M  V30 2756 O 252.282 -2.21814 0.548702 0
M  V30 2757 C 252.492 -0.189394 3.48486 0
M  V30 2758 C 253.84 -0.39978 4.22714 0
M  V30 2759 O 254.864 -0.267945 3.55191 0
M  V30 2760 O 253.723 -0.661249 5.42485 0
M  V30 2761 H 250.817 -0.135261 0.815864 0
M  V30 2762 H 253.363 0.484782 1.62628 0
M  V30 2763 H 252.135 0.795431 3.8313 0
M  V30 2764 H 251.758 -0.919187 3.86829 0
M  V30 2765 N 252.755 -1.56801 0.158532 0
M  V30 2766 C 253.685 -2.20347 -0.772609 0
M  V30 2767 C 254.666 -1.15518 -1.24859 0
M  V30 2768 O 255.851 -1.43902 -1.30406 0
M  V30 2769 C 252.981 -2.83417 -2.00729 0
M  V30 2770 C 251.935 -3.94174 -1.66765 0
M  V30 2771 C 251.261 -4.44233 -2.97592 0
M  V30 2772 C 252.561 -5.14392 -0.905447 0
M  V30 2773 H 254.255 -2.98413 -0.242959 0
M  V30 2774 H 251.801 -1.43537 -0.115419 0
M  V30 2775 H 253.754 -3.26543 -2.6636 0
M  V30 2776 H 252.478 -2.02701 -2.56086 0
M  V30 2777 H 251.137 -3.51684 -1.03508 0
M  V30 2778 H 250.785 -3.60325 -3.50963 0
M  V30 2779 H 250.485 -5.18945 -2.75626 0
M  V30 2780 H 252.009 -4.90037 -3.64274 0
M  V30 2781 H 253.423 -5.5429 -1.46408 0
M  V30 2782 H 251.82 -5.9494 -0.7853 0
M  V30 2783 H 252.89 -4.84795 0.100668 0
M  V30 2784 N 254.233 0.115231 -1.57178 0
M  V30 2785 C 255.183 1.14707 -1.97044 0
M  V30 2786 C 256.167 1.36866 -0.845957 0
M  V30 2787 O 257.359 1.37895 -1.10968 0
M  V30 2788 C 254.488 2.47266 -2.38148 0
M  V30 2789 C 253.574 2.28566 -3.57237 0
M  V30 2790 N 253.965 1.79685 -4.72807 0
M  V30 2791 C 252.263 2.59208 -3.62943 0
M  V30 2792 C 252.964 1.74781 -5.54821 0
M  V30 2793 N 251.94 2.19264 -4.97417 0
M  V30 2794 H 255.742 0.761754 -2.83857 0
M  V30 2795 H 253.256 0.322928 -1.59157 0
M  V30 2796 H 255.253 3.219 -2.64927 0
M  V30 2797 H 253.913 2.86552 -1.52702 0
M  V30 2798 H 254.924 1.49177 -4.9595 0
M  V30 2799 H 251.601 3.02154 -2.88113 0
M  V30 2800 H 252.991 1.38212 -6.57531 0
M  V30 2801 N 255.711 1.52812 0.385517 0
M  V30 2802 C 256.959 1.67694 1.12797 0
M  V30 2803 C 257.28 0.421115 1.90399 0
M  V30 2804 O 256.55 -0.564551 1.87589 0
M  V30 2805 H 255.13 0.618155 0.419396 0
M  V30 2806 H 257.792 1.89938 0.436972 0
M  V30 2807 H 256.888 2.52896 1.82894 0
M  V30 2808 N 257.189 -0.644168 1.43834 0
M  V30 2809 C 258.152 -1.73857 1.49353 0
M  V30 2810 C 259.152 -1.56315 0.377112 0
M  V30 2811 O 260.342 -1.62048 0.639226 0
M  V30 2812 C 257.474 -3.12819 1.35488 0
M  V30 2813 H 258.667 -1.70342 2.46827 0
M  V30 2814 H 256.22 -0.856652 1.30733 0
M  V30 2815 H 256.955 -3.2194 0.390569 0
M  V30 2816 H 256.74 -3.26958 2.16428 0
M  V30 2817 H 258.23 -3.92606 1.42302 0
M  V30 2818 N 258.668 -1.30515 -0.883378 0
M  V30 2819 C 260.079 -1.17509 -1.45081 0
M  V30 2820 C 260.43 0.223605 -1.94922 0
M  V30 2821 O 259.555 1.12041 -1.85137 0
M  V30 2822 C 260.15 -2.12715 -2.63701 0
M  V30 2823 C 258.709 -2.03682 -3.16529 0
M  V30 2824 C 257.856 -2.02706 -1.89224 0
M  V30 2825 H 260.807 -1.42762 -0.693165 0
M  V30 2826 H 260.828 -1.70891 -3.39965 0
M  V30 2827 H 260.34 -3.14505 -2.27395 0
M  V30 2828 H 258.441 -1.05039 -3.57488 0
M  V30 2829 H 258.554 -2.92146 -3.7972 0
M  V30 2830 H 256.918 -1.4753 -2.07622 0
M  V30 2831 H 257.701 -3.06229 -1.55174 0
M  V30 2832 N 260.146 1.09593 -1.13257 0
M  V30 2833 C 261.394 1.81375 -0.891492 0
M  V30 2834 C 261.715 1.86049 0.584009 0
M  V30 2835 O 260.985 1.34481 1.42449 0
M  V30 2836 H 259.565 0.671708 -0.326828 0
M  V30 2837 H 262.227 1.3256 -1.42877 0
M  V30 2838 H 261.323 2.84612 -1.28071 0
M  V30 2839 N 261.624 0.925811 1.2754 0
M  V30 2840 C 262.849 0.580924 1.99098 0
M  V30 2841 C 263.274 -0.833555 1.68622 0
M  V30 2842 O 262.632 -1.55903 0.925422 0
M  V30 2843 C 262.68 0.811186 3.51358 0
M  V30 2844 O 261.784 -0.124129 4.12213 0
M  V30 2845 H 261.125 0.223873 0.625122 0
M  V30 2846 H 263.655 1.24455 1.62395 0
M  V30 2847 H 263.665 0.72601 4.01489 0
M  V30 2848 H 262.34 1.84227 3.72872 0
M  V30 2849 H 260.917 0.0108006 3.72898 0
M  V30 2850 N 263.102 -1.41638 0.69111 0
M  V30 2851 C 264.034 -2.29194 -0.0161523 0
M  V30 2852 C 265.047 -1.44549 -0.748955 0
M  V30 2853 O 266.236 -1.681 -0.6004 0
M  V30 2854 C 263.336 -3.22325 -1.0469 0
M  V30 2855 C 262.509 -4.35706 -0.384621 0
M  V30 2856 C 261.568 -5.09443 -1.31737 0
M  V30 2857 O 260.594 -5.63386 -0.811451 0
M  V30 2858 N 261.796 -5.16487 -2.64993 0
M  V30 2859 H 264.561 -2.90534 0.735523 0
M  V30 2860 H 262.122 -1.52742 0.53679 0
M  V30 2861 H 264.114 -3.68522 -1.67252 0
M  V30 2862 H 262.684 -2.62323 -1.70015 0
M  V30 2863 H 261.904 -3.91948 0.420804 0
M  V30 2864 H 263.192 -5.08743 0.0760765 0
M  V30 2865 H 262.59 -4.741 -3.08619 0
M  V30 2866 H 261.147 -5.66276 -3.22761 0
M  V30 2867 N 264.58 -0.43555 -1.51462 0
M  V30 2868 C 265.528 0.391205 -2.29287 0
M  V30 2869 C 266.522 1.02247 -1.35062 0
M  V30 2870 O 267.728 0.957646 -1.52411 0
M  V30 2871 H 264.103 0.144968 -0.737895 0
M  V30 2872 H 266.074 -0.286051 -2.97026 0
M  V30 2873 C 264.823 1.48096 -3.14583 0
M  V30 2874 H 264.146 1.00457 -3.86973 0
M  V30 2875 H 265.586 2.03273 -3.72097 0
M  V30 2876 C 264.045 2.46321 -2.29843 0
M  V30 2877 O 264.575 3.50815 -1.95682 0
M  V30 2878 N 262.781 2.17166 -1.931 0
M  V30 2879 H 262.328 1.32218 -2.21079 0
M  V30 2880 H 262.286 2.83127 -1.36698 0
M  V30 2881 N 266.058 1.56714 -0.166846 0
M  V30 2882 C 267.306 1.96358 0.478305 0
M  V30 2883 C 267.627 1.0537 1.6408 0
M  V30 2884 O 266.897 0.119154 1.95537 0
M  V30 2885 H 265.477 0.725065 0.179692 0
M  V30 2886 H 268.139 1.93329 -0.246985 0
M  V30 2887 H 267.235 3.00547 0.841292 0
M  V30 2888 N 267.536 -0.106894 1.57237 0
M  V30 2889 C 268.783 -0.812526 1.85484 0
M  V30 2890 C 269.111 -1.79304 0.753687 0
M  V30 2891 O 268.366 -1.94047 -0.253853 0
M  V30 2892 C 268.665 -1.58628 3.20268 0
M  V30 2893 C 268.331 -0.748967 4.44636 0
M  V30 2894 C 266.993 -0.518104 4.78403 0
M  V30 2895 C 269.345 -0.166122 5.20935 0
M  V30 2896 C 266.673 0.305659 5.85903 0
M  V30 2897 C 269.025 0.644899 6.29304 0
M  V30 2898 C 267.689 0.885965 6.61594 0
M  V30 2899 H 266.959 -0.297324 0.678734 0
M  V30 2900 H 269.606 -0.0744332 1.91355 0
M  V30 2901 H 267.911 -2.39562 3.10028 0
M  V30 2902 H 269.608 -2.13643 3.39349 0
M  V30 2903 H 266.198 -0.939006 4.18187 0
M  V30 2904 H 270.382 -0.33167 4.95191 0
M  V30 2905 H 265.638 0.501528 6.0934 0
M  V30 2906 H 269.812 1.10345 6.87602 0
M  V30 2907 H 267.439 1.52609 7.44725 0
M  V30 2908 N 269.014 -1.53014 -0.377408 0
M  V30 2909 C 270.291 -1.59215 -1.13622 0
M  V30 2910 C 270.671 -0.392407 -2.07421 0
M  V30 2911 O 270.019 0.618342 -2.19975 0
M  V30 2912 C 270.229 -2.93669 -1.88573 0
M  V30 2913 C 271.577 -3.47822 -2.43526 0
M  V30 2914 O 272.601 -2.9562 -1.98715 0
M  V30 2915 O 271.46 -4.39055 -3.25412 0
M  V30 2916 H 268.554 -0.642625 -0.52054 0
M  V30 2917 H 271.1 -1.65353 -0.381625 0
M  V30 2918 H 269.872 -3.7243 -1.20048 0
M  V30 2919 H 269.495 -2.90968 -2.70968 0
M  V30 2920 N 270.492 0.636531 -1.44174 0
M  V30 2921 C 271.44 1.76995 -1.50915 0
M  V30 2922 C 272.434 1.65053 -0.381295 0
M  V30 2923 O 273.64 1.71197 -0.55601 0
M  V30 2924 H 270.015 0.584247 -0.473455 0
M  V30 2925 H 271.986 1.68432 -2.4632 0
M  V30 2926 C 270.735 3.15314 -1.46534 0
M  V30 2927 H 270.058 3.25149 -2.32633 0
M  V30 2928 H 271.498 3.9453 -1.55312 0
M  V30 2929 C 269.957 3.3639 -0.185305 0
M  V30 2930 O 270.487 3.94699 0.746688 0
M  V30 2931 N 268.693 2.9046 -0.0901606 0
M  V30 2932 H 268.24 2.43193 -0.849416 0
M  V30 2933 H 268.198 3.04937 0.765553 0
M  V30 2934 N 271.97 1.30982 0.876444 0
M  V30 2935 C 273.195 1.23373 1.66715 0
M  V30 2936 C 273.62 -0.19885 1.87046 0
M  V30 2937 O 272.978 -1.1427 1.40756 0
M  V30 2938 C 273.026 1.97644 3.01611 0
M  V30 2939 O 272.13 1.30935 3.91062 0
M  V30 2940 H 271.471 0.426279 0.509099 0
M  V30 2941 H 274.001 1.72944 1.09323 0
M  V30 2942 H 274.011 2.06992 3.51594 0
M  V30 2943 H 272.686 3.01829 2.86133 0
M  V30 2944 H 271.263 1.29996 3.49507 0
M  V30 2945 N 273.449 -1.08991 1.13837 0
M  V30 2946 C 274.697 -1.80899 0.901098 0
M  V30 2947 C 275.018 -1.86356 -0.574134 0
M  V30 2948 O 274.288 -1.35235 -1.41733 0
M  V30 2949 H 272.868 -0.669966 0.330386 0
M  V30 2950 H 275.53 -1.318 1.43578 0
M  V30 2951 H 274.626 -2.83929 1.29578 0
M  V30 2952 N 274.927 -0.932562 -1.27047 0
M  V30 2953 C 275.857 -0.452902 -2.29066 0
M  V30 2954 C 276.838 0.489338 -1.62909 0
M  V30 2955 O 278.023 0.393046 -1.90181 0
M  V30 2956 C 275.153 0.290698 -3.46081 0
M  V30 2957 C 274.107 -0.564168 -4.24265 0
M  V30 2958 C 273.433 0.308886 -5.33807 0
M  V30 2959 C 274.733 -1.83112 -4.89149 0
M  V30 2960 H 276.427 -1.30552 -2.69437 0
M  V30 2961 H 273.973 -0.629201 -1.29526 0
M  V30 2962 H 275.926 0.637233 -4.16554 0
M  V30 2963 H 274.65 1.17738 -3.0464 0
M  V30 2964 H 273.309 -0.893477 -3.55545 0
M  V30 2965 H 272.957 1.19467 -4.88607 0
M  V30 2966 H 272.657 -0.259633 -5.87026 0
M  V30 2967 H 274.181 0.650884 -6.07121 0
M  V30 2968 H 275.595 -1.55236 -5.51883 0
M  V30 2969 H 273.992 -2.34353 -5.52448 0
M  V30 2970 H 275.062 -2.54772 -4.12576 0
M  V30 2971 N 276.405 1.4127 -0.698611 0
M  V30 2972 C 277.821 1.55241 -0.370462 0
M  V30 2973 C 278.021 1.67351 1.12231 0
M  V30 2974 O 277.077 1.65363 1.90818 0
M  V30 2975 C 278.39 2.78997 -1.12165 0
M  V30 2976 C 279.938 2.92797 -1.1063 0
M  V30 2977 C 280.413 4.19445 -1.8393 0
M  V30 2978 N 281.904 4.26409 -1.80914 0
M  V30 2979 C 282.639 5.23271 -2.34467 0
M  V30 2980 N 282.135 6.26145 -2.96504 0
M  V30 2981 N 283.928 5.15232 -2.24706 0
M  V30 2982 H 276.079 1.31654 -1.66676 0
M  V30 2983 H 278.342 0.635393 -0.703548 0
M  V30 2984 H 278.048 2.76268 -2.17644 0
M  V30 2985 H 277.922 3.70606 -0.702209 0
M  V30 2986 H 280.309 2.95039 -0.0597713 0
M  V30 2987 H 280.39 2.02353 -1.56483 0
M  V30 2988 H 280.034 4.17964 -2.88563 0
M  V30 2989 H 279.964 5.08866 -1.35509 0
M  V30 2990 H 282.455 3.527 -1.35687 0
M  V30 2991 H 282.768 6.96451 -3.34927 0
M  V30 2992 H 281.113 6.26638 -3.00583 0
M  V30 2993 H 284.304 4.33789 -1.7591 0
M  V30 2994 H 284.477 5.90552 -2.66745 0
M  V30 2995 N 277.883 0.443576 1.51229 0
M  V30 2996 C 279.16 -0.181038 1.9476 0
M  V30 2997 C 279.54 -1.59523 1.38259 0
M  V30 2998 O 278.888 -2.2122 0.572198 0
M  V30 2999 C 279.098 -0.152422 3.48667 0
M  V30 3000 C 280.446 -0.354923 4.23114 0
M  V30 3001 O 281.47 -0.230257 3.55455 0
M  V30 3002 O 280.329 -0.603674 5.43156 0
M  V30 3003 H 277.423 -0.1266 0.817252 0
M  V30 3004 H 279.969 0.502004 1.62105 0
M  V30 3005 H 278.741 0.836022 3.82265 0
M  V30 3006 H 278.364 -0.878107 3.87782 0
M  V30 3007 N 279.361 -1.56624 0.175154 0
M  V30 3008 C 280.586 -2.01813 -0.478137 0
M  V30 3009 C 281.011 -1.05457 -1.55757 0
M  V30 3010 O 280.369 -0.0347439 -1.81267 0
M  V30 3011 C 280.417 -3.45581 -1.02987 0
M  V30 3012 O 279.521 -3.52305 -2.14371 0
M  V30 3013 H 278.862 -0.65413 -0.114059 0
M  V30 3014 H 281.392 -2.02673 0.280173 0
M  V30 3015 H 281.402 -3.84965 -1.35151 0
M  V30 3016 H 280.077 -4.1521 -0.239556 0
M  V30 3017 H 278.654 -3.24783 -1.83222 0
M  V30 3018 N 280.839 0.0985539 -1.57292 0
M  V30 3019 C 282.069 0.815135 -1.8984 0
M  V30 3020 C 282.477 1.7297 -0.766679 0
M  V30 3021 O 281.82 1.81698 0.270483 0
M  V30 3022 C 281.882 1.6842 -3.17608 0
M  V30 3023 C 281.546 0.94182 -4.4719 0
M  V30 3024 C 282.543 0.273212 -5.19182 0
M  V30 3025 C 280.228 0.916927 -4.9386 0
M  V30 3026 C 282.222 -0.410361 -6.36078 0
M  V30 3027 C 279.909 0.229567 -6.10669 0
M  V30 3028 C 280.907 -0.432902 -6.81627 0
M  V30 3029 O 280.595 -1.10925 -7.9621 0
M  V30 3030 H 280.327 0.238501 -0.632529 0
M  V30 3031 H 282.881 0.0812659 -2.05239 0
M  V30 3032 H 281.111 2.46022 -2.98345 0
M  V30 3033 H 282.8 2.27704 -3.36015 0
M  V30 3034 H 283.566 0.283927 -4.84168 0
M  V30 3035 H 279.445 1.42201 -4.3852 0
M  V30 3036 H 282.989 -0.928013 -6.914 0
M  V30 3037 H 278.886 0.216686 -6.45136 0
M  V30 3038 H 279.654 -1.01579 -8.12172 0
M  V30 3039 N 282.317 1.53212 0.369288 0
M  V30 3040 C 283.265 1.80054 1.47253 0
M  V30 3041 C 284.259 0.669456 1.55611 0
M  V30 3042 O 285.465 0.852328 1.58541 0
M  V30 3043 H 281.84 0.570034 0.490475 0
M  V30 3044 H 283.811 2.72403 1.21817 0
M  V30 3045 C 282.56 2.00403 2.84137 0
M  V30 3046 H 281.883 2.86876 2.78464 0
M  V30 3047 H 283.323 2.23164 3.60519 0
M  V30 3048 C 281.782 0.782081 3.27697 0
M  V30 3049 O 282.312 -0.0310205 4.01688 0
M  V30 3050 N 280.518 0.606573 2.84199 0
M  V30 3051 H 280.065 1.26939 2.24152 0
M  V30 3052 H 280.023 -0.20962 3.137 0
M  V30 3053 N 283.795 -0.628877 1.44509 0
M  V30 3054 C 285.042 -1.38839 1.47411 0
M  V30 3055 C 285.37 -1.94202 0.10757 0
M  V30 3056 O 284.625 -1.74243 -0.890947 0
M  V30 3057 C 284.924 -2.56995 2.48371 0
M  V30 3058 C 284.59 -2.19908 3.93639 0
M  V30 3059 C 283.252 -2.09506 4.33198 0
M  V30 3060 C 285.604 -1.9064 4.85083 0
M  V30 3061 C 282.932 -1.68028 5.62124 0
M  V30 3062 C 285.284 -1.50655 6.14399 0
M  V30 3063 C 283.948 -1.38796 6.5291 0
M  V30 3064 H 283.218 -0.508048 0.539414 0
M  V30 3065 H 285.865 -0.712913 1.77735 0
M  V30 3066 H 284.17 -3.29786 2.11538 0
M  V30 3067 H 285.867 -3.15223 2.47861 0
M  V30 3068 H 282.457 -2.28922 3.62343 0
M  V30 3069 H 286.641 -1.97585 4.55273 0
M  V30 3070 H 281.897 -1.57452 5.90778 0
M  V30 3071 H 286.071 -1.27048 6.84713 0
M  V30 3072 H 283.698 -1.06429 7.52713 0
M  V30 3073 N 285.273 -1.31445 -0.869486 0
M  V30 3074 C 286.205 -1.14955 -1.98287 0
M  V30 3075 C 287.218 -0.0885037 -1.62559 0
M  V30 3076 O 288.407 -0.336044 -1.75308 0
M  V30 3077 C 285.507 -0.734255 -3.3085 0
M  V30 3078 C 284.68 -1.88042 -3.94917 0
M  V30 3079 C 283.739 -1.4511 -5.05796 0
M  V30 3080 O 282.765 -2.16082 -5.2659 0
M  V30 3081 N 283.967 -0.338763 -5.79511 0
M  V30 3082 H 286.732 -2.10856 -2.12979 0
M  V30 3083 H 284.293 -1.23786 -1.04349 0
M  V30 3084 H 286.285 -0.42975 -4.02412 0
M  V30 3085 H 284.855 0.133158 -3.12316 0
M  V30 3086 H 284.075 -2.35222 -3.1633 0
M  V30 3087 H 285.363 -2.6481 -4.34457 0
M  V30 3088 H 284.761 0.252274 -5.65137 0
M  V30 3089 H 283.318 -0.0937925 -6.51733 0
M  V30 3090 N 286.751 1.08385 -1.14413 0
M  V30 3091 C 287.699 2.17406 -0.826888 0
M  V30 3092 C 288.693 1.6827 0.195312 0
M  V30 3093 O 289.899 1.79927 0.0513892 0
M  V30 3094 H 286.274 0.70934 -0.249681 0
M  V30 3095 H 288.245 2.41388 -1.75426 0
M  V30 3096 C 286.994 3.46215 -0.320979 0
M  V30 3097 H 286.317 3.84401 -1.0989 0
M  V30 3098 H 287.757 4.23777 -0.137549 0
M  V30 3099 C 286.216 3.23067 0.955472 0
M  V30 3100 O 286.746 3.4668 2.02918 0
M  V30 3101 N 284.952 2.7661 0.890798 0
M  V30 3102 H 284.499 2.57594 0.0168815 0
M  V30 3103 H 284.457 2.61501 1.74542 0
M  V30 3104 N 288.23 0.939286 1.26551 0
M  V30 3105 C 289.478 0.58469 1.93457 0
M  V30 3106 C 289.799 -0.878774 1.74076 0
M  V30 3107 O 289.069 -1.62421 1.09528 0
M  V30 3108 H 287.649 0.21325 0.715914 0
M  V30 3109 H 290.311 1.1942 1.54029 0
M  V30 3110 H 289.407 0.800849 3.0165 0
M  V30 3111 N 289.708 -1.40897 0.706093 0
M  V30 3112 C 290.985 -1.94868 0.169099 0
M  V30 3113 C 291.365 -1.64485 -1.32318 0
M  V30 3114 O 290.713 -0.95744 -2.07474 0
M  V30 3115 C 290.923 -3.45798 0.471654 0
M  V30 3116 C 292.271 -4.22663 0.405127 0
M  V30 3117 O 293.295 -3.53865 0.407168 0
M  V30 3118 O 292.154 -5.45216 0.374383 0
M  V30 3119 H 289.248 -0.82673 0.0211352 0
M  V30 3120 H 291.794 -1.50558 0.782976 0
M  V30 3121 H 290.566 -3.61235 1.50416 0
M  V30 3122 H 290.189 -3.97225 -0.172666 0
M  V30 3123 N 291.186 -0.45159 -1.50991 0
M  V30 3124 C 292.134 0.366864 -2.29689 0
M  V30 3125 C 293.128 1.00809 -1.36139 0
M  V30 3126 O 294.334 0.941427 -1.53418 0
M  V30 3127 H 290.709 0.137133 -0.739391 0
M  V30 3128 H 292.68 -0.317538 -2.96706 0
M  V30 3129 C 291.429 1.44751 -3.16137 0
M  V30 3130 H 290.752 0.963473 -3.88017 0
M  V30 3131 H 292.192 1.99315 -3.74232 0
M  V30 3132 C 290.651 2.43869 -2.32442 0
M  V30 3133 O 291.181 3.4872 -1.99392 0
M  V30 3134 N 289.387 2.15105 -1.95392 0
M  V30 3135 H 288.934 1.29866 -2.22469 0
M  V30 3136 H 288.892 2.81661 -1.39693 0
M  V30 3137 N 292.664 1.56529 -0.183458 0
M  V30 3138 C 293.892 2.01623 0.464285 0
M  V30 3139 C 294.307 1.06366 1.55986 0
M  V30 3140 O 293.664 0.0665398 1.82379 0
M  V30 3141 C 293.715 3.46475 1.03139 0
M  V30 3142 O 293.436 4.38095 -0.0204675 0
M  V30 3143 C 294.937 4.0703 1.75617 0
M  V30 3144 H 292.157 0.660596 0.117704 0
M  V30 3145 H 294.701 2.02451 -0.288751 0
M  V30 3146 H 292.856 3.46383 1.73486 0
M  V30 3147 H 293.27 5.22973 0.399952 0
M  V30 3148 H 294.744 5.10271 2.10542 0
M  V30 3149 H 295.221 3.49819 2.65563 0
M  V30 3150 H 295.827 4.1086 1.09882 0
M  V30 3151 N 294.142 -0.090211 1.57342 0
M  V30 3152 C 295.074 -1.13541 1.99101 0
M  V30 3153 C 296.087 -1.3604 0.894258 0
M  V30 3154 O 297.276 -1.34606 1.17233 0
M  V30 3155 C 294.376 -2.49001 2.29895 0
M  V30 3156 C 293.549 -2.46712 3.61182 0
M  V30 3157 C 292.608 -3.64136 3.79857 0
M  V30 3158 O 291.634 -3.46405 4.51655 0
M  V30 3159 N 292.836 -4.83802 3.20806 0
M  V30 3160 H 295.601 -0.779942 2.89373 0
M  V30 3161 H 293.162 -0.279125 1.59476 0
M  V30 3162 H 295.154 -3.26166 2.39578 0
M  V30 3163 H 293.724 -2.76619 1.45605 0
M  V30 3164 H 292.944 -1.55058 3.62423 0
M  V30 3165 H 294.232 -2.42265 4.4742 0
M  V30 3166 H 293.63 -5.01112 2.62494 0
M  V30 3167 H 292.187 -5.58543 3.35966 0
M  V30 3168 N 295.62 -1.53406 -0.361157 0
M  V30 3169 C 296.866 -1.70054 -1.10496 0
M  V30 3170 C 297.199 -0.453278 -1.88836 0
M  V30 3171 O 296.474 0.5495 -1.86576 0
M  V30 3172 C 296.757 -2.95317 -2.06058 0
M  V30 3173 C 296.61 -4.3021 -1.31298 0
M  V30 3174 C 297.929 -3.16193 -3.06121 0
M  V30 3175 H 295.048 -0.618799 -0.400321 0
M  V30 3176 H 297.69 -1.86052 -0.385318 0
M  V30 3177 H 295.84 -2.81809 -2.67425 0
M  V30 3178 H 297.512 -4.55538 -0.726807 0
M  V30 3179 H 295.755 -4.29421 -0.614853 0
M  V30 3180 H 296.426 -5.14 -2.01265 0
M  V30 3181 H 298.902 -3.28916 -2.5486 0
M  V30 3182 H 297.778 -4.05266 -3.70204 0
M  V30 3183 H 298.039 -2.31676 -3.76535 0
M  V30 3184 N 297.098 0.621204 -1.44841 0
M  V30 3185 C 298.326 1.40752 -1.51646 0
M  V30 3186 C 298.741 1.88246 -0.144549 0
M  V30 3187 O 298.098 1.61422 0.851416 0
M  V30 3188 C 298.149 2.62119 -2.4895 0
M  V30 3189 O 297.87 2.16602 -3.80808 0
M  V30 3190 C 299.371 3.55135 -2.65319 0
M  V30 3191 H 296.591 0.431325 -0.514004 0
M  V30 3192 H 299.135 0.758835 -1.899 0
M  V30 3193 H 297.29 3.23058 -2.13805 0
M  V30 3194 H 297.704 2.95358 -4.33433 0
M  V30 3195 H 299.178 4.36874 -3.37409 0
M  V30 3196 H 299.655 4.04592 -1.70886 0
M  V30 3197 H 300.261 3.00058 -3.01405 0
M  V30 3198 N 298.576 1.31904 0.862503 0
M  V30 3199 C 299.506 1.22782 1.98612 0
M  V30 3200 C 300.487 0.113362 1.69722 0
M  V30 3201 O 301.672 0.299218 1.91881 0
M  V30 3202 C 298.802 0.942058 3.34279 0
M  V30 3203 C 297.756 2.0169 3.77499 0
M  V30 3204 C 297.082 1.58369 5.10709 0
M  V30 3205 C 298.382 3.43096 3.93805 0
M  V30 3206 H 300.076 2.16788 2.06502 0
M  V30 3207 H 297.622 1.04366 0.992154 0
M  V30 3208 H 299.575 0.864818 4.1243 0
M  V30 3209 H 298.299 -0.0336603 3.26583 0
M  V30 3210 H 296.958 2.08416 3.01593 0
M  V30 3211 H 296.606 0.595628 4.99461 0
M  V30 3212 H 296.306 2.30279 5.40597 0
M  V30 3213 H 297.83 1.52067 5.91361 0
M  V30 3214 H 299.244 3.39003 4.62331 0
M  V30 3215 H 297.641 4.13288 4.35101 0
M  V30 3216 H 298.711 3.83334 2.96957 0
M  V30 3217 N 300.054 -1.07777 1.14986 0
M  V30 3218 C 301.002 -2.16964 0.838406 0
M  V30 3219 C 301.996 -1.68372 -0.186386 0
M  V30 3220 O 303.202 -1.79951 -0.0418465 0
M  V30 3221 H 299.577 -0.708006 0.253439 0
M  V30 3222 H 301.548 -2.40454 1.76704 0
M  V30 3223 C 300.297 -3.4604 0.339335 0
M  V30 3224 H 299.62 -3.83813 1.11927 0
M  V30 3225 H 301.06 -4.23698 0.160021 0
M  V30 3226 C 299.519 -3.23569 -0.938325 0
M  V30 3227 O 300.049 -3.47752 -2.01077 0
M  V30 3228 N 298.255 -2.77079 -0.876117 0
M  V30 3229 H 297.802 -2.576 -0.00322037 0
M  V30 3230 H 297.76 -2.62422 -1.73153 0
M  V30 3231 N 301.532 -0.945985 -1.26051 0
M  V30 3232 C 302.778 -0.597002 -1.93814 0
M  V30 3233 C 303.111 0.862484 -1.73997 0
M  V30 3234 O 302.386 1.61769 -1.07986 0
M  V30 3235 C 302.669 -0.945937 -3.47454 0
M  V30 3236 C 302.522 -2.46052 -3.76535 0
M  V30 3237 C 303.841 -0.464785 -4.37639 0
M  V30 3238 H 300.96 -0.218366 -0.703907 0
M  V30 3239 H 303.602 -1.18107 -1.48831 0
M  V30 3240 H 301.752 -0.448902 -3.85898 0
M  V30 3241 H 303.424 -3.03065 -3.47778 0
M  V30 3242 H 301.667 -2.90194 -3.22444 0
M  V30 3243 H 302.338 -2.65517 -4.83947 0
M  V30 3244 H 304.814 -0.891016 -4.06448 0
M  V30 3245 H 303.69 -0.737712 -5.4392 0
M  V30 3246 H 303.951 0.635274 -4.37512 0
M  V30 3247 N 303.011 1.40521 -0.713556 0
M  V30 3248 C 303.941 2.33381 -0.0743864 0
M  V30 3249 C 304.922 1.52784 0.747735 0
M  V30 3250 O 306.107 1.81258 0.697071 0
M  V30 3251 C 303.237 3.36748 0.849598 0
M  V30 3252 C 302.191 4.27793 0.133247 0
M  V30 3253 C 301.517 5.21679 1.17281 0
M  V30 3254 C 302.817 5.12415 -1.01134 0
M  V30 3255 H 304.511 2.87081 -0.850007 0
M  V30 3256 H 302.057 1.38034 -0.410201 0
M  V30 3257 H 304.01 4.00648 1.30612 0
M  V30 3258 H 302.734 2.81439 1.65709 0
M  V30 3259 H 301.393 3.65342 -0.303426 0
M  V30 3260 H 301.041 4.62677 1.9733 0
M  V30 3261 H 300.741 5.83435 0.698397 0
M  V30 3262 H 302.265 5.88456 1.62947 0
M  V30 3263 H 303.679 5.69781 -0.634274 0
M  V30 3264 H 302.076 5.83203 -1.41399 0
M  V30 3265 H 303.146 4.48514 -1.84292 0
M  V30 3266 N 304.489 0.459591 1.5075 0
M  V30 3267 C 305.437 -0.354678 2.2988 0
M  V30 3268 C 306.431 -1.00086 1.36672 0
M  V30 3269 O 307.637 -0.933277 1.53915 0
M  V30 3270 H 304.012 -0.13321 0.740107 0
M  V30 3271 H 305.983 0.333269 2.96533 0
M  V30 3272 C 304.732 -1.43073 3.169 0
M  V30 3273 H 304.055 -0.942882 3.88523 0
M  V30 3274 H 305.495 -1.97328 3.75284 0
M  V30 3275 C 303.954 -2.42633 2.33732 0
M  V30 3276 O 304.484 -3.47658 2.01238 0
M  V30 3277 N 302.69 -2.14066 1.9653 0
M  V30 3278 H 302.237 -1.28685 2.23155 0
M  V30 3279 H 302.195 -2.80917 1.41185 0
M  V30 3280 N 305.967 -1.56429 0.191757 0
M  V30 3281 C 307.195 -2.01867 -0.453586 0
M  V30 3282 C 307.61 -1.07191 -1.5542 0
M  V30 3283 O 306.967 -0.0762108 -1.82341 0
M  V30 3284 C 307.018 -3.47017 -1.013 0
M  V30 3285 O 306.739 -4.38078 0.0437005 0
M  V30 3286 C 308.24 -4.07956 -1.73456 0
M  V30 3287 H 305.46 -0.661211 -0.114199 0
M  V30 3288 H 308.004 -2.02295 0.299483 0
M  V30 3289 H 306.159 -3.47298 -1.71647 0
M  V30 3290 H 306.573 -5.23178 -0.372212 0
M  V30 3291 H 308.047 -5.1138 -2.07833 0
M  V30 3292 H 308.524 -3.51222 -2.63704 0
M  V30 3293 H 309.13 -4.11437 -1.07702 0
M  V30 3294 N 307.445 0.0818655 -1.57387 0
M  V30 3295 C 308.694 0.781681 -1.85937 0
M  V30 3296 C 309.007 1.79246 -0.782957 0
M  V30 3297 O 310.213 2.54112 -0.955987 0
M  V30 3298 C 308.669 1.44109 -3.29789 0
M  V30 3299 C 308.277 0.469396 -4.45534 0
M  V30 3300 C 310.021 2.12386 -3.67549 0
M  V30 3301 C 307.928 1.13415 -5.80423 0
M  V30 3302 H 306.858 0.295682 -0.693605 0
M  V30 3303 H 309.509 0.0348051 -1.83467 0
M  V30 3304 H 307.891 2.23588 -3.2684 0
M  V30 3305 H 309.065 -0.294856 -4.59856 0
M  V30 3306 H 307.38 -0.108383 -4.16259 0
M  V30 3307 H 309.977 2.62878 -4.65617 0
M  V30 3308 H 310.32 2.91877 -2.96839 0
M  V30 3309 H 310.853 1.39751 -3.72444 0
M  V30 3310 H 307.592 0.379771 -6.54399 0
M  V30 3311 H 307.112 1.8695 -5.69921 0
M  V30 3312 H 308.791 1.65686 -6.25426 0
M  V30 3313 N 308.923 1.53595 0.353017 0
M  V30 3314 C 310.17 1.70385 1.09431 0
M  V30 3315 C 310.498 0.462113 1.88931 0
M  V30 3316 O 309.753 -0.556074 1.87633 0
M  V30 3317 C 310.052 2.91313 2.07054 0
M  V30 3318 C 309.718 4.27308 1.43939 0
M  V30 3319 C 308.38 4.64287 1.26454 0
M  V30 3320 C 310.732 5.11829 0.983883 0
M  V30 3321 C 308.06 5.83412 0.620226 0
M  V30 3322 C 310.412 6.31611 0.353516 0
M  V30 3323 C 309.076 6.67293 0.166272 0
M  V30 3324 H 308.346 0.623484 0.400436 0
M  V30 3325 H 310.993 1.87799 0.374655 0
M  V30 3326 H 309.298 2.68463 2.85368 0
M  V30 3327 H 310.995 3.01497 2.64387 0
M  V30 3328 H 307.585 3.98198 1.58543 0
M  V30 3329 H 311.769 4.838 1.10685 0
M  V30 3330 H 307.025 6.09639 0.463681 0
M  V30 3331 H 311.199 6.964 -0.00757555 0
M  V30 3332 H 308.826 7.59461 -0.335047 0
M  V30 3333 N 310.401 -0.613514 1.45168 0
M  V30 3334 C 311.348 -1.72456 1.53387 0
M  V30 3335 C 312.318 -1.6169 0.380191 0
M  V30 3336 O 313.503 -1.81356 0.592836 0
M  V30 3337 C 310.643 -3.10753 1.50088 0
M  V30 3338 C 309.756 -3.32368 2.75963 0
M  V30 3339 C 308.891 -4.60737 2.64376 0
M  V30 3340 C 307.93 -4.7559 3.85332 0
M  V30 3341 N 307.067 -5.95253 3.72315 0
M  V30 3342 H 311.907 -1.64768 2.48305 0
M  V30 3343 H 309.444 -0.803503 1.23216 0
M  V30 3344 H 311.402 -3.90758 1.46164 0
M  V30 3345 H 310.032 -3.17413 0.587243 0
M  V30 3346 H 309.084 -2.4618 2.89999 0
M  V30 3347 H 310.396 -3.39218 3.65695 0
M  V30 3348 H 309.55 -5.48928 2.58385 0
M  V30 3349 H 308.289 -4.56275 1.72233 0
M  V30 3350 H 307.294 -3.85824 3.91688 0
M  V30 3351 H 308.519 -4.81854 4.78533 0
M  V30 3352 H 306.465 -5.91847 2.82937 0
M  V30 3353 H 306.382 -6.03236 4.55677 0
M  V30 3354 H 307.65 -6.85958 3.70246 0
M  V30 3355 N 311.879 -1.3236 -0.855495 0
M  V30 3356 C 312.826 -1.21225 -1.964 0
M  V30 3357 C 313.796 -0.0946204 -1.6583 0
M  V30 3358 O 314.981 -0.27002 -1.8888 0
M  V30 3359 C 312.121 -0.940419 -3.32039 0
M  V30 3360 C 311.234 -2.14276 -3.75113 0
M  V30 3361 C 310.369 -1.80648 -4.9954 0
M  V30 3362 C 309.408 -2.97208 -5.35102 0
M  V30 3363 N 308.545 -2.63678 -6.50706 0
M  V30 3364 H 313.385 -2.16042 -2.05255 0
M  V30 3365 H 310.922 -1.07451 -1.00463 0
M  V30 3366 H 312.88 -0.763311 -4.10158 0
M  V30 3367 H 311.51 -0.0290413 -3.22787 0
M  V30 3368 H 310.562 -2.43017 -2.92655 0
M  V30 3369 H 311.874 -3.01468 -3.97389 0
M  V30 3370 H 311.028 -1.59484 -5.85363 0
M  V30 3371 H 309.767 -0.906678 -4.79198 0
M  V30 3372 H 308.772 -3.19004 -4.47791 0
M  V30 3373 H 309.997 -3.87918 -5.57401 0
M  V30 3374 H 307.943 -1.76238 -6.31883 0
M  V30 3375 H 307.86 -3.444 -6.72997 0
M  V30 3376 H 309.128 -2.45942 -7.39684 0
M  V30 3377 N 313.357 1.07166 -1.15556 0
M  V30 3378 C 314.587 1.83248 -0.954133 0
M  V30 3379 C 314.995 1.82449 0.500911 0
M  V30 3380 O 314.338 1.23575 1.35923 0
M  V30 3381 C 314.4 3.31393 -1.39351 0
M  V30 3382 C 314.064 3.5591 -2.86666 0
M  V30 3383 C 315.061 3.49695 -3.8472 0
M  V30 3384 C 312.746 3.83515 -3.24379 0
M  V30 3385 C 314.74 3.70737 -5.18491 0
M  V30 3386 C 312.427 4.04209 -4.58321 0
M  V30 3387 C 313.425 3.97815 -5.55186 0
M  V30 3388 O 313.113 4.17954 -6.86709 0
M  V30 3389 H 312.845 0.584941 -0.338851 0
M  V30 3390 H 315.399 1.36169 -1.53777 0
M  V30 3391 H 313.629 3.79292 -0.75329 0
M  V30 3392 H 315.318 3.88945 -1.16089 0
M  V30 3393 H 316.084 3.28368 -3.56931 0
M  V30 3394 H 311.963 3.87605 -2.49567 0
M  V30 3395 H 315.507 3.65663 -5.94085 0
M  V30 3396 H 311.404 4.25023 -4.85825 0
M  V30 3397 H 312.172 4.35291 -6.93155 0
M  V30 3398 N 314.835 0.952656 1.25548 0
M  V30 3399 C 316.083 0.605176 1.92826 0
M  V30 3400 C 316.404 -0.860261 1.74999 0
M  V30 3401 O 315.674 -1.6125 1.11244 0
M  V30 3402 H 314.254 0.220832 0.713612 0
M  V30 3403 H 316.916 1.21047 1.52754 0
M  V30 3404 H 316.012 0.832798 3.00784 0
M  V30 3405 N 316.313 -1.40141 0.720998 0
M  V30 3406 C 317.561 -2.0039 0.262323 0
M  V30 3407 C 317.882 -1.57469 -1.15015 0
M  V30 3408 O 317.152 -0.816582 -1.78069 0
M  V30 3409 H 315.732 -0.741063 0.093996 0
M  V30 3410 H 318.394 -1.71398 0.927835 0
M  V30 3411 H 317.49 -3.10658 0.299671 0
M  V30 3412 N 317.792 -0.46758 -1.50504 0
M  V30 3413 C 318.74 0.342482 -2.30065 0
M  V30 3414 C 319.734 0.993596 -1.37201 0
M  V30 3415 O 320.94 0.925102 -1.54408 0
M  V30 3416 H 317.315 0.129283 -0.740803 0
M  V30 3417 H 319.286 -0.34899 -2.96352 0
M  V30 3418 C 318.035 1.4139 -3.17654 0
M  V30 3419 H 317.358 0.922264 -3.89017 0
M  V30 3420 H 318.798 1.95335 -3.76325 0
M  V30 3421 C 317.257 2.4139 -2.35016 0
M  V30 3422 O 317.787 3.46586 -2.03079 0
M  V30 3423 N 315.993 2.13021 -1.97662 0
M  V30 3424 H 315.54 1.27499 -2.23834 0
M  V30 3425 H 315.498 2.80164 -1.42673 0
M  V30 3426 N 319.27 1.56325 -0.20005 0
M  V30 3427 C 320.18 2.22931 0.730668 0
M  V30 3428 C 321.196 1.22997 1.23076 0
M  V30 3429 O 322.372 1.55748 1.27689 0
M  V30 3430 C 319.437 2.87948 1.93098 0
M  V30 3431 C 318.498 4.03166 1.47497 0
M  V30 3432 C 317.731 4.65073 2.61807 0
M  V30 3433 O 317.954 4.25913 3.79413 0
M  V30 3434 O 316.888 5.54452 2.34237 0
M  V30 3435 H 320.714 3.03084 0.193391 0
M  V30 3436 H 318.299 1.49371 0.0294621 0
M  V30 3437 H 320.181 3.29063 2.6324 0
M  V30 3438 H 318.856 2.10771 2.45677 0
M  V30 3439 H 317.763 3.66664 0.742201 0
M  V30 3440 H 319.096 4.82022 0.995796 0
M  V30 3441 N 320.748 -0.0735177 1.57428 0
M  V30 3442 C 321.978 -0.78483 1.91112 0
M  V30 3443 C 322.386 -1.71729 0.7941 0
M  V30 3444 O 321.729 -1.82105 -0.241542 0
M  V30 3445 C 321.791 -1.63346 3.20247 0
M  V30 3446 C 321.455 -0.870557 4.48632 0
M  V30 3447 C 322.452 -0.19058 5.19551 0
M  V30 3448 C 320.137 -0.838242 4.95256 0
M  V30 3449 C 322.131 0.511503 6.35344 0
M  V30 3450 C 319.818 -0.132386 6.10957 0
M  V30 3451 C 320.816 0.541288 6.80852 0
M  V30 3452 O 320.504 1.23578 7.94345 0
M  V30 3453 H 320.236 -0.228408 0.636244 0
M  V30 3454 H 322.79 -0.0486039 2.05342 0
M  V30 3455 H 321.02 -2.41245 3.02222 0
M  V30 3456 H 322.709 -2.22329 3.39595 0
M  V30 3457 H 323.475 -0.206864 4.84559 0
M  V30 3458 H 319.354 -1.35206 4.40727 0
M  V30 3459 H 322.898 1.03789 6.89836 0
M  V30 3460 H 318.795 -0.114023 6.45399 0
M  V30 3461 H 319.563 1.14487 8.10454 0
M  V30 3462 N 322.226 -1.5378 -0.344866 0
M  V30 3463 C 323.451 -1.75211 -1.10977 0
M  V30 3464 C 323.876 -0.48936 -1.81623 0
M  V30 3465 O 323.234 0.557925 -1.72502 0
M  V30 3466 C 323.282 -2.93147 -2.09993 0
M  V30 3467 O 322.386 -2.63203 -3.17487 0
M  V30 3468 H 321.727 -0.581241 -0.321021 0
M  V30 3469 H 324.257 -2.00738 -0.395661 0
M  V30 3470 H 324.267 -3.19898 -2.53237 0
M  V30 3471 H 322.942 -3.84731 -1.5797 0
M  V30 3472 H 321.519 -2.47336 -2.79069 0
M  V30 3473 N 323.704 0.605807 -1.45491 0
M  V30 3474 C 324.981 1.36522 -1.40075 0
M  V30 3475 C 325.361 2.10976 -0.0722744 0
M  V30 3476 O 324.709 2.08007 0.945808 0
M  V30 3477 C 324.919 2.31056 -2.61561 0
M  V30 3478 C 326.267 2.93608 -3.06724 0
M  V30 3479 O 327.291 2.41376 -2.61946 0
M  V30 3480 O 326.15 3.88421 -3.84437 0
M  V30 3481 H 323.244 0.612248 -0.555951 0
M  V30 3482 H 325.79 0.628747 -1.57623 0
M  V30 3483 H 324.562 1.75311 -3.49831 0
M  V30 3484 H 324.185 3.12081 -2.46356 0
M  V30 3485 N 325.182 1.32811 0.848464 0
M  V30 3486 C 326.428 1.23907 1.60546 0
M  V30 3487 C 326.761 -0.197161 1.93197 0
M  V30 3488 O 326.036 -1.13596 1.5788 0
M  V30 3489 C 326.319 2.10489 2.92175 0
M  V30 3490 C 326.172 3.62522 2.66266 0
M  V30 3491 C 327.491 1.97075 3.93509 0
M  V30 3492 H 324.61 0.451459 0.58254 0
M  V30 3493 H 327.252 1.62818 0.979296 0
M  V30 3494 H 325.402 1.77434 3.45614 0
M  V30 3495 H 327.074 4.05821 2.19334 0
M  V30 3496 H 325.317 3.84879 2.00126 0
M  V30 3497 H 325.988 4.18437 3.6002 0
M  V30 3498 H 328.464 2.26045 3.49346 0
M  V30 3499 H 327.34 2.59923 4.83457 0
M  V30 3500 H 327.601 0.940186 4.31987 0
M  V30 3501 N 326.66 -1.06551 1.16123 0
M  V30 3502 C 327.906 -1.79567 0.94252 0
M  V30 3503 C 328.239 -1.86869 -0.528547 0
M  V30 3504 O 327.514 -1.35838 -1.39206 0
M  V30 3505 C 327.797 -3.24195 1.56747 0
M  V30 3506 C 327.65 -3.24989 3.10969 0
M  V30 3507 C 328.969 -4.21678 1.25998 0
M  V30 3508 H 326.088 -0.651883 0.343828 0
M  V30 3509 H 328.73 -1.2463 1.43413 0
M  V30 3510 H 326.88 -3.71107 1.14942 0
M  V30 3511 H 328.552 -2.86258 3.61737 0
M  V30 3512 H 326.795 -2.63716 3.44436 0
M  V30 3513 H 327.466 -4.27005 3.49815 0
M  V30 3514 H 329.942 -3.83196 1.62174 0
M  V30 3515 H 328.818 -5.21146 1.7233 0
M  V30 3516 H 329.079 -4.4174 0.178367 0
M  V30 3517 N 328.138 -0.959301 -1.25041 0
M  V30 3518 C 329.387 -0.612254 -1.92183 0
M  V30 3519 C 329.7 0.855347 -1.75907 0
M  V30 3520 O 330.906 1.31256 -2.37664 0
M  V30 3521 C 329.362 -1.04435 -3.44414 0
M  V30 3522 C 328.97 -2.53482 -3.69393 0
M  V30 3523 C 330.714 -0.770055 -4.17457 0
M  V30 3524 C 328.621 -2.90468 -5.15153 0
M  V30 3525 H 327.551 -0.225279 -0.719559 0
M  V30 3526 H 330.202 -1.16438 -1.41825 0
M  V30 3527 H 328.584 -0.4206 -3.9376 0
M  V30 3528 H 329.758 -3.20916 -3.30681 0
M  V30 3529 H 328.073 -2.78432 -3.0962 0
M  V30 3530 H 330.67 -1.02249 -5.24832 0
M  V30 3531 H 331.013 0.293611 -4.15263 0
M  V30 3532 H 331.546 -1.35437 -3.74034 0
M  V30 3533 H 328.285 -3.95871 -5.22462 0
M  V30 3534 H 327.805 -2.27711 -5.54894 0
M  V30 3535 H 329.484 -2.79914 -5.83315 0
M  V30 3536 N 329.616 1.39756 -0.72842 0
M  V30 3537 C 330.864 2.00248 -0.272946 0
M  V30 3538 C 331.185 1.58077 1.14178 0
M  V30 3539 O 330.455 0.826014 1.77634 0
M  V30 3540 H 329.035 0.740554 -0.0979247 0
M  V30 3541 H 331.697 1.70903 -0.936912 0
M  V30 3542 H 330.793 3.10495 -0.316142 0
M  V30 3543 N 331.094 0.475555 1.50254 0
M  V30 3544 C 332.343 -0.0795996 2.01543 0
M  V30 3545 C 332.656 -1.4038 1.36209 0
M  V30 3546 O 333.862 -2.04415 1.7868 0
M  V30 3547 C 332.318 -0.192363 3.59386 0
M  V30 3548 C 331.926 1.12367 4.33679 0
M  V30 3549 C 333.67 -0.699238 4.18701 0
M  V30 3550 C 331.577 0.974453 5.83317 0
M  V30 3551 H 330.507 -0.0335228 0.753254 0
M  V30 3552 H 333.158 0.611128 1.73025 0
M  V30 3553 H 331.54 -0.946974 3.84511 0
M  V30 3554 H 332.714 1.88958 4.20276 0
M  V30 3555 H 331.029 1.562 3.85993 0
M  V30 3556 H 333.626 -0.827978 5.28251 0
M  V30 3557 H 333.969 -1.69171 3.80377 0
M  V30 3558 H 334.502 -0.00188807 3.978 0
M  V30 3559 H 331.241 1.94042 6.26121 0
M  V30 3560 H 330.761 0.248998 5.99283 0
M  V30 3561 H 332.44 0.642867 6.43798 0
M  V30 3562 N 332.573 -1.56217 0.208337 0
M  V30 3563 C 333.483 -2.23316 -0.718836 0
M  V30 3564 C 334.499 -1.23648 -1.22422 0
M  V30 3565 O 335.675 -1.56423 -1.26861 0
M  V30 3566 C 332.74 -2.88968 -1.91568 0
M  V30 3567 C 331.801 -4.03943 -1.45357 0
M  V30 3568 C 331.034 -4.66455 -2.59337 0
M  V30 3569 O 331.257 -4.27919 -3.77149 0
M  V30 3570 O 330.191 -5.55686 -2.31293 0
M  V30 3571 H 334.017 -3.03182 -0.177315 0
M  V30 3572 H 331.602 -1.49384 -0.0215402 0
M  V30 3573 H 333.484 -3.30455 -2.61491 0
M  V30 3574 H 332.159 -2.12071 -2.44556 0
M  V30 3575 H 331.066 -3.67052 -0.722746 0
M  V30 3576 H 332.399 -4.82543 -0.970219 0
M  V30 3577 N 334.051 0.0651679 -1.57465 0
M  V30 3578 C 334.981 1.07693 -2.07182 0
M  V30 3579 C 335.962 1.39962 -0.966673 0
M  V30 3580 O 337.147 1.49475 -1.2398 0
M  V30 3581 C 334.277 2.3885 -2.52127 0
M  V30 3582 C 333.231 2.20917 -3.66579 0
M  V30 3583 C 332.557 3.57515 -3.97601 0
M  V30 3584 C 333.857 1.62493 -4.9638 0
M  V30 3585 H 335.551 0.663199 -2.91962 0
M  V30 3586 H 333.097 0.317569 -1.40455 0
M  V30 3587 H 335.05 3.09928 -2.85522 0
M  V30 3588 H 333.774 2.82215 -1.64384 0
M  V30 3589 H 332.433 1.52279 -3.33477 0
M  V30 3590 H 332.081 3.98463 -3.06979 0
M  V30 3591 H 331.781 3.46353 -4.74672 0
M  V30 3592 H 333.305 4.30013 -4.33499 0
M  V30 3593 H 334.719 2.23445 -5.27963 0
M  V30 3594 H 333.116 1.62009 -5.77818 0
M  V30 3595 H 334.186 0.587041 -4.81333 0
M  V30 3596 N 335.529 1.53961 0.336706 0
M  V30 3597 C 336.459 1.85417 1.41925 0
M  V30 3598 C 337.44 0.709856 1.5458 0
M  V30 3599 O 338.625 0.962396 1.68676 0
M  V30 3600 C 335.755 2.06985 2.78881 0
M  V30 3601 C 334.709 3.22813 2.81026 0
M  V30 3602 C 334.035 3.29727 4.20932 0
M  V30 3603 C 335.335 4.60767 2.45949 0
M  V30 3604 H 337.029 2.76079 1.15848 0
M  V30 3605 H 334.575 1.32839 0.555859 0
M  V30 3606 H 336.528 2.27575 3.54665 0
M  V30 3607 H 335.252 1.13061 3.06406 0
M  V30 3608 H 333.911 3.0209 2.07695 0
M  V30 3609 H 333.559 2.33385 4.45579 0
M  V30 3610 H 333.259 4.07566 4.23277 0
M  V30 3611 H 334.783 3.52536 4.98549 0
M  V30 3612 H 336.197 4.81325 3.11446 0
M  V30 3613 H 334.594 5.4106 2.59566 0
M  V30 3614 H 335.664 4.6391 1.41122 0
M  V30 3615 N 337.007 -0.598083 1.45811 0
M  V30 3616 C 337.955 -1.72932 1.55555 0
M  V30 3617 C 338.949 -1.63984 0.424921 0
M  V30 3618 O 340.155 -1.69663 0.601205 0
M  V30 3619 H 336.53 -0.571489 0.488779 0
M  V30 3620 H 338.501 -1.61842 2.50699 0
M  V30 3621 C 337.25 -3.11318 1.54843 0
M  V30 3622 H 336.573 -3.18867 2.41172 0
M  V30 3623 H 338.013 -3.90274 1.65717 0
M  V30 3624 C 336.472 -3.3578 0.274427 0
M  V30 3625 O 337.002 -3.9654 -0.641778 0
M  V30 3626 N 335.208 -2.90119 0.167139 0
M  V30 3627 H 334.755 -2.40855 0.913596 0
M  V30 3628 H 334.713 -3.0686 -0.684435 0
M  V30 3629 N 338.485 -1.33259 -0.841409 0
M  V30 3630 C 339.395 -1.25332 -1.98316 0
M  V30 3631 C 340.411 -0.164364 -1.73222 0
M  V30 3632 O 341.587 -0.387486 -1.97637 0
M  V30 3633 C 338.652 -0.990078 -3.32262 0
M  V30 3634 C 337.713 -2.16879 -3.70489 0
M  V30 3635 C 336.946 -1.91801 -4.98044 0
M  V30 3636 O 337.169 -0.867075 -5.63771 0
M  V30 3637 O 336.103 -2.78267 -5.33714 0
M  V30 3638 H 339.929 -2.21344 -2.07944 0
M  V30 3639 H 337.514 -1.1328 -0.974058 0
M  V30 3640 H 339.396 -0.860321 -4.12524 0
M  V30 3641 H 338.071 -0.0602155 -3.23644 0
M  V30 3642 H 336.978 -2.35407 -2.90748 0
M  V30 3643 H 338.311 -3.0819 -3.8377 0
M  V30 3644 N 339.963 1.05934 -1.16686 0
M  V30 3645 C 341.374 1.60263 -0.957745 0
M  V30 3646 C 341.725 1.89789 0.49745 0
M  V30 3647 O 340.85 1.67401 1.37135 0
M  V30 3648 C 341.445 2.91172 -1.73218 0
M  V30 3649 C 340.004 3.42188 -1.56794 0
M  V30 3650 C 339.151 2.16028 -1.73859 0
M  V30 3651 H 342.102 0.888392 -1.31504 0
M  V30 3652 H 342.123 3.60744 -1.21014 0
M  V30 3653 H 341.635 2.6965 -2.79124 0
M  V30 3654 H 339.736 3.68762 -0.533437 0
M  V30 3655 H 339.849 4.17273 -2.35414 0
M  V30 3656 H 338.213 2.26426 -1.16633 0
M  V30 3657 H 338.996 1.96985 -2.81161 0
M  V30 3658 N 341.441 0.965919 1.2453 0
M  V30 3659 C 342.371 0.513476 2.27784 0
M  V30 3660 C 343.352 -0.445974 1.6415 0
M  V30 3661 O 344.537 -0.342485 1.91156 0
M  V30 3662 C 341.667 -0.198839 3.4673 0
M  V30 3663 C 340.621 0.676456 4.2262 0
M  V30 3664 C 339.947 -0.167248 5.34438 0
M  V30 3665 C 341.247 1.96017 4.84123 0
M  V30 3666 H 342.941 1.3765 2.65881 0
M  V30 3667 H 340.487 0.663321 1.27813 0
M  V30 3668 H 342.44 -0.526567 4.18097 0
M  V30 3669 H 341.164 -1.0962 3.07654 0
M  V30 3670 H 339.823 0.98743 3.53052 0
M  V30 3671 H 339.471 -1.0647 4.91603 0
M  V30 3672 H 339.171 0.415181 5.86131 0
M  V30 3673 H 340.695 -0.489688 6.08633 0
M  V30 3674 H 342.109 1.69814 5.47573 0
M  V30 3675 H 340.506 2.48918 5.4604 0
M  V30 3676 H 341.576 2.65622 4.05676 0
M  V30 3677 N 342.919 -1.39368 0.735821 0
M  V30 3678 C 344.167 -2.00101 0.283562 0
M  V30 3679 C 344.488 -1.5868 -1.13338 0
M  V30 3680 O 343.758 -0.835423 -1.77193 0
M  V30 3681 H 342.338 -0.740024 0.101851 0
M  V30 3682 H 345 -1.70404 0.945962 0
M  V30 3683 H 344.096 -3.10323 0.332604 0
M  V30 3684 N 344.397 -0.483516 -1.5 0
M  V30 3685 C 345.808 -0.0314176 -1.86674 0
M  V30 3686 C 346.159 1.37728 -1.39733 0
M  V30 3687 O 345.284 2.02327 -0.767635 0
M  V30 3688 C 345.879 -0.0502376 -3.38763 0
M  V30 3689 C 344.438 0.346442 -3.74802 0
M  V30 3690 C 343.585 -0.430366 -2.7394 0
M  V30 3691 H 346.536 -0.697182 -1.42566 0
M  V30 3692 H 346.557 0.749116 -3.73053 0
M  V30 3693 H 346.069 -1.07563 -3.72897 0
M  V30 3694 H 344.17 1.37572 -3.46273 0
M  V30 3695 H 344.283 0.0391486 -4.79084 0
M  V30 3696 H 342.647 0.117557 -2.54429 0
M  V30 3697 H 343.43 -1.4555 -3.10918 0
M  V30 3698 N 345.875 1.56104 -0.216619 0
M  V30 3699 C 347.121 1.98466 0.417033 0
M  V30 3700 C 347.454 1.10403 1.59765 0
M  V30 3701 O 346.729 0.160632 1.93836 0
M  V30 3702 C 347.012 3.49769 0.85637 0
M  V30 3703 C 346.865 4.48606 -0.327546 0
M  V30 3704 C 348.184 4.05339 1.7143 0
M  V30 3705 H 345.303 0.721551 0.150112 0
M  V30 3706 H 347.945 1.87423 -0.311864 0
M  V30 3707 H 346.095 3.5931 1.47745 0
M  V30 3708 H 347.767 4.5108 -0.965618 0
M  V30 3709 H 346.01 4.22682 -0.975805 0
M  V30 3710 H 346.681 5.51995 0.0227149 0
M  V30 3711 H 349.157 3.98712 1.19031 0
M  V30 3712 H 348.033 5.11533 1.99061 0
M  V30 3713 H 348.294 3.51918 2.67593 0
M  V30 3714 N 347.353 -0.0568162 1.57498 0
M  V30 3715 C 348.283 -1.06593 2.0775 0
M  V30 3716 C 349.264 -1.39448 0.974082 0
M  V30 3717 O 350.449 -1.48815 1.24771 0
M  V30 3718 C 347.579 -2.37509 2.5339 0
M  V30 3719 C 346.533 -2.1897 3.67745 0
M  V30 3720 C 345.859 -3.55402 3.99492 0
M  V30 3721 C 347.159 -1.59859 4.97235 0
M  V30 3722 H 348.853 -0.647706 2.9231 0
M  V30 3723 H 346.399 -0.310116 1.40621 0
M  V30 3724 H 348.352 -3.08409 2.87162 0
M  V30 3725 H 347.076 -2.8134 1.65878 0
M  V30 3726 H 345.735 -1.50508 3.3428 0
M  V30 3727 H 345.383 -3.9683 3.09088 0
M  V30 3728 H 345.083 -3.43831 4.76502 0
M  V30 3729 H 346.607 -4.27708 4.35773 0
M  V30 3730 H 348.021 -2.20642 5.29141 0
M  V30 3731 H 346.418 -1.58942 5.78669 0
M  V30 3732 H 347.488 -0.561506 4.81638 0
M  V30 3733 N 348.832 -1.54138 -0.328536 0
M  V30 3734 C 349.78 -1.83894 -1.42428 0
M  V30 3735 C 350.774 -0.710478 -1.53781 0
M  V30 3736 O 351.98 -0.894062 -1.56226 0
M  V30 3737 H 348.355 -0.582837 -0.475189 0
M  V30 3738 H 350.326 -2.75537 -1.14552 0
M  V30 3739 C 349.075 -2.07866 -2.78724 0
M  V30 3740 H 348.398 -2.94158 -2.7076 0
M  V30 3741 H 349.838 -2.32644 -3.54476 0
M  V30 3742 C 348.297 -0.868689 -3.25508 0
M  V30 3743 O 348.827 -0.0754908 -4.01629 0
M  V30 3744 N 347.033 -0.681711 -2.82491 0
M  V30 3745 H 346.58 -1.32838 -2.20708 0
M  V30 3746 H 346.538 0.126374 -3.14146 0
M  V30 3747 N 350.31 0.590341 -1.46126 0
M  V30 3748 C 351.243 1.71434 -1.50617 0
M  V30 3749 C 352.221 1.58543 -0.360948 0
M  V30 3750 O 353.405 1.79865 -0.563985 0
M  V30 3751 C 350.532 3.09422 -1.37753 0
M  V30 3752 C 349.578 3.40854 -2.5636 0
M  V30 3753 S 350.411 3.33773 -4.18755 0
M  V30 3754 C 351.567 4.74312 -4.08386 0
M  V30 3755 H 351.8 1.67364 -2.45717 0
M  V30 3756 H 349.333 0.76845 -1.33919 0
M  V30 3757 H 351.291 3.8903 -1.31018 0
M  V30 3758 H 349.952 3.10989 -0.440949 0
M  V30 3759 H 349.145 4.41368 -2.43332 0
M  V30 3760 H 348.747 2.68798 -2.60046 0
M  V30 3761 H 351.039 5.64522 -3.74595 0
M  V30 3762 H 351.982 4.92397 -5.08872 0
M  V30 3763 H 352.39 4.50803 -3.3976 0
M  V30 3764 N 351.788 1.33704 0.83433 0
M  V30 3765 C 353.065 1.16011 1.57483 0
M  V30 3766 C 353.445 -0.27176 2.09343 0
M  V30 3767 O 352.793 -1.27146 1.89858 0
M  V30 3768 C 353.003 2.20507 2.70514 0
M  V30 3769 C 354.351 2.54898 3.39577 0
M  V30 3770 O 355.375 2.19209 2.80759 0
M  V30 3771 O 354.234 3.16158 4.45765 0
M  V30 3772 H 351.328 0.448992 0.694503 0
M  V30 3773 H 353.874 1.453 0.876691 0
M  V30 3774 H 352.646 3.16667 2.29865 0
M  V30 3775 H 352.269 1.92329 3.47987 0
M  V30 3776 N 353.266 -1.05314 1.17247 0
M  V30 3777 C 354.213 -2.13031 0.888058 0
M  V30 3778 C 355.183 -1.65253 -0.167537 0
M  V30 3779 O 356.368 -1.90775 -0.0305974 0
M  V30 3780 C 353.508 -3.42702 0.406147 0
M  V30 3781 C 352.621 -4.04161 1.52572 0
M  V30 3782 C 351.756 -5.21744 0.997808 0
M  V30 3783 C 350.795 -5.75207 2.09291 0
M  V30 3784 N 349.932 -6.84094 1.57986 0
M  V30 3785 H 354.772 -2.36698 1.81048 0
M  V30 3786 H 352.309 -1.16121 0.903013 0
M  V30 3787 H 354.267 -4.17059 0.108305 0
M  V30 3788 H 352.897 -3.19222 -0.479313 0
M  V30 3789 H 351.949 -3.27253 1.93931 0
M  V30 3790 H 353.261 -4.39881 2.35172 0
M  V30 3791 H 352.415 -6.03168 0.653739 0
M  V30 3792 H 351.154 -4.87495 0.141232 0
M  V30 3793 H 350.159 -4.92414 2.44557 0
M  V30 3794 H 351.384 -6.11505 2.95362 0
M  V30 3795 H 349.33 -6.51745 0.74598 0
M  V30 3796 H 349.247 -7.18811 2.34195 0
M  V30 3797 H 350.515 -7.69172 1.26468 0
M  V30 3798 N 354.744 -0.972509 -1.24016 0
M  V30 3799 C 355.674 -0.525548 -2.27509 0
M  V30 3800 C 356.655 0.437262 -1.64384 0
M  V30 3801 O 357.84 0.332343 -1.91335 0
M  V30 3802 C 354.97 0.180448 -3.46831 0
M  V30 3803 C 353.924 -0.698859 -4.22256 0
M  V30 3804 C 353.25 0.138903 -5.3452 0
M  V30 3805 C 354.55 -1.98582 -4.83076 0
M  V30 3806 H 356.244 -1.39058 -2.65148 0
M  V30 3807 H 353.79 -0.67009 -1.27459 0
M  V30 3808 H 355.743 0.504387 -4.18371 0
M  V30 3809 H 354.467 1.07987 -3.08231 0
M  V30 3810 H 353.126 -1.00614 -3.52523 0
M  V30 3811 H 352.774 1.03862 -4.9216 0
M  V30 3812 H 352.474 -0.446259 -5.85903 0
M  V30 3813 H 353.998 0.457404 -6.08884 0
M  V30 3814 H 355.412 -1.72715 -5.46665 0
M  V30 3815 H 353.809 -2.5181 -5.44713 0
M  V30 3816 H 354.879 -2.67769 -4.04262 0
M  V30 3817 N 356.222 1.38976 -0.743202 0
M  V30 3818 C 357.169 2.30544 -0.10861 0
M  V30 3819 C 358.139 1.49642 0.720869 0
M  V30 3820 O 359.324 1.78304 0.679142 0
M  V30 3821 C 356.464 3.36018 0.786496 0
M  V30 3822 C 355.577 4.31963 -0.0564849 0
M  V30 3823 C 354.712 5.24506 0.840657 0
M  V30 3824 C 353.751 6.121 -0.00658363 0
M  V30 3825 N 352.888 6.96973 0.846943 0
M  V30 3826 H 357.728 2.8424 -0.895088 0
M  V30 3827 H 355.265 1.3995 -0.453048 0
M  V30 3828 H 357.223 3.95768 1.31999 0
M  V30 3829 H 355.853 2.83758 1.53887 0
M  V30 3830 H 354.905 3.73763 -0.707492 0
M  V30 3831 H 356.217 4.93703 -0.711229 0
M  V30 3832 H 355.371 5.89322 1.4417 0
M  V30 3833 H 354.11 4.63107 1.52916 0
M  V30 3834 H 353.115 5.46289 -0.620366 0
M  V30 3835 H 354.34 6.75565 -0.691992 0
M  V30 3836 H 352.286 6.38133 1.52059 0
M  V30 3837 H 352.203 7.5559 0.248864 0
M  V30 3838 H 353.471 7.6621 1.43328 0
M  V30 3839 N 357.7 0.491464 1.49741 0
M  V30 3840 C 358.632 -0.328609 2.26832 0
M  V30 3841 C 359.645 -0.939113 1.32983 0
M  V30 3842 O 360.834 -0.824067 1.58339 0
M  V30 3843 C 357.934 -1.47675 3.05033 0
M  V30 3844 C 357.107 -0.975305 4.26388 0
M  V30 3845 C 356.166 -1.99991 4.86714 0
M  V30 3846 O 355.192 -1.57229 5.47054 0
M  V30 3847 N 356.394 -3.32962 4.75517 0
M  V30 3848 H 359.159 0.332377 2.97851 0
M  V30 3849 H 356.72 0.323441 1.58636 0
M  V30 3850 H 358.712 -2.15954 3.42266 0
M  V30 3851 H 357.282 -2.04206 2.36683 0
M  V30 3852 H 356.502 -0.117723 3.94024 0
M  V30 3853 H 357.79 -0.618531 5.05026 0
M  V30 3854 H 357.188 -3.70399 4.27576 0
M  V30 3855 H 355.745 -3.96982 5.16961 0
M  V30 3856 N 359.178 -1.55987 0.224894 0
M  V30 3857 C 360.425 -1.9839 -0.4059 0
M  V30 3858 C 360.753 -1.11261 -1.59535 0
M  V30 3859 O 360.008 -0.158314 -1.95059 0
M  V30 3860 C 360.307 -3.46394 -0.880106 0
M  V30 3861 C 359.973 -4.5046 0.19918 0
M  V30 3862 C 358.635 -4.7864 0.495661 0
M  V30 3863 C 360.987 -5.12855 0.928939 0
M  V30 3864 C 358.315 -5.66497 1.52636 0
M  V30 3865 C 360.667 -6.01828 1.949 0
M  V30 3866 C 359.331 -6.28351 2.25236 0
M  V30 3867 H 358.601 -0.725961 -0.148529 0
M  V30 3868 H 361.248 -1.88668 0.328113 0
M  V30 3869 H 359.553 -3.53337 -1.69294 0
M  V30 3870 H 361.25 -3.76577 -1.37808 0
M  V30 3871 H 357.84 -4.28579 -0.0420526 0
M  V30 3872 H 362.024 -4.9115 0.713129 0
M  V30 3873 H 357.28 -5.8531 1.76698 0
M  V30 3874 H 361.454 -6.49225 2.51951 0
M  V30 3875 H 359.081 -6.96226 3.05244 0
M  V30 3876 N 360.656 0.0484629 -1.57525 0
M  V30 3877 C 361.903 0.743125 -1.88372 0
M  V30 3878 C 362.231 1.76383 -0.819715 0
M  V30 3879 O 361.486 1.94855 0.181659 0
M  V30 3880 C 361.785 1.46632 -3.25935 0
M  V30 3881 C 361.451 0.583427 -4.4711 0
M  V30 3882 C 360.113 0.340191 -4.79996 0
M  V30 3883 C 362.465 -0.0273345 -5.21193 0
M  V30 3884 C 359.793 -0.522903 -5.84365 0
M  V30 3885 C 362.145 -0.878017 -6.26477 0
M  V30 3886 C 360.809 -1.1309 -6.5785 0
M  V30 3887 H 360.079 0.271929 -0.689301 0
M  V30 3888 H 362.726 0.00336166 -1.915 0
M  V30 3889 H 361.031 2.2789 -3.18706 0
M  V30 3890 H 362.728 2.00902 -3.47044 0
M  V30 3891 H 359.318 0.783151 -4.21384 0
M  V30 3892 H 363.502 0.147654 -4.9608 0
M  V30 3893 H 358.758 -0.727335 -6.07058 0
M  V30 3894 H 362.932 -1.35789 -6.83033 0
M  V30 3895 H 360.559 -1.80144 -7.38547 0
M  V30 3896 N 362.134 1.5431 0.320358 0
M  V30 3897 C 363.064 1.86912 1.3995 0
M  V30 3898 C 364.045 0.726211 1.53819 0
M  V30 3899 O 365.23 0.980233 1.67646 0
M  V30 3900 C 362.36 2.09932 2.7667 0
M  V30 3901 C 361.314 3.25776 2.77586 0
M  V30 3902 C 360.64 3.34173 4.17412 0
M  V30 3903 C 361.94 4.6335 2.41048 0
M  V30 3904 H 363.634 2.77292 1.12914 0
M  V30 3905 H 361.18 1.33421 0.541738 0
M  V30 3906 H 363.133 2.31324 3.52232 0
M  V30 3907 H 361.857 1.16304 3.0519 0
M  V30 3908 H 360.516 3.04276 2.04479 0
M  V30 3909 H 360.164 2.38098 4.43078 0
M  V30 3910 H 359.864 4.12033 4.18931 0
M  V30 3911 H 361.388 3.57803 4.94782 0
M  V30 3912 H 362.802 4.84602 3.06324 0
M  V30 3913 H 361.199 5.43782 2.53813 0
M  V30 3914 H 362.269 4.65381 1.36193 0
M  V30 3915 N 363.613 -0.582584 1.46437 0
M  V30 3916 C 364.89 -1.34276 1.4223 0
M  V30 3917 C 365.27 -2.10835 0.10583 0
M  V30 3918 O 364.618 -2.09485 -0.912596 0
M  V30 3919 C 364.828 -2.26865 2.65204 0
M  V30 3920 C 366.176 -2.88691 3.11356 0
M  V30 3921 O 367.2 -2.37178 2.65753 0
M  V30 3922 O 366.059 -3.82255 3.90568 0
M  V30 3923 H 363.153 -0.603326 0.565621 0
M  V30 3924 H 365.699 -0.603591 1.58603 0
M  V30 3925 H 364.471 -1.69724 3.52576 0
M  V30 3926 H 364.094 -3.08122 2.5129 0
M  V30 3927 N 365.091 -1.34144 -0.827227 0
M  V30 3928 C 366.339 -1.26009 -1.58007 0
M  V30 3929 C 366.66 0.170971 -1.94249 0
M  V30 3930 O 365.93 1.10256 -1.61927 0
M  V30 3931 H 364.51 -0.463414 -0.585881 0
M  V30 3932 H 367.172 -1.68005 -0.987951 0
M  V30 3933 H 366.268 -1.86187 -2.50481 0
M  V30 3934 N 366.569 1.04691 -1.17803 0
M  V30 3935 C 367.799 1.81183 -0.992788 0
M  V30 3936 C 368.207 1.8347 0.462098 0
M  V30 3937 O 367.55 1.2643 1.33271 0
M  V30 3938 C 367.612 3.28363 -1.46349 0
M  V30 3939 C 367.276 3.49749 -2.94151 0
M  V30 3940 C 368.273 3.41456 -3.92051 0
M  V30 3941 C 365.958 3.76548 -3.32441 0
M  V30 3942 C 367.952 3.59656 -5.26238 0
M  V30 3943 C 365.639 3.94396 -4.66792 0
M  V30 3944 C 366.637 3.8595 -5.635 0
M  V30 3945 O 366.325 4.03294 -6.9542 0
M  V30 3946 H 366.057 0.577622 -0.351182 0
M  V30 3947 H 368.611 1.32876 -1.5663 0
M  V30 3948 H 366.841 3.77609 -0.833574 0
M  V30 3949 H 368.53 3.86395 -1.24313 0
M  V30 3950 H 369.296 3.20723 -3.63815 0
M  V30 3951 H 365.175 3.82224 -2.57732 0
M  V30 3952 H 368.719 3.52979 -6.01707 0
M  V30 3953 H 364.616 4.14622 -4.94731 0
M  V30 3954 H 365.384 4.2049 -7.02232 0
M  V30 3955 N 368.047 0.979072 1.23499 0
M  V30 3956 C 368.995 0.510604 2.26926 0
M  V30 3957 C 369.989 -0.431691 1.63807 0
M  V30 3958 O 371.195 -0.30573 1.77385 0
M  V30 3959 H 367.57 0.146688 0.737554 0
M  V30 3960 H 369.541 1.39466 2.63803 0
M  V30 3961 C 368.29 -0.172658 3.47271 0
M  V30 3962 H 367.613 0.543331 3.96091 0
M  V30 3963 H 369.053 -0.464101 4.21452 0
M  V30 3964 C 367.512 -1.40345 3.06276 0
M  V30 3965 O 368.042 -2.49978 3.14442 0
M  V30 3966 N 366.248 -1.27362 2.61203 0
M  V30 3967 H 365.795 -0.381584 2.54758 0
M  V30 3968 H 365.753 -2.09822 2.34141 0
M  V30 3969 N 369.525 -1.3858 0.750561 0
M  V30 3970 C 370.75 -2.04997 0.314812 0
M  V30 3971 C 371.175 -1.56235 -1.04749 0
M  V30 3972 O 370.533 -0.712981 -1.66692 0
M  V30 3973 C 370.581 -3.58961 0.343415 0
M  V30 3974 O 369.685 -4.07025 -0.663628 0
M  V30 3975 H 369.026 -0.649081 0.139962 0
M  V30 3976 H 371.556 -1.77313 1.02084 0
M  V30 3977 H 371.566 -4.07542 0.193233 0
M  V30 3978 H 370.241 -3.93811 1.33738 0
M  V30 3979 H 368.818 -3.6982 -0.478307 0
M  V30 3980 N 371.003 -0.499398 -1.49478 0
M  V30 3981 C 371.933 0.269244 -2.31943 0
M  V30 3982 C 372.914 0.964054 -1.40143 0
M  V30 3983 O 374.099 0.955767 -1.69052 0
M  V30 3984 C 371.229 1.33504 -3.20615 0
M  V30 3985 C 370.183 0.760202 -4.21195 0
M  V30 3986 C 369.509 1.9264 -4.98792 0
M  V30 3987 C 370.809 -0.247661 -5.21712 0
M  V30 3988 H 372.503 -0.419082 -2.96452 0
M  V30 3989 H 370.049 -0.202988 -1.42562 0
M  V30 3990 H 372.002 1.88048 -3.77115 0
M  V30 3991 H 370.726 2.05253 -2.54045 0
M  V30 3992 H 369.385 0.23653 -3.65836 0
M  V30 3993 H 369.033 2.63154 -4.28671 0
M  V30 3994 H 368.733 1.54785 -5.66847 0
M  V30 3995 H 370.257 2.4762 -5.58137 0
M  V30 3996 H 371.671 0.209579 -5.72917 0
M  V30 3997 H 370.068 -0.541962 -5.97648 0
M  V30 3998 H 371.138 -1.16409 -4.7072 0
M  V30 3999 N 372.481 1.55866 -0.233164 0
M  V30 4000 C 373.897 1.59133 0.121988 0
M  V30 4001 C 374.097 1.25016 1.58029 0
M  V30 4002 O 373.153 0.990922 2.32243 0
M  V30 4003 C 374.466 2.99932 -0.214792 0
M  V30 4004 C 376.014 3.12601 -0.157971 0
M  V30 4005 C 376.489 4.55597 -0.46859 0
M  V30 4006 N 377.98 4.61305 -0.418585 0
M  V30 4007 C 378.715 5.69903 -0.63227 0
M  V30 4008 N 378.211 6.86819 -0.90835 0
M  V30 4009 N 380.004 5.59264 -0.563913 0
M  V30 4010 H 372.155 1.76315 -1.18434 0
M  V30 4011 H 374.418 0.820093 -0.475553 0
M  V30 4012 H 374.124 3.29588 -1.22739 0
M  V30 4013 H 373.998 3.74327 0.464691 0
M  V30 4014 H 376.385 2.82735 0.845283 0
M  V30 4015 H 376.466 2.40511 -0.871102 0
M  V30 4016 H 376.11 4.86182 -1.46934 0
M  V30 4017 H 376.04 5.25928 0.265865 0
M  V30 4018 H 378.531 3.77297 -0.213368 0
M  V30 4019 H 378.844 7.65507 -1.05919 0
M  V30 4020 H 377.189 6.88536 -0.945673 0
M  V30 4021 H 380.38 4.66802 -0.348372 0
M  V30 4022 H 380.553 6.43831 -0.733847 0
M  V30 4023 N 373.959 -0.0401083 1.57549 0
M  V30 4024 C 374.891 -1.07149 2.02612 0
M  V30 4025 C 375.904 -1.33126 0.937085 0
M  V30 4026 O 377.093 -1.30808 1.21456 0
M  V30 4027 C 374.193 -2.41561 2.37701 0
M  V30 4028 C 373.366 -2.35096 3.68848 0
M  V30 4029 C 372.425 -3.51867 3.91249 0
M  V30 4030 O 371.451 -3.3186 4.62447 0
M  V30 4031 N 372.653 -4.73351 3.36035 0
M  V30 4032 H 375.418 -0.687485 2.91708 0
M  V30 4033 H 372.979 -0.228248 1.60283 0
M  V30 4034 H 374.971 -3.18379 2.49833 0
M  V30 4035 H 373.541 -2.71846 1.54332 0
M  V30 4036 H 372.761 -1.4345 3.67173 0
M  V30 4037 H 374.049 -2.27908 4.54901 0
M  V30 4038 H 373.447 -4.92507 2.78304 0
M  V30 4039 H 372.004 -5.47572 3.53565 0
M  V30 4040 N 375.437 -1.54477 -0.31217 0
M  V30 4041 C 376.665 -1.77205 -1.068 0
M  V30 4042 C 377.08 -0.526114 -1.81321 0
M  V30 4043 O 376.437 0.503647 -1.75413 0
M  V30 4044 C 376.488 -2.97253 -2.05725 0
M  V30 4045 O 376.209 -4.1703 -1.34228 0
M  V30 4046 C 377.71 -3.32281 -2.93435 0
M  V30 4047 H 374.93 -0.591287 -0.317208 0
M  V30 4048 H 377.474 -2.01398 -0.354834 0
M  V30 4049 H 375.629 -2.753 -2.72559 0
M  V30 4050 H 376.043 -4.84636 -2.00571 0
M  V30 4051 H 377.517 -4.19551 -3.58721 0
M  V30 4052 H 377.994 -2.49945 -3.61143 0
M  V30 4053 H 378.6 -3.56353 -2.32147 0
M  V30 4054 N 376.915 0.57481 -1.46744 0
M  V30 4055 C 378.163 1.33009 -1.52161 0
M  V30 4056 C 378.484 1.94185 -0.178092 0
M  V30 4057 O 377.754 1.7899 0.796196 0
M  V30 4058 H 376.334 0.493873 -0.560445 0
M  V30 4059 H 378.996 0.672589 -1.82927 0
M  V30 4060 H 378.092 2.13273 -2.27862 0
M  V30 4061 N 378.394 1.34581 0.820102 0
M  V30 4062 C 379.619 1.30333 1.61332 0
M  V30 4063 C 380.044 -0.119339 1.87721 0
M  V30 4064 O 379.402 -1.08197 1.45475 0
M  V30 4065 C 379.45 2.10258 2.92957 0
M  V30 4066 O 378.554 1.47404 3.85157 0
M  V30 4067 H 377.895 0.447488 0.490561 0
M  V30 4068 H 380.425 1.77425 1.01889 0
M  V30 4069 H 380.435 2.21718 3.42498 0
M  V30 4070 H 379.11 3.13693 2.73074 0
M  V30 4071 H 377.687 1.44703 3.43679 0
M  V30 4072 N 379.872 -1.04064 1.18357 0
M  V30 4073 C 381.118 -1.77528 0.980397 0
M  V30 4074 C 381.451 -1.87948 -0.48879 0
M  V30 4075 O 380.726 -1.3876 -1.36293 0
M  V30 4076 C 381.009 -3.20797 1.63588 0
M  V30 4077 C 380.862 -3.1832 3.17793 0
M  V30 4078 C 382.181 -4.18911 1.34914 0
M  V30 4079 H 379.3 -0.644443 0.357578 0
M  V30 4080 H 381.942 -1.2156 1.46024 0
M  V30 4081 H 380.092 -3.68586 1.22788 0
M  V30 4082 H 381.764 -2.78521 3.67728 0
M  V30 4083 H 380.007 -2.56351 3.49952 0
M  V30 4084 H 380.678 -4.19489 3.58794 0
M  V30 4085 H 383.154 -3.7967 1.70265 0
M  V30 4086 H 382.03 -5.17374 1.83346 0
M  V30 4087 H 382.291 -4.41262 0.272027 0
M  V30 4088 N 381.35 -0.985608 -1.22978 0
M  V30 4089 C 382.578 -0.675582 -1.95559 0
M  V30 4090 C 382.993 0.758413 -1.72897 0
M  V30 4091 O 382.35 1.51094 -1.02357 0
M  V30 4092 C 382.401 -0.96293 -3.48439 0
M  V30 4093 O 382.122 -2.34057 -3.70336 0
M  V30 4094 C 383.623 -0.669585 -4.38214 0
M  V30 4095 H 380.843 -0.250523 -0.622478 0
M  V30 4096 H 383.387 -1.3184 -1.56328 0
M  V30 4097 H 381.542 -0.366033 -3.85667 0
M  V30 4098 H 381.956 -2.43424 -4.64591 0
M  V30 4099 H 383.43 -0.920967 -5.44263 0
M  V30 4100 H 383.907 0.396383 -4.37408 0
M  V30 4101 H 384.513 -1.2472 -4.06602 0
M  V30 4102 N 382.828 1.3818 -0.7579 0
M  V30 4103 C 384.239 1.82726 -0.383134 0
M  V30 4104 C 384.59 1.63214 1.08884 0
M  V30 4105 O 383.715 1.13566 1.84205 0
M  V30 4106 C 384.31 3.31728 -0.688631 0
M  V30 4107 C 382.869 3.74606 -0.367091 0
M  V30 4108 C 382.016 2.60896 -0.939599 0
M  V30 4109 H 384.967 1.26847 -0.953699 0
M  V30 4110 H 384.988 3.80487 0.0316492 0
M  V30 4111 H 384.5 3.45898 -1.76001 0
M  V30 4112 H 382.601 3.66013 0.697532 0
M  V30 4113 H 382.714 4.71215 -0.865658 0
M  V30 4114 H 381.078 2.52075 -0.3647 0
M  V30 4115 H 381.861 2.77864 -2.0161 0
M  V30 4116 N 384.306 0.507319 1.49211 0
M  V30 4117 C 385.552 -0.0350047 2.0277 0
M  V30 4118 C 385.885 -1.3606 1.38569 0
M  V30 4119 O 385.16 -1.87321 0.523542 0
M  V30 4120 C 385.443 -0.180916 3.59645 0
M  V30 4121 C 385.296 1.16825 4.34364 0
M  V30 4122 C 386.615 -0.918558 4.30407 0
M  V30 4123 H 383.734 -0.0112473 0.736914 0
M  V30 4124 H 386.376 0.659956 1.7817 0
M  V30 4125 H 384.526 -0.772826 3.80736 0
M  V30 4126 H 386.198 1.79952 4.24753 0
M  V30 4127 H 384.441 1.75594 3.96673 0
M  V30 4128 H 385.112 1.01939 5.42506 0
M  V30 4129 H 387.588 -0.41649 4.1401 0
M  V30 4130 H 386.464 -0.989505 5.39907 0
M  V30 4131 H 386.725 -1.96373 3.96093 0
M  V30 4132 N 385.784 -1.5574 0.241426 0
M  V30 4133 C 387.033 -1.97986 -0.385295 0
M  V30 4134 C 387.346 -1.13267 -1.59468 0
M  V30 4135 O 388.552 -1.45501 -2.2922 0
M  V30 4136 C 387.008 -3.52275 -0.736884 0
M  V30 4137 C 386.616 -4.45726 0.450796 0
M  V30 4138 C 388.36 -4.03189 -1.3281 0
M  V30 4139 C 386.267 -5.91352 0.0756662 0
M  V30 4140 H 385.197 -0.739386 -0.147731 0
M  V30 4141 H 387.848 -1.80308 0.340779 0
M  V30 4142 H 386.23 -3.65628 -1.52094 0
M  V30 4143 H 387.404 -4.44131 1.22819 0
M  V30 4144 H 385.719 -4.05264 0.956573 0
M  V30 4145 H 388.316 -5.09505 -1.62201 0
M  V30 4146 H 388.659 -3.50212 -2.25071 0
M  V30 4147 H 389.192 -3.93141 -0.607069 0
M  V30 4148 H 385.931 -6.48354 0.965272 0
M  V30 4149 H 385.451 -5.96095 -0.665635 0
M  V30 4150 H 387.13 -6.46084 -0.344075 0
M  V30 4151 N 387.262 0.0317525 -1.57568 0
M  V30 4152 C 388.511 0.722131 -1.8833 0
M  V30 4153 C 388.824 1.76664 -0.839587 0
M  V30 4154 O 390.03 2.50942 -1.03635 0
M  V30 4155 C 388.486 1.33544 -3.34207 0
M  V30 4156 C 388.094 0.327415 -4.46802 0
M  V30 4157 C 389.838 2.00585 -3.7412 0
M  V30 4158 C 387.745 0.948915 -5.83738 0
M  V30 4159 H 386.675 0.273466 -0.702661 0
M  V30 4160 H 389.326 -0.0235811 -1.83485 0
M  V30 4161 H 387.708 2.13077 -3.33788 0
M  V30 4162 H 388.882 -0.441006 -4.58685 0
M  V30 4163 H 387.197 -0.240758 -4.15703 0
M  V30 4164 H 389.794 2.47932 -4.73744 0
M  V30 4165 H 390.137 2.82285 -3.05975 0
M  V30 4166 H 390.67 1.27831 -3.76702 0
M  V30 4167 H 387.409 0.171387 -6.55276 0
M  V30 4168 H 386.929 1.68724 -5.7558 0
M  V30 4169 H 388.608 1.45705 -6.3038 0
M  V30 4170 N 388.74 1.54641 0.303973 0
M  V30 4171 C 389.69 1.8177 1.37636 0
M  V30 4172 C 390.674 0.674697 1.46071 0
M  V30 4173 O 391.866 0.935251 1.50273 0
M  V30 4174 C 388.995 2.06584 2.74186 0
M  V30 4175 C 388.081 3.2706 2.69986 0
M  V30 4176 N 388.472 4.47682 2.35402 0
M  V30 4177 C 386.77 3.29028 3.01092 0
M  V30 4178 C 387.471 5.29689 2.40426 0
M  V30 4179 N 386.447 4.67339 2.7766 0
M  V30 4180 H 390.249 2.72596 1.09857 0
M  V30 4181 H 387.763 1.541 0.51254 0
M  V30 4182 H 389.76 2.24166 3.51504 0
M  V30 4183 H 388.42 1.17024 3.02879 0
M  V30 4184 H 389.431 4.74336 2.07908 0
M  V30 4185 H 386.108 2.49565 3.34699 0
M  V30 4186 H 387.498 6.3606 2.16512 0
M  V30 4187 N 390.218 -0.567019 1.47046 0
M  V30 4188 C 391.495 -1.3276 1.43646 0
M  V30 4189 C 391.875 -2.1071 0.128186 0
M  V30 4190 O 391.223 -2.10441 -0.890326 0
M  V30 4191 C 391.433 -2.2404 2.67595 0
M  V30 4192 C 392.781 -2.85372 3.14401 0
M  V30 4193 O 393.805 -2.34346 2.68254 0
M  V30 4194 O 392.664 -3.78091 3.946 0
M  V30 4195 H 389.758 -0.597293 0.571988 0
M  V30 4196 H 392.304 -0.586735 1.59234 0
M  V30 4197 H 391.076 -1.65975 3.54356 0
M  V30 4198 H 390.699 -3.05439 2.54544 0
M  V30 4199 N 391.696 -1.35014 -0.812953 0
M  V30 4200 C 392.659 -1.27292 -1.90602 0
M  V30 4201 C 393.659 -0.185817 -1.59723 0
M  V30 4202 O 394.849 -0.439102 -1.68575 0
M  V30 4203 C 391.981 -0.967676 -3.26877 0
M  V30 4204 H 393.174 -2.24479 -1.9887 0
M  V30 4205 H 390.727 -1.19446 -1.00808 0
M  V30 4206 H 391.462 0.0005954 -3.243 0
M  V30 4207 H 391.247 -1.75412 -3.50675 0
M  V30 4208 H 392.737 -0.939085 -4.06904 0
M  V30 4209 N 393.175 1.03435 -1.18907 0
M  V30 4210 C 394.422 1.76743 -0.988334 0
M  V30 4211 C 394.75 1.88447 0.481441 0
M  V30 4212 O 394.005 1.39383 1.37371 0
M  V30 4213 C 394.304 3.19792 -1.59586 0
M  V30 4214 C 393.97 3.28108 -3.09283 0
M  V30 4215 C 392.632 3.30084 -3.5014 0
M  V30 4216 C 394.984 3.27696 -4.05296 0
M  V30 4217 C 392.312 3.29299 -4.85571 0
M  V30 4218 C 394.664 3.28451 -5.4065 0
M  V30 4219 C 393.328 3.28723 -5.80946 0
M  V30 4220 H 392.598 0.64675 -0.361657 0
M  V30 4221 H 395.245 1.21442 -1.48068 0
M  V30 4222 H 393.55 3.78136 -1.02568 0
M  V30 4223 H 395.247 3.75171 -1.41589 0
M  V30 4224 H 391.837 3.27294 -2.76725 0
M  V30 4225 H 396.021 3.25354 -3.74778 0
M  V30 4226 H 391.277 3.2783 -5.16079 0
M  V30 4227 H 395.451 3.27082 -6.14809 0
M  V30 4228 H 393.078 3.27868 -6.85862 0
M  V30 4229 N 394.653 0.992116 1.22453 0
M  V30 4230 C 395.585 0.500024 2.23679 0
M  V30 4231 C 396.598 -0.404463 1.57696 0
M  V30 4232 O 397.787 -0.206722 1.77299 0
M  V30 4233 C 394.887 -0.294711 3.37616 0
M  V30 4234 C 394.06 0.605723 4.33186 0
M  V30 4235 C 393.119 -0.13717 5.26021 0
M  V30 4236 O 392.145 0.477164 5.67196 0
M  V30 4237 N 393.347 -1.4197 5.62872 0
M  V30 4238 H 396.112 1.37045 2.66531 0
M  V30 4239 H 393.673 0.866741 1.36745 0
M  V30 4240 H 395.665 -0.800329 3.96707 0
M  V30 4241 H 394.235 -1.06623 2.93854 0
M  V30 4242 H 393.455 1.29202 3.72425 0
M  V30 4243 H 394.743 1.21896 4.93983 0
M  V30 4244 H 394.141 -1.94015 5.31389 0
M  V30 4245 H 392.698 -1.87052 6.24383 0
M  V30 4246 N 396.131 -1.37776 0.765217 0
M  V30 4247 C 397.377 -2.00145 0.327072 0
M  V30 4248 C 397.71 -1.60607 -1.09175 0
M  V30 4249 O 396.985 -0.849127 -1.74986 0
M  V30 4250 C 397.268 -3.57109 0.46319 0
M  V30 4251 C 397.121 -4.06576 1.92395 0
M  V30 4252 C 398.44 -4.39888 -0.136473 0
M  V30 4253 H 395.559 -0.727113 0.120316 0
M  V30 4254 H 398.201 -1.63549 0.967039 0
M  V30 4255 H 396.351 -3.88414 -0.0816358 0
M  V30 4256 H 398.023 -3.85864 2.52798 0
M  V30 4257 H 396.266 -3.59011 2.43503 0
M  V30 4258 H 396.937 -5.15639 1.97028 0
M  V30 4259 H 399.413 -4.14803 0.328317 0
M  V30 4260 H 398.289 -5.48899 -0.0110582 0
M  V30 4261 H 398.55 -4.24758 -1.22608 0
M  V30 4262 N 397.609 -0.515225 -1.4894 0
M  V30 4263 C 398.856 0.024215 -2.02486 0
M  V30 4264 C 399.184 1.35671 -1.39368 0
M  V30 4265 O 398.439 1.88566 -0.523574 0
M  V30 4266 C 398.738 0.210595 -3.56779 0
M  V30 4267 C 398.404 -1.04569 -4.38607 0
M  V30 4268 C 397.066 -1.39002 -4.60686 0
M  V30 4269 C 399.418 -1.88008 -4.86109 0
M  V30 4270 C 396.746 -2.568 -5.27514 0
M  V30 4271 C 399.098 -3.04972 -5.54234 0
M  V30 4272 C 397.762 -3.39768 -5.74555 0
M  V30 4273 H 397.032 0.00886088 -0.740947 0
M  V30 4274 H 399.679 -0.678263 -1.79086 0
M  V30 4275 H 397.984 0.99572 -3.78936 0
M  V30 4276 H 399.681 0.642659 -3.95817 0
M  V30 4277 H 396.271 -0.767497 -4.21672 0
M  V30 4278 H 400.455 -1.62719 -4.68867 0
M  V30 4279 H 395.711 -2.8398 -5.41447 0
M  V30 4280 H 399.885 -3.69943 -5.90013 0
M  V30 4281 H 397.512 -4.31148 -6.26112 0
M  V30 4282 N 399.087 1.5561 -0.249682 0
M  V30 4283 C 400.335 1.98618 0.373548 0
M  V30 4284 C 400.656 1.13919 1.58264 0
M  V30 4285 O 399.926 0.222637 1.94631 0
M  V30 4286 H 398.506 0.733571 0.141006 0
M  V30 4287 H 401.168 1.91748 -0.349117 0
M  V30 4288 H 400.264 3.04584 0.680796 0
M  V30 4289 N 400.565 -0.0233959 1.57583 0
M  V30 4290 C 401.795 -0.723631 1.93513 0
M  V30 4291 C 402.203 -1.69115 0.848333 0
M  V30 4292 O 401.546 -1.82781 -0.183484 0
M  V30 4293 C 401.608 -1.53075 3.25282 0
M  V30 4294 C 401.272 -0.727388 4.51174 0
M  V30 4295 C 402.269 -0.0251924 5.19894 0
M  V30 4296 C 399.954 -0.680256 4.97672 0
M  V30 4297 C 401.948 0.713374 6.33395 0
M  V30 4298 C 399.635 0.0620523 6.11068 0
M  V30 4299 C 400.633 0.757622 6.78785 0
M  V30 4300 O 400.321 1.48787 7.90011 0
M  V30 4301 H 400.053 -0.208051 0.643188 0
M  V30 4302 H 402.607 0.0167489 2.05393 0
M  V30 4303 H 400.837 -2.31508 3.09744 0
M  V30 4304 H 402.526 -2.11413 3.46496 0
M  V30 4305 H 403.292 -0.0526003 4.84971 0
M  V30 4306 H 399.171 -1.21116 4.44805 0
M  V30 4307 H 402.715 1.25683 6.86185 0
M  V30 4308 H 398.612 0.0913634 6.45435 0
M  V30 4309 H 399.38 1.40213 8.06401 0
M  V30 4310 N 402.043 -1.548 -0.295768 0
M  V30 4311 C 403.289 -1.75517 -1.02789 0
M  V30 4312 C 403.644 -0.537266 -1.84746 0
M  V30 4313 O 402.937 0.470299 -1.85738 0
M  V30 4314 C 403.131 -2.98797 -1.961 0
M  V30 4315 C 402.96 -4.3246 -1.23321 0
M  V30 4316 C 401.73 -4.96131 -0.95822 0
M  V30 4317 C 403.928 -5.10365 -0.635024 0
M  V30 4318 N 401.91 -6.1357 -0.201257 0
M  V30 4319 C 403.281 -6.19999 -0.0110937 0
M  V30 4320 C 405.336 -4.94957 -0.540594 0
M  V30 4321 C 404.039 -7.15904 0.698136 0
M  V30 4322 C 406.065 -5.91197 0.154992 0
M  V30 4323 C 405.427 -7.00203 0.767752 0
M  V30 4324 H 401.526 -0.694786 -0.358882 0
M  V30 4325 H 404.11 -1.92281 -0.305943 0
M  V30 4326 H 402.281 -2.83448 -2.6554 0
M  V30 4327 H 404.013 -3.08017 -2.62502 0
M  V30 4328 H 400.768 -4.56595 -1.25771 0
M  V30 4329 H 401.192 -6.76802 0.16389 0
M  V30 4330 H 405.834 -4.10803 -1.00003 0
M  V30 4331 H 403.552 -7.99595 1.16933 0
M  V30 4332 H 407.138 -5.81353 0.228069 0
M  V30 4333 H 406.018 -7.73393 1.29743 0
M  V30 4334 N 403.521 0.559213 -1.47345 0
M  V30 4335 C 404.469 1.68747 -1.60085 0
M  V30 4336 C 405.463 1.628 -0.46825 0
M  V30 4337 O 406.669 1.68009 -0.645977 0
M  V30 4338 H 403.044 0.558329 -0.503759 0
M  V30 4339 H 405.015 1.55138 -2.54902 0
M  V30 4340 C 403.764 3.07103 -1.63042 0
M  V30 4341 H 403.087 3.12361 -2.49541 0
M  V30 4342 H 404.527 3.85743 -1.76006 0
M  V30 4343 C 402.986 3.34935 -0.363357 0
M  V30 4344 O 403.516 3.98102 0.536416 0
M  V30 4345 N 401.722 2.89574 -0.244 0
M  V30 4346 H 401.269 2.38348 -0.977133 0
M  V30 4347 H 401.227 3.08566 0.602836 0
M  V30 4348 N 404.999 1.35443 0.805782 0
M  V30 4349 C 405.947 1.28465 1.93906 0
M  V30 4350 C 406.941 0.17943 1.68447 0
M  V30 4351 O 408.147 0.345459 1.76654 0
M  V30 4352 H 404.522 0.399528 0.637088 0
M  V30 4353 H 406.493 2.24206 1.96912 0
M  V30 4354 C 405.242 1.07432 3.30687 0
M  V30 4355 H 404.565 1.91716 3.50835 0
M  V30 4356 H 406.005 1.06591 4.10383 0
M  V30 4357 C 404.464 -0.22179 3.36169 0
M  V30 4358 O 404.994 -1.21731 3.82811 0
M  V30 4359 N 403.2 -0.260841 2.89427 0
M  V30 4360 H 402.747 0.549884 2.51663 0
M  V30 4361 H 402.705 -1.12777 2.93477 0
M  V30 4362 N 406.477 -1.02803 1.19454 0
M  V30 4363 C 407.724 -1.76217 0.997693 0
M  V30 4364 C 408.052 -1.887 -0.47144 0
M  V30 4365 O 407.307 -1.4011 -1.3663 0
M  V30 4366 C 407.606 -3.18941 1.6128 0
M  V30 4367 C 407.272 -3.26463 3.11019 0
M  V30 4368 C 405.934 -3.28223 3.51885 0
M  V30 4369 C 408.286 -3.25542 4.07028 0
M  V30 4370 C 405.614 -3.26719 4.8731 0
M  V30 4371 C 407.966 -3.25579 5.42385 0
M  V30 4372 C 406.63 -3.25637 5.82681 0
M  V30 4373 H 405.9 -0.644823 0.365082 0
M  V30 4374 H 408.547 -1.20655 1.4871 0
M  V30 4375 H 406.852 -3.77587 1.04572 0
M  V30 4376 H 408.549 -3.74415 1.43577 0
M  V30 4377 H 405.139 -3.25822 2.78457 0
M  V30 4378 H 409.323 -3.23362 3.76498 0
M  V30 4379 H 404.579 -3.25089 5.1781 0
M  V30 4380 H 408.753 -3.23817 6.16535 0
M  V30 4381 H 406.38 -3.24226 6.87591 0
M  V30 4382 N 407.956 -0.998596 -1.21925 0
M  V30 4383 C 408.886 -0.573688 -2.26343 0
M  V30 4384 C 409.867 0.402296 -1.65274 0
M  V30 4385 O 411.052 0.291683 -1.91997 0
M  V30 4386 C 408.182 0.106839 -3.47136 0
M  V30 4387 C 407.136 -0.788269 -4.20678 0
M  V30 4388 C 406.462 0.0254927 -5.34694 0
M  V30 4389 C 407.762 -2.08784 -4.78755 0
M  V30 4390 H 409.456 -1.44651 -2.62138 0
M  V30 4391 H 407.002 -0.696975 -1.26009 0
M  V30 4392 H 408.955 0.415531 -4.19346 0
M  V30 4393 H 407.679 1.01424 -3.10452 0
M  V30 4394 H 406.338 -1.08069 -3.50309 0
M  V30 4395 H 405.986 0.933989 -4.94253 0
M  V30 4396 H 405.686 -0.570437 -5.84825 0
M  V30 4397 H 407.21 0.328147 -6.09718 0
M  V30 4398 H 408.624 -1.84272 -5.42878 0
M  V30 4399 H 407.021 -2.63307 -5.39249 0
M  V30 4400 H 408.091 -2.76284 -3.98491 0
M  V30 4401 N 409.434 1.37368 -0.772513 0
M  V30 4402 C 410.662 2.03942 -0.348588 0
M  V30 4403 C 411.077 1.58264 1.02947 0
M  V30 4404 O 410.434 0.764246 1.65727 0
M  V30 4405 C 410.485 3.5946 -0.38351 0
M  V30 4406 O 410.206 4.03468 -1.70721 0
M  V30 4407 C 411.707 4.4327 0.0519152 0
M  V30 4408 H 408.927 0.654931 -0.145966 0
M  V30 4409 H 411.471 1.75686 -1.04665 0
M  V30 4410 H 409.626 3.86486 0.265978 0
M  V30 4411 H 410.04 4.97991 -1.64636 0
M  V30 4412 H 411.514 5.51995 -0.0236733 0
M  V30 4413 H 411.991 4.2514 1.10238 0
M  V30 4414 H 412.597 4.21471 -0.569415 0
M  V30 4415 N 410.912 0.523116 1.48665 0
M  V30 4416 C 412.158 -0.0134963 2.02796 0
M  V30 4417 C 412.491 -1.34582 1.40004 0
M  V30 4418 O 411.766 -1.86756 0.543381 0
M  V30 4419 C 412.049 -0.14276 3.59817 0
M  V30 4420 C 411.902 1.21425 4.331 0
M  V30 4421 C 413.221 -0.872856 4.31357 0
M  V30 4422 H 410.34 -0.00343074 0.736992 0
M  V30 4423 H 412.982 0.678816 1.7746 0
M  V30 4424 H 411.132 -0.732401 3.81534 0
M  V30 4425 H 412.804 1.84447 4.2282 0
M  V30 4426 H 411.047 1.79791 3.94788 0
M  V30 4427 H 411.718 1.07687 5.41394 0
M  V30 4428 H 414.194 -0.372555 4.14429 0
M  V30 4429 H 413.07 -0.932185 5.40927 0
M  V30 4430 H 413.331 -1.92161 3.98154 0
M  V30 4431 N 412.39 -1.55475 0.257931 0
M  V30 4432 C 413.353 -2.20551 -0.623706 0
M  V30 4433 C 414.353 -1.17809 -1.09443 0
M  V30 4434 O 415.543 -1.42823 -0.997362 0
M  V30 4435 C 412.675 -2.85784 -1.8585 0
M  V30 4436 H 413.868 -2.99848 -0.0557743 0
M  V30 4437 H 411.421 -1.56298 0.0084422 0
M  V30 4438 H 412.156 -2.10453 -2.46739 0
M  V30 4439 H 411.941 -3.61057 -1.52907 0
M  V30 4440 H 413.431 -3.35553 -2.48584 0
M  V30 4441 N 413.868 0.0150385 -1.57593 0
M  V30 4442 C 414.778 1.02791 -2.10882 0
M  V30 4443 C 415.794 1.38702 -1.0506 0
M  V30 4444 O 416.97 1.47739 -1.36877 0
M  V30 4445 C 414.035 2.30568 -2.58919 0
M  V30 4446 C 413.096 2.01108 -3.79281 0
M  V30 4447 C 412.329 3.22794 -4.25018 0
M  V30 4448 O 412.552 4.33959 -3.70183 0
M  V30 4449 O 411.486 3.07672 -5.17322 0
M  V30 4450 H 415.312 0.604973 -2.97613 0
M  V30 4451 H 412.897 0.23292 -1.47573 0
M  V30 4452 H 414.779 3.05662 -2.90084 0
M  V30 4453 H 413.454 2.72129 -1.75293 0
M  V30 4454 H 412.361 1.23537 -3.53114 0
M  V30 4455 H 413.694 1.64394 -4.63935 0
M  V30 4456 N 415.346 1.54954 0.287554 0
M  V30 4457 C 416.594 1.74528 1.01904 0
M  V30 4458 C 416.915 0.541349 1.87335 0
M  V30 4459 O 416.185 -0.444108 1.908 0
M  V30 4460 H 414.765 0.643576 0.379235 0
M  V30 4461 H 417.427 1.92333 0.315294 0
M  V30 4462 H 416.523 2.64015 1.6644 0
M  V30 4463 N 416.824 -0.551391 1.4764 0
M  V30 4464 C 417.756 -1.67333 1.56628 0
M  V30 4465 C 418.769 -1.56398 0.452045 0
M  V30 4466 O 419.958 -1.6325 0.721926 0
M  V30 4467 C 417.058 -3.05841 1.45994 0
M  V30 4468 C 416.231 -3.42472 2.72088 0
M  V30 4469 C 415.29 -4.60168 2.55209 0
M  V30 4470 O 414.316 -4.64458 3.2904 0
M  V30 4471 N 415.518 -5.57024 1.63416 0
M  V30 4472 H 418.283 -1.60066 2.53375 0
M  V30 4473 H 415.844 -0.738169 1.44093 0
M  V30 4474 H 417.836 -3.8242 1.32428 0
M  V30 4475 H 416.406 -3.07302 0.573071 0
M  V30 4476 H 415.626 -2.55284 3.00373 0
M  V30 4477 H 416.914 -3.63723 3.55785 0
M  V30 4478 H 416.312 -5.56319 1.02594 0
M  V30 4479 H 414.869 -6.32906 1.558 0
M  V30 4480 N 418.302 -1.35869 -0.798587 0
M  V30 4481 C 419.548 -1.30788 -1.55775 0
M  V30 4482 C 419.903 0.114558 -1.92059 0
M  V30 4483 O 419.196 1.06691 -1.59147 0
M  V30 4484 C 419.39 -2.1556 -2.85077 0
M  V30 4485 C 419.219 -3.65904 -2.61428 0
M  V30 4486 C 417.989 -4.35112 -2.56915 0
M  V30 4487 C 420.187 -4.59375 -2.31255 0
M  V30 4488 N 418.169 -5.71155 -2.25068 0
M  V30 4489 C 419.54 -5.83598 -2.09316 0
M  V30 4490 C 421.595 -4.48035 -2.17185 0
M  V30 4491 C 420.298 -6.97755 -1.74731 0
M  V30 4492 C 422.324 -5.62049 -1.83998 0
M  V30 4493 C 421.686 -6.85305 -1.629 0
M  V30 4494 H 417.785 -0.533855 -0.571422 0
M  V30 4495 H 420.369 -1.7083 -0.934079 0
M  V30 4496 H 418.54 -1.77776 -3.45326 0
M  V30 4497 H 420.272 -2.01938 -3.50718 0
M  V30 4498 H 417.027 -3.87812 -2.71843 0
M  V30 4499 H 417.451 -6.42978 -2.11916 0
M  V30 4500 H 422.093 -3.53338 -2.3219 0
M  V30 4501 H 419.811 -7.92411 -1.58464 0
M  V30 4502 H 423.397 -5.55232 -1.73808 0
M  V30 4503 H 422.277 -7.72034 -1.37596 0
M  V30 4504 N 419.78 1.02168 -1.19998 0
M  V30 4505 C 420.728 2.12717 -0.940967 0
M  V30 4506 C 421.722 1.69069 0.105841 0
M  V30 4507 O 422.928 1.79946 -0.0440583 0
M  V30 4508 H 419.303 0.695108 -0.28693 0
M  V30 4509 H 421.274 2.3175 -1.87975 0
M  V30 4510 C 420.023 3.44027 -0.504049 0
M  V30 4511 H 419.346 3.78036 -1.30112 0
M  V30 4512 H 420.786 4.22452 -0.361991 0
M  V30 4513 C 419.245 3.27678 0.782878 0
M  V30 4514 O 419.775 3.56949 1.84256 0
M  V30 4515 N 417.981 2.80943 0.742921 0
M  V30 4516 H 417.528 2.57322 -0.119687 0
M  V30 4517 H 417.486 2.70385 1.60435 0
M  V30 4518 N 421.258 1.00505 1.21394 0
M  V30 4519 C 422.504 0.688793 1.90745 0
M  V30 4520 C 422.837 -0.778486 1.77914 0
M  V30 4521 O 422.112 -1.56433 1.15581 0
M  V30 4522 C 422.395 1.11063 3.42545 0
M  V30 4523 C 422.248 2.63737 3.64367 0
M  V30 4524 C 423.567 0.673059 4.34923 0
M  V30 4525 H 420.686 0.251702 0.692687 0
M  V30 4526 H 423.328 1.25074 1.43026 0
M  V30 4527 H 421.478 0.632508 3.83317 0
M  V30 4528 H 423.15 3.19313 3.32922 0
M  V30 4529 H 421.393 3.05248 3.08231 0
M  V30 4530 H 422.064 2.88305 4.70727 0
M  V30 4531 H 424.54 1.08392 4.01734 0
M  V30 4532 H 423.416 0.996383 5.39781 0
M  V30 4533 H 423.677 -0.425808 4.40045 0
M  V30 4534 N 422.737 -1.36956 0.779787 0
M  V30 4535 C 423.983 -1.99787 0.348281 0
M  V30 4536 C 424.316 -1.61756 -1.07465 0
M  V30 4537 O 423.591 -0.867639 -1.74075 0
M  V30 4538 C 423.874 -3.56597 0.50104 0
M  V30 4539 C 423.727 -4.04513 1.96697 0
M  V30 4540 C 425.046 -4.40008 -0.0898097 0
M  V30 4541 H 422.165 -0.725796 0.128022 0
M  V30 4542 H 424.807 -1.62514 0.984331 0
M  V30 4543 H 422.957 -3.88479 -0.0404347 0
M  V30 4544 H 424.629 -3.83161 2.56876 0
M  V30 4545 H 422.872 -3.56408 2.47297 0
M  V30 4546 H 423.543 -5.1352 2.02486 0
M  V30 4547 H 426.019 -4.14431 0.372293 0
M  V30 4548 H 424.895 -5.4888 0.0471605 0
M  V30 4549 H 425.156 -4.26035 -1.18096 0
M  V30 4550 N 424.215 -0.530993 -1.48385 0
M  V30 4551 C 425.461 0.00274135 -2.028 0
M  V30 4552 C 425.794 1.33838 -1.40716 0
M  V30 4553 O 425.069 1.86465 -0.553277 0
M  V30 4554 C 425.352 0.123676 -3.59888 0
M  V30 4555 C 425.205 -1.2372 -4.3245 0
M  V30 4556 C 426.524 0.849967 -4.31814 0
M  V30 4557 H 423.643 -0.000477758 -0.737 0
M  V30 4558 H 426.285 -0.688217 -1.77098 0
M  V30 4559 H 424.435 0.712157 -3.81917 0
M  V30 4560 H 426.107 -1.86687 -4.21836 0
M  V30 4561 H 424.35 -1.81882 -3.93829 0
M  V30 4562 H 425.021 -1.10557 -5.40815 0
M  V30 4563 H 427.497 0.350572 -4.14621 0
M  V30 4564 H 426.373 0.903486 -5.41413 0
M  V30 4565 H 426.634 1.90047 -3.99167 0
M  V30 4566 N 425.693 1.55336 -0.266172 0
M  V30 4567 C 426.97 1.91372 0.404486 0
M  V30 4568 C 427.35 1.18935 1.74407 0
M  V30 4569 O 426.698 0.3132 2.26343 0
M  V30 4570 C 426.908 3.44581 0.553593 0
M  V30 4571 C 428.256 4.16196 0.840618 0
M  V30 4572 O 429.28 3.50426 0.638739 0
M  V30 4573 O 428.139 5.32567 1.22618 0
M  V30 4574 H 425.233 0.797194 0.220025 0
M  V30 4575 H 427.779 1.66813 -0.311664 0
M  V30 4576 H 426.551 3.89357 -0.389498 0
M  V30 4577 H 426.174 3.75065 1.31955 0
M  V30 4578 N 427.171 -0.0066808 1.57599 0
M  V30 4579 C 428.121 -1.0086 2.04478 0
M  V30 4580 C 429.105 -1.30714 0.938231 0
M  V30 4581 O 430.297 -1.29924 1.20203 0
M  V30 4582 C 427.426 -2.30273 2.54615 0
M  V30 4583 C 426.512 -2.03413 3.72134 0
M  V30 4584 N 426.903 -1.46688 4.84062 0
M  V30 4585 C 425.201 -2.33589 3.79937 0
M  V30 4586 C 425.902 -1.36146 5.65543 0
M  V30 4587 N 424.878 -1.84477 5.1134 0
M  V30 4588 H 428.68 -0.564402 2.8843 0
M  V30 4589 H 426.194 -0.212521 1.61003 0
M  V30 4590 H 428.191 -3.02885 2.86472 0
M  V30 4591 H 426.851 -2.75352 1.72079 0
M  V30 4592 H 427.862 -1.14658 5.05049 0
M  V30 4593 H 424.539 -2.81589 3.08243 0
M  V30 4594 H 425.929 -0.925873 6.6549 0
M  V30 4595 N 428.649 -1.55105 -0.279332 0
M  V30 4596 C 429.599 -1.83937 -1.34727 0
M  V30 4597 C 430.583 -0.69785 -1.44979 0
M  V30 4598 O 431.775 -0.95904 -1.48766 0
M  V30 4599 C 428.904 -2.1092 -2.70864 0
M  V30 4600 C 427.99 -3.31314 -2.64748 0
M  V30 4601 N 428.381 -4.51371 -2.2825 0
M  V30 4602 C 426.679 -3.33777 -2.95819 0
M  V30 4603 C 427.38 -5.33447 -2.31969 0
M  V30 4604 N 426.356 -4.71697 -2.7019 0
M  V30 4605 H 430.158 -2.74309 -1.05506 0
M  V30 4606 H 427.672 -1.54896 -0.487959 0
M  V30 4607 H 429.669 -2.2973 -3.47893 0
M  V30 4608 H 428.329 -1.21828 -3.00979 0
M  V30 4609 H 429.34 -4.77584 -2.00335 0
M  V30 4610 H 426.017 -2.54858 -3.30687 0
M  V30 4611 H 427.407 -6.39424 -2.06365 0
M  V30 4612 N 430.127 0.543554 -1.4793 0
M  V30 4613 C 431.077 1.64527 -1.57844 0
M  V30 4614 C 432.061 1.54869 -0.436408 0
M  V30 4615 O 433.253 1.63119 -0.687101 0
M  V30 4616 C 430.382 3.03281 -1.6086 0
M  V30 4617 C 429.468 3.18093 -2.80495 0
M  V30 4618 N 429.859 3.02923 -4.05057 0
M  V30 4619 C 428.157 3.49121 -2.77543 0
M  V30 4620 C 428.858 3.20791 -4.85251 0
M  V30 4621 N 427.834 3.47749 -4.17818 0
M  V30 4622 H 431.636 1.51388 -2.5191 0
M  V30 4623 H 429.15 0.748671 -1.44113 0
M  V30 4624 H 431.147 3.82403 -1.66054 0
M  V30 4625 H 429.807 3.17521 -0.678996 0
M  V30 4626 H 430.818 2.79966 -4.35705 0
M  V30 4627 H 427.495 3.69804 -1.93781 0
M  V30 4628 H 428.885 3.13915 -5.9406 0
M  V30 4629 N 431.605 1.3629 0.791371 0
M  V30 4630 C 432.835 1.33368 1.57786 0
M  V30 4631 C 433.243 -0.0875188 1.88997 0
M  V30 4632 O 432.586 -1.05427 1.50435 0
M  V30 4633 C 432.648 2.08802 2.92646 0
M  V30 4634 C 432.312 3.57903 2.84174 0
M  V30 4635 C 433.309 4.52191 2.56553 0
M  V30 4636 C 430.994 4.00762 3.02812 0
M  V30 4637 C 432.988 5.87315 2.47669 0
M  V30 4638 C 430.675 5.35977 2.93551 0
M  V30 4639 C 431.673 6.29066 2.66017 0
M  V30 4640 O 431.361 7.61798 2.56746 0
M  V30 4641 H 431.093 0.459166 0.496128 0
M  V30 4642 H 433.647 1.79952 0.990269 0
M  V30 4643 H 431.877 1.56878 3.53449 0
M  V30 4644 H 433.566 1.98762 3.53904 0
M  V30 4645 H 434.332 4.20393 2.41858 0
M  V30 4646 H 430.211 3.2868 3.2325 0
M  V30 4647 H 433.755 6.59943 2.26099 0
M  V30 4648 H 429.652 5.67384 3.07808 0
M  V30 4649 H 430.42 7.71898 2.72242 0
M  V30 4650 N 433.083 -1.0153 1.20538 0
M  V30 4651 C 434.015 -2.10224 0.913155 0
M  V30 4652 C 435.028 -1.62495 -0.0995998 0
M  V30 4653 O 436.217 -1.78014 0.131582 0
M  V30 4654 C 433.317 -3.37111 0.347717 0
M  V30 4655 C 432.49 -4.13971 1.41233 0
M  V30 4656 C 431.549 -5.19158 0.857976 0
M  V30 4657 O 430.575 -5.48 1.53897 0
M  V30 4658 N 431.777 -5.7955 -0.331966 0
M  V30 4659 H 434.542 -2.35879 1.84881 0
M  V30 4660 H 432.103 -1.17931 1.10923 0
M  V30 4661 H 434.095 -4.04683 -0.0373026 0
M  V30 4662 H 432.665 -3.08696 -0.492527 0
M  V30 4663 H 431.885 -3.41351 1.97163 0
M  V30 4664 H 433.173 -4.62103 2.12928 0
M  V30 4665 H 432.571 -5.58455 -0.902478 0
M  V30 4666 H 431.128 -6.48464 -0.65861 0
M  V30 4667 N 434.561 -1.01147 -1.20859 0
M  V30 4668 C 435.807 -0.698899 -1.90377 0
M  V30 4669 C 436.14 0.76904 -1.78324 0
M  V30 4670 O 435.415 1.55817 -1.16409 0
M  V30 4671 C 435.698 -1.12878 -3.41951 0
M  V30 4672 C 435.551 -2.65665 -3.62963 0
M  V30 4673 C 436.87 -0.696114 -4.3456 0
M  V30 4674 H 433.989 -0.255372 -0.691342 0
M  V30 4675 H 436.631 -1.25831 -1.42361 0
M  V30 4676 H 434.781 -0.652827 -3.82976 0
M  V30 4677 H 436.453 -3.21074 -3.31224 0
M  V30 4678 H 434.696 -3.06878 -3.06608 0
M  V30 4679 H 435.367 -2.90797 -4.69192 0
M  V30 4680 H 437.843 -1.10521 -4.01154 0
M  V30 4681 H 436.719 -1.025 -5.39245 0
M  V30 4682 H 436.98 0.402465 -4.40264 0
M  V30 4683 N 436.039 1.36541 -0.78704 0
M  V30 4684 C 437.286 1.99304 -0.358341 0
M  V30 4685 C 437.614 1.62467 1.06933 0
M  V30 4686 O 436.869 0.870019 1.75297 0
M  V30 4687 C 437.168 3.54343 -0.466485 0
M  V30 4688 C 436.834 4.10993 -1.85461 0
M  V30 4689 C 435.496 4.26177 -2.23443 0
M  V30 4690 C 437.848 4.41895 -2.76366 0
M  V30 4691 C 435.176 4.69573 -3.51736 0
M  V30 4692 C 437.528 4.86722 -4.04084 0
M  V30 4693 C 436.192 5.00112 -4.42091 0
M  V30 4694 H 435.462 0.729306 -0.131126 0
M  V30 4695 H 438.109 1.63068 -1.00404 0
M  V30 4696 H 436.414 3.90918 0.262719 0
M  V30 4697 H 438.111 4.00833 -0.115854 0
M  V30 4698 H 434.701 3.99612 -1.54946 0
M  V30 4699 H 438.885 4.29735 -2.48277 0
M  V30 4700 H 434.141 4.78127 -3.81057 0
M  V30 4701 H 438.315 5.09598 -4.7464 0
M  V30 4702 H 435.942 5.33498 -5.41557 0
M  V30 4703 N 437.518 0.538854 1.48102 0
M  V30 4704 C 438.743 0.0102694 2.07397 0
M  V30 4705 C 439.168 -1.26562 1.39153 0
M  V30 4706 O 438.526 -1.75357 0.460387 0
M  V30 4707 C 438.574 -0.187602 3.60112 0
M  V30 4708 O 437.678 -1.25432 3.92862 0
M  V30 4709 H 437.019 0.0430975 0.6626 0
M  V30 4710 H 439.549 0.749301 1.90385 0
M  V30 4711 H 439.559 -0.407517 4.0596 0
M  V30 4712 H 438.234 0.744386 4.09184 0
M  V30 4713 H 436.811 -1.01636 3.58782 0
M  V30 4714 N 438.996 -1.55193 0.274407 0
M  V30 4715 C 440.244 -1.99187 -0.341902 0
M  V30 4716 C 440.565 -1.16422 -1.56431 0
M  V30 4717 O 439.835 -0.253573 -1.94252 0
M  V30 4718 H 438.415 -0.735721 -0.129317 0
M  V30 4719 H 441.077 -1.91168 0.379578 0
M  V30 4720 H 440.173 -3.05629 -0.632253 0
M  V30 4721 N 440.474 -0.00167713 -1.576 0
M  V30 4722 C 441.722 0.681471 -1.90264 0
M  V30 4723 C 442.043 1.7422 -0.875924 0
M  V30 4724 O 441.313 1.95709 0.0864412 0
M  V30 4725 H 439.893 0.254696 -0.702239 0
M  V30 4726 H 442.555 -0.0429996 -1.94853 0
M  V30 4727 H 441.651 1.15166 -2.90075 0
M  V30 4728 N 441.952 1.55251 0.271103 0
M  V30 4729 C 442.862 1.9136 1.35714 0
M  V30 4730 C 443.878 0.811075 1.5394 0
M  V30 4731 O 445.054 1.11031 1.6803 0
M  V30 4732 C 442.119 2.1798 2.69603 0
M  V30 4733 C 441.18 3.4153 2.60107 0
M  V30 4734 C 440.413 3.66871 3.8761 0
M  V30 4735 O 440.636 2.94689 4.8838 0
M  V30 4736 O 439.57 4.60405 3.87699 0
M  V30 4737 H 443.396 2.83815 1.08088 0
M  V30 4738 H 440.981 1.41821 0.469792 0
M  V30 4739 H 442.863 2.36518 3.48765 0
M  V30 4740 H 441.538 1.28708 2.97012 0
M  V30 4741 H 440.445 3.28325 1.79314 0
M  V30 4742 H 441.778 4.31027 2.37647 0
M  V30 4743 N 443.43 -0.535701 1.48216 0
M  V30 4744 C 444.36 -1.65014 1.65204 0
M  V30 4745 C 445.341 -1.62554 0.501011 0
M  V30 4746 O 446.526 -1.7984 0.732886 0
M  V30 4747 C 443.656 -3.03616 1.68626 0
M  V30 4748 C 442.61 -3.20932 2.83172 0
M  V30 4749 C 441.936 -4.60537 2.71679 0
M  V30 4750 C 443.236 -3.04249 4.24535 0
M  V30 4751 H 444.93 -1.51053 2.58502 0
M  V30 4752 H 442.476 -0.725262 1.24402 0
M  V30 4753 H 444.429 -3.81446 1.79099 0
M  V30 4754 H 443.153 -3.18587 0.719026 0
M  V30 4755 H 441.812 -2.45517 2.72244 0
M  V30 4756 H 441.46 -4.72336 1.72937 0
M  V30 4757 H 441.16 -4.73069 3.48538 0
M  V30 4758 H 442.684 -5.40475 2.84112 0
M  V30 4759 H 444.098 -3.71877 4.36326 0
M  V30 4760 H 442.495 -3.28278 5.02348 0
M  V30 4761 H 443.565 -2.00739 4.41397 0
M  V30 4762 N 444.908 -1.36708 -0.784132 0
M  V30 4763 C 446.133 -1.34565 -1.5782 0
M  V30 4764 C 446.558 0.0695257 -1.87971 0
M  V30 4765 O 445.916 1.04302 -1.48293 0
M  V30 4766 C 445.964 -2.17952 -2.87279 0
M  V30 4767 O 445.068 -1.57563 -3.81114 0
M  V30 4768 H 444.409 -0.460337 -0.478524 0
M  V30 4769 H 446.939 -1.80064 -0.971495 0
M  V30 4770 H 446.949 -2.30721 -3.365 0
M  V30 4771 H 445.624 -3.20823 -2.64661 0
M  V30 4772 H 444.201 -1.53764 -3.39722 0
M  V30 4773 N 446.386 1.0089 -1.21074 0
M  V30 4774 C 447.802 1.2695 -0.967257 0
M  V30 4775 C 448.002 1.9846 0.348673 0
M  V30 4776 O 447.058 2.28459 1.0753 0
M  V30 4777 C 448.371 2.09697 -2.15517 0
M  V30 4778 C 449.919 2.22937 -2.197 0
M  V30 4779 C 450.394 3.09064 -3.37999 0
M  V30 4780 N 451.885 3.16653 -3.38061 0
M  V30 4781 C 452.62 3.8354 -4.26245 0
M  V30 4782 N 452.116 4.52488 -5.2462 0
M  V30 4783 N 453.909 3.80141 -4.14064 0
M  V30 4784 H 446.06 0.529005 -2.05707 0
M  V30 4785 H 448.323 0.296148 -0.900556 0
M  V30 4786 H 448.029 1.64497 -3.10859 0
M  V30 4787 H 447.903 3.10444 -2.14253 0
M  V30 4788 H 450.29 2.67357 -1.24916 0
M  V30 4789 H 450.371 1.21673 -2.2501 0
M  V30 4790 H 450.015 2.65347 -4.33074 0
M  V30 4791 H 449.945 4.10433 -3.29928 0
M  V30 4792 H 452.436 2.67566 -2.66865 0
M  V30 4793 H 452.749 5.01219 -5.88217 0
M  V30 4794 H 451.094 4.51288 -5.28549 0
M  V30 4795 H 454.285 3.25427 -3.36474 0
M  V30 4796 H 454.458 4.31992 -4.82998 0
M  V30 4797 N 447.864 1.01787 1.20321 0
M  V30 4798 C 448.812 0.58254 2.25187 0
M  V30 4799 C 449.806 -0.379359 1.65098 0
M  V30 4800 O 451.012 -0.249142 1.78267 0
M  V30 4801 H 447.387 0.170078 0.732514 0
M  V30 4802 H 449.358 1.47788 2.59232 0
M  V30 4803 C 448.107 -0.0620885 3.47645 0
M  V30 4804 H 447.43 0.669069 3.94162 0
M  V30 4805 H 448.87 -0.329784 4.22716 0
M  V30 4806 C 447.329 -1.3053 3.10586 0
M  V30 4807 O 447.859 -2.39848 3.22236 0
M  V30 4808 N 446.065 -1.18988 2.65123 0
M  V30 4809 H 445.612 -0.300341 2.55843 0
M  V30 4810 H 445.57 -2.02267 2.40698 0
M  V30 4811 N 449.342 -1.36122 0.79427 0
M  V30 4812 C 450.591 -1.98361 0.365464 0
M  V30 4813 C 450.904 -1.6374 -1.06997 0
M  V30 4814 O 452.11 -2.19251 -1.60129 0
M  V30 4815 C 450.566 -3.54821 0.602496 0
M  V30 4816 C 450.174 -3.98362 2.04967 0
M  V30 4817 C 451.918 -4.2383 0.238437 0
M  V30 4818 C 449.825 -5.47619 2.2331 0
M  V30 4819 H 448.755 -0.742193 0.13291 0
M  V30 4820 H 451.406 -1.55354 0.976589 0
M  V30 4821 H 449.788 -3.95922 -0.078409 0
M  V30 4822 H 450.962 -3.68447 2.76737 0
M  V30 4823 H 449.277 -3.42206 2.37243 0
M  V30 4824 H 451.874 -5.33529 0.353705 0
M  V30 4825 H 452.217 -4.08264 -0.814006 0
M  V30 4826 H 452.75 -3.88108 0.872769 0
M  V30 4827 H 449.489 -5.68138 3.26955 0
M  V30 4828 H 449.009 -5.79145 1.5605 0
M  V30 4829 H 450.688 -6.13911 2.0426 0
M  V30 4830 N 450.82 -0.546701 -1.47814 0
M  V30 4831 C 451.768 0.220048 -2.31557 0
M  V30 4832 C 452.762 0.919472 -1.42275 0
M  V30 4833 O 453.968 0.841953 -1.59095 0
M  V30 4834 H 450.343 0.0898334 -0.746615 0
M  V30 4835 H 452.314 -0.505589 -2.94086 0
M  V30 4836 C 451.063 1.24353 -3.24702 0
M  V30 4837 H 450.386 0.714758 -3.93359 0
M  V30 4838 H 451.826 1.75112 -3.8615 0
M  V30 4839 C 450.285 2.28593 -2.47481 0
M  V30 4840 O 450.815 3.35334 -2.21165 0
M  V30 4841 N 449.021 2.02244 -2.08676 0
M  V30 4842 H 448.568 1.15455 -2.30278 0
M  V30 4843 H 448.526 2.72207 -1.57323 0
M  V30 4844 N 452.299 1.55045 -0.282633 0
M  V30 4845 C 453.576 1.9179 0.384166 0
M  V30 4846 C 453.956 1.20778 1.73136 0
M  V30 4847 O 453.304 0.33719 2.25998 0
M  V30 4848 C 453.514 3.45149 0.517014 0
M  V30 4849 C 454.862 4.17064 0.796427 0
M  V30 4850 O 455.886 3.51084 0.601535 0
M  V30 4851 O 454.745 5.33837 1.16962 0
M  V30 4852 H 451.839 0.799483 0.211558 0
M  V30 4853 H 454.385 1.66474 -0.32934 0
M  V30 4854 H 453.157 3.88922 -0.430772 0
M  V30 4855 H 452.78 3.76443 1.2797 0
M  V30 4856 N 453.777 0.010035 1.57597 0
M  V30 4857 C 454.727 -0.986858 2.05536 0
M  V30 4858 C 455.711 -1.29711 0.952042 0
M  V30 4859 O 456.903 -1.28641 1.21575 0
M  V30 4860 C 454.032 -2.2756 2.57043 0
M  V30 4861 C 453.118 -1.99455 3.74271 0
M  V30 4862 N 453.509 -1.41546 4.85591 0
M  V30 4863 C 451.807 -2.29547 3.82393 0
M  V30 4864 C 452.508 -1.3014 5.66956 0
M  V30 4865 N 451.484 -1.79044 5.13268 0
M  V30 4866 H 455.286 -0.533778 2.89012 0
M  V30 4867 H 452.8 -0.195432 1.6122 0
M  V30 4868 H 454.797 -2.99829 2.89669 0
M  V30 4869 H 453.457 -2.73512 1.7499 0
M  V30 4870 H 454.468 -1.09294 5.06236 0
M  V30 4871 H 451.145 -2.78304 3.11213 0
M  V30 4872 H 452.535 -0.855237 6.66435 0
M  V30 4873 N 455.255 -1.55392 -0.262866 0
M  V30 4874 C 456.504 -1.75679 -0.990943 0
M  V30 4875 C 456.817 -0.57097 -1.87081 0
M  V30 4876 O 458.023 -0.656486 -2.63444 0
M  V30 4877 C 456.479 -3.10964 -1.81188 0
M  V30 4878 C 456.087 -4.37146 -0.980188 0
M  V30 4879 C 457.831 -3.40597 -2.53365 0
M  V30 4880 C 455.738 -5.63466 -1.7961 0
M  V30 4881 H 454.668 -0.654868 -0.373716 0
M  V30 4882 H 457.319 -1.81841 -0.246203 0
M  V30 4883 H 455.701 -2.98867 -2.59797 0
M  V30 4884 H 456.875 -4.60187 -0.237558 0
M  V30 4885 H 455.19 -4.14731 -0.372497 0
M  V30 4886 H 457.787 -4.32186 -3.14833 0
M  V30 4887 H 458.13 -2.6119 -3.24169 0
M  V30 4888 H 458.663 -3.53838 -1.81779 0
M  V30 4889 H 455.402 -6.4565 -1.13209 0
M  V30 4890 H 454.922 -5.44552 -2.51443 0
M  V30 4891 H 456.601 -6.02139 -2.36723 0
M  V30 4892 N 456.733 0.527833 -1.48498 0
M  V30 4893 C 457.958 1.313 -1.60546 0
M  V30 4894 C 458.383 1.86199 -0.26672 0
M  V30 4895 O 457.741 1.64513 0.761918 0
M  V30 4896 C 457.789 2.43818 -2.65678 0
M  V30 4897 O 456.893 3.46916 -2.22987 0
M  V30 4898 H 456.234 0.388784 -0.538277 0
M  V30 4899 H 458.764 0.634896 -1.945 0
M  V30 4900 H 458.774 2.89973 -2.87018 0
M  V30 4901 H 457.449 2.03222 -3.62869 0
M  V30 4902 H 456.026 3.06864 -2.11869 0
M  V30 4903 N 458.211 1.37122 0.776871 0
M  V30 4904 C 459.457 1.32243 1.53752 0
M  V30 4905 C 459.79 -0.0944745 1.9397 0
M  V30 4906 O 459.065 -1.05068 1.6368 0
M  V30 4907 C 459.348 2.25681 2.80607 0
M  V30 4908 C 459.201 3.76127 2.46676 0
M  V30 4909 C 460.52 2.17657 3.82509 0
M  V30 4910 H 457.639 0.481704 0.557791 0
M  V30 4911 H 460.281 1.6778 0.891612 0
M  V30 4912 H 458.431 1.95505 3.35723 0
M  V30 4913 H 460.103 4.16877 1.97513 0
M  V30 4914 H 458.346 3.94946 1.79443 0
M  V30 4915 H 459.017 4.36933 3.37333 0
M  V30 4916 H 461.493 2.44245 3.36873 0
M  V30 4917 H 460.369 2.85185 4.69 0
M  V30 4918 H 460.63 1.16785 4.26396 0
M  V30 4919 N 459.689 -1.00246 1.21608 0
M  V30 4920 C 460.652 -2.07233 0.979133 0
M  V30 4921 C 461.652 -1.6072 -0.0508219 0
M  V30 4922 O 462.842 -1.73196 0.186712 0
M  V30 4923 C 459.974 -3.37546 0.477016 0
M  V30 4924 H 461.167 -2.29687 1.92831 0
M  V30 4925 H 458.72 -1.17261 1.03342 0
M  V30 4926 H 459.455 -3.20773 -0.476966 0
M  V30 4927 H 459.24 -3.72638 1.21997 0
M  V30 4928 H 460.73 -4.16285 0.331181 0
M  V30 4929 N 461.167 -1.02423 -1.1978 0
M  V30 4930 C 462.407 -0.726635 -1.91048 0
M  V30 4931 C 462.771 0.730947 -1.77542 0
M  V30 4932 O 463.972 1.14141 -2.43362 0
M  V30 4933 C 462.243 -1.15964 -3.38064 0
M  V30 4934 S 463.802 -0.985172 -4.27598 0
M  V30 4935 H 460.62 -0.264679 -0.659899 0
M  V30 4936 H 463.222 -1.31309 -1.44838 0
M  V30 4937 H 461.926 -2.21619 -3.45417 0
M  V30 4938 H 461.457 -0.566274 -3.89303 0
M  V30 4939 H 463.472 0.106946 -4.96085 0
M  V30 4940 N 462.645 1.35699 -0.801477 0
M  V30 4941 C 463.593 2.3177 -0.196317 0
M  V30 4942 C 464.587 1.56388 0.651081 0
M  V30 4943 O 465.793 1.71557 0.544815 0
M  V30 4944 H 462.168 0.750669 -0.0447189 0
M  V30 4945 H 464.139 2.8036 -1.02181 0
M  V30 4946 C 462.888 3.41671 0.644702 0
M  V30 4947 H 462.211 3.998 0.0019921 0
M  V30 4948 H 463.651 4.11184 1.0346 0
M  V30 4949 C 462.11 2.84271 1.80808 0
M  V30 4950 O 462.64 2.77408 2.9053 0
M  V30 4951 N 460.846 2.41391 1.61799 0
M  V30 4952 H 460.393 2.47173 0.725493 0
M  V30 4953 H 460.351 2.03334 2.39797 0
M  V30 4954 N 464.123 0.554532 1.47522 0
M  V30 4955 C 465.369 0.0377449 2.03365 0
M  V30 4956 C 465.724 -1.29654 1.42154 0
M  V30 4957 O 465.017 -1.83022 0.566865 0
M  V30 4958 C 465.211 -0.115927 3.57212 0
M  V30 4959 C 465.04 1.20191 4.33341 0
M  V30 4960 C 463.81 1.76849 4.73342 0
M  V30 4961 C 466.008 2.11849 4.68641 0
M  V30 4962 N 463.99 3.02665 5.34104 0
M  V30 4963 C 465.361 3.22245 5.29677 0
M  V30 4964 C 467.416 2.11876 4.5057 0
M  V30 4965 C 466.119 4.32763 5.74551 0
M  V30 4966 C 468.145 3.21405 4.9644 0
M  V30 4967 C 467.507 4.30519 5.57523 0
M  V30 4968 H 463.606 0.0559107 0.779999 0
M  V30 4969 H 466.19 0.741232 1.80038 0
M  V30 4970 H 464.361 -0.788533 3.80311 0
M  V30 4971 H 466.093 -0.634538 3.99695 0
M  V30 4972 H 462.848 1.30681 4.55214 0
M  V30 4973 H 463.272 3.66788 5.69031 0
M  V30 4974 H 467.914 1.28801 4.02704 0
M  V30 4975 H 465.632 5.166 6.2141 0
M  V30 4976 H 469.218 3.22509 4.8423 0
M  V30 4977 H 468.098 5.13873 5.92371 0
M  V30 4978 N 465.601 -1.54893 0.290851 0
M  V30 4979 C 466.849 -1.99538 -0.320756 0
M  V30 4980 C 467.17 -1.18075 -1.55188 0
M  V30 4981 O 466.44 -0.274162 -1.93972 0
M  V30 4982 H 465.02 -0.737052 -0.121507 0
M  V30 4983 H 467.682 -1.90755 0.399832 0
M  V30 4984 H 466.778 -3.06282 -0.599802 0
M  V30 4985 N 467.08 -0.0183926 -1.57589 0
M  V30 4986 C 468.326 0.657813 -1.92469 0
M  V30 4987 C 468.681 1.70349 -0.894375 0
M  V30 4988 O 467.974 1.91384 0.0910389 0
M  V30 4989 C 468.168 1.32676 -3.31861 0
M  V30 4990 C 467.997 0.347403 -4.48356 0
M  V30 4991 C 466.767 -0.0488653 -5.05276 0
M  V30 4992 C 468.965 -0.393931 -5.12789 0
M  V30 4993 N 466.947 -1.02451 -6.05291 0
M  V30 4994 C 468.318 -1.22367 -6.07804 0
M  V30 4995 C 470.373 -0.455789 -4.95809 0
M  V30 4996 C 469.076 -2.10966 -6.87667 0
M  V30 4997 C 471.102 -1.32908 -5.76272 0
M  V30 4998 C 470.464 -2.14662 -6.70894 0
M  V30 4999 H 466.563 0.21335 -0.752334 0
M  V30 5000 H 469.147 -0.0830547 -1.94523 0
M  V30 5001 H 467.318 2.03782 -3.30647 0
M  V30 5002 H 469.05 1.95913 -3.54119 0
M  V30 5003 H 465.805 0.323356 -4.72495 0
M  V30 5004 H 466.229 -1.50826 -6.59985 0
M  V30 5005 H 470.871 0.162017 -4.22489 0
M  V30 5006 H 468.589 -2.73807 -7.603 0
M  V30 5007 H 472.175 -1.38109 -5.6517 0
M  V30 5008 H 471.055 -2.81143 -7.32071 0
M  V30 5009 N 468.558 1.5553 0.254621 0
M  V30 5010 C 469.835 1.6774 1.00611 0
M  V30 5011 C 470.215 0.555993 2.03647 0
M  V30 5012 O 469.563 -0.441583 2.24193 0
M  V30 5013 C 469.773 3.07725 1.6464 0
M  V30 5014 C 471.121 3.66074 2.15116 0
M  V30 5015 O 472.145 3.10476 1.74595 0
M  V30 5016 O 471.004 4.63526 2.89493 0
M  V30 5017 H 468.098 0.681958 0.467828 0
M  V30 5018 H 470.644 1.67863 0.24902 0
M  V30 5019 H 469.416 3.80792 0.900734 0
M  V30 5020 H 469.039 3.1158 2.46989 0
M  V30 5021 N 470.036 -0.519951 1.48776 0
M  V30 5022 C 470.999 -1.60574 1.6355 0
M  V30 5023 C 471.999 -1.52557 0.508234 0
M  V30 5024 O 473.189 -1.56047 0.774262 0
M  V30 5025 C 470.321 -3.00211 1.61512 0
M  V30 5026 H 471.514 -1.4881 2.60376 0
M  V30 5027 H 469.067 -0.742772 1.37523 0
M  V30 5028 H 469.802 -3.17471 0.662009 0
M  V30 5029 H 469.587 -3.07439 2.43359 0
M  V30 5030 H 471.077 -3.79134 1.75064 0
M  V30 5031 N 471.514 -1.37532 -0.769588 0
M  V30 5032 C 472.461 -1.3347 -1.88293 0
M  V30 5033 C 473.431 -0.199891 -1.64893 0
M  V30 5034 O 474.616 -0.389594 -1.8678 0
M  V30 5035 C 471.756 -1.14968 -3.25387 0
M  V30 5036 C 470.869 -2.37698 -3.60727 0
M  V30 5037 C 470.004 -2.12051 -4.8704 0
M  V30 5038 C 469.043 -3.30636 -5.15117 0
M  V30 5039 N 468.18 -3.04527 -6.3262 0
M  V30 5040 H 473.02 -2.28658 -1.911 0
M  V30 5041 H 470.557 -1.13622 -0.934257 0
M  V30 5042 H 472.515 -1.02261 -4.04473 0
M  V30 5043 H 471.145 -0.234263 -3.21949 0
M  V30 5044 H 470.197 -2.61137 -2.76608 0
M  V30 5045 H 471.509 -3.26131 -3.77413 0
M  V30 5046 H 470.663 -1.96388 -5.74035 0
M  V30 5047 H 469.402 -1.20959 -4.72462 0
M  V30 5048 H 468.407 -3.46836 -4.26597 0
M  V30 5049 H 469.632 -4.22582 -5.31603 0
M  V30 5050 H 467.578 -2.16067 -6.19396 0
M  V30 5051 H 467.495 -3.86503 -6.49732 0
M  V30 5052 H 468.763 -2.92485 -7.22546 0
M  V30 5053 N 472.992 0.995999 -1.22138 0
M  V30 5054 C 473.939 2.08551 -0.988687 0
M  V30 5055 C 474.909 1.65864 0.0885021 0
M  V30 5056 O 476.094 1.90704 -0.0604589 0
M  V30 5057 C 473.234 3.40374 -0.569191 0
M  V30 5058 C 472.347 3.96421 -1.71681 0
M  V30 5059 C 471.482 5.1639 -1.2456 0
M  V30 5060 C 470.521 5.64567 -2.36497 0
M  V30 5061 N 469.658 6.75777 -1.90445 0
M  V30 5062 H 474.498 2.2779 -1.92135 0
M  V30 5063 H 472.035 1.1168 -0.957388 0
M  V30 5064 H 473.993 4.16068 -0.307166 0
M  V30 5065 H 472.623 3.21145 0.326462 0
M  V30 5066 H 471.675 3.17628 -2.09324 0
M  V30 5067 H 472.987 4.2816 -2.55891 0
M  V30 5068 H 472.141 5.99362 -0.940774 0
M  V30 5069 H 470.88 4.86266 -0.373662 0
M  V30 5070 H 469.885 4.80185 -2.67772 0
M  V30 5071 H 471.11 5.96716 -3.24202 0
M  V30 5072 H 469.056 6.47443 -1.05609 0
M  V30 5073 H 468.973 7.06818 -2.68223 0
M  V30 5074 H 470.241 7.62262 -1.63022 0
M  V30 5075 N 474.47 1.03057 1.19235 0
M  V30 5076 C 475.38 0.622922 2.26179 0
M  V30 5077 C 476.396 -0.346113 1.70523 0
M  V30 5078 O 477.572 -0.203572 2.00369 0
M  V30 5079 C 474.637 -0.0182063 3.46695 0
M  V30 5080 C 473.698 0.998546 4.17526 0
M  V30 5081 C 472.931 0.387917 5.32288 0
M  V30 5082 O 473.154 -0.808668 5.64639 0
M  V30 5083 O 472.088 1.1116 5.91546 0
M  V30 5084 H 475.914 1.51363 2.63292 0
M  V30 5085 H 473.499 0.800856 1.26122 0
M  V30 5086 H 475.381 -0.375606 4.19723 0
M  V30 5087 H 474.056 -0.882895 3.11427 0
M  V30 5088 H 472.963 1.40756 3.4661 0
M  V30 5089 H 474.296 1.83366 4.56769 0
M  V30 5090 N 475.948 -1.35272 0.808662 0
M  V30 5091 C 477.173 -2.03477 0.401475 0
M  V30 5092 C 477.598 -1.60537 -0.980279 0
M  V30 5093 O 476.956 -0.78304 -1.63518 0
M  V30 5094 C 477.004 -3.57181 0.495354 0
M  V30 5095 O 476.108 -4.09474 -0.490397 0
M  V30 5096 H 475.449 -0.642561 0.167366 0
M  V30 5097 H 477.979 -1.72824 1.09512 0
M  V30 5098 H 477.989 -4.06356 0.365912 0
M  V30 5099 H 476.664 -3.87784 1.5032 0
M  V30 5100 H 475.241 -3.71516 -0.321023 0
M  V30 5101 N 477.426 -0.562348 -1.47226 0
M  V30 5102 C 478.376 0.202967 -2.27095 0
M  V30 5103 C 479.36 0.880611 -1.34663 0
M  V30 5104 O 480.552 0.778069 -1.58981 0
M  V30 5105 C 477.681 1.22906 -3.20545 0
M  V30 5106 C 476.767 0.554566 -4.20459 0
M  V30 5107 N 477.158 -0.378295 -5.04383 0
M  V30 5108 C 475.456 0.807854 -4.38623 0
M  V30 5109 C 476.157 -0.770583 -5.76573 0
M  V30 5110 N 475.133 -0.124263 -5.43458 0
M  V30 5111 H 478.935 -0.514196 -2.89367 0
M  V30 5112 H 476.449 -0.382655 -1.57827 0
M  V30 5113 H 478.446 1.79134 -3.76453 0
M  V30 5114 H 477.106 1.94726 -2.59831 0
M  V30 5115 H 478.117 -0.75274 -5.124 0
M  V30 5116 H 474.794 1.51418 -3.89075 0
M  V30 5117 H 476.184 -1.53742 -6.54074 0
M  V30 5118 N 478.904 1.54736 -0.299062 0
M  V30 5119 C 480.15 2.01114 0.304123 0
M  V30 5120 C 480.505 1.18376 1.51674 0
M  V30 5121 O 479.798 0.251635 1.8994 0
M  V30 5122 C 479.992 3.50199 0.713835 0
M  V30 5123 C 479.821 4.47366 -0.457531 0
M  V30 5124 C 478.591 4.9631 -0.948933 0
M  V30 5125 C 480.789 4.9755 -1.30186 0
M  V30 5126 N 478.771 5.77327 -2.08726 0
M  V30 5127 C 480.142 5.7625 -2.28771 0
M  V30 5128 C 482.197 4.79739 -1.33246 0
M  V30 5129 C 480.9 6.39036 -3.3019 0
M  V30 5130 C 482.926 5.43343 -2.33521 0
M  V30 5131 C 482.288 6.21874 -3.30836 0
M  V30 5132 H 478.387 0.778318 0.0757992 0
M  V30 5133 H 480.971 1.89925 -0.428536 0
M  V30 5134 H 479.142 3.61681 1.41567 0
M  V30 5135 H 480.874 3.83374 1.29639 0
M  V30 5136 H 477.629 4.7069 -0.52423 0
M  V30 5137 H 478.053 6.22521 -2.66077 0
M  V30 5138 H 482.695 4.18609 -0.59383 0
M  V30 5139 H 480.413 6.99302 -4.04973 0
M  V30 5140 H 483.999 5.31492 -2.3666 0
M  V30 5141 H 482.879 6.70217 -4.07159 0
M  V30 5142 N 480.382 0.0267497 1.57577 0
M  V30 5143 C 481.33 -0.973923 2.11229 0
M  V30 5144 C 482.324 -1.33849 1.03831 0
M  V30 5145 O 483.53 -1.321 1.22269 0
M  V30 5146 H 479.905 -0.331844 0.674821 0
M  V30 5147 H 481.876 -0.496092 2.94247 0
M  V30 5148 C 480.625 -2.24798 2.65257 0
M  V30 5149 H 479.948 -1.9762 3.47543 0
M  V30 5150 H 481.388 -2.93031 3.06445 0
M  V30 5151 C 479.847 -2.97611 1.57891 0
M  V30 5152 O 480.377 -3.89629 0.97735 0
M  V30 5153 N 478.583 -2.59905 1.29992 0
M  V30 5154 H 478.13 -1.85154 1.79097 0
M  V30 5155 H 478.088 -3.08932 0.583798 0
M  V30 5156 N 481.861 -1.55662 -0.24637 0
M  V30 5157 C 483.107 -1.77782 -0.975779 0
M  V30 5158 C 483.44 -0.592103 -1.84953 0
M  V30 5159 O 482.715 0.409588 -1.90138 0
M  V30 5160 C 482.998 -3.09788 -1.83584 0
M  V30 5161 C 482.851 -4.38764 -0.990241 0
M  V30 5162 C 484.17 -3.38029 -2.81823 0
M  V30 5163 H 481.289 -0.646789 -0.353317 0
M  V30 5164 H 483.931 -1.88398 -0.246248 0
M  V30 5165 H 482.081 -3.00869 -2.45784 0
M  V30 5166 H 483.753 -4.59675 -0.386897 0
M  V30 5167 H 481.996 -4.32798 -0.294626 0
M  V30 5168 H 482.667 -5.27514 -1.62584 0
M  V30 5169 H 485.143 -3.46915 -2.2976 0
M  V30 5170 H 484.019 -4.3161 -3.39122 0
M  V30 5171 H 484.28 -2.58968 -3.58313 0
M  V30 5172 N 483.339 0.512053 -1.4905 0
M  V30 5173 C 484.302 1.59704 -1.64399 0
M  V30 5174 C 485.302 1.52285 -0.516317 0
M  V30 5175 O 486.492 1.55635 -0.782527 0
M  V30 5176 C 483.624 2.9935 -1.63102 0
M  V30 5177 H 484.817 1.47428 -2.61161 0
M  V30 5178 H 482.37 0.735469 -1.37915 0
M  V30 5179 H 483.105 3.17116 -0.678836 0
M  V30 5180 H 482.89 3.06144 -2.44986 0
M  V30 5181 H 484.38 3.782 -1.77072 0
M  V30 5182 N 484.817 1.37938 0.762283 0
M  V30 5183 C 486.065 1.33404 1.51815 0
M  V30 5184 C 486.386 -0.0780975 1.94844 0
M  V30 5185 O 485.656 -1.02405 1.67003 0
M  V30 5186 H 484.236 0.490839 0.563104 0
M  V30 5187 H 486.898 1.72527 0.906669 0
M  V30 5188 H 485.994 1.97926 2.41313 0
M  V30 5189 N 486.295 -0.989507 1.22664 0
M  V30 5190 C 487.205 -2.11449 1.01619 0
M  V30 5191 C 488.221 -1.73962 -0.036545 0
M  V30 5192 O 489.397 -2.00788 0.156924 0
M  V30 5193 C 486.462 -3.41465 0.600204 0
M  V30 5194 C 485.523 -3.93033 1.72695 0
M  V30 5195 C 484.756 -5.16844 1.33071 0
M  V30 5196 O 484.979 -5.7001 0.210975 0
M  V30 5197 O 483.913 -5.6225 2.14845 0
M  V30 5198 H 487.739 -2.32088 1.9588 0
M  V30 5199 H 485.324 -1.09823 1.01289 0
M  V30 5200 H 487.206 -4.19695 0.37873 0
M  V30 5201 H 485.881 -3.22178 -0.313511 0
M  V30 5202 H 484.788 -3.15961 2.00298 0
M  V30 5203 H 486.121 -4.16758 2.61865 0
M  V30 5204 N 487.773 -1.03688 -1.18687 0
M  V30 5205 C 489.019 -0.74888 -1.89112 0
M  V30 5206 C 489.374 0.715345 -1.78607 0
M  V30 5207 O 488.667 1.51498 -1.17299 0
M  V30 5208 C 488.861 -1.14477 -3.3857 0
M  V30 5209 C 488.69 -2.64594 -3.63621 0
M  V30 5210 C 487.46 -3.31685 -3.812 0
M  V30 5211 C 489.658 -3.62811 -3.64517 0
M  V30 5212 N 487.64 -4.70822 -3.93955 0
M  V30 5213 C 489.011 -4.87603 -3.8294 0
M  V30 5214 C 491.066 -3.56495 -3.47585 0
M  V30 5215 C 489.769 -6.0684 -3.86184 0
M  V30 5216 C 491.795 -4.75155 -3.52111 0
M  V30 5217 C 491.157 -5.98765 -3.71026 0
M  V30 5218 H 487.256 -0.32603 -0.710794 0
M  V30 5219 H 489.84 -1.3258 -1.42586 0
M  V30 5220 H 488.011 -0.595974 -3.838 0
M  V30 5221 H 489.743 -0.808187 -3.96548 0
M  V30 5222 H 486.498 -2.82091 -3.80423 0
M  V30 5223 H 486.922 -5.43122 -4.04163 0
M  V30 5224 H 491.564 -2.61907 -3.31911 0
M  V30 5225 H 489.282 -7.01788 -4.00648 0
M  V30 5226 H 492.868 -4.71905 -3.40289 0
M  V30 5227 H 491.748 -6.89047 -3.74412 0
M  V30 5228 N 489.251 1.34841 -0.815825 0
M  V30 5229 C 490.476 2.03261 -0.41226 0
M  V30 5230 C 490.901 1.61055 0.971751 0
M  V30 5231 O 490.259 0.7917 1.63101 0
M  V30 5232 C 490.307 3.56914 -0.514289 0
M  V30 5233 O 489.411 4.09728 0.468675 0
M  V30 5234 H 488.752 0.641664 -0.170771 0
M  V30 5235 H 491.282 1.72241 -1.10427 0
M  V30 5236 H 491.292 4.06156 -0.387457 0
M  V30 5237 H 489.967 3.86982 -1.52375 0
M  V30 5238 H 488.544 3.71681 0.301316 0
M  V30 5239 N 490.729 0.570148 1.46925 0
M  V30 5240 C 491.692 -0.159933 2.28641 0
M  V30 5241 C 492.692 -0.830638 1.37685 0
M  V30 5242 O 493.882 -0.684516 1.60187 0
M  V30 5243 C 491.014 -1.2354 3.17727 0
M  V30 5244 H 492.207 0.558035 2.94662 0
M  V30 5245 H 489.76 0.327603 1.52828 0
M  V30 5246 H 490.495 -1.98535 2.56426 0
M  V30 5247 H 490.28 -0.759125 3.84681 0
M  V30 5248 H 491.77 -1.74782 3.79264 0
M  V30 5249 N 492.207 -1.54576 0.307264 0
M  V30 5250 C 493.17 -2.22423 -0.553224 0
M  V30 5251 C 494.17 -1.21231 -1.05639 0
M  V30 5252 O 495.36 -1.45923 -0.951419 0
M  V30 5253 C 492.492 -2.91552 -1.76664 0
M  V30 5254 H 493.685 -2.99874 0.0396484 0
M  V30 5255 H 491.238 -1.56192 0.0581629 0
M  V30 5256 H 491.973 -2.18196 -2.39918 0
M  V30 5257 H 491.758 -3.65738 -1.41343 0
M  V30 5258 H 493.248 -3.43292 -2.37783 0
M  V30 5259 N 493.685 -0.035106 -1.57561 0
M  V30 5260 C 494.615 0.942993 -2.13612 0
M  V30 5261 C 495.596 1.33531 -1.05373 0
M  V30 5262 O 496.781 1.41287 -1.33235 0
M  V30 5263 C 493.911 2.22332 -2.66807 0
M  V30 5264 C 492.865 1.97156 -3.79886 0
M  V30 5265 C 492.191 3.31506 -4.19533 0
M  V30 5266 C 493.491 1.30596 -5.05709 0
M  V30 5267 H 495.185 0.476179 -2.95589 0
M  V30 5268 H 492.731 0.227602 -1.4219 0
M  V30 5269 H 494.684 2.91142 -3.04654 0
M  V30 5270 H 493.408 2.7119 -1.81999 0
M  V30 5271 H 492.067 1.30763 -3.42486 0
M  V30 5272 H 491.715 3.78134 -3.31698 0
M  V30 5273 H 491.415 3.15465 -4.95738 0
M  V30 5274 H 492.939 4.01574 -4.59968 0
M  V30 5275 H 494.353 1.89416 -5.41105 0
M  V30 5276 H 492.75 1.24934 -5.86951 0
M  V30 5277 H 493.82 0.279742 -4.84092 0
M  V30 5278 N 495.163 1.55791 0.238111 0
M  V30 5279 C 496.391 1.82098 0.982233 0
M  V30 5280 C 496.806 0.612025 1.78605 0
M  V30 5281 O 496.163 -0.419381 1.77616 0
M  V30 5282 C 496.214 3.0673 1.91309 0
M  V30 5283 O 495.935 4.2296 1.14179 0
M  V30 5284 C 497.436 3.45903 2.77248 0
M  V30 5285 H 494.656 0.605748 0.288635 0
M  V30 5286 H 497.2 2.02862 0.258341 0
M  V30 5287 H 495.355 2.87991 2.59114 0
M  V30 5288 H 495.769 4.93653 1.7722 0
M  V30 5289 H 497.243 4.36189 3.38295 0
M  V30 5290 H 497.72 2.66891 3.48806 0
M  V30 5291 H 498.326 3.67024 2.14881 0
M  V30 5292 N 496.642 -0.504142 1.49319 0
M  V30 5293 C 497.919 -1.26548 1.49147 0
M  V30 5294 C 498.299 -2.09977 0.21744 0
M  V30 5295 O 497.647 -2.14028 -0.800269 0
M  V30 5296 C 497.857 -2.12489 2.76857 0
M  V30 5297 C 499.205 -2.7178 3.26222 0
M  V30 5298 O 500.229 -2.22758 2.77952 0
M  V30 5299 O 499.088 -3.61015 4.10281 0
M  V30 5300 H 496.182 -0.572495 0.596806 0
M  V30 5301 H 498.728 -0.51867 1.61579 0
M  V30 5302 H 497.5 -1.50796 3.61077 0
M  V30 5303 H 497.123 -2.94368 2.6727 0
M  V30 5304 N 498.12 -1.38341 -0.754957 0
M  V30 5305 C 499.36 -1.35888 -1.52689 0
M  V30 5306 C 499.724 0.0513682 -1.91931 0
M  V30 5307 O 500.925 0.200761 -2.68049 0
M  V30 5308 C 499.196 -2.28666 -2.74676 0
M  V30 5309 S 500.755 -2.4422 -3.64558 0
M  V30 5310 H 497.573 -0.482165 -0.522531 0
M  V30 5311 H 500.175 -1.74253 -0.886358 0
M  V30 5312 H 498.879 -3.30023 -2.43953 0
M  V30 5313 H 498.41 -1.91445 -3.43675 0
M  V30 5314 H 500.425 -1.66525 -4.67423 0
M  V30 5315 N 499.598 0.982988 -1.23187 0
M  V30 5316 C 500.561 2.05649 -1.01198 0
M  V30 5317 C 501.561 1.6078 0.0252464 0
M  V30 5318 O 502.751 1.72878 -0.214243 0
M  V30 5319 C 499.883 3.36744 -0.530656 0
M  V30 5320 H 501.076 2.2659 -1.96461 0
M  V30 5321 H 498.629 1.15602 -1.05195 0
M  V30 5322 H 499.364 3.21492 0.425873 0
M  V30 5323 H 499.149 3.7065 -1.2791 0
M  V30 5324 H 500.639 4.15705 -0.397366 0
M  V30 5325 N 501.076 1.04316 1.18135 0
M  V30 5326 C 502.023 0.636398 2.21853 0
M  V30 5327 C 502.993 -0.357039 1.62217 0
M  V30 5328 O 504.178 -0.250453 1.89149 0
M  V30 5329 C 501.318 0.00812779 3.45099 0
M  V30 5330 C 500.431 1.04933 4.19062 0
M  V30 5331 C 499.566 0.389313 5.29771 0
M  V30 5332 C 498.605 1.41544 5.9551 0
M  V30 5333 N 497.742 0.78021 6.97751 0
M  V30 5334 H 502.582 1.52536 2.56002 0
M  V30 5335 H 500.119 0.76304 1.25762 0
M  V30 5336 H 502.077 -0.373497 4.15525 0
M  V30 5337 H 500.707 -0.844336 3.11562 0
M  V30 5338 H 499.759 1.54888 3.47439 0
M  V30 5339 H 501.071 1.82862 4.64072 0
M  V30 5340 H 500.225 -0.0463805 6.06682 0
M  V30 5341 H 498.964 -0.422038 4.8587 0
M  V30 5342 H 497.969 1.86124 5.17337 0
M  V30 5343 H 499.194 2.22854 6.41493 0
M  V30 5344 H 497.14 -0.0107899 6.55999 0
M  V30 5345 H 497.057 1.49716 7.41027 0
M  V30 5346 H 498.325 0.368996 7.78626 0
M  V30 5347 N 502.554 -1.34406 0.822964 0
M  V30 5348 C 503.8 -1.98999 0.420847 0
M  V30 5349 C 504.155 -1.64067 -1.00498 0
M  V30 5350 O 503.448 -0.902071 -1.69036 0
M  V30 5351 C 503.642 -3.52981 0.560268 0
M  V30 5352 C 503.471 -4.02873 1.99809 0
M  V30 5353 C 502.241 -4.31463 2.62998 0
M  V30 5354 C 504.439 -4.20241 2.96483 0
M  V30 5355 N 502.421 -4.6739 3.9802 0
M  V30 5356 C 503.792 -4.59348 4.16413 0
M  V30 5357 C 505.847 -4.02489 2.93098 0
M  V30 5358 C 504.55 -4.82559 5.33413 0
M  V30 5359 C 506.576 -4.26866 4.09315 0
M  V30 5360 C 505.938 -4.6626 5.27997 0
M  V30 5361 H 502.037 -0.755432 0.202104 0
M  V30 5362 H 504.621 -1.62815 1.06767 0
M  V30 5363 H 502.792 -3.88359 -0.0566596 0
M  V30 5364 H 504.524 -4.04487 0.131146 0
M  V30 5365 H 501.279 -4.22373 2.14238 0
M  V30 5366 H 501.703 -4.89588 4.67582 0
M  V30 5367 H 506.345 -3.71161 2.02483 0
M  V30 5368 H 504.063 -5.12754 6.24587 0
M  V30 5369 H 507.649 -4.14667 4.08096 0
M  V30 5370 H 506.529 -4.84752 6.16429 0
M  V30 5371 N 504.032 -0.577932 -1.46621 0
M  V30 5372 C 504.962 0.145917 -2.33044 0
M  V30 5373 C 505.943 0.888412 -1.45056 0
M  V30 5374 O 507.128 0.864812 -1.73881 0
M  V30 5375 C 504.258 1.16322 -3.27241 0
M  V30 5376 C 503.212 0.535868 -4.24632 0
M  V30 5377 C 502.538 1.65929 -5.08303 0
M  V30 5378 C 503.838 -0.523861 -5.19666 0
M  V30 5379 H 505.532 -0.575636 -2.93814 0
M  V30 5380 H 503.078 -0.278272 -1.41286 0
M  V30 5381 H 505.031 1.67793 -3.86553 0
M  V30 5382 H 503.755 1.91498 -2.64567 0
M  V30 5383 H 502.414 0.0422759 -3.66576 0
M  V30 5384 H 502.062 2.40061 -4.42018 0
M  V30 5385 H 501.762 1.2452 -5.74255 0
M  V30 5386 H 503.286 2.17686 -5.70478 0
M  V30 5387 H 504.7 -0.0944059 -5.73222 0
M  V30 5388 H 503.097 -0.858 -5.93935 0
M  V30 5389 H 504.167 -1.41197 -4.63887 0
M  V30 5390 N 505.51 1.54411 -0.315457 0
M  V30 5391 C 506.458 2.25514 0.569771 0
M  V30 5392 C 507.452 1.2663 1.12522 0
M  V30 5393 O 508.658 1.44434 1.07419 0
M  V30 5394 H 505.033 0.724257 0.202376 0
M  V30 5395 H 507.004 2.98354 -0.0522895 0
M  V30 5396 C 505.753 3.02004 1.72305 0
M  V30 5397 H 505.076 3.77906 1.30488 0
M  V30 5398 H 506.516 3.55014 2.31821 0
M  V30 5399 C 504.975 2.09822 2.63583 0
M  V30 5400 O 505.505 1.67574 3.65078 0
M  V30 5401 N 503.711 1.75478 2.31637 0
M  V30 5402 H 503.258 2.10032 1.49145 0
M  V30 5403 H 503.216 1.14079 2.92973 0
M  V30 5404 N 506.988 0.0434614 1.5754 0
M  V30 5405 C 508.236 -0.630786 1.92004 0
M  V30 5406 C 508.557 -1.71836 0.921807 0
M  V30 5407 O 507.827 -1.9587 -0.034522 0
M  V30 5408 H 506.407 -0.235988 0.708745 0
M  V30 5409 H 509.069 0.0946462 1.9467 0
M  V30 5410 H 508.165 -1.07434 2.93026 0
M  V30 5411 N 508.466 -1.55915 -0.229846 0
M  V30 5412 C 509.712 -1.78807 -0.956868 0
M  V30 5413 C 510.045 -0.611687 -1.84315 0
M  V30 5414 O 509.32 0.389398 -1.90562 0
M  V30 5415 C 509.603 -3.11718 -1.80288 0
M  V30 5416 C 509.456 -4.3979 -0.943649 0
M  V30 5417 C 510.775 -3.40999 -2.78222 0
M  V30 5418 H 507.894 -0.6505 -0.346437 0
M  V30 5419 H 510.536 -1.88648 -0.226252 0
M  V30 5420 H 508.686 -3.03459 -2.42579 0
M  V30 5421 H 510.358 -4.60059 -0.338121 0
M  V30 5422 H 508.601 -4.33086 -0.248705 0
M  V30 5423 H 509.272 -5.29208 -1.5698 0
M  V30 5424 H 511.748 -3.49332 -2.26067 0
M  V30 5425 H 510.624 -4.35183 -3.34526 0
M  V30 5426 H 510.885 -2.62754 -3.55546 0
M  V30 5427 N 509.944 0.496216 -1.49584 0
M  V30 5428 C 510.892 1.61805 -1.67098 0
M  V30 5429 C 511.886 1.60667 -0.536877 0
M  V30 5430 O 513.092 1.65118 -0.716654 0
M  V30 5431 H 509.467 0.53646 -0.526986 0
M  V30 5432 H 511.438 1.44187 -2.61252 0
M  V30 5433 C 510.187 2.99912 -1.75921 0
M  V30 5434 H 509.51 3.01496 -2.62565 0
M  V30 5435 H 510.95 3.77931 -1.92209 0
M  V30 5436 C 509.409 3.33092 -0.505088 0
M  V30 5437 O 509.939 4.00019 0.367085 0
M  V30 5438 N 508.145 2.88278 -0.366599 0
M  V30 5439 H 507.692 2.33989 -1.07735 0
M  V30 5440 H 507.65 3.10846 0.47142 0
M  V30 5441 N 511.423 1.38739 0.74761 0
M  V30 5442 C 512.839 1.20067 1.05148 0
M  V30 5443 C 513.039 0.0534835 2.01429 0
M  V30 5444 O 512.095 -0.59886 2.45296 0
M  V30 5445 C 513.408 2.52957 1.62584 0
M  V30 5446 C 514.956 2.59692 1.74726 0
M  V30 5447 C 515.431 3.92772 2.35573 0
M  V30 5448 N 516.922 3.94343 2.42997 0
M  V30 5449 C 517.657 4.9408 2.90985 0
M  V30 5450 N 517.153 6.04214 3.38965 0
M  V30 5451 N 518.946 4.81466 2.9008 0
M  V30 5452 H 511.097 2.12121 0.108808 0
M  V30 5453 H 513.36 0.941491 0.110899 0
M  V30 5454 H 513.066 3.37389 0.993051 0
M  V30 5455 H 512.94 2.71779 2.61565 0
M  V30 5456 H 515.327 1.75651 2.3713 0
M  V30 5457 H 515.408 2.44731 0.744326 0
M  V30 5458 H 515.052 4.77238 1.738 0
M  V30 5459 H 514.982 4.05046 3.36519 0
M  V30 5460 H 517.473 3.14799 2.0907 0
M  V30 5461 H 517.786 6.76241 3.74056 0
M  V30 5462 H 516.131 6.07825 3.37007 0
M  V30 5463 H 519.322 3.94535 2.51912 0
M  V30 5464 H 519.495 5.59344 3.27166 0
M  V30 5465 N 512.901 -0.976442 1.23707 0
M  V30 5466 C 514.149 -1.71487 1.06942 0
M  V30 5467 C 514.47 -1.9098 -0.393897 0
M  V30 5468 O 513.74 -1.48128 -1.28198 0
M  V30 5469 H 512.32 -0.635425 0.392739 0
M  V30 5470 H 514.982 -1.17515 1.55487 0
M  V30 5471 H 514.078 -2.70286 1.56051 0
M  V30 5472 N 514.379 -1.04941 -1.1758 0
M  V30 5473 C 515.342 -0.652456 -2.19717 0
M  V30 5474 C 516.342 0.294745 -1.58076 0
M  V30 5475 O 517.532 0.0789579 -1.74021 0
M  V30 5476 C 514.664 0.0420712 -3.40874 0
M  V30 5477 H 515.857 -1.55642 -2.5635 0
M  V30 5478 H 513.41 -0.842995 -1.31618 0
M  V30 5479 H 514.145 0.95943 -3.09783 0
M  V30 5480 H 513.93 -0.638844 -3.86861 0
M  V30 5481 H 515.42 0.306 -4.16477 0
M  V30 5482 N 515.857 1.33968 -0.830081 0
M  V30 5483 C 517.273 1.51003 -0.516742 0
M  V30 5484 C 517.473 1.77286 0.957694 0
M  V30 5485 O 516.529 1.82797 1.74188 0
M  V30 5486 C 517.842 2.67036 -1.38247 0
M  V30 5487 C 519.39 2.80919 -1.38034 0
M  V30 5488 C 519.865 4.00004 -2.23071 0
M  V30 5489 N 521.356 4.07224 -2.20733 0
M  V30 5490 C 522.091 4.98541 -2.83275 0
M  V30 5491 N 521.587 5.95033 -3.54835 0
M  V30 5492 N 523.38 4.91469 -2.72791 0
M  V30 5493 H 515.531 1.15168 -1.78466 0
M  V30 5494 H 517.794 0.565443 -0.760906 0
M  V30 5495 H 517.5 2.54266 -2.42985 0
M  V30 5496 H 517.374 3.62226 -1.05225 0
M  V30 5497 H 519.761 2.93127 -0.340713 0
M  V30 5498 H 519.842 1.86517 -1.75057 0
M  V30 5499 H 519.486 3.88557 -3.27087 0
M  V30 5500 H 519.416 4.93634 -1.83394 0
M  V30 5501 H 521.907 3.38162 -1.68687 0
M  V30 5502 H 522.22 6.61357 -3.99784 0
M  V30 5503 H 520.565 5.95135 -3.58942 0
M  V30 5504 H 523.756 4.15048 -2.16456 0
M  V30 5505 H 523.929 5.62439 -3.21818 0
M  V30 5506 N 517.335 0.585699 1.46312 0
M  V30 5507 C 518.565 0.0780166 2.06453 0
M  V30 5508 C 518.973 -1.2336 1.43454 0
M  V30 5509 O 518.316 -1.75734 0.535086 0
M  V30 5510 C 518.378 -0.158951 3.59148 0
M  V30 5511 C 518.042 1.06752 4.44357 0
M  V30 5512 C 519.039 1.98031 4.80708 0
M  V30 5513 C 516.724 1.2902 4.85447 0
M  V30 5514 C 518.718 3.09924 5.5698 0
M  V30 5515 C 516.405 2.41218 5.61478 0
M  V30 5516 C 517.403 3.31499 5.97158 0
M  V30 5517 O 517.091 4.41747 6.71651 0
M  V30 5518 H 516.823 0.0558894 0.673686 0
M  V30 5519 H 519.377 0.806994 1.88883 0
M  V30 5520 H 517.607 -0.942575 3.75037 0
M  V30 5521 H 519.296 -0.615513 4.01206 0
M  V30 5522 H 520.062 1.82043 4.49539 0
M  V30 5523 H 515.941 0.596567 4.57124 0
M  V30 5524 H 519.485 3.80415 5.84748 0
M  V30 5525 H 515.382 2.57167 5.9206 0
M  V30 5526 H 516.15 4.40152 6.90079 0
M  V30 5527 N 518.813 -1.54241 0.323641 0
M  V30 5528 C 519.723 -2.28033 -0.551205 0
M  V30 5529 C 520.739 -1.32388 -1.12913 0
M  V30 5530 O 521.915 -1.65403 -1.14908 0
M  V30 5531 C 518.98 -3.02382 -1.69606 0
M  V30 5532 C 518.041 -4.13612 -1.14993 0
M  V30 5533 C 517.274 -4.84407 -2.24022 0
M  V30 5534 O 517.497 -4.54716 -3.44368 0
M  V30 5535 O 516.431 -5.71312 -1.89436 0
M  V30 5536 H 520.257 -3.03662 0.048066 0
M  V30 5537 H 517.842 -1.49133 0.0893289 0
M  V30 5538 H 519.724 -3.48941 -2.36259 0
M  V30 5539 H 518.399 -2.29628 -2.28151 0
M  V30 5540 H 517.306 -3.71402 -0.448484 0
M  V30 5541 H 518.639 -4.8841 -0.609608 0
M  V30 5542 N 520.291 -0.0518155 -1.57515 0
M  V30 5543 C 521.539 0.620595 -1.92336 0
M  V30 5544 C 521.86 1.71345 -0.930907 0
M  V30 5545 O 521.13 1.95885 0.0241341 0
M  V30 5546 H 519.71 0.232226 -0.709986 0
M  V30 5547 H 522.372 -0.104969 -1.94617 0
M  V30 5548 H 521.468 1.05879 -2.93592 0
M  V30 5549 N 521.769 1.56035 0.221574 0
M  V30 5550 C 522.732 1.91584 1.2581 0
M  V30 5551 C 523.732 0.794425 1.39805 0
M  V30 5552 O 524.922 1.06217 1.38071 0
M  V30 5553 C 522.054 2.16663 2.63192 0
M  V30 5554 H 523.247 2.8429 0.954935 0
M  V30 5555 H 520.8 1.49316 0.461988 0
M  V30 5556 H 521.535 1.26508 2.98607 0
M  V30 5557 H 521.32 2.98358 2.5441 0
M  V30 5558 H 522.81 2.45262 3.37988 0
M  V30 5559 N 523.247 -0.488276 1.49845 0
M  V30 5560 C 524.477 -1.26344 1.63465 0
M  V30 5561 C 524.885 -1.86637 0.310379 0
M  V30 5562 O 524.228 -1.69184 -0.715712 0
M  V30 5563 C 524.29 -2.42407 2.65479 0
M  V30 5564 C 523.954 -2.02886 4.09495 0
M  V30 5565 C 524.951 -1.56124 4.95904 0
M  V30 5566 C 522.636 -2.12131 4.55308 0
M  V30 5567 C 524.63 -1.19129 6.26169 0
M  V30 5568 C 522.317 -1.74747 5.85582 0
M  V30 5569 C 523.315 -1.28322 6.70837 0
M  V30 5570 O 523.003 -0.914491 7.98682 0
M  V30 5571 H 522.735 -0.388921 0.552916 0
M  V30 5572 H 525.289 -0.591288 1.96705 0
M  V30 5573 H 523.519 -3.12739 2.27445 0
M  V30 5574 H 525.208 -3.04409 2.68495 0
M  V30 5575 H 525.974 -1.48417 4.61733 0
M  V30 5576 H 521.853 -2.47217 3.89107 0
M  V30 5577 H 525.397 -0.828211 6.92666 0
M  V30 5578 H 521.294 -1.82109 6.19279 0
M  V30 5579 H 522.062 -1.04485 8.11804 0
M  V30 5580 N 524.725 -1.39134 -0.740242 0
M  V30 5581 C 526.002 -1.26584 -1.49117 0
M  V30 5582 C 526.382 0.126902 -2.10718 0
M  V30 5583 O 525.73 1.13765 -1.98166 0
M  V30 5584 C 525.94 -2.38619 -2.54681 0
M  V30 5585 C 527.288 -2.77685 -3.21211 0
M  V30 5586 O 528.312 -2.38029 -2.64991 0
M  V30 5587 O 527.171 -3.46115 -4.22926 0
M  V30 5588 H 524.265 -0.495769 -0.661923 0
M  V30 5589 H 526.811 -1.50995 -0.774514 0
M  V30 5590 H 525.583 -3.3175 -2.07504 0
M  V30 5591 H 525.206 -2.15845 -3.33911 0
M  V30 5592 N 526.204 0.969867 -1.24223 0
M  V30 5593 C 527.152 2.08535 -1.03034 0
M  V30 5594 C 528.146 1.69366 0.0340379 0
M  V30 5595 O 529.352 1.79597 -0.12034 0
M  V30 5596 H 525.727 0.682313 -0.316154 0
M  V30 5597 H 527.698 2.23569 -1.97635 0
M  V30 5598 C 526.447 3.4158 -0.649509 0
M  V30 5599 H 525.77 3.72177 -1.46028 0
M  V30 5600 H 527.21 4.20536 -0.540841 0
M  V30 5601 C 525.669 3.30703 0.643194 0
M  V30 5602 O 526.199 3.64443 1.68951 0
M  V30 5603 N 524.405 2.83841 0.623095 0
M  V30 5604 H 523.952 2.56583 -0.228719 0
M  V30 5605 H 523.91 2.76946 1.48823 0
M  V30 5606 N 527.682 1.05563 1.17022 0
M  V30 5607 C 528.645 0.664098 2.19368 0
M  V30 5608 C 529.645 -0.286358 1.5823 0
M  V30 5609 O 530.835 -0.069728 1.7406 0
M  V30 5610 C 527.967 -0.0239932 3.40892 0
M  V30 5611 H 529.16 1.57 2.55521 0
M  V30 5612 H 526.713 0.849964 1.31169 0
M  V30 5613 H 527.448 -0.942988 3.10287 0
M  V30 5614 H 527.233 0.659351 3.86516 0
M  V30 5615 H 528.723 -0.283909 4.16634 0
M  V30 5616 N 529.16 -1.33526 0.837174 0
M  V30 5617 C 530.571 -1.80182 0.489017 0
M  V30 5618 C 530.922 -1.69285 -0.991826 0
M  V30 5619 O 530.047 -1.24113 -1.77271 0
M  V30 5620 C 530.642 -3.27149 0.880866 0
M  V30 5621 C 529.201 -3.71828 0.584872 0
M  V30 5622 C 528.348 -2.54974 1.09011 0
M  V30 5623 H 531.299 -1.21071 1.02603 0
M  V30 5624 H 531.32 -3.80024 0.190239 0
M  V30 5625 H 530.832 -3.35048 1.95869 0
M  V30 5626 H 528.933 -3.69457 -0.48295 0
M  V30 5627 H 529.046 -4.65366 1.13892 0
M  V30 5628 H 527.41 -2.4952 0.511047 0
M  V30 5629 H 528.193 -2.65637 2.17467 0
M  V30 5630 N 530.638 -0.59345 -1.46 0
M  V30 5631 C 531.868 -0.0889642 -2.06408 0
M  V30 5632 C 532.276 1.22597 -1.44106 0
M  V30 5633 O 531.619 1.75448 -0.544398 0
M  V30 5634 C 531.681 0.139902 -3.59228 0
M  V30 5635 C 531.345 -1.09107 -4.43784 0
M  V30 5636 C 532.342 -2.00577 -4.79651 0
M  V30 5637 C 530.027 -1.31593 -4.84756 0
M  V30 5638 C 532.021 -3.12873 -5.55328 0
M  V30 5639 C 529.708 -2.44192 -5.60191 0
M  V30 5640 C 530.706 -3.34661 -5.95392 0
M  V30 5641 O 530.394 -4.45302 -6.69299 0
M  V30 5642 H 530.126 -0.0594613 -0.67338 0
M  V30 5643 H 532.68 -0.817 -1.88452 0
M  V30 5644 H 530.91 0.922672 -3.75531 0
M  V30 5645 H 532.599 0.594228 -4.01527 0
M  V30 5646 H 533.365 -1.84425 -4.48567 0
M  V30 5647 H 529.244 -0.620801 -4.56801 0
M  V30 5648 H 532.788 -3.83511 -5.82722 0
M  V30 5649 H 528.685 -2.60303 -5.90688 0
M  V30 5650 H 529.453 -4.43805 -6.87735 0
M  V30 5651 N 532.116 1.54067 -0.331816 0
M  V30 5652 C 533.365 1.99895 0.269209 0
M  V30 5653 C 533.678 1.22371 1.52593 0
M  V30 5654 O 534.884 1.58618 2.20347 0
M  V30 5655 C 533.34 3.55972 0.530244 0
M  V30 5656 C 532.948 4.4234 -0.709901 0
M  V30 5657 C 534.692 4.10247 1.09077 0
M  V30 5658 C 532.599 5.89905 -0.420312 0
M  V30 5659 H 531.529 0.746741 0.104371 0
M  V30 5660 H 534.18 1.78014 -0.445324 0
M  V30 5661 H 532.562 3.73873 1.30518 0
M  V30 5662 H 533.736 4.36215 -1.48504 0
M  V30 5663 H 532.051 3.98997 -1.19123 0
M  V30 5664 H 534.648 5.18095 1.32219 0
M  V30 5665 H 534.991 3.62739 2.0427 0
M  V30 5666 H 535.524 3.96011 0.376824 0
M  V30 5667 H 532.263 6.41623 -1.34164 0
M  V30 5668 H 531.783 5.98962 0.316962 0
M  V30 5669 H 533.462 6.46991 -0.0331956 0
M  V30 5670 N 533.594 0.0601682 1.57485 0
M  V30 5671 C 534.842 -0.610386 1.92662 0
M  V30 5672 C 535.163 -1.70849 0.939981 0
M  V30 5673 O 534.433 -1.95895 -0.0137455 0
M  V30 5674 H 533.013 -0.228457 0.711208 0
M  V30 5675 H 535.675 0.115288 1.94559 0
M  V30 5676 H 534.771 -1.0432 2.94149 0
M  V30 5677 N 535.072 -1.5615 -0.213296 0
M  V30 5678 C 536.297 -1.83986 -0.957282 0
M  V30 5679 C 536.722 -0.641526 -1.76822 0
M  V30 5680 O 536.08 0.409722 -1.7661 0
M  V30 5681 C 536.128 -3.09889 -1.84393 0
M  V30 5682 O 535.232 -2.89163 -2.94038 0
M  V30 5683 H 534.573 -0.606357 -0.270605 0
M  V30 5684 H 537.103 -2.03369 -0.224111 0
M  V30 5685 H 537.113 -3.40209 -2.25215 0
M  V30 5686 H 535.788 -3.96735 -1.24795 0
M  V30 5687 H 534.365 -2.70097 -2.57103 0
M  V30 5688 N 536.55 0.480323 -1.50102 0
M  V30 5689 C 537.79 1.24301 -1.62261 0
M  V30 5690 C 538.154 1.89452 -0.311758 0
M  V30 5691 O 539.355 2.67022 -0.308696 0
M  V30 5692 C 537.626 2.26588 -2.76392 0
M  V30 5693 S 539.185 3.11919 -3.08629 0
M  V30 5694 H 536.003 0.42215 -0.57211 0
M  V30 5695 H 538.605 0.541591 -1.87848 0
M  V30 5696 H 537.309 1.7729 -3.70131 0
M  V30 5697 H 536.84 3.01371 -2.52862 0
M  V30 5698 H 538.855 4.27598 -2.51742 0
M  V30 5699 N 538.028 1.39524 0.732853 0
M  V30 5700 C 538.96 1.34318 1.85718 0
M  V30 5701 C 539.973 0.251576 1.60844 0
M  V30 5702 O 541.162 0.510685 1.71039 0
M  V30 5703 C 538.262 1.06334 3.21786 0
M  V30 5704 C 537.435 2.26813 3.73998 0
M  V30 5705 C 536.494 1.95253 4.88634 0
M  V30 5706 O 535.52 2.67957 5.02183 0
M  V30 5707 N 536.722 0.919984 5.73164 0
M  V30 5708 H 539.487 2.3121 1.90688 0
M  V30 5709 H 537.048 1.33654 0.91368 0
M  V30 5710 H 539.04 0.832363 3.96048 0
M  V30 5711 H 537.61 0.181682 3.12072 0
M  V30 5712 H 536.83 2.65849 2.91064 0
M  V30 5713 H 538.118 3.0717 4.05616 0
M  V30 5714 H 537.516 0.317487 5.64808 0
M  V30 5715 H 536.073 0.748905 6.47483 0
M  V30 5716 N 539.506 -0.963266 1.24736 0
M  V30 5717 C 540.917 -1.52145 1.08207 0
M  V30 5718 C 541.268 -1.93142 -0.345061 0
M  V30 5719 O 540.393 -1.77769 -1.23399 0
M  V30 5720 C 540.988 -2.76486 1.95808 0
M  V30 5721 C 539.547 -3.28646 1.8349 0
M  V30 5722 C 538.694 -2.01529 1.90476 0
M  V30 5723 H 541.645 -0.781083 1.38148 0
M  V30 5724 H 541.666 -3.49986 1.49297 0
M  V30 5725 H 541.178 -2.46617 2.99669 0
M  V30 5726 H 539.279 -3.63357 0.824787 0
M  V30 5727 H 539.392 -3.97246 2.67829 0
M  V30 5728 H 537.756 -2.16442 1.34258 0
M  V30 5729 H 538.539 -1.7402 2.95926 0
M  V30 5730 N 540.985 -1.06182 -1.16461 0
M  V30 5731 C 541.915 -0.692861 -2.22984 0
M  V30 5732 C 542.896 0.314122 -1.67174 0
M  V30 5733 O 544.081 0.189499 -1.93273 0
M  V30 5734 C 541.211 -0.07732 -3.47214 0
M  V30 5735 C 540.165 -1.01015 -4.15909 0
M  V30 5736 C 539.491 -0.257973 -5.34077 0
M  V30 5737 C 540.791 -2.33868 -4.67015 0
M  V30 5738 H 542.485 -1.58343 -2.54102 0
M  V30 5739 H 540.031 -0.76279 -1.22137 0
M  V30 5740 H 541.984 0.19266 -4.20959 0
M  V30 5741 H 540.708 0.848254 -3.15392 0
M  V30 5742 H 539.367 -1.26486 -3.44088 0
M  V30 5743 H 539.015 0.670684 -4.98509 0
M  V30 5744 H 538.715 -0.879638 -5.80979 0
M  V30 5745 H 540.239 0.00448788 -6.106 0
M  V30 5746 H 541.653 -2.1279 -5.32347 0
M  V30 5747 H 540.05 -2.91522 -5.24533 0
M  V30 5748 H 541.12 -2.97019 -3.83286 0
M  V30 5749 N 542.463 1.3308 -0.844243 0
M  V30 5750 C 543.393 2.3161 -0.296493 0
M  V30 5751 C 544.374 1.59215 0.598707 0
M  V30 5752 O 545.559 1.87077 0.521134 0
M  V30 5753 C 542.689 3.43313 0.524762 0
M  V30 5754 C 541.643 4.27115 -0.275106 0
M  V30 5755 C 540.969 5.30483 0.670236 0
M  V30 5756 C 542.269 5.00443 -1.49514 0
M  V30 5757 H 543.963 2.77672 -1.11976 0
M  V30 5758 H 541.509 1.33496 -0.539899 0
M  V30 5759 H 543.462 4.11273 0.918298 0
M  V30 5760 H 542.186 2.95952 1.3813 0
M  V30 5761 H 540.845 3.60787 -0.650267 0
M  V30 5762 H 540.493 4.79379 1.52332 0
M  V30 5763 H 540.193 5.87435 0.139123 0
M  V30 5764 H 541.717 6.01308 1.06117 0
M  V30 5765 H 543.131 5.61141 -1.17447 0
M  V30 5766 H 541.528 5.67071 -1.96343 0
M  V30 5767 H 542.598 4.28906 -2.26202 0
M  V30 5768 N 543.941 0.601185 1.45683 0
M  V30 5769 C 545.218 0.0261659 1.95582 0
M  V30 5770 C 545.598 -1.4399 1.5437 0
M  V30 5771 O 544.946 -2.13919 0.80318 0
M  V30 5772 C 545.156 0.217557 3.48321 0
M  V30 5773 C 546.504 0.0950076 4.24494 0
M  V30 5774 O 547.528 0.147345 3.55895 0
M  V30 5775 O 546.387 -0.025261 5.46494 0
M  V30 5776 H 543.481 -0.0393688 0.826062 0
M  V30 5777 H 546.027 0.670798 1.55879 0
M  V30 5778 H 544.799 1.23601 3.71266 0
M  V30 5779 H 544.422 -0.46264 3.94899 0
M  V30 5780 N 545.419 -1.53889 0.339982 0
M  V30 5781 C 546.668 -2.00035 -0.258604 0
M  V30 5782 C 546.981 -1.23179 -1.51942 0
M  V30 5783 O 548.187 -1.59784 -2.19503 0
M  V30 5784 C 546.643 -3.56249 -0.511359 0
M  V30 5785 C 546.251 -4.41957 0.733349 0
M  V30 5786 C 547.995 -4.1082 -1.069 0
M  V30 5787 C 545.902 -5.89673 0.451591 0
M  V30 5788 H 544.832 -0.747284 -0.10041 0
M  V30 5789 H 547.483 -1.77776 0.454758 0
M  V30 5790 H 545.865 -3.7456 -1.28533 0
M  V30 5791 H 547.039 -4.35421 1.50815 0
M  V30 5792 H 545.354 -3.9836 1.21237 0
M  V30 5793 H 547.951 -5.18789 -1.2947 0
M  V30 5794 H 548.294 -3.63817 -2.02343 0
M  V30 5795 H 548.827 -3.96205 -0.355817 0
M  V30 5796 H 545.566 -6.40903 1.37565 0
M  V30 5797 H 545.086 -5.99122 -0.285193 0
M  V30 5798 H 546.765 -6.46965 0.0675067 0
M  V30 5799 N 546.897 -0.0685191 -1.57451 0
M  V30 5800 C 548.122 0.613919 -1.98106 0
M  V30 5801 C 548.547 1.62551 -0.946501 0
M  V30 5802 O 547.905 1.81085 0.0882824 0
M  V30 5803 C 547.953 1.26189 -3.378 0
M  V30 5804 O 547.057 2.37773 -3.36954 0
M  V30 5805 H 546.398 0.158163 -0.644888 0
M  V30 5806 H 548.928 -0.142063 -2.04106 0
M  V30 5807 H 548.938 1.60951 -3.74912 0
M  V30 5808 H 547.613 0.520625 -4.12629 0
M  V30 5809 H 546.19 2.04829 -3.11608 0
M  V30 5810 N 548.375 1.56261 0.205012 0
M  V30 5811 C 549.307 1.90266 1.27795 0
M  V30 5812 C 550.32 0.792397 1.42214 0
M  V30 5813 O 551.509 1.07077 1.42817 0
M  V30 5814 C 548.609 2.11074 2.65143 0
M  V30 5815 C 547.782 3.42176 2.7246 0
M  V30 5816 C 546.841 3.52216 3.90936 0
M  V30 5817 O 545.867 4.25119 3.78501 0
M  V30 5818 N 547.069 2.84573 5.05963 0
M  V30 5819 H 549.834 2.82896 0.989434 0
M  V30 5820 H 547.395 1.57008 0.394981 0
M  V30 5821 H 549.387 2.15089 3.4281 0
M  V30 5822 H 547.957 1.2499 2.86524 0
M  V30 5823 H 547.177 3.50116 1.81142 0
M  V30 5824 H 548.465 4.28509 2.74331 0
M  V30 5825 H 547.863 2.25152 5.18963 0
M  V30 5826 H 546.42 2.94228 5.81613 0
M  V30 5827 N 549.853 -0.472356 1.50355 0
M  V30 5828 C 551.099 -1.22348 1.62488 0
M  V30 5829 C 551.454 -1.89711 0.320574 0
M  V30 5830 O 550.747 -1.79074 -0.68141 0
M  V30 5831 C 550.941 -2.29257 2.74182 0
M  V30 5832 C 550.77 -1.72383 4.15348 0
M  V30 5833 C 549.54 -1.52411 4.81766 0
M  V30 5834 C 551.738 -1.21949 4.99633 0
M  V30 5835 N 549.72 -0.907669 6.07153 0
M  V30 5836 C 551.091 -0.726191 6.15732 0
M  V30 5837 C 553.146 -1.10792 4.85417 0
M  V30 5838 C 551.849 -0.132322 7.19178 0
M  V30 5839 C 553.875 -0.52799 5.89038 0
M  V30 5840 C 553.237 -0.0450604 7.04386 0
M  V30 5841 H 549.336 -0.436631 0.648751 0
M  V30 5842 H 551.92 -0.525698 1.87469 0
M  V30 5843 H 550.091 -2.96464 2.50926 0
M  V30 5844 H 551.823 -2.9628 2.75681 0
M  V30 5845 H 548.578 -1.776 4.39039 0
M  V30 5846 H 549.002 -0.617897 6.74174 0
M  V30 5847 H 553.644 -1.46722 3.96525 0
M  V30 5848 H 551.362 0.239187 8.07746 0
M  V30 5849 H 554.948 -0.444046 5.80103 0
M  V30 5850 H 553.828 0.396659 7.83196 0
M  V30 5851 N 551.331 -1.39911 -0.725443 0
M  V30 5852 C 552.556 -1.41137 -1.5197 0
M  V30 5853 C 552.981 -0.010262 -1.88097 0
M  V30 5854 O 552.339 0.979184 -1.52583 0
M  V30 5855 C 552.387 -2.2994 -2.77777 0
M  V30 5856 O 551.491 -1.73586 -3.74088 0
M  V30 5857 H 550.832 -0.480219 -0.458569 0
M  V30 5858 H 553.362 -1.84023 -0.894249 0
M  V30 5859 H 553.372 -2.44785 -3.26411 0
M  V30 5860 H 552.047 -3.31759 -2.50816 0
M  V30 5861 H 550.624 -1.68035 -3.32894 0
M  V30 5862 N 552.809 0.956637 -1.25245 0
M  V30 5863 C 554.086 1.67716 -1.00651 0
M  V30 5864 C 554.466 2.0585 0.467866 0
M  V30 5865 O 553.814 1.77029 1.44475 0
M  V30 5866 C 554.024 2.90093 -1.94028 0
M  V30 5867 C 555.372 3.6209 -2.21756 0
M  V30 5868 O 556.396 3.00171 -1.9177 0
M  V30 5869 O 555.255 4.7358 -2.72735 0
M  V30 5870 H 552.349 0.733731 -0.381533 0
M  V30 5871 H 554.895 1.00974 -1.3639 0
M  V30 5872 H 553.667 2.58689 -2.93591 0
M  V30 5873 H 553.29 3.64566 -1.58674 0
M  V30 5874 N 554.287 1.06798 1.15896 0
M  V30 5875 C 555.197 0.694564 2.24083 0
M  V30 5876 C 556.213 -0.291687 1.71538 0
M  V30 5877 O 557.389 -0.139723 2.00915 0
M  V30 5878 C 554.454 0.0921014 3.46578 0
M  V30 5879 C 553.515 1.13087 4.14137 0
M  V30 5880 C 552.748 0.557064 5.30785 0
M  V30 5881 O 552.971 -0.628623 5.66925 0
M  V30 5882 O 551.905 1.29924 5.8771 0
M  V30 5883 H 555.731 1.59663 2.58344 0
M  V30 5884 H 553.316 0.840575 1.2351 0
M  V30 5885 H 555.198 -0.241884 4.20705 0
M  V30 5886 H 553.873 -0.78337 3.14078 0
M  V30 5887 H 552.78 1.51712 3.41957 0
M  V30 5888 H 554.113 1.97805 4.50704 0
M  V30 5889 N 555.766 -1.3263 0.851289 0
M  V30 5890 C 556.716 -2.26451 0.265302 0
M  V30 5891 C 557.7 -1.49814 -0.586899 0
M  V30 5892 O 558.892 -1.71525 -0.436834 0
M  V30 5893 C 556.021 -3.38895 -0.548212 0
M  V30 5894 C 555.107 -4.2292 0.316189 0
M  V30 5895 N 555.498 -4.86014 1.40084 0
M  V30 5896 C 553.796 -4.45876 0.105356 0
M  V30 5897 C 554.497 -5.48667 1.93235 0
M  V30 5898 N 553.473 -5.29455 1.232 0
M  V30 5899 H 557.275 -2.72757 1.09457 0
M  V30 5900 H 554.789 -1.4668 0.697047 0
M  V30 5901 H 556.786 -4.05111 -0.984402 0
M  V30 5902 H 555.446 -2.94135 -1.37531 0
M  V30 5903 H 556.457 -4.86212 1.78377 0
M  V30 5904 H 553.134 -4.11804 -0.687299 0
M  V30 5905 H 554.524 -6.08865 2.84135 0
M  V30 5906 N 557.244 -0.608902 -1.45362 0
M  V30 5907 C 558.191 0.109172 -2.30542 0
M  V30 5908 C 559.161 0.858704 -1.42181 0
M  V30 5909 O 560.346 0.844178 -1.71109 0
M  V30 5910 C 557.486 1.09971 -3.27109 0
M  V30 5911 C 556.599 0.350911 -4.30572 0
M  V30 5912 C 555.734 1.33129 -5.14247 0
M  V30 5913 C 554.773 0.570377 -6.09437 0
M  V30 5914 N 553.91 1.5001 -6.85887 0
M  V30 5915 H 558.75 -0.623195 -2.91411 0
M  V30 5916 H 556.287 -0.319122 -1.43597 0
M  V30 5917 H 558.245 1.68714 -3.81564 0
M  V30 5918 H 556.875 1.79947 -2.67991 0
M  V30 5919 H 555.927 -0.352054 -3.78767 0
M  V30 5920 H 557.239 -0.242725 -4.98209 0
M  V30 5921 H 556.393 1.99074 -5.73109 0
M  V30 5922 H 555.132 1.95885 -4.46632 0
M  V30 5923 H 554.137 -0.102702 -5.49704 0
M  V30 5924 H 555.362 -0.0521607 -6.7908 0
M  V30 5925 H 553.308 2.11529 -6.2096 0
M  V30 5926 H 553.225 0.959934 -7.49881 0
M  V30 5927 H 554.493 2.14909 -7.49289 0
M  V30 5928 N 558.722 1.53707 -0.348139 0
M  V30 5929 C 559.95 2.05406 0.248224 0
M  V30 5930 C 560.365 1.22282 1.43849 0
M  V30 5931 O 559.722 0.259244 1.80649 0
M  V30 5932 C 559.773 3.55446 0.658793 0
M  V30 5933 O 559.494 4.35417 -0.484149 0
M  V30 5934 C 560.995 4.23335 1.31539 0
M  V30 5935 H 558.215 0.669344 0.0471075 0
M  V30 5936 H 560.759 1.98257 -0.501456 0
M  V30 5937 H 558.914 3.62803 1.35841 0
M  V30 5938 H 559.328 5.24268 -0.155949 0
M  V30 5939 H 560.802 5.29692 1.55338 0
M  V30 5940 H 561.279 3.75967 2.27036 0
M  V30 5941 H 561.885 4.20184 0.657683 0
M  V30 5942 N 560.2 0.0768682 1.57412 0
M  V30 5943 C 561.477 -0.632359 1.85096 0
M  V30 5944 C 561.857 -1.87479 0.9703 0
M  V30 5945 O 561.205 -2.28469 0.0379062 0
M  V30 5946 C 561.415 -0.965174 3.35388 0
M  V30 5947 C 562.763 -1.33648 4.03018 0
M  V30 5948 O 563.787 -1.05675 3.40164 0
M  V30 5949 O 562.646 -1.85959 5.13889 0
M  V30 5950 H 559.74 -0.314574 0.764835 0
M  V30 5951 H 562.286 0.108184 1.69355 0
M  V30 5952 H 561.058 -0.0829745 3.91212 0
M  V30 5953 H 560.681 -1.76231 3.5641 0
M  V30 5954 N 561.678 -1.56367 -0.196722 0
M  V30 5955 C 562.906 -1.84639 -0.933608 0
M  V30 5956 C 563.321 -0.659164 -1.76919 0
M  V30 5957 O 562.678 0.372142 -1.78665 0
M  V30 5958 C 562.729 -3.11694 -1.83109 0
M  V30 5959 O 562.45 -4.25838 -1.02924 0
M  V30 5960 C 563.951 -3.53132 -2.67979 0
M  V30 5961 H 561.171 -0.613188 -0.272473 0
M  V30 5962 H 563.715 -2.03475 -0.204465 0
M  V30 5963 H 561.87 -2.94759 -2.51387 0
M  V30 5964 H 562.284 -4.98178 -1.64069 0
M  V30 5965 H 563.758 -4.45005 -3.26611 0
M  V30 5966 H 564.235 -2.76045 -3.41608 0
M  V30 5967 H 564.841 -3.72592 -2.05074 0
M  V30 5968 N 563.156 0.464375 -1.50603 0
M  V30 5969 C 564.572 0.798684 -1.38178 0
M  V30 5970 C 564.772 1.96568 -0.44308 0
M  V30 5971 O 563.828 2.52252 0.111814 0
M  V30 5972 C 565.141 1.10444 -2.79683 0
M  V30 5973 C 566.689 1.2105 -2.88645 0
M  V30 5974 C 567.164 1.54934 -4.30998 0
M  V30 5975 N 568.655 1.61913 -4.3398 0
M  V30 5976 C 569.39 1.8965 -5.41129 0
M  V30 5977 N 568.886 2.15361 -6.58477 0
M  V30 5978 N 570.679 1.91207 -5.28579 0
M  V30 5979 H 562.83 -0.304603 -2.10204 0
M  V30 5980 H 565.093 -0.0737804 -0.945125 0
M  V30 5981 H 564.799 0.319934 -3.50242 0
M  V30 5982 H 564.673 2.03896 -3.17342 0
M  V30 5983 H 567.06 1.98567 -2.18301 0
M  V30 5984 H 567.141 0.255613 -2.5452 0
M  V30 5985 H 566.785 0.779549 -5.01882 0
M  V30 5986 H 566.715 2.51584 -4.62615 0
M  V30 5987 H 569.206 1.44055 -3.49366 0
M  V30 5988 H 569.519 2.35818 -7.35941 0
M  V30 5989 H 567.864 2.1274 -6.6164 0
M  V30 5990 H 571.055 1.70622 -4.35897 0
M  V30 5991 H 571.228 2.12488 -6.12171 0
M  V30 5992 N 564.634 1.40294 0.718013 0
M  V30 5993 C 566.05 1.2227 1.02577 0
M  V30 5994 C 566.25 0.0961976 2.0127 0
M  V30 5995 O 565.306 -0.546695 2.46511 0
M  V30 5996 C 566.619 2.56348 1.57182 0
M  V30 5997 C 568.167 2.6334 1.69178 0
M  V30 5998 C 568.642 3.9768 2.27188 0
M  V30 5999 N 570.133 3.99409 2.34578 0
M  V30 6000 C 570.868 5.00141 2.8044 0
M  V30 6001 N 570.364 6.11268 3.26073 0
M  V30 6002 N 572.157 4.87511 2.79802 0
M  V30 6003 H 564.308 2.12304 0.0637899 0
M  V30 6004 H 566.571 0.943632 0.0909036 0
M  V30 6005 H 566.277 3.3942 0.921262 0
M  V30 6006 H 566.151 2.77266 2.55741 0
M  V30 6007 H 568.538 1.80641 2.33351 0
M  V30 6008 H 568.619 2.46255 0.692247 0
M  V30 6009 H 568.263 4.80817 1.63638 0
M  V30 6010 H 568.193 4.12093 3.27852 0
M  V30 6011 H 570.684 3.19162 2.02346 0
M  V30 6012 H 570.997 6.84023 3.59628 0
M  V30 6013 H 569.342 6.14837 3.24038 0
M  V30 6014 H 572.533 3.9979 2.43487 0
M  V30 6015 H 572.706 5.66158 3.15228 0
M  V30 6016 N 566.112 -0.949982 1.2575 0
M  V30 6017 C 567.342 -1.72721 1.13363 0
M  V30 6018 C 567.75 -1.86562 -0.314842 0
M  V30 6019 O 567.093 -1.36621 -1.22803 0
M  V30 6020 C 567.155 -3.15695 1.7198 0
M  V30 6021 C 566.819 -3.25268 3.21014 0
M  V30 6022 C 567.816 -3.09222 4.17945 0
M  V30 6023 C 565.501 -3.4894 3.61312 0
M  V30 6024 C 567.495 -3.16701 5.53154 0
M  V30 6025 C 565.182 -3.56055 4.96657 0
M  V30 6026 C 566.18 -3.3995 5.92387 0
M  V30 6027 O 565.868 -3.46757 7.25269 0
M  V30 6028 H 565.6 -0.547888 0.395973 0
M  V30 6029 H 568.154 -1.20009 1.66694 0
M  V30 6030 H 566.384 -3.69791 1.13101 0
M  V30 6031 H 568.073 -3.75295 1.54624 0
M  V30 6032 H 568.839 -2.90798 3.88151 0
M  V30 6033 H 564.718 -3.60534 2.87291 0
M  V30 6034 H 568.262 -3.04048 6.27854 0
M  V30 6035 H 564.159 -3.73997 5.26115 0
M  V30 6036 H 564.927 -3.63358 7.33426 0
M  V30 6037 N 567.59 -1.07411 -1.15328 0
M  V30 6038 C 568.839 -0.792643 -1.85473 0
M  V30 6039 C 569.152 0.683789 -1.83259 0
M  V30 6040 O 570.358 1.08005 -2.49093 0
M  V30 6041 C 568.814 -1.36787 -3.32892 0
M  V30 6042 C 568.422 -2.87536 -3.43551 0
M  V30 6043 C 570.166 -1.16444 -4.08217 0
M  V30 6044 C 568.073 -3.38247 -4.85122 0
M  V30 6045 H 567.003 -0.292838 -0.694811 0
M  V30 6046 H 569.654 -1.29426 -1.30082 0
M  V30 6047 H 568.036 -0.793993 -3.87958 0
M  V30 6048 H 569.21 -3.50973 -2.98588 0
M  V30 6049 H 567.525 -3.06676 -2.81672 0
M  V30 6050 H 570.122 -1.51808 -5.12697 0
M  V30 6051 H 570.465 -0.10353 -4.16171 0
M  V30 6052 H 570.998 -1.70472 -3.59422 0
M  V30 6053 H 567.737 -4.43866 -4.82351 0
M  V30 6054 H 567.257 -2.79564 -5.30664 0
M  V30 6055 H 568.936 -3.34238 -5.5398 0
M  V30 6056 N 569.068 1.32177 -0.85831 0
M  V30 6057 C 569.978 2.32561 -0.308606 0
M  V30 6058 C 570.994 1.64209 0.575462 0
M  V30 6059 O 572.17 1.95719 0.474961 0
M  V30 6060 C 569.235 3.43207 0.490909 0
M  V30 6061 C 568.296 4.27243 -0.419733 0
M  V30 6062 C 567.529 5.32605 0.341719 0
M  V30 6063 O 567.752 5.48332 1.57125 0
M  V30 6064 O 566.686 6.0118 -0.294379 0
M  V30 6065 H 570.512 2.81477 -1.14037 0
M  V30 6066 H 568.097 1.35866 -0.621349 0
M  V30 6067 H 569.979 4.10677 0.944574 0
M  V30 6068 H 568.654 2.96474 1.29941 0
M  V30 6069 H 567.561 3.62569 -0.921652 0
M  V30 6070 H 568.894 4.7751 -1.19352 0
M  V30 6071 N 570.547 0.616602 1.45037 0
M  V30 6072 C 571.51 -0.0871112 2.29034 0
M  V30 6073 C 572.51 -0.786414 1.40258 0
M  V30 6074 O 573.7 -0.633207 1.62284 0
M  V30 6075 C 570.832 -1.13369 3.21497 0
M  V30 6076 H 572.025 0.651497 2.92738 0
M  V30 6077 H 569.578 0.376058 1.51709 0
M  V30 6078 H 570.313 -1.90277 2.62612 0
M  V30 6079 H 570.098 -0.636358 3.86902 0
M  V30 6080 H 571.588 -1.62627 3.84633 0
M  V30 6081 N 572.025 -1.5352 0.356285 0
M  V30 6082 C 572.957 -2.23009 -0.529127 0
M  V30 6083 C 573.97 -1.241 -1.05371 0
M  V30 6084 O 575.159 -1.50379 -0.961679 0
M  V30 6085 C 572.259 -2.90685 -1.74229 0
M  V30 6086 C 571.432 -4.16019 -1.35081 0
M  V30 6087 C 570.491 -4.66989 -2.42502 0
M  V30 6088 O 569.517 -5.30895 -2.05279 0
M  V30 6089 N 570.719 -4.44006 -3.7395 0
M  V30 6090 H 573.484 -2.99627 0.0660501 0
M  V30 6091 H 571.045 -1.60885 0.181014 0
M  V30 6092 H 573.037 -3.21695 -2.4555 0
M  V30 6093 H 571.607 -2.17575 -2.24454 0
M  V30 6094 H 570.827 -3.91414 -0.467833 0
M  V30 6095 H 572.115 -4.9752 -1.06542 0
M  V30 6096 H 571.513 -3.92924 -4.06973 0
M  V30 6097 H 570.07 -4.7959 -4.41403 0
M  V30 6098 N 573.503 -0.0852151 -1.57369 0
M  V30 6099 C 574.433 0.874556 -2.16503 0
M  V30 6100 C 575.414 1.30111 -1.09568 0
M  V30 6101 O 576.599 1.36977 -1.37662 0
M  V30 6102 C 573.729 2.13731 -2.73745 0
M  V30 6103 C 572.683 1.84971 -3.85966 0
M  V30 6104 C 572.009 3.17991 -4.29867 0
M  V30 6105 C 573.309 1.14442 -5.09608 0
M  V30 6106 H 575.003 0.381899 -2.96954 0
M  V30 6107 H 572.549 0.18225 -1.42842 0
M  V30 6108 H 574.502 2.81302 -3.13763 0
M  V30 6109 H 573.226 2.65263 -1.90534 0
M  V30 6110 H 571.885 1.19801 -3.46473 0
M  V30 6111 H 571.533 3.6739 -3.4356 0
M  V30 6112 H 571.233 2.99534 -5.05523 0
M  V30 6113 H 572.757 3.86737 -4.72511 0
M  V30 6114 H 574.171 1.72105 -5.46857 0
M  V30 6115 H 572.568 1.06197 -5.90629 0
M  V30 6116 H 573.638 0.12559 -4.84737 0
M  V30 6117 N 574.981 1.5647 0.188427 0
M  V30 6118 C 576.258 1.71857 0.934058 0
M  V30 6119 C 576.638 0.641867 2.01105 0
M  V30 6120 O 575.986 -0.346098 2.25864 0
M  V30 6121 C 576.196 3.14431 1.5144 0
M  V30 6122 C 577.544 3.74869 1.99396 0
M  V30 6123 O 578.568 3.17601 1.61269 0
M  V30 6124 O 577.427 4.75387 2.69573 0
M  V30 6125 H 574.521 0.701186 0.438483 0
M  V30 6126 H 577.067 1.68768 0.177599 0
M  V30 6127 H 575.839 3.8427 0.738416 0
M  V30 6128 H 575.462 3.21775 2.33552 0
M  V30 6129 N 576.459 -0.456382 1.50847 0
M  V30 6130 C 577.422 -1.53493 1.70213 0
M  V30 6131 C 578.422 -1.50264 0.572481 0
M  V30 6132 O 579.612 -1.52623 0.839751 0
M  V30 6133 C 576.744 -2.93091 1.741 0
M  V30 6134 H 577.937 -1.37633 2.66453 0
M  V30 6135 H 575.49 -0.683776 1.4055 0
M  V30 6136 H 576.225 -3.14378 0.796063 0
M  V30 6137 H 576.01 -2.9684 2.5618 0
M  V30 6138 H 577.5 -3.71368 1.90987 0
M  V30 6139 N 577.937 -1.40673 -0.710563 0
M  V30 6140 C 579.184 -1.39222 -1.47049 0
M  V30 6141 C 579.512 0.0037691 -1.945 0
M  V30 6142 O 578.767 0.989224 -1.68857 0
M  V30 6143 C 579.066 -2.33253 -2.70791 0
M  V30 6144 C 578.732 -3.80406 -2.42079 0
M  V30 6145 C 577.394 -4.20496 -2.33959 0
M  V30 6146 C 579.746 -4.73375 -2.18094 0
M  V30 6147 C 577.074 -5.51584 -1.99929 0
M  V30 6148 C 579.426 -6.04768 -1.85576 0
M  V30 6149 C 578.09 -6.43895 -1.75941 0
M  V30 6150 H 577.36 -0.509449 -0.538092 0
M  V30 6151 H 580.007 -1.73363 -0.81348 0
M  V30 6152 H 578.312 -1.92314 -3.41354 0
M  V30 6153 H 580.009 -2.29412 -3.28894 0
M  V30 6154 H 576.599 -3.48645 -2.49288 0
M  V30 6155 H 580.783 -4.43217 -2.23321 0
M  V30 6156 H 576.039 -5.80797 -1.91011 0
M  V30 6157 H 580.213 -6.76318 -1.66033 0
M  V30 6158 H 577.84 -7.45387 -1.4934 0
M  V30 6159 N 579.415 0.9433 -1.26252 0
M  V30 6160 C 580.325 2.07532 -1.09397 0
M  V30 6161 C 581.341 1.73977 -0.0280449 0
M  V30 6162 O 582.517 2.00067 -0.231337 0
M  V30 6163 C 579.582 3.39002 -0.726523 0
M  V30 6164 C 578.643 3.86353 -1.87163 0
M  V30 6165 C 577.876 5.11549 -1.52162 0
M  V30 6166 O 578.099 5.68834 -0.422385 0
M  V30 6167 O 577.033 5.53889 -2.35565 0
M  V30 6168 H 580.859 2.24658 -2.04359 0
M  V30 6169 H 578.444 1.05988 -1.05295 0
M  V30 6170 H 580.326 4.18 -0.534236 0
M  V30 6171 H 579.001 3.2312 0.193721 0
M  V30 6172 H 577.908 3.0831 -2.11886 0
M  V30 6173 H 579.241 4.06752 -2.77152 0
M  V30 6174 N 580.893 1.08022 1.14757 0
M  V30 6175 C 582.123 0.827646 1.89298 0
M  V30 6176 C 582.531 -0.623506 1.78631 0
M  V30 6177 O 581.874 -1.43991 1.14071 0
M  V30 6178 C 581.936 1.16553 3.40082 0
M  V30 6179 C 581.6 2.61866 3.74533 0
M  V30 6180 C 582.597 3.60116 3.74984 0
M  V30 6181 C 580.282 2.97619 4.04633 0
M  V30 6182 C 582.276 4.92151 4.05051 0
M  V30 6183 C 579.963 4.2985 4.34364 0
M  V30 6184 C 580.961 5.26926 4.34555 0
M  V30 6185 O 580.649 6.5678 4.63568 0
M  V30 6186 H 580.381 0.298396 0.606577 0
M  V30 6187 H 582.935 1.44187 1.46285 0
M  V30 6188 H 581.165 0.494296 3.83528 0
M  V30 6189 H 582.854 0.894407 3.95923 0
M  V30 6190 H 583.62 3.33837 3.51821 0
M  V30 6191 H 579.499 2.22702 4.03639 0
M  V30 6192 H 583.043 5.67915 4.05115 0
M  V30 6193 H 578.94 4.55879 4.56995 0
M  V30 6194 H 579.708 6.62035 4.81303 0
M  V30 6195 N 582.371 -1.3172 0.865308 0
M  V30 6196 C 583.599 -2.01057 0.488251 0
M  V30 6197 C 584.014 -1.64979 -0.918 0
M  V30 6198 O 583.371 -0.876597 -1.60069 0
M  V30 6199 C 583.422 -3.55964 0.630224 0
M  V30 6200 O 583.143 -3.90749 1.98109 0
M  V30 6201 C 584.644 -4.42574 0.253567 0
M  V30 6202 H 581.864 -0.64332 0.190736 0
M  V30 6203 H 584.408 -1.68058 1.16519 0
M  V30 6204 H 582.563 -3.874 0.000895422 0
M  V30 6205 H 582.977 -4.85467 1.9855 0
M  V30 6206 H 584.451 -5.50521 0.403875 0
M  V30 6207 H 584.928 -4.31724 -0.806895 0
M  V30 6208 H 585.534 -4.16547 0.858404 0
M  V30 6209 N 583.85 -0.624285 -1.44708 0
M  V30 6210 C 585.098 -0.125802 -2.01708 0
M  V30 6211 C 585.418 1.2543 -1.49306 0
M  V30 6212 O 584.689 1.83198 -0.693924 0
M  V30 6213 H 583.269 -0.0435161 -0.745731 0
M  V30 6214 H 585.931 -0.809446 -1.77296 0
M  V30 6215 H 585.027 -0.0882734 -3.11975 0
M  V30 6216 N 585.328 1.53329 -0.364422 0
M  V30 6217 C 586.576 2.00842 0.225189 0
M  V30 6218 C 586.897 1.25345 1.49378 0
M  V30 6219 O 586.167 0.366396 1.92443 0
M  V30 6220 H 584.747 0.742009 0.0862027 0
M  V30 6221 H 587.409 1.8863 -0.490389 0
M  V30 6222 H 586.505 3.08795 0.452987 0
M  V30 6223 N 586.806 0.0935595 1.57322 0
M  V30 6224 C 588.052 -0.565234 1.95388 0
M  V30 6225 C 588.407 -1.65888 0.974632 0
M  V30 6226 O 587.7 -1.916 0.000376385 0
M  V30 6227 C 587.894 -1.16692 3.37813 0
M  V30 6228 C 587.723 -0.133091 4.49503 0
M  V30 6229 C 586.493 0.289884 5.04468 0
M  V30 6230 C 588.691 0.638141 5.10326 0
M  V30 6231 N 586.673 1.31214 5.99713 0
M  V30 6232 C 588.044 1.51227 6.01274 0
M  V30 6233 C 590.099 0.691827 4.9307 0
M  V30 6234 C 588.802 2.43536 6.76818 0
M  V30 6235 C 590.828 1.60251 5.69274 0
M  V30 6236 C 590.19 2.46427 6.59889 0
M  V30 6237 H 586.289 -0.177212 0.761656 0
M  V30 6238 H 588.873 0.175769 1.93905 0
M  V30 6239 H 587.044 -1.87775 3.39993 0
M  V30 6240 H 588.776 -1.78795 3.63063 0
M  V30 6241 H 585.531 -0.0975541 4.735 0
M  V30 6242 H 585.955 1.82143 6.52038 0
M  V30 6243 H 590.597 0.0397431 4.22781 0
M  V30 6244 H 588.315 3.0977 7.4637 0
M  V30 6245 H 591.901 1.64917 5.57937 0
M  V30 6246 H 590.781 3.15751 7.17824 0
M  V30 6247 N 588.284 -1.56567 -0.180126 0
M  V30 6248 C 589.53 -1.81761 -0.899497 0
M  V30 6249 C 589.863 -0.670015 -1.82276 0
M  V30 6250 O 589.138 0.328575 -1.91705 0
M  V30 6251 C 589.421 -3.17296 -1.7028 0
M  V30 6252 C 589.274 -4.4257 -0.803255 0
M  V30 6253 C 590.593 -3.49678 -2.67233 0
M  V30 6254 H 587.712 -0.661192 -0.325567 0
M  V30 6255 H 590.354 -1.89272 -0.16612 0
M  V30 6256 H 588.504 -3.11023 -2.32802 0
M  V30 6257 H 590.176 -4.60902 -0.191585 0
M  V30 6258 H 588.419 -4.33658 -0.110796 0
M  V30 6259 H 589.09 -5.33935 -1.40064 0
M  V30 6260 H 591.566 -3.56347 -2.14839 0
M  V30 6261 H 590.442 -4.45605 -3.20511 0
M  V30 6262 H 590.703 -2.73932 -3.47007 0
M  V30 6263 N 589.762 0.448376 -1.51087 0
M  V30 6264 C 591.009 1.19872 -1.63209 0
M  V30 6265 C 591.337 1.91451 -0.343062 0
M  V30 6266 O 590.592 1.83789 0.672321 0
M  V30 6267 C 590.891 2.24866 -2.77795 0
M  V30 6268 C 590.557 1.70378 -4.17471 0
M  V30 6269 C 589.219 1.55241 -4.55471 0
M  V30 6270 C 591.571 1.30203 -5.04675 0
M  V30 6271 C 588.899 0.983844 -5.78392 0
M  V30 6272 C 591.251 0.747798 -6.28165 0
M  V30 6273 C 589.915 0.583233 -6.64947 0
M  V30 6274 H 589.185 0.438642 -0.597222 0
M  V30 6275 H 591.832 0.49136 -1.85089 0
M  V30 6276 H 590.137 3.01598 -2.50092 0
M  V30 6277 H 591.834 2.82723 -2.84374 0
M  V30 6278 H 588.424 1.83134 -3.87505 0
M  V30 6279 H 592.608 1.40723 -4.75932 0
M  V30 6280 H 587.864 0.844007 -6.05546 0
M  V30 6281 H 592.038 0.427927 -6.95084 0
M  V30 6282 H 589.665 0.140532 -7.6007 0
M  V30 6283 N 591.24 1.41047 0.703093 0
M  V30 6284 C 592.486 1.41209 1.46396 0
M  V30 6285 C 592.841 0.0180188 1.92392 0
M  V30 6286 O 592.134 -0.954739 1.66118 0
M  V30 6287 C 592.328 2.34686 2.6955 0
M  V30 6288 C 592.157 3.83044 2.35601 0
M  V30 6289 C 590.927 4.51777 2.26331 0
M  V30 6290 C 593.125 4.74215 1.9906 0
M  V30 6291 N 591.107 5.85302 1.85188 0
M  V30 6292 C 592.478 5.96631 1.68616 0
M  V30 6293 C 594.533 4.61932 1.85805 0
M  V30 6294 C 593.236 7.08134 1.26249 0
M  V30 6295 C 595.262 5.73389 1.44842 0
M  V30 6296 C 594.624 6.94899 1.15304 0
M  V30 6297 H 590.723 0.571951 0.533288 0
M  V30 6298 H 593.307 1.76859 0.814179 0
M  V30 6299 H 591.478 2.01143 3.32259 0
M  V30 6300 H 593.21 2.25618 3.35974 0
M  V30 6301 H 589.965 4.05618 2.44482 0
M  V30 6302 H 590.389 6.56049 1.67119 0
M  V30 6303 H 595.031 3.68494 2.07298 0
M  V30 6304 H 592.749 8.01445 1.035 0
M  V30 6305 H 596.335 5.65886 1.35146 0
M  V30 6306 H 595.215 7.79679 0.840854 0
M  V30 6307 N 592.718 -0.936591 1.26751 0
M  V30 6308 C 593.943 -1.72288 1.15462 0
M  V30 6309 C 594.368 -1.85915 -0.285887 0
M  V30 6310 O 593.726 -1.35272 -1.20711 0
M  V30 6311 C 593.774 -3.10503 1.83359 0
M  V30 6312 O 592.878 -3.96745 1.1255 0
M  V30 6313 H 592.219 -0.52843 0.402067 0
M  V30 6314 H 594.749 -1.17271 1.67656 0
M  V30 6315 H 594.759 -3.60867 1.90365 0
M  V30 6316 H 593.434 -2.99901 2.88153 0
M  V30 6317 H 592.011 -3.55191 1.13551 0
M  V30 6318 N 594.196 -1.08629 -1.14182 0
M  V30 6319 C 595.442 -0.828415 -1.85766 0
M  V30 6320 C 595.797 0.638947 -1.81481 0
M  V30 6321 O 595.09 1.46386 -1.23619 0
M  V30 6322 C 595.284 -1.28734 -3.3341 0
M  V30 6323 C 595.113 -2.79778 -3.52071 0
M  V30 6324 C 593.883 -3.47554 -3.66789 0
M  V30 6325 C 596.081 -3.77945 -3.48801 0
M  V30 6326 N 594.063 -4.87107 -3.73631 0
M  V30 6327 C 595.434 -5.03406 -3.61914 0
M  V30 6328 C 597.489 -3.70917 -3.32152 0
M  V30 6329 C 596.192 -6.22673 -3.60098 0
M  V30 6330 C 598.218 -4.89662 -3.31641 0
M  V30 6331 C 597.58 -6.13962 -3.45296 0
M  V30 6332 H 593.679 -0.355884 -0.696327 0
M  V30 6333 H 596.263 -1.38508 -1.36834 0
M  V30 6334 H 594.434 -0.75822 -3.80927 0
M  V30 6335 H 596.166 -0.975649 -3.92764 0
M  V30 6336 H 592.921 -2.97972 -3.68116 0
M  V30 6337 H 593.345 -5.59775 -3.80763 0
M  V30 6338 H 597.987 -2.75749 -3.20504 0
M  V30 6339 H 595.705 -7.1815 -3.70522 0
M  V30 6340 H 599.291 -4.85914 -3.19968 0
M  V30 6341 H 598.171 -7.04307 -3.44851 0
M  V30 6342 N 595.674 1.31259 -0.872281 0
M  V30 6343 C 596.621 2.28459 -0.327857 0
M  V30 6344 C 597.591 1.55831 0.574957 0
M  V30 6345 O 598.776 1.83965 0.506101 0
M  V30 6346 C 595.916 3.41985 0.462644 0
M  V30 6347 C 595.029 4.29458 -0.467949 0
M  V30 6348 C 594.164 5.30131 0.336903 0
M  V30 6349 C 593.203 6.0925 -0.58997 0
M  V30 6350 N 592.34 7.01872 0.178775 0
M  V30 6351 H 597.18 2.74414 -1.16193 0
M  V30 6352 H 594.717 1.34994 -0.584376 0
M  V30 6353 H 596.675 4.06547 0.936759 0
M  V30 6354 H 595.305 2.97134 1.2614 0
M  V30 6355 H 594.357 3.65318 -1.06052 0
M  V30 6356 H 595.669 4.84677 -1.17856 0
M  V30 6357 H 594.823 6.0038 0.873427 0
M  V30 6358 H 593.562 4.75573 1.08079 0
M  V30 6359 H 592.567 5.37889 -1.13823 0
M  V30 6360 H 593.792 6.65894 -1.33275 0
M  V30 6361 H 591.738 6.49721 0.905435 0
M  V30 6362 H 591.655 7.54522 -0.472452 0
M  V30 6363 H 592.923 7.76382 0.696454 0
M  V30 6364 N 597.152 0.631951 1.44375 0
M  V30 6365 C 598.38 0.143867 2.06399 0
M  V30 6366 C 598.795 -1.18188 1.47231 0
M  V30 6367 O 598.152 -1.72511 0.595498 0
M  V30 6368 C 598.203 0.0238253 3.61492 0
M  V30 6369 O 597.924 1.29715 4.18456 0
M  V30 6370 C 599.425 -0.492856 4.40552 0
M  V30 6371 H 596.645 0.0800542 0.666207 0
M  V30 6372 H 599.189 0.866586 1.85231 0
M  V30 6373 H 597.344 -0.649338 3.81919 0
M  V30 6374 H 597.758 1.14252 5.11905 0
M  V30 6375 H 599.232 -0.525861 5.49489 0
M  V30 6376 H 599.709 -1.52006 4.12057 0
M  V30 6377 H 600.315 0.147085 4.25046 0
M  V30 6378 N 598.631 -1.53133 0.372548 0
M  V30 6379 C 599.541 -2.29671 -0.478379 0
M  V30 6380 C 600.557 -1.35913 -1.08644 0
M  V30 6381 O 601.733 -1.68975 -1.09588 0
M  V30 6382 C 598.798 -3.07625 -1.599 0
M  V30 6383 C 597.859 -4.17061 -1.01776 0
M  V30 6384 C 597.092 -4.91289 -2.08497 0
M  V30 6385 O 597.315 -4.65442 -3.29727 0
M  V30 6386 O 596.249 -5.7705 -1.71164 0
M  V30 6387 H 600.075 -3.03355 0.144649 0
M  V30 6388 H 597.66 -1.48773 0.136729 0
M  V30 6389 H 599.542 -3.56281 -2.25038 0
M  V30 6390 H 598.217 -2.3677 -2.2073 0
M  V30 6391 H 597.124 -3.72641 -0.330098 0
M  V30 6392 H 598.457 -4.90102 -0.453915 0
M  V30 6393 N 600.109 -0.101901 -1.5727 0
M  V30 6394 C 601.057 0.872034 -2.15635 0
M  V30 6395 C 602.051 1.28742 -1.10099 0
M  V30 6396 O 603.257 1.26116 -1.28432 0
M  V30 6397 H 599.632 0.299269 -0.689886 0
M  V30 6398 H 601.603 0.355137 -2.96279 0
M  V30 6399 C 600.352 2.11886 -2.7568 0
M  V30 6400 H 599.675 1.80813 -3.56576 0
M  V30 6401 H 601.115 2.78077 -3.20077 0
M  V30 6402 C 599.574 2.89739 -1.7191 0
M  V30 6403 O 600.104 3.84522 -1.16213 0
M  V30 6404 N 598.31 2.53407 -1.42245 0
M  V30 6405 H 597.857 1.76398 -1.87727 0
M  V30 6406 H 597.815 3.05795 -0.730529 0
M  V30 6407 N 601.587 1.56661 0.17182 0
M  V30 6408 C 602.55 1.9549 1.19651 0
M  V30 6409 C 603.55 0.838501 1.37207 0
M  V30 6410 O 604.74 1.10556 1.34622 0
M  V30 6411 C 601.872 2.24927 2.56166 0
M  V30 6412 H 603.065 2.87184 0.864007 0
M  V30 6413 H 600.618 1.50711 0.41425 0
M  V30 6414 H 601.353 1.35944 2.94431 0
M  V30 6415 H 601.138 3.06301 2.4479 0
M  V30 6416 H 602.628 2.55891 3.30014 0
M  V30 6417 N 603.065 -0.440357 1.51323 0
M  V30 6418 C 604.476 -1.02032 1.56353 0
M  V30 6419 C 604.827 -1.92382 0.385197 0
M  V30 6420 O 603.952 -2.10583 -0.498373 0
M  V30 6421 C 604.547 -1.85723 2.83359 0
M  V30 6422 C 603.106 -2.38774 2.90971 0
M  V30 6423 C 602.253 -1.17908 2.50984 0
M  V30 6424 H 605.204 -0.221744 1.57143 0
M  V30 6425 H 605.225 -2.71141 2.66951 0
M  V30 6426 H 604.737 -1.19939 3.69102 0
M  V30 6427 H 602.838 -3.08021 2.09651 0
M  V30 6428 H 602.951 -2.71778 3.94555 0
M  V30 6429 H 601.315 -1.52347 2.04114 0
M  V30 6430 H 602.098 -0.537393 3.39068 0
M  V30 6431 N 604.543 -1.41418 -0.695603 0
M  V30 6432 C 605.453 -1.45622 -1.83933 0
M  V30 6433 C 606.469 -0.346825 -1.70508 0
M  V30 6434 O 607.645 -0.59454 -1.92424 0
M  V30 6435 C 604.71 -1.33627 -3.19914 0
M  V30 6436 C 603.771 -2.54882 -3.45447 0
M  V30 6437 C 603.004 -2.43449 -4.7494 0
M  V30 6438 O 603.227 -1.45905 -5.51424 0
M  V30 6439 O 602.161 -3.33206 -5.01256 0
M  V30 6440 H 605.987 -2.42114 -1.83342 0
M  V30 6441 H 603.572 -1.22956 -0.848658 0
M  V30 6442 H 605.454 -1.29221 -4.01098 0
M  V30 6443 H 604.129 -0.402508 -3.21188 0
M  V30 6444 H 603.036 -2.64865 -2.64192 0
M  V30 6445 H 604.369 -3.47087 -3.48987 0
M  V30 6446 N 606.021 0.929856 -1.27246 0
M  V30 6447 C 607.267 1.6802 -1.14634 0
M  V30 6448 C 607.622 1.89965 0.305151 0
M  V30 6449 O 606.915 1.47737 1.22001 0
M  V30 6450 C 607.109 3.05116 -1.86115 0
M  V30 6451 C 606.938 2.96549 -3.38066 0
M  V30 6452 C 605.708 2.98947 -4.0738 0
M  V30 6453 C 607.906 2.7583 -4.34077 0
M  V30 6454 N 605.888 2.80799 -5.45917 0
M  V30 6455 C 607.259 2.66364 -5.59866 0
M  V30 6456 C 609.314 2.60701 -4.24193 0
M  V30 6457 C 608.017 2.43313 -6.76898 0
M  V30 6458 C 610.043 2.39026 -5.40944 0
M  V30 6459 C 609.405 2.30302 -6.65688 0
M  V30 6460 H 605.504 0.62172 -0.474329 0
M  V30 6461 H 608.088 1.09947 -1.60685 0
M  V30 6462 H 606.259 3.61306 -1.42522 0
M  V30 6463 H 607.991 3.69076 -1.66027 0
M  V30 6464 H 604.746 3.09093 -3.58829 0
M  V30 6465 H 605.17 2.74861 -6.18692 0
M  V30 6466 H 609.812 2.66206 -3.28473 0
M  V30 6467 H 607.53 2.36548 -7.72704 0
M  V30 6468 H 611.116 2.28208 -5.35175 0
M  V30 6469 H 609.996 2.13756 -7.54505 0
M  V30 6470 N 607.499 1.09233 1.13605 0
M  V30 6471 C 608.724 0.849067 1.89224 0
M  V30 6472 C 609.149 -0.593875 1.78479 0
M  V30 6473 O 608.507 -1.41703 1.13092 0
M  V30 6474 C 608.555 1.28642 3.36873 0
M  V30 6475 O 607.659 0.44363 4.10007 0
M  V30 6476 H 607 0.30767 0.588417 0
M  V30 6477 H 609.53 1.45595 1.43748 0
M  V30 6478 H 609.54 1.27096 3.87699 0
M  V30 6479 H 608.215 2.33729 3.44011 0
M  V30 6480 H 606.792 0.523241 3.69211 0
M  V30 6481 N 608.977 -1.30795 0.87923 0
M  V30 6482 C 610.224 -1.96362 0.494786 0
M  V30 6483 C 610.552 -1.69448 -0.954868 0
M  V30 6484 O 609.807 -0.988711 -1.68888 0
M  V30 6485 C 610.106 -3.50287 0.709476 0
M  V30 6486 C 609.772 -3.9724 2.13333 0
M  V30 6487 C 608.434 -4.09772 2.52271 0
M  V30 6488 C 610.786 -4.21807 3.06151 0
M  V30 6489 C 608.114 -4.44227 3.83248 0
M  V30 6490 C 610.466 -4.5773 4.36654 0
M  V30 6491 C 609.13 -4.68469 4.75492 0
M  V30 6492 H 608.4 -0.71854 0.181055 0
M  V30 6493 H 611.047 -1.55764 1.11399 0
M  V30 6494 H 609.352 -3.91799 0.0072 0
M  V30 6495 H 611.049 -3.99082 0.391703 0
M  V30 6496 H 607.639 -3.87988 1.82107 0
M  V30 6497 H 611.823 -4.11611 2.77291 0
M  V30 6498 H 607.079 -4.50741 4.13089 0
M  V30 6499 H 611.253 -4.7569 5.08617 0
M  V30 6500 H 608.88 -4.94923 5.77022 0
M  V30 6501 N 610.455 -0.639598 -1.44038 0
M  V30 6502 C 611.387 0.0987684 -2.28987 0
M  V30 6503 C 612.4 0.80058 -1.41755 0
M  V30 6504 O 613.589 0.660611 -1.65826 0
M  V30 6505 C 610.689 1.16242 -3.18341 0
M  V30 6506 C 609.862 0.541447 -4.34036 0
M  V30 6507 C 608.921 1.50017 -5.04362 0
M  V30 6508 O 607.947 1.01403 -5.60095 0
M  V30 6509 N 609.149 2.83441 -5.06598 0
M  V30 6510 H 611.914 -0.630305 -2.92997 0
M  V30 6511 H 609.475 -0.481376 -1.54578 0
M  V30 6512 H 611.467 1.80429 -3.62253 0
M  V30 6513 H 610.037 1.79362 -2.56024 0
M  V30 6514 H 609.257 -0.27923 -3.9321 0
M  V30 6515 H 610.545 0.107379 -5.08687 0
M  V30 6516 H 609.943 3.2551 -4.62666 0
M  V30 6517 H 608.5 3.42966 -5.54272 0
M  V30 6518 N 611.933 1.52934 -0.380664 0
M  V30 6519 C 613.161 2.05886 0.204599 0
M  V30 6520 C 613.576 1.25305 1.41223 0
M  V30 6521 O 612.933 0.297504 1.80059 0
M  V30 6522 C 612.984 3.56764 0.583249 0
M  V30 6523 O 612.705 4.34292 -0.576398 0
M  V30 6524 C 614.206 4.2603 1.2253 0
M  V30 6525 H 611.426 0.670193 0.0328991 0
M  V30 6526 H 613.97 1.97148 -0.543397 0
M  V30 6527 H 612.125 3.65603 1.28115 0
M  V30 6528 H 612.539 5.23819 -0.267119 0
M  V30 6529 H 614.013 5.32868 1.44068 0
M  V30 6530 H 614.49 3.80698 2.19011 0
M  V30 6531 H 615.096 4.21485 0.568407 0
M  V30 6532 N 613.412 0.11024 1.57214 0
M  V30 6533 C 614.342 -0.840002 2.17867 0
M  V30 6534 C 615.323 -1.28352 1.11624 0
M  V30 6535 O 616.508 -1.3477 1.39824 0
M  V30 6536 C 613.638 -2.09349 2.77111 0
M  V30 6537 C 612.592 -1.78807 3.8886 0
M  V30 6538 C 611.918 -3.11112 4.34872 0
M  V30 6539 C 613.218 -1.0632 5.11364 0
M  V30 6540 H 614.912 -0.334608 2.97524 0
M  V30 6541 H 612.458 -0.159502 1.43114 0
M  V30 6542 H 614.411 -2.76275 3.18198 0
M  V30 6543 H 613.135 -2.62198 1.9473 0
M  V30 6544 H 611.794 -1.14273 3.48335 0
M  V30 6545 H 611.442 -3.61877 3.49362 0
M  V30 6546 H 611.142 -2.91453 5.10224 0
M  V30 6547 H 612.666 -3.79171 4.78604 0
M  V30 6548 H 614.08 -1.63383 5.49526 0
M  V30 6549 H 612.477 -0.967876 5.92243 0
M  V30 6550 H 613.547 -0.0484569 4.84876 0
M  V30 6551 N 614.89 -1.56749 -0.16351 0
M  V30 6552 C 616.118 -1.86577 -0.894233 0
M  V30 6553 C 616.533 -0.696543 -1.75481 0
M  V30 6554 O 615.89 0.334161 -1.79415 0
M  V30 6555 C 615.941 -3.15508 -1.76456 0
M  V30 6556 O 615.662 -4.27926 -0.938685 0
M  V30 6557 C 617.163 -3.58737 -2.60428 0
M  V30 6558 H 614.383 -0.618829 -0.259405 0
M  V30 6559 H 616.927 -2.03863 -0.161259 0
M  V30 6560 H 615.082 -3.00025 -2.45079 0
M  V30 6561 H 615.496 -5.01546 -1.53465 0
M  V30 6562 H 616.97 -4.51832 -3.17099 0
M  V30 6563 H 617.447 -2.83229 -3.35675 0
M  V30 6564 H 618.053 -3.76858 -1.97125 0
M  V30 6565 N 616.368 0.432326 -1.51554 0
M  V30 6566 C 617.598 1.2019 -1.68042 0
M  V30 6567 C 618.006 1.85356 -0.379434 0
M  V30 6568 O 617.349 1.71724 0.652427 0
M  V30 6569 C 617.411 2.32387 -2.74292 0
M  V30 6570 C 617.075 1.87548 -4.16743 0
M  V30 6571 C 618.072 1.37611 -5.01357 0
M  V30 6572 C 615.757 1.95087 -4.62868 0
M  V30 6573 C 617.751 0.958069 -6.30159 0
M  V30 6574 C 615.438 1.52894 -5.91664 0
M  V30 6575 C 616.436 1.03336 -6.75137 0
M  V30 6576 O 616.124 0.617435 -8.01525 0
M  V30 6577 H 615.856 0.368132 -0.56697 0
M  V30 6578 H 618.41 0.517875 -1.98764 0
M  V30 6579 H 616.64 3.04082 -2.38895 0
M  V30 6580 H 618.329 2.94235 -2.79608 0
M  V30 6581 H 619.095 1.31178 -4.66923 0
M  V30 6582 H 614.974 2.32606 -3.98015 0
M  V30 6583 H 618.518 0.570562 -6.95263 0
M  V30 6584 H 614.415 1.58999 -6.25611 0
M  V30 6585 H 615.183 0.742835 -8.15122 0
M  V30 6586 N 617.846 1.41785 0.688094 0
M  V30 6587 C 618.794 1.44436 1.82321 0
M  V30 6588 C 619.788 0.321544 1.6632 0
M  V30 6589 O 620.994 0.493931 1.73091 0
M  V30 6590 H 617.369 0.452084 0.600936 0
M  V30 6591 H 619.34 2.40087 1.77202 0
M  V30 6592 C 618.089 1.35071 3.20392 0
M  V30 6593 H 617.412 2.2076 3.33324 0
M  V30 6594 H 618.852 1.40988 3.99873 0
M  V30 6595 C 617.311 0.0639127 3.36839 0
M  V30 6596 O 617.841 -0.888495 3.91751 0
M  V30 6597 N 616.047 -0.0146114 2.90596 0
M  V30 6598 H 615.594 0.761191 2.46097 0
M  V30 6599 H 615.552 -0.874988 3.01979 0
M  V30 6600 N 619.324 -0.923095 1.27737 0
M  V30 6601 C 620.572 -1.66797 1.14119 0
M  V30 6602 C 620.893 -1.92479 -0.312541 0
M  V30 6603 O 620.163 -1.53432 -1.218 0
M  V30 6604 H 618.743 -0.618196 0.419336 0
M  V30 6605 H 621.405 -1.10815 1.60331 0
M  V30 6606 H 620.501 -2.63424 1.67374 0
M  V30 6607 N 620.802 -1.09834 -1.13024 0
M  V30 6608 C 621.732 -0.763451 -2.20666 0
M  V30 6609 C 622.713 0.260778 -1.68089 0
M  V30 6610 O 623.898 0.127915 -1.93778 0
M  V30 6611 C 621.028 -0.187744 -3.46792 0
M  V30 6612 C 619.982 -1.14196 -4.12484 0
M  V30 6613 C 619.308 -0.427755 -5.32986 0
M  V30 6614 C 620.608 -2.48607 -4.59338 0
M  V30 6615 H 622.302 -1.66347 -2.48936 0
M  V30 6616 H 619.848 -0.801261 -1.19649 0
M  V30 6617 H 621.801 0.0586375 -4.21359 0
M  V30 6618 H 620.525 0.747485 -3.17931 0
M  V30 6619 H 619.184 -1.37369 -3.3989 0
M  V30 6620 H 618.832 0.511747 -5.0039 0
M  V30 6621 H 618.532 -1.06403 -5.77886 0
M  V30 6622 H 620.056 -0.189772 -6.10305 0
M  V30 6623 H 621.47 -2.29618 -5.25308 0
M  V30 6624 H 619.867 -3.08062 -5.14993 0
M  V30 6625 H 620.937 -3.09062 -3.73642 0
M  V30 6626 N 622.28 1.30327 -0.886154 0
M  V30 6627 C 623.527 1.96097 -0.505192 0
M  V30 6628 C 623.855 1.69952 0.945868 0
M  V30 6629 O 623.11 0.997653 1.68361 0
M  V30 6630 C 623.409 3.49906 -0.728042 0
M  V30 6631 C 623.075 3.96103 -2.15437 0
M  V30 6632 C 621.737 4.08428 -2.5444 0
M  V30 6633 C 624.089 4.20177 -3.08384 0
M  V30 6634 C 621.417 4.42189 -3.85598 0
M  V30 6635 C 623.769 4.55407 -4.39075 0
M  V30 6636 C 622.433 4.65941 -4.7797 0
M  V30 6637 H 621.703 0.71757 -0.184863 0
M  V30 6638 H 624.35 1.55171 -1.12223 0
M  V30 6639 H 622.655 3.9179 -0.027978 0
M  V30 6640 H 624.352 3.98869 -0.412862 0
M  V30 6641 H 620.942 3.87017 -1.84162 0
M  V30 6642 H 625.126 4.10134 -2.7947 0
M  V30 6643 H 620.382 4.48544 -4.15473 0
M  V30 6644 H 624.556 4.72986 -5.11133 0
M  V30 6645 H 622.183 4.91856 -5.79639 0
M  V30 6646 N 623.758 0.647228 1.43697 0
M  V30 6647 C 625.169 0.238689 1.85168 0
M  V30 6648 C 625.52 -1.21345 1.54175 0
M  V30 6649 O 624.645 -1.92542 0.987743 0
M  V30 6650 C 625.24 0.426422 3.36106 0
M  V30 6651 C 623.799 0.0722541 3.76331 0
M  V30 6652 C 622.946 0.732153 2.6746 0
M  V30 6653 H 625.897 0.851309 1.33934 0
M  V30 6654 H 625.918 -0.32987 3.79067 0
M  V30 6655 H 625.43 1.48339 3.58632 0
M  V30 6656 H 623.531 -0.982355 3.59417 0
M  V30 6657 H 623.644 0.493541 4.76551 0
M  V30 6658 H 622.008 0.16594 2.54159 0
M  V30 6659 H 622.791 1.79204 2.92816 0
M  V30 6660 N 625.236 -1.5273 0.388769 0
M  V30 6661 C 626.168 -2.24081 -0.481704 0
M  V30 6662 C 627.181 -1.26307 -1.02715 0
M  V30 6663 O 628.37 -1.52386 -0.929565 0
M  V30 6664 C 625.47 -2.94315 -1.68024 0
M  V30 6665 C 624.643 -4.18791 -1.26226 0
M  V30 6666 C 623.702 -4.72028 -2.32542 0
M  V30 6667 O 622.728 -5.35129 -1.93972 0
M  V30 6668 N 623.93 -4.51838 -3.64448 0
M  V30 6669 H 626.695 -2.9942 0.129591 0
M  V30 6670 H 624.256 -1.60465 0.2151 0
M  V30 6671 H 626.248 -3.26831 -2.38671 0
M  V30 6672 H 624.818 -2.22287 -2.19789 0
M  V30 6673 H 624.038 -3.92318 -0.384703 0
M  V30 6674 H 625.326 -4.99668 -0.959647 0
M  V30 6675 H 624.724 -4.01468 -3.98547 0
M  V30 6676 H 623.281 -4.88845 -4.31131 0
M  V30 6677 N 626.714 -0.118576 -1.57153 0
M  V30 6678 C 628.125 0.40687 -1.82213 0
M  V30 6679 C 628.476 1.66636 -1.03571 0
M  V30 6680 O 627.601 2.14682 -0.272171 0
M  V30 6681 C 628.196 0.744949 -3.30509 0
M  V30 6682 C 626.755 1.21503 -3.5625 0
M  V30 6683 C 625.902 0.223511 -2.76398 0
M  V30 6684 H 628.853 -0.343712 -1.54933 0
M  V30 6685 H 628.874 1.6024 -3.45114 0
M  V30 6686 H 628.386 -0.171911 -3.87719 0
M  V30 6687 H 626.487 2.1488 -3.04396 0
M  V30 6688 H 626.6 1.16065 -4.64829 0
M  V30 6689 H 624.964 0.71046 -2.44591 0
M  V30 6690 H 625.747 -0.686439 -3.36367 0
M  V30 6691 N 628.193 1.56834 0.155195 0
M  V30 6692 C 629.439 1.83169 0.870467 0
M  V30 6693 C 629.772 0.698929 1.81187 0
M  V30 6694 O 629.047 -0.298035 1.92203 0
M  V30 6695 C 629.33 3.19965 1.65211 0
M  V30 6696 C 629.183 4.43792 0.732744 0
M  V30 6697 C 630.502 3.53885 2.61636 0
M  V30 6698 H 627.621 0.666288 0.315006 0
M  V30 6699 H 630.263 1.89513 0.135988 0
M  V30 6700 H 628.413 3.14687 2.27825 0
M  V30 6701 H 630.085 4.61148 0.118236 0
M  V30 6702 H 628.328 4.3378 0.0417906 0
M  V30 6703 H 628.999 5.36095 1.31552 0
M  V30 6704 H 631.475 3.5972 2.09143 0
M  V30 6705 H 630.351 4.50648 3.13381 0
M  V30 6706 H 630.612 2.79418 3.42605 0
M  V30 6707 N 629.671 -0.424282 1.51781 0
M  V30 6708 C 630.899 -1.1947 1.68921 0
M  V30 6709 C 631.314 -1.84683 0.39213 0
M  V30 6710 O 630.671 -1.71261 -0.630554 0
M  V30 6711 C 630.722 -2.26909 2.81416 0
M  V30 6712 O 630.443 -1.64361 4.061 0
M  V30 6713 C 631.944 -3.16945 3.09937 0
M  V30 6714 H 629.164 -0.359591 0.566511 0
M  V30 6715 H 631.708 -0.501139 1.98265 0
M  V30 6716 H 629.863 -2.91959 2.54635 0
M  V30 6717 H 630.277 -2.35468 4.68674 0
M  V30 6718 H 631.751 -3.88437 3.922 0
M  V30 6719 H 632.228 -3.78451 2.22871 0
M  V30 6720 H 632.834 -2.57581 3.38426 0
M  V30 6721 N 631.149 -1.42148 -0.680565 0
M  V30 6722 C 632.426 -1.32795 -1.43614 0
M  V30 6723 C 632.806 0.037415 -2.11067 0
M  V30 6724 O 632.154 1.05258 -2.02813 0
M  V30 6725 C 632.364 -2.49206 -2.44331 0
M  V30 6726 C 633.712 -2.91059 -3.09144 0
M  V30 6727 O 634.736 -2.49054 -2.54657 0
M  V30 6728 O 633.595 -3.63741 -4.07866 0
M  V30 6729 H 630.689 -0.523397 -0.640301 0
M  V30 6730 H 633.235 -1.54144 -0.709775 0
M  V30 6731 H 632.007 -3.40252 -1.93247 0
M  V30 6732 H 631.63 -2.29813 -3.24456 0
M  V30 6733 N 632.627 0.916307 -1.28225 0
M  V30 6734 C 634.043 1.19425 -1.05876 0
M  V30 6735 C 634.243 2.005 0.2005 0
M  V30 6736 O 633.299 2.35806 0.902873 0
M  V30 6737 C 634.612 1.93133 -2.30478 0
M  V30 6738 C 636.16 2.06026 -2.35632 0
M  V30 6739 C 636.635 2.83141 -3.59994 0
M  V30 6740 N 638.126 2.90704 -3.60618 0
M  V30 6741 C 638.861 3.50865 -4.53521 0
M  V30 6742 N 638.357 4.12327 -5.56739 0
M  V30 6743 N 640.15 3.48379 -4.41122 0
M  V30 6744 H 632.301 0.37496 -2.09064 0
M  V30 6745 H 634.564 0.228531 -0.920042 0
M  V30 6746 H 634.27 1.40985 -3.22205 0
M  V30 6747 H 634.144 2.93696 -2.36691 0
M  V30 6748 H 636.531 2.57355 -1.44404 0
M  V30 6749 H 636.612 1.04647 -2.33415 0
M  V30 6750 H 636.256 2.32492 -4.51564 0
M  V30 6751 H 636.186 3.84829 -3.59464 0
M  V30 6752 H 638.677 2.47034 -2.85977 0
M  V30 6753 H 638.99 4.56205 -6.23776 0
M  V30 6754 H 637.335 4.10839 -5.60568 0
M  V30 6755 H 640.526 2.99572 -3.59686 0
M  V30 6756 H 640.699 3.94974 -5.13712 0
M  V30 6757 N 634.105 1.10431 1.1244 0
M  V30 6758 C 635.037 0.710945 2.17895 0
M  V30 6759 C 636.05 -0.252315 1.60833 0
M  V30 6760 O 637.239 -0.03679 1.78462 0
M  V30 6761 C 634.339 0.0284262 3.38888 0
M  V30 6762 C 633.512 1.01585 4.2544 0
M  V30 6763 C 632.571 0.364826 5.24934 0
M  V30 6764 O 631.597 1.01561 5.60066 0
M  V30 6765 N 632.799 -0.87674 5.73841 0
M  V30 6766 H 635.564 1.61826 2.52255 0
M  V30 6767 H 633.125 0.993132 1.27861 0
M  V30 6768 H 635.117 -0.418568 4.0253 0
M  V30 6769 H 633.687 -0.781294 3.02679 0
M  V30 6770 H 632.907 1.64111 3.58415 0
M  V30 6771 H 634.195 1.68425 4.80115 0
M  V30 6772 H 633.593 -1.42483 5.47462 0
M  V30 6773 H 632.15 -1.26688 6.39369 0
M  V30 6774 N 635.583 -1.29855 0.893053 0
M  V30 6775 C 636.83 -1.95826 0.515585 0
M  V30 6776 C 637.158 -1.70451 -0.936842 0
M  V30 6777 O 636.413 -1.00657 -1.67829 0
M  V30 6778 C 636.712 -3.49515 0.746588 0
M  V30 6779 C 636.378 -3.94955 2.17535 0
M  V30 6780 C 635.04 -4.07073 2.56603 0
M  V30 6781 C 637.392 -4.18536 3.10607 0
M  V30 6782 C 634.72 -4.40138 3.87938 0
M  V30 6783 C 637.072 -4.53073 4.41484 0
M  V30 6784 C 635.736 -4.634 4.80434 0
M  V30 6785 H 635.006 -0.71658 0.188666 0
M  V30 6786 H 637.653 -1.54574 1.13045 0
M  V30 6787 H 635.958 -3.9177 0.0487551 0
M  V30 6788 H 637.655 -3.98644 0.434009 0
M  V30 6789 H 634.245 -3.86035 1.86212 0
M  V30 6790 H 638.429 -4.08646 2.81641 0
M  V30 6791 H 633.685 -4.46335 4.17846 0
M  V30 6792 H 637.859 -4.70269 5.13634 0
M  V30 6793 H 635.486 -4.88775 5.82239 0
M  V30 6794 N 637.061 -0.65484 -1.43351 0
M  V30 6795 C 638.472 -0.248506 -1.85039 0
M  V30 6796 C 638.823 1.20526 -1.54816 0
M  V30 6797 O 637.948 1.92016 -0.99794 0
M  V30 6798 C 638.543 -0.444241 -3.35875 0
M  V30 6799 C 637.102 -0.0922108 -3.76287 0
M  V30 6800 C 636.249 -0.746327 -2.67068 0
M  V30 6801 H 639.2 -0.8584 -1.33481 0
M  V30 6802 H 639.221 0.309762 -3.79237 0
M  V30 6803 H 638.733 -1.50239 -3.5784 0
M  V30 6804 H 636.834 0.96328 -3.59933 0
M  V30 6805 H 636.947 -0.518807 -4.76283 0
M  V30 6806 H 635.311 -0.179416 -2.54067 0
M  V30 6807 H 636.094 -1.80754 -2.91861 0
M  V30 6808 N 638.539 1.52521 -0.396863 0
M  V30 6809 C 639.487 2.28217 0.44943 0
M  V30 6810 C 640.481 1.32416 1.05652 0
M  V30 6811 O 641.687 1.49925 0.996124 0
M  V30 6812 H 638.062 0.733966 0.1637 0
M  V30 6813 H 640.033 2.97658 -0.210367 0
M  V30 6814 C 638.782 3.10713 1.56054 0
M  V30 6815 H 638.105 3.84291 1.10273 0
M  V30 6816 H 639.545 3.66803 2.12677 0
M  V30 6817 C 638.004 2.23499 2.52091 0
M  V30 6818 O 638.534 1.8669 3.55682 0
M  V30 6819 N 636.74 1.8751 2.2201 0
M  V30 6820 H 636.287 2.17643 1.37802 0
M  V30 6821 H 636.245 1.29448 2.86514 0
M  V30 6822 N 640.017 0.126909 1.57088 0
M  V30 6823 C 640.949 -0.850973 2.12817 0
M  V30 6824 C 641.962 -1.22457 1.07276 0
M  V30 6825 O 643.151 -1.17215 1.34622 0
M  V30 6826 C 640.251 -2.15039 2.61938 0
M  V30 6827 C 639.424 -1.94726 3.91664 0
M  V30 6828 C 638.483 -3.0847 4.26301 0
M  V30 6829 O 637.509 -2.81038 4.94981 0
M  V30 6830 N 638.711 -4.35116 3.84259 0
M  V30 6831 H 641.476 -0.3748 2.97347 0
M  V30 6832 H 639.037 -0.0572793 1.61799 0
M  V30 6833 H 641.029 -2.90141 2.82135 0
M  V30 6834 H 639.599 -2.5398 1.82244 0
M  V30 6835 H 638.819 -1.03772 3.80296 0
M  V30 6836 H 640.107 -1.78469 4.76473 0
M  V30 6837 H 639.505 -4.60276 3.2888 0
M  V30 6838 H 638.062 -5.07064 4.09548 0
M  V30 6839 N 641.495 -1.56914 -0.146875 0
M  V30 6840 C 642.735 -1.85163 -0.86568 0
M  V30 6841 C 643.099 -0.711215 -1.78342 0
M  V30 6842 O 644.3 -0.874754 -2.54168 0
M  V30 6843 C 642.571 -3.18593 -1.61967 0
M  V30 6844 S 644.13 -3.68397 -2.38388 0
M  V30 6845 H 640.948 -0.6494 -0.289483 0
M  V30 6846 H 643.55 -1.95096 -0.125679 0
M  V30 6847 H 642.254 -3.99562 -0.93694 0
M  V30 6848 H 641.785 -3.11666 -2.40058 0
M  V30 6849 H 643.8 -3.37672 -3.63582 0
M  V30 6850 N 642.974 0.416227 -1.52004 0
M  V30 6851 C 644.222 1.16153 -1.65387 0
M  V30 6852 C 644.543 1.91208 -0.382669 0
M  V30 6853 O 643.813 1.86413 0.602231 0
M  V30 6854 H 642.393 0.431765 -0.60958 0
M  V30 6855 H 645.055 0.475151 -1.89019 0
M  V30 6856 H 644.151 1.87952 -2.4916 0
M  V30 6857 N 644.452 1.42507 0.673017 0
M  V30 6858 C 645.699 1.43072 1.43306 0
M  V30 6859 C 646.027 0.0478004 1.94441 0
M  V30 6860 O 645.282 -0.944106 1.71421 0
M  V30 6861 C 645.581 2.40351 2.64511 0
M  V30 6862 C 645.247 3.8669 2.31908 0
M  V30 6863 C 643.909 4.26551 2.22728 0
M  V30 6864 C 646.261 4.78991 2.05467 0
M  V30 6865 C 643.589 5.56691 1.85234 0
M  V30 6866 C 645.941 6.09476 1.69477 0
M  V30 6867 C 644.605 6.48334 1.58808 0
M  V30 6868 H 643.875 0.523536 0.524395 0
M  V30 6869 H 646.522 1.75459 0.76723 0
M  V30 6870 H 644.827 2.01297 3.36135 0
M  V30 6871 H 646.524 2.38051 3.22696 0
M  V30 6872 H 643.114 3.55132 2.39956 0
M  V30 6873 H 647.298 4.48982 2.11492 0
M  V30 6874 H 642.554 5.85657 1.75545 0
M  V30 6875 H 646.728 6.80482 1.48043 0
M  V30 6876 H 644.355 7.49084 1.29525 0
M  V30 6877 N 645.93 -0.909495 1.28709 0
M  V30 6878 C 646.88 -1.9991 1.09636 0
M  V30 6879 C 647.864 -1.60889 0.01872 0
M  V30 6880 O 649.056 -1.75374 0.239338 0
M  V30 6881 C 646.185 -3.34675 0.764702 0
M  V30 6882 C 645.271 -3.80085 1.8814 0
M  V30 6883 N 645.662 -3.97824 3.12361 0
M  V30 6884 C 643.96 -4.09278 1.77221 0
M  V30 6885 C 644.661 -4.35928 3.85151 0
M  V30 6886 N 643.637 -4.44426 3.13028 0
M  V30 6887 H 647.439 -2.11681 2.03883 0
M  V30 6888 H 644.953 -1.09763 1.1969 0
M  V30 6889 H 646.95 -4.12426 0.609132 0
M  V30 6890 H 645.61 -3.24255 -0.169952 0
M  V30 6891 H 646.621 -3.83626 3.47925 0
M  V30 6892 H 643.298 -4.0747 0.909621 0
M  V30 6893 H 644.688 -4.57581 4.92006 0
M  V30 6894 O 647.447 -1.23171 -1.04456 0
M  V30 6895 H 648.138 -1.00158 -1.65795 0
M  V30 END ATOM
M  V30 BEGIN BOND
M  V30 END BOND
M  V30 END CTAB
M  END
$$$$
