drugbank_target|P29768 Sialidase (DB04561)
 OpenBabel12092119573D

  0  0  0     0  0            999 V3000
M  V30 BEGIN CTAB
M  V30 COUNTS 5859 5917 0 0 0
M  V30 BEGIN ATOM
M  V30 1 H -0.908 1.98254 -0.117106 0
M  V30 2 N 0 1.576 0 0
M  V30 3 C 0.933 2.03868 1.02534 0
M  V30 4 C 1.911 0.928543 1.3348 0
M  V30 5 O 3.095 1.19667 1.45644 0
M  V30 6 C 0.222 2.43627 2.35294 0
M  V30 7 C -0.732 3.65373 2.2001 0
M  V30 8 S 0.101 5.13292 1.52614 0
M  V30 9 C 1.257 5.56322 2.86805 0
M  V30 10 H 1.49 2.90518 0.631377 0
M  V30 11 H -0.977 1.52953 0.210867 0
M  V30 12 H 0.981 2.67203 3.11629 0
M  V30 13 H -0.358 1.57376 2.7183 0
M  V30 14 H -1.165 3.90944 3.18086 0
M  V30 15 H -1.563 3.418 1.51819 0
M  V30 16 H 0.729 5.58782 3.83104 0
M  V30 17 H 1.672 6.56266 2.65933 0
M  V30 18 H 2.08 4.83886 2.90714 0
M  V30 19 N 1.4781 -0.272755 1.55222 0
M  V30 20 C 2.7061 -1.02255 1.79865 0
M  V30 21 C 3.1211 -1.79924 0.572088 0
M  V30 22 O 2.4781 -1.76638 -0.458842 0
M  V30 23 C 2.5291 -1.98094 3.02392 0
M  V30 24 O 2.2501 -1.23572 4.20311 0
M  V30 25 C 3.7511 -2.84884 3.39641 0
M  V30 26 H 0.9711 -0.302057 0.599168 0
M  V30 27 H 3.5151 -0.303465 2.02236 0
M  V30 28 H 1.6701 -2.65465 2.82147 0
M  V30 29 H 2.0841 -1.88172 4.89583 0
M  V30 30 H 3.5581 -3.47927 4.28545 0
M  V30 31 H 4.0351 -3.54665 2.59055 0
M  V30 32 H 4.6411 -2.23003 3.62146 0
M  V30 33 N 2.9562 -1.48159 -0.537278 0
M  V30 34 C 4.2022 -1.56035 -1.29541 0
M  V30 35 C 4.5352 -0.230377 -1.92829 0
M  V30 36 O 3.8102 0.762952 -1.78911 0
M  V30 37 C 4.0932 -2.69323 -2.39034 0
M  V30 38 C 3.9462 -4.12002 -1.80485 0
M  V30 39 C 5.2652 -2.78408 -3.40847 0
M  V30 40 H 2.3842 -0.567992 -0.469632 0
M  V30 41 H 5.0262 -1.80302 -0.599277 0
M  V30 42 H 3.1762 -2.48763 -2.98412 0
M  V30 43 H 4.8482 -4.43981 -1.25215 0
M  V30 44 H 3.0912 -4.19344 -1.11055 0
M  V30 45 H 3.7622 -4.87077 -2.59731 0
M  V30 46 H 6.2382 -2.97012 -2.91416 0
M  V30 47 H 5.1142 -3.59416 -4.14863 0
M  V30 48 H 5.3752 -1.86269 -4.00944 0
M  V30 49 N 4.4343 0.785586 -1.36625 0
M  V30 50 C 5.3443 1.92964 -1.33425 0
M  V30 51 C 6.3603 1.72394 -0.235851 0
M  V30 52 O 7.5363 1.95866 -0.468878 0
M  V30 53 C 4.6013 3.27884 -1.12662 0
M  V30 54 C 3.6623 3.61204 -2.32013 0
M  V30 55 C 2.8953 4.89687 -2.12231 0
M  V30 56 O 3.1183 5.59704 -1.09945 0
M  V30 57 O 2.0523 5.21752 -3.00098 0
M  V30 58 H 5.8783 1.98613 -2.29753 0
M  V30 59 H 3.4633 0.926384 -1.17211 0
M  V30 60 H 5.3453 4.08614 -1.03016 0
M  V30 61 H 4.0203 3.23118 -0.193991 0
M  V30 62 H 2.9273 2.80765 -2.47228 0
M  V30 63 H 4.2603 3.70698 -3.23796 0
M  V30 64 N 5.9124 1.20967 1.01018 0
M  V30 65 C 6.8594 0.964281 2.09691 0
M  V30 66 C 7.8294 -0.107853 1.65749 0
M  V30 67 O 9.0144 0.0381987 1.90762 0
M  V30 68 C 6.1544 0.52943 3.41015 0
M  V30 69 C 5.2674 1.67043 3.98398 0
M  V30 70 C 4.4024 1.18525 5.17808 0
M  V30 71 C 3.4414 2.29892 5.67288 0
M  V30 72 N 2.5784 1.82546 6.77954 0
M  V30 73 H 7.4184 1.89463 2.30017 0
M  V30 74 H 4.9554 0.944289 1.1279 0
M  V30 75 H 6.9134 0.258588 4.16398 0
M  V30 76 H 5.5434 -0.363919 3.20742 0
M  V30 77 H 4.5954 2.05603 3.20049 0
M  V30 78 H 5.9074 2.50877 4.31117 0
M  V30 79 H 5.0614 0.870762 6.00419 0
M  V30 80 H 3.8004 0.316887 4.86669 0
M  V30 81 H 2.8054 2.6215 4.83278 0
M  V30 82 H 4.0304 3.17216 6.00459 0
M  V30 83 H 1.9764 0.980454 6.48632 0
M  V30 84 H 1.8934 2.59956 7.09901 0
M  V30 85 H 3.1614 1.54115 7.64113 0
M  V30 86 N 7.3905 -1.2043 1.01659 0
M  V30 87 C 8.6155 -1.94318 0.724942 0
M  V30 88 C 9.0405 -1.74266 -0.708034 0
M  V30 89 O 8.3985 -1.03694 -1.48719 0
M  V30 90 C 8.4465 -3.44486 1.06591 0
M  V30 91 O 7.5505 -4.12017 0.177599 0
M  V30 92 H 6.8915 -0.60708 0.26898 0
M  V30 93 H 9.4215 -1.52861 1.35995 0
M  V30 94 H 9.4315 -3.95106 1.01762 0
M  V30 95 H 8.1065 -3.58404 2.10997 0
M  V30 96 H 6.6835 -3.71821 0.283421 0
M  V30 97 N 8.8686 -0.792821 -1.36206 0
M  V30 98 C 10.1146 -0.36733 -1.99446 0
M  V30 99 C 10.4476 1.05917 -1.62774 0
M  V30 100 O 9.7226 1.7324 -0.88421 0
M  V30 101 C 10.0056 -0.535044 -3.56103 0
M  V30 102 C 9.8586 -2.00548 -4.02617 0
M  V30 103 C 11.1776 0.0478191 -4.40074 0
M  V30 104 H 8.2966 -0.134941 -0.724541 0
M  V30 105 H 10.9386 -0.999794 -1.61568 0
M  V30 106 H 9.0886 0.00336329 -3.885 0
M  V30 107 H 10.7606 -2.60521 -3.80692 0
M  V30 108 H 9.0036 -2.50686 -3.54032 0
M  V30 109 H 9.6746 -2.07377 -5.11565 0
M  V30 110 H 12.1506 -0.411822 -4.14057 0
M  V30 111 H 11.0266 -0.0995336 -5.4881 0
M  V30 112 H 11.2876 1.14025 -4.27142 0
M  V30 113 N 10.3467 1.47872 -0.545128 0
M  V30 114 C 11.5927 2.02793 -0.0166104 0
M  V30 115 C 11.9257 1.41987 1.32489 0
M  V30 116 O 11.2007 0.571045 1.85928 0
M  V30 117 C 11.4837 3.59989 0.0893294 0
M  V30 118 C 11.3367 4.3125 -1.27841 0
M  V30 119 C 12.6557 4.32606 0.808724 0
M  V30 120 H 9.7747 0.736962 -0.00751035 0
M  V30 121 H 12.4167 1.76433 -0.705085 0
M  V30 122 H 10.5667 3.82579 0.675681 0
M  V30 123 H 12.2387 4.20035 -1.90704 0
M  V30 124 H 10.4817 3.92076 -1.85632 0
M  V30 125 H 11.1527 5.39736 -1.15713 0
M  V30 126 H 13.6287 4.14936 0.310992 0
M  V30 127 H 12.5047 5.42251 0.851782 0
M  V30 128 H 12.7657 4.00963 1.86229 0
M  V30 129 N 11.8248 0.280983 1.55075 0
M  V30 130 C 13.0718 -0.334115 1.99725 0
M  V30 131 C 13.3998 -1.5542 1.1694 0
M  V30 132 O 12.6548 -1.94361 0.228531 0
M  V30 133 C 12.9538 -0.754656 3.49342 0
M  V30 134 C 12.6198 0.361445 4.49449 0
M  V30 135 C 11.2818 0.667893 4.76542 0
M  V30 136 C 13.6338 1.11322 5.09173 0
M  V30 137 C 10.9618 1.7296 5.60626 0
M  V30 138 C 13.3138 2.1647 5.9441 0
M  V30 139 C 11.9778 2.47742 6.19822 0
M  V30 140 H 11.2478 -0.122261 0.730844 0
M  V30 141 H 13.8948 0.395917 1.87363 0
M  V30 142 H 12.1998 -1.56446 3.5921 0
M  V30 143 H 13.8968 -1.24142 3.813 0
M  V30 144 H 10.4868 0.112481 4.28452 0
M  V30 145 H 14.6708 0.88973 4.8826 0
M  V30 146 H 9.9268 1.97684 5.78559 0
M  V30 147 H 14.1008 2.75193 6.3972 0
M  V30 148 H 11.7278 3.30145 6.84769 0
M  V30 149 N 13.3029 -1.57598 0.00835791 0
M  V30 150 C 14.2499 -2.08945 -0.980346 0
M  V30 151 C 15.2199 -0.986738 -1.33614 0
M  V30 152 O 16.4049 -1.25968 -1.43306 0
M  V30 153 C 13.5449 -2.60425 -2.26435 0
M  V30 154 C 12.6579 -3.84628 -1.96685 0
M  V30 155 C 11.7929 -4.24579 -3.19228 0
M  V30 156 C 10.8319 -5.41596 -2.85202 0
M  V30 157 N 9.9689 -5.768 -4.00307 0
M  V30 158 H 14.8089 -2.93148 -0.535551 0
M  V30 159 H 12.3459 -1.44912 -0.252776 0
M  V30 160 H 14.3039 -2.88354 -3.01509 0
M  V30 161 H 12.9339 -1.79083 -2.68568 0
M  V30 162 H 11.9859 -3.63556 -1.11942 0
M  V30 163 H 13.2979 -4.69796 -1.67611 0
M  V30 164 H 12.4519 -4.53834 -4.02641 0
M  V30 165 H 11.1909 -3.38137 -3.51447 0
M  V30 166 H 10.1959 -5.12056 -2.00198 0
M  V30 167 H 11.4209 -6.29721 -2.54222 0
M  V30 168 H 9.3669 -4.93316 -4.32407 0
M  V30 169 H 9.2839 -6.5656 -3.74786 0
M  V30 170 H 10.5519 -6.10652 -4.84484 0
M  V30 171 N 14.781 0.264519 -1.55364 0
M  V30 172 C 15.744 1.31046 -1.88042 0
M  V30 173 C 16.744 1.41943 -0.755569 0
M  V30 174 O 17.934 1.40947 -1.02369 0
M  V30 175 C 15.066 2.69067 -2.09323 0
M  V30 176 H 16.259 1.03297 -2.81549 0
M  V30 177 H 13.812 0.502989 -1.47986 0
M  V30 178 H 14.547 3.01982 -1.18226 0
M  V30 179 H 14.332 2.62542 -2.91229 0
M  V30 180 H 15.822 3.44623 -2.35848 0
M  V30 181 N 16.2591 1.48442 0.529413 0
M  V30 182 C 17.1691 1.6569 1.66084 0
M  V30 183 C 18.1851 0.539432 1.65427 0
M  V30 184 O 19.3611 0.810572 1.84368 0
M  V30 185 C 16.4261 1.69315 3.02545 0
M  V30 186 C 15.4871 2.92694 3.14052 0
M  V30 187 C 14.7201 2.96137 4.44003 0
M  V30 188 O 14.9431 2.07973 5.31134 0
M  V30 189 O 13.8771 3.88312 4.59888 0
M  V30 190 H 17.7031 2.61483 1.54469 0
M  V30 191 H 15.2881 1.3185 0.702567 0
M  V30 192 H 17.1701 1.74217 3.83701 0
M  V30 193 H 15.8451 0.766966 3.14483 0
M  V30 194 H 14.7521 2.93324 2.32189 0
M  V30 195 H 16.0851 3.84699 3.0703 0
M  V30 196 N 17.7372 -0.778329 1.37039 0
M  V30 197 C 18.9852 -1.53361 1.31623 0
M  V30 198 C 19.3062 -1.94739 -0.100831 0
M  V30 199 O 18.5762 -1.65797 -1.04347 0
M  V30 200 H 17.1562 -0.568794 0.484234 0
M  V30 201 H 19.8182 -0.926742 1.71457 0
M  V30 202 H 18.9142 -2.43606 1.95096 0
M  V30 203 N 19.2153 -1.21501 -1.00376 0
M  V30 204 C 20.1253 -0.991447 -2.12621 0
M  V30 205 C 21.1413 0.0568446 -1.73907 0
M  V30 206 O 22.3173 -0.13348 -2.00957 0
M  V30 207 C 19.3823 -0.560312 -3.42142 0
M  V30 208 C 18.4433 -1.68096 -3.95022 0
M  V30 209 C 17.6763 -1.2703 -5.18362 0
M  V30 210 O 17.8993 -0.144438 -5.70217 0
M  V30 211 O 16.8333 -2.08269 -5.64719 0
M  V30 212 H 20.6593 -1.93158 -2.34358 0
M  V30 213 H 18.2443 -0.999999 -1.10997 0
M  V30 214 H 20.1263 -0.329724 -4.20108 0
M  V30 215 H 18.8013 0.351089 -3.2179 0
M  V30 216 H 17.7083 -1.96597 -3.18278 0
M  V30 217 H 19.0413 -2.56983 -4.19786 0
M  V30 218 N 20.6934 1.19889 -1.02296 0
M  V30 219 C 21.6434 2.20777 -0.56934 0
M  V30 220 C 22.6274 1.56379 0.378741 0
M  V30 221 O 23.8194 1.75859 0.200673 0
M  V30 222 C 20.9484 3.43196 0.0845077 0
M  V30 223 C 20.0344 4.14749 -0.88566 0
M  V30 224 N 20.4254 4.62584 -2.04573 0
M  V30 225 C 18.7234 4.40347 -0.707835 0
M  V30 226 C 19.4244 5.17466 -2.65714 0
M  V30 227 N 18.4004 5.0791 -1.93723 0
M  V30 228 H 22.2024 2.55434 -1.45365 0
M  V30 229 H 19.7164 1.35897 -0.88915 0
M  V30 230 H 21.7134 4.14707 0.427067 0
M  V30 231 H 20.3734 3.10042 0.964574 0
M  V30 232 H 21.3844 4.57597 -2.4254 0
M  V30 233 H 18.0614 4.17317 0.12364 0
M  V30 234 H 19.4514 5.64808 -3.63925 0
M  V30 235 N 22.1715 0.800033 1.35784 0
M  V30 236 C 23.4185 0.377342 1.98953 0
M  V30 237 C 23.7465 -1.05378 1.6348 0
M  V30 238 O 23.0015 -1.74459 0.886707 0
M  V30 239 C 23.3005 0.500276 3.53881 0
M  V30 240 C 22.9665 1.89375 4.09204 0
M  V30 241 C 21.6285 2.27499 4.24025 0
M  V30 242 C 23.9805 2.8057 4.39238 0
M  V30 243 C 21.3085 3.562 4.66195 0
M  V30 244 C 23.6605 4.0871 4.82844 0
M  V30 245 C 22.3245 4.46843 4.95871 0
M  V30 246 H 21.5945 0.138079 0.728021 0
M  V30 247 H 24.2415 1.01955 1.62103 0
M  V30 248 H 22.5465 -0.225405 3.91151 0
M  V30 249 H 24.2435 0.154097 4.00704 0
M  V30 250 H 20.8335 1.58753 3.98115 0
M  V30 251 H 25.0175 2.52367 4.27346 0
M  V30 252 H 20.2735 3.85602 4.74469 0
M  V30 253 H 24.4475 4.79481 5.05046 0
M  V30 254 H 22.0745 5.46623 5.28306 0
M  V30 255 N 23.6496 -1.47581 0.552962 0
M  V30 256 C 24.8776 -2.06875 0.0320556 0
M  V30 257 C 25.2926 -1.40625 -1.25976 0
M  V30 258 O 24.6496 -0.501349 -1.75479 0
M  V30 259 C 24.7006 -3.61092 -0.17167 0
M  V30 260 O 24.4216 -4.24858 1.06899 0
M  V30 261 C 25.9226 -4.37242 -0.730344 0
M  V30 262 H 23.1426 -0.669561 0.043915 0
M  V30 263 H 25.6866 -1.89646 0.765163 0
M  V30 264 H 23.8416 -3.7785 -0.854894 0
M  V30 265 H 24.2556 -5.17334 0.864059 0
M  V30 266 H 25.7296 -5.45842 -0.822203 0
M  V30 267 H 26.2066 -4.03235 -1.74064 0
M  V30 268 H 26.8126 -4.25219 -0.0829543 0
M  V30 269 N 25.1277 -0.289203 -1.54924 0
M  V30 270 C 26.4047 0.376032 -1.91951 0
M  V30 271 C 26.7847 1.72622 -1.21511 0
M  V30 272 O 26.1327 2.25853 -0.346767 0
M  V30 273 C 26.3427 0.502378 -3.45365 0
M  V30 274 C 27.6907 0.778741 -4.17398 0
M  V30 275 O 28.7147 0.586647 -3.51336 0
M  V30 276 O 27.5737 1.14698 -5.34328 0
M  V30 277 H 24.6677 0.208167 -0.800372 0
M  V30 278 H 27.2137 -0.336394 -1.66332 0
M  V30 279 H 25.9857 -0.447255 -3.88736 0
M  V30 280 H 25.6087 1.26373 -3.76982 0
M  V30 281 N 26.6058 1.57591 -0.0167156 0
M  V30 282 C 27.5378 2.06343 0.997753 0
M  V30 283 C 28.5508 0.984469 1.29661 0
M  V30 284 O 29.7398 1.26093 1.26344 0
M  V30 285 C 26.8398 2.46255 2.32834 0
M  V30 286 C 26.0128 3.77083 2.21646 0
M  V30 287 C 25.0718 4.0368 3.37534 0
M  V30 288 O 24.0978 4.7411 3.14973 0
M  V30 289 N 25.2998 3.52881 4.60929 0
M  V30 290 H 28.0648 2.93997 0.581875 0
M  V30 291 H 25.6258 1.61002 0.170316 0
M  V30 292 H 27.6178 2.61149 3.09166 0
M  V30 293 H 26.1878 1.64032 2.66106 0
M  V30 294 H 25.4078 3.72106 1.30119 0
M  V30 295 H 26.6958 4.62822 2.11361 0
M  V30 296 H 26.0938 2.95878 4.82154 0
M  V30 297 H 24.6508 3.73076 5.34469 0
M  V30 298 N 28.0839 -0.256276 1.55502 0
M  V30 299 C 29.0309 -1.31714 1.89526 0
M  V30 300 C 30.0009 -1.4828 0.748479 0
M  V30 301 O 31.1859 -1.62416 1.00128 0
M  V30 302 C 28.3259 -2.66933 2.18725 0
M  V30 303 C 27.4389 -2.58452 3.4616 0
M  V30 304 C 26.5739 -3.85961 3.64976 0
M  V30 305 C 25.6129 -3.72059 4.86044 0
M  V30 306 N 24.7499 -4.9144 5.01429 0
M  V30 307 H 29.5899 -1.01998 2.80001 0
M  V30 308 H 27.1269 -0.492413 1.38613 0
M  V30 309 H 29.0849 -3.4563 2.33657 0
M  V30 310 H 27.7149 -2.94816 1.31466 0
M  V30 311 H 26.7669 -1.71374 3.3961 0
M  V30 312 H 28.0789 -2.44085 4.34999 0
M  V30 313 H 27.2329 -4.73101 3.79816 0
M  V30 314 H 25.9719 -4.03215 2.74353 0
M  V30 315 H 24.9769 -2.83302 4.7119 0
M  V30 316 H 26.2019 -3.56309 5.78118 0
M  V30 317 H 24.1479 -5.09072 4.13741 0
M  V30 318 H 24.0649 -4.79668 5.84341 0
M  V30 319 H 25.3329 -5.80104 5.20672 0
M  V30 320 N 29.562 -1.4872 -0.521534 0
M  V30 321 C 30.81 -1.56857 -1.27437 0
M  V30 322 C 31.131 -0.247982 -1.93417 0
M  V30 323 O 30.401 0.731151 -1.81744 0
M  V30 324 H 28.981 -0.577885 -0.473347 0
M  V30 325 H 31.643 -1.85233 -0.606205 0
M  V30 326 H 30.739 -2.35402 -2.0492 0
M  V30 327 N 31.0401 0.771051 -1.3745 0
M  V30 328 C 31.9881 1.90574 -1.33358 0
M  V30 329 C 32.9821 1.67936 -0.22224 0
M  V30 330 O 34.1881 1.75717 -0.390304 0
M  V30 331 H 30.5631 0.626714 -0.415612 0
M  V30 332 H 32.5341 1.91142 -2.29144 0
M  V30 333 C 31.2831 3.27845 -1.15813 0
M  V30 334 H 30.6061 3.45842 -2.00583 0
M  V30 335 H 32.0461 4.07538 -1.17 0
M  V30 336 C 30.5051 3.36625 0.136165 0
M  V30 337 O 31.0351 3.85785 1.11949 0
M  V30 338 N 29.2411 2.89997 0.187099 0
M  V30 339 H 28.7881 2.50182 -0.613753 0
M  V30 340 H 28.7461 2.96252 1.05272 0
M  V30 341 N 32.5182 1.22032 0.997298 0
M  V30 342 C 33.7462 1.06841 1.7718 0
M  V30 343 C 34.1612 -0.381325 1.84909 0
M  V30 344 O 33.5182 -1.26437 1.31605 0
M  V30 345 C 33.5692 1.66814 3.20711 0
M  V30 346 O 33.2902 3.06116 3.13408 0
M  V30 347 C 34.7912 1.56838 4.14628 0
M  V30 348 H 32.0112 0.374782 0.556578 0
M  V30 349 H 34.5552 1.61532 1.2541 0
M  V30 350 H 32.7102 1.16196 3.69564 0
M  V30 351 H 33.1242 3.34926 4.0364 0
M  V30 352 H 34.5982 2.03532 5.13107 0
M  V30 353 H 35.0752 0.524155 4.36061 0
M  V30 354 H 35.6812 2.06741 3.7167 0
M  V30 355 N 33.9963 -1.19345 1.0293 0
M  V30 356 C 35.2453 -1.88363 0.721256 0
M  V30 357 C 35.5583 -1.80514 -0.753254 0
M  V30 358 O 36.7643 -2.44788 -1.17436 0
M  V30 359 C 35.2203 -3.37872 1.23978 0
M  V30 360 C 34.8283 -3.54278 2.74211 0
M  V30 361 C 36.5723 -4.12365 1.00775 0
M  V30 362 C 34.4793 -4.97682 3.19479 0
M  V30 363 H 33.4093 -0.705484 0.266098 0
M  V30 364 H 36.0603 -1.34928 1.24365 0
M  V30 365 H 34.4423 -3.90707 0.6453 0
M  V30 366 H 35.6163 -3.11769 3.39318 0
M  V30 367 H 33.9313 -2.93174 2.95699 0
M  V30 368 H 36.5283 -5.18119 1.32123 0
M  V30 369 H 36.8713 -4.16263 -0.0554308 0
M  V30 370 H 37.4043 -3.65668 1.56625 0
M  V30 371 H 34.1433 -4.98945 4.25128 0
M  V30 372 H 33.6633 -5.4095 2.591 0
M  V30 373 H 35.3423 -5.66337 3.12845 0
M  V30 374 N 35.4744 -0.807222 -1.35358 0
M  V30 375 C 36.7204 -0.388463 -1.99045 0
M  V30 376 C 37.0534 1.04184 -1.63888 0
M  V30 377 O 36.3284 1.72292 -0.902535 0
M  V30 378 C 36.6114 -0.572783 -3.55515 0
M  V30 379 C 36.4644 -2.04807 -4.00468 0
M  V30 380 C 37.7834 0.00114064 -4.401 0
M  V30 381 H 34.9024 -0.142619 -0.723069 0
M  V30 382 H 37.5444 -1.01687 -1.60498 0
M  V30 383 H 35.6944 -0.0378425 -3.88482 0
M  V30 384 H 37.3664 -2.64544 -3.77908 0
M  V30 385 H 35.6094 -2.54427 -3.51353 0
M  V30 386 H 36.2804 -2.12792 -5.09337 0
M  V30 387 H 38.7564 -0.455716 -4.13597 0
M  V30 388 H 37.6324 -0.157737 -5.48673 0
M  V30 389 H 37.8934 1.09488 -4.28328 0
M  V30 390 N 36.9525 1.47285 -0.560781 0
M  V30 391 C 38.2005 2.02064 -0.0379868 0
M  V30 392 C 38.5215 1.43711 1.31803 0
M  V30 393 O 37.7915 0.61362 1.86042 0
M  V30 394 H 36.3715 0.746918 -0.0110531 0
M  V30 395 H 39.0335 1.80648 -0.731598 0
M  V30 396 H 38.1295 3.12064 0.0474463 0
M  V30 397 N 38.4306 0.297415 1.54768 0
M  V30 398 C 39.6556 -0.318435 2.04941 0
M  V30 399 C 40.0806 -1.4701 1.17345 0
M  V30 400 O 39.4386 -1.80436 0.176758 0
M  V30 401 C 39.4866 -0.755749 3.52592 0
M  V30 402 O 38.5906 -1.86088 3.68028 0
M  V30 403 H 37.9316 -0.062421 0.661059 0
M  V30 404 H 40.4616 0.438215 1.99852 0
M  V30 405 H 40.4716 -1.04552 3.94376 0
M  V30 406 H 39.1466 0.0867233 4.1581 0
M  V30 407 H 37.7236 -1.57193 3.38149 0
M  V30 408 N 39.9087 -1.5758 0.0250728 0
M  V30 409 C 41.1567 -1.91255 -0.653151 0
M  V30 410 C 41.4777 -0.901691 -1.729 0
M  V30 411 O 40.7477 0.0573785 -1.95816 0
M  V30 412 H 39.3277 -0.705942 -0.244243 0
M  V30 413 H 41.9897 -1.94767 0.0719209 0
M  V30 414 H 41.0857 -2.91752 -1.10847 0
M  V30 415 N 41.3868 0.248026 -1.55636 0
M  V30 416 C 42.6118 0.998028 -1.81808 0
M  V30 417 C 43.0368 1.78207 -0.601979 0
M  V30 418 O 42.3948 1.75653 0.448961 0
M  V30 419 C 42.4428 1.9125 -3.05705 0
M  V30 420 O 41.5468 3.00406 -2.82542 0
M  V30 421 H 40.8878 0.284045 -0.600179 0
M  V30 422 H 43.4178 0.269357 -2.02819 0
M  V30 423 H 43.4278 2.32737 -3.35108 0
M  V30 424 H 42.1028 1.33602 -3.93857 0
M  V30 425 H 40.6798 2.63056 -2.64303 0
M  V30 426 N 42.8649 1.48995 0.513639 0
M  V30 427 C 44.1129 1.57531 1.26604 0
M  V30 428 C 44.4339 0.258236 1.93283 0
M  V30 429 O 43.7039 -0.721502 1.8213 0
M  V30 430 H 42.2839 0.580387 0.470276 0
M  V30 431 H 44.9459 1.85552 0.596373 0
M  V30 432 H 44.0419 2.36486 2.03669 0
M  V30 433 N 44.343 -0.763751 1.37857 0
M  V30 434 C 45.591 -1.51957 1.33243 0
M  V30 435 C 45.912 -1.94835 -0.0801709 0
M  V30 436 O 45.182 -1.66894 -1.02582 0
M  V30 437 H 43.762 -0.563626 0.49024 0
M  V30 438 H 46.424 -0.908504 1.7243 0
M  V30 439 H 45.52 -2.41523 1.97669 0
M  V30 440 N 45.8211 -1.22559 -0.990812 0
M  V30 441 C 47.0491 -1.07779 -1.76611 0
M  V30 442 C 47.4641 0.371513 -1.85109 0
M  V30 443 O 46.8211 1.25737 -1.32274 0
M  V30 444 C 46.8721 -1.68512 -3.19822 0
M  V30 445 O 46.5931 -3.07774 -3.1178 0
M  V30 446 C 48.0941 -1.59035 -4.13791 0
M  V30 447 H 45.3141 -0.377729 -0.554583 0
M  V30 448 H 47.8581 -1.62195 -1.24551 0
M  V30 449 H 46.0131 -1.18154 -3.68942 0
M  V30 450 H 46.4271 -3.37062 -4.01858 0
M  V30 451 H 47.9011 -2.0625 -5.1202 0
M  V30 452 H 48.3781 -0.547273 -4.35777 0
M  V30 453 H 48.9841 -2.08709 -3.70568 0
M  V30 454 N 47.2992 1.18797 -1.03562 0
M  V30 455 C 48.5272 1.92599 -0.755869 0
M  V30 456 C 48.9422 1.75886 0.686271 0
M  V30 457 O 48.2992 1.08517 1.46732 0
M  V30 458 C 48.3502 3.44159 -1.10619 0
M  V30 459 O 48.0712 3.60341 -2.4917 0
M  V30 460 C 49.5722 4.3507 -0.850214 0
M  V30 461 H 46.7922 0.611587 -0.276048 0
M  V30 462 H 49.3362 1.50742 -1.38192 0
M  V30 463 H 47.4912 3.83823 -0.525194 0
M  V30 464 H 47.9052 4.54128 -2.62427 0
M  V30 465 H 49.3792 5.39989 -1.14523 0
M  V30 466 H 49.8562 4.38673 0.215176 0
M  V30 467 H 50.4622 4.01097 -1.41426 0
M  V30 468 N 48.7773 0.814389 1.34928 0
M  V30 469 C 49.7243 0.22822 2.29669 0
M  V30 470 C 50.6943 -0.642164 1.53184 0
M  V30 471 O 51.8793 -0.585605 1.81591 0
M  V30 472 C 49.0193 -0.61089 3.3965 0
M  V30 473 C 48.1323 0.280792 4.31086 0
M  V30 474 C 47.2673 -0.567067 5.28165 0
M  V30 475 C 46.3063 0.324531 6.11239 0
M  V30 476 N 45.4433 -0.483756 7.00431 0
M  V30 477 H 50.2833 1.04153 2.79206 0
M  V30 478 H 47.8203 0.525133 1.37407 0
M  V30 479 H 49.7783 -1.11263 4.0209 0
M  V30 480 H 48.4083 -1.38939 2.91369 0
M  V30 481 H 47.4603 0.900688 3.69583 0
M  V30 482 H 48.7723 0.966723 4.89342 0
M  V30 483 H 47.9263 -1.13363 5.96015 0
M  V30 484 H 46.6653 -1.28654 4.70425 0
M  V30 485 H 45.6703 0.903298 5.42329 0
M  V30 486 H 46.8953 1.04198 6.71059 0
M  V30 487 H 44.8413 -1.18706 6.45171 0
M  V30 488 H 44.7583 0.143965 7.55863 0
M  V30 489 H 46.0263 -1.03334 7.7262 0
M  V30 490 N 50.2554 -1.46986 0.568584 0
M  V30 491 C 51.4854 -2.0653 0.0539173 0
M  V30 492 C 51.8934 -1.42004 -1.25026 0
M  V30 493 O 51.2364 -0.514541 -1.76347 0
M  V30 494 C 51.2984 -3.58938 -0.200854 0
M  V30 495 C 50.9624 -4.45572 1.01559 0
M  V30 496 C 51.9594 -4.82986 1.92407 0
M  V30 497 C 49.6444 -4.8692 1.23346 0
M  V30 498 C 51.6384 -5.60559 3.03402 0
M  V30 499 C 49.3254 -5.64255 2.34649 0
M  V30 500 C 50.3234 -6.00986 3.24507 0
M  V30 501 O 50.0114 -6.76761 4.33878 0
M  V30 502 H 49.7434 -0.674292 0.0480234 0
M  V30 503 H 52.2974 -1.89812 0.784896 0
M  V30 504 H 50.5274 -3.73911 -0.986279 0
M  V30 505 H 52.2164 -4.0046 -0.662294 0
M  V30 506 H 52.9824 -4.51633 1.76785 0
M  V30 507 H 48.8614 -4.57789 0.543178 0
M  V30 508 H 52.4054 -5.89147 3.73565 0
M  V30 509 H 48.3024 -5.95021 2.5024 0
M  V30 510 H 49.0704 -6.95168 4.32068 0
M  V30 511 N 51.7335 -0.305618 -1.54608 0
M  V30 512 C 52.9805 0.302298 -2.00231 0
M  V30 513 C 53.3085 1.5354 -1.19398 0
M  V30 514 O 52.5635 1.93973 -0.259423 0
M  V30 515 C 52.8625 0.698983 -3.50498 0
M  V30 516 C 52.5285 -0.432903 -4.48817 0
M  V30 517 C 51.1905 -0.743622 -4.75419 0
M  V30 518 C 53.5425 -1.19409 -5.07337 0
M  V30 519 C 50.8705 -1.81857 -5.57804 0
M  V30 520 C 53.2225 -2.25899 -5.90891 0
M  V30 521 C 51.8865 -2.57572 -6.15803 0
M  V30 522 H 51.1565 0.110619 -0.732697 0
M  V30 523 H 53.8035 -0.425674 -1.86709 0
M  V30 524 H 52.1085 1.50711 -3.61654 0
M  V30 525 H 53.8055 1.1806 -3.83227 0
M  V30 526 H 50.3955 -0.18063 -4.28219 0
M  V30 527 H 54.5795 -0.967295 -4.86782 0
M  V30 528 H 49.8355 -2.06864 -5.75341 0
M  V30 529 H 54.0095 -2.85335 -6.35261 0
M  V30 530 H 51.6365 -3.40998 -6.7943 0
M  V30 531 N 53.2116 1.57565 -0.0334293 0
M  V30 532 C 54.6276 1.56297 0.322997 0
M  V30 533 C 54.8276 1.03945 1.7262 0
M  V30 534 O 53.8836 0.688109 2.42943 0
M  V30 535 C 55.1966 3.00232 0.167664 0
M  V30 536 C 56.7446 3.12078 0.240107 0
M  V30 537 C 57.2196 4.57859 0.113513 0
M  V30 538 N 58.7106 4.62887 0.170359 0
M  V30 539 C 59.4456 5.73319 0.0962517 0
M  V30 540 N 58.9416 6.92794 -0.0291881 0
M  V30 541 N 60.7346 5.61898 0.150551 0
M  V30 542 H 52.8856 1.89923 -0.950956 0
M  V30 543 H 55.1486 0.873824 -0.367608 0
M  V30 544 H 54.8546 3.42501 -0.799102 0
M  V30 545 H 54.7286 3.654 0.936083 0
M  V30 546 H 57.1156 2.69718 1.19733 0
M  V30 547 H 57.1966 2.49623 -0.558763 0
M  V30 548 H 56.8406 5.009 -0.840314 0
M  V30 549 H 56.7706 5.18299 0.931302 0
M  V30 550 H 59.2616 3.76954 0.26728 0
M  V30 551 H 59.5746 7.7276 -0.0789252 0
M  V30 552 H 57.9196 6.94971 -0.0640299 0
M  V30 553 H 61.1106 4.67448 0.246981 0
M  V30 554 H 61.2836 6.47938 0.0893365 0
M  V30 555 N 54.6897 -0.239769 1.55765 0
M  V30 556 C 55.9387 -0.964754 1.77131 0
M  V30 557 C 56.2517 -1.86213 0.59868 0
M  V30 558 O 57.4577 -2.6244 0.695522 0
M  V30 559 C 55.9137 -1.76552 3.1362 0
M  V30 560 C 55.5217 -0.915185 4.38553 0
M  V30 561 C 57.2657 -2.48281 3.44321 0
M  V30 562 C 55.1727 -1.71225 5.66071 0
M  V30 563 H 54.1027 -0.363953 0.660344 0
M  V30 564 H 56.7537 -0.219181 1.82186 0
M  V30 565 H 55.1357 -2.55331 3.02691 0
M  V30 566 H 56.3097 -0.169217 4.60489 0
M  V30 567 H 54.6247 -0.310889 4.15238 0
M  V30 568 H 57.2217 -3.08382 4.36812 0
M  V30 569 H 57.5647 -3.20256 2.65973 0
M  V30 570 H 58.0977 -1.76507 3.56497 0
M  V30 571 H 54.8367 -1.03612 6.4726 0
M  V30 572 H 54.3567 -2.43331 5.48224 0
M  V30 573 H 56.0357 -2.27758 6.05587 0
M  V30 574 N 56.1678 -1.49265 -0.50573 0
M  V30 575 C 57.5788 -1.51769 -1.08734 0
M  V30 576 C 57.9298 -0.301192 -1.93874 0
M  V30 577 O 57.0548 0.589456 -2.08217 0
M  V30 578 C 57.6498 -2.75017 -1.97867 0
M  V30 579 C 56.2088 -2.80314 -2.51199 0
M  V30 580 C 55.3558 -2.4562 -1.28709 0
M  V30 581 H 58.3068 -1.56031 -0.289855 0
M  V30 582 H 58.3278 -2.5491 -2.82491 0
M  V30 583 H 57.8398 -3.63539 -1.35873 0
M  V30 584 H 55.9408 -1.96061 -3.16845 0
M  V30 585 H 56.0538 -3.82366 -2.88675 0
M  V30 586 H 54.4178 -1.97297 -1.61078 0
M  V30 587 H 55.2008 -3.36411 -0.6843 0
M  V30 588 N 57.6459 0.756429 -1.3826 0
M  V30 589 C 58.6089 1.85176 -1.35065 0
M  V30 590 C 59.6089 1.58818 -0.251703 0
M  V30 591 O 60.7989 1.66615 -0.508433 0
M  V30 592 C 57.9309 3.22596 -1.10201 0
M  V30 593 H 59.1239 1.89417 -2.3251 0
M  V30 594 H 56.6769 0.95783 -1.23512 0
M  V30 595 H 57.4119 3.24025 -0.133504 0
M  V30 596 H 57.1969 3.43122 -1.89762 0
M  V30 597 H 58.6869 4.02673 -1.10654 0
M  V30 598 N 59.124 1.23083 0.984299 0
M  V30 599 C 60.057 0.951786 2.07404 0
M  V30 600 C 61.035 -0.10848 1.62238 0
M  V30 601 O 62.219 0.0249467 1.88483 0
M  V30 602 C 59.346 0.433142 3.35919 0
M  V30 603 C 58.392 1.47941 4.0002 0
M  V30 604 S 59.225 3.05556 4.39768 0
M  V30 605 C 60.381 2.55351 5.71442 0
M  V30 606 H 60.614 1.87456 2.30754 0
M  V30 607 H 58.147 1.06284 1.11996 0
M  V30 608 H 60.105 0.140506 4.10259 0
M  V30 609 H 58.766 -0.468656 3.10584 0
M  V30 610 H 57.959 1.06658 4.92585 0
M  V30 611 H 57.561 1.7212 3.3204 0
M  V30 612 H 59.853 1.97128 6.48187 0
M  V30 613 H 60.796 3.46441 6.17563 0
M  V30 614 H 61.204 1.96339 5.29255 0
M  V30 615 N 60.6021 -1.18246 1.0419 0
M  V30 616 C 61.8421 -1.89948 0.754916 0
M  V30 617 C 62.2061 -1.78608 -0.70451 0
M  V30 618 O 63.4071 -2.4503 -1.10516 0
M  V30 619 C 61.6781 -3.36305 1.20969 0
M  V30 620 S 63.2371 -4.26088 1.04854 0
M  V30 621 H 60.0551 -0.655897 0.274446 0
M  V30 622 H 62.6571 -1.42873 1.33445 0
M  V30 623 H 61.3611 -3.42089 2.26722 0
M  V30 624 H 60.8921 -3.8842 0.624004 0
M  V30 625 H 62.9071 -4.96189 -0.0332896 0
M  V30 626 N 62.0802 -0.821533 -1.34494 0
M  V30 627 C 63.3082 -0.421884 -2.02553 0
M  V30 628 C 63.7232 0.971745 -1.61872 0
M  V30 629 O 63.0802 1.62864 -0.823496 0
M  V30 630 C 63.1312 -0.51285 -3.57844 0
M  V30 631 O 62.8522 -1.85155 -3.97051 0
M  V30 632 C 64.3532 -0.107921 -4.43169 0
M  V30 633 H 61.5732 -0.169482 -0.649243 0
M  V30 634 H 64.1172 -1.1093 -1.71798 0
M  V30 635 H 62.2722 0.126474 -3.87193 0
M  V30 636 H 62.6862 -1.82482 -4.91732 0
M  V30 637 H 64.1602 -0.222657 -5.51551 0
M  V30 638 H 64.6372 0.948401 -4.28838 0
M  V30 639 H 65.2432 -0.720989 -4.19144 0
M  V30 640 N 63.5583 1.46682 -0.576371 0
M  V30 641 C 64.7863 2.06798 -0.0649635 0
M  V30 642 C 65.2013 1.42612 1.23723 0
M  V30 643 O 64.5583 0.529203 1.74659 0
M  V30 644 C 64.6093 3.6132 0.114202 0
M  V30 645 O 64.3303 4.23104 -1.13644 0
M  V30 646 C 65.8313 4.38349 0.66069 0
M  V30 647 H 63.0513 0.668778 -0.0545616 0
M  V30 648 H 65.5953 1.88404 -0.795237 0
M  V30 649 H 63.7503 3.79162 0.794673 0
M  V30 650 H 64.1643 5.15894 -0.946253 0
M  V30 651 H 65.6383 5.47081 0.73526 0
M  V30 652 H 66.1153 4.05953 1.67627 0
M  V30 653 H 66.7213 4.25297 0.0152951 0
M  V30 654 N 65.0364 0.313813 1.54444 0
M  V30 655 C 66.2614 -0.296681 2.05267 0
M  V30 656 C 66.6864 -1.45757 1.18897 0
M  V30 657 O 66.0444 -1.80239 0.195886 0
M  V30 658 C 66.0924 -0.71831 3.53373 0
M  V30 659 O 65.1964 -1.82175 3.69981 0
M  V30 660 H 64.5374 -0.0554061 0.661684 0
M  V30 661 H 67.0674 0.459387 1.99376 0
M  V30 662 H 67.0774 -1.00364 3.95463 0
M  V30 663 H 65.7524 0.130821 4.15694 0
M  V30 664 H 64.3294 -1.53598 3.39797 0
M  V30 665 N 66.5145 -1.57545 0.0417849 0
M  V30 666 C 67.4615 -2.10977 -0.935805 0
M  V30 667 C 68.4315 -1.01486 -1.31491 0
M  V30 668 O 69.6165 -1.2898 -1.40602 0
M  V30 669 C 66.7565 -2.65169 -2.2086 0
M  V30 670 C 65.8695 -3.88714 -1.88482 0
M  V30 671 C 65.0045 -4.31254 -3.1015 0
M  V30 672 C 64.0435 -5.47524 -2.7365 0
M  V30 673 N 63.1805 -5.85162 -3.87982 0
M  V30 674 H 68.0205 -2.94218 -0.473249 0
M  V30 675 H 65.5575 -1.45415 -0.221981 0
M  V30 676 H 67.5155 -2.94685 -2.95325 0
M  V30 677 H 66.1455 -1.8474 -2.64709 0
M  V30 678 H 65.1975 -3.65849 -1.04205 0
M  V30 679 H 66.5095 -4.73245 -1.57608 0
M  V30 680 H 65.6635 -4.62273 -3.92923 0
M  V30 681 H 64.4025 -3.45516 -3.44195 0
M  V30 682 H 63.4075 -5.16187 -1.89291 0
M  V30 683 H 64.6325 -6.34971 -2.40807 0
M  V30 684 H 62.5785 -5.02377 -4.21846 0
M  V30 685 H 62.4955 -6.64362 -3.60775 0
M  V30 686 H 63.7635 -6.20791 -4.71422 0
M  V30 687 N 67.9926 0.231505 -1.5589 0
M  V30 688 C 69.2406 0.955461 -1.78088 0
M  V30 689 C 69.5616 1.85262 -0.608533 0
M  V30 690 O 68.8316 1.92277 0.375035 0
M  V30 691 H 67.4116 0.355787 -0.656829 0
M  V30 692 H 70.0736 0.245751 -1.93344 0
M  V30 693 H 69.1696 1.56814 -2.69844 0
M  V30 694 N 69.4707 1.49531 0.497807 0
M  V30 695 C 70.6987 1.62893 1.27567 0
M  V30 696 C 71.1137 0.301585 1.86376 0
M  V30 697 O 70.4707 -0.713335 1.67982 0
M  V30 698 C 70.5217 2.70013 2.40364 0
M  V30 699 O 70.2427 3.976 1.83972 0
M  V30 700 C 71.7437 2.94109 3.31685 0
M  V30 701 H 68.9637 0.548298 0.386794 0
M  V30 702 H 71.5077 1.95584 0.597245 0
M  V30 703 H 69.6627 2.40092 3.04031 0
M  V30 704 H 70.0767 4.56631 2.58047 0
M  V30 705 H 71.5507 3.72788 4.07104 0
M  V30 706 H 72.0277 2.04147 3.88871 0
M  V30 707 H 72.6337 3.2546 2.73781 0
M  V30 708 N 70.9488 -0.749086 1.3866 0
M  V30 709 C 72.1978 -1.50371 1.3443 0
M  V30 710 C 72.5108 -1.95503 -0.0616397 0
M  V30 711 O 73.7168 -2.70554 -0.226489 0
M  V30 712 C 72.1728 -2.71644 2.36088 0
M  V30 713 C 71.7808 -2.3352 3.82325 0
M  V30 714 C 73.5248 -3.49518 2.40909 0
M  V30 715 C 71.4318 -3.51431 4.75658 0
M  V30 716 H 70.3618 -0.564628 0.499712 0
M  V30 717 H 73.0128 -0.818449 1.64237 0
M  V30 718 H 71.3948 -3.42175 1.9933 0
M  V30 719 H 72.5688 -1.70627 4.28046 0
M  V30 720 H 70.8838 -1.6877 3.80665 0
M  V30 721 H 73.4808 -4.37197 3.07836 0
M  V30 722 H 73.8238 -3.90992 1.42937 0
M  V30 723 H 74.3568 -2.86005 2.76489 0
M  V30 724 H 71.0958 -3.15019 5.74842 0
M  V30 725 H 70.6158 -4.13352 4.34627 0
M  V30 726 H 72.2948 -4.17953 4.93887 0
M  V30 727 N 72.4269 -1.23603 -0.977757 0
M  V30 728 C 73.6729 -1.07129 -1.72195 0
M  V30 729 C 74.0059 0.390501 -1.90233 0
M  V30 730 O 73.2809 1.28902 -1.45653 0
M  V30 731 C 73.5639 -1.80031 -3.11867 0
M  V30 732 C 73.4169 -3.33899 -3.01383 0
M  V30 733 C 74.7359 -1.56492 -4.11337 0
M  V30 734 H 71.8549 -0.390571 -0.624999 0
M  V30 735 H 74.4969 -1.52142 -1.13811 0
M  V30 736 H 72.6469 -1.41768 -3.6171 0
M  V30 737 H 74.3189 -3.81699 -2.59043 0
M  V30 738 H 72.5619 -3.62796 -2.37827 0
M  V30 739 H 73.2329 -3.801 -4.00285 0
M  V30 740 H 75.7089 -1.89757 -3.70313 0
M  V30 741 H 74.5849 -2.09973 -5.07151 0
M  V30 742 H 74.8459 -0.500874 -4.39254 0
M  V30 743 N 73.905 1.17692 -1.04816 0
M  V30 744 C 75.151 1.88137 -0.75711 0
M  V30 745 C 75.484 1.80604 0.713841 0
M  V30 746 O 74.759 1.21146 1.52164 0
M  V30 747 C 75.042 3.38318 -1.2334 0
M  V30 748 C 74.895 3.54622 -2.76701 0
M  V30 749 C 76.214 4.32214 -0.829415 0
M  V30 750 H 73.333 0.683163 -0.27651 0
M  V30 751 H 75.975 1.38424 -1.30149 0
M  V30 752 H 74.125 3.80787 -0.770286 0
M  V30 753 H 75.797 3.21194 -3.31107 0
M  V30 754 H 74.04 2.97026 -3.16161 0
M  V30 755 H 74.711 4.60028 -3.05088 0
M  V30 756 H 77.187 3.97565 -1.22805 0
M  V30 757 H 76.063 5.35838 -1.19033 0
M  V30 758 H 76.324 4.41294 0.266891 0
M  V30 759 N 75.3831 0.828654 1.34056 0
M  V30 760 C 76.6301 0.419458 1.98108 0
M  V30 761 C 76.9581 -1.01886 1.65679 0
M  V30 762 O 76.2131 -1.72539 0.923512 0
M  V30 763 C 76.5121 0.575226 3.52741 0
M  V30 764 C 76.1781 1.98012 4.05095 0
M  V30 765 C 74.8401 2.36442 4.19104 0
M  V30 766 C 77.1921 2.89824 4.33188 0
M  V30 767 C 74.5201 3.66009 4.58535 0
M  V30 768 C 76.8721 4.1886 4.74066 0
M  V30 769 C 75.5361 4.5726 4.86281 0
M  V30 770 H 74.8061 0.153491 0.724929 0
M  V30 771 H 77.4531 1.05371 1.59904 0
M  V30 772 H 75.7581 -0.142385 3.91541 0
M  V30 773 H 77.4551 0.239057 4.00287 0
M  V30 774 H 74.0451 1.67162 3.94658 0
M  V30 775 H 78.2291 2.61375 4.21897 0
M  V30 776 H 73.4851 3.95579 4.66184 0
M  V30 777 H 77.6591 4.90086 4.94761 0
M  V30 778 H 75.2861 5.57707 5.16592 0
M  V30 779 N 76.8612 -1.46375 0.584142 0
M  V30 780 C 77.8242 -2.28784 -0.138108 0
M  V30 781 C 78.8242 -1.38471 -0.817462 0
M  V30 782 O 80.0142 -1.60833 -0.669199 0
M  V30 783 C 77.1462 -3.18892 -1.20503 0
M  V30 784 H 78.3392 -2.94117 0.586127 0
M  V30 785 H 75.8922 -1.52509 0.342171 0
M  V30 786 H 76.6272 -2.58309 -1.96079 0
M  V30 787 H 76.4122 -3.85388 -0.722384 0
M  V30 788 H 77.9022 -3.80914 -1.71155 0
M  V30 789 N 78.3393 -0.321999 -1.54275 0
M  V30 790 C 79.6163 0.335232 -1.92706 0
M  V30 791 C 79.9963 1.70006 -1.25145 0
M  V30 792 O 79.3443 2.25067 -0.394596 0
M  V30 793 C 79.5543 0.429008 -3.46353 0
M  V30 794 C 80.9023 0.690029 -4.18956 0
M  V30 795 O 81.9263 0.511992 -3.52501 0
M  V30 796 O 80.7853 1.03338 -5.36641 0
M  V30 797 H 77.8793 0.191143 -0.804608 0
M  V30 798 H 80.4253 -0.3716 -1.65581 0
M  V30 799 H 79.1973 -0.529611 -3.87699 0
M  V30 800 H 78.8203 1.18348 -3.79578 0
M  V30 801 N 79.8174 1.5752 -0.0501392 0
M  V30 802 C 80.7804 2.1037 0.909786 0
M  V30 803 C 81.7804 1.02308 1.24056 0
M  V30 804 O 82.9704 1.28385 1.17741 0
M  V30 805 C 80.1024 2.58708 2.21998 0
M  V30 806 H 81.2954 2.96479 0.451665 0
M  V30 807 H 78.8484 1.55038 0.198248 0
M  V30 808 H 79.5834 1.75989 2.72394 0
M  V30 809 H 79.3684 3.37675 1.99295 0
M  V30 810 H 80.8584 2.99747 2.9076 0
M  V30 811 N 81.2955 -0.223234 1.56011 0
M  V30 812 C 82.7115 -0.572856 1.48965 0
M  V30 813 C 82.9115 -1.87225 0.74492 0
M  V30 814 O 81.9675 -2.50899 0.283896 0
M  V30 815 C 83.2805 -0.653646 2.9351 0
M  V30 816 C 84.8285 -0.744386 3.0402 0
M  V30 817 C 85.3035 -0.856535 4.49919 0
M  V30 818 N 86.7945 -0.9208 4.53955 0
M  V30 819 C 87.5295 -1.02726 5.64123 0
M  V30 820 N 87.0255 -1.09777 6.84047 0
M  V30 821 N 88.8185 -1.06226 5.51971 0
M  V30 822 H 80.9695 0.629462 2.02858 0
M  V30 823 H 83.2325 0.220621 0.921971 0
M  V30 824 H 82.9385 0.231518 3.50937 0
M  V30 825 H 82.8125 -1.51781 3.45315 0
M  V30 826 H 85.1995 -1.61999 2.46658 0
M  V30 827 H 85.2805 0.14541 2.55386 0
M  V30 828 H 84.9245 0.0146069 5.07898 0
M  V30 829 H 84.8545 -1.76172 4.96257 0
M  V30 830 H 87.3455 -0.876694 3.6759 0
M  V30 831 H 87.6585 -1.17872 7.63758 0
M  V30 832 H 86.0035 -1.06693 6.86762 0
M  V30 833 H 89.1945 -1.00382 4.5721 0
M  V30 834 H 89.3675 -1.14177 6.37862 0
M  V30 835 N 82.7736 -1.49793 -0.48987 0
M  V30 836 C 83.7236 -1.63673 -1.5873 0
M  V30 837 C 84.7076 -0.491956 -1.53195 0
M  V30 838 O 85.8996 -0.745461 -1.60536 0
M  V30 839 C 83.0286 -1.71689 -2.97284 0
M  V30 840 C 82.1146 -2.91781 -3.07774 0
M  V30 841 N 82.5056 -4.15714 -2.88124 0
M  V30 842 C 80.8036 -2.89949 -3.38889 0
M  V30 843 C 81.5046 -4.965 -3.03088 0
M  V30 844 N 80.4806 -4.30083 -3.3246 0
M  V30 845 H 84.2826 -2.57204 -1.42208 0
M  V30 846 H 81.7966 -1.46719 -0.69623 0
M  V30 847 H 83.7936 -1.79732 -3.76168 0
M  V30 848 H 82.4536 -0.793024 -3.14867 0
M  V30 849 H 83.4646 -4.45515 -2.64077 0
M  V30 850 H 80.1416 -2.06987 -3.62578 0
M  V30 851 H 81.5316 -6.04991 -2.92294 0
M  V30 852 N 84.2517 0.741722 -1.39055 0
M  V30 853 C 85.1997 1.87702 -1.3737 0
M  V30 854 C 86.1937 1.67427 -0.257812 0
M  V30 855 O 87.3997 1.7485 -0.427489 0
M  V30 856 H 83.7747 0.617757 -0.428812 0
M  V30 857 H 85.7457 1.86239 -2.33147 0
M  V30 858 C 84.4947 3.25315 -1.22741 0
M  V30 859 H 83.8177 3.41509 -2.07873 0
M  V30 860 H 85.2577 4.04964 -1.25618 0
M  V30 861 C 83.7167 3.36838 0.0647316 0
M  V30 862 O 84.2467 3.88073 1.03741 0
M  V30 863 N 82.4527 2.90329 0.125544 0
M  V30 864 H 81.9997 2.48823 -0.666682 0
M  V30 865 H 81.9577 2.98418 0.989639 0
M  V30 866 N 85.7298 1.2412 0.971189 0
M  V30 867 C 86.9578 1.10575 1.74874 0
M  V30 868 C 87.3728 -0.342017 1.85676 0
M  V30 869 O 86.7298 -1.23617 1.34258 0
M  V30 870 C 86.7808 1.73579 3.171 0
M  V30 871 O 86.5018 3.12695 3.06844 0
M  V30 872 C 88.0028 1.65598 4.11208 0
M  V30 873 H 85.2228 0.386504 0.548503 0
M  V30 874 H 87.7668 1.64156 1.21955 0
M  V30 875 H 85.9218 1.24009 3.67016 0
M  V30 876 H 86.3358 3.43412 3.96445 0
M  V30 877 H 87.8098 2.1437 5.08674 0
M  V30 878 H 88.2868 0.616532 4.34851 0
M  V30 879 H 88.8928 2.14578 3.67201 0
M  V30 880 N 87.2079 -1.17134 1.05439 0
M  V30 881 C 88.1709 -2.19439 0.661764 0
M  V30 882 C 89.1709 -1.58199 -0.288042 0
M  V30 883 O 90.3609 -1.74053 -0.0715803 0
M  V30 884 C 87.4929 -3.40889 -0.0276209 0
M  V30 885 H 88.6859 -2.55688 1.56728 0
M  V30 886 H 86.2389 -1.31259 0.848567 0
M  V30 887 H 86.9739 -3.10187 -0.94629 0
M  V30 888 H 86.7589 -3.86586 0.655238 0
M  V30 889 H 88.2489 -4.16603 -0.288342 0
M  V30 890 N 88.686 -0.835752 -1.33615 0
M  V30 891 C 89.911 -0.442389 -2.02627 0
M  V30 892 C 90.336 0.947735 -1.62479 0
M  V30 893 O 89.694 1.61907 -0.815826 0
M  V30 894 C 89.742 -0.567216 -3.56111 0
M  V30 895 O 88.846 0.407799 -4.10379 0
M  V30 896 H 88.187 -0.180278 -0.639059 0
M  V30 897 H 90.717 -1.12972 -1.70583 0
M  V30 898 H 90.727 -0.447708 -4.05536 0
M  V30 899 H 89.402 -1.58103 -3.84677 0
M  V30 900 H 87.979 0.246107 -3.72087 0
M  V30 901 N 90.1641 1.46063 -0.591896 0
M  V30 902 C 91.4411 1.95595 -0.0137119 0
M  V30 903 C 91.8211 1.5345 1.4497 0
M  V30 904 O 91.1691 0.789543 2.14426 0
M  V30 905 C 91.3791 3.48453 -0.195373 0
M  V30 906 C 92.7271 4.24546 -0.0679765 0
M  V30 907 O 93.7511 3.55982 -0.124681 0
M  V30 908 O 92.6101 5.46467 0.0600579 0
M  V30 909 H 89.7041 0.825795 0.0446279 0
M  V30 910 H 92.2501 1.56303 -0.660859 0
M  V30 911 H 91.0221 3.72045 -1.21235 0
M  V30 912 H 90.6451 3.94597 0.487775 0
M  V30 913 N 91.6422 0.330177 1.54103 0
M  V30 914 C 92.5742 -0.566902 2.22079 0
M  V30 915 C 93.5872 -1.07462 1.22294 0
M  V30 916 O 94.7762 -0.987065 1.48726 0
M  V30 917 C 91.8762 -1.79138 2.87685 0
M  V30 918 C 91.0492 -1.42123 4.13666 0
M  V30 919 C 90.1082 -2.50394 4.62806 0
M  V30 920 O 89.1342 -2.14261 5.27334 0
M  V30 921 N 90.3362 -3.81433 4.37595 0
M  V30 922 H 93.1012 0.0151844 2.99696 0
M  V30 923 H 90.6622 0.153681 1.61169 0
M  V30 924 H 92.6542 -2.50975 3.1748 0
M  V30 925 H 91.2242 -2.28115 2.13734 0
M  V30 926 H 90.4442 -0.534201 3.90564 0
M  V30 927 H 91.7322 -1.14971 4.9564 0
M  V30 928 H 91.1302 -4.13584 3.8596 0
M  V30 929 H 89.6872 -4.4948 4.72029 0
M  V30 930 N 93.1203 -1.57491 0.0584922 0
M  V30 931 C 94.3453 -1.97711 -0.62652 0
M  V30 932 C 94.7703 -0.936132 -1.63151 0
M  V30 933 O 94.1283 0.099811 -1.81025 0
M  V30 934 C 94.1763 -3.36989 -1.28338 0
M  V30 935 O 93.2803 -3.35433 -2.39913 0
M  V30 936 H 92.6213 -0.643868 -0.162266 0
M  V30 937 H 95.1513 -2.04193 0.129064 0
M  V30 938 H 95.1613 -3.73879 -1.63335 0
M  V30 939 H 93.8363 -4.12289 -0.546889 0
M  V30 940 H 92.4133 -3.10298 -2.06809 0
M  V30 941 N 94.5984 0.214957 -1.56127 0
M  V30 942 C 95.8454 0.938372 -1.79446 0
M  V30 943 C 96.1734 1.8407 -0.628378 0
M  V30 944 O 95.4284 1.91837 0.386925 0
M  V30 945 C 95.7274 1.80314 -3.0858 0
M  V30 946 C 95.3934 1.05349 -4.3842 0
M  V30 947 C 94.0554 0.846435 -4.73697 0
M  V30 948 C 96.4074 0.524588 -5.18553 0
M  V30 949 C 93.7354 0.098683 -5.86617 0
M  V30 950 C 96.0874 -0.209853 -6.32252 0
M  V30 951 C 94.7514 -0.428102 -6.66126 0
M  V30 952 H 94.0214 0.343375 -0.656639 0
M  V30 953 H 96.6684 0.206077 -1.90388 0
M  V30 954 H 94.9734 2.6035 -2.92789 0
M  V30 955 H 96.6704 2.36513 -3.23825 0
M  V30 956 H 93.2604 1.22486 -4.10725 0
M  V30 957 H 97.4444 0.672008 -4.91729 0
M  V30 958 H 92.7004 -0.0805753 -6.11347 0
M  V30 959 H 96.8744 -0.627157 -6.9357 0
M  V30 960 H 94.5014 -1.00944 -7.53468 0
M  V30 961 N 96.0765 1.50051 0.48192 0
M  V30 962 C 97.3255 1.59741 1.23149 0
M  V30 963 C 97.6385 0.298163 1.93314 0
M  V30 964 O 98.8445 0.273835 2.70116 0
M  V30 965 C 97.3005 2.81926 2.23708 0
M  V30 966 C 96.9085 4.18685 1.59396 0
M  V30 967 C 98.6525 3.00956 2.99375 0
M  V30 968 C 96.5595 5.3207 2.58178 0
M  V30 969 H 95.4895 0.594838 0.46334 0
M  V30 970 H 98.1405 1.76467 0.503169 0
M  V30 971 H 96.5225 2.58736 2.99786 0
M  V30 972 H 97.6965 4.52088 0.891811 0
M  V30 973 H 96.0115 4.05171 0.960503 0
M  V30 974 H 98.6085 3.82836 3.73283 0
M  V30 975 H 98.9515 2.12258 3.58123 0
M  V30 976 H 99.4845 3.24277 2.30411 0
M  V30 977 H 96.2235 6.22888 2.04184 0
M  V30 978 H 95.7435 5.03098 3.26577 0
M  V30 979 H 97.4225 5.62196 3.20225 0
M  V30 980 N 97.5546 -0.734337 1.39446 0
M  V30 981 C 98.8316 -1.48579 1.27215 0
M  V30 982 C 99.2116 -2.1077 -0.117968 0
M  V30 983 O 98.5596 -1.98646 -1.12924 0
M  V30 984 C 98.7696 -2.53667 2.39696 0
M  V30 985 C 100.118 -3.20031 2.79044 0
M  V30 986 O 101.142 -2.6398 2.39151 0
M  V30 987 O 100.001 -4.21455 3.47905 0
M  V30 988 H 97.0946 -0.659816 0.49857 0
M  V30 989 H 99.6406 -0.768106 1.51322 0
M  V30 990 H 98.4126 -2.06096 3.32626 0
M  V30 991 H 98.0356 -3.32994 2.17258 0
M  V30 992 N 99.0327 -1.24633 -0.964593 0
M  V30 993 C 100.261 -1.11501 -1.74285 0
M  V30 994 C 100.676 0.332165 -1.85855 0
M  V30 995 O 100.033 1.22903 -1.34911 0
M  V30 996 C 100.084 -1.75258 -3.16175 0
M  V30 997 O 99.8047 -3.14318 -3.05182 0
M  V30 998 C 101.306 -1.67776 -4.10324 0
M  V30 999 H 98.5257 -0.389407 -0.546446 0
M  V30 1000 H 101.07 -1.64801 -1.21083 0
M  V30 1001 H 99.2247 -1.25954 -3.66353 0
M  V30 1002 H 99.6387 -3.4551 -3.94618 0
M  V30 1003 H 101.113 -2.17064 -5.0753 0
M  V30 1004 H 101.59 -0.639584 -4.34518 0
M  V30 1005 H 102.196 -2.16522 -3.66058 0
M  V30 1006 N 100.511 1.16574 -1.06058 0
M  V30 1007 C 101.474 2.19085 -0.673392 0
M  V30 1008 C 102.474 1.5835 0.279648 0
M  V30 1009 O 103.664 1.74088 0.0623488 0
M  V30 1010 C 100.796 3.40899 0.00954234 0
M  V30 1011 H 101.989 2.54853 -1.58081 0
M  V30 1012 H 99.5418 1.30808 -0.855516 0
M  V30 1013 H 100.277 3.10684 0.929826 0
M  V30 1014 H 100.062 3.86233 -0.67573 0
M  V30 1015 H 101.552 4.1675 0.266245 0
M  V30 1016 N 101.989 0.842826 1.3317 0
M  V30 1017 C 102.952 0.284065 2.27433 0
M  V30 1018 C 103.952 -0.54948 1.5112 0
M  V30 1019 O 105.142 -0.362699 1.70382 0
M  V30 1020 C 102.274 -0.599384 3.35589 0
M  V30 1021 H 103.467 1.11589 2.78366 0
M  V30 1022 H 101.02 0.616221 1.4364 0
M  V30 1023 H 101.755 -1.45349 2.89904 0
M  V30 1024 H 101.54 -0.00291266 3.921 0
M  V30 1025 H 103.03 -0.983488 4.05854 0
M  V30 1026 N 103.467 -1.45747 0.599634 0
M  V30 1027 C 104.43 -2.28917 -0.113835 0
M  V30 1028 C 105.43 -1.3933 -0.802729 0
M  V30 1029 O 106.62 -1.61534 -0.652103 0
M  V30 1030 C 103.752 -3.20152 -1.17114 0
M  V30 1031 H 104.945 -2.93478 0.617289 0
M  V30 1032 H 102.498 -1.52137 0.358327 0
M  V30 1033 H 103.233 -2.60374 -1.93329 0
M  V30 1034 H 103.018 -3.86133 -0.681468 0
M  V30 1035 H 104.508 -3.82708 -1.67105 0
M  V30 1036 N 104.945 -0.338344 -1.53925 0
M  V30 1037 C 106.361 0.0137736 -1.59594 0
M  V30 1038 C 106.561 1.49186 -1.35447 0
M  V30 1039 O 105.617 2.24987 -1.14616 0
M  V30 1040 C 106.93 -0.41773 -2.97784 0
M  V30 1041 C 108.478 -0.369633 -3.1081 0
M  V30 1042 C 108.953 -0.776524 -4.51369 0
M  V30 1043 N 110.444 -0.730506 -4.57403 0
M  V30 1044 C 111.179 -1.01736 -5.64303 0
M  V30 1045 N 110.675 -1.3721 -6.79077 0
M  V30 1046 N 112.468 -0.941942 -5.54151 0
M  V30 1047 H 104.619 -1.3012 -1.67876 0
M  V30 1048 H 106.882 -0.530082 -0.78595 0
M  V30 1049 H 106.588 -1.44811 -3.20504 0
M  V30 1050 H 106.462 0.209729 -3.76616 0
M  V30 1051 H 108.849 0.651568 -2.87817 0
M  V30 1052 H 108.93 -1.03223 -2.34049 0
M  V30 1053 H 108.574 -1.79571 -4.75096 0
M  V30 1054 H 108.504 -0.0914649 -5.26521 0
M  V30 1055 H 110.995 -0.468783 -3.74981 0
M  V30 1056 H 111.308 -1.57597 -7.5656 0
M  V30 1057 H 109.653 -1.4105 -6.80536 0
M  V30 1058 H 112.844 -0.664184 -4.63364 0
M  V30 1059 H 113.017 -1.16884 -6.37371 0
M  V30 1060 N 106.423 1.57458 -0.0668435 0
M  V30 1061 C 107.648 1.9804 0.616027 0
M  V30 1062 C 108.073 0.944771 1.62652 0
M  V30 1063 O 107.431 -0.0902094 1.81075 0
M  V30 1064 C 107.479 3.37665 1.26549 0
M  V30 1065 O 106.583 3.36701 2.38131 0
M  V30 1066 H 105.924 0.644719 0.158849 0
M  V30 1067 H 108.454 2.04121 -0.139891 0
M  V30 1068 H 108.464 3.7474 1.6135 0
M  V30 1069 H 107.139 4.12573 0.525016 0
M  V30 1070 H 105.716 3.1139 2.0516 0
M  V30 1071 N 107.901 -0.206675 1.56239 0
M  V30 1072 C 109.129 -0.945345 1.8404 0
M  V30 1073 C 109.544 -1.77336 0.647885 0
M  V30 1074 O 108.901 -1.78425 -0.383511 0
M  V30 1075 C 108.952 -1.8509 3.10522 0
M  V30 1076 O 108.673 -1.05634 4.25174 0
M  V30 1077 C 110.174 -2.70222 3.51418 0
M  V30 1078 H 107.394 -0.276372 0.61144 0
M  V30 1079 H 109.938 -0.217417 2.03341 0
M  V30 1080 H 108.093 -2.53259 2.93153 0
M  V30 1081 H 108.507 -1.67238 4.97124 0
M  V30 1082 H 109.981 -3.29438 4.42916 0
M  V30 1083 H 110.458 -3.43358 2.73864 0
M  V30 1084 H 111.064 -2.07443 3.71278 0
M  V30 1085 N 109.379 -1.50304 -0.473955 0
M  V30 1086 C 110.656 -1.51667 -1.23518 0
M  V30 1087 C 111.036 -0.259701 -2.09496 0
M  V30 1088 O 110.384 0.756986 -2.15597 0
M  V30 1089 C 110.594 -2.81082 -2.06868 0
M  V30 1090 C 111.942 -3.31631 -2.65153 0
M  V30 1091 O 112.966 -2.82384 -2.17113 0
M  V30 1092 O 111.825 -4.17471 -3.52675 0
M  V30 1093 H 108.919 -0.60822 -0.560355 0
M  V30 1094 H 111.465 -1.62592 -0.486011 0
M  V30 1095 H 110.237 -3.64041 -1.4349 0
M  V30 1096 H 109.86 -2.73146 -2.88924 0
M  V30 1097 N 110.857 0.726932 -1.39834 0
M  V30 1098 C 112.105 1.4837 -1.37225 0
M  V30 1099 C 112.426 1.94979 0.0284857 0
M  V30 1100 O 111.696 1.69555 0.981213 0
M  V30 1101 H 110.276 0.55043 -0.505011 0
M  V30 1102 H 112.938 0.862468 -1.74778 0
M  V30 1103 H 112.034 2.36198 -2.04003 0
M  V30 1104 N 112.336 1.25143 0.95797 0
M  V30 1105 C 113.584 1.09476 1.69881 0
M  V30 1106 C 113.905 -0.365502 1.91544 0
M  V30 1107 O 113.175 -1.25985 1.50015 0
M  V30 1108 H 111.755 0.402128 0.629525 0
M  V30 1109 H 114.417 1.57214 1.15194 0
M  V30 1110 H 113.513 1.60046 2.6794 0
M  V30 1111 N 113.814 -1.1601 1.06675 0
M  V30 1112 C 114.761 -2.20525 0.680967 0
M  V30 1113 C 115.731 -1.62904 -0.324283 0
M  V30 1114 O 116.916 -1.89615 -0.212294 0
M  V30 1115 C 114.056 -3.45013 0.0776551 0
M  V30 1116 C 113.169 -4.16863 1.13355 0
M  V30 1117 C 112.304 -5.2888 0.49597 0
M  V30 1118 C 111.343 -5.92537 1.53513 0
M  V30 1119 N 110.48 -6.96038 0.920631 0
M  V30 1120 H 115.32 -2.52876 1.57663 0
M  V30 1121 H 112.857 -1.24199 0.788223 0
M  V30 1122 H 114.815 -4.16193 -0.289704 0
M  V30 1123 H 113.445 -3.132 -0.781393 0
M  V30 1124 H 112.497 -3.44248 1.61857 0
M  V30 1125 H 113.809 -4.60294 1.92174 0
M  V30 1126 H 112.963 -6.06653 0.0758604 0
M  V30 1127 H 111.702 -4.86622 -0.324062 0
M  V30 1128 H 110.707 -5.13482 1.9651 0
M  V30 1129 H 111.932 -6.36873 2.35733 0
M  V30 1130 H 109.878 -6.55888 0.12138 0
M  V30 1131 H 109.795 -7.3786 1.64616 0
M  V30 1132 H 111.063 -7.77725 0.525795 0
M  V30 1133 N 115.292 -0.849877 -1.32721 0
M  V30 1134 C 116.52 -0.464754 -2.01613 0
M  V30 1135 C 116.935 0.937191 -1.63897 0
M  V30 1136 O 116.292 1.61081 -0.857856 0
M  V30 1137 C 116.343 -0.588638 -3.56675 0
M  V30 1138 O 116.064 -1.93535 -3.93034 0
M  V30 1139 C 117.565 -0.2019 -4.4284 0
M  V30 1140 H 114.785 -0.183215 -0.645502 0
M  V30 1141 H 117.329 -1.1455 -1.69407 0
M  V30 1142 H 115.484 0.0443159 -3.87375 0
M  V30 1143 H 115.898 -1.92871 -4.87751 0
M  V30 1144 H 117.372 -0.339599 -5.50954 0
M  V30 1145 H 117.849 0.857224 -4.30753 0
M  V30 1146 H 118.455 -0.809733 -4.17521 0
M  V30 1147 N 116.77 1.45427 -0.607355 0
M  V30 1148 C 118.016 2.03097 -0.111035 0
M  V30 1149 C 118.371 1.46735 1.24445 0
M  V30 1150 O 117.664 0.632478 1.8086 0
M  V30 1151 C 117.858 3.57398 -0.0129263 0
M  V30 1152 C 117.687 4.28726 -1.35735 0
M  V30 1153 C 116.457 4.66659 -1.93798 0
M  V30 1154 C 118.655 4.60699 -2.28607 0
M  V30 1155 N 116.637 5.22845 -3.21723 0
M  V30 1156 C 118.008 5.17716 -3.41131 0
M  V30 1157 C 120.063 4.42638 -2.27982 0
M  V30 1158 C 118.766 5.58576 -4.53194 0
M  V30 1159 C 120.792 4.84531 -3.39093 0
M  V30 1160 C 120.154 5.4164 -4.50339 0
M  V30 1161 H 116.253 0.777476 -0.083994 0
M  V30 1162 H 118.837 1.77249 -0.805655 0
M  V30 1163 H 117.008 3.82907 0.650914 0
M  V30 1164 H 118.74 4.01722 0.490033 0
M  V30 1165 H 115.495 4.50207 -1.47007 0
M  V30 1166 H 115.919 5.55438 -3.87063 0
M  V30 1167 H 120.561 3.97798 -1.43235 0
M  V30 1168 H 118.279 6.02382 -5.38667 0
M  V30 1169 H 121.865 4.72289 -3.39757 0
M  V30 1170 H 120.745 5.73461 -5.34895 0
M  V30 1171 N 118.248 0.346503 1.53744 0
M  V30 1172 C 119.196 -0.52422 2.26616 0
M  V30 1173 C 120.19 -1.09948 1.28871 0
M  V30 1174 O 121.396 -1.04488 1.46568 0
M  V30 1175 H 117.771 -0.187743 0.728187 0
M  V30 1176 H 119.742 0.11239 2.98188 0
M  V30 1177 C 118.491 -1.66186 3.05414 0
M  V30 1178 H 117.814 -1.22848 3.80458 0
M  V30 1179 H 119.254 -2.24622 3.59612 0
M  V30 1180 C 117.713 -2.59302 2.1509 0
M  V30 1181 O 118.243 -3.61628 1.74895 0
M  V30 1182 N 116.449 -2.28055 1.8011 0
M  V30 1183 H 115.996 -1.44883 2.12994 0
M  V30 1184 H 115.954 -2.90615 1.19958 0
M  V30 1185 N 119.726 -1.57421 0.075193 0
M  V30 1186 C 120.673 -2.12915 -0.890843 0
M  V30 1187 C 121.643 -1.04252 -1.29309 0
M  V30 1188 O 122.828 -1.31933 -1.37834 0
M  V30 1189 C 119.968 -2.69795 -2.15186 0
M  V30 1190 C 119.081 -3.92624 -1.80194 0
M  V30 1191 C 118.216 -4.37736 -3.00933 0
M  V30 1192 C 117.255 -5.53205 -2.61974 0
M  V30 1193 N 116.392 -5.9326 -3.75483 0
M  V30 1194 H 121.232 -2.95156 -0.410735 0
M  V30 1195 H 118.769 -1.45854 -0.191086 0
M  V30 1196 H 120.727 -3.00883 -2.89008 0
M  V30 1197 H 119.357 -1.90313 -2.60731 0
M  V30 1198 H 118.409 -3.67977 -0.964218 0
M  V30 1199 H 119.721 -4.76482 -1.47534 0
M  V30 1200 H 118.875 -4.70503 -3.8303 0
M  V30 1201 H 117.614 -3.52739 -3.36789 0
M  V30 1202 H 116.619 -5.20086 -1.783 0
M  V30 1203 H 117.844 -6.39936 -2.27284 0
M  V30 1204 H 115.79 -5.11212 -4.11094 0
M  V30 1205 H 115.707 -6.71865 -3.46602 0
M  V30 1206 H 116.975 -6.30651 -4.58148 0
M  V30 1207 N 121.204 0.198386 -1.56346 0
M  V30 1208 C 122.151 1.24589 -1.94284 0
M  V30 1209 C 123.121 1.454 -0.802997 0
M  V30 1210 O 124.306 1.58588 -1.06087 0
M  V30 1211 C 121.446 2.58631 -2.28482 0
M  V30 1212 C 120.559 2.45426 -3.55514 0
M  V30 1213 C 119.694 3.7215 -3.79049 0
M  V30 1214 C 118.733 3.53763 -4.99518 0
M  V30 1215 N 117.87 4.72491 -5.19323 0
M  V30 1216 H 122.71 0.915356 -2.83593 0
M  V30 1217 H 120.247 0.440629 -1.40346 0
M  V30 1218 H 122.205 3.3672 -2.46324 0
M  V30 1219 H 120.835 2.89734 -1.42317 0
M  V30 1220 H 119.887 1.58652 -3.45737 0
M  V30 1221 H 121.199 2.27772 -4.43758 0
M  V30 1222 H 120.353 4.58679 -3.97113 0
M  V30 1223 H 119.092 3.92754 -2.89129 0
M  V30 1224 H 118.097 2.65619 -4.8138 0
M  V30 1225 H 119.322 3.34607 -5.90944 0
M  V30 1226 H 117.268 4.93365 -4.3235 0
M  V30 1227 H 117.185 4.5765 -6.01741 0
M  V30 1228 H 118.453 5.6038 -5.41843 0
M  V30 1229 N 122.682 1.50554 0.465978 0
M  V30 1230 C 123.931 1.61038 1.21448 0
M  V30 1231 C 124.244 0.31865 1.92987 0
M  V30 1232 O 125.45 0.302469 2.6981 0
M  V30 1233 C 123.906 2.84283 2.20706 0
M  V30 1234 C 123.514 4.20352 1.54946 0
M  V30 1235 C 125.258 3.04115 2.96166 0
M  V30 1236 C 123.165 5.34778 2.5252 0
M  V30 1237 H 122.095 0.599718 0.457005 0
M  V30 1238 H 124.746 1.7699 0.484424 0
M  V30 1239 H 123.128 2.61901 2.97025 0
M  V30 1240 H 124.302 4.53008 0.843811 0
M  V30 1241 H 122.617 4.06167 0.917475 0
M  V30 1242 H 125.214 3.86774 3.69202 0
M  V30 1243 H 125.557 2.16045 3.55852 0
M  V30 1244 H 126.09 3.26702 2.26959 0
M  V30 1245 H 122.829 6.25018 1.97566 0
M  V30 1246 H 122.349 5.06534 3.21222 0
M  V30 1247 H 124.028 5.65561 3.14245 0
M  V30 1248 N 124.16 -0.719506 1.40217 0
M  V30 1249 C 125.123 -1.8153 1.39927 0
M  V30 1250 C 126.123 -1.58095 0.293723 0
M  V30 1251 O 127.313 -1.65209 0.552429 0
M  V30 1252 C 124.445 -3.19561 1.18716 0
M  V30 1253 H 125.638 -1.83186 2.37451 0
M  V30 1254 H 123.191 -0.924746 1.26008 0
M  V30 1255 H 123.926 -3.23557 0.219366 0
M  V30 1256 H 123.711 -3.3797 1.98793 0
M  V30 1257 H 125.201 -3.99598 1.21291 0
M  V30 1258 N 125.638 -1.25649 -0.95132 0
M  V30 1259 C 126.887 -1.09988 -1.69073 0
M  V30 1260 C 127.2 0.358355 -1.92289 0
M  V30 1261 O 128.406 0.635466 -2.63958 0
M  V30 1262 C 126.862 -1.92012 -3.044 0
M  V30 1263 C 126.47 -3.42347 -2.88968 0
M  V30 1264 C 128.214 -1.8493 -3.82101 0
M  V30 1265 C 126.121 -4.16655 -4.19705 0
M  V30 1266 H 125.051 -0.407993 -0.63408 0
M  V30 1267 H 127.702 -1.49873 -1.05879 0
M  V30 1268 H 126.084 -1.44952 -3.68517 0
M  V30 1269 H 127.258 -3.97104 -2.33762 0
M  V30 1270 H 125.573 -3.50557 -2.24719 0
M  V30 1271 H 128.17 -2.37739 -4.78941 0
M  V30 1272 H 128.513 -0.817883 -4.08187 0
M  V30 1273 H 129.046 -2.29758 -3.2474 0
M  V30 1274 H 125.785 -5.20224 -3.98807 0
M  V30 1275 H 125.305 -3.66681 -4.74663 0
M  V30 1276 H 126.984 -4.24551 -4.88227 0
M  V30 1277 N 127.117 1.15442 -1.07289 0
M  V30 1278 C 128.347 1.89821 -0.815576 0
M  V30 1279 C 128.755 1.7823 0.634867 0
M  V30 1280 O 128.098 1.13152 1.44715 0
M  V30 1281 C 128.16 3.40817 -1.14385 0
M  V30 1282 C 127.824 3.76193 -2.59476 0
M  V30 1283 C 128.821 3.77269 -3.57721 0
M  V30 1284 C 126.506 4.0652 -2.95037 0
M  V30 1285 C 128.5 4.08176 -4.89562 0
M  V30 1286 C 126.187 4.37092 -4.27076 0
M  V30 1287 C 127.185 4.37902 -5.24148 0
M  V30 1288 O 126.873 4.67741 -6.53815 0
M  V30 1289 H 126.605 0.608465 -0.294528 0
M  V30 1290 H 129.159 1.472 -1.43252 0
M  V30 1291 H 127.389 3.83835 -0.469865 0
M  V30 1292 H 129.078 3.96485 -0.869179 0
M  V30 1293 H 129.844 3.5394 -3.3159 0
M  V30 1294 H 125.723 4.05049 -2.20128 0
M  V30 1295 H 129.267 4.08723 -5.65324 0
M  V30 1296 H 125.164 4.59889 -4.5296 0
M  V30 1297 H 125.932 4.85509 -6.58957 0
M  V30 1298 N 128.595 0.856903 1.32268 0
M  V30 1299 C 129.543 0.291987 2.3076 0
M  V30 1300 C 130.537 -0.585857 1.58947 0
M  V30 1301 O 131.743 -0.47341 1.73663 0
M  V30 1302 H 128.118 0.075721 0.748178 0
M  V30 1303 H 130.089 1.13687 2.75895 0
M  V30 1304 C 128.838 -0.502869 3.44044 0
M  V30 1305 H 128.161 0.163328 3.99466 0
M  V30 1306 H 129.601 -0.863691 4.1511 0
M  V30 1307 C 128.06 -1.68898 2.91505 0
M  V30 1308 O 128.59 -2.78811 2.89184 0
M  V30 1309 N 126.796 -1.51679 2.47875 0
M  V30 1310 H 126.343 -0.622666 2.49961 0
M  V30 1311 H 126.301 -2.31184 2.13076 0
M  V30 1312 N 130.073 -1.45103 0.615059 0
M  V30 1313 C 131.35 -1.95549 0.0448276 0
M  V30 1314 C 131.73 -1.55737 -1.4251 0
M  V30 1315 O 131.078 -0.823556 -2.13143 0
M  V30 1316 C 131.288 -3.48098 0.250785 0
M  V30 1317 C 132.636 -4.24384 0.135509 0
M  V30 1318 O 133.66 -3.55738 0.181299 0
M  V30 1319 O 132.519 -5.46493 0.0268878 0
M  V30 1320 H 129.613 -0.8264 -0.0314845 0
M  V30 1321 H 132.159 -1.55232 0.685642 0
M  V30 1322 H 130.931 -3.7007 1.27139 0
M  V30 1323 H 130.554 -3.95323 -0.424937 0
M  V30 1324 N 131.551 -0.354651 -1.53558 0
M  V30 1325 C 132.967 -0.00315426 -1.596 0
M  V30 1326 C 133.167 1.47741 -1.37021 0
M  V30 1327 O 132.223 2.23759 -1.16996 0
M  V30 1328 C 133.536 -0.44929 -2.97325 0
M  V30 1329 C 135.084 -0.402578 -3.104 0
M  V30 1330 C 135.559 -0.824355 -4.5052 0
M  V30 1331 N 137.05 -0.778979 -4.56603 0
M  V30 1332 C 137.785 -1.07715 -5.63192 0
M  V30 1333 N 137.281 -1.44405 -6.77583 0
M  V30 1334 N 139.074 -1.00066 -5.53121 0
M  V30 1335 H 131.225 -1.31893 -1.66487 0
M  V30 1336 H 133.488 -0.538388 -0.780284 0
M  V30 1337 H 133.194 -1.48202 -3.1895 0
M  V30 1338 H 133.068 0.169772 -3.76818 0
M  V30 1339 H 135.455 0.621004 -2.88492 0
M  V30 1340 H 135.536 -1.05699 -2.32941 0
M  V30 1341 H 135.18 -1.846 -4.73165 0
M  V30 1342 H 135.11 -0.147304 -5.26394 0
M  V30 1343 H 137.601 -0.508528 -3.74463 0
M  V30 1344 H 137.914 -1.65612 -7.54846 0
M  V30 1345 H 136.259 -1.4826 -6.79002 0
M  V30 1346 H 139.45 -0.713293 -4.62633 0
M  V30 1347 H 139.623 -1.23638 -6.36096 0
M  V30 1348 N 133.029 1.57378 -0.0835403 0
M  V30 1349 C 134.275 1.94217 0.583733 0
M  V30 1350 C 134.608 0.964653 1.68547 0
M  V30 1351 O 133.883 -0.00422258 1.945 0
M  V30 1352 C 134.166 3.41253 1.14972 0
M  V30 1353 C 134.019 4.49768 0.0538277 0
M  V30 1354 C 135.338 3.89352 2.05166 0
M  V30 1355 H 132.457 0.706233 0.210724 0
M  V30 1356 H 135.099 1.89392 -0.1519 0
M  V30 1357 H 133.249 3.45496 1.77665 0
M  V30 1358 H 134.921 4.57641 -0.579851 0
M  V30 1359 H 133.164 4.29432 -0.614068 0
M  V30 1360 H 133.835 5.49817 0.490452 0
M  V30 1361 H 136.311 3.87189 1.52393 0
M  V30 1362 H 135.187 4.92822 2.41698 0
M  V30 1363 H 135.448 3.27973 2.96456 0
M  V30 1364 N 134.507 -0.190092 1.56449 0
M  V30 1365 C 135.455 -1.25501 1.95837 0
M  V30 1366 C 136.449 -1.4685 0.844485 0
M  V30 1367 O 137.655 -1.47651 1.02952 0
M  V30 1368 H 134.03 -0.421447 0.622805 0
M  V30 1369 H 136.001 -0.895821 2.84636 0
M  V30 1370 C 134.75 -2.59124 2.31841 0
M  V30 1371 H 134.073 -2.43514 3.17082 0
M  V30 1372 H 135.513 -3.32371 2.6326 0
M  V30 1373 C 133.972 -3.16488 1.15486 0
M  V30 1374 O 134.502 -3.99365 0.432535 0
M  V30 1375 N 132.708 -2.75305 0.930349 0
M  V30 1376 H 132.255 -2.08013 1.51948 0
M  V30 1377 H 132.213 -3.14024 0.153634 0
M  V30 1378 N 135.985 -1.50799 -0.457987 0
M  V30 1379 C 137.21 -1.66496 -1.23668 0
M  V30 1380 C 137.635 -0.353288 -1.84752 0
M  V30 1381 O 136.993 0.684346 -1.67888 0
M  V30 1382 C 137.041 -2.76763 -2.3116 0
M  V30 1383 O 136.145 -2.38928 -3.36136 0
M  V30 1384 H 135.486 -0.555828 -0.363252 0
M  V30 1385 H 138.016 -1.9725 -0.543474 0
M  V30 1386 H 138.026 -3.00232 -2.76269 0
M  V30 1387 H 136.701 -3.71954 -1.86073 0
M  V30 1388 H 135.278 -2.25953 -2.96647 0
M  V30 1389 N 137.463 0.71206 -1.40597 0
M  V30 1390 C 138.41 1.82613 -1.41142 0
M  V30 1391 C 139.38 1.63925 -0.267903 0
M  V30 1392 O 140.565 1.85009 -0.466495 0
M  V30 1393 C 137.705 3.20354 -1.28324 0
M  V30 1394 C 136.818 3.50589 -2.52411 0
M  V30 1395 C 135.953 4.77855 -2.32009 0
M  V30 1396 C 134.992 5.01005 -3.51654 0
M  V30 1397 N 134.129 6.19487 -3.30425 0
M  V30 1398 H 138.969 1.81482 -2.36365 0
M  V30 1399 H 136.506 0.886475 -1.17388 0
M  V30 1400 H 138.464 3.99899 -1.18899 0
M  V30 1401 H 137.094 3.20705 -0.367189 0
M  V30 1402 H 136.146 2.65573 -2.72351 0
M  V30 1403 H 137.458 3.63604 -3.41458 0
M  V30 1404 H 136.612 5.65424 -2.19956 0
M  V30 1405 H 135.351 4.67056 -1.40392 0
M  V30 1406 H 134.356 4.1189 -3.64179 0
M  V30 1407 H 135.581 5.13674 -4.44202 0
M  V30 1408 H 133.527 6.09932 -2.41494 0
M  V30 1409 H 133.444 6.33194 -4.13039 0
M  V30 1410 H 134.712 7.09834 -3.22113 0
M  V30 1411 N 138.941 1.26152 0.944643 0
M  V30 1412 C 139.871 1.09902 2.06019 0
M  V30 1413 C 140.852 0.00519538 1.70099 0
M  V30 1414 O 142.037 0.176583 1.93396 0
M  V30 1415 C 139.167 0.727562 3.39594 0
M  V30 1416 C 138.121 1.77274 3.89561 0
M  V30 1417 C 137.447 1.25569 5.19747 0
M  V30 1418 C 138.747 3.17357 4.14827 0
M  V30 1419 H 140.441 2.03217 2.19871 0
M  V30 1420 H 137.987 0.978452 1.05652 0
M  V30 1421 H 139.94 0.600777 4.17095 0
M  V30 1422 H 138.664 -0.241287 3.25707 0
M  V30 1423 H 137.323 1.88814 3.14237 0
M  V30 1424 H 136.971 0.276783 5.02238 0
M  V30 1425 H 136.671 1.95433 5.54148 0
M  V30 1426 H 138.195 1.1415 5.99835 0
M  V30 1427 H 139.609 3.08914 4.82954 0
M  V30 1428 H 138.006 3.84781 4.60504 0
M  V30 1429 H 139.076 3.63673 3.20734 0
M  V30 1430 N 140.419 -1.14872 1.07899 0
M  V30 1431 C 141.644 -1.90202 0.826926 0
M  V30 1432 C 142.069 -1.77774 -0.614664 0
M  V30 1433 O 141.427 -1.11431 -1.43013 0
M  V30 1434 C 141.475 -3.38352 1.24702 0
M  V30 1435 O 140.579 -4.10497 0.39575 0
M  V30 1436 H 139.92 -0.591968 0.300782 0
M  V30 1437 H 142.45 -1.45437 1.43907 0
M  V30 1438 H 142.46 -3.89156 1.22563 0
M  V30 1439 H 141.135 -3.46715 2.29698 0
M  V30 1440 H 139.712 -3.69796 0.480117 0
M  V30 1441 N 141.898 -0.863906 -1.31812 0
M  V30 1442 C 143.314 -0.555004 -1.49639 0
M  V30 1443 C 143.514 0.912266 -1.79666 0
M  V30 1444 O 142.57 1.69479 -1.87171 0
M  V30 1445 C 143.883 -1.44998 -2.63431 0
M  V30 1446 C 145.431 -1.45138 -2.77316 0
M  V30 1447 C 145.906 -2.33179 -3.94197 0
M  V30 1448 N 147.397 -2.31025 -4.01474 0
M  V30 1449 C 148.132 -2.95871 -4.9117 0
M  V30 1450 N 147.628 -3.69863 -5.8581 0
M  V30 1451 N 149.421 -2.85211 -4.84367 0
M  V30 1452 H 141.572 -1.81339 -1.10589 0
M  V30 1453 H 143.835 -0.77505 -0.545895 0
M  V30 1454 H 143.541 -2.49377 -2.48 0
M  V30 1455 H 143.415 -1.14409 -3.59431 0
M  V30 1456 H 145.802 -0.415201 -2.92164 0
M  V30 1457 H 145.883 -1.79747 -1.82001 0
M  V30 1458 H 145.527 -3.3687 -3.80107 0
M  V30 1459 H 145.457 -1.95897 -4.88807 0
M  V30 1460 H 147.948 -1.77238 -3.33759 0
M  V30 1461 H 148.261 -4.16486 -6.50968 0
M  V30 1462 H 146.606 -3.73971 -5.85808 0
M  V30 1463 H 149.797 -2.26948 -4.09405 0
M  V30 1464 H 149.97 -3.36027 -5.54066 0
M  V30 1465 N 143.376 1.44774 -0.622745 0
M  V30 1466 C 144.622 2.0242 -0.124083 0
M  V30 1467 C 144.955 1.4881 1.24777 0
M  V30 1468 O 144.23 0.668799 1.8264 0
M  V30 1469 C 144.513 3.59957 -0.101619 0
M  V30 1470 C 144.366 4.23867 -1.50521 0
M  V30 1471 C 145.685 4.36284 0.578272 0
M  V30 1472 H 142.804 0.735528 -0.0465645 0
M  V30 1473 H 145.446 1.72447 -0.797617 0
M  V30 1474 H 143.596 3.85623 0.471934 0
M  V30 1475 H 145.268 4.09336 -2.12701 0
M  V30 1476 H 143.511 3.81684 -2.06154 0
M  V30 1477 H 144.182 5.32843 -1.4416 0
M  V30 1478 H 146.658 4.16001 0.0906057 0
M  V30 1479 H 145.534 5.46004 0.563149 0
M  V30 1480 H 145.795 4.10271 1.64713 0
M  V30 1481 N 144.854 0.36279 1.53368 0
M  V30 1482 C 145.787 -0.528507 2.21996 0
M  V30 1483 C 146.765 -1.0852 1.21087 0
M  V30 1484 O 147.949 -1.14186 1.4998 0
M  V30 1485 C 145.076 -1.72893 2.91249 0
M  V30 1486 C 144.122 -1.29994 4.06207 0
M  V30 1487 S 144.955 -0.303575 5.34639 0
M  V30 1488 C 146.111 -1.51039 6.07403 0
M  V30 1489 H 146.344 0.0543423 2.9725 0
M  V30 1490 H 143.877 0.146889 1.537 0
M  V30 1491 H 145.835 -2.41751 3.31763 0
M  V30 1492 H 144.496 -2.28303 2.15724 0
M  V30 1493 H 143.689 -2.19549 4.53667 0
M  V30 1494 H 143.291 -0.690608 3.67569 0
M  V30 1495 H 145.583 -2.44186 6.31965 0
M  V30 1496 H 146.526 -1.07721 6.99858 0
M  V30 1497 H 146.934 -1.71518 5.37812 0
M  V30 1498 N 146.332 -1.57332 0.0918853 0
M  V30 1499 C 147.609 -1.85691 -0.614668 0
M  V30 1500 C 147.989 -0.988146 -1.86545 0
M  V30 1501 O 147.337 -0.0597055 -2.28422 0
M  V30 1502 C 147.547 -3.36294 -0.933126 0
M  V30 1503 C 148.895 -4.04275 -1.29796 0
M  V30 1504 O 149.919 -3.41157 -1.02424 0
M  V30 1505 O 148.778 -5.1564 -1.81047 0
M  V30 1506 H 145.872 -0.767802 -0.307261 0
M  V30 1507 H 148.418 -1.69244 0.12434 0
M  V30 1508 H 147.19 -3.91273 -0.0456404 0
M  V30 1509 H 146.813 -3.58076 -1.72822 0
M  V30 1510 N 147.81 0.181792 -1.56548 0
M  V30 1511 C 149.221 0.745244 -1.71181 0
M  V30 1512 C 149.572 1.83262 -0.70068 0
M  V30 1513 O 148.697 2.15946 0.140154 0
M  V30 1514 C 149.292 1.35859 -3.10367 0
M  V30 1515 C 147.851 1.86898 -3.2672 0
M  V30 1516 C 146.998 0.743942 -2.67134 0
M  V30 1517 H 149.949 -0.0434661 -1.5864 0
M  V30 1518 H 149.97 2.22817 -3.08436 0
M  V30 1519 H 149.482 0.566948 -3.83937 0
M  V30 1520 H 147.583 2.68738 -2.5809 0
M  V30 1521 H 147.696 2.02162 -4.34359 0
M  V30 1522 H 146.06 1.16169 -2.26665 0
M  V30 1523 H 146.843 -0.035676 -3.43281 0
M  V30 1524 N 149.288 1.51039 0.449983 0
M  V30 1525 C 150.516 1.66869 1.2232 0
M  V30 1526 C 150.931 0.360727 1.85322 0
M  V30 1527 O 150.288 -0.659531 1.70166 0
M  V30 1528 C 150.339 2.77524 2.31652 0
M  V30 1529 O 150.06 4.03252 1.7123 0
M  V30 1530 C 151.561 3.04512 3.2216 0
M  V30 1531 H 148.781 0.560326 0.369155 0
M  V30 1532 H 151.325 1.97385 0.534719 0
M  V30 1533 H 149.48 2.49642 2.96239 0
M  V30 1534 H 149.894 4.64609 2.43389 0
M  V30 1535 H 151.368 3.85551 3.95038 0
M  V30 1536 H 151.845 2.16415 3.8218 0
M  V30 1537 H 152.451 3.34005 2.63288 0
M  V30 1538 N 150.766 -0.704594 1.40972 0
M  V30 1539 C 152.006 -1.47691 1.41304 0
M  V30 1540 C 152.37 -1.91992 0.0178582 0
M  V30 1541 O 153.571 -2.68599 -0.103996 0
M  V30 1542 C 151.842 -2.66254 2.38419 0
M  V30 1543 S 153.401 -3.55516 2.57204 0
M  V30 1544 H 150.219 -0.504808 0.500689 0
M  V30 1545 H 152.821 -0.822962 1.77335 0
M  V30 1546 H 151.525 -2.31897 3.38603 0
M  V30 1547 H 151.056 -3.3655 2.03711 0
M  V30 1548 H 153.071 -4.61115 1.83268 0
M  V30 1549 N 152.244 -1.26651 -0.937939 0
M  V30 1550 C 153.493 -1.11775 -1.67897 0
M  V30 1551 C 153.806 0.33794 -1.92659 0
M  V30 1552 O 155.012 0.607434 -2.64618 0
M  V30 1553 C 153.468 -1.9523 -3.02346 0
M  V30 1554 C 153.076 -3.45393 -2.8532 0
M  V30 1555 C 154.82 -1.88972 -3.80118 0
M  V30 1556 C 152.727 -4.21083 -4.15263 0
M  V30 1557 H 151.657 -0.414696 -0.629717 0
M  V30 1558 H 154.308 -1.50988 -1.04283 0
M  V30 1559 H 152.69 -1.48853 -3.66959 0
M  V30 1560 H 153.864 -3.99561 -2.29537 0
M  V30 1561 H 152.179 -3.52921 -2.20988 0
M  V30 1562 H 154.776 -2.42805 -4.76392 0
M  V30 1563 H 155.119 -0.86113 -4.07296 0
M  V30 1564 H 155.652 -2.33189 -3.22285 0
M  V30 1565 H 152.391 -5.24425 -3.93267 0
M  V30 1566 H 151.911 -3.71695 -4.70747 0
M  V30 1567 H 153.59 -4.29706 -4.83696 0
M  V30 1568 N 153.722 1.14298 -1.08507 0
M  V30 1569 C 154.968 1.85633 -0.816581 0
M  V30 1570 C 155.301 1.82784 0.656021 0
M  V30 1571 O 154.576 1.25926 1.48233 0
M  V30 1572 C 154.859 3.34223 -1.34041 0
M  V30 1573 C 154.712 3.45639 -2.87843 0
M  V30 1574 C 156.031 4.29356 -0.9665 0
M  V30 1575 H 153.15 0.67402 -0.298104 0
M  V30 1576 H 155.792 1.34214 -1.34487 0
M  V30 1577 H 153.942 3.78144 -0.89104 0
M  V30 1578 H 155.614 3.10498 -3.41158 0
M  V30 1579 H 153.857 2.86817 -3.25451 0
M  V30 1580 H 154.528 4.50089 -3.19569 0
M  V30 1581 H 157.004 3.93457 -1.35391 0
M  V30 1582 H 155.88 5.3178 -1.3602 0
M  V30 1583 H 156.141 4.41919 0.126362 0
M  V30 1584 N 155.201 0.870884 1.31352 0
M  V30 1585 C 156.164 0.332243 2.26779 0
M  V30 1586 C 157.164 -0.517302 1.52252 0
M  V30 1587 O 158.354 -0.326477 1.71113 0
M  V30 1588 C 155.486 -0.528066 3.36785 0
M  V30 1589 H 156.679 1.17469 2.75937 0
M  V30 1590 H 154.232 0.64655 1.423 0
M  V30 1591 H 154.967 -1.39167 2.92922 0
M  V30 1592 H 154.752 0.0802582 3.92018 0
M  V30 1593 H 156.242 -0.897179 4.07849 0
M  V30 1594 N 156.679 -1.44442 0.630414 0
M  V30 1595 C 157.627 -2.32437 -0.0871428 0
M  V30 1596 C 158.621 -1.47304 -0.836525 0
M  V30 1597 O 159.827 -1.63653 -0.749506 0
M  V30 1598 H 156.202 -0.750533 -0.0469495 0
M  V30 1599 H 158.173 -2.90709 0.673096 0
M  V30 1600 C 156.922 -3.31288 -1.05563 0
M  V30 1601 H 156.245 -3.96805 -0.488426 0
M  V30 1602 H 157.685 -3.9554 -1.52721 0
M  V30 1603 C 156.144 -2.6016 -2.14052 0
M  V30 1604 O 156.674 -2.39997 -3.22124 0
M  V30 1605 N 154.88 -2.19911 -1.89967 0
M  V30 1606 H 154.427 -2.36509 -1.02085 0
M  V30 1607 H 154.385 -1.72646 -2.62756 0
M  V30 1608 N 158.157 -0.370918 -1.53173 0
M  V30 1609 C 159.406 0.218249 -2.00516 0
M  V30 1610 C 159.719 1.49429 -1.26215 0
M  V30 1611 O 160.925 2.16239 -1.64174 0
M  V30 1612 C 159.381 0.43948 -3.57207 0
M  V30 1613 C 158.989 -0.822244 -4.4039 0
M  V30 1614 C 160.733 0.986012 -4.1289 0
M  V30 1615 C 158.64 -0.570304 -5.88644 0
M  V30 1616 H 157.57 0.0853333 -0.749156 0
M  V30 1617 H 160.221 -0.490483 -1.76823 0
M  V30 1618 H 158.603 1.20961 -3.77074 0
M  V30 1619 H 159.777 -1.59557 -4.32294 0
M  V30 1620 H 158.092 -1.29238 -3.95836 0
M  V30 1621 H 160.689 1.18991 -5.21292 0
M  V30 1622 H 161.032 1.94972 -3.6782 0
M  V30 1623 H 161.565 0.27592 -3.96842 0
M  V30 1624 H 158.304 -1.50449 -6.38001 0
M  V30 1625 H 157.824 0.164427 -5.99575 0
M  V30 1626 H 159.503 -0.19784 -6.46697 0
M  V30 1627 N 159.635 1.57281 -0.100228 0
M  V30 1628 C 160.567 2.11342 0.886972 0
M  V30 1629 C 161.58 1.05182 1.24261 0
M  V30 1630 O 162.769 1.32613 1.19483 0
M  V30 1631 C 159.869 2.5825 2.19454 0
M  V30 1632 C 159.042 3.88302 2.01346 0
M  V30 1633 C 158.101 4.21004 3.15661 0
M  V30 1634 O 157.127 4.9014 2.89398 0
M  V30 1635 N 158.329 3.76818 4.41575 0
M  V30 1636 H 161.094 2.96668 0.425216 0
M  V30 1637 H 158.655 1.61678 0.0847334 0
M  V30 1638 H 160.647 2.7717 2.94888 0
M  V30 1639 H 159.217 1.77907 2.57037 0
M  V30 1640 H 158.437 3.7848 1.10212 0
M  V30 1641 H 159.725 4.73375 1.8653 0
M  V30 1642 H 159.123 3.2102 4.65792 0
M  V30 1643 H 157.68 4.00882 5.13942 0
M  V30 1644 N 161.113 -0.173488 1.56642 0
M  V30 1645 C 162.361 -0.888706 1.81512 0
M  V30 1646 C 162.682 -1.82875 0.676872 0
M  V30 1647 O 161.952 -1.93536 -0.303414 0
M  V30 1648 H 160.532 -0.331164 0.669582 0
M  V30 1649 H 163.194 -0.173823 1.94123 0
M  V30 1650 H 162.29 -1.46691 2.75478 0
M  V30 1651 N 162.591 -1.51276 -0.441967 0
M  V30 1652 C 164.007 -1.39349 -0.778083 0
M  V30 1653 C 164.207 -0.472212 -1.95889 0
M  V30 1654 O 163.263 0.0743551 -2.5239 0
M  V30 1655 C 164.576 -2.81292 -1.0628 0
M  V30 1656 C 166.124 -2.9041 -1.16751 0
M  V30 1657 C 166.599 -4.33251 -1.48519 0
M  V30 1658 N 168.09 -4.36336 -1.55453 0
M  V30 1659 C 168.825 -5.43885 -1.81596 0
M  V30 1660 N 168.321 -6.61601 -2.05562 0
M  V30 1661 N 170.114 -5.3136 -1.8334 0
M  V30 1662 H 162.265 -2.09729 0.335774 0
M  V30 1663 H 164.528 -0.943925 0.0878028 0
M  V30 1664 H 164.234 -3.50678 -0.267905 0
M  V30 1665 H 164.108 -3.20334 -1.99163 0
M  V30 1666 H 166.495 -2.21225 -1.95304 0
M  V30 1667 H 166.576 -2.54871 -0.217801 0
M  V30 1668 H 166.22 -5.02984 -0.704958 0
M  V30 1669 H 166.15 -4.66299 -2.44689 0
M  V30 1670 H 168.641 -3.51466 -1.38853 0
M  V30 1671 H 168.954 -7.39361 -2.24867 0
M  V30 1672 H 167.299 -6.64725 -2.02894 0
M  V30 1673 H 170.49 -4.38382 -1.64132 0
M  V30 1674 H 170.663 -6.15258 -2.03377 0
M  V30 1675 N 164.069 0.697108 -1.41344 0
M  V30 1676 C 164.979 1.84088 -1.45427 0
M  V30 1677 C 165.995 1.70545 -0.34501 0
M  V30 1678 O 167.171 1.92488 -0.592492 0
M  V30 1679 C 164.236 3.20056 -1.33286 0
M  V30 1680 C 163.297 3.45718 -2.54514 0
M  V30 1681 C 162.53 4.75199 -2.42944 0
M  V30 1682 O 162.753 5.51579 -1.45318 0
M  V30 1683 O 161.687 5.0161 -3.32672 0
M  V30 1684 H 165.513 1.836 -2.41919 0
M  V30 1685 H 163.098 0.849966 -1.22866 0
M  V30 1686 H 164.98 4.01236 -1.28794 0
M  V30 1687 H 163.655 3.2123 -0.39909 0
M  V30 1688 H 162.562 2.64474 -2.64583 0
M  V30 1689 H 163.895 3.49356 -3.46715 0
M  V30 1690 N 165.547 1.27147 0.931209 0
M  V30 1691 C 166.775 1.16082 1.71267 0
M  V30 1692 C 167.19 -0.282772 1.8667 0
M  V30 1693 O 166.547 -1.19283 1.38122 0
M  V30 1694 C 166.598 1.8358 3.11417 0
M  V30 1695 O 166.319 3.22299 2.96741 0
M  V30 1696 C 167.82 1.78597 4.05732 0
M  V30 1697 H 165.04 0.403758 0.535929 0
M  V30 1698 H 167.584 1.67953 1.16671 0
M  V30 1699 H 165.739 1.35623 3.62885 0
M  V30 1700 H 166.153 3.55851 3.85319 0
M  V30 1701 H 167.627 2.30444 5.01597 0
M  V30 1702 H 168.104 0.754564 4.3267 0
M  V30 1703 H 168.71 2.26152 3.60188 0
M  V30 1704 N 167.025 -1.13721 1.09112 0
M  V30 1705 C 168.274 -1.84275 0.82009 0
M  V30 1706 C 168.587 -1.84253 -0.656509 0
M  V30 1707 O 169.793 -2.50668 -1.04296 0
M  V30 1708 C 168.249 -3.30825 1.41714 0
M  V30 1709 C 167.857 -3.39244 2.92605 0
M  V30 1710 C 169.601 -4.06443 1.22492 0
M  V30 1711 C 167.508 -4.80047 3.45411 0
M  V30 1712 H 166.438 -0.690387 0.30312 0
M  V30 1713 H 169.089 -1.28146 1.31343 0
M  V30 1714 H 167.471 -3.86737 0.851498 0
M  V30 1715 H 168.645 -2.93344 3.55367 0
M  V30 1716 H 166.96 -2.77088 3.10823 0
M  V30 1717 H 169.557 -5.10387 1.59402 0
M  V30 1718 H 169.9 -4.15972 0.165299 0
M  V30 1719 H 170.433 -3.56852 1.75788 0
M  V30 1720 H 167.172 -4.75709 4.50978 0
M  V30 1721 H 166.692 -5.26455 2.87411 0
M  V30 1722 H 168.371 -5.48957 3.42425 0
M  V30 1723 N 168.503 -0.877838 -1.30888 0
M  V30 1724 C 169.433 -0.35534 -2.3078 0
M  V30 1725 C 170.414 0.557994 -1.60687 0
M  V30 1726 O 171.599 0.473355 -1.88343 0
M  V30 1727 C 168.729 0.437221 -3.44537 0
M  V30 1728 C 167.683 -0.383715 -4.26276 0
M  V30 1729 C 167.009 0.535014 -5.32017 0
M  V30 1730 C 168.309 -1.62201 -4.96476 0
M  V30 1731 H 170.003 -1.19007 -2.74732 0
M  V30 1732 H 167.549 -0.573698 -1.32078 0
M  V30 1733 H 169.502 0.813334 -4.13477 0
M  V30 1734 H 168.226 1.30553 -2.99372 0
M  V30 1735 H 166.885 -0.741874 -3.59015 0
M  V30 1736 H 166.533 1.40083 -4.831 0
M  V30 1737 H 166.233 -0.0104211 -5.87599 0
M  V30 1738 H 167.757 0.907799 -6.03814 0
M  V30 1739 H 169.171 -1.31689 -5.5797 0
M  V30 1740 H 167.568 -2.10711 -5.61891 0
M  V30 1741 H 168.638 -2.37044 -4.23011 0
M  V30 1742 N 169.982 1.44106 -0.638065 0
M  V30 1743 C 171.228 2.02277 -0.145546 0
M  V30 1744 C 171.561 1.50125 1.23191 0
M  V30 1745 O 170.836 0.688133 1.8192 0
M  V30 1746 C 171.119 3.59829 -0.139791 0
M  V30 1747 C 170.972 4.22247 -1.55008 0
M  V30 1748 C 172.291 4.36873 0.531966 0
M  V30 1749 H 169.41 0.734992 -0.0543632 0
M  V30 1750 H 172.052 1.71592 -0.815863 0
M  V30 1751 H 170.202 3.86102 0.431007 0
M  V30 1752 H 171.874 4.07057 -2.1703 0
M  V30 1753 H 170.117 3.79476 -2.10191 0
M  V30 1754 H 170.788 5.31284 -1.49804 0
M  V30 1755 H 173.264 4.16074 0.0464781 0
M  V30 1756 H 172.14 5.4657 0.505206 0
M  V30 1757 H 172.401 4.11995 1.60352 0
M  V30 1758 N 171.46 0.379036 1.52974 0
M  V30 1759 C 172.393 -0.504932 2.22544 0
M  V30 1760 C 173.371 -1.0723 1.22231 0
M  V30 1761 O 174.555 -1.12589 1.51182 0
M  V30 1762 C 171.682 -1.69794 2.93066 0
M  V30 1763 C 170.728 -1.25678 4.07563 0
M  V30 1764 S 171.561 -0.246852 5.34931 0
M  V30 1765 C 172.717 -1.44588 6.08971 0
M  V30 1766 H 172.95 0.0858666 2.97176 0
M  V30 1767 H 170.483 0.163183 1.53535 0
M  V30 1768 H 172.441 -2.38219 3.34308 0
M  V30 1769 H 171.102 -2.26002 2.18133 0
M  V30 1770 H 170.295 -2.14725 4.5597 0
M  V30 1771 H 169.897 -0.651584 3.6828 0
M  V30 1772 H 172.189 -2.37469 6.34519 0
M  V30 1773 H 173.132 -1.00292 7.00962 0
M  V30 1774 H 173.54 -1.65804 5.39601 0
M  V30 1775 N 172.938 -1.57226 0.108567 0
M  V30 1776 C 174.184 -1.95121 -0.552761 0
M  V30 1777 C 174.517 -0.991345 -1.66991 0
M  V30 1778 O 173.792 -0.0267211 -1.94482 0
M  V30 1779 C 174.075 -3.43039 -1.09528 0
M  V30 1780 C 173.928 -4.49797 0.0177332 0
M  V30 1781 C 175.247 -3.92567 -1.98945 0
M  V30 1782 H 172.366 -0.709496 -0.199461 0
M  V30 1783 H 175.008 -1.89126 0.182011 0
M  V30 1784 H 173.158 -3.48279 -1.72146 0
M  V30 1785 H 174.83 -4.56661 0.652584 0
M  V30 1786 H 173.073 -4.284 0.682309 0
M  V30 1787 H 173.744 -5.50528 -0.402919 0
M  V30 1788 H 176.22 -3.89565 -1.46214 0
M  V30 1789 H 175.096 -4.96605 -2.33827 0
M  V30 1790 H 175.357 -3.32648 -2.91201 0
M  V30 1791 N 174.416 0.165178 -1.56732 0
M  V30 1792 C 175.664 0.879068 -1.8198 0
M  V30 1793 C 175.985 1.82514 -0.686561 0
M  V30 1794 O 175.255 1.93694 0.293146 0
M  V30 1795 H 173.835 0.327608 -0.671329 0
M  V30 1796 H 176.497 0.163526 -1.94213 0
M  V30 1797 H 175.593 1.45228 -2.76252 0
M  V30 1798 N 175.894 1.51508 0.433938 0
M  V30 1799 C 176.841 1.73068 1.52696 0
M  V30 1800 C 177.811 0.572441 1.55924 0
M  V30 1801 O 178.996 0.807253 1.72882 0
M  V30 1802 C 176.136 1.86474 2.90381 0
M  V30 1803 C 175.249 3.14037 2.96656 0
M  V30 1804 C 174.384 3.18019 4.25485 0
M  V30 1805 C 173.423 4.39882 4.2564 0
M  V30 1806 N 172.56 4.41394 5.45999 0
M  V30 1807 H 177.4 2.66366 1.33615 0
M  V30 1808 H 174.937 1.32008 0.649018 0
M  V30 1809 H 176.895 1.92229 3.70275 0
M  V30 1810 H 175.525 0.965809 3.08013 0
M  V30 1811 H 174.577 3.17575 2.09404 0
M  V30 1812 H 175.889 4.0394 2.92633 0
M  V30 1813 H 175.043 3.22708 5.13755 0
M  V30 1814 H 173.782 2.2601 4.3217 0
M  V30 1815 H 172.787 4.35366 3.35763 0
M  V30 1816 H 174.012 5.33159 4.20617 0
M  V30 1817 H 171.958 3.52258 5.53399 0
M  V30 1818 H 171.875 5.25111 5.4387 0
M  V30 1819 H 173.143 4.50281 6.36292 0
M  V30 1820 N 177.372 -0.689602 1.41712 0
M  V30 1821 C 178.618 -1.45041 1.42599 0
M  V30 1822 C 178.973 -1.92366 0.0363764 0
M  V30 1823 O 178.266 -1.67022 -0.938844 0
M  V30 1824 C 178.46 -2.67298 2.37247 0
M  V30 1825 C 178.289 -2.31935 3.85274 0
M  V30 1826 C 177.059 -2.2201 4.53916 0
M  V30 1827 C 179.257 -1.94526 4.76093 0
M  V30 1828 N 177.239 -1.79594 5.87043 0
M  V30 1829 C 178.61 -1.62915 5.98213 0
M  V30 1830 C 180.665 -1.81388 4.63684 0
M  V30 1831 C 179.368 -1.19486 7.09306 0
M  V30 1832 C 181.394 -1.39364 5.74745 0
M  V30 1833 C 180.756 -1.08668 6.95967 0
M  V30 1834 H 176.855 -0.527806 0.577014 0
M  V30 1835 H 179.439 -0.797266 1.77628 0
M  V30 1836 H 177.61 -3.30325 2.04304 0
M  V30 1837 H 179.342 -3.33806 2.28814 0
M  V30 1838 H 176.097 -2.406 4.07932 0
M  V30 1839 H 176.521 -1.60851 6.57614 0
M  V30 1840 H 181.163 -2.03772 3.70455 0
M  V30 1841 H 178.881 -0.958477 8.02396 0
M  V30 1842 H 182.467 -1.2974 5.6715 0
M  V30 1843 H 181.347 -0.766417 7.80446 0
M  V30 1844 N 178.85 -1.27639 -0.924453 0
M  V30 1845 C 179.798 -1.10485 -2.04685 0
M  V30 1846 C 180.792 -0.0270421 -1.69378 0
M  V30 1847 O 181.998 -0.185008 -1.79047 0
M  V30 1848 H 178.373 -0.340546 -0.670472 0
M  V30 1849 H 180.344 -2.05566 -2.16298 0
M  V30 1850 C 179.093 -0.772229 -3.39016 0
M  V30 1851 H 178.416 -1.59351 -3.66671 0
M  V30 1852 H 179.856 -0.692097 -4.18313 0
M  V30 1853 C 178.315 0.523554 -3.32807 0
M  V30 1854 O 178.845 1.55702 -3.70297 0
M  V30 1855 N 177.051 0.520363 -2.85903 0
M  V30 1856 H 176.598 -0.32107 -2.55591 0
M  V30 1857 H 176.556 1.38742 -2.82131 0
M  V30 1858 N 180.328 1.1314 -1.09713 0
M  V30 1859 C 181.276 2.20717 -0.733934 0
M  V30 1860 C 182.27 1.6729 0.266506 0
M  V30 1861 O 183.476 1.79547 0.127656 0
M  V30 1862 H 179.851 0.719292 -0.21937 0
M  V30 1863 H 181.822 2.48611 -1.6503 0
M  V30 1864 C 180.571 3.47265 -0.173849 0
M  V30 1865 H 179.894 3.88716 -0.934873 0
M  V30 1866 H 181.334 4.23979 0.0423126 0
M  V30 1867 C 179.793 3.18724 1.09164 0
M  V30 1868 O 180.323 3.37762 2.17439 0
M  V30 1869 N 178.529 2.72583 1.00732 0
M  V30 1870 H 178.076 2.57291 0.126121 0
M  V30 1871 H 178.034 2.53862 1.85476 0
M  V30 1872 N 181.806 0.884767 1.30421 0
M  V30 1873 C 182.754 0.340869 2.30089 0
M  V30 1874 C 183.748 -0.55201 1.60154 0
M  V30 1875 O 184.954 -0.436467 1.74628 0
M  V30 1876 H 181.329 0.0915739 0.746404 0
M  V30 1877 H 183.3 1.19513 2.73421 0
M  V30 1878 C 182.049 -0.429779 3.45034 0
M  V30 1879 H 181.372 0.248024 3.9903 0
M  V30 1880 H 182.812 -0.775445 4.16849 0
M  V30 1881 C 181.271 -1.62677 2.95022 0
M  V30 1882 O 181.801 -2.72614 2.95033 0
M  V30 1883 N 180.007 -1.46387 2.51036 0
M  V30 1884 H 179.554 -0.569506 2.51226 0
M  V30 1885 H 179.512 -2.26612 2.17932 0
M  V30 1886 N 183.284 -1.43765 0.645699 0
M  V30 1887 C 184.561 -1.9541 0.0862963 0
M  V30 1888 C 184.941 -1.58725 -1.39175 0
M  V30 1889 O 184.289 -0.868581 -2.11348 0
M  V30 1890 C 184.499 -3.47488 0.324565 0
M  V30 1891 C 185.847 -4.24001 0.225497 0
M  V30 1892 O 186.871 -3.55274 0.256715 0
M  V30 1893 O 185.73 -5.46313 0.142801 0
M  V30 1894 H 182.824 -0.826882 -0.0139483 0
M  V30 1895 H 185.37 -1.53743 0.718415 0
M  V30 1896 H 184.142 -3.67289 1.3496 0
M  V30 1897 H 183.765 -3.96135 -0.340987 0
M  V30 1898 N 184.763 -0.387143 -1.52771 0
M  V30 1899 C 185.71 0.449048 -2.26389 0
M  V30 1900 C 186.68 1.05961 -1.27912 0
M  V30 1901 O 187.865 1.08804 -1.56737 0
M  V30 1902 C 185.005 1.57155 -3.0724 0
M  V30 1903 C 184.118 0.984066 -4.20643 0
M  V30 1904 C 183.253 2.07745 -4.88892 0
M  V30 1905 C 182.292 1.46574 -5.94292 0
M  V30 1906 N 181.429 2.49834 -6.56146 0
M  V30 1907 H 186.269 -0.185205 -2.97424 0
M  V30 1908 H 183.806 -0.103164 -1.46738 0
M  V30 1909 H 185.764 2.23309 -3.52405 0
M  V30 1910 H 184.394 2.17615 -2.38419 0
M  V30 1911 H 183.446 0.212193 -3.79808 0
M  V30 1912 H 184.758 0.497029 -4.96318 0
M  V30 1913 H 183.912 2.81673 -5.3735 0
M  V30 1914 H 182.651 2.59807 -4.12737 0
M  V30 1915 H 181.656 0.711696 -5.45174 0
M  V30 1916 H 182.881 0.953088 -6.72379 0
M  V30 1917 H 180.827 3.0107 -5.82832 0
M  V30 1918 H 180.744 2.05879 -7.27427 0
M  V30 1919 H 182.012 3.23399 -7.09249 0
M  V30 1920 N 186.241 1.57166 -0.116904 0
M  V30 1921 C 187.469 1.99473 0.549383 0
M  V30 1922 C 187.884 0.996541 1.60357 0
M  V30 1923 O 187.241 -0.0108731 1.82497 0
M  V30 1924 C 187.292 3.41788 1.17741 0
M  V30 1925 O 187.013 4.37788 0.165362 0
M  V30 1926 C 188.514 3.99216 1.92722 0
M  V30 1927 H 185.734 0.655009 0.145616 0
M  V30 1928 H 188.278 2.03494 -0.202625 0
M  V30 1929 H 186.433 3.38713 1.88021 0
M  V30 1930 H 186.847 5.20806 0.621403 0
M  V30 1931 H 188.321 5.00882 2.31995 0
M  V30 1932 H 188.798 3.3824 2.80161 0
M  V30 1933 H 189.404 4.0583 1.27209 0
M  V30 1934 N 187.719 -0.156864 1.56817 0
M  V30 1935 C 188.965 -0.867645 1.83966 0
M  V30 1936 C 189.32 -1.79233 0.699511 0
M  V30 1937 O 188.613 -1.89186 -0.303176 0
M  V30 1938 C 188.807 -1.68737 3.1506 0
M  V30 1939 C 188.636 -0.843548 4.41718 0
M  V30 1940 C 187.406 -0.512994 5.02689 0
M  V30 1941 C 189.604 -0.178416 5.1399 0
M  V30 1942 N 187.586 0.345456 6.12927 0
M  V30 1943 C 188.957 0.540586 6.17639 0
M  V30 1944 C 191.012 -0.0980696 4.97803 0
M  V30 1945 C 189.715 1.33233 7.06853 0
M  V30 1946 C 191.741 0.680387 5.87473 0
M  V30 1947 C 191.103 1.3877 6.90596 0
M  V30 1948 H 187.202 -0.295642 0.723961 0
M  V30 1949 H 189.786 -0.13365 1.94241 0
M  V30 1950 H 187.957 -2.39268 3.0595 0
M  V30 1951 H 189.689 -2.34056 3.30151 0
M  V30 1952 H 186.444 -0.846476 4.65974 0
M  V30 1953 H 186.868 0.765415 6.72659 0
M  V30 1954 H 191.51 -0.630562 4.18071 0
M  V30 1955 H 189.228 1.87612 7.8602 0
M  V30 1956 H 192.814 0.744415 5.77018 0
M  V30 1957 H 191.694 1.9804 7.58782 0
M  V30 1958 N 189.197 -1.51736 -0.425897 0
M  V30 1959 C 190.445 -1.64644 -1.17204 0
M  V30 1960 C 190.766 -0.370486 -1.91448 0
M  V30 1961 O 190.036 0.614088 -1.86026 0
M  V30 1962 H 188.616 -0.606819 -0.435638 0
M  V30 1963 H 191.278 -1.88713 -0.487177 0
M  V30 1964 H 190.374 -2.47958 -1.89534 0
M  V30 1965 N 190.675 0.682077 -1.42076 0
M  V30 1966 C 191.638 1.77756 -1.44691 0
M  V30 1967 C 192.638 1.5726 -0.335535 0
M  V30 1968 O 193.828 1.63686 -0.596037 0
M  V30 1969 C 190.96 3.16301 -1.27146 0
M  V30 1970 H 192.153 1.76826 -2.42224 0
M  V30 1971 H 189.706 0.891012 -1.28416 0
M  V30 1972 H 190.441 3.22862 -0.305075 0
M  V30 1973 H 190.226 3.32581 -2.07683 0
M  V30 1974 H 191.716 3.96241 -1.31843 0
M  V30 1975 N 192.153 1.28127 0.917671 0
M  V30 1976 C 193.383 1.17722 1.6978 0
M  V30 1977 C 193.791 -0.267261 1.87303 0
M  V30 1978 O 193.134 -1.19286 1.39702 0
M  V30 1979 C 193.196 1.79958 3.11216 0
M  V30 1980 C 192.86 3.29187 3.16993 0
M  V30 1981 C 193.857 4.25679 2.98485 0
M  V30 1982 C 191.542 3.70075 3.39632 0
M  V30 1983 C 193.536 5.61035 3.02521 0
M  V30 1984 C 191.223 5.05557 3.433 0
M  V30 1985 C 192.221 6.00847 3.24764 0
M  V30 1986 O 191.909 7.33859 3.28187 0
M  V30 1987 H 191.641 0.409788 0.537634 0
M  V30 1988 H 194.195 1.69694 1.15728 0
M  V30 1989 H 192.425 1.22475 3.66793 0
M  V30 1990 H 194.114 1.64125 3.71238 0
M  V30 1991 H 194.88 3.95426 2.80826 0
M  V30 1992 H 190.759 2.96373 3.53106 0
M  V30 1993 H 194.303 6.35388 2.87971 0
M  V30 1994 H 190.2 5.35462 3.60486 0
M  V30 1995 H 190.968 7.42436 3.44575 0
M  V30 1996 N 193.631 -1.12557 1.10312 0
M  V30 1997 C 195.047 -1.36036 0.834649 0
M  V30 1998 C 195.247 -1.93946 -0.546539 0
M  V30 1999 O 194.303 -2.16484 -1.29966 0
M  V30 2000 C 195.616 -2.30312 1.9333 0
M  V30 2001 C 197.164 -2.43906 1.9616 0
M  V30 2002 C 197.639 -3.41496 3.05195 0
M  V30 2003 N 199.13 -3.49053 3.04494 0
M  V30 2004 C 199.865 -4.24471 3.85502 0
M  V30 2005 N 199.361 -5.02966 4.76442 0
M  V30 2006 N 201.154 -4.19864 3.73725 0
M  V30 2007 H 193.305 -0.733246 1.99342 0
M  V30 2008 H 195.568 -0.385234 0.866198 0
M  V30 2009 H 195.274 -1.94933 2.92735 0
M  V30 2010 H 195.148 -3.30421 1.81939 0
M  V30 2011 H 197.535 -2.78567 0.973886 0
M  V30 2012 H 197.616 -1.4369 2.11629 0
M  V30 2013 H 197.26 -3.07565 4.04186 0
M  V30 2014 H 197.19 -4.41539 2.86968 0
M  V30 2015 H 199.681 -2.93053 2.38596 0
M  V30 2016 H 199.994 -5.57846 5.34815 0
M  V30 2017 H 198.339 -5.02167 4.80472 0
M  V30 2018 H 201.53 -3.57623 3.02032 0
M  V30 2019 H 201.703 -4.78386 4.37093 0
M  V30 2020 N 195.109 -0.891671 -1.2995 0
M  V30 2021 C 196.386 -0.433307 -1.9074 0
M  V30 2022 C 196.766 1.08646 -1.80995 0
M  V30 2023 O 196.114 1.92476 -1.23147 0
M  V30 2024 C 196.324 -0.938895 -3.36134 0
M  V30 2025 C 197.672 -0.977829 -4.13187 0
M  V30 2026 O 198.696 -0.886015 -3.45005 0
M  V30 2027 O 197.555 -1.11453 -5.35015 0
M  V30 2028 H 194.649 -0.133699 -0.816121 0
M  V30 2029 H 197.195 -0.981011 -1.38471 0
M  V30 2030 H 195.967 -1.98281 -3.37343 0
M  V30 2031 H 195.59 -0.37074 -3.95868 0
M  V30 2032 N 196.587 1.43421 -0.653314 0
M  V30 2033 C 197.534 2.30768 0.0382271 0
M  V30 2034 C 198.504 1.44755 0.814576 0
M  V30 2035 O 199.689 1.73624 0.791162 0
M  V30 2036 C 196.829 3.30336 0.998599 0
M  V30 2037 C 195.942 4.31448 0.218342 0
M  V30 2038 C 195.077 5.18098 1.17252 0
M  V30 2039 C 194.116 6.10902 0.382702 0
M  V30 2040 N 193.253 6.90176 1.28848 0
M  V30 2041 H 198.093 2.89357 -0.712511 0
M  V30 2042 H 195.63 1.42548 -0.363128 0
M  V30 2043 H 197.588 3.86572 1.56901 0
M  V30 2044 H 196.218 2.73397 1.71621 0
M  V30 2045 H 195.27 3.77506 -0.46836 0
M  V30 2046 H 196.582 4.97227 -0.395812 0
M  V30 2047 H 195.736 5.7896 1.81356 0
M  V30 2048 H 194.475 4.52444 1.82058 0
M  V30 2049 H 193.48 5.49128 -0.27169 0
M  V30 2050 H 194.705 6.78598 -0.260957 0
M  V30 2051 H 192.651 6.27171 1.92334 0
M  V30 2052 H 192.568 7.52478 0.728887 0
M  V30 2053 H 193.836 7.55543 1.91766 0
M  V30 2054 N 198.065 0.39524 1.52563 0
M  V30 2055 C 199.028 -0.425001 2.25225 0
M  V30 2056 C 200.028 -0.985266 1.27079 0
M  V30 2057 O 201.218 -0.866332 1.5113 0
M  V30 2058 C 198.35 -1.59686 3.01186 0
M  V30 2059 H 199.543 0.211233 2.99155 0
M  V30 2060 H 197.096 0.147472 1.55603 0
M  V30 2061 H 197.831 -2.27035 2.31572 0
M  V30 2062 H 197.616 -1.20176 3.73229 0
M  V30 2063 H 199.106 -2.17743 3.5634 0
M  V30 2064 N 199.544 -1.57102 0.125237 0
M  V30 2065 C 200.955 -1.82384 -0.399142 0
M  V30 2066 C 201.306 -1.04276 -1.66195 0
M  V30 2067 O 200.431 -0.281269 -2.14564 0
M  V30 2068 C 201.026 -3.30821 -0.730932 0
M  V30 2069 C 199.585 -3.56762 -1.19992 0
M  V30 2070 C 198.732 -2.7649 -0.211792 0
M  V30 2071 H 201.683 -1.54786 0.350277 0
M  V30 2072 H 201.704 -3.4579 -1.58775 0
M  V30 2073 H 201.216 -3.87643 0.188345 0
M  V30 2074 H 199.317 -3.05305 -2.13588 0
M  V30 2075 H 199.43 -4.65317 -1.14093 0
M  V30 2076 H 197.794 -2.4489 -0.700085 0
M  V30 2077 H 198.577 -3.36073 0.700691 0
M  V30 2078 N 201.022 0.148545 -1.56898 0
M  V30 2079 C 202.299 0.890019 -1.74178 0
M  V30 2080 C 202.679 1.99407 -0.692839 0
M  V30 2081 O 202.027 2.26671 0.288505 0
M  V30 2082 C 202.237 1.43389 -3.18183 0
M  V30 2083 C 203.585 1.89791 -3.79822 0
M  V30 2084 O 204.609 1.53134 -3.21603 0
M  V30 2085 O 203.468 2.57387 -4.82093 0
M  V30 2086 H 200.562 0.420496 -0.712118 0
M  V30 2087 H 203.108 0.134591 -1.69165 0
M  V30 2088 H 201.88 0.640383 -3.86024 0
M  V30 2089 H 201.503 2.25287 -3.27615 0
M  V30 2090 N 202.5 1.5196 0.417844 0
M  V30 2091 C 203.728 1.69426 1.18753 0
M  V30 2092 C 204.143 0.399955 1.84515 0
M  V30 2093 O 203.5 -0.623288 1.71527 0
M  V30 2094 C 203.551 2.82375 2.25714 0
M  V30 2095 O 203.272 4.06793 1.62638 0
M  V30 2096 C 204.773 3.11277 3.15628 0
M  V30 2097 H 201.993 0.568031 0.357186 0
M  V30 2098 H 204.537 1.98475 0.49273 0
M  V30 2099 H 202.692 2.5587 2.90877 0
M  V30 2100 H 203.106 4.69667 2.3348 0
M  V30 2101 H 204.58 3.93843 3.86771 0
M  V30 2102 H 205.057 2.24473 3.77503 0
M  V30 2103 H 205.663 3.39515 2.56144 0
M  V30 2104 N 203.978 -0.674533 1.42435 0
M  V30 2105 C 205.255 -1.4305 1.33402 0
M  V30 2106 C 205.635 -2.11081 -0.0284674 0
M  V30 2107 O 204.983 -2.03257 -1.04397 0
M  V30 2108 C 205.193 -2.43272 2.50239 0
M  V30 2109 C 206.541 -3.07907 2.92367 0
M  V30 2110 O 207.565 -2.53599 2.50132 0
M  V30 2111 O 206.424 -4.0632 3.65467 0
M  V30 2112 H 203.518 -0.638076 0.526106 0
M  V30 2113 H 206.064 -0.703235 1.54443 0
M  V30 2114 H 204.836 -1.91803 3.41068 0
M  V30 2115 H 204.459 -3.23479 2.31186 0
M  V30 2116 N 205.456 -1.28612 -0.910864 0
M  V30 2117 C 206.702 -1.17116 -1.66299 0
M  V30 2118 C 207.057 0.276917 -1.90397 0
M  V30 2119 O 206.35 1.19795 -1.49532 0
M  V30 2120 C 206.544 -1.90624 -3.0232 0
M  V30 2121 C 206.373 -3.42431 -2.91498 0
M  V30 2122 C 205.143 -4.11773 -2.92867 0
M  V30 2123 C 207.341 -4.38124 -2.69355 0
M  V30 2124 N 205.323 -5.50025 -2.72664 0
M  V30 2125 C 206.694 -5.63759 -2.58023 0
M  V30 2126 C 208.749 -4.28016 -2.54375 0
M  V30 2127 C 207.452 -6.80436 -2.33238 0
M  V30 2128 C 209.478 -5.44433 -2.30969 0
M  V30 2129 C 208.84 -6.69034 -2.20394 0
M  V30 2130 H 204.939 -0.483506 -0.61461 0
M  V30 2131 H 207.523 -1.62299 -1.0755 0
M  V30 2132 H 205.694 -1.4787 -3.5915 0
M  V30 2133 H 207.426 -1.71488 -3.66571 0
M  V30 2134 H 204.181 -3.63378 -3.03732 0
M  V30 2135 H 204.605 -6.22705 -2.65646 0
M  V30 2136 H 209.247 -3.32388 -2.613 0
M  V30 2137 H 206.965 -7.7613 -2.25051 0
M  V30 2138 H 210.551 -5.38504 -2.20238 0
M  V30 2139 H 209.431 -7.57595 -2.02531 0
M  V30 2140 N 206.934 1.1197 -1.10907 0
M  V30 2141 C 208.211 1.79959 -0.766432 0
M  V30 2142 C 208.591 1.97466 0.746363 0
M  V30 2143 O 207.939 1.55491 1.67436 0
M  V30 2144 C 208.149 3.14009 -1.52314 0
M  V30 2145 C 209.497 3.89134 -1.69883 0
M  V30 2146 O 210.521 3.2368 -1.48692 0
M  V30 2147 O 209.38 5.06572 -2.05054 0
M  V30 2148 H 206.474 0.779208 -0.277062 0
M  V30 2149 H 209.02 1.18762 -1.21217 0
M  V30 2150 H 207.792 2.96587 -2.55249 0
M  V30 2151 H 207.415 3.82915 -1.07059 0
M  V30 2152 N 208.412 0.89855 1.29475 0
M  V30 2153 C 209.342 0.39201 2.30186 0
M  V30 2154 C 210.323 -0.532359 1.61555 0
M  V30 2155 O 211.508 -0.443331 1.89072 0
M  V30 2156 C 208.638 -0.382353 3.45189 0
M  V30 2157 C 207.592 0.451483 4.25612 0
M  V30 2158 C 206.918 -0.450307 5.328 0
M  V30 2159 C 208.218 1.70079 4.93832 0
M  V30 2160 H 209.912 1.23362 2.72804 0
M  V30 2161 H 207.458 0.594638 1.31149 0
M  V30 2162 H 209.411 -0.747451 4.14718 0
M  V30 2163 H 208.135 -1.25774 3.01411 0
M  V30 2164 H 206.794 0.798897 3.57789 0
M  V30 2165 H 206.442 -1.32379 4.85268 0
M  V30 2166 H 206.142 0.103902 5.87508 0
M  V30 2167 H 207.666 -0.811623 6.05182 0
M  V30 2168 H 209.08 1.40549 5.55805 0
M  V30 2169 H 207.477 2.19623 5.58467 0
M  V30 2170 H 208.547 2.43744 4.19186 0
M  V30 2171 N 209.89 -1.43072 0.660911 0
M  V30 2172 C 211.136 -2.0202 0.177708 0
M  V30 2173 C 211.469 -1.52066 -1.20787 0
M  V30 2174 O 210.744 -0.716987 -1.80802 0
M  V30 2175 C 211.027 -3.59561 0.197019 0
M  V30 2176 C 210.88 -4.19727 1.61706 0
M  V30 2177 C 212.199 -4.37664 -0.462396 0
M  V30 2178 H 209.318 -0.734034 0.0660494 0
M  V30 2179 H 211.96 -1.70272 0.843058 0
M  V30 2180 H 210.11 -3.86739 -0.369527 0
M  V30 2181 H 211.782 -4.03553 2.23479 0
M  V30 2182 H 210.025 -3.76084 2.16201 0
M  V30 2183 H 210.696 -5.28834 1.58237 0
M  V30 2184 H 213.172 -4.16095 0.0197215 0
M  V30 2185 H 212.048 -5.47305 -0.418188 0
M  V30 2186 H 212.309 -4.14493 -1.53778 0
M  V30 2187 N 211.368 -0.403325 -1.52352 0
M  V30 2188 C 212.298 0.416205 -2.29761 0
M  V30 2189 C 213.279 1.05123 -1.33728 0
M  V30 2190 O 214.464 1.06134 -1.62632 0
M  V30 2191 C 211.594 1.53624 -3.11475 0
M  V30 2192 C 210.548 1.02653 -4.15507 0
M  V30 2193 C 209.874 2.23971 -4.85532 0
M  V30 2194 C 211.174 0.08463 -5.22231 0
M  V30 2195 H 212.868 -0.229701 -2.98518 0
M  V30 2196 H 210.414 -0.111913 -1.43564 0
M  V30 2197 H 212.367 2.1165 -3.64393 0
M  V30 2198 H 211.091 2.20994 -2.40477 0
M  V30 2199 H 209.75 0.46871 -3.63591 0
M  V30 2200 H 209.398 2.89883 -4.11068 0
M  V30 2201 H 209.098 1.90521 -5.55856 0
M  V30 2202 H 210.622 2.82614 -5.41259 0
M  V30 2203 H 212.036 0.573509 -5.70424 0
M  V30 2204 H 210.433 -0.160783 -5.99885 0
M  V30 2205 H 211.503 -0.86237 -4.7717 0
M  V30 2206 N 212.846 1.57033 -0.133567 0
M  V30 2207 C 214.076 1.99754 0.527429 0
M  V30 2208 C 214.484 1.01245 1.59832 0
M  V30 2209 O 213.827 -0.000645496 1.837 0
M  V30 2210 C 213.889 3.38903 1.19939 0
M  V30 2211 C 213.553 4.56174 0.274709 0
M  V30 2212 C 214.55 5.17563 -0.492398 0
M  V30 2213 C 212.235 5.01972 0.18153 0
M  V30 2214 C 214.229 6.2315 -1.34027 0
M  V30 2215 C 211.916 6.07416 -0.669958 0
M  V30 2216 C 212.914 6.67874 -1.42947 0
M  V30 2217 O 212.602 7.71279 -2.2668 0
M  V30 2218 H 212.334 0.660702 0.142999 0
M  V30 2219 H 214.888 2.04207 -0.221099 0
M  V30 2220 H 213.118 3.31248 1.99528 0
M  V30 2221 H 214.807 3.65818 1.75875 0
M  V30 2222 H 215.573 4.83087 -0.430367 0
M  V30 2223 H 211.452 4.54652 0.762422 0
M  V30 2224 H 214.996 6.70268 -1.93357 0
M  V30 2225 H 210.893 6.41321 -0.73333 0
M  V30 2226 H 211.661 7.88441 -2.1978 0
M  V30 2227 N 214.325 -0.140222 1.56975 0
M  V30 2228 C 215.272 -1.17292 1.98774 0
M  V30 2229 C 216.242 -1.4232 0.856408 0
M  V30 2230 O 217.427 -1.54541 1.119 0
M  V30 2231 C 214.567 -2.49973 2.37923 0
M  V30 2232 C 213.68 -2.32062 3.64378 0
M  V30 2233 C 212.815 -3.57825 3.926 0
M  V30 2234 C 211.854 -3.3498 5.12303 0
M  V30 2235 N 210.991 -4.52891 5.36502 0
M  V30 2236 H 215.831 -0.809472 2.86795 0
M  V30 2237 H 213.368 -0.388237 1.41884 0
M  V30 2238 H 215.326 -3.27346 2.58652 0
M  V30 2239 H 213.956 -2.84252 1.52972 0
M  V30 2240 H 213.008 -1.45711 3.51387 0
M  V30 2241 H 214.32 -2.11145 4.51906 0
M  V30 2242 H 213.474 -4.43624 4.13863 0
M  V30 2243 H 212.213 -3.81753 3.03506 0
M  V30 2244 H 211.218 -2.4757 4.90906 0
M  V30 2245 H 212.443 -3.12444 6.02956 0
M  V30 2246 H 210.389 -4.76979 4.50363 0
M  V30 2247 H 210.306 -4.35001 6.18312 0
M  V30 2248 H 211.574 -5.39884 5.62268 0
M  V30 2249 N 215.803 -1.52179 -0.40978 0
M  V30 2250 C 217.028 -1.70347 -1.18308 0
M  V30 2251 C 217.453 -0.411887 -1.83535 0
M  V30 2252 O 216.811 0.630587 -1.6998 0
M  V30 2253 C 216.859 -2.83977 -2.22238 0
M  V30 2254 O 215.963 -2.495 -3.28365 0
M  V30 2255 H 215.304 -0.567103 -0.345384 0
M  V30 2256 H 217.834 -1.98879 -0.480445 0
M  V30 2257 H 217.844 -3.0887 -2.66577 0
M  V30 2258 H 216.519 -3.77685 -1.74146 0
M  V30 2259 H 215.096 -2.35277 -2.89308 0
M  V30 2260 N 217.281 0.66697 -1.42791 0
M  V30 2261 C 218.509 1.45505 -1.47091 0
M  V30 2262 C 218.924 1.8861 -0.0845873 0
M  V30 2263 O 218.281 1.58632 0.90234 0
M  V30 2264 C 218.332 2.69906 -2.40485 0
M  V30 2265 O 218.053 2.28608 -3.73725 0
M  V30 2266 C 219.554 3.63396 -2.53886 0
M  V30 2267 H 216.774 0.447459 -0.500022 0
M  V30 2268 H 219.318 0.818866 -1.8739 0
M  V30 2269 H 217.473 3.29696 -2.03419 0
M  V30 2270 H 217.887 3.08997 -4.23817 0
M  V30 2271 H 219.361 4.47387 -3.2334 0
M  V30 2272 H 219.838 4.09824 -1.57927 0
M  V30 2273 H 220.444 3.09495 -2.91706 0
M  V30 2274 N 218.759 1.29093 0.90403 0
M  V30 2275 C 220.036 1.075 1.63411 0
M  V30 2276 C 220.416 -0.382346 2.07609 0
M  V30 2277 O 219.764 -1.37031 1.82851 0
M  V30 2278 C 219.974 2.05858 2.81822 0
M  V30 2279 C 221.322 2.36539 3.52611 0
M  V30 2280 O 222.346 2.04019 2.91984 0
M  V30 2281 O 221.205 2.92085 4.61897 0
M  V30 2282 H 218.299 0.411547 0.717327 0
M  V30 2283 H 220.845 1.40449 0.952479 0
M  V30 2284 H 219.617 3.04037 2.46327 0
M  V30 2285 H 219.24 1.73613 3.57693 0
M  V30 2286 N 220.237 -1.11381 1.11499 0
M  V30 2287 C 221.514 -1.7955 0.775965 0
M  V30 2288 C 221.894 -1.97859 -0.73588 0
M  V30 2289 O 221.242 -1.56376 -1.66609 0
M  V30 2290 C 221.452 -3.13196 1.53977 0
M  V30 2291 C 222.8 -3.88227 1.71944 0
M  V30 2292 O 223.824 -3.22887 1.50407 0
M  V30 2293 O 222.683 -5.05477 2.07738 0
M  V30 2294 H 219.777 -0.777728 0.28119 0
M  V30 2295 H 222.323 -1.18118 1.21845 0
M  V30 2296 H 221.095 -2.95229 2.56818 0
M  V30 2297 H 220.718 -3.82342 1.09088 0
M  V30 2298 N 221.715 -0.905404 -1.28997 0
M  V30 2299 C 222.963 -0.533192 -1.9494 0
M  V30 2300 C 223.284 0.924618 -1.71685 0
M  V30 2301 O 222.554 1.65268 -1.05183 0
M  V30 2302 H 221.134 -0.194194 -0.721317 0
M  V30 2303 H 223.796 -1.15294 -1.57141 0
M  V30 2304 H 222.892 -0.72059 -3.03667 0
M  V30 2305 N 223.193 1.4272 -0.668489 0
M  V30 2306 C 224.439 2.01923 -0.188419 0
M  V30 2307 C 224.772 1.52704 1.19979 0
M  V30 2308 O 224.047 0.726566 1.8042 0
M  V30 2309 C 224.33 3.59451 -0.216085 0
M  V30 2310 C 224.183 4.18864 -1.6393 0
M  V30 2311 C 225.502 4.37903 0.439179 0
M  V30 2312 H 222.621 0.733674 -0.0699412 0
M  V30 2313 H 225.263 1.69822 -0.852076 0
M  V30 2314 H 223.413 3.86929 0.349012 0
M  V30 2315 H 225.085 4.02362 -2.25616 0
M  V30 2316 H 223.328 3.74933 -2.18193 0
M  V30 2317 H 223.999 5.27987 -1.61039 0
M  V30 2318 H 226.475 4.16079 -0.0417878 0
M  V30 2319 H 225.351 5.47519 0.389157 0
M  V30 2320 H 225.612 4.15303 1.51577 0
M  V30 2321 N 224.671 0.411399 1.52136 0
M  V30 2322 C 225.899 -0.163076 2.06256 0
M  V30 2323 C 226.314 -1.3867 1.28125 0
M  V30 2324 O 225.671 -1.79423 0.333721 0
M  V30 2325 C 225.722 -0.511252 3.57867 0
M  V30 2326 O 225.443 0.66378 4.33042 0
M  V30 2327 C 226.944 -1.13921 4.28412 0
M  V30 2328 H 224.164 -0.0193897 0.67072 0
M  V30 2329 H 226.708 0.583007 1.96013 0
M  V30 2330 H 224.863 -1.20723 3.6811 0
M  V30 2331 H 225.277 0.372601 5.23175 0
M  V30 2332 H 226.751 -1.33302 5.35663 0
M  V30 2333 H 227.228 -2.11296 3.85033 0
M  V30 2334 H 227.834 -0.483373 4.22544 0
M  V30 2335 N 226.149 -1.5696 0.141893 0
M  V30 2336 C 227.396 -1.9596 -0.510492 0
M  V30 2337 C 227.724 -1.02648 -1.65208 0
M  V30 2338 O 226.979 -0.0546947 -1.95624 0
M  V30 2339 C 227.278 -3.41242 -1.06249 0
M  V30 2340 C 226.944 -4.50882 -0.0398791 0
M  V30 2341 C 225.606 -4.80595 0.241247 0
M  V30 2342 C 227.958 -5.17058 0.65578 0
M  V30 2343 C 225.286 -5.73792 1.22393 0
M  V30 2344 C 227.638 -6.11313 1.62724 0
M  V30 2345 C 226.302 -6.39407 1.91612 0
M  V30 2346 H 225.572 -0.717068 -0.186802 0
M  V30 2347 H 228.219 -1.90142 0.227643 0
M  V30 2348 H 226.524 -3.43866 -1.87785 0
M  V30 2349 H 228.221 -3.68742 -1.57576 0
M  V30 2350 H 224.811 -4.27754 -0.269174 0
M  V30 2351 H 228.995 -4.94239 0.451779 0
M  V30 2352 H 224.251 -5.93853 1.45424 0
M  V30 2353 H 228.425 -6.61668 2.17183 0
M  V30 2354 H 226.052 -7.11427 2.6791 0
M  V30 2355 N 227.627 0.131896 -1.57047 0
M  V30 2356 C 228.852 0.860418 -1.8871 0
M  V30 2357 C 229.277 1.73251 -0.73251 0
M  V30 2358 O 228.635 1.785 0.317429 0
M  V30 2359 C 228.683 1.68047 -3.19049 0
M  V30 2360 O 227.787 2.7862 -3.04047 0
M  V30 2361 H 227.128 0.238743 -0.619595 0
M  V30 2362 H 229.658 0.118169 -2.04258 0
M  V30 2363 H 229.668 2.07238 -3.51449 0
M  V30 2364 H 228.343 1.04018 -4.02682 0
M  V30 2365 H 226.92 2.42726 -2.83088 0
M  V30 2366 N 229.106 1.52395 0.401703 0
M  V30 2367 C 230.053 1.76268 1.48991 0
M  V30 2368 C 231.023 0.605386 1.54675 0
M  V30 2369 O 232.208 0.843742 1.7113 0
M  V30 2370 C 229.348 1.92592 2.86361 0
M  V30 2371 C 228.461 3.20259 2.89928 0
M  V30 2372 C 227.596 3.26972 4.18644 0
M  V30 2373 C 226.635 4.48812 4.16214 0
M  V30 2374 N 225.772 4.52877 5.36514 0
M  V30 2375 H 230.612 2.6914 1.27935 0
M  V30 2376 H 228.149 1.33355 0.620871 0
M  V30 2377 H 230.107 2.0004 3.66115 0
M  V30 2378 H 228.737 1.03093 3.05895 0
M  V30 2379 H 227.789 3.21945 2.02621 0
M  V30 2380 H 229.101 4.10056 2.83999 0
M  V30 2381 H 228.255 3.33533 5.06794 0
M  V30 2382 H 226.994 2.35126 4.27278 0
M  V30 2383 H 225.999 4.4239 3.26453 0
M  V30 2384 H 227.224 5.41961 4.09213 0
M  V30 2385 H 225.17 3.63917 5.45802 0
M  V30 2386 H 225.087 5.36529 5.32609 0
M  V30 2387 H 226.355 4.63676 6.26597 0
M  V30 2388 N 230.584 -0.659388 1.43143 0
M  V30 2389 C 231.83 -1.42145 1.44647 0
M  V30 2390 C 232.163 -1.9408 0.0681907 0
M  V30 2391 O 231.438 -1.71899 -0.910007 0
M  V30 2392 C 231.721 -2.60735 2.48373 0
M  V30 2393 C 231.574 -2.14332 3.95451 0
M  V30 2394 C 232.893 -3.62951 2.48906 0
M  V30 2395 H 230.012 -0.51552 0.526696 0
M  V30 2396 H 232.654 -0.748069 1.74654 0
M  V30 2397 H 230.804 -3.18184 2.22916 0
M  V30 2398 H 232.476 -1.61932 4.31944 0
M  V30 2399 H 230.719 -1.4576 4.08578 0
M  V30 2400 H 231.39 -2.99583 4.63631 0
M  V30 2401 H 233.866 -3.1525 2.71582 0
M  V30 2402 H 232.742 -4.43487 3.23435 0
M  V30 2403 H 233.003 -4.15126 1.52061 0
M  V30 2404 N 232.062 -1.29571 -0.897171 0
M  V30 2405 C 232.972 -1.16808 -2.03453 0
M  V30 2406 C 233.988 -0.0907471 -1.73763 0
M  V30 2407 O 235.164 -0.303312 -1.99103 0
M  V30 2408 C 232.229 -0.848264 -3.36163 0
M  V30 2409 C 231.29 -2.0097 -3.79354 0
M  V30 2410 C 230.523 -1.70505 -5.05731 0
M  V30 2411 O 230.746 -0.62718 -5.66941 0
M  V30 2412 O 229.68 -2.5538 -5.45036 0
M  V30 2413 H 233.506 -2.12325 -2.17144 0
M  V30 2414 H 231.091 -1.09047 -1.02123 0
M  V30 2415 H 232.973 -0.684581 -4.15802 0
M  V30 2416 H 231.648 0.0771071 -3.23608 0
M  V30 2417 H 230.555 -2.22863 -3.00471 0
M  V30 2418 H 231.888 -2.91636 -3.96496 0
M  V30 2419 N 233.54 1.10788 -1.12088 0
M  V30 2420 C 234.768 1.86461 -0.896651 0
M  V30 2421 C 235.183 1.80492 0.553912 0
M  V30 2422 O 234.54 1.19102 1.38278 0
M  V30 2423 C 234.591 3.35006 -1.35843 0
M  V30 2424 O 234.312 3.40866 -2.75213 0
M  V30 2425 C 235.813 4.27565 -1.1706 0
M  V30 2426 H 233.033 0.589425 -0.320654 0
M  V30 2427 H 235.577 1.40076 -1.48993 0
M  V30 2428 H 233.732 3.7887 -0.808458 0
M  V30 2429 H 234.146 4.33411 -2.9539 0
M  V30 2430 H 235.62 5.30007 -1.54263 0
M  V30 2431 H 236.097 4.3906 -0.110814 0
M  V30 2432 H 236.703 3.89501 -1.70789 0
M  V30 2433 N 235.018 0.912232 1.28515 0
M  V30 2434 C 235.966 0.389597 2.29314 0
M  V30 2435 C 236.96 -0.517915 1.61289 0
M  V30 2436 O 238.166 -0.399328 1.75515 0
M  V30 2437 H 234.541 0.107386 0.744293 0
M  V30 2438 H 236.512 1.25286 2.70825 0
M  V30 2439 C 235.261 -0.356496 3.45868 0
M  V30 2440 H 234.584 0.332608 3.98414 0
M  V30 2441 H 236.024 -0.686851 4.184 0
M  V30 2442 C 234.483 -1.56383 2.98406 0
M  V30 2443 O 235.013 -2.66294 3.00749 0
M  V30 2444 N 233.219 -1.41029 2.54085 0
M  V30 2445 H 232.766 -0.516089 2.52377 0
M  V30 2446 H 232.724 -2.21939 2.22689 0
M  V30 2447 N 236.496 -1.42363 0.676048 0
M  V30 2448 C 237.745 -2.00745 0.196037 0
M  V30 2449 C 238.058 -1.54083 -1.20489 0
M  V30 2450 O 239.264 -2.04891 -1.78134 0
M  V30 2451 C 237.72 -3.58651 0.299616 0
M  V30 2452 C 237.328 -4.143 1.70468 0
M  V30 2453 C 239.072 -4.24326 -0.121619 0
M  V30 2454 C 236.979 -5.64574 1.76096 0
M  V30 2455 H 235.909 -0.750787 0.0695301 0
M  V30 2456 H 238.56 -1.63072 0.841412 0
M  V30 2457 H 236.942 -3.93833 -0.413673 0
M  V30 2458 H 238.116 -3.90575 2.44515 0
M  V30 2459 H 236.431 -3.61081 2.07387 0
M  V30 2460 H 239.028 -5.34607 -0.0997362 0
M  V30 2461 H 239.371 -3.99897 -1.15708 0
M  V30 2462 H 239.904 -3.94108 0.540706 0
M  V30 2463 H 236.643 -5.93804 2.77628 0
M  V30 2464 H 236.163 -5.90286 1.06406 0
M  V30 2465 H 237.842 -6.29013 1.51496 0
M  V30 2466 N 237.974 -0.419461 -1.51915 0
M  V30 2467 C 238.924 0.418496 -2.24126 0
M  V30 2468 C 239.908 1.00495 -1.25656 0
M  V30 2469 O 241.1 0.926058 -1.50842 0
M  V30 2470 C 238.229 1.52899 -3.07371 0
M  V30 2471 C 237.315 0.952797 -4.13258 0
M  V30 2472 N 237.706 0.104175 -5.05693 0
M  V30 2473 C 236.004 1.22224 -4.28926 0
M  V30 2474 C 236.705 -0.21752 -5.81293 0
M  V30 2475 N 235.681 0.394293 -5.42168 0
M  V30 2476 H 239.483 -0.236048 -2.92951 0
M  V30 2477 H 236.997 -0.230481 -1.60756 0
M  V30 2478 H 238.994 2.14199 -3.57665 0
M  V30 2479 H 237.654 2.18605 -2.40088 0
M  V30 2480 H 238.665 -0.260924 -5.17242 0
M  V30 2481 H 235.342 1.87812 -3.72871 0
M  V30 2482 H 236.732 -0.906992 -6.6575 0
M  V30 2483 N 239.452 1.56882 -0.150215 0
M  V30 2484 C 240.729 1.87844 0.545327 0
M  V30 2485 C 241.109 1.0567 1.82749 0
M  V30 2486 O 240.457 0.144442 2.28043 0
M  V30 2487 C 240.667 3.39526 0.80767 0
M  V30 2488 C 242.015 4.08814 1.14703 0
M  V30 2489 O 243.039 3.44723 0.896917 0
M  V30 2490 O 241.898 5.22004 1.61784 0
M  V30 2491 H 238.992 0.778677 0.278553 0
M  V30 2492 H 241.538 1.68666 -0.187068 0
M  V30 2493 H 240.31 3.91173 -0.0996096 0
M  V30 2494 H 239.933 3.64243 1.59413 0
M  V30 2495 N 240.93 -0.123565 1.57115 0
M  V30 2496 C 242.179 -0.830704 1.83799 0
M  V30 2497 C 242.492 -1.81259 0.735158 0
M  V30 2498 O 243.698 -2.56558 0.888278 0
M  V30 2499 C 242.154 -1.52802 3.25852 0
M  V30 2500 C 241.762 -0.587356 4.44133 0
M  V30 2501 C 243.506 -2.22056 3.61789 0
M  V30 2502 C 241.413 -1.28764 5.77212 0
M  V30 2503 H 240.343 -0.313967 0.685522 0
M  V30 2504 H 242.994 -0.0834359 1.8331 0
M  V30 2505 H 241.376 -2.32175 3.20797 0
M  V30 2506 H 242.55 0.172829 4.60476 0
M  V30 2507 H 240.865 -0.00201892 4.164 0
M  V30 2508 H 243.462 -2.75131 4.58483 0
M  V30 2509 H 243.805 -2.99644 2.88997 0
M  V30 2510 H 244.338 -1.49576 3.68608 0
M  V30 2511 H 241.077 -0.55314 6.53162 0
M  V30 2512 H 240.597 -2.01995 5.64764 0
M  V30 2513 H 242.276 -1.8221 6.20813 0
M  V30 2514 N 242.408 -1.52605 -0.393616 0
M  V30 2515 C 243.654 -1.67672 -1.14079 0
M  V30 2516 C 243.987 -0.413121 -1.89755 0
M  V30 2517 O 243.262 0.588952 -1.85369 0
M  V30 2518 C 243.545 -2.9088 -2.12276 0
M  V30 2519 C 243.398 -4.27329 -1.40394 0
M  V30 2520 C 244.717 -3.09628 -3.12759 0
M  V30 2521 H 241.836 -0.610168 -0.413356 0
M  V30 2522 H 244.478 -1.85193 -0.424696 0
M  V30 2523 H 242.628 -2.76073 -2.73342 0
M  V30 2524 H 244.3 -4.53894 -0.82327 0
M  V30 2525 H 242.543 -4.2802 -0.705801 0
M  V30 2526 H 243.214 -5.09615 -2.12123 0
M  V30 2527 H 245.69 -3.23436 -2.61779 0
M  V30 2528 H 244.566 -3.97322 -3.78717 0
M  V30 2529 H 244.827 -2.23637 -3.81365 0
M  V30 2530 N 243.887 0.651787 -1.4349 0
M  V30 2531 C 245.115 1.43937 -1.48626 0
M  V30 2532 C 245.53 1.8851 -0.104587 0
M  V30 2533 O 244.887 1.5958 0.885464 0
M  V30 2534 C 244.938 2.6734 -2.43334 0
M  V30 2535 O 244.659 2.24631 -3.76128 0
M  V30 2536 C 246.16 3.60683 -2.57726 0
M  V30 2537 H 243.38 0.44213 -0.504739 0
M  V30 2538 H 245.924 0.798944 -1.88248 0
M  V30 2539 H 244.079 3.2752 -2.06904 0
M  V30 2540 H 244.493 3.04485 -4.2707 0
M  V30 2541 H 245.967 4.43933 -3.28067 0
M  V30 2542 H 246.444 4.08126 -1.62265 0
M  V30 2543 H 247.05 3.06384 -2.94973 0
M  V30 2544 N 245.365 1.30045 0.890287 0
M  V30 2545 C 246.312 1.15976 1.99545 0
M  V30 2546 C 247.282 0.0506202 1.66023 0
M  V30 2547 O 248.467 0.219847 1.89529 0
M  V30 2548 C 245.607 0.852054 3.34416 0
M  V30 2549 C 244.72 2.04255 3.80662 0
M  V30 2550 C 243.855 1.6734 5.04154 0
M  V30 2551 C 242.894 2.82916 5.42794 0
M  V30 2552 N 242.031 2.46333 6.57468 0
M  V30 2553 H 246.871 2.10524 2.10911 0
M  V30 2554 H 244.408 1.04749 1.03276 0
M  V30 2555 H 246.366 0.654296 4.12037 0
M  V30 2556 H 244.996 -0.0565502 3.2275 0
M  V30 2557 H 244.048 2.35172 2.98995 0
M  V30 2558 H 245.36 2.90826 4.05242 0
M  V30 2559 H 244.514 1.43908 5.89386 0
M  V30 2560 H 243.253 0.779308 4.81433 0
M  V30 2561 H 242.258 3.0702 4.56091 0
M  V30 2562 H 243.483 3.73004 5.6749 0
M  V30 2563 H 241.429 1.59423 6.36334 0
M  V30 2564 H 241.346 3.26436 6.81891 0
M  V30 2565 H 242.614 2.26244 7.45945 0
M  V30 2566 N 246.843 -1.10192 1.12674 0
M  V30 2567 C 247.791 -2.18694 0.792196 0
M  V30 2568 C 248.785 -1.67938 -0.222058 0
M  V30 2569 O 249.991 -1.79822 -0.0800074 0
M  V30 2570 H 246.366 -0.713223 0.238364 0
M  V30 2571 H 248.337 -2.44149 1.71564 0
M  V30 2572 C 247.086 -3.46682 0.265859 0
M  V30 2573 H 246.409 -3.86101 1.03761 0
M  V30 2574 H 247.849 -4.23942 0.0701128 0
M  V30 2575 C 246.308 -3.21506 -1.00675 0
M  V30 2576 O 246.838 -3.43408 -2.08408 0
M  V30 2577 N 245.044 -2.75158 -0.934692 0
M  V30 2578 H 244.591 -2.57535 -0.0578604 0
M  V30 2579 H 244.549 -2.58691 -1.7868 0
M  V30 2580 N 248.321 -0.919034 -1.28029 0
M  V30 2581 C 249.569 -0.553838 -1.94363 0
M  V30 2582 C 249.89 0.906357 -1.72656 0
M  V30 2583 O 249.16 1.64143 -1.0693 0
M  V30 2584 H 247.74 -0.201834 -0.719216 0
M  V30 2585 H 250.402 -1.16954 -1.55909 0
M  V30 2586 H 249.498 -0.752758 -3.02886 0
M  V30 2587 N 249.799 1.42003 -0.683588 0
M  V30 2588 C 251.027 2.05746 -0.218182 0
M  V30 2589 C 251.442 1.51396 1.12804 0
M  V30 2590 O 250.799 0.657303 1.70252 0
M  V30 2591 C 250.85 3.61171 -0.154131 0
M  V30 2592 O 250.571 4.13508 -1.44716 0
M  V30 2593 C 252.072 4.42042 0.333713 0
M  V30 2594 H 249.292 0.662888 -0.10402 0
M  V30 2595 H 251.836 1.81987 -0.9328 0
M  V30 2596 H 249.991 3.84012 0.511231 0
M  V30 2597 H 250.405 5.07453 -1.32632 0
M  V30 2598 H 251.879 5.51028 0.327423 0
M  V30 2599 H 252.356 4.17269 1.37053 0
M  V30 2600 H 252.962 4.24239 -0.300222 0
M  V30 2601 N 251.277 0.427512 1.51691 0
M  V30 2602 C 252.526 -0.143679 2.01188 0
M  V30 2603 C 252.839 -1.44642 1.31674 0
M  V30 2604 O 254.045 -2.09997 1.72086 0
M  V30 2605 C 252.501 -0.306602 3.58592 0
M  V30 2606 C 252.109 0.985125 4.37035 0
M  V30 2607 C 253.853 -0.832091 4.16265 0
M  V30 2608 C 251.76 0.788382 5.86122 0
M  V30 2609 H 250.69 -0.0574701 0.751807 0
M  V30 2610 H 253.341 0.555772 1.74881 0
M  V30 2611 H 251.723 -1.06882 3.81303 0
M  V30 2612 H 252.897 1.75492 4.26074 0
M  V30 2613 H 251.212 1.4384 3.90767 0
M  V30 2614 H 253.809 -0.995617 5.25349 0
M  V30 2615 H 254.152 -1.81186 3.74803 0
M  V30 2616 H 254.685 -0.128444 3.97593 0
M  V30 2617 H 251.424 1.74025 6.31978 0
M  V30 2618 H 250.944 0.0582143 5.99772 0
M  V30 2619 H 252.623 0.437722 6.45518 0
M  V30 2620 N 252.755 -1.56801 0.158532 0
M  V30 2621 C 253.98 -2.01295 -0.499516 0
M  V30 2622 C 254.405 -1.03799 -1.56867 0
M  V30 2623 O 253.763 -0.0155162 -1.81293 0
M  V30 2624 C 253.811 -3.44469 -1.06647 0
M  V30 2625 O 252.915 -3.50012 -2.18095 0
M  V30 2626 H 252.256 -0.652884 -0.12099 0
M  V30 2627 H 254.786 -2.02958 0.258661 0
M  V30 2628 H 254.796 -3.8351 -1.39227 0
M  V30 2629 H 253.471 -4.14932 -0.283581 0
M  V30 2630 H 252.048 -3.22822 -1.86656 0
M  V30 2631 N 254.233 0.115231 -1.57178 0
M  V30 2632 C 255.196 1.12526 -1.99676 0
M  V30 2633 C 256.196 1.34095 -0.88742 0
M  V30 2634 O 257.386 1.30548 -1.15337 0
M  V30 2635 C 254.518 2.4789 -2.34015 0
M  V30 2636 H 255.711 0.759912 -2.90113 0
M  V30 2637 H 253.264 0.359648 -1.52106 0
M  V30 2638 H 253.999 2.89339 -1.4647 0
M  V30 2639 H 253.784 2.33588 -3.14927 0
M  V30 2640 H 255.274 3.20575 -2.67622 0
M  V30 2641 N 255.711 1.52812 0.385517 0
M  V30 2642 C 256.644 1.72592 1.49289 0
M  V30 2643 C 257.622 0.573819 1.52138 0
M  V30 2644 O 258.806 0.80404 1.70492 0
M  V30 2645 C 255.933 1.78669 2.87741 0
M  V30 2646 C 254.979 3.00455 3.02703 0
M  V30 2647 S 255.812 4.60366 2.73538 0
M  V30 2648 C 256.968 4.69263 4.14177 0
M  V30 2649 H 257.201 2.66248 1.32285 0
M  V30 2650 H 254.734 1.43148 0.578611 0
M  V30 2651 H 256.692 1.82855 3.67524 0
M  V30 2652 H 255.353 0.861 3.02069 0
M  V30 2653 H 254.546 3.01258 4.04054 0
M  V30 2654 H 254.148 2.94278 2.30817 0
M  V30 2655 H 256.44 4.48092 5.08153 0
M  V30 2656 H 257.383 5.71276 4.18388 0
M  V30 2657 H 257.791 3.98072 4.00249 0
M  V30 2658 N 257.189 -0.644168 1.43834 0
M  V30 2659 C 258.119 -1.76814 1.52509 0
M  V30 2660 C 259.1 -1.65823 0.379052 0
M  V30 2661 O 260.285 -1.84781 0.597466 0
M  V30 2662 C 257.415 -3.15288 1.4564 0
M  V30 2663 C 256.369 -3.41053 2.58586 0
M  V30 2664 C 255.695 -4.79421 2.36769 0
M  V30 2665 C 256.995 -3.34902 4.00797 0
M  V30 2666 H 258.689 -1.69812 2.46586 0
M  V30 2667 H 256.235 -0.815542 1.1868 0
M  V30 2668 H 258.188 -3.93681 1.50311 0
M  V30 2669 H 256.912 -3.23043 0.480725 0
M  V30 2670 H 255.571 -2.65035 2.53282 0
M  V30 2671 H 255.219 -4.83863 1.37424 0
M  V30 2672 H 254.919 -4.9762 3.12487 0
M  V30 2673 H 256.443 -5.6006 2.43238 0
M  V30 2674 H 257.857 -4.03218 4.07539 0
M  V30 2675 H 256.254 -3.64637 4.76613 0
M  V30 2676 H 257.324 -2.32928 4.25291 0
M  V30 2677 N 258.668 -1.30515 -0.883378 0
M  V30 2678 C 259.916 -1.19194 -1.63209 0
M  V30 2679 C 260.237 0.253205 -1.93349 0
M  V30 2680 O 259.507 1.17025 -1.57105 0
M  V30 2681 H 258.087 -0.438148 -0.605009 0
M  V30 2682 H 260.749 -1.63663 -1.05832 0
M  V30 2683 H 259.845 -1.75396 -2.58153 0
M  V30 2684 N 260.146 1.09593 -1.13257 0
M  V30 2685 C 261.394 1.81375 -0.891492 0
M  V30 2686 C 261.715 1.86049 0.584009 0
M  V30 2687 O 260.985 1.34481 1.42449 0
M  V30 2688 H 259.565 0.671708 -0.326828 0
M  V30 2689 H 262.227 1.3256 -1.42877 0
M  V30 2690 H 261.323 2.84612 -1.28071 0
M  V30 2691 N 261.624 0.925811 1.2754 0
M  V30 2692 C 262.87 0.566092 1.94739 0
M  V30 2693 C 263.203 -0.890057 1.72603 0
M  V30 2694 O 262.478 -1.63467 1.05399 0
M  V30 2695 C 262.761 0.89054 3.48915 0
M  V30 2696 C 262.614 2.4003 3.80402 0
M  V30 2697 C 263.933 0.395101 4.38323 0
M  V30 2698 H 261.052 0.20714 0.707292 0
M  V30 2699 H 263.694 1.15725 1.50691 0
M  V30 2700 H 261.844 0.387452 3.86563 0
M  V30 2701 H 263.516 2.97494 3.52555 0
M  V30 2702 H 261.759 2.85028 3.2702 0
M  V30 2703 H 262.43 2.57785 4.8811 0
M  V30 2704 H 264.906 0.826241 4.07814 0
M  V30 2705 H 263.782 0.651086 5.45025 0
M  V30 2706 H 264.043 -0.704798 4.36446 0
M  V30 2707 N 263.102 -1.41638 0.69111 0
M  V30 2708 C 264.35 -2.00902 0.219758 0
M  V30 2709 C 264.671 -1.54994 -1.18329 0
M  V30 2710 O 263.941 -0.778628 -1.79762 0
M  V30 2711 H 262.521 -0.74289 0.0782558 0
M  V30 2712 H 265.183 -1.73327 0.891271 0
M  V30 2713 H 264.279 -3.11224 0.233708 0
M  V30 2714 N 264.58 -0.43555 -1.51462 0
M  V30 2715 C 265.805 0.132627 -2.06976 0
M  V30 2716 C 266.23 1.35848 -1.30104 0
M  V30 2717 O 265.588 1.78112 -0.338493 0
M  V30 2718 C 265.636 0.43523 -3.57964 0
M  V30 2719 O 264.74 1.52198 -3.83288 0
M  V30 2720 H 264.081 0.00265 -0.663995 0
M  V30 2721 H 266.611 -0.616369 -1.95095 0
M  V30 2722 H 266.621 0.686206 -4.02188 0
M  V30 2723 H 265.296 -0.460739 -4.1334 0
M  V30 2724 H 263.873 1.2611 -3.50928 0
M  V30 2725 N 266.058 1.56714 -0.166846 0
M  V30 2726 C 267.306 1.96358 0.478305 0
M  V30 2727 C 267.627 1.0537 1.6408 0
M  V30 2728 O 266.897 0.119154 1.95537 0
M  V30 2729 H 265.477 0.725065 0.179692 0
M  V30 2730 H 268.139 1.93329 -0.246985 0
M  V30 2731 H 267.235 3.00547 0.841292 0
M  V30 2732 N 267.536 -0.106894 1.57237 0
M  V30 2733 C 268.466 -1.13148 2.04254 0
M  V30 2734 C 269.447 -1.42476 0.929224 0
M  V30 2735 O 270.632 -1.52709 1.19973 0
M  V30 2736 C 267.762 -2.4545 2.45706 0
M  V30 2737 C 266.716 -2.30558 3.60592 0
M  V30 2738 C 266.042 -3.67931 3.87983 0
M  V30 2739 C 267.342 -1.75597 4.91897 0
M  V30 2740 H 269.036 -0.740374 2.90101 0
M  V30 2741 H 266.582 -0.354696 1.39563 0
M  V30 2742 H 268.535 -3.17389 2.77205 0
M  V30 2743 H 267.259 -2.86475 1.56843 0
M  V30 2744 H 265.918 -1.61067 3.29322 0
M  V30 2745 H 265.566 -4.06462 2.96306 0
M  V30 2746 H 265.266 -3.58817 4.65322 0
M  V30 2747 H 266.79 -4.41356 4.21945 0
M  V30 2748 H 268.204 -2.37364 5.21854 0
M  V30 2749 H 266.601 -1.77272 5.73319 0
M  V30 2750 H 267.671 -0.714451 4.79608 0
M  V30 2751 N 269.014 -1.53014 -0.377408 0
M  V30 2752 C 269.946 -1.74884 -1.48149 0
M  V30 2753 C 270.959 -0.629433 -1.5014 0
M  V30 2754 O 272.148 -0.905416 -1.53833 0
M  V30 2755 C 269.248 -1.80299 -2.86959 0
M  V30 2756 C 268.421 -3.09776 -3.08801 0
M  V30 2757 C 267.48 -3.06586 -4.27658 0
M  V30 2758 O 266.506 -3.80419 -4.23403 0
M  V30 2759 N 267.708 -2.26578 -5.34455 0
M  V30 2760 H 270.473 -2.70147 -1.29771 0
M  V30 2761 H 268.034 -1.51646 -0.56703 0
M  V30 2762 H 270.026 -1.75657 -3.64591 0
M  V30 2763 H 268.596 -0.92372 -2.98641 0
M  V30 2764 H 267.816 -3.27815 -2.18931 0
M  V30 2765 H 269.104 -3.95366 -3.20255 0
M  V30 2766 H 268.502 -1.66081 -5.40771 0
M  V30 2767 H 267.059 -2.27766 -6.10709 0
M  V30 2768 N 270.492 0.636531 -1.44174 0
M  V30 2769 C 271.422 1.76003 -1.53444 0
M  V30 2770 C 272.403 1.65619 -0.387841 0
M  V30 2771 O 273.588 1.84461 -0.607257 0
M  V30 2772 C 270.718 3.14511 -1.4731 0
M  V30 2773 C 269.672 3.39677 -2.60391 0
M  V30 2774 C 268.998 4.78159 -2.39308 0
M  V30 2775 C 270.298 3.32772 -4.02567 0
M  V30 2776 H 271.992 1.68501 -2.47483 0
M  V30 2777 H 269.538 0.809237 -1.19111 0
M  V30 2778 H 271.491 3.92878 -1.52397 0
M  V30 2779 H 270.215 3.22783 -0.49785 0
M  V30 2780 H 268.874 2.63688 -2.54684 0
M  V30 2781 H 268.522 4.83128 -1.39988 0
M  V30 2782 H 268.222 4.95956 -3.15122 0
M  V30 2783 H 269.746 5.58762 -2.46205 0
M  V30 2784 H 271.16 4.01051 -4.09672 0
M  V30 2785 H 269.557 3.62104 -4.7854 0
M  V30 2786 H 270.627 2.30669 -4.2652 0
M  V30 2787 N 271.97 1.30982 0.876444 0
M  V30 2788 C 272.918 1.18006 2.00443 0
M  V30 2789 C 273.912 0.0898871 1.69161 0
M  V30 2790 O 275.118 0.251333 1.78237 0
M  V30 2791 H 271.493 0.365196 0.65737 0
M  V30 2792 H 273.464 2.13453 2.0852 0
M  V30 2793 C 272.213 0.897521 3.35916 0
M  V30 2794 H 271.536 1.7285 3.60504 0
M  V30 2795 H 272.976 0.846874 4.15456 0
M  V30 2796 C 271.435 -0.399674 3.34521 0
M  V30 2797 O 271.965 -1.41852 3.7582 0
M  V30 2798 N 270.171 -0.413893 2.87637 0
M  V30 2799 H 269.718 0.41571 2.54224 0
M  V30 2800 H 269.676 -1.28175 2.87086 0
M  V30 2801 N 273.449 -1.08991 1.13837 0
M  V30 2802 C 274.726 -1.77863 0.813876 0
M  V30 2803 C 275.106 -1.99375 -0.693746 0
M  V30 2804 O 274.454 -1.59875 -1.63255 0
M  V30 2805 C 274.664 -3.0986 1.60586 0
M  V30 2806 C 276.012 -3.84493 1.8014 0
M  V30 2807 O 277.036 -3.19624 1.57222 0
M  V30 2808 O 275.895 -5.00957 2.18413 0
M  V30 2809 H 272.989 -0.771589 0.297624 0
M  V30 2810 H 275.535 -1.15507 1.24323 0
M  V30 2811 H 274.307 -2.89715 2.63022 0
M  V30 2812 H 273.93 -3.79942 1.17173 0
M  V30 2813 N 274.927 -0.932562 -1.27047 0
M  V30 2814 C 276.175 -0.574422 -1.93765 0
M  V30 2815 C 276.496 0.887993 -1.73608 0
M  V30 2816 O 275.766 1.62999 -1.08665 0
M  V30 2817 H 274.346 -0.209451 -0.717035 0
M  V30 2818 H 277.008 -1.18601 -1.5466 0
M  V30 2819 H 276.104 -0.784841 -3.02071 0
M  V30 2820 N 276.405 1.4127 -0.698611 0
M  V30 2821 C 277.352 2.30773 -0.0352094 0
M  V30 2822 C 278.322 1.47273 0.768111 0
M  V30 2823 O 279.507 1.76053 0.735524 0
M  V30 2824 C 276.647 3.33346 0.893 0
M  V30 2825 C 275.76 4.31924 0.0809695 0
M  V30 2826 C 274.895 5.21566 1.0071 0
M  V30 2827 C 273.934 6.11811 0.188155 0
M  V30 2828 N 273.071 6.93926 1.06825 0
M  V30 2829 H 277.911 2.86943 -0.804207 0
M  V30 2830 H 275.448 1.4132 -0.408294 0
M  V30 2831 H 277.406 3.91368 1.44523 0
M  V30 2832 H 276.036 2.78719 1.62836 0
M  V30 2833 H 275.088 3.75825 -0.588224 0
M  V30 2834 H 276.4 4.95716 -0.553801 0
M  V30 2835 H 275.554 5.84437 1.62845 0
M  V30 2836 H 274.293 4.58008 1.67572 0
M  V30 2837 H 273.298 5.47986 -0.446254 0
M  V30 2838 H 274.523 6.77425 -0.476716 0
M  V30 2839 H 272.469 6.32973 1.72283 0
M  V30 2840 H 272.386 7.54416 0.489123 0
M  V30 2841 H 273.654 7.61262 1.67632 0
M  V30 2842 N 277.883 0.443576 1.51229 0
M  V30 2843 C 278.813 -0.355142 2.30783 0
M  V30 2844 C 279.794 -1.0154 1.36468 0
M  V30 2845 O 280.979 -1.01785 1.65389 0
M  V30 2846 C 278.109 -1.45312 3.15439 0
M  V30 2847 C 277.063 -0.916002 4.18083 0
M  V30 2848 C 276.389 -2.1102 4.91299 0
M  V30 2849 C 277.689 0.0538602 5.22272 0
M  V30 2850 H 279.383 0.308767 2.97804 0
M  V30 2851 H 276.929 0.149937 1.43217 0
M  V30 2852 H 278.882 -2.01914 3.69876 0
M  V30 2853 H 277.606 -2.14541 2.46252 0
M  V30 2854 H 276.265 -0.372145 3.64706 0
M  V30 2855 H 275.913 -2.78882 4.18609 0
M  V30 2856 H 275.613 -1.75717 5.60712 0
M  V30 2857 H 277.137 -2.68164 5.48562 0
M  V30 2858 H 278.551 -0.422069 5.71744 0
M  V30 2859 H 276.948 0.319776 5.99247 0
M  V30 2860 H 278.018 0.98858 4.74716 0
M  V30 2861 N 279.361 -1.56624 0.175154 0
M  V30 2862 C 280.607 -1.9729 -0.469506 0
M  V30 2863 C 280.94 -1.06128 -1.62636 0
M  V30 2864 O 280.215 -0.109183 -1.94193 0
M  V30 2865 C 280.498 -3.47375 -0.948804 0
M  V30 2866 C 280.351 -4.49317 0.208491 0
M  V30 2867 C 281.67 -4.00652 -1.82116 0
M  V30 2868 H 278.789 -0.717317 -0.16919 0
M  V30 2869 H 281.431 -1.88184 0.262062 0
M  V30 2870 H 279.581 -3.55267 -1.57219 0
M  V30 2871 H 281.253 -4.53482 0.845682 0
M  V30 2872 H 279.496 -4.25121 0.863395 0
M  V30 2873 H 280.167 -5.51741 -0.169059 0
M  V30 2874 H 282.643 -3.95416 -1.2956 0
M  V30 2875 H 281.519 -5.06075 -2.12554 0
M  V30 2876 H 281.78 -3.44699 -2.7683 0
M  V30 2877 N 280.839 0.0985539 -1.57292 0
M  V30 2878 C 282.086 0.802678 -1.85912 0
M  V30 2879 C 282.414 1.78901 -0.763186 0
M  V30 2880 O 281.669 1.94178 0.243559 0
M  V30 2881 C 281.968 1.56927 -3.21105 0
M  V30 2882 C 281.634 0.725376 -4.45027 0
M  V30 2883 C 280.296 0.492726 -4.78671 0
M  V30 2884 C 282.648 0.138493 -5.21016 0
M  V30 2885 C 279.976 -0.336727 -5.85733 0
M  V30 2886 C 282.328 -0.678264 -6.28953 0
M  V30 2887 C 280.992 -0.921039 -6.61115 0
M  V30 2888 H 280.262 0.293721 -0.680301 0
M  V30 2889 H 282.909 0.0642841 -1.91392 0
M  V30 2890 H 281.214 2.37914 -3.11294 0
M  V30 2891 H 282.911 2.11841 -3.40477 0
M  V30 2892 H 279.501 0.916815 -4.18679 0
M  V30 2893 H 283.685 0.305404 -4.95359 0
M  V30 2894 H 278.941 -0.533836 -6.09065 0
M  V30 2895 H 283.115 -1.1399 -6.87007 0
M  V30 2896 H 280.742 -1.56556 -7.43905 0
M  V30 2897 N 282.317 1.53212 0.369288 0
M  V30 2898 C 283.728 1.60943 0.946276 0
M  V30 2899 C 284.079 0.47452 1.90375 0
M  V30 2900 O 283.204 -0.399597 2.12679 0
M  V30 2901 C 283.799 2.91715 1.72302 0
M  V30 2902 C 282.358 3.01792 2.24941 0
M  V30 2903 C 281.505 2.56211 1.06072 0
M  V30 2904 H 284.456 1.58007 0.148198 0
M  V30 2905 H 284.477 2.79309 2.58393 0
M  V30 2906 H 283.989 3.74295 1.0259 0
M  V30 2907 H 282.09 2.23791 2.97906 0
M  V30 2908 H 282.203 4.06803 2.53077 0
M  V30 2909 H 280.567 2.10998 1.4266 0
M  V30 2910 H 281.35 3.41206 0.378639 0
M  V30 2911 N 283.795 -0.628877 1.44509 0
M  V30 2912 C 285.041 -1.39045 1.47629 0
M  V30 2913 C 285.374 -1.93892 0.109343 0
M  V30 2914 O 284.649 -1.7379 -0.87334 0
M  V30 2915 C 284.932 -2.55408 2.53848 0
M  V30 2916 C 284.785 -2.05896 3.99909 0
M  V30 2917 C 286.104 -3.5759 2.56549 0
M  V30 2918 H 283.223 -0.504232 0.537512 0
M  V30 2919 H 285.865 -0.710854 1.76201 0
M  V30 2920 H 284.015 -3.13384 2.29615 0
M  V30 2921 H 285.687 -1.52734 4.35282 0
M  V30 2922 H 283.93 -1.37061 4.11578 0
M  V30 2923 H 284.601 -2.89681 4.69882 0
M  V30 2924 H 287.077 -3.09419 2.78207 0
M  V30 2925 H 285.953 -4.36527 3.32769 0
M  V30 2926 H 286.214 -4.11808 1.60832 0
M  V30 2927 N 285.273 -1.31445 -0.869486 0
M  V30 2928 C 286.205 -1.14955 -1.98287 0
M  V30 2929 C 287.218 -0.0885037 -1.62559 0
M  V30 2930 O 288.407 -0.336044 -1.75308 0
M  V30 2931 C 285.507 -0.734255 -3.3085 0
M  V30 2932 C 284.68 -1.88042 -3.94917 0
M  V30 2933 C 283.739 -1.4511 -5.05796 0
M  V30 2934 O 282.765 -2.16082 -5.2659 0
M  V30 2935 N 283.967 -0.338763 -5.79511 0
M  V30 2936 H 286.732 -2.10856 -2.12979 0
M  V30 2937 H 284.293 -1.23786 -1.04349 0
M  V30 2938 H 286.285 -0.42975 -4.02412 0
M  V30 2939 H 284.855 0.133158 -3.12316 0
M  V30 2940 H 284.075 -2.35222 -3.1633 0
M  V30 2941 H 285.363 -2.6481 -4.34457 0
M  V30 2942 H 284.761 0.252274 -5.65137 0
M  V30 2943 H 283.318 -0.0937925 -6.51733 0
M  V30 2944 N 286.751 1.08385 -1.14413 0
M  V30 2945 C 287.684 2.14642 -0.774871 0
M  V30 2946 C 288.662 1.60761 0.243876 0
M  V30 2947 O 289.846 1.88031 0.132883 0
M  V30 2948 C 286.973 3.38366 -0.150491 0
M  V30 2949 C 286.019 4.10997 -1.13945 0
M  V30 2950 S 286.852 4.63797 -2.67679 0
M  V30 2951 C 288.008 5.90808 -2.06631 0
M  V30 2952 H 288.241 2.45633 -1.67487 0
M  V30 2953 H 285.774 1.20498 -0.96538 0
M  V30 2954 H 287.732 4.09996 0.203334 0
M  V30 2955 H 286.393 3.05572 0.72694 0
M  V30 2956 H 285.586 4.99783 -0.65059 0
M  V30 2957 H 285.188 3.4528 -1.43727 0
M  V30 2958 H 287.48 6.62411 -1.4219 0
M  V30 2959 H 288.423 6.4439 -2.93542 0
M  V30 2960 H 288.831 5.4383 -1.51357 0
M  V30 2961 N 288.23 0.939286 1.26551 0
M  V30 2962 C 289.476 0.586715 1.94128 0
M  V30 2963 C 289.809 -0.8717 1.73537 0
M  V30 2964 O 289.084 -1.62339 1.07127 0
M  V30 2965 C 289.367 0.927497 3.4795 0
M  V30 2966 C 289.22 2.44052 3.77834 0
M  V30 2967 C 290.539 0.441569 4.37879 0
M  V30 2968 H 287.658 0.21463 0.705055 0
M  V30 2969 H 290.3 1.17316 1.49455 0
M  V30 2970 H 288.45 0.428431 3.8613 0
M  V30 2971 H 290.122 3.01216 3.4938 0
M  V30 2972 H 288.365 2.8848 3.23978 0
M  V30 2973 H 289.036 2.62947 4.85348 0
M  V30 2974 H 291.512 0.869448 4.06915 0
M  V30 2975 H 290.388 0.708856 5.44304 0
M  V30 2976 H 290.649 -0.658467 4.37169 0
M  V30 2977 N 289.708 -1.40897 0.706093 0
M  V30 2978 C 291.124 -1.55042 0.37869 0
M  V30 2979 C 291.324 -1.67944 -1.11342 0
M  V30 2980 O 290.38 -1.66372 -1.89938 0
M  V30 2981 C 291.693 -2.78398 1.13643 0
M  V30 2982 C 293.241 -2.92206 1.12181 0
M  V30 2983 C 293.716 -4.18463 1.86152 0
M  V30 2984 N 295.207 -4.25443 1.83173 0
M  V30 2985 C 295.942 -5.2202 2.37239 0
M  V30 2986 N 295.438 -6.24563 2.99821 0
M  V30 2987 N 297.231 -5.14033 2.27435 0
M  V30 2988 H 289.382 -1.30769 1.67372 0
M  V30 2989 H 291.645 -0.631653 0.706907 0
M  V30 2990 H 291.351 -2.7511 2.19106 0
M  V30 2991 H 291.225 -3.70228 0.721853 0
M  V30 2992 H 293.612 -2.95004 0.0754171 0
M  V30 2993 H 293.693 -2.01521 1.57554 0
M  V30 2994 H 293.337 -4.16427 2.90776 0
M  V30 2995 H 293.267 -5.08141 1.38206 0
M  V30 2996 H 295.758 -3.51976 1.37556 0
M  V30 2997 H 296.071 -6.94665 3.38616 0
M  V30 2998 H 294.416 -6.25035 3.03902 0
M  V30 2999 H 297.607 -4.3285 1.78208 0
M  V30 3000 H 297.78 -5.89129 2.69873 0
M  V30 3001 N 291.186 -0.45159 -1.50991 0
M  V30 3002 C 292.414 0.108334 -2.06616 0
M  V30 3003 C 292.829 1.35224 -1.31757 0
M  V30 3004 O 292.186 1.78475 -0.381174 0
M  V30 3005 C 292.237 0.41619 -3.59096 0
M  V30 3006 O 291.958 -0.778361 -4.3113 0
M  V30 3007 C 293.459 1.02523 -4.31282 0
M  V30 3008 H 290.679 0.00159995 -0.670998 0
M  V30 3009 H 293.223 -0.634771 -1.94399 0
M  V30 3010 H 291.378 1.10921 -3.71181 0
M  V30 3011 H 291.792 -0.511181 -5.22003 0
M  V30 3012 H 293.266 1.19053 -5.39009 0
M  V30 3013 H 293.743 2.01013 -3.905 0
M  V30 3014 H 294.349 0.371173 -4.23677 0
M  V30 3015 N 292.664 1.56529 -0.183458 0
M  V30 3016 C 293.611 2.18546 0.742055 0
M  V30 3017 C 294.581 1.12912 1.2182 0
M  V30 3018 O 295.766 1.41115 1.28418 0
M  V30 3019 C 292.906 2.83977 1.96089 0
M  V30 3020 C 292.019 4.04105 1.52719 0
M  V30 3021 C 291.154 4.57427 2.70063 0
M  V30 3022 C 290.193 5.69938 2.23243 0
M  V30 3023 N 289.33 6.17717 3.33722 0
M  V30 3024 H 294.17 2.97284 0.206432 0
M  V30 3025 H 291.707 1.46823 0.0901571 0
M  V30 3026 H 293.665 3.20077 2.67594 0
M  V30 3027 H 292.295 2.07822 2.47002 0
M  V30 3028 H 291.347 3.73745 0.708436 0
M  V30 3029 H 292.659 4.85513 1.1436 0
M  V30 3030 H 291.813 4.95772 3.49708 0
M  V30 3031 H 290.552 3.75101 3.11689 0
M  V30 3032 H 289.557 5.31133 1.42048 0
M  V30 3033 H 290.782 6.54073 1.82661 0
M  V30 3034 H 288.728 5.38317 3.74902 0
M  V30 3035 H 288.645 6.94146 2.99495 0
M  V30 3036 H 289.913 6.60713 4.13616 0
M  V30 3037 N 294.142 -0.090211 1.57342 0
M  V30 3038 C 295.09 -1.12792 2.03422 0
M  V30 3039 C 296.084 -1.41182 0.936166 0
M  V30 3040 O 297.29 -1.40805 1.12133 0
M  V30 3041 H 293.665 -0.380986 0.648347 0
M  V30 3042 H 295.636 -0.71299 2.89757 0
M  V30 3043 C 294.385 -2.43855 2.47851 0
M  V30 3044 H 293.708 -2.22855 3.31927 0
M  V30 3045 H 295.148 -3.14955 2.83865 0
M  V30 3046 C 293.607 -3.08503 1.3538 0
M  V30 3047 O 294.137 -3.95805 0.685641 0
M  V30 3048 N 292.343 -2.68831 1.10355 0
M  V30 3049 H 291.89 -1.97929 1.64869 0
M  V30 3050 H 291.848 -3.12412 0.353031 0
M  V30 3051 N 295.62 -1.53406 -0.361157 0
M  V30 3052 C 296.869 -1.69022 -1.10066 0
M  V30 3053 C 297.182 -0.450838 -1.90333 0
M  V30 3054 O 298.388 -0.487617 -2.67085 0
M  V30 3055 C 296.844 -2.98812 -2.00598 0
M  V30 3056 C 296.452 -4.30027 -1.25621 0
M  V30 3057 C 298.196 -3.23795 -2.74513 0
M  V30 3058 C 296.103 -5.50903 -2.1508 0
M  V30 3059 H 295.033 -0.629776 -0.414606 0
M  V30 3060 H 297.684 -1.79907 -0.361348 0
M  V30 3061 H 296.066 -2.8174 -2.78278 0
M  V30 3062 H 297.24 -4.57745 -0.529739 0
M  V30 3063 H 295.555 -4.11522 -0.635496 0
M  V30 3064 H 298.152 -4.11289 -3.41681 0
M  V30 3065 H 298.495 -2.40045 -3.40123 0
M  V30 3066 H 299.028 -3.41561 -2.03914 0
M  V30 3067 H 295.767 -6.37143 -1.54041 0
M  V30 3068 H 295.287 -5.27459 -2.85565 0
M  V30 3069 H 296.966 -5.85865 -2.74538 0
M  V30 3070 N 297.098 0.621204 -1.44841 0
M  V30 3071 C 298.326 1.40752 -1.51646 0
M  V30 3072 C 298.741 1.88246 -0.144549 0
M  V30 3073 O 298.098 1.61422 0.851416 0
M  V30 3074 C 298.149 2.62119 -2.4895 0
M  V30 3075 O 297.87 2.16602 -3.80808 0
M  V30 3076 C 299.371 3.55135 -2.65319 0
M  V30 3077 H 296.591 0.431325 -0.514004 0
M  V30 3078 H 299.135 0.758835 -1.899 0
M  V30 3079 H 297.29 3.23058 -2.13805 0
M  V30 3080 H 297.704 2.95358 -4.33433 0
M  V30 3081 H 299.178 4.36874 -3.37409 0
M  V30 3082 H 299.655 4.04592 -1.70886 0
M  V30 3083 H 300.261 3.00058 -3.01405 0
M  V30 3084 N 298.576 1.31904 0.862503 0
M  V30 3085 C 299.804 1.24998 1.64873 0
M  V30 3086 C 300.219 -0.183425 1.87907 0
M  V30 3087 O 299.576 -1.11794 1.44251 0
M  V30 3088 C 299.627 1.99829 3.01248 0
M  V30 3089 O 299.348 3.37575 2.79239 0
M  V30 3090 C 300.849 1.99852 3.95694 0
M  V30 3091 H 298.069 0.431599 0.513773 0
M  V30 3092 H 300.613 1.73901 1.07604 0
M  V30 3093 H 298.768 1.54668 3.55185 0
M  V30 3094 H 299.182 3.75776 3.65914 0
M  V30 3095 H 300.656 2.56709 4.88676 0
M  V30 3096 H 301.133 0.982852 4.28062 0
M  V30 3097 H 301.739 2.44926 3.47694 0
M  V30 3098 N 300.054 -1.07777 1.14986 0
M  V30 3099 C 301.3 -1.80557 0.923422 0
M  V30 3100 C 301.633 -1.86298 -0.548337 0
M  V30 3101 O 300.908 -1.34354 -1.40639 0
M  V30 3102 C 301.191 -3.25839 1.53299 0
M  V30 3103 C 301.044 -3.28269 3.07505 0
M  V30 3104 C 302.363 -4.22991 1.21518 0
M  V30 3105 H 299.482 -0.655493 0.336894 0
M  V30 3106 H 302.124 -1.26144 1.42083 0
M  V30 3107 H 300.274 -3.72306 1.10999 0
M  V30 3108 H 301.946 -2.90079 3.58681 0
M  V30 3109 H 300.189 -2.67355 3.4162 0
M  V30 3110 H 300.86 -4.30691 3.45266 0
M  V30 3111 H 303.336 -3.84894 1.581 0
M  V30 3112 H 302.212 -5.22945 1.66793 0
M  V30 3113 H 302.473 -4.41904 0.131505 0
M  V30 3114 N 301.532 -0.945985 -1.26051 0
M  V30 3115 C 302.462 -0.477172 -2.28572 0
M  V30 3116 C 303.443 0.472032 -1.63419 0
M  V30 3117 O 304.628 0.372853 -1.90587 0
M  V30 3118 C 301.758 0.253975 -3.4637 0
M  V30 3119 C 300.712 -0.609135 -4.23643 0
M  V30 3120 C 300.038 0.252252 -5.34105 0
M  V30 3121 C 301.338 -1.8829 -4.8718 0
M  V30 3122 H 303.032 -1.33402 -2.68038 0
M  V30 3123 H 300.578 -0.642904 -1.28852 0
M  V30 3124 H 302.531 0.593016 -4.17207 0
M  V30 3125 H 301.255 1.145 -3.05871 0
M  V30 3126 H 299.914 -0.931138 -3.54578 0
M  V30 3127 H 299.562 1.14278 -4.89846 0
M  V30 3128 H 299.262 -0.32188 -5.86718 0
M  V30 3129 H 300.786 0.586454 -6.07777 0
M  V30 3130 H 302.2 -1.61081 -5.50205 0
M  V30 3131 H 300.597 -2.40199 -5.49931 0
M  V30 3132 H 301.667 -2.59134 -4.09851 0
M  V30 3133 N 303.011 1.40521 -0.713556 0
M  V30 3134 C 303.959 2.32549 -0.0485227 0
M  V30 3135 C 304.953 1.51931 0.74922 0
M  V30 3136 O 306.159 1.67745 0.652816 0
M  V30 3137 H 302.534 0.751994 0.00311138 0
M  V30 3138 H 304.505 2.86291 -0.841443 0
M  V30 3139 C 303.254 3.36879 0.860687 0
M  V30 3140 H 302.577 3.98978 0.256246 0
M  V30 3141 H 304.017 4.03772 1.294 0
M  V30 3142 C 302.476 2.72197 1.9852 0
M  V30 3143 O 303.006 2.5837 3.07584 0
M  V30 3144 N 301.212 2.30612 1.76823 0
M  V30 3145 H 300.759 2.42059 0.881217 0
M  V30 3146 H 300.717 1.87672 2.52243 0
M  V30 3147 N 304.489 0.459591 1.5075 0
M  V30 3148 C 305.717 -0.0973749 2.06671 0
M  V30 3149 C 306.132 -1.34524 1.32472 0
M  V30 3150 O 305.489 -1.7827 0.390634 0
M  V30 3151 C 305.54 -0.39714 3.59312 0
M  V30 3152 O 305.261 0.801214 4.30711 0
M  V30 3153 C 306.762 -1.00234 4.31819 0
M  V30 3154 H 303.982 0.00195854 0.670997 0
M  V30 3155 H 306.526 0.645072 1.94059 0
M  V30 3156 H 304.681 -1.08951 3.71764 0
M  V30 3157 H 305.095 0.538857 5.21725 0
M  V30 3158 H 306.569 -1.16193 5.39632 0
M  V30 3159 H 307.046 -1.98939 3.91561 0
M  V30 3160 H 307.652 -0.348699 4.23868 0
M  V30 3161 N 305.967 -1.56429 0.191757 0
M  V30 3162 C 307.192 -2.02309 -0.456706 0
M  V30 3163 C 307.617 -1.07103 -1.5463 0
M  V30 3164 O 306.975 -0.0539677 -1.8122 0
M  V30 3165 C 307.023 -3.46654 -0.993159 0
M  V30 3166 O 306.127 -3.54559 -2.10622 0
M  V30 3167 H 305.468 -0.655303 -0.107114 0
M  V30 3168 H 307.998 -2.02364 0.301653 0
M  V30 3169 H 308.008 -3.86377 -1.31061 0
M  V30 3170 H 306.683 -4.1544 -0.195504 0
M  V30 3171 H 305.26 -3.26708 -1.79767 0
M  V30 3172 N 307.445 0.0818655 -1.57387 0
M  V30 3173 C 308.692 0.782914 -1.86753 0
M  V30 3174 C 309.02 1.78082 -0.782118 0
M  V30 3175 O 308.275 1.94426 0.22295 0
M  V30 3176 C 308.574 1.53513 -3.22752 0
M  V30 3177 C 308.24 0.678134 -4.45771 0
M  V30 3178 C 306.902 0.441929 -4.79166 0
M  V30 3179 C 309.254 0.0832243 -5.21134 0
M  V30 3180 C 306.582 -0.398833 -5.85343 0
M  V30 3181 C 308.934 -0.744935 -6.28199 0
M  V30 3182 C 307.598 -0.991107 -6.60101 0
M  V30 3183 H 306.868 0.286489 -0.683378 0
M  V30 3184 H 309.515 0.0439808 -1.91449 0
M  V30 3185 H 307.82 2.34599 -3.138 0
M  V30 3186 H 309.517 2.08218 -3.42705 0
M  V30 3187 H 306.107 0.872357 -4.19628 0
M  V30 3188 H 310.291 0.252847 -4.95655 0
M  V30 3189 H 305.547 -0.598405 -6.08465 0
M  V30 3190 H 309.721 -1.21271 -6.8576 0
M  V30 3191 H 307.348 -1.64437 -7.42202 0
M  V30 3192 N 308.923 1.53595 0.353017 0
M  V30 3193 C 310.172 1.69603 1.09168 0
M  V30 3194 C 310.485 0.460925 1.90092 0
M  V30 3195 O 311.691 0.501774 2.66823 0
M  V30 3196 C 310.147 2.99872 1.9901 0
M  V30 3197 C 309.755 4.30687 1.23339 0
M  V30 3198 C 311.499 3.25246 2.72792 0
M  V30 3199 C 309.406 5.52036 2.12156 0
M  V30 3200 H 308.336 0.631966 0.411261 0
M  V30 3201 H 310.987 1.80096 0.351802 0
M  V30 3202 H 309.369 2.83212 2.7678 0
M  V30 3203 H 310.543 4.58019 0.505456 0
M  V30 3204 H 308.858 4.11853 0.613663 0
M  V30 3205 H 311.455 4.13095 3.39495 0
M  V30 3206 H 311.798 2.41846 3.38846 0
M  V30 3207 H 312.331 3.42638 2.021 0
M  V30 3208 H 309.07 6.37951 1.50659 0
M  V30 3209 H 308.59 5.28966 2.82764 0
M  V30 3210 H 310.269 5.87313 2.71427 0
M  V30 3211 N 310.401 -0.613514 1.45168 0
M  V30 3212 C 311.631 -1.39743 1.52169 0
M  V30 3213 C 312.039 -1.88596 0.151086 0
M  V30 3214 O 311.382 -1.6251 -0.856521 0
M  V30 3215 C 311.444 -2.64035 2.43979 0
M  V30 3216 C 311.108 -2.36861 3.90827 0
M  V30 3217 C 312.105 -1.97591 4.80889 0
M  V30 3218 C 309.79 -2.49956 4.35692 0
M  V30 3219 C 311.784 -1.71768 6.1382 0
M  V30 3220 C 309.471 -2.23747 5.68665 0
M  V30 3221 C 310.469 -1.84714 6.57548 0
M  V30 3222 O 310.157 -1.58809 7.88058 0
M  V30 3223 H 309.889 -0.434382 0.517966 0
M  V30 3224 H 312.443 -0.75587 1.90986 0
M  V30 3225 H 310.673 -3.3089 2.00122 0
M  V30 3226 H 312.362 -3.26069 2.41731 0
M  V30 3227 H 313.128 -1.87015 4.47493 0
M  V30 3228 H 309.007 -2.79305 3.66756 0
M  V30 3229 H 312.551 -1.41227 6.83155 0
M  V30 3230 H 308.448 -2.33938 6.01617 0
M  V30 3231 H 309.216 -1.7291 8.00028 0
M  V30 3232 N 311.879 -1.3236 -0.855495 0
M  V30 3233 C 313.104 -1.2601 -1.64731 0
M  V30 3234 C 313.529 0.169068 -1.87339 0
M  V30 3235 O 312.887 1.12016 -1.42556 0
M  V30 3236 C 312.935 -2.02417 -2.98429 0
M  V30 3237 O 312.039 -1.3714 -3.8893 0
M  V30 3238 H 311.38 -0.434325 -0.502253 0
M  V30 3239 H 313.91 -1.74661 -1.06558 0
M  V30 3240 H 313.92 -2.12559 -3.48257 0
M  V30 3241 H 312.595 -3.06343 -2.81295 0
M  V30 3242 H 311.172 -1.3554 -3.47395 0
M  V30 3243 N 313.357 1.07166 -1.15556 0
M  V30 3244 C 314.585 1.83514 -0.955519 0
M  V30 3245 C 315 1.82163 0.49621 0
M  V30 3246 O 314.357 1.23441 1.34419 0
M  V30 3247 C 314.408 3.30515 -1.46432 0
M  V30 3248 O 314.129 3.31937 -2.85918 0
M  V30 3249 C 315.63 4.23625 -1.30603 0
M  V30 3250 H 312.85 0.578926 -0.339244 0
M  V30 3251 H 315.394 1.35265 -1.53374 0
M  V30 3252 H 313.549 3.76106 -0.928584 0
M  V30 3253 H 313.963 4.23794 -3.09029 0
M  V30 3254 H 315.437 5.24831 -1.71047 0
M  V30 3255 H 315.914 4.38485 -0.250441 0
M  V30 3256 H 316.52 3.83871 -1.83094 0
M  V30 3257 N 314.835 0.952656 1.25548 0
M  V30 3258 C 316.112 0.523818 1.88456 0
M  V30 3259 C 316.492 -0.998871 1.85973 0
M  V30 3260 O 315.84 -1.86381 1.3219 0
M  V30 3261 C 316.05 1.0982 3.31271 0
M  V30 3262 C 317.398 1.17385 4.08051 0
M  V30 3263 O 318.422 1.04961 3.40384 0
M  V30 3264 O 317.281 1.36852 5.29088 0
M  V30 3265 H 314.375 0.172485 0.808813 0
M  V30 3266 H 316.921 1.04596 1.33633 0
M  V30 3267 H 315.693 2.1415 3.27499 0
M  V30 3268 H 315.316 0.559191 3.93648 0
M  V30 3269 N 316.313 -1.40141 0.720998 0
M  V30 3270 C 317.561 -2.0039 0.262323 0
M  V30 3271 C 317.882 -1.57469 -1.15015 0
M  V30 3272 O 317.152 -0.816582 -1.78069 0
M  V30 3273 H 315.732 -0.741063 0.093996 0
M  V30 3274 H 318.394 -1.71398 0.927835 0
M  V30 3275 H 317.49 -3.10658 0.299671 0
M  V30 3276 N 317.792 -0.46758 -1.50504 0
M  V30 3277 C 319.041 0.0902868 -2.01498 0
M  V30 3278 C 319.354 1.411 -1.35463 0
M  V30 3279 O 320.56 2.0536 -1.77594 0
M  V30 3280 C 319.016 0.21142 -3.59278 0
M  V30 3281 C 318.624 -1.10065 -4.34269 0
M  V30 3282 C 320.368 0.721433 -4.18325 0
M  V30 3283 C 318.275 -0.943505 -5.83825 0
M  V30 3284 H 317.205 0.037517 -0.753066 0
M  V30 3285 H 319.856 -0.601943 -1.73346 0
M  V30 3286 H 318.238 0.967352 -3.84003 0
M  V30 3287 H 319.412 -1.86726 -4.21272 0
M  V30 3288 H 317.727 -1.5415 -3.86816 0
M  V30 3289 H 320.324 0.85598 -5.27804 0
M  V30 3290 H 320.667 1.71186 -3.79475 0
M  V30 3291 H 321.2 0.0229843 -3.97793 0
M  V30 3292 H 317.939 -1.90719 -6.27141 0
M  V30 3293 H 317.459 -0.217213 -5.99407 0
M  V30 3294 H 319.138 -0.608715 -6.4413 0
M  V30 3295 N 319.27 1.56325 -0.20005 0
M  V30 3296 C 320.498 2.02105 0.442874 0
M  V30 3297 C 320.913 1.08014 1.5485 0
M  V30 3298 O 320.27 0.0858797 1.82298 0
M  V30 3299 C 320.321 3.47549 0.994583 0
M  V30 3300 O 320.042 4.38049 -0.0669322 0
M  V30 3301 C 321.543 4.0887 1.7129 0
M  V30 3302 H 318.763 0.661807 0.110691 0
M  V30 3303 H 321.307 2.02134 -0.310207 0
M  V30 3304 H 319.462 3.48204 1.69803 0
M  V30 3305 H 319.876 5.23368 0.344462 0
M  V30 3306 H 321.35 5.12475 2.05118 0
M  V30 3307 H 321.827 3.52615 2.61838 0
M  V30 3308 H 322.433 4.12002 1.05518 0
M  V30 3309 N 320.748 -0.0735177 1.57428 0
M  V30 3310 C 321.994 -0.768909 1.88307 0
M  V30 3311 C 322.349 -1.75273 0.793535 0
M  V30 3312 O 321.642 -1.90527 -0.202466 0
M  V30 3313 C 321.836 -1.51799 3.23561 0
M  V30 3314 C 321.665 -0.608217 4.45568 0
M  V30 3315 C 320.435 -0.245808 5.04702 0
M  V30 3316 C 322.633 0.0942904 5.14214 0
M  V30 3317 N 320.615 0.66987 6.10234 0
M  V30 3318 C 321.986 0.867222 6.13905 0
M  V30 3319 C 324.041 0.165943 4.97623 0
M  V30 3320 C 322.744 1.70515 6.98797 0
M  V30 3321 C 324.77 0.990837 5.83041 0
M  V30 3322 C 324.132 1.75182 6.82269 0
M  V30 3323 H 320.231 -0.25685 0.738615 0
M  V30 3324 H 322.815 -0.030499 1.94676 0
M  V30 3325 H 320.986 -2.22713 3.18203 0
M  V30 3326 H 322.718 -2.16226 3.42094 0
M  V30 3327 H 319.473 -0.598284 4.69806 0
M  V30 3328 H 319.897 1.1209 6.67656 0
M  V30 3329 H 324.539 -0.408064 4.20826 0
M  V30 3330 H 322.257 2.29013 7.7497 0
M  V30 3331 H 325.843 1.04923 5.72261 0
M  V30 3332 H 324.723 2.37983 7.47217 0
M  V30 3333 N 322.226 -1.5378 -0.344866 0
M  V30 3334 C 323.451 -1.75211 -1.10977 0
M  V30 3335 C 323.876 -0.48936 -1.81623 0
M  V30 3336 O 323.234 0.557925 -1.72502 0
M  V30 3337 C 323.282 -2.93147 -2.09993 0
M  V30 3338 O 322.386 -2.63203 -3.17487 0
M  V30 3339 H 321.727 -0.581241 -0.321021 0
M  V30 3340 H 324.257 -2.00738 -0.395661 0
M  V30 3341 H 324.267 -3.19898 -2.53237 0
M  V30 3342 H 322.942 -3.84731 -1.5797 0
M  V30 3343 H 321.519 -2.47336 -2.79069 0
M  V30 3344 N 323.704 0.605807 -1.45491 0
M  V30 3345 C 324.634 1.72709 -1.57143 0
M  V30 3346 C 325.615 1.6476 -0.422884 0
M  V30 3347 O 326.8 1.83132 -0.646247 0
M  V30 3348 C 323.93 3.11316 -1.53948 0
M  V30 3349 C 322.884 3.34077 -2.67537 0
M  V30 3350 C 322.21 4.72975 -2.49397 0
M  V30 3351 C 323.51 3.24158 -4.09535 0
M  V30 3352 H 325.204 1.63214 -2.51001 0
M  V30 3353 H 322.75 0.78379 -1.208 0
M  V30 3354 H 324.703 3.89557 -1.60696 0
M  V30 3355 H 323.427 3.21655 -0.566205 0
M  V30 3356 H 322.086 2.58227 -2.6022 0
M  V30 3357 H 321.734 4.8005 -1.50205 0
M  V30 3358 H 321.434 4.8916 -3.25571 0
M  V30 3359 H 322.958 5.53414 -2.58002 0
M  V30 3360 H 324.372 3.92271 -4.18086 0
M  V30 3361 H 322.769 3.51872 -4.86113 0
M  V30 3362 H 323.839 2.2157 -4.31317 0
M  V30 3363 N 325.182 1.32811 0.848464 0
M  V30 3364 C 326.593 1.21315 1.41914 0
M  V30 3365 C 326.944 -0.171847 1.95446 0
M  V30 3366 O 326.069 -1.07093 1.88043 0
M  V30 3367 C 326.664 2.19631 2.57968 0
M  V30 3368 C 325.223 2.12003 3.11017 0
M  V30 3369 C 324.37 2.07651 1.83783 0
M  V30 3370 H 327.321 1.44549 0.655071 0
M  V30 3371 H 327.342 1.79845 3.35315 0
M  V30 3372 H 326.854 3.20423 2.18976 0
M  V30 3373 H 324.955 1.14481 3.54577 0
M  V30 3374 H 325.068 3.02111 3.71841 0
M  V30 3375 H 323.432 1.52983 2.03638 0
M  V30 3376 H 324.215 3.10235 1.47 0
M  V30 3377 N 326.66 -1.06551 1.16123 0
M  V30 3378 C 327.885 -1.83544 0.965735 0
M  V30 3379 C 328.31 -1.81843 -0.481102 0
M  V30 3380 O 327.668 -1.21732 -1.34354 0
M  V30 3381 C 327.716 -3.28169 1.49457 0
M  V30 3382 O 326.82 -4.0643 0.699157 0
M  V30 3383 H 326.161 -0.568026 0.343864 0
M  V30 3384 H 328.691 -1.34362 1.54299 0
M  V30 3385 H 328.701 -3.78992 1.51092 0
M  V30 3386 H 327.376 -3.28722 2.54784 0
M  V30 3387 H 325.953 -3.65216 0.7531 0
M  V30 3388 N 328.138 -0.959301 -1.25041 0
M  V30 3389 C 329.386 -0.615393 -1.92503 0
M  V30 3390 C 329.707 0.850969 -1.75452 0
M  V30 3391 O 328.977 1.60658 -1.12098 0
M  V30 3392 H 327.557 -0.224613 -0.712431 0
M  V30 3393 H 330.219 -1.21855 -1.5211 0
M  V30 3394 H 329.315 -0.848738 -3.00338 0
M  V30 3395 N 329.616 1.39756 -0.72842 0
M  V30 3396 C 330.846 2.04651 -0.283117 0
M  V30 3397 C 331.254 1.5502 1.08469 0
M  V30 3398 O 330.597 0.707343 1.69536 0
M  V30 3399 C 330.659 3.58947 -0.199309 0
M  V30 3400 C 330.323 4.31525 -1.5045 0
M  V30 3401 C 331.32 4.5861 -2.44894 0
M  V30 3402 C 329.005 4.70195 -1.76698 0
M  V30 3403 C 330.999 5.23366 -3.63822 0
M  V30 3404 C 328.686 5.3468 -2.95906 0
M  V30 3405 C 329.684 5.61198 -3.89289 0
M  V30 3406 O 329.372 6.24347 -5.06404 0
M  V30 3407 H 329.104 0.664777 -0.122666 0
M  V30 3408 H 331.658 1.79913 -0.990987 0
M  V30 3409 H 329.888 3.82556 0.56461 0
M  V30 3410 H 331.577 4.0534 0.213125 0
M  V30 3411 H 332.343 4.29187 -2.25883 0
M  V30 3412 H 328.222 4.48916 -1.04859 0
M  V30 3413 H 331.766 5.4398 -4.36728 0
M  V30 3414 H 327.663 5.63524 -3.14819 0
M  V30 3415 H 328.431 6.42842 -5.06652 0
M  V30 3416 N 331.094 0.475555 1.50254 0
M  V30 3417 C 332.334 -0.0765802 2.04256 0
M  V30 3418 C 332.698 -1.36587 1.34937 0
M  V30 3419 O 333.899 -2.00066 1.79519 0
M  V30 3420 C 332.17 -0.251668 3.56513 0
M  V30 3421 S 333.729 -0.761716 4.32138 0
M  V30 3422 H 330.547 -0.0138456 0.710865 0
M  V30 3423 H 333.149 0.643714 1.84598 0
M  V30 3424 H 331.853 0.692404 4.04517 0
M  V30 3425 H 331.384 -0.997946 3.80532 0
M  V30 3426 H 333.399 -2.03451 4.52573 0
M  V30 3427 N 332.573 -1.56217 0.208337 0
M  V30 3428 C 333.483 -2.23316 -0.718836 0
M  V30 3429 C 334.499 -1.23648 -1.22422 0
M  V30 3430 O 335.675 -1.56423 -1.26861 0
M  V30 3431 C 332.74 -2.88968 -1.91568 0
M  V30 3432 C 331.801 -4.03943 -1.45357 0
M  V30 3433 C 331.034 -4.66455 -2.59337 0
M  V30 3434 O 331.257 -4.27919 -3.77149 0
M  V30 3435 O 330.191 -5.55686 -2.31293 0
M  V30 3436 H 334.017 -3.03182 -0.177315 0
M  V30 3437 H 331.602 -1.49384 -0.0215402 0
M  V30 3438 H 333.484 -3.30455 -2.61491 0
M  V30 3439 H 332.159 -2.12071 -2.44556 0
M  V30 3440 H 331.066 -3.67052 -0.722746 0
M  V30 3441 H 332.399 -4.82543 -0.970219 0
M  V30 3442 N 334.051 0.0651679 -1.57465 0
M  V30 3443 C 335.299 0.761555 -1.87202 0
M  V30 3444 C 335.62 1.77778 -0.801243 0
M  V30 3445 O 334.89 1.95166 0.16937 0
M  V30 3446 H 333.47 0.284251 -0.690804 0
M  V30 3447 H 336.132 0.0396827 -1.9486 0
M  V30 3448 H 335.228 1.27365 -2.84929 0
M  V30 3449 N 335.529 1.53961 0.336706 0
M  V30 3450 C 336.776 1.71536 1.07618 0
M  V30 3451 C 337.104 0.482125 1.8843 0
M  V30 3452 O 336.359 -0.536142 1.88213 0
M  V30 3453 C 336.658 2.93493 2.03953 0
M  V30 3454 C 336.324 4.28811 1.39399 0
M  V30 3455 C 334.986 4.65602 1.21523 0
M  V30 3456 C 337.338 5.12844 0.929541 0
M  V30 3457 C 334.666 5.84037 0.558312 0
M  V30 3458 C 337.018 6.31951 0.286505 0
M  V30 3459 C 335.682 6.67432 0.0954869 0
M  V30 3460 H 334.952 0.627696 0.393801 0
M  V30 3461 H 337.599 1.88186 0.354715 0
M  V30 3462 H 335.904 2.71475 2.82504 0
M  V30 3463 H 337.601 3.04285 2.61174 0
M  V30 3464 H 334.191 3.99858 1.54311 0
M  V30 3465 H 338.375 4.84947 1.05548 0
M  V30 3466 H 333.631 6.10097 0.398995 0
M  V30 3467 H 337.805 6.96352 -0.0814376 0
M  V30 3468 H 335.432 7.59063 -0.415579 0
M  V30 3469 N 337.007 -0.598083 1.45811 0
M  V30 3470 C 338.255 -1.35413 1.50026 0
M  V30 3471 C 338.576 -1.94444 0.147177 0
M  V30 3472 O 337.846 -1.77701 -0.824571 0
M  V30 3473 H 336.426 -0.502727 0.552517 0
M  V30 3474 H 339.088 -0.701606 1.81834 0
M  V30 3475 H 338.184 -2.16871 2.2444 0
M  V30 3476 N 338.485 -1.33259 -0.841409 0
M  V30 3477 C 339.71 -1.2775 -1.63385 0
M  V30 3478 C 340.135 0.149188 -1.87507 0
M  V30 3479 O 339.493 1.10498 -1.43736 0
M  V30 3480 C 339.541 -2.05571 -2.96265 0
M  V30 3481 O 338.645 -1.41257 -3.87453 0
M  V30 3482 H 337.986 -0.439627 -0.497618 0
M  V30 3483 H 340.516 -1.75782 -1.04699 0
M  V30 3484 H 340.526 -2.16241 -3.45982 0
M  V30 3485 H 339.201 -3.09309 -2.7803 0
M  V30 3486 H 337.778 -1.39217 -3.45938 0
M  V30 3487 N 339.963 1.05934 -1.16686 0
M  V30 3488 C 340.873 2.17014 -0.891183 0
M  V30 3489 C 341.889 1.73453 0.137907 0
M  V30 3490 O 343.065 2.01361 -0.039592 0
M  V30 3491 C 340.13 3.44384 -0.400099 0
M  V30 3492 C 339.191 4.02433 -1.49486 0
M  V30 3493 C 338.424 5.23723 -1.02711 0
M  V30 3494 O 338.647 5.7027 0.121716 0
M  V30 3495 O 337.581 5.7382 -1.81699 0
M  V30 3496 H 341.407 2.43113 -1.82015 0
M  V30 3497 H 338.992 1.15541 -0.947132 0
M  V30 3498 H 340.874 4.21189 -0.133392 0
M  V30 3499 H 339.549 3.19802 0.500817 0
M  V30 3500 H 338.456 3.27102 -1.81535 0
M  V30 3501 H 339.789 4.31317 -2.37121 0
M  V30 3502 N 341.441 0.965919 1.2453 0
M  V30 3503 C 342.389 0.486506 2.27455 0
M  V30 3504 C 343.383 -0.449041 1.6334 0
M  V30 3505 O 344.589 -0.324527 1.7705 0
M  V30 3506 H 340.964 0.138857 0.739069 0
M  V30 3507 H 342.935 1.3666 2.65267 0
M  V30 3508 C 341.684 -0.209481 3.47068 0
M  V30 3509 H 341.007 0.50129 3.96645 0
M  V30 3510 H 342.447 -0.508775 4.20936 0
M  V30 3511 C 340.906 -1.43586 3.0477 0
M  V30 3512 O 341.436 -2.53299 3.11773 0
M  V30 3513 N 339.642 -1.30126 2.59838 0
M  V30 3514 H 339.189 -0.408583 2.54339 0
M  V30 3515 H 339.147 -2.12294 2.31902 0
M  V30 3516 N 342.919 -1.39368 0.735821 0
M  V30 3517 C 343.867 -2.32443 0.0855131 0
M  V30 3518 C 344.861 -1.53104 -0.724954 0
M  V30 3519 O 346.067 -1.68762 -0.626047 0
M  V30 3520 H 342.442 -0.751948 0.00885257 0
M  V30 3521 H 344.413 -2.84916 0.886883 0
M  V30 3522 C 343.162 -3.38206 -0.806983 0
M  V30 3523 H 342.485 -3.99335 -0.19274 0
M  V30 3524 H 343.925 -4.05779 -1.2296 0
M  V30 3525 C 342.384 -2.75321 -1.94165 0
M  V30 3526 O 342.914 -2.63231 -3.03435 0
M  V30 3527 N 341.12 -2.33396 -1.73132 0
M  V30 3528 H 340.667 -2.4343 -0.842596 0
M  V30 3529 H 340.625 -1.91661 -2.49225 0
M  V30 3530 N 344.397 -0.483516 -1.5 0
M  V30 3531 C 345.646 0.0689102 -2.01582 0
M  V30 3532 C 345.959 1.39655 -1.36952 0
M  V30 3533 O 347.165 2.03465 -1.79762 0
M  V30 3534 C 345.621 0.173302 -3.59483 0
M  V30 3535 C 345.229 -1.14665 -4.33077 0
M  V30 3536 C 346.973 0.677024 -4.19066 0
M  V30 3537 C 344.88 -1.00537 -5.82792 0
M  V30 3538 H 343.81 0.0295277 -0.753422 0
M  V30 3539 H 346.461 -0.620295 -1.72698 0
M  V30 3540 H 344.843 0.926569 -3.85007 0
M  V30 3541 H 346.017 -1.91184 -4.19268 0
M  V30 3542 H 344.332 -1.58244 -3.85159 0
M  V30 3543 H 346.929 0.799952 -5.28682 0
M  V30 3544 H 347.272 1.67151 -3.81269 0
M  V30 3545 H 347.805 -0.0192083 -3.97795 0
M  V30 3546 H 344.544 -1.9736 -6.25083 0
M  V30 3547 H 344.064 -0.280776 -5.99142 0
M  V30 3548 H 345.743 -0.677 -6.43448 0
M  V30 3549 N 345.875 1.56104 -0.216619 0
M  V30 3550 C 347.124 1.97348 0.416744 0
M  V30 3551 C 347.437 1.10715 1.6125 0
M  V30 3552 O 348.643 1.41836 2.31506 0
M  V30 3553 C 347.099 3.51059 0.792835 0
M  V30 3554 C 346.707 4.46387 -0.379828 0
M  V30 3555 C 348.451 4.01026 1.39208 0
M  V30 3556 C 346.358 5.91397 0.0184223 0
M  V30 3557 H 345.288 0.736942 0.159475 0
M  V30 3558 H 347.939 1.80827 -0.31205 0
M  V30 3559 H 346.321 3.63162 1.57891 0
M  V30 3560 H 347.495 4.46029 -1.15737 0
M  V30 3561 H 345.81 4.06734 -0.891979 0
M  V30 3562 H 348.407 5.0686 1.70286 0
M  V30 3563 H 348.75 3.46587 2.30614 0
M  V30 3564 H 349.283 3.92125 0.669537 0
M  V30 3565 H 346.022 6.49807 -0.862002 0
M  V30 3566 H 345.542 5.94961 0.760384 0
M  V30 3567 H 347.221 6.45455 0.446818 0
M  V30 3568 N 347.353 -0.0568162 1.57498 0
M  V30 3569 C 348.263 -1.08346 2.08083 0
M  V30 3570 C 349.279 -1.41439 1.01346 0
M  V30 3571 O 350.455 -1.51316 1.32912 0
M  V30 3572 C 347.52 -2.37352 2.52715 0
M  V30 3573 C 346.581 -2.11093 3.73816 0
M  V30 3574 C 345.814 -3.33949 4.1631 0
M  V30 3575 O 346.037 -4.43622 3.58547 0
M  V30 3576 O 344.971 -3.21279 5.08983 0
M  V30 3577 H 348.797 -0.683667 2.95905 0
M  V30 3578 H 346.382 -0.271965 1.46904 0
M  V30 3579 H 348.264 -3.13246 2.81877 0
M  V30 3580 H 346.939 -2.76681 1.68016 0
M  V30 3581 H 345.846 -1.32856 3.49714 0
M  V30 3582 H 347.179 -1.76637 4.59413 0
M  V30 3583 N 348.832 -1.54138 -0.328536 0
M  V30 3584 C 350.079 -1.72105 -1.06706 0
M  V30 3585 C 350.407 -0.492111 -1.88171 0
M  V30 3586 O 349.662 0.526153 -1.88494 0
M  V30 3587 C 349.961 -2.9457 -2.02393 0
M  V30 3588 C 349.627 -4.29544 -1.37122 0
M  V30 3589 C 348.289 -4.6624 -1.19052 0
M  V30 3590 C 350.641 -5.1333 -0.902331 0
M  V30 3591 C 347.969 -5.84325 -0.527331 0
M  V30 3592 C 350.321 -6.32094 -0.252988 0
M  V30 3593 C 348.985 -6.67473 -0.0600901 0
M  V30 3594 H 348.255 -0.629775 -0.390466 0
M  V30 3595 H 350.902 -1.88372 -0.34473 0
M  V30 3596 H 349.207 -2.72969 -2.81061 0
M  V30 3597 H 350.904 -3.05665 -2.59557 0
M  V30 3598 H 347.494 -4.0067 -1.52188 0
M  V30 3599 H 351.678 -4.855 -1.02974 0
M  V30 3600 H 346.934 -6.103 -0.366634 0
M  V30 3601 H 351.108 -6.96299 0.118366 0
M  V30 3602 H 348.735 -7.58832 0.455828 0
M  V30 3603 N 350.31 0.590341 -1.46126 0
M  V30 3604 C 351.258 1.72105 -1.5647 0
M  V30 3605 C 352.252 1.63756 -0.433612 0
M  V30 3606 O 353.458 1.69342 -0.610194 0
M  V30 3607 H 349.833 0.568889 -0.491802 0
M  V30 3608 H 351.804 1.6051 -2.51553 0
M  V30 3609 C 350.553 3.10493 -1.56491 0
M  V30 3610 H 349.876 3.17583 -2.4286 0
M  V30 3611 H 351.316 3.8939 -1.67785 0
M  V30 3612 C 349.775 3.3563 -0.292231 0
M  V30 3613 O 350.305 3.96875 0.620739 0
M  V30 3614 N 348.511 2.90026 -0.182523 0
M  V30 3615 H 348.058 2.40367 -0.926356 0
M  V30 3616 H 348.016 3.07218 0.668152 0
M  V30 3617 N 351.788 1.33704 0.83433 0
M  V30 3618 C 352.751 1.24244 1.92603 0
M  V30 3619 C 353.751 0.160383 1.59998 0
M  V30 3620 O 354.941 0.412228 1.69252 0
M  V30 3621 C 352.073 0.91555 3.28376 0
M  V30 3622 H 353.266 2.21287 2.02416 0
M  V30 3623 H 350.819 1.17827 1.02696 0
M  V30 3624 H 351.554 -0.0521886 3.24258 0
M  V30 3625 H 351.339 1.69811 3.53422 0
M  V30 3626 H 352.829 0.874231 4.08347 0
M  V30 3627 N 353.266 -1.05314 1.17247 0
M  V30 3628 C 354.491 -1.82509 0.985148 0
M  V30 3629 C 354.916 -1.82343 -0.461788 0
M  V30 3630 O 354.274 -1.23151 -1.33055 0
M  V30 3631 C 354.322 -3.26566 1.52929 0
M  V30 3632 O 353.426 -4.05666 0.742225 0
M  V30 3633 H 352.767 -0.564347 0.349869 0
M  V30 3634 H 355.297 -1.32718 1.55715 0
M  V30 3635 H 355.307 -3.77369 1.55103 0
M  V30 3636 H 353.982 -3.26001 2.58256 0
M  V30 3637 H 352.559 -3.64397 0.791794 0
M  V30 3638 N 354.744 -0.972509 -1.24016 0
M  V30 3639 C 355.674 -0.525548 -2.27509 0
M  V30 3640 C 356.655 0.437262 -1.64384 0
M  V30 3641 O 357.84 0.332343 -1.91335 0
M  V30 3642 C 354.97 0.180448 -3.46831 0
M  V30 3643 C 353.924 -0.698859 -4.22256 0
M  V30 3644 C 353.25 0.138903 -5.3452 0
M  V30 3645 C 354.55 -1.98582 -4.83076 0
M  V30 3646 H 356.244 -1.39058 -2.65148 0
M  V30 3647 H 353.79 -0.67009 -1.27459 0
M  V30 3648 H 355.743 0.504387 -4.18371 0
M  V30 3649 H 354.467 1.07987 -3.08231 0
M  V30 3650 H 353.126 -1.00614 -3.52523 0
M  V30 3651 H 352.774 1.03862 -4.9216 0
M  V30 3652 H 352.474 -0.446259 -5.85903 0
M  V30 3653 H 353.998 0.457404 -6.08884 0
M  V30 3654 H 355.412 -1.72715 -5.46665 0
M  V30 3655 H 353.809 -2.5181 -5.44713 0
M  V30 3656 H 354.879 -2.67769 -4.04262 0
M  V30 3657 N 356.222 1.38976 -0.743202 0
M  V30 3658 C 357.468 2.0064 -0.295189 0
M  V30 3659 C 357.801 1.5885 1.11716 0
M  V30 3660 O 357.076 0.821181 1.76315 0
M  V30 3661 C 357.359 3.578 -0.406318 0
M  V30 3662 C 357.212 4.09586 -1.85903 0
M  V30 3663 C 358.531 4.39616 0.206439 0
M  V30 3664 H 355.65 0.728935 -0.108733 0
M  V30 3665 H 358.292 1.65067 -0.940897 0
M  V30 3666 H 356.442 3.88235 0.143419 0
M  V30 3667 H 358.114 3.89837 -2.46627 0
M  V30 3668 H 356.357 3.6284 -2.3776 0
M  V30 3669 H 357.028 5.18708 -1.888 0
M  V30 3670 H 359.504 4.15273 -0.262283 0
M  V30 3671 H 358.38 5.48812 0.0983819 0
M  V30 3672 H 358.641 4.22754 1.2935 0
M  V30 3673 N 357.7 0.491464 1.49741 0
M  V30 3674 C 358.648 -0.305837 2.30581 0
M  V30 3675 C 359.642 -0.971642 1.38764 0
M  V30 3676 O 360.848 -0.90042 1.5586 0
M  V30 3677 H 357.223 -0.117482 0.742767 0
M  V30 3678 H 359.194 0.396093 2.95759 0
M  V30 3679 C 357.943 -1.36319 3.19863 0
M  V30 3680 H 357.266 -0.860258 3.90435 0
M  V30 3681 H 358.706 -1.89323 3.79385 0
M  V30 3682 C 357.165 -2.37621 2.38826 0
M  V30 3683 O 357.695 -3.43311 2.08567 0
M  V30 3684 N 355.901 -2.09849 2.01026 0
M  V30 3685 H 355.448 -1.23922 2.25834 0
M  V30 3686 H 355.406 -2.77859 1.47112 0
M  V30 3687 N 359.178 -1.55987 0.224894 0
M  V30 3688 C 360.126 -2.21808 -0.700283 0
M  V30 3689 C 361.12 -1.19854 -1.19714 0
M  V30 3690 O 362.326 -1.37925 -1.15658 0
M  V30 3691 H 358.701 -0.711226 -0.244258 0
M  V30 3692 H 360.672 -2.98152 -0.121749 0
M  V30 3693 C 359.421 -2.91444 -1.8962 0
M  V30 3694 H 358.744 -3.69655 -1.52299 0
M  V30 3695 H 360.184 -3.40894 -2.52125 0
M  V30 3696 C 358.643 -1.94098 -2.75368 0
M  V30 3697 O 359.173 -1.46004 -3.74227 0
M  V30 3698 N 357.379 -1.61675 -2.41474 0
M  V30 3699 H 356.926 -2.00979 -1.61137 0
M  V30 3700 H 356.884 -0.968036 -2.99126 0
M  V30 3701 N 360.656 0.0484629 -1.57525 0
M  V30 3702 C 361.905 0.742065 -1.87553 0
M  V30 3703 C 362.218 1.77545 -0.820802 0
M  V30 3704 O 363.424 2.52027 -1.00967 0
M  V30 3705 C 361.88 1.37081 -3.32771 0
M  V30 3706 C 361.488 0.374786 -4.4643 0
M  V30 3707 C 363.232 2.04542 -3.71972 0
M  V30 3708 C 361.139 1.01077 -5.82698 0
M  V30 3709 H 360.069 0.280903 -0.699721 0
M  V30 3710 H 362.72 -0.00411877 -1.835 0
M  V30 3711 H 361.102 2.16605 -3.31509 0
M  V30 3712 H 362.276 -0.392331 -4.59127 0
M  V30 3713 H 360.591 -0.196653 -4.15935 0
M  V30 3714 H 363.188 2.52943 -4.71088 0
M  V30 3715 H 363.531 2.85515 -3.02964 0
M  V30 3716 H 364.064 1.31819 -3.75325 0
M  V30 3717 H 360.803 0.240878 -6.55057 0
M  V30 3718 H 360.323 1.74819 -5.73758 0
M  V30 3719 H 362.002 1.52383 -6.28799 0
M  V30 3720 N 362.134 1.5431 0.320358 0
M  V30 3721 C 363.55 1.45091 0.664889 0
M  V30 3722 C 363.75 0.626382 1.91517 0
M  V30 3723 O 362.806 0.126443 2.52183 0
M  V30 3724 C 364.119 2.88848 0.83591 0
M  V30 3725 C 365.667 2.9877 0.933046 0
M  V30 3726 C 366.142 4.43683 1.13621 0
M  V30 3727 N 367.633 4.47309 1.20287 0
M  V30 3728 C 368.368 5.56595 1.37801 0
M  V30 3729 N 367.864 6.75844 1.52338 0
M  V30 3730 N 369.657 5.44248 1.40535 0
M  V30 3731 H 361.808 2.06398 -0.501374 0
M  V30 3732 H 364.071 0.933963 -0.162534 0
M  V30 3733 H 363.777 3.51698 -0.0116092 0
M  V30 3734 H 363.651 3.35148 1.73078 0
M  V30 3735 H 366.038 2.36045 1.77107 0
M  V30 3736 H 366.119 2.55796 0.0145782 0
M  V30 3737 H 365.763 5.06995 0.303032 0
M  V30 3738 H 365.693 4.84269 2.0686 0
M  V30 3739 H 368.184 3.61388 1.10485 0
M  V30 3740 H 368.497 7.54892 1.65403 0
M  V30 3741 H 366.842 6.78746 1.4943 0
M  V30 3742 H 370.033 4.50038 1.28777 0
M  V30 3743 H 370.206 6.29473 1.53842 0
M  V30 3744 N 363.613 -0.582584 1.46437 0
M  V30 3745 C 364.561 -1.71272 1.5738 0
M  V30 3746 C 365.555 -1.63524 0.44229 0
M  V30 3747 O 366.761 -1.69016 0.619166 0
M  V30 3748 H 363.136 -0.566273 0.494813 0
M  V30 3749 H 365.107 -1.59174 2.52401 0
M  V30 3750 C 363.856 -3.09658 1.58136 0
M  V30 3751 H 363.179 -3.16291 2.44541 0
M  V30 3752 H 364.619 -3.88494 1.69847 0
M  V30 3753 C 363.078 -3.3547 0.310026 0
M  V30 3754 O 363.608 -3.97199 -0.599683 0
M  V30 3755 N 361.814 -2.89925 0.197901 0
M  V30 3756 H 361.361 -2.39873 0.93909 0
M  V30 3757 H 361.319 -3.07568 -0.65185 0
M  V30 3758 N 365.091 -1.34144 -0.827227 0
M  V30 3759 C 366.316 -1.29476 -1.62021 0
M  V30 3760 C 366.741 0.129292 -1.87655 0
M  V30 3761 O 366.099 1.08967 -1.449 0
M  V30 3762 C 366.147 -2.08702 -2.94068 0
M  V30 3763 O 365.251 -1.45359 -3.85933 0
M  V30 3764 H 364.592 -0.444881 -0.492927 0
M  V30 3765 H 367.122 -1.76882 -1.02829 0
M  V30 3766 H 367.132 -2.19898 -3.43669 0
M  V30 3767 H 365.807 -3.12241 -2.74734 0
M  V30 3768 H 364.384 -1.42879 -3.44442 0
M  V30 3769 N 366.569 1.04691 -1.17803 0
M  V30 3770 C 367.817 1.7743 -0.967617 0
M  V30 3771 C 368.138 1.88359 0.504574 0
M  V30 3772 O 367.408 1.40402 1.36617 0
M  V30 3773 H 365.988 0.657242 -0.355024 0
M  V30 3774 H 368.65 1.2638 -1.48371 0
M  V30 3775 H 367.746 2.78924 -1.40027 0
M  V30 3776 N 368.047 0.979072 1.23499 0
M  V30 3777 C 368.977 0.537606 2.27227 0
M  V30 3778 C 369.958 -0.428539 1.64613 0
M  V30 3779 O 371.143 -0.322191 1.91509 0
M  V30 3780 C 368.273 -0.162052 3.46922 0
M  V30 3781 C 367.227 0.721242 4.21879 0
M  V30 3782 C 366.553 -0.110555 5.34586 0
M  V30 3783 C 367.853 2.01141 4.82016 0
M  V30 3784 H 369.547 1.40462 2.64406 0
M  V30 3785 H 367.093 0.67684 1.27102 0
M  V30 3786 H 369.046 -0.482192 4.18632 0
M  V30 3787 H 367.77 -1.06351 3.08799 0
M  V30 3788 H 366.429 1.02482 3.51984 0
M  V30 3789 H 366.077 -1.0125 4.92704 0
M  V30 3790 H 365.777 0.477325 5.85658 0
M  V30 3791 H 367.301 -0.425107 6.09118 0
M  V30 3792 H 368.715 1.75612 5.45741 0
M  V30 3793 H 367.112 2.54695 5.43369 0
M  V30 3794 H 368.182 2.69909 4.02836 0
M  V30 3795 N 369.525 -1.3858 0.750561 0
M  V30 3796 C 370.941 -1.53759 0.427824 0
M  V30 3797 C 371.141 -1.71401 -1.05943 0
M  V30 3798 O 370.197 -1.72331 -1.84549 0
M  V30 3799 C 371.51 -2.74642 1.22443 0
M  V30 3800 C 373.058 -2.88489 1.2142 0
M  V30 3801 C 373.533 -4.12329 1.9937 0
M  V30 3802 N 375.024 -4.194 1.96616 0
M  V30 3803 C 375.759 -5.14209 2.53727 0
M  V30 3804 N 375.255 -6.14709 3.19539 0
M  V30 3805 N 377.048 -5.06537 2.43673 0
M  V30 3806 H 369.199 -1.25377 1.71447 0
M  V30 3807 H 371.462 -0.608844 0.726645 0
M  V30 3808 H 371.168 -2.68 2.27747 0
M  V30 3809 H 371.042 -3.67745 0.839273 0
M  V30 3810 H 373.429 -2.94614 0.169232 0
M  V30 3811 H 373.51 -1.96406 1.63885 0
M  V30 3812 H 373.154 -4.06966 3.03877 0
M  V30 3813 H 373.084 -5.03486 1.54302 0
M  V30 3814 H 375.575 -3.47421 1.48684 0
M  V30 3815 H 375.888 -6.8354 3.60545 0
M  V30 3816 H 374.233 -6.1505 3.23633 0
M  V30 3817 H 377.424 -4.26962 1.91889 0
M  V30 3818 H 377.597 -5.80245 2.88479 0
M  V30 3819 N 371.003 -0.499398 -1.49478 0
M  V30 3820 C 372.419 -0.155261 -1.58843 0
M  V30 3821 C 372.619 1.34008 -1.50479 0
M  V30 3822 O 371.675 2.11589 -1.37791 0
M  V30 3823 C 372.988 -0.730636 -2.91689 0
M  V30 3824 C 374.536 -0.696599 -3.0515 0
M  V30 3825 C 375.011 -1.25001 -4.40612 0
M  V30 3826 N 376.502 -1.21064 -4.47099 0
M  V30 3827 C 377.237 -1.60905 -5.50361 0
M  V30 3828 N 376.733 -2.08331 -6.60735 0
M  V30 3829 N 378.526 -1.52331 -5.41065 0
M  V30 3830 H 370.677 -1.47162 -1.53158 0
M  V30 3831 H 372.94 -0.610309 -0.725415 0
M  V30 3832 H 372.646 -1.77928 -3.03372 0
M  V30 3833 H 372.52 -0.190161 -3.7672 0
M  V30 3834 H 374.907 0.343204 -2.93097 0
M  V30 3835 H 374.988 -1.2742 -2.21806 0
M  V30 3836 H 374.632 -2.28859 -4.53416 0
M  V30 3837 H 374.562 -0.64836 -5.22593 0
M  V30 3838 H 377.053 -0.863128 -3.67911 0
M  V30 3839 H 377.366 -2.36805 -7.35624 0
M  V30 3840 H 375.711 -2.12304 -6.6178 0
M  V30 3841 H 378.902 -1.151 -4.53729 0
M  V30 3842 H 379.075 -1.83704 -6.21415 0
M  V30 3843 N 372.481 1.55866 -0.233164 0
M  V30 3844 C 373.706 2.03449 0.402906 0
M  V30 3845 C 374.131 1.11166 1.51736 0
M  V30 3846 O 373.489 0.101996 1.81013 0
M  V30 3847 C 373.537 3.49165 0.9009 0
M  V30 3848 O 372.641 3.60019 2.01147 0
M  V30 3849 H 371.982 0.657913 0.0897025 0
M  V30 3850 H 374.512 2.01493 -0.355201 0
M  V30 3851 H 374.522 3.89716 1.2077 0
M  V30 3852 H 373.197 4.15813 0.0852889 0
M  V30 3853 H 371.774 3.3136 1.71042 0
M  V30 3854 N 373.959 -0.0401083 1.57549 0
M  V30 3855 C 375.206 -0.733125 1.88763 0
M  V30 3856 C 375.534 -1.75946 0.829058 0
M  V30 3857 O 374.789 -1.94949 -0.171323 0
M  V30 3858 C 375.088 -1.44902 3.26708 0
M  V30 3859 C 374.754 -0.559707 4.47413 0
M  V30 3860 C 373.416 -0.314731 4.8017 0
M  V30 3861 C 375.768 0.0549743 5.21171 0
M  V30 3862 C 373.096 0.553886 5.8408 0
M  V30 3863 C 375.448 0.911229 6.26003 0
M  V30 3864 C 374.112 1.16577 6.57241 0
M  V30 3865 H 373.382 -0.268269 0.690733 0
M  V30 3866 H 376.029 0.00679408 1.91499 0
M  V30 3867 H 374.334 -2.26197 3.1991 0
M  V30 3868 H 376.031 -1.99058 3.48105 0
M  V30 3869 H 372.621 -0.760793 4.21794 0
M  V30 3870 H 376.805 -0.121344 4.96152 0
M  V30 3871 H 372.061 0.759518 6.06664 0
M  V30 3872 H 376.235 1.3941 6.82303 0
M  V30 3873 H 373.862 1.84058 7.37582 0
M  V30 3874 N 375.437 -1.54477 -0.31217 0
M  V30 3875 C 376.347 -1.87695 -1.4074 0
M  V30 3876 C 377.363 -0.769975 -1.56036 0
M  V30 3877 O 378.539 -1.06537 -1.70915 0
M  V30 3878 C 375.604 -2.10755 -2.75287 0
M  V30 3879 C 374.665 -3.34514 -2.69071 0
M  V30 3880 C 373.898 -3.56465 -3.97201 0
M  V30 3881 O 374.121 -2.81637 -4.96021 0
M  V30 3882 O 373.055 -4.49964 -3.9977 0
M  V30 3883 H 376.881 -2.80849 -1.15574 0
M  V30 3884 H 374.466 -1.40526 -0.507228 0
M  V30 3885 H 376.348 -2.27188 -3.54913 0
M  V30 3886 H 375.023 -1.20788 -3.0032 0
M  V30 3887 H 373.93 -3.23456 -1.87955 0
M  V30 3888 H 375.263 -4.24575 -2.48992 0
M  V30 3889 N 376.915 0.57481 -1.46744 0
M  V30 3890 C 378.143 1.35856 -1.56047 0
M  V30 3891 C 378.558 1.87691 -0.204365 0
M  V30 3892 O 377.915 1.64049 0.79963 0
M  V30 3893 C 377.966 2.54066 -2.57163 0
M  V30 3894 O 377.687 2.04377 -3.87507 0
M  V30 3895 C 379.188 3.46514 -2.76483 0
M  V30 3896 H 376.408 0.414754 -0.527466 0
M  V30 3897 H 378.952 0.698035 -1.92218 0
M  V30 3898 H 377.107 3.16092 -2.23974 0
M  V30 3899 H 377.521 2.81419 -4.4261 0
M  V30 3900 H 378.995 4.25919 -3.51137 0
M  V30 3901 H 379.472 3.98951 -1.83671 0
M  V30 3902 H 380.078 2.90318 -3.10799 0
M  V30 3903 N 378.394 1.34581 0.820102 0
M  V30 3904 C 379.341 1.2639 1.93117 0
M  V30 3905 C 380.311 0.138554 1.65521 0
M  V30 3906 O 381.496 0.320004 1.88097 0
M  V30 3907 C 378.636 1.02812 3.29429 0
M  V30 3908 C 377.749 2.24146 3.693 0
M  V30 3909 C 376.884 1.93829 4.94574 0
M  V30 3910 C 375.923 3.1129 5.27034 0
M  V30 3911 N 375.06 2.80838 6.43486 0
M  V30 3912 H 379.9 2.21408 1.99455 0
M  V30 3913 H 377.437 1.10077 0.975784 0
M  V30 3914 H 379.395 0.871788 4.0799 0
M  V30 3915 H 378.025 0.114612 3.22596 0
M  V30 3916 H 377.077 2.50691 2.86109 0
M  V30 3917 H 378.389 3.11899 3.89257 0
M  V30 3918 H 377.543 1.74948 5.80929 0
M  V30 3919 H 376.282 1.03341 4.76626 0
M  V30 3920 H 375.287 3.30764 4.39175 0
M  V30 3921 H 376.512 4.02561 5.4692 0
M  V30 3922 H 374.458 1.92929 6.26988 0
M  V30 3923 H 374.375 3.62123 6.63629 0
M  V30 3924 H 375.643 2.65467 7.32903 0
M  V30 3925 N 379.872 -1.04064 1.18357 0
M  V30 3926 C 381.149 -1.74252 0.888581 0
M  V30 3927 C 381.529 -2.02138 -0.60856 0
M  V30 3928 O 380.877 -1.66656 -1.56327 0
M  V30 3929 C 381.087 -3.0277 1.73584 0
M  V30 3930 C 382.435 -3.76506 1.96286 0
M  V30 3931 O 383.459 -3.12668 1.70637 0
M  V30 3932 O 382.318 -4.91243 2.39464 0
M  V30 3933 H 379.412 -0.758271 0.330082 0
M  V30 3934 H 381.958 -1.1013 1.2911 0
M  V30 3935 H 380.73 -2.78299 2.75073 0
M  V30 3936 H 380.353 -3.74631 1.33183 0
M  V30 3937 N 381.35 -0.985608 -1.22978 0
M  V30 3938 C 382.597 -0.657386 -1.91532 0
M  V30 3939 C 382.925 0.809707 -1.76845 0
M  V30 3940 O 382.18 1.60021 -1.12658 0
M  V30 3941 C 382.479 -1.00014 -3.43121 0
M  V30 3942 C 382.145 -2.4583 -3.77993 0
M  V30 3943 C 380.807 -2.85679 -3.87222 0
M  V30 3944 C 383.159 -3.40378 -3.94705 0
M  V30 3945 C 380.487 -4.19081 -4.10595 0
M  V30 3946 C 382.839 -4.73429 -4.1958 0
M  V30 3947 C 381.503 -5.1303 -4.27032 0
M  V30 3948 H 380.773 -0.240555 -0.700867 0
M  V30 3949 H 383.42 -1.24044 -1.45895 0
M  V30 3950 H 381.725 -0.335072 -3.90365 0
M  V30 3951 H 383.422 -0.724322 -3.94404 0
M  V30 3952 H 380.012 -2.13939 -3.71387 0
M  V30 3953 H 384.196 -3.10766 -3.8696 0
M  V30 3954 H 379.452 -4.49362 -4.14589 0
M  V30 3955 H 383.626 -5.46644 -4.31455 0
M  V30 3956 H 381.253 -6.16418 -4.44896 0
M  V30 3957 N 382.828 1.3818 -0.7579 0
M  V30 3958 C 384.076 1.99624 -0.315361 0
M  V30 3959 C 384.397 1.60464 1.10799 0
M  V30 3960 O 383.667 0.863507 1.75842 0
M  V30 3961 H 382.247 0.73831 -0.113611 0
M  V30 3962 H 384.909 1.68878 -0.972952 0
M  V30 3963 H 384.005 3.09754 -0.381931 0
M  V30 3964 N 384.306 0.507319 1.49211 0
M  V30 3965 C 385.253 -0.267728 2.29242 0
M  V30 3966 C 386.223 -0.954609 1.35928 0
M  V30 3967 O 387.408 -0.960046 1.64887 0
M  V30 3968 C 384.548 -1.32243 3.18756 0
M  V30 3969 C 383.661 -0.64669 4.27132 0
M  V30 3970 C 382.796 -1.68238 5.03855 0
M  V30 3971 C 381.835 -0.98885 6.0406 0
M  V30 3972 N 380.972 -1.96903 6.73924 0
M  V30 3973 H 385.812 0.420968 2.95012 0
M  V30 3974 H 383.349 0.219443 1.45454 0
M  V30 3975 H 385.307 -1.94599 3.69036 0
M  V30 3976 H 383.937 -1.97981 2.54958 0
M  V30 3977 H 382.989 0.0902926 3.80293 0
M  V30 3978 H 384.301 -0.101058 4.98698 0
M  V30 3979 H 383.455 -2.38081 5.58034 0
M  V30 3980 H 382.194 -2.26187 4.32077 0
M  V30 3981 H 381.199 -0.276222 5.49106 0
M  V30 3982 H 382.424 -0.415767 6.77826 0
M  V30 3983 H 380.37 -2.53803 6.04913 0
M  V30 3984 H 380.287 -1.47423 7.41487 0
M  V30 3985 H 381.555 -2.66015 7.32705 0
M  V30 3986 N 385.784 -1.5574 0.241426 0
M  V30 3987 C 387.012 -2.03208 -0.389134 0
M  V30 3988 C 387.427 -1.12082 -1.51931 0
M  V30 3989 O 386.784 -0.134183 -1.82006 0
M  V30 3990 C 386.835 -3.50064 -0.902087 0
M  V30 3991 O 386.556 -4.37717 0.18305 0
M  V30 3992 C 388.057 -4.13268 -1.60389 0
M  V30 3993 H 385.277 -0.664509 -0.0931053 0
M  V30 3994 H 387.821 -2.0124 0.36369 0
M  V30 3995 H 385.976 -3.52583 -1.60511 0
M  V30 3996 H 386.39 -5.24097 -0.205579 0
M  V30 3997 H 387.864 -5.17733 -1.91458 0
M  V30 3998 H 388.341 -3.59434 -2.52397 0
M  V30 3999 H 388.947 -4.14655 -0.945576 0
M  V30 4000 N 387.262 0.0317525 -1.57568 0
M  V30 4001 C 388.508 0.718712 -1.90279 0
M  V30 4002 C 388.863 1.73108 -0.839727 0
M  V30 4003 O 388.156 1.90997 0.15188 0
M  V30 4004 C 388.35 1.43167 -3.27472 0
M  V30 4005 C 388.179 0.489869 -4.47024 0
M  V30 4006 C 386.949 0.111909 -5.05176 0
M  V30 4007 C 389.147 -0.230592 -5.13783 0
M  V30 4008 N 387.129 -0.831427 -6.08244 0
M  V30 4009 C 388.5 -1.02968 -6.1139 0
M  V30 4010 C 390.555 -0.297821 -4.97008 0
M  V30 4011 C 389.258 -1.88982 -6.9403 0
M  V30 4012 C 391.284 -1.14507 -5.80209 0
M  V30 4013 C 390.646 -1.9321 -6.77384 0
M  V30 4014 H 386.745 0.237177 -0.745165 0
M  V30 4015 H 389.329 -0.0211267 -1.94689 0
M  V30 4016 H 387.5 2.14199 -3.23996 0
M  V30 4017 H 389.232 2.0708 -3.47707 0
M  V30 4018 H 385.987 0.473513 -4.71227 0
M  V30 4019 H 386.411 -1.29752 -6.6445 0
M  V30 4020 H 391.053 0.296346 -4.2176 0
M  V30 4021 H 388.771 -2.4948 -7.68626 0
M  V30 4022 H 392.357 -1.20059 -5.69278 0
M  V30 4023 H 391.237 -2.57711 -7.40645 0
M  V30 4024 N 388.74 1.54641 0.303973 0
M  V30 4025 C 389.968 1.77768 1.05858 0
M  V30 4026 C 390.383 0.535722 1.8104 0
M  V30 4027 O 389.74 -0.494337 1.75677 0
M  V30 4028 C 389.791 2.9834 2.04146 0
M  V30 4029 O 389.512 4.17736 1.32015 0
M  V30 4030 C 391.013 3.33832 2.91669 0
M  V30 4031 H 388.233 0.592961 0.314067 0
M  V30 4032 H 390.777 2.01583 0.344149 0
M  V30 4033 H 388.932 2.76742 2.71096 0
M  V30 4034 H 389.346 4.85693 1.97998 0
M  V30 4035 H 390.82 4.21448 3.56491 0
M  V30 4036 H 391.297 2.51857 3.59812 0
M  V30 4037 H 391.903 3.57579 2.30254 0
M  V30 4038 N 390.218 -0.567019 1.47046 0
M  V30 4039 C 391.128 -1.70247 1.6141 0
M  V30 4040 C 392.144 -1.66746 0.497157 0
M  V30 4041 O 393.32 -1.86371 0.763389 0
M  V30 4042 C 390.385 -3.06756 1.61561 0
M  V30 4043 C 389.446 -3.21399 2.84607 0
M  V30 4044 C 388.679 -4.51396 2.84741 0
M  V30 4045 O 388.902 -5.36255 1.94388 0
M  V30 4046 O 387.836 -4.69621 3.76483 0
M  V30 4047 H 391.662 -1.61073 2.57467 0
M  V30 4048 H 389.247 -0.735894 1.30019 0
M  V30 4049 H 391.129 -3.8801 1.64396 0
M  V30 4050 H 389.804 -3.16333 0.686684 0
M  V30 4051 H 388.711 -2.39579 2.8732 0
M  V30 4052 H 390.044 -3.16721 3.76761 0
M  V30 4053 N 391.696 -1.35014 -0.812953 0
M  V30 4054 C 392.943 -1.27931 -1.56971 0
M  V30 4055 C 393.271 0.148034 -1.93936 0
M  V30 4056 O 392.526 1.11175 -1.61054 0
M  V30 4057 C 392.825 -2.12524 -2.87347 0
M  V30 4058 C 392.491 -3.61401 -2.6963 0
M  V30 4059 C 391.153 -4.01983 -2.64506 0
M  V30 4060 C 393.505 -4.55894 -2.52607 0
M  V30 4061 C 390.833 -5.35235 -2.40293 0
M  V30 4062 C 393.185 -5.89336 -2.29925 0
M  V30 4063 C 391.849 -6.2907 -2.23219 0
M  V30 4064 H 391.119 -0.468131 -0.574399 0
M  V30 4065 H 393.766 -1.66851 -0.939836 0
M  V30 4066 H 392.071 -1.66463 -3.54679 0
M  V30 4067 H 393.768 -2.04383 -3.45005 0
M  V30 4068 H 390.358 -3.29193 -2.74463 0
M  V30 4069 H 394.542 -4.25431 -2.55583 0
M  V30 4070 H 389.798 -5.65028 -2.33566 0
M  V30 4071 H 393.972 -6.62139 -2.15743 0
M  V30 4072 H 391.599 -7.32256 -2.04219 0
M  V30 4073 N 393.175 1.03435 -1.18907 0
M  V30 4074 C 394.586 1.58195 -0.991523 0
M  V30 4075 C 394.937 1.90801 0.457081 0
M  V30 4076 O 394.062 1.70272 1.33553 0
M  V30 4077 C 394.657 2.87432 -1.79355 0
M  V30 4078 C 393.216 3.38785 -1.64017 0
M  V30 4079 C 392.363 2.12292 -1.78402 0
M  V30 4080 H 395.314 0.860299 -1.33359 0
M  V30 4081 H 395.335 3.58096 -1.28638 0
M  V30 4082 H 394.847 2.63669 -2.84781 0
M  V30 4083 H 392.948 3.67547 -0.611536 0
M  V30 4084 H 393.061 4.12186 -2.44212 0
M  V30 4085 H 391.425 2.23901 -1.2141 0
M  V30 4086 H 392.208 1.90977 -2.85277 0
M  V30 4087 N 394.653 0.992116 1.22453 0
M  V30 4088 C 396.064 0.702776 1.72968 0
M  V30 4089 C 396.415 -0.780399 1.80012 0
M  V30 4090 O 395.54 -1.61007 1.44589 0
M  V30 4091 C 396.135 1.26903 3.14135 0
M  V30 4092 C 394.694 1.02909 3.62059 0
M  V30 4093 C 393.841 1.38969 2.39964 0
M  V30 4094 H 396.792 1.16457 1.07812 0
M  V30 4095 H 396.813 0.647223 3.74955 0
M  V30 4096 H 396.325 2.34851 3.08977 0
M  V30 4097 H 394.426 -0.0337979 3.72585 0
M  V30 4098 H 394.539 1.69191 4.48231 0
M  V30 4099 H 392.903 0.808279 2.41535 0
M  V30 4100 H 393.686 2.4792 2.37467 0
M  V30 4101 N 396.131 -1.37776 0.765217 0
M  V30 4102 C 397.064 -2.28008 0.0935025 0
M  V30 4103 C 398.042 -1.45985 -0.716047 0
M  V30 4104 O 399.226 -1.75331 -0.692203 0
M  V30 4105 C 396.353 -3.27228 -0.874052 0
M  V30 4106 C 395.399 -4.26239 -0.149307 0
M  V30 4107 S 396.232 -5.22827 1.15809 0
M  V30 4108 C 397.388 -6.256 0.193906 0
M  V30 4109 H 397.621 -2.84631 0.858637 0
M  V30 4110 H 395.154 -1.43952 0.558313 0
M  V30 4111 H 397.112 -3.84902 -1.42691 0
M  V30 4112 H 395.773 -2.69565 -1.61225 0
M  V30 4113 H 394.966 -4.96213 -0.88254 0
M  V30 4114 H 394.568 -3.7252 0.332366 0
M  V30 4115 H 396.86 -6.74508 -0.636011 0
M  V30 4116 H 397.803 -7.02838 0.861638 0
M  V30 4117 H 398.211 -5.64173 -0.191975 0
M  V30 4118 N 397.609 -0.515225 -1.4894 0
M  V30 4119 C 398.886 0.0879088 -1.95402 0
M  V30 4120 C 399.266 1.52745 -1.45712 0
M  V30 4121 O 398.614 2.18238 -0.677093 0
M  V30 4122 C 398.824 -0.0141055 -3.48997 0
M  V30 4123 C 400.172 0.152646 -4.24326 0
M  V30 4124 O 401.196 0.0604025 -3.56149 0
M  V30 4125 O 400.055 0.34384 -5.45417 0
M  V30 4126 H 397.149 0.0874636 -0.822362 0
M  V30 4127 H 399.695 -0.578775 -1.59525 0
M  V30 4128 H 398.467 -1.01745 -3.77841 0
M  V30 4129 H 398.09 0.692091 -3.9153 0
M  V30 4130 N 399.087 1.5561 -0.249682 0
M  V30 4131 C 400.034 2.21496 0.648694 0
M  V30 4132 C 401.004 1.17977 1.16921 0
M  V30 4133 O 402.189 1.46434 1.22318 0
M  V30 4134 C 399.329 2.92039 1.83868 0
M  V30 4135 C 398.442 4.10219 1.35442 0
M  V30 4136 C 397.577 4.6847 2.50419 0
M  V30 4137 C 396.616 5.78893 1.98869 0
M  V30 4138 N 395.753 6.31315 3.07223 0
M  V30 4139 H 400.593 2.97892 0.0801582 0
M  V30 4140 H 398.13 1.47074 0.0278031 0
M  V30 4141 H 400.088 3.31138 2.53778 0
M  V30 4142 H 398.718 2.18111 2.37965 0
M  V30 4143 H 397.77 3.76413 0.54928 0
M  V30 4144 H 399.082 4.89927 0.936649 0
M  V30 4145 H 398.236 5.10158 3.28366 0
M  V30 4146 H 396.975 3.87984 2.95499 0
M  V30 4147 H 395.98 5.3668 1.19393 0
M  V30 4148 H 397.205 6.61232 1.54755 0
M  V30 4149 H 395.151 5.53733 3.51732 0
M  V30 4150 H 395.068 7.06224 2.69784 0
M  V30 4151 H 396.336 6.77662 3.8522 0
M  V30 4152 N 400.565 -0.0233959 1.57583 0
M  V30 4153 C 401.512 -1.02224 2.06927 0
M  V30 4154 C 402.482 -1.35575 0.959617 0
M  V30 4155 O 403.667 -1.45815 1.23055 0
M  V30 4156 C 400.807 -2.31636 2.5581 0
M  V30 4157 C 399.92 -2.04394 3.80588 0
M  V30 4158 C 399.055 -3.27717 4.18061 0
M  V30 4159 C 398.094 -2.96056 5.3574 0
M  V30 4160 N 397.231 -4.11847 5.68618 0
M  V30 4161 H 402.071 -0.594504 2.9201 0
M  V30 4162 H 399.608 -0.281921 1.44373 0
M  V30 4163 H 401.566 -3.07258 2.82221 0
M  V30 4164 H 400.196 -2.72122 1.73636 0
M  V30 4165 H 399.248 -1.19244 3.61227 0
M  V30 4166 H 400.56 -1.77042 4.66323 0
M  V30 4167 H 399.714 -4.11702 4.4563 0
M  V30 4168 H 398.453 -3.58188 3.30988 0
M  V30 4169 H 397.458 -2.10474 5.07918 0
M  V30 4170 H 398.683 -2.66857 6.24471 0
M  V30 4171 H 396.629 -4.42258 4.84504 0
M  V30 4172 H 396.546 -3.87938 6.48876 0
M  V30 4173 H 397.814 -4.96689 6.00766 0
M  V30 4174 N 402.043 -1.548 -0.295768 0
M  V30 4175 C 403.289 -1.74588 -1.03184 0
M  V30 4176 C 403.622 -0.532962 -1.86744 0
M  V30 4177 O 402.897 0.469872 -1.88739 0
M  V30 4178 C 403.18 -3.03791 -1.93347 0
M  V30 4179 C 403.033 -4.35392 -1.12933 0
M  V30 4180 C 404.352 -3.28892 -2.92435 0
M  V30 4181 H 401.471 -0.635221 -0.373715 0
M  V30 4182 H 404.113 -1.87519 -0.30606 0
M  V30 4183 H 402.263 -2.92898 -2.55232 0
M  V30 4184 H 403.935 -4.58211 -0.532943 0
M  V30 4185 H 402.178 -4.31642 -0.432168 0
M  V30 4186 H 402.849 -5.22074 -1.79284 0
M  V30 4187 H 405.325 -3.39429 -2.4068 0
M  V30 4188 H 404.201 -4.20603 -3.52682 0
M  V30 4189 H 404.462 -2.47437 -3.6637 0
M  V30 4190 N 403.521 0.559213 -1.47345 0
M  V30 4191 C 404.798 1.31997 -1.44348 0
M  V30 4192 C 405.178 2.1064 -0.139358 0
M  V30 4193 O 404.526 2.1091 0.879153 0
M  V30 4194 C 404.736 2.22618 -2.68779 0
M  V30 4195 C 406.084 2.83701 -3.1591 0
M  V30 4196 O 407.108 2.32921 -2.69493 0
M  V30 4197 O 405.967 3.75993 -3.966 0
M  V30 4198 H 403.061 0.594251 -0.575147 0
M  V30 4199 H 405.607 0.578282 -1.59543 0
M  V30 4200 H 404.379 1.64093 -3.55231 0
M  V30 4201 H 404.002 3.04085 -2.5616 0
M  V30 4202 N 404.999 1.35443 0.805782 0
M  V30 4203 C 405.947 1.28465 1.93906 0
M  V30 4204 C 406.941 0.17943 1.68447 0
M  V30 4205 O 408.147 0.345459 1.76654 0
M  V30 4206 H 404.522 0.399528 0.637088 0
M  V30 4207 H 406.493 2.24206 1.96912 0
M  V30 4208 C 405.242 1.07432 3.30687 0
M  V30 4209 H 404.565 1.91716 3.50835 0
M  V30 4210 H 406.005 1.06591 4.10383 0
M  V30 4211 C 404.464 -0.22179 3.36169 0
M  V30 4212 O 404.994 -1.21731 3.82811 0
M  V30 4213 N 403.2 -0.260841 2.89427 0
M  V30 4214 H 402.747 0.549884 2.51663 0
M  V30 4215 H 402.705 -1.12777 2.93477 0
M  V30 4216 N 406.477 -1.02803 1.19454 0
M  V30 4217 C 407.893 -1.28473 0.946937 0
M  V30 4218 C 408.093 -1.97881 -0.380202 0
M  V30 4219 O 407.149 -2.26719 -1.11151 0
M  V30 4220 C 408.462 -2.13099 2.12154 0
M  V30 4221 C 410.01 -2.26404 2.16126 0
M  V30 4222 C 410.485 -3.14402 3.33039 0
M  V30 4223 N 411.976 -3.21991 3.32981 0
M  V30 4224 C 412.711 -3.90272 4.20089 0
M  V30 4225 N 412.207 -4.60777 5.17355 0
M  V30 4226 N 414 -3.8668 4.07964 0
M  V30 4227 H 406.151 -0.561665 2.04839 0
M  V30 4228 H 408.414 -0.310438 0.89573 0
M  V30 4229 H 408.12 -1.69422 3.08203 0
M  V30 4230 H 407.994 -3.13813 2.09287 0
M  V30 4231 H 410.381 -2.69311 1.20647 0
M  V30 4232 H 410.462 -1.25237 2.23045 0
M  V30 4233 H 410.106 -2.72204 4.28798 0
M  V30 4234 H 410.036 -4.1563 3.23356 0
M  V30 4235 H 412.527 -2.71778 2.62574 0
M  V30 4236 H 412.84 -5.10513 5.80169 0
M  V30 4237 H 411.185 -4.5964 5.21302 0
M  V30 4238 H 414.376 -3.30739 3.31254 0
M  V30 4239 H 414.549 -4.39621 4.76064 0
M  V30 4240 N 407.956 -0.998596 -1.21925 0
M  V30 4241 C 408.904 -0.546641 -2.26085 0
M  V30 4242 C 409.898 0.405576 -1.64473 0
M  V30 4243 O 411.104 0.277471 -1.77849 0
M  V30 4244 H 407.479 -0.158403 -0.735127 0
M  V30 4245 H 409.45 -1.43645 -2.61551 0
M  V30 4246 C 408.199 0.117388 -3.47502 0
M  V30 4247 H 407.522 -0.606277 -3.95176 0
M  V30 4248 H 408.962 0.396993 -4.22137 0
M  V30 4249 C 407.421 1.35455 -3.0847 0
M  V30 4250 O 407.951 2.44944 -3.18379 0
M  V30 4251 N 406.157 1.23191 -2.63196 0
M  V30 4252 H 405.704 0.341006 -2.55333 0
M  V30 4253 H 405.662 2.06071 -2.37449 0
M  V30 4254 N 409.434 1.37368 -0.772513 0
M  V30 4255 C 410.384 2.27613 -0.132823 0
M  V30 4256 C 411.368 1.46138 0.673247 0
M  V30 4257 O 412.56 1.68686 0.536095 0
M  V30 4258 C 409.689 3.35122 0.744864 0
M  V30 4259 C 408.775 4.24044 -0.0690771 0
M  V30 4260 N 409.166 4.93355 -1.1151 0
M  V30 4261 C 407.464 4.45731 0.154782 0
M  V30 4262 C 408.165 5.59 -1.60917 0
M  V30 4263 N 407.141 5.35737 -0.921222 0
M  V30 4264 H 410.943 2.78675 -0.933681 0
M  V30 4265 H 408.457 1.50494 -0.610342 0
M  V30 4266 H 410.454 3.98683 1.21892 0
M  V30 4267 H 409.114 2.85616 1.54446 0
M  V30 4268 H 410.125 4.95785 -1.49726 0
M  V30 4269 H 406.802 4.07096 0.926224 0
M  V30 4270 H 408.192 6.24395 -2.48153 0
M  V30 4271 N 410.912 0.523116 1.48665 0
M  V30 4272 C 412.16 -0.0134497 2.02096 0
M  V30 4273 C 412.481 -1.35418 1.40311 0
M  V30 4274 O 411.751 -1.87543 0.566074 0
M  V30 4275 H 410.331 -0.00795915 0.746958 0
M  V30 4276 H 412.993 0.685388 1.82451 0
M  V30 4277 H 412.089 -0.126849 3.11842 0
M  V30 4278 N 412.39 -1.55475 0.257931 0
M  V30 4279 C 413.636 -1.99502 -0.364266 0
M  V30 4280 C 413.969 -1.146 -1.56782 0
M  V30 4281 O 413.244 -0.211968 -1.93342 0
M  V30 4282 C 413.527 -3.51917 -0.763333 0
M  V30 4283 C 413.38 -4.4758 0.446371 0
M  V30 4284 C 414.699 -4.09742 -1.60623 0
M  V30 4285 H 411.818 -0.725277 -0.130929 0
M  V30 4286 H 414.46 -1.8653 0.361446 0
M  V30 4287 H 412.61 -3.63101 -1.38166 0
M  V30 4288 H 414.282 -4.48362 1.08487 0
M  V30 4289 H 412.525 -4.19947 1.08753 0
M  V30 4290 H 413.196 -5.51862 0.123645 0
M  V30 4291 H 415.672 -4.01727 -1.08418 0
M  V30 4292 H 414.548 -5.16631 -1.85429 0
M  V30 4293 H 414.809 -3.58889 -2.58169 0
M  V30 4294 N 413.868 0.0150385 -1.57593 0
M  V30 4295 C 414.8 1.03912 -2.04291 0
M  V30 4296 C 415.813 1.31618 -0.958146 0
M  V30 4297 O 417.002 1.28859 -1.23522 0
M  V30 4298 C 414.102 2.37749 -2.41514 0
M  V30 4299 C 413.275 2.29198 -3.72541 0
M  V30 4300 C 412.334 3.45598 -3.96797 0
M  V30 4301 O 411.36 3.24461 -4.67668 0
M  V30 4302 N 412.562 4.67945 -3.43523 0
M  V30 4303 H 415.327 0.64099 -2.92765 0
M  V30 4304 H 412.888 0.20272 -1.60626 0
M  V30 4305 H 414.88 3.14364 -2.54867 0
M  V30 4306 H 413.45 2.69357 -1.58637 0
M  V30 4307 H 412.67 1.3759 -3.69408 0
M  V30 4308 H 413.958 2.20642 -4.5847 0
M  V30 4309 H 413.356 4.88017 -2.86104 0
M  V30 4310 H 411.913 5.41878 -3.62232 0
M  V30 4311 N 415.346 1.54954 0.287554 0
M  V30 4312 C 416.594 1.74528 1.01904 0
M  V30 4313 C 416.915 0.541349 1.87335 0
M  V30 4314 O 416.185 -0.444108 1.908 0
M  V30 4315 H 414.765 0.643576 0.379235 0
M  V30 4316 H 417.427 1.92333 0.315294 0
M  V30 4317 H 416.523 2.64015 1.6644 0
M  V30 4318 N 416.824 -0.551391 1.4764 0
M  V30 4319 C 418.049 -1.33837 1.58437 0
M  V30 4320 C 418.474 -1.866 0.237063 0
M  V30 4321 O 417.832 -1.6328 -0.787994 0
M  V30 4322 C 417.88 -2.48014 2.61766 0
M  V30 4323 O 416.984 -3.50419 2.1744 0
M  V30 4324 H 416.325 -0.397299 0.532024 0
M  V30 4325 H 418.855 -0.665759 1.93465 0
M  V30 4326 H 418.865 -2.94503 2.82369 0
M  V30 4327 H 417.54 -2.08969 3.5959 0
M  V30 4328 H 416.117 -3.10196 2.06961 0
M  V30 4329 N 418.302 -1.35869 -0.798587 0
M  V30 4330 C 419.53 -1.32722 -1.58722 0
M  V30 4331 C 419.945 0.0935631 -1.88568 0
M  V30 4332 O 419.302 1.04784 -1.49421 0
M  V30 4333 C 419.353 -2.13974 -2.91371 0
M  V30 4334 O 419.074 -3.50514 -2.62815 0
M  V30 4335 C 420.575 -2.18504 -3.85708 0
M  V30 4336 H 417.795 -0.45562 -0.492596 0
M  V30 4337 H 420.339 -1.78837 -0.991843 0
M  V30 4338 H 418.494 -1.71438 -3.47402 0
M  V30 4339 H 418.908 -3.92806 -3.47568 0
M  V30 4340 H 420.382 -2.79732 -4.75872 0
M  V30 4341 H 420.859 -1.18597 -4.22885 0
M  V30 4342 H 421.465 -2.61236 -3.35612 0
M  V30 4343 N 419.78 1.02168 -1.19998 0
M  V30 4344 C 421.029 1.75091 -1.0013 0
M  V30 4345 C 421.342 1.89923 0.467835 0
M  V30 4346 O 422.548 2.59888 0.785515 0
M  V30 4347 C 421.004 3.14892 -1.74273 0
M  V30 4348 C 420.612 3.0809 -3.25245 0
M  V30 4349 C 422.356 3.9206 -1.62755 0
M  V30 4350 C 420.263 4.42867 -3.91948 0
M  V30 4351 H 419.193 0.656394 -0.37103 0
M  V30 4352 H 421.844 1.14284 -1.43567 0
M  V30 4353 H 420.226 3.7621 -1.2362 0
M  V30 4354 H 421.4 2.5611 -3.83072 0
M  V30 4355 H 419.715 2.44416 -3.3712 0
M  V30 4356 H 422.312 4.91764 -2.09934 0
M  V30 4357 H 422.655 4.12199 -0.582894 0
M  V30 4358 H 423.188 3.37359 -2.10793 0
M  V30 4359 H 419.927 4.27931 -4.96543 0
M  V30 4360 H 419.447 4.94874 -3.3891 0
M  V30 4361 H 421.126 5.11728 -3.95909 0
M  V30 4362 N 421.258 1.00505 1.21394 0
M  V30 4363 C 422.486 0.706609 1.9446 0
M  V30 4364 C 422.901 -0.73081 1.74082 0
M  V30 4365 O 422.258 -1.49446 1.04747 0
M  V30 4366 C 422.309 1.01824 3.46863 0
M  V30 4367 O 422.03 2.39919 3.66566 0
M  V30 4368 C 423.531 0.739216 4.37093 0
M  V30 4369 H 420.751 0.260394 0.618414 0
M  V30 4370 H 423.295 1.34311 1.54211 0
M  V30 4371 H 421.45 0.427343 3.85036 0
M  V30 4372 H 421.864 2.50784 4.6066 0
M  V30 4373 H 423.338 1.00744 5.42729 0
M  V30 4374 H 423.815 -0.326746 4.37983 0
M  V30 4375 H 424.421 1.31173 4.04566 0
M  V30 4376 N 422.737 -1.36956 0.779787 0
M  V30 4377 C 423.986 -1.98738 0.344405 0
M  V30 4378 C 424.299 -1.62596 -1.08728 0
M  V30 4379 O 425.505 -2.1754 -1.62445 0
M  V30 4380 C 423.961 -3.5544 0.564829 0
M  V30 4381 C 423.569 -4.00514 2.0073 0
M  V30 4382 C 425.313 -4.24059 0.193471 0
M  V30 4383 C 423.22 -5.49957 2.17489 0
M  V30 4384 H 422.15 -0.743561 0.12503 0
M  V30 4385 H 424.801 -1.56381 0.960057 0
M  V30 4386 H 423.183 -3.95817 -0.120397 0
M  V30 4387 H 424.357 -3.71362 2.72814 0
M  V30 4388 H 422.672 -3.44703 2.336 0
M  V30 4389 H 425.269 -5.33874 0.297097 0
M  V30 4390 H 425.612 -4.07378 -0.857263 0
M  V30 4391 H 426.145 -3.89012 0.831556 0
M  V30 4392 H 422.884 -5.71574 3.2091 0
M  V30 4393 H 422.404 -5.80767 1.49899 0
M  V30 4394 H 424.083 -6.16043 1.97738 0
M  V30 4395 N 424.215 -0.530993 -1.48385 0
M  V30 4396 C 425.626 -0.0907905 -1.86479 0
M  V30 4397 C 425.977 1.33213 -1.44044 0
M  V30 4398 O 425.102 1.99783 -0.831615 0
M  V30 4399 C 425.697 -0.157987 -3.38431 0
M  V30 4400 C 424.256 0.227026 -3.75715 0
M  V30 4401 C 423.403 -0.5173 -2.72432 0
M  V30 4402 H 426.354 -0.742186 -1.40276 0
M  V30 4403 H 426.375 0.630053 -3.75247 0
M  V30 4404 H 425.887 -1.19372 -3.69286 0
M  V30 4405 H 423.988 1.26486 -3.50474 0
M  V30 4406 H 424.101 -0.113288 -4.78966 0
M  V30 4407 H 422.465 0.0365527 -2.54674 0
M  V30 4408 H 423.248 -1.55368 -3.0613 0
M  V30 4409 N 425.693 1.55336 -0.266172 0
M  V30 4410 C 426.918 2.04258 0.359661 0
M  V30 4411 C 427.343 1.14359 1.49344 0
M  V30 4412 O 426.701 0.140369 1.80756 0
M  V30 4413 C 426.749 3.50997 0.826635 0
M  V30 4414 O 425.853 3.64204 1.93466 0
M  V30 4415 H 425.194 0.659668 0.075727 0
M  V30 4416 H 427.724 2.00694 -0.39786 0
M  V30 4417 H 427.734 3.9219 1.12477 0
M  V30 4418 H 426.409 4.159 -0.00293032 0
M  V30 4419 H 424.986 3.34913 1.63974 0
M  V30 4420 N 427.171 -0.0066808 1.57599 0
M  V30 4421 C 428.419 -0.691552 1.899 0
M  V30 4422 C 428.74 -1.74682 0.866672 0
M  V30 4423 O 428.01 -1.95661 -0.0968189 0
M  V30 4424 H 426.59 -0.258416 0.700878 0
M  V30 4425 H 429.252 0.0326655 1.94873 0
M  V30 4426 H 428.348 -1.16702 2.8946 0
M  V30 4427 N 428.649 -1.55105 -0.279332 0
M  V30 4428 C 429.597 -1.88333 -1.36505 0
M  V30 4429 C 430.591 -0.759043 -1.51443 0
M  V30 4430 O 431.797 -0.943312 -1.53302 0
M  V30 4431 H 428.172 -0.59766 -0.456406 0
M  V30 4432 H 430.143 -2.79041 -1.05728 0
M  V30 4433 C 428.892 -2.16628 -2.7197 0
M  V30 4434 H 428.215 -3.02624 -2.61264 0
M  V30 4435 H 429.655 -2.43803 -3.46895 0
M  V30 4436 C 428.114 -0.971807 -3.22579 0
M  V30 4437 O 428.644 -0.203228 -4.01186 0
M  V30 4438 N 426.85 -0.771238 -2.80179 0
M  V30 4439 H 426.397 -1.39792 -2.1637 0
M  V30 4440 H 426.355 0.0263667 -3.14389 0
M  V30 4441 N 430.127 0.543554 -1.4793 0
M  V30 4442 C 431.074 1.64942 -1.6144 0
M  V30 4443 C 432.044 1.59692 -0.456903 0
M  V30 4444 O 433.229 1.78321 -0.678688 0
M  V30 4445 C 430.369 3.03238 -1.64744 0
M  V30 4446 C 429.482 3.18823 -2.91506 0
M  V30 4447 C 428.617 4.47599 -2.86057 0
M  V30 4448 C 427.656 4.56664 -4.07584 0
M  V30 4449 N 426.793 5.76811 -4.00292 0
M  V30 4450 H 431.633 1.52733 -2.55884 0
M  V30 4451 H 429.17 0.7438 -1.2691 0
M  V30 4452 H 431.128 3.83339 -1.64641 0
M  V30 4453 H 429.758 3.1425 -0.738017 0
M  V30 4454 H 428.81 2.32064 -3.01414 0
M  V30 4455 H 430.122 3.21384 -3.81463 0
M  V30 4456 H 429.276 5.35975 -2.84281 0
M  V30 4457 H 428.015 4.47538 -1.93807 0
M  V30 4458 H 427.02 3.66697 -4.09651 0
M  V30 4459 H 428.245 4.58474 -5.00978 0
M  V30 4460 H 426.191 5.77673 -3.10853 0
M  V30 4461 H 426.108 5.80808 -4.8394 0
M  V30 4462 H 427.376 6.67512 -4.02553 0
M  V30 4463 N 431.605 1.3629 0.791371 0
M  V30 4464 C 432.535 1.33137 1.91825 0
M  V30 4465 C 433.516 0.203168 1.68882 0
M  V30 4466 O 434.701 0.400509 1.90025 0
M  V30 4467 C 431.831 1.11793 3.28816 0
M  V30 4468 C 430.785 2.21417 3.66277 0
M  V30 4469 C 430.111 1.85218 5.01596 0
M  V30 4470 C 431.411 3.63489 3.75064 0
M  V30 4471 H 433.105 2.2743 1.9472 0
M  V30 4472 H 430.651 1.09479 0.935437 0
M  V30 4473 H 432.604 1.08222 4.07266 0
M  V30 4474 H 431.328 0.139501 3.26302 0
M  V30 4475 H 429.987 2.2411 2.90121 0
M  V30 4476 H 429.635 0.859544 4.95602 0
M  V30 4477 H 429.335 2.58611 5.27631 0
M  V30 4478 H 430.859 1.832 5.82469 0
M  V30 4479 H 432.273 3.63034 4.43711 0
M  V30 4480 H 430.67 4.35771 4.12582 0
M  V30 4481 H 431.74 3.98536 2.76219 0
M  V30 4482 N 433.083 -1.0153 1.20538 0
M  V30 4483 C 434.329 -1.75408 1.01783 0
M  V30 4484 C 434.662 -1.88943 -0.448814 0
M  V30 4485 O 433.937 -1.4162 -1.33319 0
M  V30 4486 C 434.22 -3.17255 1.70356 0
M  V30 4487 C 434.073 -3.11508 3.24473 0
M  V30 4488 C 435.392 -4.15955 1.43769 0
M  V30 4489 H 432.511 -0.636713 0.371167 0
M  V30 4490 H 435.153 -1.18436 1.4857 0
M  V30 4491 H 433.303 -3.65898 1.30578 0
M  V30 4492 H 434.975 -2.70658 3.73553 0
M  V30 4493 H 433.218 -2.4887 3.55311 0
M  V30 4494 H 433.889 -4.11784 3.67611 0
M  V30 4495 H 436.365 -3.75973 1.7828 0
M  V30 4496 H 435.241 -5.13368 1.94279 0
M  V30 4497 H 435.502 -4.40586 0.365564 0
M  V30 4498 N 434.561 -1.01147 -1.20859 0
M  V30 4499 C 435.524 -0.582224 -2.21682 0
M  V30 4500 C 436.524 0.344887 -1.57058 0
M  V30 4501 O 437.714 0.134281 -1.73682 0
M  V30 4502 C 434.846 0.150496 -3.40568 0
M  V30 4503 H 436.039 -1.47408 -2.61172 0
M  V30 4504 H 433.592 -0.800695 -1.34233 0
M  V30 4505 H 434.327 1.0575 -3.06574 0
M  V30 4506 H 434.112 -0.515444 -3.88697 0
M  V30 4507 H 435.602 0.438344 -4.15293 0
M  V30 4508 N 436.039 1.36541 -0.78704 0
M  V30 4509 C 437.002 2.28413 -0.189778 0
M  V30 4510 C 438.002 1.48719 0.611499 0
M  V30 4511 O 439.192 1.68737 0.432842 0
M  V30 4512 C 436.324 3.32824 0.737638 0
M  V30 4513 H 437.517 2.82743 -0.999831 0
M  V30 4514 H 435.07 1.46065 -0.556298 0
M  V30 4515 H 435.805 2.83646 1.57212 0
M  V30 4516 H 435.59 3.91752 0.165044 0
M  V30 4517 H 437.08 4.0144 1.15047 0
M  V30 4518 N 437.518 0.538854 1.48102 0
M  V30 4519 C 438.468 -0.23907 2.26743 0
M  V30 4520 C 439.452 -0.901923 1.33245 0
M  V30 4521 O 440.644 -0.803263 1.57723 0
M  V30 4522 C 437.773 -1.2799 3.18549 0
M  V30 4523 C 436.859 -0.621388 4.19523 0
M  V30 4524 N 437.25 0.298004 5.04921 0
M  V30 4525 C 435.548 -0.877533 4.37282 0
M  V30 4526 C 436.249 0.678757 5.77726 0
M  V30 4527 N 435.225 0.0377881 5.43587 0
M  V30 4528 H 439.027 0.468096 2.90148 0
M  V30 4529 H 436.541 0.357497 1.58416 0
M  V30 4530 H 438.538 -1.851 3.73555 0
M  V30 4531 H 437.198 -1.98835 2.567 0
M  V30 4532 H 438.209 0.671126 5.13533 0
M  V30 4533 H 434.886 -1.57588 3.86616 0
M  V30 4534 H 436.276 1.43316 6.56437 0
M  V30 4535 N 438.996 -1.55193 0.274407 0
M  V30 4536 C 440.221 -2.04446 -0.348824 0
M  V30 4537 C 440.646 -1.15149 -1.48735 0
M  V30 4538 O 440.004 -0.149952 -1.80679 0
M  V30 4539 C 440.052 -3.51431 -0.808009 0
M  V30 4540 O 439.156 -3.65225 -1.91531 0
M  V30 4541 H 438.497 -0.66006 -0.0722276 0
M  V30 4542 H 441.027 -2.00481 0.408498 0
M  V30 4543 H 441.037 -3.92781 -1.10395 0
M  V30 4544 H 439.712 -4.15892 0.0249865 0
M  V30 4545 H 438.289 -3.35778 -1.62196 0
M  V30 4546 N 440.474 -0.00167713 -1.576 0
M  V30 4547 C 441.699 0.69739 -1.95323 0
M  V30 4548 C 442.124 1.6642 -0.876706 0
M  V30 4549 O 441.482 1.80548 0.165007 0
M  V30 4550 C 441.53 1.40403 -3.32144 0
M  V30 4551 O 440.634 2.5185 -3.26566 0
M  V30 4552 H 439.975 0.185373 -0.637599 0
M  V30 4553 H 442.505 -0.0553665 -2.04525 0
M  V30 4554 H 442.515 1.76707 -3.67748 0
M  V30 4555 H 441.19 0.695167 -4.10049 0
M  V30 4556 H 439.767 2.17861 -3.0264 0
M  V30 4557 N 441.952 1.55251 0.271103 0
M  V30 4558 C 442.915 1.87484 1.31842 0
M  V30 4559 C 443.915 0.749545 1.42262 0
M  V30 4560 O 445.105 1.01771 1.4138 0
M  V30 4561 C 442.237 2.0818 2.69951 0
M  V30 4562 H 443.43 2.81108 1.0449 0
M  V30 4563 H 440.983 1.47771 0.509258 0
M  V30 4564 H 441.718 1.16944 3.02481 0
M  V30 4565 H 441.503 2.90114 2.63774 0
M  V30 4566 H 442.993 2.34385 3.4562 0
M  V30 4567 N 443.43 -0.535701 1.48216 0
M  V30 4568 C 444.362 -1.65662 1.58394 0
M  V30 4569 C 445.375 -1.5591 0.468607 0
M  V30 4570 O 446.564 -1.62475 0.7392 0
M  V30 4571 C 443.664 -3.04276 1.4923 0
M  V30 4572 C 442.837 -3.39567 2.75705 0
M  V30 4573 C 441.896 -4.57436 2.60075 0
M  V30 4574 O 440.922 -4.60942 3.33948 0
M  V30 4575 N 442.124 -5.55259 1.69315 0
M  V30 4576 H 444.889 -1.5737 2.55058 0
M  V30 4577 H 442.45 -0.722845 1.44867 0
M  V30 4578 H 444.442 -3.80994 1.36477 0
M  V30 4579 H 443.012 -3.06677 0.605632 0
M  V30 4580 H 442.232 -2.52083 3.03064 0
M  V30 4581 H 443.52 -3.59929 3.59623 0
M  V30 4582 H 442.918 -5.552 1.08489 0
M  V30 4583 H 441.475 -6.31218 1.62504 0
M  V30 4584 N 444.908 -1.36708 -0.784132 0
M  V30 4585 C 445.856 -1.31533 -1.91838 0
M  V30 4586 C 446.85 -0.206205 -1.6814 0
M  V30 4587 O 448.056 -0.373519 -1.76082 0
M  V30 4588 H 444.431 -0.409613 -0.630651 0
M  V30 4589 H 446.402 -2.2731 -1.9332 0
M  V30 4590 C 445.151 -1.12679 -3.28936 0
M  V30 4591 H 444.474 -1.97274 -3.4774 0
M  V30 4592 H 445.914 -1.13106 -4.08636 0
M  V30 4593 C 444.373 0.168281 -3.36479 0
M  V30 4594 O 444.903 1.15625 -3.84699 0
M  V30 4595 N 443.109 0.214762 -2.89805 0
M  V30 4596 H 442.656 -0.589852 -2.50756 0
M  V30 4597 H 442.614 1.08094 -2.95234 0
M  V30 4598 N 446.386 1.0089 -1.21074 0
M  V30 4599 C 447.333 2.09588 -0.966512 0
M  V30 4600 C 448.303 1.65761 0.106089 0
M  V30 4601 O 449.488 1.90758 -0.0402287 0
M  V30 4602 C 446.628 3.40958 -0.533058 0
M  V30 4603 C 445.741 3.9822 -1.67467 0
M  V30 4604 C 444.876 5.17682 -1.19076 0
M  V30 4605 C 443.915 5.67043 -2.30496 0
M  V30 4606 N 443.052 6.77759 -1.83267 0
M  V30 4607 H 447.892 2.29815 -1.89708 0
M  V30 4608 H 445.429 1.12689 -0.945489 0
M  V30 4609 H 447.387 4.1637 -0.263019 0
M  V30 4610 H 446.017 3.20781 0.360505 0
M  V30 4611 H 445.069 3.1983 -2.05944 0
M  V30 4612 H 446.381 4.3085 -2.51336 0
M  V30 4613 H 445.535 6.00326 -0.877151 0
M  V30 4614 H 444.274 4.86635 -0.322066 0
M  V30 4615 H 443.279 4.82999 -2.62664 0
M  V30 4616 H 444.504 6.00121 -3.17855 0
M  V30 4617 H 442.45 6.48527 -0.987356 0
M  V30 4618 H 442.367 7.09624 -2.60711 0
M  V30 4619 H 443.635 7.63949 -1.54928 0
M  V30 4620 N 447.864 1.01787 1.20321 0
M  V30 4621 C 448.812 0.58254 2.25187 0
M  V30 4622 C 449.806 -0.379359 1.65098 0
M  V30 4623 O 451.012 -0.249142 1.78267 0
M  V30 4624 H 447.387 0.170078 0.732514 0
M  V30 4625 H 449.358 1.47788 2.59232 0
M  V30 4626 C 448.107 -0.0620885 3.47645 0
M  V30 4627 H 447.43 0.669069 3.94162 0
M  V30 4628 H 448.87 -0.329784 4.22716 0
M  V30 4629 C 447.329 -1.3053 3.10586 0
M  V30 4630 O 447.859 -2.39848 3.22236 0
M  V30 4631 N 446.065 -1.18988 2.65123 0
M  V30 4632 H 445.612 -0.300341 2.55843 0
M  V30 4633 H 445.57 -2.02267 2.40698 0
M  V30 4634 N 449.342 -1.36122 0.79427 0
M  V30 4635 C 450.29 -2.31871 0.184023 0
M  V30 4636 C 451.284 -1.56041 -0.659365 0
M  V30 4637 O 452.49 -1.71266 -0.553906 0
M  V30 4638 H 448.865 -0.750896 0.0407373 0
M  V30 4639 H 450.836 -2.80898 1.00693 0
M  V30 4640 C 449.585 -3.41324 -0.662813 0
M  V30 4641 H 448.908 -3.99793 -0.0231944 0
M  V30 4642 H 450.348 -4.10629 -1.05639 0
M  V30 4643 C 448.807 -2.83308 -1.82313 0
M  V30 4644 O 449.337 -2.75863 -2.91997 0
M  V30 4645 N 447.543 -2.40529 -1.63077 0
M  V30 4646 H 447.09 -2.46785 -0.738591 0
M  V30 4647 H 447.048 -2.02059 -2.40872 0
M  V30 4648 N 450.82 -0.546701 -1.47814 0
M  V30 4649 C 452.097 0.0464413 -1.95545 0
M  V30 4650 C 452.477 1.4962 -1.48919 0
M  V30 4651 O 451.825 2.16752 -0.723232 0
M  V30 4652 C 452.035 -0.0881298 -3.48889 0
M  V30 4653 C 453.383 0.0626059 -4.24554 0
M  V30 4654 O 454.407 -0.0151555 -3.56197 0
M  V30 4655 O 453.266 0.228071 -5.46024 0
M  V30 4656 H 450.36 0.0700004 -0.824032 0
M  V30 4657 H 452.906 -0.612482 -1.58262 0
M  V30 4658 H 451.678 -1.09737 -3.75597 0
M  V30 4659 H 451.301 0.608886 -3.9291 0
M  V30 4660 N 452.299 1.55045 -0.282633 0
M  V30 4661 C 453.529 2.03872 0.334635 0
M  V30 4662 C 453.937 1.16018 1.49454 0
M  V30 4663 O 453.28 0.174449 1.8287 0
M  V30 4664 C 453.342 3.48791 0.870905 0
M  V30 4665 C 453.006 4.56715 -0.161338 0
M  V30 4666 C 454.003 5.10513 -0.983466 0
M  V30 4667 C 451.688 5.01417 -0.297745 0
M  V30 4668 C 453.682 6.07538 -1.92811 0
M  V30 4669 C 451.369 5.98265 -1.24586 0
M  V30 4670 C 452.367 6.51208 -2.05954 0
M  V30 4671 O 452.055 7.46162 -2.99162 0
M  V30 4672 H 451.787 0.671324 0.0793742 0
M  V30 4673 H 454.341 2.01169 -0.41473 0
M  V30 4674 H 452.571 3.48758 1.67047 0
M  V30 4675 H 454.26 3.80916 1.40207 0
M  V30 4676 H 455.026 4.76785 -0.888856 0
M  V30 4677 H 450.905 4.59849 0.325604 0
M  V30 4678 H 454.449 6.48787 -2.56363 0
M  V30 4679 H 450.346 6.31412 -1.34126 0
M  V30 4680 H 451.114 7.63903 -2.93929 0
M  V30 4681 N 453.777 0.010035 1.57597 0
M  V30 4682 C 455.005 -0.683413 1.95287 0
M  V30 4683 C 455.42 -1.66747 0.885481 0
M  V30 4684 O 454.777 -1.82003 -0.134629 0
M  V30 4685 C 454.828 -1.40652 3.33015 0
M  V30 4686 O 454.549 -0.461916 4.35658 0
M  V30 4687 C 456.05 -2.19356 3.85225 0
M  V30 4688 H 453.27 -0.189708 0.643624 0
M  V30 4689 H 455.814 0.0641359 2.04399 0
M  V30 4690 H 453.969 -2.10562 3.2518 0
M  V30 4691 H 454.383 -0.973215 5.15392 0
M  V30 4692 H 455.857 -2.65433 4.83993 0
M  V30 4693 H 456.334 -3.02457 3.18459 0
M  V30 4694 H 456.94 -1.54442 3.96267 0
M  V30 4695 N 455.255 -1.55392 -0.262866 0
M  V30 4696 C 456.671 -1.47459 -0.610582 0
M  V30 4697 C 456.871 -0.697031 -1.8906 0
M  V30 4698 O 455.927 -0.219952 -2.5154 0
M  V30 4699 C 457.24 -2.91751 -0.728131 0
M  V30 4700 C 458.788 -3.02027 -0.821517 0
M  V30 4701 C 459.263 -4.47594 -0.97076 0
M  V30 4702 N 460.754 -4.51465 -1.03603 0
M  V30 4703 C 461.489 -5.61326 -1.17049 0
M  V30 4704 N 460.985 -6.81032 -1.2715 0
M  V30 4705 N 462.778 -5.49089 -1.20239 0
M  V30 4706 H 454.929 -2.04395 0.577632 0
M  V30 4707 H 457.192 -0.927287 0.197086 0
M  V30 4708 H 456.898 -3.51413 0.142132 0
M  V30 4709 H 456.772 -3.4134 -1.6052 0
M  V30 4710 H 459.159 -2.42456 -1.68224 0
M  V30 4711 H 459.24 -2.55674 0.0803688 0
M  V30 4712 H 458.884 -5.07771 -0.114655 0
M  V30 4713 H 458.814 -4.91613 -1.88745 0
M  V30 4714 H 461.305 -3.6524 -0.96996 0
M  V30 4715 H 461.618 -7.60511 -1.37271 0
M  V30 4716 H 459.963 -6.83824 -1.24136 0
M  V30 4717 H 463.154 -4.54507 -1.11985 0
M  V30 4718 H 463.327 -6.34749 -1.30373 0
M  V30 4719 N 456.733 0.527833 -1.48498 0
M  V30 4720 C 457.958 1.313 -1.60546 0
M  V30 4721 C 458.383 1.86199 -0.26672 0
M  V30 4722 O 457.741 1.64513 0.761918 0
M  V30 4723 C 457.789 2.43818 -2.65678 0
M  V30 4724 O 456.893 3.46916 -2.22987 0
M  V30 4725 H 456.234 0.388784 -0.538277 0
M  V30 4726 H 458.764 0.634896 -1.945 0
M  V30 4727 H 458.774 2.89973 -2.87018 0
M  V30 4728 H 457.449 2.03222 -3.62869 0
M  V30 4729 H 456.026 3.06864 -2.11869 0
M  V30 4730 N 458.211 1.37122 0.776871 0
M  V30 4731 C 459.488 1.22586 1.52421 0
M  V30 4732 C 459.868 -0.182726 2.10308 0
M  V30 4733 O 459.216 -1.18979 1.9508 0
M  V30 4734 C 459.426 2.31782 2.60918 0
M  V30 4735 C 460.774 2.69071 3.2846 0
M  V30 4736 O 461.798 2.3092 2.71209 0
M  V30 4737 O 460.657 3.3478 4.31954 0
M  V30 4738 H 457.751 0.478045 0.674835 0
M  V30 4739 H 460.297 1.48888 0.814275 0
M  V30 4740 H 459.069 3.26131 2.16227 0
M  V30 4741 H 458.692 2.06916 3.39517 0
M  V30 4742 N 459.689 -1.00246 1.21608 0
M  V30 4743 C 460.938 -1.73476 1.02902 0
M  V30 4744 C 461.251 -1.90643 -0.437561 0
M  V30 4745 O 462.457 -2.61105 -0.74407 0
M  V30 4746 C 460.913 -3.12079 1.79261 0
M  V30 4747 C 460.521 -3.02877 3.30106 0
M  V30 4748 C 462.265 -3.89421 1.68972 0
M  V30 4749 C 460.172 -4.36575 3.98944 0
M  V30 4750 H 459.102 -0.650408 0.381425 0
M  V30 4751 H 461.753 -1.11985 1.45367 0
M  V30 4752 H 460.135 -3.74196 1.2959 0
M  V30 4753 H 461.309 -2.49983 3.87098 0
M  V30 4754 H 459.624 -2.39022 3.40965 0
M  V30 4755 H 462.221 -4.88362 2.17731 0
M  V30 4756 H 462.564 -4.1122 0.648397 0
M  V30 4757 H 463.097 -3.33963 2.16133 0
M  V30 4758 H 459.836 -4.19978 5.03288 0
M  V30 4759 H 459.356 -4.8942 3.4674 0
M  V30 4760 H 461.035 -5.05364 4.04 0
M  V30 4761 N 461.167 -1.02423 -1.1978 0
M  V30 4762 C 462.392 -0.7373 -1.93852 0
M  V30 4763 C 462.817 0.696923 -1.74713 0
M  V30 4764 O 462.175 1.48056 -1.04638 0
M  V30 4765 C 462.223 -1.08783 -3.438 0
M  V30 4766 O 461.327 -0.20383 -4.11896 0
M  V30 4767 H 460.668 -0.27284 -0.605355 0
M  V30 4768 H 463.198 -1.36966 -1.51992 0
M  V30 4769 H 463.208 -1.04276 -3.9445 0
M  V30 4770 H 461.883 -2.13274 -3.57053 0
M  V30 4771 H 460.46 -0.307091 -3.71633 0
M  V30 4772 N 462.645 1.35699 -0.801477 0
M  V30 4773 C 463.575 2.32436 -0.222658 0
M  V30 4774 C 464.556 1.5723 0.649057 0
M  V30 4775 O 465.741 1.85324 0.580387 0
M  V30 4776 C 462.871 3.41469 0.633719 0
M  V30 4777 C 461.825 4.27774 -0.139083 0
M  V30 4778 C 461.151 5.28082 0.838666 0
M  V30 4779 C 462.451 5.04946 -1.33517 0
M  V30 4780 H 464.145 2.81094 -1.03086 0
M  V30 4781 H 461.691 1.35146 -0.497155 0
M  V30 4782 H 463.644 4.08143 1.04868 0
M  V30 4783 H 462.368 2.91408 1.47475 0
M  V30 4784 H 461.027 3.62673 -0.535156 0
M  V30 4785 H 460.675 4.7429 1.67506 0
M  V30 4786 H 460.375 5.86695 0.32594 0
M  V30 4787 H 461.899 5.97628 1.25194 0
M  V30 4788 H 463.313 5.64593 -0.995349 0
M  V30 4789 H 461.71 5.7303 -1.78202 0
M  V30 4790 H 462.78 4.35886 -2.12442 0
M  V30 4791 N 464.123 0.554532 1.47522 0
M  V30 4792 C 465.353 0.0342074 2.06572 0
M  V30 4793 C 465.761 -1.26375 1.40805 0
M  V30 4794 O 465.104 -1.7683 0.49769 0
M  V30 4795 C 465.166 -0.235096 3.5873 0
M  V30 4796 C 464.83 0.973024 4.46521 0
M  V30 4797 C 465.827 1.8779 4.848 0
M  V30 4798 C 463.512 1.18694 4.88075 0
M  V30 4799 C 465.506 2.98039 5.63428 0
M  V30 4800 C 463.193 2.29254 5.66468 0
M  V30 4801 C 464.191 3.18757 6.04055 0
M  V30 4802 O 463.879 4.27401 6.8087 0
M  V30 4803 H 463.611 0.041587 0.67472 0
M  V30 4804 H 466.165 0.766748 1.90552 0
M  V30 4805 H 464.395 -1.02191 3.72953 0
M  V30 4806 H 466.084 -0.700477 3.9981 0
M  V30 4807 H 466.85 1.72467 4.53299 0
M  V30 4808 H 462.729 0.49947 4.58286 0
M  V30 4809 H 466.273 3.67926 5.92685 0
M  V30 4810 H 462.17 2.4455 5.97382 0
M  V30 4811 H 462.938 4.25415 6.9926 0
M  V30 4812 N 465.601 -1.54893 0.290851 0
M  V30 4813 C 466.564 -2.21824 -0.576784 0
M  V30 4814 C 467.564 -1.20104 -1.06919 0
M  V30 4815 O 468.754 -1.44906 -0.966843 0
M  V30 4816 C 465.886 -2.89662 -1.79747 0
M  V30 4817 H 467.079 -2.99899 0.00784051 0
M  V30 4818 H 464.632 -1.56245 0.0415934 0
M  V30 4819 H 465.367 -2.15639 -2.42219 0
M  V30 4820 H 465.152 -3.64219 -1.45214 0
M  V30 4821 H 466.642 -3.4075 -2.4141 0
M  V30 4822 N 467.08 -0.0183926 -1.57589 0
M  V30 4823 C 468.03 0.975944 -2.06057 0
M  V30 4824 C 469.014 1.29204 -0.958908 0
M  V30 4825 O 470.206 1.27995 -1.22255 0
M  V30 4826 C 467.335 2.26194 -2.58247 0
M  V30 4827 C 466.421 1.97467 -3.75323 0
M  V30 4828 N 466.812 1.38968 -4.86335 0
M  V30 4829 C 465.11 2.27515 -3.83605 0
M  V30 4830 C 465.811 1.27131 -5.67638 0
M  V30 4831 N 464.787 1.76319 -5.14211 0
M  V30 4832 H 468.589 0.518444 -2.89291 0
M  V30 4833 H 466.103 0.18688 -1.61321 0
M  V30 4834 H 468.1 2.98289 -2.91255 0
M  V30 4835 H 466.76 2.7258 -1.76438 0
M  V30 4836 H 467.771 1.06608 -5.06809 0
M  V30 4837 H 464.448 2.76649 -3.12684 0
M  V30 4838 H 465.838 0.819882 -6.66879 0
M  V30 4839 N 468.558 1.5553 0.254621 0
M  V30 4840 C 469.506 1.9048 1.33492 0
M  V30 4841 C 470.5 0.78304 1.50216 0
M  V30 4842 O 471.706 0.967582 1.51782 0
M  V30 4843 H 468.081 0.604846 0.44684 0
M  V30 4844 H 470.052 2.80688 1.01275 0
M  V30 4845 C 468.801 2.20928 2.68489 0
M  V30 4846 H 468.124 3.06742 2.56417 0
M  V30 4847 H 469.564 2.49291 3.42972 0
M  V30 4848 C 468.023 1.023 3.20993 0
M  V30 4849 O 468.553 0.267027 4.00811 0
M  V30 4850 N 466.759 0.815714 2.78917 0
M  V30 4851 H 466.306 1.43217 2.14119 0
M  V30 4852 H 466.264 0.0236532 3.14391 0
M  V30 4853 N 470.036 -0.519951 1.48776 0
M  V30 4854 C 470.966 -1.63253 1.66945 0
M  V30 4855 C 471.947 -1.62014 0.518224 0
M  V30 4856 O 473.132 -1.79053 0.751919 0
M  V30 4857 C 470.262 -3.0181 1.71836 0
M  V30 4858 C 469.216 -3.17911 2.8656 0
M  V30 4859 C 468.542 -4.5763 2.76548 0
M  V30 4860 C 469.842 -2.99729 4.27738 0
M  V30 4861 H 471.536 -1.48302 2.6009 0
M  V30 4862 H 469.082 -0.712026 1.25165 0
M  V30 4863 H 471.035 -3.79525 1.83135 0
M  V30 4864 H 469.759 -3.17806 0.752775 0
M  V30 4865 H 468.418 -2.42616 2.74833 0
M  V30 4866 H 468.066 -4.70476 1.77937 0
M  V30 4867 H 467.766 -4.69346 3.53536 0
M  V30 4868 H 469.29 -5.37431 2.89828 0
M  V30 4869 H 470.704 -3.67228 4.40246 0
M  V30 4870 H 469.101 -3.22932 5.05801 0
M  V30 4871 H 470.171 -1.96047 4.43502 0
M  V30 4872 N 471.514 -1.37532 -0.769588 0
M  V30 4873 C 472.744 -1.35861 -1.55645 0
M  V30 4874 C 473.152 0.0574398 -1.89113 0
M  V30 4875 O 472.495 1.03021 -1.52093 0
M  V30 4876 C 472.557 -2.13431 -2.89288 0
M  V30 4877 C 472.221 -3.62378 -2.78444 0
M  V30 4878 C 473.218 -4.56215 -2.49326 0
M  V30 4879 C 470.903 -4.05529 -2.96398 0
M  V30 4880 C 472.897 -5.91181 -2.38294 0
M  V30 4881 C 470.584 -5.40579 -2.84987 0
M  V30 4882 C 471.582 -6.33218 -2.55975 0
M  V30 4883 O 471.27 -7.65787 -2.44594 0
M  V30 4884 H 471.002 -0.467001 -0.48876 0
M  V30 4885 H 473.556 -1.81505 -0.961515 0
M  V30 4886 H 471.786 -1.62481 -3.50909 0
M  V30 4887 H 473.475 -2.04368 -3.50697 0
M  V30 4888 H 474.241 -4.24187 -2.35139 0
M  V30 4889 H 470.12 -3.33781 -3.1798 0
M  V30 4890 H 473.664 -6.63457 -2.15571 0
M  V30 4891 H 469.561 -5.72209 -2.98743 0
M  V30 4892 H 470.329 -7.76132 -2.59927 0
M  V30 4893 N 472.992 0.995999 -1.22138 0
M  V30 4894 C 474.217 1.77601 -1.0711 0
M  V30 4895 C 474.642 1.84339 0.374264 0
M  V30 4896 O 474 1.29359 1.27028 0
M  V30 4897 C 474.048 3.18897 -1.68336 0
M  V30 4898 O 473.152 4.01663 -0.934928 0
M  V30 4899 H 472.493 0.547011 -0.376397 0
M  V30 4900 H 475.023 1.25137 -1.6187 0
M  V30 4901 H 475.033 3.69539 -1.72931 0
M  V30 4902 H 473.708 3.13308 -2.73516 0
M  V30 4903 H 472.285 3.60204 -0.964751 0
M  V30 4904 N 474.47 1.03057 1.19235 0
M  V30 4905 C 475.718 0.726581 1.88587 0
M  V30 4906 C 476.039 -0.747227 1.80115 0
M  V30 4907 O 475.309 -1.53849 1.21274 0
M  V30 4908 H 473.889 0.265768 0.698124 0
M  V30 4909 H 476.551 1.30516 1.44746 0
M  V30 4910 H 475.647 1.0224 2.94879 0
M  V30 4911 N 475.948 -1.35272 0.808662 0
M  V30 4912 C 476.858 -2.33546 0.222079 0
M  V30 4913 C 477.874 -1.6196 -0.636011 0
M  V30 4914 O 479.05 -1.93822 -0.547274 0
M  V30 4915 C 476.115 -3.41148 -0.61795 0
M  V30 4916 C 475.176 -4.28507 0.260875 0
M  V30 4917 C 474.409 -5.3097 -0.539156 0
M  V30 4918 O 474.632 -5.42123 -1.77367 0
M  V30 4919 O 473.566 -6.01858 0.0710526 0
M  V30 4920 H 477.392 -2.85515 1.03512 0
M  V30 4921 H 474.977 -1.38079 0.570495 0
M  V30 4922 H 476.859 -4.06889 -1.09634 0
M  V30 4923 H 475.534 -2.91447 -1.40855 0
M  V30 4924 H 474.441 -3.6574 0.786451 0
M  V30 4925 H 475.774 -4.81611 1.01547 0
M  V30 4926 N 477.426 -0.562348 -1.47226 0
M  V30 4927 C 478.672 -0.0402761 -2.0276 0
M  V30 4928 C 479.005 1.30823 -1.43523 0
M  V30 4929 O 478.28 1.85249 -0.592705 0
M  V30 4930 C 478.563 0.047311 -3.60069 0
M  V30 4931 C 478.416 -1.32865 -4.29729 0
M  V30 4932 C 479.735 0.758182 -4.3352 0
M  V30 4933 H 476.854 -0.0161105 -0.736824 0
M  V30 4934 H 479.496 -0.725628 -1.75598 0
M  V30 4935 H 477.646 0.630986 -3.83342 0
M  V30 4936 H 479.318 -1.95593 -4.17781 0
M  V30 4937 H 477.561 -1.90195 -3.89882 0
M  V30 4938 H 478.232 -1.22004 -5.38349 0
M  V30 4939 H 480.708 0.262546 -4.15271 0
M  V30 4940 H 479.584 0.78844 -5.43208 0
M  V30 4941 H 479.845 1.81537 -4.03109 0
M  V30 4942 N 478.904 1.54736 -0.299062 0
M  V30 4943 C 479.851 2.23448 0.577899 0
M  V30 4944 C 480.821 1.21637 1.13109 0
M  V30 4945 O 482.006 1.50252 1.17597 0
M  V30 4946 C 479.146 2.9774 1.74484 0
M  V30 4947 C 478.259 4.1432 1.22323 0
M  V30 4948 C 477.394 4.76199 2.35388 0
M  V30 4949 C 476.433 5.84927 1.80351 0
M  V30 4950 N 475.57 6.4077 2.86982 0
M  V30 4951 H 480.41 2.97996 -0.0146545 0
M  V30 4952 H 477.947 1.47088 -0.0190013 0
M  V30 4953 H 479.905 3.39045 2.43114 0
M  V30 4954 H 478.535 2.25572 2.30905 0
M  V30 4955 H 477.587 3.7797 0.429249 0
M  V30 4956 H 478.899 4.92659 0.780309 0
M  V30 4957 H 478.053 5.20346 3.11969 0
M  V30 4958 H 476.792 3.97188 2.83006 0
M  V30 4959 H 475.797 5.40207 1.02259 0
M  V30 4960 H 477.022 6.65821 1.3364 0
M  V30 4961 H 474.968 5.64643 3.33938 0
M  V30 4962 H 474.885 7.1445 2.4718 0
M  V30 4963 H 476.153 6.89574 3.63466 0
M  V30 4964 N 480.382 0.0267497 1.57577 0
M  V30 4965 C 481.312 -0.954308 2.13108 0
M  V30 4966 C 482.293 -1.34088 1.04663 0
M  V30 4967 O 483.478 -1.41992 1.32484 0
M  V30 4968 C 480.608 -2.23744 2.65624 0
M  V30 4969 C 479.562 -1.99168 3.78835 0
M  V30 4970 C 478.888 -3.33726 4.17769 0
M  V30 4971 C 480.188 -1.33277 5.0501 0
M  V30 4972 H 481.882 -0.491848 2.95332 0
M  V30 4973 H 479.428 -0.23514 1.42067 0
M  V30 4974 H 481.381 -2.92754 3.03106 0
M  V30 4975 H 480.105 -2.72151 1.80558 0
M  V30 4976 H 478.764 -1.32577 3.41788 0
M  V30 4977 H 478.412 -3.79888 3.29688 0
M  V30 4978 H 478.112 -3.18089 4.94058 0
M  V30 4979 H 479.636 -4.04008 4.57832 0
M  V30 4980 H 481.05 -1.92283 5.40093 0
M  V30 4981 H 479.447 -1.28045 5.8628 0
M  V30 4982 H 480.517 -0.305411 4.83937 0
M  V30 4983 N 481.861 -1.55662 -0.24637 0
M  V30 4984 C 483.11 -1.7672 -0.972254 0
M  V30 4985 C 483.423 -0.59078 -1.86465 0
M  V30 4986 O 484.629 -0.684391 -2.62732 0
M  V30 4987 C 483.085 -3.12869 -1.7788 0
M  V30 4988 C 482.693 -4.38161 -0.933768 0
M  V30 4989 C 484.437 -3.43265 -2.49738 0
M  V30 4990 C 482.344 -5.6534 -1.73623 0
M  V30 4991 H 481.274 -0.658795 -0.366749 0
M  V30 4992 H 483.925 -1.82092 -0.226902 0
M  V30 4993 H 482.307 -3.01606 -2.56612 0
M  V30 4994 H 483.481 -4.60413 -0.188736 0
M  V30 4995 H 481.796 -4.15102 -0.328488 0
M  V30 4996 H 484.393 -4.35501 -3.10231 0
M  V30 4997 H 484.736 -2.64614 -3.2138 0
M  V30 4998 H 485.269 -3.55746 -1.78016 0
M  V30 4999 H 482.008 -6.46814 -1.06354 0
M  V30 5000 H 481.528 -5.47188 -2.45653 0
M  V30 5001 H 483.207 -6.04616 -2.30323 0
M  V30 5002 N 483.339 0.512053 -1.4905 0
M  V30 5003 C 484.616 1.27337 -1.48474 0
M  V30 5004 C 484.996 2.1009 -0.206301 0
M  V30 5005 O 484.344 2.136 0.811609 0
M  V30 5006 C 484.554 2.13954 -2.75726 0
M  V30 5007 C 485.902 2.73507 -3.24776 0
M  V30 5008 O 486.926 2.24229 -2.76767 0
M  V30 5009 O 485.785 3.63186 -4.08361 0
M  V30 5010 H 482.879 0.575652 -0.593762 0
M  V30 5011 H 485.425 0.527232 -1.61302 0
M  V30 5012 H 484.197 1.52709 -3.60272 0
M  V30 5013 H 483.82 2.95782 -2.65705 0
M  V30 5014 N 484.817 1.37938 0.762283 0
M  V30 5015 C 486.094 1.24196 1.51112 0
M  V30 5016 C 486.474 -0.160409 2.1049 0
M  V30 5017 O 485.822 -1.16904 1.96331 0
M  V30 5018 C 486.032 2.34537 2.58445 0
M  V30 5019 C 487.38 2.7254 3.25588 0
M  V30 5020 O 488.404 2.33783 2.68745 0
M  V30 5021 O 487.263 3.39343 4.28379 0
M  V30 5022 H 484.357 0.485175 0.669727 0
M  V30 5023 H 486.903 1.49743 0.798438 0
M  V30 5024 H 485.675 3.28406 2.12756 0
M  V30 5025 H 485.298 2.10505 3.37303 0
M  V30 5026 N 486.295 -0.989507 1.22664 0
M  V30 5027 C 487.542 -1.72953 1.05325 0
M  V30 5028 C 487.87 -1.90104 -0.411168 0
M  V30 5029 O 487.125 -1.44386 -1.32103 0
M  V30 5030 C 487.424 -3.13649 1.71345 0
M  V30 5031 C 487.09 -3.16403 3.21248 0
M  V30 5032 C 485.752 -3.16862 3.62149 0
M  V30 5033 C 488.104 -3.12428 4.17179 0
M  V30 5034 C 485.432 -3.11051 4.97458 0
M  V30 5035 C 487.784 -3.08159 5.52468 0
M  V30 5036 C 486.448 -3.06935 5.92746 0
M  V30 5037 H 485.718 -0.632881 0.385412 0
M  V30 5038 H 488.365 -1.15863 1.52473 0
M  V30 5039 H 486.67 -3.74069 1.16532 0
M  V30 5040 H 488.367 -3.69658 1.55416 0
M  V30 5041 H 484.957 -3.16798 2.88682 0
M  V30 5042 H 489.141 -3.11221 3.86595 0
M  V30 5043 H 484.397 -3.0845 5.27891 0
M  V30 5044 H 488.571 -3.04039 6.26525 0
M  V30 5045 H 486.198 -3.02186 6.97558 0
M  V30 5046 N 487.773 -1.03688 -1.18687 0
M  V30 5047 C 489.003 -0.756819 -1.92239 0
M  V30 5048 C 489.411 0.689374 -1.76194 0
M  V30 5049 O 488.754 1.48126 -1.08648 0
M  V30 5050 C 488.816 -1.03851 -3.44173 0
M  V30 5051 C 488.48 -2.47785 -3.83994 0
M  V30 5052 C 489.477 -3.4595 -3.88091 0
M  V30 5053 C 487.162 -2.82397 -4.154 0
M  V30 5054 C 489.156 -4.76779 -4.23038 0
M  V30 5055 C 486.843 -4.13433 -4.50018 0
M  V30 5056 C 487.841 -5.10434 -4.53813 0
M  V30 5057 O 487.529 -6.39122 -4.87625 0
M  V30 5058 H 487.261 -0.275678 -0.617234 0
M  V30 5059 H 489.815 -1.38658 -1.51536 0
M  V30 5060 H 488.045 -0.351612 -3.85098 0
M  V30 5061 H 489.734 -0.746846 -3.9897 0
M  V30 5062 H 490.5 -3.20549 -3.63969 0
M  V30 5063 H 486.379 -2.07568 -4.11627 0
M  V30 5064 H 489.923 -5.52488 -4.25914 0
M  V30 5065 H 485.82 -4.38604 -4.736 0
M  V30 5066 H 486.588 -6.43715 -5.05542 0
M  V30 5067 N 489.251 1.34841 -0.815825 0
M  V30 5068 C 490.662 1.80937 -0.46029 0
M  V30 5069 C 491.013 1.67685 1.01863 0
M  V30 5070 O 490.138 1.21277 1.79223 0
M  V30 5071 C 490.733 3.28509 -0.828708 0
M  V30 5072 C 489.292 3.72712 -0.525644 0
M  V30 5073 C 488.439 2.56676 -1.04941 0
M  V30 5074 H 491.39 1.22688 -1.00664 0
M  V30 5075 H 491.411 3.80279 -0.129757 0
M  V30 5076 H 490.923 3.38122 -1.90513 0
M  V30 5077 H 489.024 3.68642 0.541666 0
M  V30 5078 H 489.137 4.67119 -1.06474 0
M  V30 5079 H 487.501 2.50302 -0.471286 0
M  V30 5080 H 488.284 2.69063 -2.13214 0
M  V30 5081 N 490.729 0.570148 1.46925 0
M  V30 5082 C 491.676 -0.170257 2.30171 0
M  V30 5083 C 492.646 -0.896099 1.39855 0
M  V30 5084 O 493.831 -0.889248 1.68811 0
M  V30 5085 C 490.971 -1.18605 3.24079 0
M  V30 5086 C 490.084 -0.464947 4.29491 0
M  V30 5087 C 489.219 -1.46716 5.10537 0
M  V30 5088 C 488.258 -0.731758 6.0771 0
M  V30 5089 N 487.395 -1.68142 6.81669 0
M  V30 5090 H 492.235 0.545713 2.92961 0
M  V30 5091 H 489.772 0.280938 1.44392 0
M  V30 5092 H 491.73 -1.78771 3.76957 0
M  V30 5093 H 490.36 -1.86989 2.63125 0
M  V30 5094 H 489.412 0.251506 3.79568 0
M  V30 5095 H 490.724 0.110548 4.98677 0
M  V30 5096 H 489.878 -2.14199 5.6763 0
M  V30 5097 H 488.617 -2.07658 4.41282 0
M  V30 5098 H 487.622 -0.0430787 5.49783 0
M  V30 5099 H 488.847 -0.127904 6.7898 0
M  V30 5100 H 486.793 -2.27918 6.15134 0
M  V30 5101 H 486.71 -1.15841 7.47072 0
M  V30 5102 H 487.978 -2.347 7.43328 0
M  V30 5103 N 492.207 -1.54576 0.307264 0
M  V30 5104 C 493.453 -2.0056 -0.300612 0
M  V30 5105 C 493.786 -1.1953 -1.53057 0
M  V30 5106 O 493.061 -0.27337 -1.92569 0
M  V30 5107 C 493.344 -3.54167 -0.650987 0
M  V30 5108 C 493.197 -4.45933 0.588539 0
M  V30 5109 C 494.516 -4.14645 -1.47506 0
M  V30 5110 H 491.635 -0.729075 -0.107788 0
M  V30 5111 H 494.277 -1.85286 0.420606 0
M  V30 5112 H 492.427 -3.67313 -1.26544 0
M  V30 5113 H 494.099 -4.44683 1.22697 0
M  V30 5114 H 492.342 -4.16274 1.22058 0
M  V30 5115 H 493.013 -5.51189 0.299153 0
M  V30 5116 H 495.489 -4.04973 -0.955821 0
M  V30 5117 H 494.365 -5.22269 -1.68899 0
M  V30 5118 H 494.626 -3.66921 -2.4662 0
M  V30 5119 N 493.685 -0.035106 -1.57561 0
M  V30 5120 C 494.933 0.64096 -1.91667 0
M  V30 5121 C 495.254 1.72323 -0.912681 0
M  V30 5122 O 494.524 1.95849 0.0449089 0
M  V30 5123 H 493.104 0.239743 -0.707483 0
M  V30 5124 H 495.766 -0.084321 -1.94718 0
M  V30 5125 H 494.862 1.08987 -2.92452 0
M  V30 5126 N 495.163 1.55791 0.238111 0
M  V30 5127 C 496.111 1.91885 1.31464 0
M  V30 5128 C 497.105 0.798929 1.49377 0
M  V30 5129 O 498.311 0.983626 1.50747 0
M  V30 5130 H 494.686 0.609551 0.440399 0
M  V30 5131 H 496.657 2.81747 0.982925 0
M  V30 5132 C 495.406 2.23763 2.6613 0
M  V30 5133 H 494.729 3.09444 2.53149 0
M  V30 5134 H 496.169 2.52915 3.40309 0
M  V30 5135 C 494.628 1.05699 3.1989 0
M  V30 5136 O 495.158 0.309524 4.00506 0
M  V30 5137 N 493.364 0.845251 2.78036 0
M  V30 5138 H 492.911 1.4548 2.12588 0
M  V30 5139 H 492.869 0.0569973 3.14348 0
M  V30 5140 N 496.642 -0.504142 1.49319 0
M  V30 5141 C 497.605 -1.5883 1.65244 0
M  V30 5142 C 498.605 -1.52009 0.524386 0
M  V30 5143 O 499.795 -1.55218 0.79077 0
M  V30 5144 C 496.927 -2.98481 1.64687 0
M  V30 5145 H 498.12 -1.4604 2.61939 0
M  V30 5146 H 495.673 -0.728144 1.38303 0
M  V30 5147 H 496.408 -3.16751 0.695644 0
M  V30 5148 H 496.193 -3.0484 2.46607 0
M  V30 5149 H 497.683 -3.77256 1.79075 0
M  V30 5150 N 498.12 -1.38341 -0.754957 0
M  V30 5151 C 499.345 -1.37882 -1.5493 0
M  V30 5152 C 499.77 0.0296385 -1.88077 0
M  V30 5153 O 499.128 1.01133 -1.50472 0
M  V30 5154 C 499.176 -2.23996 -2.82592 0
M  V30 5155 O 498.28 -1.65612 -3.77686 0
M  V30 5156 H 497.621 -0.470384 -0.468652 0
M  V30 5157 H 500.151 -1.82084 -0.933082 0
M  V30 5158 H 500.161 -2.37806 -3.3153 0
M  V30 5159 H 498.836 -3.26365 -2.57796 0
M  V30 5160 H 497.413 -1.60936 -3.36384 0
M  V30 5161 N 499.598 0.982988 -1.23187 0
M  V30 5162 C 500.846 1.72052 -1.06031 0
M  V30 5163 C 501.167 1.90769 0.404019 0
M  V30 5164 O 500.437 1.47446 1.28982 0
M  V30 5165 H 499.017 0.637499 -0.389363 0
M  V30 5166 H 501.679 1.18338 -1.54862 0
M  V30 5167 H 500.775 2.7111 -1.54615 0
M  V30 5168 N 501.076 1.04316 1.18135 0
M  V30 5169 C 502.039 0.640794 2.2006 0
M  V30 5170 C 503.039 -0.303124 1.57917 0
M  V30 5171 O 504.229 -0.0881855 1.73977 0
M  V30 5172 C 501.361 -0.060148 3.40847 0
M  V30 5173 H 502.554 1.54281 2.57172 0
M  V30 5174 H 500.107 0.836004 1.32063 0
M  V30 5175 H 500.842 -0.975845 3.0927 0
M  V30 5176 H 500.627 0.618319 3.87194 0
M  V30 5177 H 502.117 -0.328082 4.16309 0
M  V30 5178 N 502.554 -1.34406 0.822964 0
M  V30 5179 C 503.802 -1.97892 0.410245 0
M  V30 5180 C 504.123 -1.65567 -1.03017 0
M  V30 5181 O 503.393 -0.94642 -1.71522 0
M  V30 5182 H 501.973 -0.732049 0.148707 0
M  V30 5183 H 504.635 -1.64043 1.05242 0
M  V30 5184 H 503.731 -3.07579 0.529284 0
M  V30 5185 N 504.032 -0.577932 -1.46621 0
M  V30 5186 C 505.262 -0.0670668 -2.06491 0
M  V30 5187 C 505.67 1.24119 -1.42798 0
M  V30 5188 O 505.013 1.76016 -0.525759 0
M  V30 5189 C 505.075 0.177995 -3.59059 0
M  V30 5190 C 504.739 -1.04394 -4.44917 0
M  V30 5191 C 505.736 -1.95479 -4.81751 0
M  V30 5192 C 503.421 -1.26444 -4.86125 0
M  V30 5193 C 505.415 -3.06965 -5.58615 0
M  V30 5194 C 503.102 -2.38237 -5.62749 0
M  V30 5195 C 504.1 -3.28327 -5.98908 0
M  V30 5196 O 503.788 -4.38179 -6.73984 0
M  V30 5197 H 503.52 -0.0523159 -0.673973 0
M  V30 5198 H 506.074 -0.796966 -1.89308 0
M  V30 5199 H 504.304 0.962451 -3.74531 0
M  V30 5200 H 505.993 0.636782 -4.00874 0
M  V30 5201 H 506.759 -1.79657 -4.50498 0
M  V30 5202 H 502.638 -0.572316 -4.57434 0
M  V30 5203 H 506.182 -3.77309 -5.86757 0
M  V30 5204 H 502.079 -2.54023 -5.93416 0
M  V30 5205 H 502.847 -4.36486 -6.92403 0
M  V30 5206 N 505.51 1.54411 -0.315457 0
M  V30 5207 C 506.735 2.05299 0.294496 0
M  V30 5208 C 507.16 1.19052 1.4563 0
M  V30 5209 O 506.518 0.197804 1.80218 0
M  V30 5210 C 506.566 3.5345 0.714549 0
M  V30 5211 O 505.67 3.70175 1.81781 0
M  V30 5212 H 505.011 0.661743 0.0547019 0
M  V30 5213 H 507.541 1.99327 -0.461508 0
M  V30 5214 H 507.551 3.9557 0.999426 0
M  V30 5215 H 506.226 4.1568 -0.135244 0
M  V30 5216 H 504.803 3.3996 1.53236 0
M  V30 5217 N 506.988 0.0434614 1.5754 0
M  V30 5218 C 508.228 -0.636023 1.94253 0
M  V30 5219 C 508.592 -1.68461 0.921132 0
M  V30 5220 O 509.793 -2.41762 1.17494 0
M  V30 5221 C 508.064 -1.22357 3.35803 0
M  V30 5222 S 509.623 -1.92213 3.94461 0
M  V30 5223 H 506.441 -0.209041 0.679575 0
M  V30 5224 H 509.043 0.110556 1.95187 0
M  V30 5225 H 507.747 -0.448162 4.07946 0
M  V30 5226 H 507.278 -2.00713 3.38346 0
M  V30 5227 H 509.293 -3.20199 3.79061 0
M  V30 5228 N 508.466 -1.55915 -0.229846 0
M  V30 5229 C 509.396 -1.94754 -1.28815 0
M  V30 5230 C 510.377 -0.814657 -1.49323 0
M  V30 5231 O 511.562 -1.07631 -1.61645 0
M  V30 5232 C 508.692 -2.25705 -2.63959 0
M  V30 5233 C 507.646 -3.41406 -2.5812 0
M  V30 5234 C 506.972 -3.57941 -3.97218 0
M  V30 5235 C 508.272 -4.76616 -2.13623 0
M  V30 5236 H 509.966 -2.83404 -0.965547 0
M  V30 5237 H 507.512 -1.36353 -0.463028 0
M  V30 5238 H 509.465 -2.51467 -3.38146 0
M  V30 5239 H 508.189 -1.339 -2.9789 0
M  V30 5240 H 506.848 -3.1568 -1.86391 0
M  V30 5241 H 506.496 -2.63526 -4.28443 0
M  V30 5242 H 506.196 -4.35757 -3.94195 0
M  V30 5243 H 507.72 -3.86042 -4.73079 0
M  V30 5244 H 509.134 -5.01637 -2.77549 0
M  V30 5245 H 507.531 -5.57655 -2.21677 0
M  V30 5246 H 508.601 -4.7253 -1.08829 0
M  V30 5247 N 509.944 0.496216 -1.49584 0
M  V30 5248 C 511.169 1.27865 -1.63295 0
M  V30 5249 C 511.594 1.85592 -0.306156 0
M  V30 5250 O 510.952 1.66092 0.726851 0
M  V30 5251 C 511 2.38128 -2.7079 0
M  V30 5252 O 510.104 3.42108 -2.30296 0
M  V30 5253 H 509.445 0.377279 -0.546403 0
M  V30 5254 H 511.975 0.593497 -1.95803 0
M  V30 5255 H 511.985 2.8382 -2.93104 0
M  V30 5256 H 510.66 1.95479 -3.67098 0
M  V30 5257 H 509.237 3.02301 -2.18331 0
M  V30 5258 N 511.423 1.38739 0.74761 0
M  V30 5259 C 512.653 1.3832 1.53464 0
M  V30 5260 C 513.061 -0.0273464 1.8918 0
M  V30 5261 O 512.404 -1.00588 1.53713 0
M  V30 5262 C 512.466 2.18007 2.85855 0
M  V30 5263 C 512.13 3.66762 2.72644 0
M  V30 5264 C 513.127 4.60124 2.42037 0
M  V30 5265 C 510.812 4.10193 2.89909 0
M  V30 5266 C 512.806 5.94897 2.28859 0
M  V30 5267 C 510.493 5.45045 2.7635 0
M  V30 5268 C 511.491 6.37211 2.45869 0
M  V30 5269 O 511.179 7.69581 2.3238 0
M  V30 5270 H 510.911 0.474718 0.481268 0
M  V30 5271 H 513.465 1.83012 0.932518 0
M  V30 5272 H 511.695 1.68043 3.48279 0
M  V30 5273 H 513.384 2.09921 3.47402 0
M  V30 5274 H 514.15 4.27874 2.28361 0
M  V30 5275 H 510.029 3.38797 3.1263 0
M  V30 5276 H 513.573 6.66802 2.04989 0
M  V30 5277 H 509.47 5.76889 2.89601 0
M  V30 5278 H 510.238 7.80169 2.47546 0
M  V30 5279 N 512.901 -0.976442 1.23707 0
M  V30 5280 C 514.317 -1.24341 1.00058 0
M  V30 5281 C 514.517 -1.99315 -0.295932 0
M  V30 5282 O 513.573 -2.3123 -1.01435 0
M  V30 5283 C 514.886 -2.03909 2.21001 0
M  V30 5284 C 516.434 -2.17034 2.25534 0
M  V30 5285 C 516.909 -2.99994 3.46075 0
M  V30 5286 N 518.4 -3.07578 3.46338 0
M  V30 5287 C 519.135 -3.72104 4.36264 0
M  V30 5288 N 518.631 -4.3842 5.36432 0
M  V30 5289 N 520.424 -3.69029 4.23998 0
M  V30 5290 H 512.575 -0.47428 2.07037 0
M  V30 5291 H 514.838 -0.272167 0.908091 0
M  V30 5292 H 514.544 -1.56198 3.15111 0
M  V30 5293 H 514.418 -3.04654 2.22409 0
M  V30 5294 H 516.805 -2.63951 1.31961 0
M  V30 5295 H 516.886 -1.15664 2.28156 0
M  V30 5296 H 516.53 -2.53772 4.39957 0
M  V30 5297 H 516.46 -4.01541 3.40694 0
M  V30 5298 H 518.951 -2.60397 2.73865 0
M  V30 5299 H 519.264 -4.85447 6.013 0
M  V30 5300 H 517.609 -4.37116 5.40328 0
M  V30 5301 H 520.8 -3.16392 3.44984 0
M  V30 5302 H 520.973 -4.19034 4.94282 0
M  V30 5303 N 514.379 -1.04941 -1.1758 0
M  V30 5304 C 515.326 -0.648155 -2.21512 0
M  V30 5305 C 516.296 0.348431 -1.62404 0
M  V30 5306 O 517.481 0.240419 -1.89279 0
M  V30 5307 C 514.621 -0.0264291 -3.4509 0
M  V30 5308 C 513.734 -1.07154 -4.185 0
M  V30 5309 C 512.869 -0.417403 -5.29558 0
M  V30 5310 C 511.908 -1.447 -5.94751 0
M  V30 5311 N 511.045 -0.817203 -6.97328 0
M  V30 5312 H 515.885 -1.53891 -2.55189 0
M  V30 5313 H 513.422 -0.769699 -1.25356 0
M  V30 5314 H 515.38 0.351456 -4.15717 0
M  V30 5315 H 514.01 0.827802 -3.12005 0
M  V30 5316 H 513.062 -1.56728 -3.46613 0
M  V30 5317 H 514.374 -1.8532 -4.63096 0
M  V30 5318 H 513.528 0.0142061 -6.06698 0
M  V30 5319 H 512.267 0.396265 -4.86087 0
M  V30 5320 H 511.272 -1.88865 -5.16343 0
M  V30 5321 H 512.497 -2.26252 -6.40302 0
M  V30 5322 H 510.443 -0.0239995 -6.55996 0
M  V30 5323 H 510.36 -1.53644 -7.40223 0
M  V30 5324 H 511.628 -0.410283 -7.7842 0
M  V30 5325 N 515.857 1.33968 -0.830081 0
M  V30 5326 C 516.805 2.31301 -0.245435 0
M  V30 5327 C 517.799 1.57734 0.617762 0
M  V30 5328 O 519.005 1.72674 0.508303 0
M  V30 5329 H 515.38 0.749552 -0.0606316 0
M  V30 5330 H 517.351 2.78129 -1.08105 0
M  V30 5331 C 516.1 3.42961 0.572084 0
M  V30 5332 H 515.423 3.99714 -0.0828118 0
M  V30 5333 H 516.863 4.13286 0.94715 0
M  V30 5334 C 515.322 2.88043 1.74737 0
M  V30 5335 O 515.852 2.83508 2.8458 0
M  V30 5336 N 514.058 2.44768 1.56642 0
M  V30 5337 H 513.605 2.48656 0.672901 0
M  V30 5338 H 513.563 2.08375 2.3543 0
M  V30 5339 N 517.335 0.585699 1.46312 0
M  V30 5340 C 518.581 0.0725284 2.0267 0
M  V30 5341 C 518.914 -1.28523 1.45586 0
M  V30 5342 O 518.189 -1.84283 0.622101 0
M  V30 5343 C 518.472 0.0099788 3.60099 0
M  V30 5344 C 518.325 1.39685 4.27561 0
M  V30 5345 C 519.644 -0.689117 4.34671 0
M  V30 5346 H 516.763 0.0278307 0.736474 0
M  V30 5347 H 519.405 0.753472 1.74421 0
M  V30 5348 H 517.555 -0.56992 3.84297 0
M  V30 5349 H 519.227 2.02215 4.14617 0
M  V30 5350 H 517.47 1.96374 3.86807 0
M  V30 5351 H 518.141 1.30553 5.36339 0
M  V30 5352 H 520.617 -0.196446 4.15636 0
M  V30 5353 H 519.493 -0.701921 5.44393 0
M  V30 5354 H 519.754 -1.75101 4.05946 0
M  V30 5355 N 518.813 -1.54241 0.323641 0
M  V30 5356 C 520.09 -1.92741 -0.333181 0
M  V30 5357 C 520.47 -1.25326 -1.69872 0
M  V30 5358 O 519.818 -0.396991 -2.25025 0
M  V30 5359 C 520.028 -3.46399 -0.425322 0
M  V30 5360 C 521.376 -4.19029 -0.68557 0
M  V30 5361 O 522.4 -3.52555 -0.50824 0
M  V30 5362 O 521.259 -5.36751 -1.02767 0
M  V30 5363 H 518.353 -0.804811 -0.190286 0
M  V30 5364 H 520.899 -1.65542 0.373361 0
M  V30 5365 H 519.671 -3.87643 0.533737 0
M  V30 5366 H 519.294 -3.79704 -1.17944 0
M  V30 5367 N 520.291 -0.0518155 -1.57515 0
M  V30 5368 C 521.238 0.922352 -2.11569 0
M  V30 5369 C 522.208 1.30842 -1.02321 0
M  V30 5370 O 523.393 1.39778 -1.29872 0
M  V30 5371 C 520.533 2.19167 -2.6657 0
M  V30 5372 C 519.646 1.86003 -3.89906 0
M  V30 5373 C 518.781 3.07398 -4.33221 0
M  V30 5374 C 517.82 2.70158 -5.49255 0
M  V30 5375 N 516.957 3.84248 -5.8762 0
M  V30 5376 H 521.797 0.454506 -2.94514 0
M  V30 5377 H 519.334 0.212718 -1.45554 0
M  V30 5378 H 521.292 2.93443 -2.96559 0
M  V30 5379 H 519.922 2.63528 -1.86421 0
M  V30 5380 H 518.974 1.01874 -3.66505 0
M  V30 5381 H 520.286 1.54592 -4.74239 0
M  V30 5382 H 519.44 3.89972 -4.64765 0
M  V30 5383 H 518.179 3.41988 -3.477 0
M  V30 5384 H 517.184 1.86001 -5.17382 0
M  V30 5385 H 518.409 2.36759 -6.36492 0
M  V30 5386 H 516.355 4.18638 -5.05053 0
M  V30 5387 H 516.272 3.56538 -6.66646 0
M  V30 5388 H 517.54 4.6746 -6.2378 0
M  V30 5389 N 521.769 1.56035 0.221574 0
M  V30 5390 C 522.679 1.95581 1.29558 0
M  V30 5391 C 523.695 0.859639 1.51282 0
M  V30 5392 O 524.871 1.16321 1.64413 0
M  V30 5393 C 521.936 2.26447 2.62531 0
M  V30 5394 C 520.997 3.49632 2.4911 0
M  V30 5395 C 520.23 3.79017 3.75742 0
M  V30 5396 O 520.453 3.10077 4.78757 0
M  V30 5397 O 519.387 4.72507 3.72855 0
M  V30 5398 H 523.213 2.8711 0.990035 0
M  V30 5399 H 520.798 1.43244 0.424434 0
M  V30 5400 H 522.68 2.47494 3.41064 0
M  V30 5401 H 521.355 1.38092 2.92766 0
M  V30 5402 H 520.262 3.33864 1.68777 0
M  V30 5403 H 521.595 4.3837 2.23814 0
M  V30 5404 N 523.247 -0.488276 1.49845 0
M  V30 5405 C 524.475 -1.26527 1.63702 0
M  V30 5406 C 524.89 -1.8618 0.313447 0
M  V30 5407 O 524.247 -1.68432 -0.702624 0
M  V30 5408 C 524.298 -2.3864 2.71538 0
M  V30 5409 O 524.019 -1.81437 3.98763 0
M  V30 5410 C 525.52 -3.29805 2.96215 0
M  V30 5411 H 522.74 -0.383295 0.55075 0
M  V30 5412 H 525.284 -0.584779 1.95961 0
M  V30 5413 H 523.439 -3.02496 2.42023 0
M  V30 5414 H 523.853 -2.55135 4.58265 0
M  V30 5415 H 525.327 -4.04722 3.75372 0
M  V30 5416 H 525.804 -3.87563 2.06619 0
M  V30 5417 H 526.41 -2.71703 3.27196 0
M  V30 5418 N 524.725 -1.39134 -0.740242 0
M  V30 5419 C 525.655 -1.40165 -1.86751 0
M  V30 5420 C 526.636 -0.265708 -1.68012 0
M  V30 5421 O 527.821 -0.47076 -1.88408 0
M  V30 5422 C 524.951 -1.2392 -3.2444 0
M  V30 5423 C 523.905 -2.34858 -3.57807 0
M  V30 5424 C 523.231 -2.03707 -4.94376 0
M  V30 5425 C 524.531 -3.77159 -3.61315 0
M  V30 5426 H 526.225 -2.345 -1.86145 0
M  V30 5427 H 523.771 -1.12875 -0.89416 0
M  V30 5428 H 525.724 -1.23263 -4.02969 0
M  V30 5429 H 524.448 -0.26051 -3.25559 0
M  V30 5430 H 523.107 -2.34723 -2.81604 0
M  V30 5431 H 522.755 -1.04289 -4.9207 0
M  V30 5432 H 522.455 -2.78016 -5.17669 0
M  V30 5433 H 523.979 -2.04691 -5.75268 0
M  V30 5434 H 525.393 -3.79252 -4.29931 0
M  V30 5435 H 523.79 -4.50784 -3.96124 0
M  V30 5436 H 524.86 -4.08513 -2.61238 0
M  V30 5437 N 526.204 0.969867 -1.24223 0
M  V30 5438 C 527.434 1.74502 -1.106 0
M  V30 5439 C 527.842 1.86038 0.344483 0
M  V30 5440 O 527.185 1.3465 1.24961 0
M  V30 5441 C 527.247 3.18391 -1.66935 0
M  V30 5442 C 526.911 3.30334 -3.15798 0
M  V30 5443 C 527.908 3.15832 -4.12973 0
M  V30 5444 C 525.593 3.54644 -3.55715 0
M  V30 5445 C 527.587 3.25461 -5.48045 0
M  V30 5446 C 525.274 3.63912 -4.90929 0
M  V30 5447 C 526.272 3.49332 -5.86904 0
M  V30 5448 O 525.96 3.58251 -7.1966 0
M  V30 5449 H 525.692 0.554119 -0.387206 0
M  V30 5450 H 528.246 1.22646 -1.64764 0
M  V30 5451 H 526.476 3.71543 -1.07203 0
M  V30 5452 H 528.165 3.77707 -1.48634 0
M  V30 5453 H 528.931 2.96937 -3.83476 0
M  V30 5454 H 524.81 3.65059 -2.81519 0
M  V30 5455 H 528.354 3.13998 -6.22937 0
M  V30 5456 H 524.251 3.82319 -5.20098 0
M  V30 5457 H 525.019 3.7498 -7.27552 0
M  V30 5458 N 527.682 1.05563 1.17022 0
M  V30 5459 C 528.928 0.769074 1.87652 0
M  V30 5460 C 529.261 -0.702326 1.81055 0
M  V30 5461 O 528.536 -1.5139 1.22112 0
M  V30 5462 C 528.819 1.25492 3.37526 0
M  V30 5463 C 528.672 2.78953 3.52853 0
M  V30 5464 C 529.991 0.856919 4.31677 0
M  V30 5465 H 527.11 0.280854 0.681388 0
M  V30 5466 H 529.752 1.31027 1.37593 0
M  V30 5467 H 527.902 0.794516 3.80289 0
M  V30 5468 H 529.574 3.33146 3.19079 0
M  V30 5469 H 527.817 3.18046 2.95007 0
M  V30 5470 H 528.488 3.08011 4.58076 0
M  V30 5471 H 530.964 1.25334 3.96775 0
M  V30 5472 H 529.84 1.22443 5.35069 0
M  V30 5473 H 530.101 -0.238787 4.41455 0
M  V30 5474 N 529.16 -1.33526 0.837174 0
M  V30 5475 C 530.406 -1.9813 0.432704 0
M  V30 5476 C 530.739 -1.66168 -1.00508 0
M  V30 5477 O 530.014 -0.94069 -1.70239 0
M  V30 5478 C 530.297 -3.54151 0.651834 0
M  V30 5479 C 530.15 -3.95806 2.13676 0
M  V30 5480 C 531.469 -4.39993 0.0968937 0
M  V30 5481 H 528.588 -0.719713 0.15869 0
M  V30 5482 H 531.23 -1.58193 1.05237 0
M  V30 5483 H 529.38 -3.88301 0.124369 0
M  V30 5484 H 531.052 -3.71921 2.72896 0
M  V30 5485 H 529.295 -3.45599 2.62191 0
M  V30 5486 H 529.966 -5.0447 2.24084 0
M  V30 5487 H 532.442 -4.12479 0.547733 0
M  V30 5488 H 531.318 -5.48186 0.279917 0
M  V30 5489 H 531.579 -4.3066 -0.9992 0
M  V30 5490 N 530.638 -0.59345 -1.46 0
M  V30 5491 C 531.868 -0.0889642 -2.06408 0
M  V30 5492 C 532.276 1.22597 -1.44106 0
M  V30 5493 O 531.619 1.75448 -0.544398 0
M  V30 5494 C 531.681 0.139902 -3.59228 0
M  V30 5495 C 531.345 -1.09107 -4.43784 0
M  V30 5496 C 532.342 -2.00577 -4.79651 0
M  V30 5497 C 530.027 -1.31593 -4.84756 0
M  V30 5498 C 532.021 -3.12873 -5.55328 0
M  V30 5499 C 529.708 -2.44192 -5.60191 0
M  V30 5500 C 530.706 -3.34661 -5.95392 0
M  V30 5501 O 530.394 -4.45302 -6.69299 0
M  V30 5502 H 530.126 -0.0594613 -0.67338 0
M  V30 5503 H 532.68 -0.817 -1.88452 0
M  V30 5504 H 530.91 0.922672 -3.75531 0
M  V30 5505 H 532.599 0.594228 -4.01527 0
M  V30 5506 H 533.365 -1.84425 -4.48567 0
M  V30 5507 H 529.244 -0.620801 -4.56801 0
M  V30 5508 H 532.788 -3.83511 -5.82722 0
M  V30 5509 H 528.685 -2.60303 -5.90688 0
M  V30 5510 H 529.453 -4.43805 -6.87735 0
M  V30 5511 N 532.116 1.54067 -0.331816 0
M  V30 5512 C 533.026 2.28322 0.539104 0
M  V30 5513 C 534.042 1.32985 1.1221 0
M  V30 5514 O 535.218 1.6601 1.1403 0
M  V30 5515 C 532.283 3.03277 1.68 0
M  V30 5516 C 531.344 4.14216 1.12798 0
M  V30 5517 C 530.577 4.85588 2.2145 0
M  V30 5518 O 530.8 4.56536 3.41952 0
M  V30 5519 O 529.734 5.72309 1.86404 0
M  V30 5520 H 533.56 3.03632 -0.0641692 0
M  V30 5521 H 531.145 1.49083 -0.0972365 0
M  V30 5522 H 533.027 3.50189 2.34405 0
M  V30 5523 H 531.702 2.30834 2.2693 0
M  V30 5524 H 530.609 3.71635 0.428782 0
M  V30 5525 H 531.942 4.88727 0.583698 0
M  V30 5526 N 533.594 0.0601682 1.57485 0
M  V30 5527 C 534.557 -0.896373 2.10945 0
M  V30 5528 C 535.557 -1.23402 1.03095 0
M  V30 5529 O 536.747 -1.16921 1.29132 0
M  V30 5530 C 533.879 -2.20346 2.60116 0
M  V30 5531 H 535.072 -0.432778 2.96761 0
M  V30 5532 H 532.625 -0.188372 1.55161 0
M  V30 5533 H 533.36 -2.71268 1.7772 0
M  V30 5534 H 533.145 -1.9714 3.38937 0
M  V30 5535 H 534.635 -2.88846 3.01592 0
M  V30 5536 N 535.072 -1.5615 -0.213296 0
M  V30 5537 C 536.02 -1.93953 -1.28394 0
M  V30 5538 C 537.014 -0.822592 -1.48087 0
M  V30 5539 O 538.22 -1.00748 -1.49164 0
M  V30 5540 H 534.595 -0.61648 -0.430646 0
M  V30 5541 H 536.566 -2.83275 -0.937977 0
M  V30 5542 C 535.315 -2.27969 -2.62537 0
M  V30 5543 H 534.638 -3.13432 -2.48194 0
M  V30 5544 H 536.078 -2.58297 -3.36242 0
M  V30 5545 C 534.537 -1.10775 -3.18167 0
M  V30 5546 O 535.067 -0.373201 -3.99963 0
M  V30 5547 N 533.273 -0.889377 -2.76656 0
M  V30 5548 H 532.82 -1.48843 -2.10246 0
M  V30 5549 H 532.778 -0.107 -3.14218 0
M  V30 5550 N 536.55 0.480323 -1.50102 0
M  V30 5551 C 537.798 1.23063 -1.60312 0
M  V30 5552 C 538.119 1.92659 -0.301226 0
M  V30 5553 O 537.389 1.83691 0.680753 0
M  V30 5554 H 535.969 0.457231 -0.590719 0
M  V30 5555 H 538.631 0.554893 -1.86834 0
M  V30 5556 H 537.727 1.9835 -2.40964 0
M  V30 5557 N 538.028 1.39524 0.732853 0
M  V30 5558 C 539.253 1.40329 1.52717 0
M  V30 5559 C 539.678 0.000286574 1.881 0
M  V30 5560 O 539.036 -0.987262 1.52062 0
M  V30 5561 C 539.084 2.28464 2.78992 0
M  V30 5562 O 538.188 1.716 3.75003 0
M  V30 5563 H 537.529 0.47778 0.461109 0
M  V30 5564 H 540.059 1.83546 0.903996 0
M  V30 5565 H 540.069 2.43051 3.27705 0
M  V30 5566 H 538.744 3.30425 2.52572 0
M  V30 5567 H 537.321 1.66267 3.33781 0
M  V30 5568 N 539.506 -0.963266 1.24736 0
M  V30 5569 C 540.755 -1.70115 1.08369 0
M  V30 5570 C 541.068 -1.91939 -0.376688 0
M  V30 5571 O 542.274 -2.6334 -0.660624 0
M  V30 5572 C 540.73 -3.06218 1.89099 0
M  V30 5573 C 540.338 -2.92221 3.39574 0
M  V30 5574 C 542.082 -3.83848 1.81275 0
M  V30 5575 C 539.989 -4.23662 4.12631 0
M  V30 5576 H 538.919 -0.637944 0.401924 0
M  V30 5577 H 541.57 -1.07304 1.48856 0
M  V30 5578 H 539.952 -3.69884 1.41429 0
M  V30 5579 H 541.126 -2.37541 3.94856 0
M  V30 5580 H 539.441 -2.28054 3.48397 0
M  V30 5581 H 542.038 -4.81188 2.33158 0
M  V30 5582 H 542.381 -4.08949 0.778895 0
M  V30 5583 H 542.914 -3.26918 2.26649 0
M  V30 5584 H 539.653 -4.03753 5.16395 0
M  V30 5585 H 539.173 -4.78141 3.62135 0
M  V30 5586 H 540.852 -4.92256 4.19873 0
M  V30 5587 N 540.985 -1.06182 -1.16461 0
M  V30 5588 C 541.895 -0.682671 -2.24448 0
M  V30 5589 C 542.911 0.30078 -1.71381 0
M  V30 5590 O 544.087 0.150376 -2.00838 0
M  V30 5591 C 541.152 -0.0737202 -3.46622 0
M  V30 5592 C 540.213 -1.10889 -4.14731 0
M  V30 5593 C 539.446 -0.528908 -5.31073 0
M  V30 5594 O 539.669 0.65868 -5.66584 0
M  V30 5595 O 538.603 -1.26805 -5.88391 0
M  V30 5596 H 542.429 -1.58291 -2.59187 0
M  V30 5597 H 540.014 -0.834013 -1.23954 0
M  V30 5598 H 541.896 0.264192 -4.20571 0
M  V30 5599 H 540.571 0.800015 -3.13658 0
M  V30 5600 H 539.478 -1.49896 -3.42756 0
M  V30 5601 H 540.811 -1.95412 -4.51747 0
M  V30 5602 N 542.463 1.3308 -0.844243 0
M  V30 5603 C 543.71 1.97605 -0.44255 0
M  V30 5604 C 544.038 1.66856 0.999458 0
M  V30 5605 O 543.293 0.943586 1.7145 0
M  V30 5606 C 543.592 3.52045 -0.616354 0
M  V30 5607 C 543.258 4.02757 -2.02726 0
M  V30 5608 C 541.92 4.16316 -2.41317 0
M  V30 5609 C 544.272 4.29776 -2.9486 0
M  V30 5610 C 541.6 4.54232 -3.71335 0
M  V30 5611 C 543.952 4.69146 -4.24364 0
M  V30 5612 C 542.616 4.80911 -4.62904 0
M  V30 5613 H 541.886 0.723088 -0.161941 0
M  V30 5614 H 544.533 1.58663 -1.0723 0
M  V30 5615 H 542.838 3.91681 0.0966812 0
M  V30 5616 H 544.535 3.99981 -0.285756 0
M  V30 5617 H 541.125 3.9268 -1.71756 0
M  V30 5618 H 545.309 4.18818 -2.6628 0
M  V30 5619 H 540.565 4.61535 -4.00993 0
M  V30 5620 H 544.739 4.89008 -4.95827 0
M  V30 5621 H 542.366 5.10048 -5.63698 0
M  V30 5622 N 543.941 0.601185 1.45683 0
M  V30 5623 C 544.873 -0.159446 2.28645 0
M  V30 5624 C 545.886 -0.837882 1.39583 0
M  V30 5625 O 547.075 -0.704344 1.64016 0
M  V30 5626 C 544.175 -1.24641 3.15147 0
M  V30 5627 C 543.348 -0.656334 4.32448 0
M  V30 5628 C 542.407 -1.63337 5.00208 0
M  V30 5629 O 541.433 -1.16217 5.57209 0
M  V30 5630 N 542.635 -2.96773 4.98905 0
M  V30 5631 H 545.4 0.5524 2.94565 0
M  V30 5632 H 542.961 0.440223 1.558 0
M  V30 5633 H 544.953 -1.8997 3.57342 0
M  V30 5634 H 543.523 -1.86087 2.51178 0
M  V30 5635 H 542.743 0.174879 3.93812 0
M  V30 5636 H 544.031 -0.242211 5.08223 0
M  V30 5637 H 543.429 -3.37662 4.53873 0
M  V30 5638 H 541.986 -3.57541 5.44984 0
M  V30 5639 N 545.419 -1.53889 0.339982 0
M  V30 5640 C 546.696 -1.93084 -0.312719 0
M  V30 5641 C 547.076 -1.2712 -1.68534 0
M  V30 5642 O 546.424 -0.420835 -2.24591 0
M  V30 5643 C 546.634 -3.4683 -0.388558 0
M  V30 5644 C 547.982 -4.19732 -0.641088 0
M  V30 5645 O 549.006 -3.53075 -0.470818 0
M  V30 5646 O 547.865 -5.3781 -0.970685 0
M  V30 5647 H 544.959 -0.806784 -0.18174 0
M  V30 5648 H 547.505 -1.65137 0.390898 0
M  V30 5649 H 546.277 -3.87055 0.574821 0
M  V30 5650 H 545.9 -3.80933 -1.1391 0
M  V30 5651 N 546.897 -0.0685191 -1.57451 0
M  V30 5652 C 547.827 0.89747 -2.15564 0
M  V30 5653 C 548.808 1.31266 -1.08181 0
M  V30 5654 O 549.993 1.38429 -1.36202 0
M  V30 5655 C 547.123 2.16623 -2.71463 0
M  V30 5656 C 546.077 1.89054 -3.83982 0
M  V30 5657 C 545.403 3.22532 -4.26471 0
M  V30 5658 C 546.703 1.1984 -5.08366 0
M  V30 5659 H 548.397 0.413373 -2.96533 0
M  V30 5660 H 545.943 0.197391 -1.42641 0
M  V30 5661 H 547.896 2.84614 -3.10761 0
M  V30 5662 H 546.62 2.67269 -1.8771 0
M  V30 5663 H 545.279 1.23469 -3.45183 0
M  V30 5664 H 544.927 3.71013 -3.39644 0
M  V30 5665 H 544.627 3.04879 -5.02317 0
M  V30 5666 H 546.151 3.91727 -4.68383 0
M  V30 5667 H 547.565 1.77896 -5.45001 0
M  V30 5668 H 545.962 1.12456 -5.89469 0
M  V30 5669 H 547.032 0.176996 -4.84577 0
M  V30 5670 N 548.375 1.56261 0.205012 0
M  V30 5671 C 549.6 1.84491 0.947512 0
M  V30 5672 C 550.025 0.650894 1.76479 0
M  V30 5673 O 549.383 -0.40035 1.76824 0
M  V30 5674 C 549.431 3.10863 1.82747 0
M  V30 5675 O 548.535 2.90719 2.925 0
M  V30 5676 H 547.876 0.607783 0.267386 0
M  V30 5677 H 550.406 2.03485 0.213323 0
M  V30 5678 H 550.416 3.41399 2.23407 0
M  V30 5679 H 549.091 3.97392 1.2269 0
M  V30 5680 H 547.668 2.71457 2.55667 0
M  V30 5681 N 549.853 -0.472356 1.50355 0
M  V30 5682 C 551.269 -0.806001 1.37753 0
M  V30 5683 C 551.469 -1.968 0.432649 0
M  V30 5684 O 550.525 -2.52189 -0.12519 0
M  V30 5685 C 551.838 -1.11926 2.79093 0
M  V30 5686 C 553.386 -1.22579 2.87999 0
M  V30 5687 C 553.861 -1.57218 4.3017 0
M  V30 5688 N 555.352 -1.64212 4.33115 0
M  V30 5689 C 556.087 -1.92517 5.40116 0
M  V30 5690 N 555.583 -2.1885 6.57325 0
M  V30 5691 N 557.376 -1.94008 5.27558 0
M  V30 5692 H 549.527 0.293451 2.10363 0
M  V30 5693 H 551.79 0.0687672 0.945503 0
M  V30 5694 H 551.496 -0.338504 3.50067 0
M  V30 5695 H 551.37 -2.05577 3.16256 0
M  V30 5696 H 553.757 -1.99722 2.17245 0
M  V30 5697 H 553.838 -0.269107 2.54381 0
M  V30 5698 H 553.482 -0.806154 5.01461 0
M  V30 5699 H 553.412 -2.54034 4.61275 0
M  V30 5700 H 555.903 -1.45906 3.48597 0
M  V30 5701 H 556.216 -2.39718 7.3468 0
M  V30 5702 H 554.561 -2.16245 6.60502 0
M  V30 5703 H 557.752 -1.72931 4.34986 0
M  V30 5704 H 557.925 -2.15731 6.11035 0
M  V30 5705 N 551.331 -1.39911 -0.725443 0
M  V30 5706 C 552.281 -1.35878 -1.83088 0
M  V30 5707 C 553.265 -0.237989 -1.5913 0
M  V30 5708 O 554.457 -0.476302 -1.70471 0
M  V30 5709 C 551.586 -1.21403 -3.21117 0
M  V30 5710 C 550.672 -2.38223 -3.50871 0
M  V30 5711 N 551.063 -3.63703 -3.51502 0
M  V30 5712 C 549.361 -2.31388 -3.81281 0
M  V30 5713 C 550.062 -4.4101 -3.79322 0
M  V30 5714 N 549.038 -3.7072 -3.97577 0
M  V30 5715 H 552.84 -2.3085 -1.81895 0
M  V30 5716 H 550.354 -1.33543 -0.924125 0
M  V30 5717 H 552.351 -1.16597 -4.00263 0
M  V30 5718 H 551.011 -0.273902 -3.23543 0
M  V30 5719 H 552.022 -3.96998 -3.32586 0
M  V30 5720 H 548.699 -1.45689 -3.91256 0
M  V30 5721 H 550.089 -5.49819 -3.86198 0
M  V30 5722 N 552.809 0.956637 -1.25245 0
M  V30 5723 C 553.739 2.07058 -1.07931 0
M  V30 5724 C 554.72 1.70096 0.0110361 0
M  V30 5725 O 555.905 1.93555 -0.158121 0
M  V30 5726 C 553.035 3.40272 -0.695124 0
M  V30 5727 C 551.989 3.91235 -1.73549 0
M  V30 5728 C 551.315 5.20921 -1.20604 0
M  V30 5729 C 552.615 4.17837 -3.13385 0
M  V30 5730 H 554.309 2.218 -2.01109 0
M  V30 5731 H 551.855 1.06581 -0.968326 0
M  V30 5732 H 553.808 4.1765 -0.560949 0
M  V30 5733 H 552.532 3.25462 0.272355 0
M  V30 5734 H 551.191 3.16025 -1.85807 0
M  V30 5735 H 550.839 5.02479 -0.228846 0
M  V30 5736 H 550.539 5.55987 -1.90136 0
M  V30 5737 H 552.063 6.00897 -1.08421 0
M  V30 5738 H 553.477 4.8588 -3.04292 0
M  V30 5739 H 551.874 4.64154 -3.80369 0
M  V30 5740 H 552.944 3.2419 -3.60595 0
M  V30 5741 N 554.287 1.06798 1.15896 0
M  V30 5742 C 555.698 0.811355 1.68149 0
M  V30 5743 C 556.049 -0.664339 1.8461 0
M  V30 5744 O 555.174 -1.51485 1.54535 0
M  V30 5745 C 555.769 1.46624 3.05429 0
M  V30 5746 C 554.328 1.25726 3.54781 0
M  V30 5747 C 553.475 1.53949 2.3064 0
M  V30 5748 H 556.426 1.23078 1.00187 0
M  V30 5749 H 556.447 0.88437 3.7008 0
M  V30 5750 H 555.959 2.54025 2.93416 0
M  V30 5751 H 554.06 0.20322 3.72045 0
M  V30 5752 H 554.173 1.97354 4.36564 0
M  V30 5753 H 552.537 0.96025 2.35905 0
M  V30 5754 H 553.32 2.6252 2.2122 0
M  V30 5755 N 555.766 -1.3263 0.851289 0
M  V30 5756 C 557.012 -1.9766 0.453694 0
M  V30 5757 C 557.345 -1.67225 -0.987396 0
M  V30 5758 O 556.62 -0.958693 -1.69232 0
M  V30 5759 C 556.903 -3.5344 0.68936 0
M  V30 5760 C 556.756 -3.93517 2.17862 0
M  V30 5761 C 558.075 -4.39866 0.143555 0
M  V30 5762 H 555.194 -0.717989 0.166314 0
M  V30 5763 H 557.836 -1.57068 1.06909 0
M  V30 5764 H 555.986 -3.88147 0.165546 0
M  V30 5765 H 557.658 -3.69006 2.76826 0
M  V30 5766 H 555.901 -3.42798 2.65841 0
M  V30 5767 H 556.572 -5.02065 2.29422 0
M  V30 5768 H 559.048 -4.11875 0.591451 0
M  V30 5769 H 557.924 -5.47858 0.338043 0
M  V30 5770 H 558.185 -4.31696 -0.953466 0
M  V30 5771 N 557.244 -0.608902 -1.45362 0
M  V30 5772 C 558.493 -0.10218 -2.01441 0
M  V30 5773 C 558.806 1.27546 -1.48295 0
M  V30 5774 O 560.012 1.87498 -1.96359 0
M  V30 5775 C 558.468 -0.131985 -3.59658 0
M  V30 5776 C 558.076 -1.50956 -4.21801 0
M  V30 5777 C 559.82 0.319427 -4.23296 0
M  V30 5778 C 557.727 -1.49568 -5.72174 0
M  V30 5779 H 556.657 -0.0344314 -0.753213 0
M  V30 5780 H 559.308 -0.764426 -1.6682 0
M  V30 5781 H 557.69 0.596939 -3.91475 0
M  V30 5782 H 558.864 -2.26029 -4.01556 0
M  V30 5783 H 557.179 -1.90318 -3.70362 0
M  V30 5784 H 559.776 0.349013 -5.3356 0
M  V30 5785 H 560.119 1.34237 -3.94064 0
M  V30 5786 H 560.652 -0.356273 -3.96201 0
M  V30 5787 H 557.391 -2.49626 -6.06108 0
M  V30 5788 H 556.911 -0.787542 -5.94607 0
M  V30 5789 H 558.59 -1.21989 -6.35396 0
M  V30 5790 N 558.722 1.53707 -0.348139 0
M  V30 5791 C 559.669 2.25173 0.506518 0
M  V30 5792 C 560.639 1.25174 1.09182 0
M  V30 5793 O 561.824 1.53917 1.12757 0
M  V30 5794 C 558.964 3.03141 1.64923 0
M  V30 5795 C 558.077 4.18002 1.0908 0
M  V30 5796 C 557.212 4.83447 2.20119 0
M  V30 5797 C 556.251 5.90369 1.61651 0
M  V30 5798 N 555.388 6.49575 2.66451 0
M  V30 5799 H 560.228 2.97799 -0.109452 0
M  V30 5800 H 557.765 1.46953 -0.0657866 0
M  V30 5801 H 559.723 3.46607 2.32205 0
M  V30 5802 H 558.353 2.32803 2.23612 0
M  V30 5803 H 557.405 3.79145 0.308783 0
M  V30 5804 H 558.717 4.94892 0.623178 0
M  V30 5805 H 557.871 5.30008 2.95257 0
M  V30 5806 H 556.61 4.05991 2.70227 0
M  V30 5807 H 555.615 5.43186 0.850209 0
M  V30 5808 H 556.84 6.69735 1.1239 0
M  V30 5809 H 554.786 5.74981 3.15805 0
M  V30 5810 H 554.703 7.21952 2.24325 0
M  V30 5811 H 555.971 7.00789 3.41344 0
M  V30 5812 N 560.2 0.0768682 1.57412 0
M  V30 5813 C 561.425 -0.603404 1.98428 0
M  V30 5814 C 561.85 -1.62047 0.955108 0
M  V30 5815 O 561.208 -1.81129 -0.0786778 0
M  V30 5816 C 561.256 -1.24396 3.38464 0
M  V30 5817 O 560.36 -2.35982 3.3821 0
M  V30 5818 H 559.701 -0.154741 0.645718 0
M  V30 5819 H 562.231 0.152885 2.04028 0
M  V30 5820 H 562.241 -1.5896 3.7576 0
M  V30 5821 H 560.916 -0.498735 4.12899 0
M  V30 5822 H 559.493 -2.03173 3.1269 0
M  V30 5823 N 561.678 -1.56367 -0.196722 0
M  V30 5824 C 562.908 -1.84371 -0.932254 0
M  V30 5825 C 563.316 -0.657013 -1.77426 0
M  V30 5826 O 562.659 0.383576 -1.79651 0
M  V30 5827 C 562.721 -3.06454 -1.87952 0
M  V30 5828 C 562.385 -4.40425 -1.21962 0
M  V30 5829 C 563.382 -5.16457 -0.597343 0
M  V30 5830 C 561.067 -4.8716 -1.22396 0
M  V30 5831 C 563.061 -6.37399 0.0117913 0
M  V30 5832 C 560.748 -6.08038 -0.610995 0
M  V30 5833 C 561.746 -6.83 0.00580487 0
M  V30 5834 O 561.434 -8.01589 0.609173 0
M  V30 5835 H 561.166 -0.616377 -0.277589 0
M  V30 5836 H 563.72 -2.04329 -0.209452 0
M  V30 5837 H 561.95 -2.82377 -2.64197 0
M  V30 5838 H 563.639 -3.21118 -2.48271 0
M  V30 5839 H 564.405 -4.81445 -0.586142 0
M  V30 5840 H 560.284 -4.2877 -1.69345 0
M  V30 5841 H 563.828 -6.9585 0.493836 0
M  V30 5842 H 559.725 -6.42519 -0.619693 0
M  V30 5843 H 560.493 -8.16935 0.505919 0
M  V30 5844 N 563.156 0.464375 -1.50603 0
M  V30 5845 C 564.104 1.58224 -1.70493 0
M  V30 5846 C 565.098 1.59492 -0.570836 0
M  V30 5847 O 566.304 1.63561 -0.751517 0
M  V30 5848 H 562.679 0.525161 -0.538247 0
M  V30 5849 H 564.65 1.38613 -2.64252 0
M  V30 5850 C 563.399 2.96113 -1.82243 0
M  V30 5851 H 562.722 2.95858 -2.68901 0
M  V30 5852 H 564.162 3.73769 -2.00182 0
M  V30 5853 C 562.621 3.31946 -0.575628 0
M  V30 5854 O 563.151 4.00708 0.282152 0
M  V30 5855 N 561.357 2.87436 -0.427665 0
M  V30 5856 H 560.904 2.31652 -1.12674 0
M  V30 5857 H 560.862 3.11776 0.405379 0
M  V30 5858 O 564.673 1.49538 0.609965 0
M  V30 5859 H 565.364 1.46731 1.26451 0
M  V30 END ATOM
M  V30 BEGIN BOND
M  V30 END BOND
M  V30 END CTAB
M  END
$$$$
