drugbank_target|P29827 Lantibiotic cinnamycin (DB04731)
 OpenBabel12092120303D

  0  0  0     0  0            999 V3000
M  V30 BEGIN CTAB
M  V30 COUNTS 1123 1135 0 0 0
M  V30 BEGIN ATOM
M  V30 1 H -0.908 1.98254 -0.117106 0
M  V30 2 N 0 1.576 0 0
M  V30 3 C 0.933 2.03868 1.02534 0
M  V30 4 C 1.911 0.928543 1.3348 0
M  V30 5 O 3.095 1.19667 1.45644 0
M  V30 6 C 0.222 2.43627 2.35294 0
M  V30 7 C -0.732 3.65373 2.2001 0
M  V30 8 S 0.101 5.13292 1.52614 0
M  V30 9 C 1.257 5.56322 2.86805 0
M  V30 10 H 1.49 2.90518 0.631377 0
M  V30 11 H -0.977 1.52953 0.210867 0
M  V30 12 H 0.981 2.67203 3.11629 0
M  V30 13 H -0.358 1.57376 2.7183 0
M  V30 14 H -1.165 3.90944 3.18086 0
M  V30 15 H -1.563 3.418 1.51819 0
M  V30 16 H 0.729 5.58782 3.83104 0
M  V30 17 H 1.672 6.56266 2.65933 0
M  V30 18 H 2.08 4.83886 2.90714 0
M  V30 19 N 1.4781 -0.272755 1.55222 0
M  V30 20 C 2.7061 -1.02255 1.79865 0
M  V30 21 C 3.1211 -1.79924 0.572088 0
M  V30 22 O 2.4781 -1.76638 -0.458842 0
M  V30 23 C 2.5291 -1.98094 3.02392 0
M  V30 24 O 2.2501 -1.23572 4.20311 0
M  V30 25 C 3.7511 -2.84884 3.39641 0
M  V30 26 H 0.9711 -0.302057 0.599168 0
M  V30 27 H 3.5151 -0.303465 2.02236 0
M  V30 28 H 1.6701 -2.65465 2.82147 0
M  V30 29 H 2.0841 -1.88172 4.89583 0
M  V30 30 H 3.5581 -3.47927 4.28545 0
M  V30 31 H 4.0351 -3.54665 2.59055 0
M  V30 32 H 4.6411 -2.23003 3.62146 0
M  V30 33 N 2.9562 -1.48159 -0.537278 0
M  V30 34 C 3.9192 -1.61665 -1.62472 0
M  V30 35 C 4.9192 -0.490395 -1.5314 0
M  V30 36 O 6.1092 -0.755998 -1.5694 0
M  V30 37 C 3.2412 -1.57997 -3.02076 0
M  V30 38 H 4.4342 -2.58621 -1.51839 0
M  V30 39 H 1.9872 -1.36647 -0.758771 0
M  V30 40 H 2.7222 -0.624913 -3.18222 0
M  V30 41 H 2.5072 -2.39755 -3.10258 0
M  V30 42 H 3.9972 -1.70627 -3.81151 0
M  V30 43 N 4.4343 0.785586 -1.36625 0
M  V30 44 C 5.6593 1.57963 -1.34397 0
M  V30 45 C 6.0843 1.87964 0.071526 0
M  V30 46 O 5.4423 1.48182 1.0446 0
M  V30 47 C 5.4903 2.87511 -2.17646 0
M  V30 48 O 4.5943 3.81281 -1.57158 0
M  V30 49 H 3.9353 0.479014 -0.459828 0
M  V30 50 H 6.4653 0.973411 -1.79961 0
M  V30 51 H 6.4753 3.36745 -2.30362 0
M  V30 52 H 5.1503 2.65002 -3.20541 0
M  V30 53 H 3.7273 3.39885 -1.53403 0
M  V30 54 N 5.9124 1.20967 1.01018 0
M  V30 55 C 7.1614 1.01796 1.74128 0
M  V30 56 C 7.4744 -0.449691 1.90361 0
M  V30 57 O 8.6804 -0.76068 2.60626 0
M  V30 58 C 7.1364 1.7727 3.13215 0
M  V30 59 C 6.7444 3.28171 3.04972 0
M  V30 60 C 8.4884 1.66489 3.90489 0
M  V30 61 C 6.3954 3.96156 4.39107 0
M  V30 62 H 5.3254 0.377276 0.652824 0
M  V30 63 H 7.9764 1.44651 1.12909 0
M  V30 64 H 6.3584 1.27205 3.75013 0
M  V30 65 H 7.5324 3.85499 2.52443 0
M  V30 66 H 5.8474 3.39437 2.41188 0
M  V30 67 H 8.4444 2.14617 4.89738 0
M  V30 68 H 8.7874 0.6222 4.11624 0
M  V30 69 H 9.3204 2.14003 3.35332 0
M  V30 70 H 6.0594 5.00604 4.23174 0
M  V30 71 H 5.5794 3.43617 4.91617 0
M  V30 72 H 7.2584 4.00774 5.07926 0
M  V30 73 N 7.3905 -1.2043 1.01659 0
M  V30 74 C 8.3205 -2.25466 0.607226 0
M  V30 75 C 9.3015 -1.65853 -0.377716 0
M  V30 76 O 10.4865 -1.92409 -0.263149 0
M  V30 77 C 7.6165 -3.47256 -0.0552949 0
M  V30 78 C 6.5705 -4.19462 0.850632 0
M  V30 79 C 5.8965 -5.34673 0.0538859 0
M  V30 80 C 7.1965 -4.75603 2.15868 0
M  V30 81 H 8.8905 -2.59962 1.48526 0
M  V30 82 H 6.4365 -1.2496 0.715605 0
M  V30 83 H 8.3895 -4.19917 -0.353233 0
M  V30 84 H 7.1135 -3.11924 -0.968045 0
M  V30 85 H 5.7725 -3.48667 1.13257 0
M  V30 86 H 5.4205 -4.95585 -0.860514 0
M  V30 87 H 5.1205 -5.83913 0.657192 0
M  V30 88 H 6.6445 -6.10138 -0.237598 0
M  V30 89 H 8.0585 -5.40083 1.92311 0
M  V30 90 H 6.4555 -5.3528 2.71284 0
M  V30 91 H 7.5255 -3.94346 2.82169 0
M  V30 92 N 8.8686 -0.792821 -1.36206 0
M  V30 93 C 9.8006 -0.151469 -2.28699 0
M  V30 94 C 10.8136 0.641262 -1.49638 0
M  V30 95 O 12.0026 0.475885 -1.72039 0
M  V30 96 C 9.1026 0.808424 -3.29117 0
M  V30 97 C 8.2756 0.0650202 -4.37352 0
M  V30 98 C 7.3346 0.941358 -5.17711 0
M  V30 99 O 6.3606 0.397352 -5.67811 0
M  V30 100 N 7.5626 2.2652 -5.3448 0
M  V30 101 H 10.3276 -0.945982 -2.84379 0
M  V30 102 H 7.8886 -0.647032 -1.48409 0
M  V30 103 H 9.8806 1.3986 -3.79765 0
M  V30 104 H 8.4506 1.5038 -2.74052 0
M  V30 105 H 7.6706 -0.706255 -3.87822 0
M  V30 106 H 8.9586 -0.447847 -5.06825 0
M  V30 107 H 8.3566 2.73128 -4.95396 0
M  V30 108 H 6.9136 2.80493 -5.88359 0
M  V30 109 N 10.3467 1.47872 -0.545128 0
M  V30 110 C 11.2787 2.27869 0.246621 0
M  V30 111 C 12.2917 1.36282 0.890561 0
M  V30 112 O 13.4807 1.61207 0.766449 0
M  V30 113 C 10.5807 3.10159 1.36582 0
M  V30 114 C 9.7537 4.29627 0.820954 0
M  V30 115 C 8.8127 4.93607 1.82314 0
M  V30 116 O 7.8387 5.52366 1.37406 0
M  V30 117 N 9.0407 4.87211 3.15603 0
M  V30 118 H 11.8057 2.96459 -0.439539 0
M  V30 119 H 9.3667 1.57367 -0.380421 0
M  V30 120 H 11.3587 3.49829 2.03474 0
M  V30 121 H 9.9287 2.43891 1.9554 0
M  V30 122 H 9.1487 3.94192 -0.0244032 0
M  V30 123 H 10.4367 5.06928 0.436063 0
M  V30 124 H 9.8347 4.40651 3.54744 0
M  V30 125 H 8.3917 5.30937 3.78087 0
M  V30 126 N 11.8248 0.280983 1.55075 0
M  V30 127 C 13.0498 -0.340154 2.04592 0
M  V30 128 C 13.4748 -1.48246 1.15779 0
M  V30 129 O 12.8328 -1.80614 0.15761 0
M  V30 130 C 12.8808 -0.793104 3.5177 0
M  V30 131 O 11.9848 -1.89981 3.66034 0
M  V30 132 H 11.3258 -0.0694289 0.66036 0
M  V30 133 H 13.8558 0.416993 2.00306 0
M  V30 134 H 13.8658 -1.08729 3.93245 0
M  V30 135 H 12.5408 0.0426163 4.15878 0
M  V30 136 H 11.1178 -1.60771 3.36463 0
M  V30 137 N 13.3029 -1.57598 0.00835791 0
M  V30 138 C 14.5489 -1.91211 -0.675732 0
M  V30 139 C 14.8819 -0.883139 -1.72958 0
M  V30 140 O 14.1569 0.097016 -1.94258 0
M  V30 141 C 14.4399 -3.35379 -1.31123 0
M  V30 142 C 14.2929 -4.48999 -0.268356 0
M  V30 143 C 15.6119 -3.7912 -2.23508 0
M  V30 144 H 12.7309 -0.695374 -0.244179 0
M  V30 145 H 15.3729 -1.89901 0.0613655 0
M  V30 146 H 13.5229 -3.36626 -1.93946 0
M  V30 147 H 15.1949 -4.59887 0.360844 0
M  V30 148 H 13.4379 -4.31873 0.408482 0
M  V30 149 H 14.1089 -5.46851 -0.752218 0
M  V30 150 H 16.5849 -3.79477 -1.70693 0
M  V30 151 H 15.4609 -4.80729 -2.64936 0
M  V30 152 H 15.7219 -3.13455 -3.11766 0
M  V30 153 N 14.781 0.264519 -1.55364 0
M  V30 154 C 16.027 0.99646 -1.76631 0
M  V30 155 C 16.36 1.85632 -0.570478 0
M  V30 156 O 15.635 1.89647 0.43175 0
M  V30 157 C 15.918 1.87187 -3.07625 0
M  V30 158 C 15.771 1.04138 -4.37579 0
M  V30 159 C 17.09 2.85749 -3.34717 0
M  V30 160 H 14.209 0.360841 -0.642622 0
M  V30 161 H 16.851 0.268218 -1.88097 0
M  V30 162 H 15.001 2.49279 -2.9798 0
M  V30 163 H 16.673 0.440517 -4.59192 0
M  V30 164 H 14.916 0.345115 -4.32425 0
M  V30 165 H 15.587 1.68729 -5.2558 0
M  V30 166 H 18.063 2.33793 -3.4421 0
M  V30 167 H 16.939 3.44136 -4.27623 0
M  V30 168 H 17.2 3.61311 -2.54768 0
M  V30 169 N 16.2591 1.48442 0.529413 0
M  V30 170 C 17.5361 1.46978 1.29062 0
M  V30 171 C 17.9161 0.181769 2.10316 0
M  V30 172 O 17.2641 -0.836481 2.12639 0
M  V30 173 C 17.4741 2.7321 2.17157 0
M  V30 174 C 18.8221 3.21562 2.77278 0
M  V30 175 O 19.8461 2.74131 2.27444 0
M  V30 176 O 18.7051 4.04094 3.67927 0
M  V30 177 H 15.7991 0.587003 0.582543 0
M  V30 178 H 18.3451 1.60676 0.546021 0
M  V30 179 H 17.1171 3.58465 1.56903 0
M  V30 180 H 16.7401 2.62235 2.98862 0
M  V30 181 N 17.7372 -0.778329 1.37039 0
M  V30 182 C 18.7002 -1.87301 1.32102 0
M  V30 183 C 19.7002 -1.59198 0.226405 0
M  V30 184 O 20.8902 -1.67403 0.481861 0
M  V30 185 C 18.0222 -3.24309 1.05055 0
M  V30 186 H 19.2152 -1.93093 2.29467 0
M  V30 187 H 16.7682 -0.977358 1.21973 0
M  V30 188 H 17.5032 -3.24196 0.0819373 0
M  V30 189 H 17.2882 -3.46098 1.84279 0
M  V30 190 H 18.7782 -4.04382 1.04234 0
M  V30 191 N 19.2153 -1.21501 -1.00376 0
M  V30 192 C 20.4923 -0.941745 -1.71437 0
M  V30 193 C 20.8723 0.546114 -2.03914 0
M  V30 194 O 20.2203 1.51128 -1.71384 0
M  V30 195 C 20.4303 -1.82812 -2.97289 0
M  V30 196 C 21.7783 -2.07771 -3.70292 0
M  V30 197 O 22.8023 -1.80171 -3.07273 0
M  V30 198 O 21.6613 -2.54456 -4.83647 0
M  V30 199 H 18.7553 -0.353243 -0.747762 0
M  V30 200 H 21.3013 -1.32436 -1.06108 0
M  V30 201 H 20.0733 -2.83501 -2.69709 0
M  V30 202 H 19.6963 -1.4464 -3.70358 0
M  V30 203 N 20.6934 1.19889 -1.02296 0
M  V30 204 C 21.9404 1.8942 -0.715972 0
M  V30 205 C 22.2684 1.79251 0.754944 0
M  V30 206 O 21.5234 1.17526 1.56481 0
M  V30 207 C 21.8224 3.39883 -1.10518 0
M  V30 208 C 21.4884 3.70254 -2.57337 0
M  V30 209 C 20.1504 3.78254 -2.97452 0
M  V30 210 C 22.5024 3.84052 -3.52354 0
M  V30 211 C 19.8304 3.97514 -4.31509 0
M  V30 212 C 22.1824 4.04824 -4.86108 0
M  V30 213 C 20.8464 4.11054 -5.25919 0
M  V30 214 H 20.1164 0.693138 -0.261993 0
M  V30 215 H 22.7634 1.42012 -1.28472 0
M  V30 216 H 21.0684 3.8915 -0.454953 0
M  V30 217 H 22.7654 3.9199 -0.845261 0
M  V30 218 H 19.3554 3.64632 -2.25258 0
M  V30 219 H 23.5394 3.77221 -3.22518 0
M  V30 220 H 18.7954 4.00574 -4.61898 0
M  V30 221 H 22.9694 4.14442 -5.59653 0
M  V30 222 H 20.5964 4.2573 -6.29808 0
M  V30 223 N 22.1715 0.800033 1.35784 0
M  V30 224 C 23.5875 0.482977 1.52117 0
M  V30 225 C 23.7875 -0.996948 1.75109 0
M  V30 226 O 22.8435 -1.78216 1.78872 0
M  V30 227 C 24.1565 1.32264 2.70049 0
M  V30 228 C 25.7045 1.31742 2.83924 0
M  V30 229 C 26.1795 2.14106 4.04874 0
M  V30 230 N 27.6705 2.11607 4.12039 0
M  V30 231 C 28.4055 2.72099 5.04727 0
M  V30 232 N 27.9015 3.41492 6.02789 0
M  V30 233 N 29.6945 2.61776 4.97423 0
M  V30 234 H 21.8455 1.75856 1.19115 0
M  V30 235 H 24.1085 0.748122 0.582252 0
M  V30 236 H 23.8145 2.37261 2.59616 0
M  V30 237 H 23.6885 0.971303 3.6448 0
M  V30 238 H 26.0755 0.275333 2.93813 0
M  V30 239 H 26.1565 1.70859 1.9037 0
M  V30 240 H 25.8005 3.18351 3.95746 0
M  V30 241 H 25.7305 1.72353 4.97596 0
M  V30 242 H 28.2215 1.61112 3.41835 0
M  V30 243 H 28.5345 3.84953 6.70098 0
M  V30 244 H 26.8795 3.45596 6.02983 0
M  V30 245 H 30.0705 2.07157 4.19766 0
M  V30 246 H 30.2435 3.0921 5.69468 0
M  V30 247 N 23.6496 -1.47581 0.552962 0
M  V30 248 C 24.6126 -2.28439 -0.186605 0
M  V30 249 C 25.6126 -1.36706 -0.84665 0
M  V30 250 O 26.8026 -1.59378 -0.703164 0
M  V30 251 C 23.9346 -3.16264 -1.2724 0
M  V30 252 H 25.1276 -2.95294 0.523609 0
M  V30 253 H 22.6806 -1.532 0.309745 0
M  V30 254 H 23.4156 -2.54091 -2.01514 0
M  V30 255 H 23.2006 -3.83769 -0.803968 0
M  V30 256 H 24.6906 -3.77198 -1.79196 0
M  V30 257 N 25.1277 -0.289203 -1.54924 0
M  V30 258 C 26.0907 0.579144 -2.21762 0
M  V30 259 C 27.0907 1.07047 -1.1999 0
M  V30 260 O 28.2807 0.968384 -1.44803 0
M  V30 261 C 25.4127 1.80055 -2.8947 0
M  V30 262 H 26.6057 -0.00464908 -2.999 0
M  V30 263 H 24.1587 -0.0399306 -1.56249 0
M  V30 264 H 24.8937 2.42449 -2.15381 0
M  V30 265 H 24.6787 1.45602 -3.64064 0
M  V30 266 H 26.1687 2.41773 -3.40493 0
M  V30 267 N 26.6058 1.57591 -0.0167156 0
M  V30 268 C 27.5358 2.12496 0.967858 0
M  V30 269 C 28.5168 1.03807 1.34752 0
M  V30 270 O 29.7018 1.31577 1.42833 0
M  V30 271 C 26.8318 2.64194 2.25431 0
M  V30 272 C 25.7858 3.77559 2.01576 0
M  V30 273 C 25.1118 4.15636 3.36379 0
M  V30 274 C 26.4118 5.04151 1.36489 0
M  V30 275 H 28.1058 2.95013 0.510643 0
M  V30 276 H 25.6518 1.41915 0.244181 0
M  V30 277 H 27.6048 3.01236 2.94678 0
M  V30 278 H 26.3288 1.78821 2.73296 0
M  V30 279 H 24.9878 3.40937 1.34751 0
M  V30 280 H 24.6358 3.27263 3.81979 0
M  V30 281 H 24.3358 4.92022 3.21229 0
M  V30 282 H 25.8598 4.5525 4.06915 0
M  V30 283 H 27.2738 5.38857 1.95718 0
M  V30 284 H 25.6708 5.85453 1.31776 0
M  V30 285 H 26.7408 4.83733 0.336219 0
M  V30 286 N 28.0839 -0.256276 1.55502 0
M  V30 287 C 29.0139 -1.32102 1.92539 0
M  V30 288 C 29.9949 -1.50684 0.789194 0
M  V30 289 O 31.1799 -1.63449 1.04872 0
M  V30 290 C 28.3099 -2.67752 2.21192 0
M  V30 291 C 27.2639 -2.63878 3.36975 0
M  V30 292 C 26.5899 -4.03236 3.51147 0
M  V30 293 C 27.8899 -2.21682 4.72921 0
M  V30 294 H 29.5839 -1.01351 2.81724 0
M  V30 295 H 27.1299 -0.486105 1.35547 0
M  V30 296 H 29.0829 -3.42365 2.45691 0
M  V30 297 H 27.8069 -3.0012 1.28824 0
M  V30 298 H 26.4659 -1.91722 3.12471 0
M  V30 299 H 26.1139 -4.32854 2.56216 0
M  V30 300 H 25.8139 -4.01535 4.29003 0
M  V30 301 H 27.3379 -4.79563 3.77957 0
M  V30 302 H 28.7519 -2.86023 4.96854 0
M  V30 303 H 27.1489 -2.3111 5.53812 0
M  V30 304 H 28.2189 -1.16833 4.70615 0
M  V30 305 N 29.562 -1.4872 -0.521534 0
M  V30 306 C 30.472 -1.66569 -1.65203 0
M  V30 307 C 31.488 -0.548197 -1.65139 0
M  V30 308 O 32.664 -0.820339 -1.83936 0
M  V30 309 C 29.729 -1.70917 -3.01642 0
M  V30 310 C 28.79 -2.94356 -3.12495 0
M  V30 311 C 28.023 -2.98487 -4.42426 0
M  V30 312 O 28.246 -2.10786 -5.30024 0
M  V30 313 O 27.18 -3.90746 -4.57822 0
M  V30 314 H 31.006 -2.62298 -1.5308 0
M  V30 315 H 28.591 -1.3222 -0.695565 0
M  V30 316 H 30.473 -1.7625 -3.82771 0
M  V30 317 H 29.148 -0.783633 -3.14071 0
M  V30 318 H 28.055 -2.94552 -2.3063 0
M  V30 319 H 29.388 -3.86322 -3.04986 0
M  V30 320 N 31.0401 0.771051 -1.3745 0
M  V30 321 C 31.9881 1.90574 -1.33358 0
M  V30 322 C 32.9821 1.67936 -0.22224 0
M  V30 323 O 34.1881 1.75717 -0.390304 0
M  V30 324 H 30.5631 0.626714 -0.415612 0
M  V30 325 H 32.5341 1.91142 -2.29144 0
M  V30 326 C 31.2831 3.27845 -1.15813 0
M  V30 327 H 30.6061 3.45842 -2.00583 0
M  V30 328 H 32.0461 4.07538 -1.17 0
M  V30 329 C 30.5051 3.36625 0.136165 0
M  V30 330 O 31.0351 3.85785 1.11949 0
M  V30 331 N 29.2411 2.89997 0.187099 0
M  V30 332 H 28.7881 2.50182 -0.613753 0
M  V30 333 H 28.7461 2.96252 1.05272 0
M  V30 334 N 32.5182 1.22032 0.997298 0
M  V30 335 C 33.9292 1.0397 1.55071 0
M  V30 336 C 34.2802 -0.398192 1.92117 0
M  V30 337 O 33.4052 -1.28254 1.74298 0
M  V30 338 C 34.0002 1.88109 2.81781 0
M  V30 339 C 32.5592 1.74357 3.33581 0
M  V30 340 C 31.7062 1.84846 2.06706 0
M  V30 341 H 34.6572 1.35941 0.818883 0
M  V30 342 H 34.6782 1.39589 3.53971 0
M  V30 343 H 34.1902 2.92754 2.54787 0
M  V30 344 H 32.2912 0.72427 3.65493 0
M  V30 345 H 32.4042 2.56772 4.04481 0
M  V30 346 H 30.7682 1.28238 2.20062 0
M  V30 347 H 31.5512 2.91014 1.82114 0
M  V30 348 N 33.9963 -1.19345 1.0293 0
M  V30 349 C 34.9593 -2.20793 0.615069 0
M  V30 350 C 35.9593 -1.57553 -0.321533 0
M  V30 351 O 37.1493 -1.73862 -0.108483 0
M  V30 352 C 34.2813 -3.40754 -0.0999222 0
M  V30 353 H 35.4743 -2.58955 1.51269 0
M  V30 354 H 33.0273 -1.3303 0.820534 0
M  V30 355 H 33.7623 -3.0811 -1.01187 0
M  V30 356 H 33.5473 -3.87889 0.57309 0
M  V30 357 H 35.0373 -4.15898 -0.376645 0
M  V30 358 N 35.4744 -0.807222 -1.35358 0
M  V30 359 C 36.4374 -0.223665 -2.28106 0
M  V30 360 C 37.4374 0.589354 -1.4961 0
M  V30 361 O 38.6274 0.407745 -1.69361 0
M  V30 362 C 35.7594 0.688149 -3.33882 0
M  V30 363 H 36.9524 -1.04169 -2.81227 0
M  V30 364 H 34.5054 -0.577921 -1.45223 0
M  V30 365 H 35.2404 1.52984 -2.85948 0
M  V30 366 H 35.0254 0.10687 -3.91954 0
M  V30 367 H 36.5154 1.09075 -4.03104 0
M  V30 368 N 36.9525 1.47285 -0.560781 0
M  V30 369 C 38.1995 2.02464 -0.038062 0
M  V30 370 C 38.5275 1.43474 1.31322 0
M  V30 371 O 37.7825 0.581311 1.86867 0
M  V30 372 C 38.0815 3.57258 0.100784 0
M  V30 373 C 37.7475 4.35184 -1.18007 0
M  V30 374 C 36.4095 4.56194 -1.53103 0
M  V30 375 C 38.7615 4.80098 -2.02867 0
M  V30 376 C 36.0895 5.19367 -2.729 0
M  V30 377 C 38.4415 5.44593 -3.21871 0
M  V30 378 C 37.1055 5.63835 -3.57276 0
M  V30 379 H 36.3755 0.740869 -0.0139279 0
M  V30 380 H 39.0225 1.76916 -0.733012 0
M  V30 381 H 37.3275 3.81819 0.878724 0
M  V30 382 H 39.0245 3.97606 0.520639 0
M  V30 383 H 35.6145 4.19113 -0.8968 0
M  V30 384 H 39.7985 4.63642 -1.7706 0
M  V30 385 H 35.0545 5.32459 -3.00496 0
M  V30 386 H 39.2285 5.78358 -3.87911 0
M  V30 387 H 36.8555 6.12557 -4.50197 0
M  V30 388 N 38.4306 0.297415 1.54768 0
M  V30 389 C 39.6786 -0.312295 1.99673 0
M  V30 390 C 39.9996 -1.54686 1.18732 0
M  V30 391 O 39.2696 -1.93854 0.282382 0
M  V30 392 H 37.8496 -0.118381 0.73756 0
M  V30 393 H 40.5116 0.407915 1.90583 0
M  V30 394 H 39.6076 -0.586813 3.06534 0
M  V30 395 N 39.9087 -1.5758 0.0250728 0
M  V30 396 C 40.8717 -2.08896 -0.943139 0
M  V30 397 C 41.8717 -1.00321 -1.25668 0
M  V30 398 O 43.0617 -1.26495 -1.19769 0
M  V30 399 C 40.1937 -2.55143 -2.26086 0
M  V30 400 H 41.3867 -2.95723 -0.498775 0
M  V30 401 H 38.9397 -1.54703 -0.222888 0
M  V30 402 H 39.6747 -1.71633 -2.75159 0
M  V30 403 H 39.4597 -3.34461 -2.04641 0
M  V30 404 H 40.9497 -2.95083 -2.95492 0
M  V30 405 N 41.3868 0.248026 -1.55636 0
M  V30 406 C 42.6118 0.998028 -1.81808 0
M  V30 407 C 43.0368 1.78207 -0.601979 0
M  V30 408 O 42.3948 1.75653 0.448961 0
M  V30 409 C 42.4428 1.9125 -3.05705 0
M  V30 410 O 41.5468 3.00406 -2.82542 0
M  V30 411 H 40.8878 0.284045 -0.600179 0
M  V30 412 H 43.4178 0.269357 -2.02819 0
M  V30 413 H 43.4278 2.32737 -3.35108 0
M  V30 414 H 42.1028 1.33602 -3.93857 0
M  V30 415 H 40.6798 2.63056 -2.64303 0
M  V30 416 N 42.8649 1.48995 0.513639 0
M  V30 417 C 43.8279 1.64229 1.59879 0
M  V30 418 C 44.8279 0.514696 1.5234 0
M  V30 419 O 46.0179 0.78087 1.55718 0
M  V30 420 C 43.1499 1.62783 2.99524 0
M  V30 421 H 44.3429 2.61004 1.47705 0
M  V30 422 H 41.8959 1.37837 0.736936 0
M  V30 423 H 42.6309 0.675461 3.17188 0
M  V30 424 H 42.4159 2.4466 3.06404 0
M  V30 425 H 43.9059 1.76669 3.78388 0
M  V30 426 N 44.343 -0.763751 1.37857 0
M  V30 427 C 45.306 -1.85889 1.34081 0
M  V30 428 C 46.306 -1.58949 0.243277 0
M  V30 429 O 47.496 -1.66882 0.499589 0
M  V30 430 C 44.628 -3.23176 1.08489 0
M  V30 431 H 45.821 -1.90648 2.31502 0
M  V30 432 H 43.374 -0.964367 1.23003 0
M  V30 433 H 44.109 -3.24091 0.116318 0
M  V30 434 H 43.894 -3.44124 1.8794 0
M  V30 435 H 45.384 -4.03254 1.08517 0
M  V30 436 N 45.8211 -1.22559 -0.990812 0
M  V30 437 C 46.7841 -0.998863 -2.0629 0
M  V30 438 C 47.7841 0.0354834 -1.60761 0
M  V30 439 O 48.9741 -0.203231 -1.7301 0
M  V30 440 C 46.1061 -0.509203 -3.37076 0
M  V30 441 H 47.2991 -1.95014 -2.27837 0
M  V30 442 H 44.8521 -1.04456 -1.16269 0
M  V30 443 H 45.5871 0.446335 -3.21214 0
M  V30 444 H 45.3721 -1.25547 -3.71457 0
M  V30 445 H 46.8621 -0.370888 -4.1595 0
M  V30 446 N 47.2992 1.18797 -1.03562 0
M  V30 447 C 48.2292 2.24472 -0.643019 0
M  V30 448 C 49.2102 1.66433 0.351283 0
M  V30 449 O 50.3952 1.92803 0.232505 0
M  V30 450 C 47.5252 3.473 4.24935e-05 0
M  V30 451 C 46.4792 4.18055 -0.917257 0
M  V30 452 C 45.8052 5.34519 -0.138941 0
M  V30 453 C 47.1052 4.72109 -2.23407 0
M  V30 454 H 48.7992 2.57566 -1.52643 0
M  V30 455 H 46.3452 1.23806 -0.735394 0
M  V30 456 H 48.2982 4.20426 0.286383 0
M  V30 457 H 47.0222 3.13424 0.918299 0
M  V30 458 H 45.6812 3.46821 -1.1879 0
M  V30 459 H 45.3292 4.96891 0.781562 0
M  V30 460 H 45.0292 5.82794 -0.750005 0
M  V30 461 H 46.5532 6.10438 0.1405 0
M  V30 462 H 47.9672 5.36955 -2.00879 0
M  V30 463 H 46.3642 5.30897 -2.79765 0
M  V30 464 H 47.4342 3.89807 -2.88407 0
M  V30 465 N 48.7773 0.814389 1.34928 0
M  V30 466 C 50.1883 0.458364 1.80986 0
M  V30 467 C 50.5393 -1.02042 1.67577 0
M  V30 468 O 49.6643 -1.79352 1.21086 0
M  V30 469 C 50.2593 0.825212 3.28597 0
M  V30 470 C 48.8183 0.521677 3.72767 0
M  V30 471 C 47.9653 1.04668 2.56788 0
M  V30 472 H 50.9163 1.00533 1.22795 0
M  V30 473 H 50.9373 0.12571 3.80292 0
M  V30 474 H 50.4493 1.90154 3.38324 0
M  V30 475 H 48.5503 -0.545589 3.68584 0
M  V30 476 H 48.6633 1.05977 4.67232 0
M  V30 477 H 47.0273 0.468622 2.50352 0
M  V30 478 H 47.8103 2.12927 2.6929 0
M  V30 479 N 50.2554 -1.46986 0.568584 0
M  V30 480 C 51.4834 -2.0683 0.0539956 0
M  V30 481 C 51.8984 -1.41953 -1.24478 0
M  V30 482 O 51.2554 -0.519933 -1.74937 0
M  V30 483 C 51.3064 -3.61254 -0.133362 0
M  V30 484 O 51.0274 -4.237 1.11399 0
M  V30 485 C 52.5284 -4.37992 -0.683927 0
M  V30 486 H 49.7484 -0.669058 0.0510141 0
M  V30 487 H 52.2924 -1.88824 0.785234 0
M  V30 488 H 50.4474 -3.78735 -0.81477 0
M  V30 489 H 50.8614 -5.16388 0.91888 0
M  V30 490 H 52.3354 -5.46684 -0.764263 0
M  V30 491 H 52.8124 -4.05058 -1.69778 0
M  V30 492 H 53.4184 -4.25283 -0.0378494 0
M  V30 493 N 51.7335 -0.305618 -1.54608 0
M  V30 494 C 53.1445 0.186098 -1.8577 0
M  V30 495 C 53.4955 1.53058 -1.22751 0
M  V30 496 O 52.6205 2.09888 -0.526893 0
M  V30 497 C 53.2155 0.344449 -3.37044 0
M  V30 498 C 51.7745 0.780384 -3.68221 0
M  V30 499 C 50.9215 -0.108554 -2.77087 0
M  V30 500 H 53.8725 -0.526485 -1.49712 0
M  V30 501 H 53.8935 1.17828 -3.61796 0
M  V30 502 H 53.4055 -0.634235 -3.82883 0
M  V30 503 H 51.5065 1.76945 -3.27904 0
M  V30 504 H 51.6195 0.596572 -4.75371 0
M  V30 505 H 49.9835 0.412931 -2.5133 0
M  V30 506 H 50.7665 -1.08368 -3.25747 0
M  V30 507 N 53.2116 1.57565 -0.0334293 0
M  V30 508 C 54.4576 1.92262 0.645226 0
M  V30 509 C 54.7906 0.910543 1.71531 0
M  V30 510 O 54.0656 -0.066099 1.94388 0
M  V30 511 C 54.3486 3.37422 1.2577 0
M  V30 512 C 54.2016 4.49369 0.196891 0
M  V30 513 C 55.5206 3.82628 2.17449 0
M  V30 514 H 52.6396 0.699171 0.233085 0
M  V30 515 H 55.2816 1.89779 -0.0915694 0
M  V30 516 H 53.4316 3.39669 1.88566 0
M  V30 517 H 55.1036 4.59254 -0.433962 0
M  V30 518 H 53.3466 4.31168 -0.477137 0
M  V30 519 H 54.0176 5.47978 0.665124 0
M  V30 520 H 56.4936 3.82145 1.64634 0
M  V30 521 H 55.3696 4.84883 2.57254 0
M  V30 522 H 55.6306 3.18376 3.0674 0
M  V30 523 N 54.6897 -0.239769 1.55765 0
M  V30 524 C 55.5997 -1.31831 1.94056 0
M  V30 525 C 56.6157 -1.52275 0.841925 0
M  V30 526 O 57.7917 -1.65759 1.14394 0
M  V30 527 C 54.8567 -2.65156 2.23368 0
M  V30 528 C 53.9177 -2.53173 3.46701 0
M  V30 529 C 53.1507 -3.8014 3.74606 0
M  V30 530 O 53.3737 -4.82343 3.04469 0
M  V30 531 O 52.3077 -3.78344 4.68123 0
M  V30 532 H 56.1337 -1.02347 2.85935 0
M  V30 533 H 53.7187 -0.441123 1.42739 0
M  V30 534 H 55.6007 -3.43929 2.43497 0
M  V30 535 H 54.2757 -2.94358 1.34666 0
M  V30 536 H 53.1827 -1.72662 3.31871 0
M  V30 537 H 54.5157 -2.28915 4.35728 0
M  V30 538 N 56.1678 -1.49265 -0.50573 0
M  V30 539 C 57.1308 -1.65075 -1.59006 0
M  V30 540 C 58.1308 -0.522768 -1.52065 0
M  V30 541 O 59.3208 -0.789117 -1.55302 0
M  V30 542 C 56.4528 -1.64369 -2.98656 0
M  V30 543 H 57.6458 -2.61784 -1.46319 0
M  V30 544 H 55.1988 -1.38226 -0.729616 0
M  V30 545 H 55.9338 -0.692272 -3.16825 0
M  V30 546 H 55.7188 -2.46282 -3.05103 0
M  V30 547 H 57.2088 -1.78674 -3.77446 0
M  V30 548 N 57.6459 0.756429 -1.3826 0
M  V30 549 C 58.5779 1.87971 -1.31147 0
M  V30 550 C 59.5909 1.61248 -0.224239 0
M  V30 551 O 60.7799 1.71881 -0.481581 0
M  V30 552 C 57.8799 3.23545 -1.00857 0
M  V30 553 C 57.0529 3.77794 -2.20432 0
M  V30 554 C 56.1119 4.91877 -1.86931 0
M  V30 555 O 55.1379 5.06659 -2.59395 0
M  V30 556 N 56.3399 5.74643 -0.822568 0
M  V30 557 H 59.1049 1.94585 -2.2794 0
M  V30 558 H 56.6659 0.936234 -1.32084 0
M  V30 559 H 58.6579 3.97403 -0.765021 0
M  V30 560 H 57.2279 3.12335 -0.128687 0
M  V30 561 H 56.4479 2.95534 -2.6087 0
M  V30 562 H 57.7359 4.10771 -3.00241 0
M  V30 563 H 57.1339 5.65266 -0.221575 0
M  V30 564 H 55.6909 6.48661 -0.638899 0
M  V30 565 N 59.124 1.23083 0.984299 0
M  V30 566 C 60.401 0.9689 1.69917 0
M  V30 567 C 60.781 -0.513604 2.04757 0
M  V30 568 O 60.129 -1.48383 1.73767 0
M  V30 569 C 60.339 1.87518 2.94343 0
M  V30 570 C 61.687 2.13636 3.6694 0
M  V30 571 O 62.711 1.85036 3.04368 0
M  V30 572 O 61.57 2.62119 4.79537 0
M  V30 573 H 58.664 0.365095 0.742048 0
M  V30 574 H 61.21 1.34107 1.03987 0
M  V30 575 H 59.982 2.87756 2.65164 0
M  V30 576 H 59.605 1.50514 3.6801 0
M  V30 577 N 60.6021 -1.18246 1.0419 0
M  V30 578 C 61.5341 -2.2142 0.592088 0
M  V30 579 C 62.5471 -1.59233 -0.338909 0
M  V30 580 O 63.7361 -1.78002 -0.133231 0
M  V30 581 C 60.8361 -3.38546 -0.154854 0
M  V30 582 C 60.0091 -4.3031 0.784328 0
M  V30 583 C 59.0681 -5.26138 0.0804583 0
M  V30 584 O 58.0941 -5.64738 0.711292 0
M  V30 585 N 59.2961 -5.68261 -1.18574 0
M  V30 586 H 62.0611 -2.60636 1.47949 0
M  V30 587 H 59.6221 -1.33044 0.922544 0
M  V30 588 H 61.6141 -3.99678 -0.635606 0
M  V30 589 H 60.1841 -2.98012 -0.943811 0
M  V30 590 H 59.4041 -3.66764 1.44491 0
M  V30 591 H 60.6921 -4.8852 1.42218 0
M  V30 592 H 60.0901 -5.38957 -1.71876 0
M  V30 593 H 58.6471 -6.31584 -1.61074 0
M  V30 594 N 62.0802 -0.821533 -1.34494 0
M  V30 595 C 63.0432 -0.247847 -2.27856 0
M  V30 596 C 64.0432 0.573453 -1.50227 0
M  V30 597 O 65.2332 0.389759 -1.69784 0
M  V30 598 C 62.3652 0.652698 -3.34593 0
M  V30 599 H 63.5582 -1.07146 -2.80107 0
M  V30 600 H 61.1112 -0.593291 -1.44602 0
M  V30 601 H 61.8462 1.49943 -2.87555 0
M  V30 602 H 61.6312 0.065292 -3.92046 0
M  V30 603 H 63.1212 1.04793 -4.04238 0
M  V30 604 N 63.5583 1.46682 -0.576371 0
M  V30 605 C 64.7833 2.07304 -0.0630475 0
M  V30 606 C 65.2083 1.42329 1.2298 0
M  V30 607 O 64.5663 0.504865 1.74129 0
M  V30 608 C 64.6143 3.60472 0.095895 0
M  V30 609 O 63.7183 3.95927 1.15394 0
M  V30 610 H 63.0593 0.661288 -0.0599463 0
M  V30 611 H 65.5893 1.88417 -0.797511 0
M  V30 612 H 65.5993 4.06865 0.304071 0
M  V30 613 H 64.2743 4.07157 -0.84828 0
M  V30 614 H 62.8513 3.61252 0.924724 0
M  V30 615 N 65.0364 0.313813 1.54444 0
M  V30 616 C 65.9664 -0.549454 2.26943 0
M  V30 617 C 66.9474 -1.12741 1.27372 0
M  V30 618 O 68.1324 -1.15436 1.56167 0
M  V30 619 C 65.2624 -1.71523 3.01989 0
M  V30 620 C 64.2164 -1.26703 4.08816 0
M  V30 621 C 63.5424 -2.51898 4.71647 0
M  V30 622 C 64.8424 -0.388962 5.2085 0
M  V30 623 H 66.5364 0.0552661 2.99349 0
M  V30 624 H 64.0824 0.0280207 1.43973 0
M  V30 625 H 66.0354 -2.32535 3.51433 0
M  V30 626 H 64.7594 -2.34639 2.27183 0
M  V30 627 H 63.4184 -0.679896 3.6024 0
M  V30 628 H 63.0664 -3.13356 3.93468 0
M  V30 629 H 62.7664 -2.22605 5.43802 0
M  V30 630 H 64.2904 -3.1369 5.23861 0
M  V30 631 H 65.7044 -0.905107 5.6611 0
M  V30 632 H 64.1014 -0.18924 5.99802 0
M  V30 633 H 65.1714 0.582699 4.81386 0
M  V30 634 N 66.5145 -1.57545 0.0417849 0
M  V30 635 C 67.7915 -1.83642 -0.673433 0
M  V30 636 C 68.1715 -0.928298 -1.89594 0
M  V30 637 O 67.5195 0.0129955 -2.28496 0
M  V30 638 C 67.7295 -3.33155 -1.03964 0
M  V30 639 C 69.0775 -3.99941 -1.42592 0
M  V30 640 O 70.1015 -3.37725 -1.13226 0
M  V30 641 O 68.9605 -5.09619 -1.9736 0
M  V30 642 H 66.0545 -0.757638 -0.331533 0
M  V30 643 H 68.6005 -1.69554 0.070433 0
M  V30 644 H 67.3725 -3.9093 -0.170098 0
M  V30 645 H 66.9955 -3.52396 -1.84126 0
M  V30 646 N 67.9926 0.231505 -1.5589 0
M  V30 647 C 69.2396 0.957352 -1.78441 0
M  V30 648 C 69.5676 1.84726 -0.60882 0
M  V30 649 O 68.8226 1.91416 0.40725 0
M  V30 650 C 69.1216 1.83577 -3.0665 0
M  V30 651 C 68.7876 1.09993 -4.37278 0
M  V30 652 C 67.4496 0.896629 -4.72773 0
M  V30 653 C 69.8016 0.579558 -5.17968 0
M  V30 654 C 67.1296 0.160896 -5.86479 0
M  V30 655 C 69.4816 -0.142783 -6.32439 0
M  V30 656 C 68.1456 -0.357427 -6.66542 0
M  V30 657 H 67.4156 0.35032 -0.65296 0
M  V30 658 H 70.0626 0.226259 -1.90159 0
M  V30 659 H 68.3676 2.63441 -2.90011 0
M  V30 660 H 70.0646 2.39934 -3.21298 0
M  V30 661 H 66.6546 1.26835 -4.09403 0
M  V30 662 H 70.8386 0.724125 -4.90989 0
M  V30 663 H 66.0946 -0.0157293 -6.11398 0
M  V30 664 H 70.2686 -0.553559 -6.94196 0
M  V30 665 H 67.8956 -0.929466 -7.54497 0
M  V30 666 N 69.4707 1.49531 0.497807 0
M  V30 667 C 70.7167 1.60388 1.25089 0
M  V30 668 C 71.0717 0.288328 1.90227 0
M  V30 669 O 70.3647 -0.711706 1.77891 0
M  V30 670 C 70.5587 2.70252 2.33878 0
M  V30 671 C 70.3877 4.12363 1.79408 0
M  V30 672 C 69.1577 4.7911 1.60566 0
M  V30 673 C 71.3557 4.97491 1.30412 0
M  V30 674 N 69.3377 6.05525 1.01059 0
M  V30 675 C 70.7087 6.14411 0.830595 0
M  V30 676 C 72.7637 4.83466 1.19015 0
M  V30 677 C 71.4667 7.1885 0.254371 0
M  V30 678 C 73.4927 5.88057 0.627892 0
M  V30 679 C 72.8547 7.04208 0.16461 0
M  V30 680 H 68.9537 0.641246 0.447579 0
M  V30 681 H 71.5377 1.86549 0.557441 0
M  V30 682 H 69.7087 2.45858 3.0068 0
M  V30 683 H 71.4407 2.70613 3.00917 0
M  V30 684 H 68.1957 4.35961 1.85026 0
M  V30 685 H 68.6197 6.73028 0.732236 0
M  V30 686 H 73.2617 3.93978 1.53431 0
M  V30 687 H 70.9797 8.08036 -0.102052 0
M  V30 688 H 74.5657 5.79266 0.542444 0
M  V30 689 H 73.4457 7.83757 -0.263669 0
M  V30 690 N 70.9488 -0.749086 1.3866 0
M  V30 691 C 72.1768 -1.53834 1.38358 0
M  V30 692 C 72.5918 -1.88783 -0.0255219 0
M  V30 693 O 71.9488 -1.53101 -0.993292 0
M  V30 694 C 71.9998 -2.83468 2.2434 0
M  V30 695 O 71.7208 -2.50008 3.5976 0
M  V30 696 C 73.2218 -3.7758 2.32267 0
M  V30 697 H 70.4418 -0.47585 0.473083 0
M  V30 698 H 72.9858 -0.926726 1.82297 0
M  V30 699 H 71.1408 -3.40995 1.83851 0
M  V30 700 H 71.5548 -3.33182 4.05081 0
M  V30 701 H 73.0288 -4.65478 2.96706 0
M  V30 702 H 73.5058 -4.18334 1.33765 0
M  V30 703 H 74.1118 -3.25976 2.73166 0
M  V30 704 N 72.4269 -1.23603 -0.977757 0
M  V30 705 C 73.3739 -1.01954 -2.07061 0
M  V30 706 C 74.3439 0.0638697 -1.65977 0
M  V30 707 O 75.5289 -0.0887624 -1.90593 0
M  V30 708 C 72.6689 -0.619658 -3.39491 0
M  V30 709 C 71.7819 -1.77547 -3.93829 0
M  V30 710 C 70.9169 -1.32212 -5.14484 0
M  V30 711 C 69.9559 -2.44852 -5.60994 0
M  V30 712 N 69.0929 -2.00456 -6.72876 0
M  V30 713 H 73.9329 -1.95495 -2.24913 0
M  V30 714 H 71.4699 -0.973861 -1.10247 0
M  V30 715 H 73.4279 -0.368898 -4.15566 0
M  V30 716 H 72.0579 0.278752 -3.21594 0
M  V30 717 H 71.1099 -2.14016 -3.14486 0
M  V30 718 H 72.4219 -2.62219 -4.24314 0
M  V30 719 H 71.5759 -1.02965 -5.97899 0
M  V30 720 H 70.3149 -0.445808 -4.85658 0
M  V30 721 H 69.3199 -2.74871 -4.76157 0
M  V30 722 H 70.5449 -3.33024 -5.91837 0
M  V30 723 H 68.4909 -1.15208 -6.45804 0
M  V30 724 H 68.4079 -2.78687 -7.02759 0
M  V30 725 H 69.6759 -1.7432 -7.59758 0
M  V30 726 N 73.905 1.17692 -1.04816 0
M  V30 727 C 75.182 1.83768 -0.669963 0
M  V30 728 C 75.562 1.93232 0.849986 0
M  V30 729 O 74.91 1.46397 1.75443 0
M  V30 730 C 75.12 3.21641 -1.35455 0
M  V30 731 C 76.468 3.97592 -1.49017 0
M  V30 732 O 77.492 3.31107 -1.31326 0
M  V30 733 O 76.351 5.16729 -1.77914 0
M  V30 734 H 73.445 0.792799 -0.235368 0
M  V30 735 H 75.991 1.25021 -1.14751 0
M  V30 736 H 74.763 3.097 -2.39168 0
M  V30 737 H 74.386 3.88052 -0.866107 0
M  V30 738 N 75.3831 0.828654 1.34056 0
M  V30 739 C 76.6321 0.415828 1.97367 0
M  V30 740 C 76.9451 -1.02796 1.6641 0
M  V30 741 O 78.1511 -1.54497 2.23255 0
M  V30 742 C 76.6071 0.692601 3.53173 0
M  V30 743 C 76.2151 2.15038 3.93017 0
M  V30 744 C 77.9591 0.346222 4.23086 0
M  V30 745 C 75.8661 2.37174 5.41758 0
M  V30 746 H 74.7961 0.151755 0.738571 0
M  V30 747 H 77.4471 1.01581 1.52819 0
M  V30 748 H 75.8291 0.0223764 3.95994 0
M  V30 749 H 77.0031 2.86024 3.61285 0
M  V30 750 H 75.3181 2.45875 3.36057 0
M  V30 751 H 77.9151 0.48937 5.32456 0
M  V30 752 H 78.2581 -0.709842 4.10204 0
M  V30 753 H 78.7911 0.971258 3.85761 0
M  V30 754 H 75.5301 3.41308 5.59633 0
M  V30 755 H 75.0501 1.70738 5.74986 0
M  V30 756 H 76.7291 2.19818 6.08514 0
M  V30 757 N 76.8612 -1.46375 0.584142 0
M  V30 758 C 77.8242 -2.28784 -0.138108 0
M  V30 759 C 78.8242 -1.38471 -0.817462 0
M  V30 760 O 80.0142 -1.60833 -0.669199 0
M  V30 761 C 77.1462 -3.18892 -1.20503 0
M  V30 762 H 78.3392 -2.94117 0.586127 0
M  V30 763 H 75.8922 -1.52509 0.342171 0
M  V30 764 H 76.6272 -2.58309 -1.96079 0
M  V30 765 H 76.4122 -3.85388 -0.722384 0
M  V30 766 H 77.9022 -3.80914 -1.71155 0
M  V30 767 N 78.3393 -0.321999 -1.54275 0
M  V30 768 C 79.3023 0.531975 -2.22941 0
M  V30 769 C 80.3023 1.04478 -1.22234 0
M  V30 770 O 81.4923 0.937452 -1.46825 0
M  V30 771 C 78.6243 1.73874 -2.93224 0
M  V30 772 H 79.8173 -0.0682612 -2.99822 0
M  V30 773 H 77.3703 -0.0730644 -1.56129 0
M  V30 774 H 78.1053 2.37825 -2.20476 0
M  V30 775 H 77.8903 1.37847 -3.6707 0
M  V30 776 H 79.3803 2.34496 -3.45545 0
M  V30 777 N 79.8174 1.5752 -0.0501392 0
M  V30 778 C 81.0454 1.96963 0.633492 0
M  V30 779 C 81.4604 0.927631 1.6444 0
M  V30 780 O 80.8174 -0.0882665 1.82286 0
M  V30 781 C 80.8684 3.36487 1.32132 0
M  V30 782 O 80.5894 4.36693 0.350894 0
M  V30 783 C 82.0904 3.90682 2.09481 0
M  V30 784 H 79.3104 0.648244 0.173266 0
M  V30 785 H 81.8544 2.0417 -0.116134 0
M  V30 786 H 80.0094 3.30434 2.02218 0
M  V30 787 H 80.4234 5.17702 0.841735 0
M  V30 788 H 81.8974 4.90591 2.5303 0
M  V30 789 H 82.3744 3.26053 2.94255 0
M  V30 790 H 82.9804 4.00069 1.44307 0
M  V30 791 N 81.2955 -0.223234 1.56011 0
M  V30 792 C 82.2055 -1.29766 1.95443 0
M  V30 793 C 83.2215 -1.51373 0.858028 0
M  V30 794 O 84.3975 -1.64536 1.16146 0
M  V30 795 C 81.4625 -2.62772 2.26167 0
M  V30 796 C 80.5235 -2.49482 3.49367 0
M  V30 797 C 79.7565 -3.76145 3.78616 0
M  V30 798 O 79.9795 -4.79087 3.09568 0
M  V30 799 O 78.9135 -3.73358 4.72109 0
M  V30 800 H 82.7395 -0.99309 2.87004 0
M  V30 801 H 80.3245 -0.425958 1.43199 0
M  V30 802 H 82.2065 -3.41327 2.47131 0
M  V30 803 H 80.8815 -2.92913 1.37781 0
M  V30 804 H 79.7885 -1.69133 3.33684 0
M  V30 805 H 81.1215 -2.2428 4.38131 0
M  V30 806 N 82.7736 -1.49793 -0.48987 0
M  V30 807 C 83.7366 -1.66752 -1.57246 0
M  V30 808 C 84.7366 -0.538867 -1.51502 0
M  V30 809 O 85.9266 -0.805545 -1.54456 0
M  V30 810 C 83.0586 -1.67528 -2.96896 0
M  V30 811 H 84.2516 -2.63321 -1.43534 0
M  V30 812 H 81.8046 -1.38992 -0.714914 0
M  V30 813 H 82.5396 -0.725837 -3.16073 0
M  V30 814 H 82.3246 -2.49504 -3.02473 0
M  V30 815 H 83.8146 -1.82667 -3.7553 0
M  V30 816 N 84.2517 0.741722 -1.39055 0
M  V30 817 C 85.4987 1.50114 -1.35912 0
M  V30 818 C 85.8267 1.94443 0.0470937 0
M  V30 819 O 85.0817 1.66612 1.02659 0
M  V30 820 C 85.3807 2.7592 -2.27163 0
M  V30 821 C 85.0467 2.50493 -3.74919 0
M  V30 822 C 83.7087 2.43267 -4.1518 0
M  V30 823 C 86.0607 2.28585 -4.684 0
M  V30 824 C 83.3887 2.12166 -5.46994 0
M  V30 825 C 85.7407 1.99002 -6.00484 0
M  V30 826 C 84.4047 1.90241 -6.39816 0
M  V30 827 H 83.6747 0.549306 -0.497336 0
M  V30 828 H 86.3217 0.851896 -1.71508 0
M  V30 829 H 84.6267 3.45553 -1.84663 0
M  V30 830 H 86.3237 3.33923 -2.22028 0
M  V30 831 H 82.9137 2.56992 -3.43006 0
M  V30 832 H 87.0977 2.33139 -4.38132 0
M  V30 833 H 82.3537 2.03901 -5.76398 0
M  V30 834 H 86.5277 1.81057 -6.72452 0
M  V30 835 H 84.1547 1.65907 -7.41875 0
M  V30 836 N 85.7298 1.2412 0.971189 0
M  V30 837 C 86.6928 1.03156 2.04674 0
M  V30 838 C 87.6928 -0.00990322 1.60797 0
M  V30 839 O 88.8828 0.230729 1.72665 0
M  V30 840 C 86.0148 0.562765 3.36223 0
M  V30 841 H 87.2078 1.98614 2.24705 0
M  V30 842 H 84.7608 1.06293 1.14593 0
M  V30 843 H 85.4958 -0.395176 3.21883 0
M  V30 844 H 85.2808 1.31441 3.69413 0
M  V30 845 H 86.7708 0.437015 4.15307 0
M  V30 846 N 87.2079 -1.17134 1.05439 0
M  V30 847 C 88.4479 -1.89137 0.77502 0
M  V30 848 C 88.8119 -1.79345 -0.685526 0
M  V30 849 O 90.0129 -2.46188 -1.0791 0
M  V30 850 C 88.2839 -3.35003 1.2453 0
M  V30 851 S 89.8429 -4.24952 1.09367 0
M  V30 852 H 86.6609 -0.652949 0.281387 0
M  V30 853 H 89.2629 -1.4145 1.34953 0
M  V30 854 H 87.9669 -3.39666 2.30338 0
M  V30 855 H 87.4979 -3.87736 0.665166 0
M  V30 856 H 89.5129 -4.96196 0.0193397 0
M  V30 857 N 88.686 -0.835752 -1.33615 0
M  V30 858 C 90.102 -0.523139 -1.50783 0
M  V30 859 C 90.302 0.950171 -1.77691 0
M  V30 860 O 89.358 1.73411 -1.83534 0
M  V30 861 C 90.671 -1.39378 -2.66448 0
M  V30 862 C 92.219 -1.39223 -2.80332 0
M  V30 863 C 92.694 -2.24765 -3.99055 0
M  V30 864 N 94.185 -2.22458 -4.06284 0
M  V30 865 C 94.92 -2.85386 -4.97336 0
M  V30 866 N 94.416 -3.57354 -5.93523 0
M  V30 867 N 96.209 -2.74872 -4.90308 0
M  V30 868 H 88.36 -1.78952 -1.14411 0
M  V30 869 H 90.623 -0.763297 -0.562212 0
M  V30 870 H 90.329 -2.44061 -2.53234 0
M  V30 871 H 90.203 -1.0676 -3.61776 0
M  V30 872 H 92.59 -0.353136 -2.92979 0
M  V30 873 H 92.671 -1.75846 -1.85773 0
M  V30 874 H 92.315 -3.28732 -3.87167 0
M  V30 875 H 92.245 -1.85485 -4.92852 0
M  V30 876 H 94.736 -1.70119 -3.37443 0
M  V30 877 H 95.049 -4.02584 -6.59656 0
M  V30 878 H 93.394 -3.61461 -5.93608 0
M  V30 879 H 96.585 -2.18213 -4.14126 0
M  V30 880 H 96.758 -3.24199 -5.61069 0
M  V30 881 N 90.1641 1.46063 -0.591896 0
M  V30 882 C 91.0961 2.28539 0.174001 0
M  V30 883 C 92.1091 1.39047 0.846753 0
M  V30 884 O 93.2981 1.63564 0.714774 0
M  V30 885 C 90.3981 3.14347 1.26645 0
M  V30 886 C 89.5711 4.32021 0.683856 0
M  V30 887 C 88.6301 4.99157 1.66518 0
M  V30 888 O 87.6561 5.56458 1.19763 0
M  V30 889 N 88.8581 4.97005 2.99943 0
M  V30 890 H 91.6231 2.94911 -0.533633 0
M  V30 891 H 89.1841 1.56077 -0.430294 0
M  V30 892 H 91.1761 3.56125 1.92242 0
M  V30 893 H 89.7461 2.49988 1.87682 0
M  V30 894 H 88.9661 3.93915 -0.1498 0
M  V30 895 H 90.2541 5.08059 0.274567 0
M  V30 896 H 89.6521 4.51714 3.40545 0
M  V30 897 H 88.2091 5.42696 3.61004 0
M  V30 898 N 91.6422 0.330177 1.54103 0
M  V30 899 C 92.8672 -0.274893 2.0557 0
M  V30 900 C 93.2922 -1.44487 1.20437 0
M  V30 901 O 92.6502 -1.80021 0.214991 0
M  V30 902 C 92.6982 -0.68079 3.54115 0
M  V30 903 O 91.8022 -1.7824 3.71893 0
M  V30 904 H 91.1432 -0.0483849 0.662235 0
M  V30 905 H 93.6732 0.480508 1.98878 0
M  V30 906 H 93.6832 -0.961635 3.96505 0
M  V30 907 H 92.3582 0.174903 4.15532 0
M  V30 908 H 90.9352 -1.49985 3.41407 0
M  V30 909 N 93.1203 -1.57491 0.0584922 0
M  V30 910 C 94.3603 -1.94851 -0.617458 0
M  V30 911 C 94.7243 -0.937165 -1.67575 0
M  V30 912 O 95.9253 -1.19795 -2.40629 0
M  V30 913 C 94.1963 -3.36955 -1.19147 0
M  V30 914 S 95.7553 -3.96277 -1.8844 0
M  V30 915 H 92.5733 -0.681539 -0.202547 0
M  V30 916 H 95.1753 -1.95073 0.129176 0
M  V30 917 H 93.8793 -4.08355 -0.409215 0
M  V30 918 H 93.4103 -3.40245 -1.97476 0
M  V30 919 H 95.4253 -3.82099 -3.16568 0
M  V30 920 N 94.5984 0.214957 -1.56127 0
M  V30 921 C 95.8234 0.95924 -1.83884 0
M  V30 922 C 96.2484 1.7689 -0.639644 0
M  V30 923 O 95.6064 1.76566 0.411601 0
M  V30 924 C 95.6544 1.84723 -3.09693 0
M  V30 925 O 94.7584 2.94346 -2.8885 0
M  V30 926 H 94.0994 0.27125 -0.606069 0
M  V30 927 H 96.6294 0.226276 -2.03345 0
M  V30 928 H 96.6394 2.25576 -3.39969 0
M  V30 929 H 95.3144 1.25218 -3.96602 0
M  V30 930 H 93.8914 2.57391 -2.69823 0
M  V30 931 N 96.0765 1.50051 0.48192 0
M  V30 932 C 97.3235 1.60498 1.23477 0
M  V30 933 C 97.6515 0.300331 1.92167 0
M  V30 934 O 96.9065 -0.713094 1.82246 0
M  V30 935 C 97.2055 2.72717 2.30998 0
M  V30 936 C 96.8715 4.13572 1.79636 0
M  V30 937 C 95.5335 4.519 1.65348 0
M  V30 938 C 97.8855 5.01649 1.41412 0
M  V30 939 C 95.2135 5.76057 1.11244 0
M  V30 940 C 97.5655 6.26343 0.887538 0
M  V30 941 C 96.2295 6.63483 0.731207 0
M  V30 942 H 95.4995 0.587303 0.451836 0
M  V30 943 H 98.1465 1.83948 0.532468 0
M  V30 944 H 96.4515 2.43312 3.07094 0
M  V30 945 H 98.1485 2.78006 2.88988 0
M  V30 946 H 94.7385 3.83329 1.91721 0
M  V30 947 H 98.9225 4.72679 1.51289 0
M  V30 948 H 94.1785 6.03516 0.978686 0
M  V30 949 H 98.3525 6.93958 0.582654 0
M  V30 950 H 95.9795 7.59568 0.309806 0
M  V30 951 N 97.5546 -0.734337 1.39446 0
M  V30 952 C 98.8026 -1.49096 1.36436 0
M  V30 953 C 99.1236 -1.94961 -0.0388255 0
M  V30 954 O 98.3936 -1.69033 -0.990191 0
M  V30 955 H 96.9736 -0.5531 0.502085 0
M  V30 956 H 99.6356 -0.871725 1.74319 0
M  V30 957 H 98.7316 -2.37276 2.02747 0
M  V30 958 N 99.0327 -1.24633 -0.964593 0
M  V30 959 C 100.444 -1.08045 -1.5226 0
M  V30 960 C 100.795 0.347116 -1.93105 0
M  V30 961 O 99.9197 1.23588 -1.77637 0
M  V30 962 C 100.515 -1.95514 -2.76695 0
M  V30 963 C 99.0737 -1.8314 -3.28841 0
M  V30 964 C 98.2207 -1.90262 -2.01732 0
M  V30 965 H 101.172 -1.38064 -0.782553 0
M  V30 966 H 101.193 -1.48925 -3.50145 0
M  V30 967 H 100.705 -2.99407 -2.46936 0
M  V30 968 H 98.8057 -0.82092 -3.63444 0
M  V30 969 H 98.9187 -2.67406 -3.97531 0
M  V30 970 H 97.2827 -1.34027 -2.16584 0
M  V30 971 H 98.0657 -2.9574 -1.74334 0
M  V30 972 N 100.511 1.16574 -1.06058 0
M  V30 973 C 101.758 1.87047 -0.775873 0
M  V30 974 C 102.086 1.81562 0.697534 0
M  V30 975 O 101.341 1.22445 1.52662 0
M  V30 976 C 101.64 3.36195 -1.21275 0
M  V30 977 C 101.306 3.6188 -2.68986 0
M  V30 978 C 99.9678 3.68599 -3.09335 0
M  V30 979 C 102.32 3.72648 -3.64394 0
M  V30 980 C 99.6478 3.83584 -4.43937 0
M  V30 981 C 102 3.89154 -4.98741 0
M  V30 982 C 100.664 3.94114 -5.3873 0
M  V30 983 H 99.9338 0.684452 -0.283912 0
M  V30 984 H 102.581 1.37853 -1.32925 0
M  V30 985 H 100.886 3.87505 -0.578528 0
M  V30 986 H 102.583 3.89103 -0.969542 0
M  V30 987 H 99.1728 3.57281 -2.36744 0
M  V30 988 H 103.357 3.66769 -3.34356 0
M  V30 989 H 98.6128 3.85677 -4.74409 0
M  V30 990 H 102.787 3.96427 -5.72554 0
M  V30 991 H 100.414 4.05478 -6.43033 0
M  V30 992 N 101.989 0.842826 1.3317 0
M  V30 993 C 103.217 0.454055 2.01856 0
M  V30 994 C 103.632 -0.94587 1.63397 0
M  V30 995 O 102.989 -1.61534 0.849302 0
M  V30 996 C 103.04 0.569715 3.56982 0
M  V30 997 O 102.761 1.91448 3.94055 0
M  V30 998 C 104.262 0.178412 4.42941 0
M  V30 999 H 101.482 0.17979 0.646465 0
M  V30 1000 H 104.026 1.1365 1.70012 0
M  V30 1001 H 102.181 -0.0648587 3.87346 0
M  V30 1002 H 102.595 1.90282 4.88767 0
M  V30 1003 H 104.069 0.310376 5.51127 0
M  V30 1004 H 104.546 -0.880056 4.30293 0
M  V30 1005 H 105.152 0.787579 4.17944 0
M  V30 1006 N 103.467 -1.45747 0.599634 0
M  V30 1007 C 104.714 -2.02292 0.0917284 0
M  V30 1008 C 105.042 -1.46906 -1.27472 0
M  V30 1009 O 104.297 -0.630652 -1.8526 0
M  V30 1010 C 104.596 -3.57399 -0.00602758 0
M  V30 1011 C 104.262 -4.31902 1.29503 0
M  V30 1012 C 102.924 -4.51974 1.65144 0
M  V30 1013 C 105.276 -4.74551 2.15525 0
M  V30 1014 C 102.604 -5.11949 2.86574 0
M  V30 1015 C 104.956 -5.35868 3.36196 0
M  V30 1016 C 103.62 -5.54165 3.72099 0
M  V30 1017 H 102.89 -0.740239 0.0335658 0
M  V30 1018 H 105.537 -1.7491 0.779661 0
M  V30 1019 H 103.842 -3.84014 -0.777183 0
M  V30 1020 H 105.539 -3.98846 -0.415038 0
M  V30 1021 H 102.129 -4.16588 1.00761 0
M  V30 1022 H 106.313 -4.58784 1.8929 0
M  V30 1023 H 101.569 -5.24305 3.14507 0
M  V30 1024 H 105.743 -5.6787 4.03109 0
M  V30 1025 H 103.37 -6.00406 4.6628 0
M  V30 1026 N 104.945 -0.338344 -1.53925 0
M  V30 1027 C 106.191 0.260143 -2.01125 0
M  V30 1028 C 106.524 1.50617 -1.22589 0
M  V30 1029 O 105.799 1.91979 -0.312113 0
M  V30 1030 C 106.082 0.579499 -3.55407 0
M  V30 1031 C 105.935 -0.678264 -4.44657 0
M  V30 1032 C 107.254 1.39122 -4.17532 0
M  V30 1033 H 104.373 0.0930772 -0.731099 0
M  V30 1034 H 107.015 -0.457852 -1.84401 0
M  V30 1035 H 105.165 1.19118 -3.69788 0
M  V30 1036 H 106.837 -1.31631 -4.42121 0
M  V30 1037 H 105.08 -1.3042 -4.13731 0
M  V30 1038 H 105.751 -0.410143 -5.50474 0
M  V30 1039 H 108.227 0.874035 -4.06817 0
M  V30 1040 H 107.103 1.58342 -5.25565 0
M  V30 1041 H 107.364 2.39178 -3.71815 0
M  V30 1042 N 106.423 1.57458 -0.0668435 0
M  V30 1043 C 107.663 1.95175 0.607116 0
M  V30 1044 C 108.027 0.946039 1.67075 0
M  V30 1045 O 109.228 1.2107 2.39991 0
M  V30 1046 C 107.499 3.37582 1.17358 0
M  V30 1047 S 109.058 3.97271 1.86336 0
M  V30 1048 H 105.876 0.682604 0.19893 0
M  V30 1049 H 108.478 1.95002 -0.139519 0
M  V30 1050 H 107.182 4.08566 0.387553 0
M  V30 1051 H 106.713 3.41288 1.95669 0
M  V30 1052 H 108.728 3.83772 3.14537 0
M  V30 1053 N 107.901 -0.206675 1.56239 0
M  V30 1054 C 109.178 -0.954051 1.70755 0
M  V30 1055 C 109.558 -2.01841 0.618353 0
M  V30 1056 O 108.906 -2.25444 -0.372434 0
M  V30 1057 C 109.116 -1.551 3.12642 0
M  V30 1058 C 110.464 -2.03757 3.72516 0
M  V30 1059 O 111.488 -1.64965 3.15698 0
M  V30 1060 O 110.347 -2.75103 4.72208 0
M  V30 1061 H 107.441 -0.446636 0.696021 0
M  V30 1062 H 109.987 -0.197283 1.68549 0
M  V30 1063 H 108.759 -0.783212 3.83382 0
M  V30 1064 H 108.382 -2.37291 3.19028 0
M  V30 1065 N 109.379 -1.50304 -0.473955 0
M  V30 1066 C 110.627 -1.60832 -1.22382 0
M  V30 1067 C 110.948 -0.30939 -1.9253 0
M  V30 1068 O 110.218 0.67296 -1.83978 0
M  V30 1069 H 108.798 -0.592652 -0.454723 0
M  V30 1070 H 111.46 -1.87068 -0.546968 0
M  V30 1071 H 110.556 -2.41803 -1.97327 0
M  V30 1072 N 110.857 0.726932 -1.39834 0
M  V30 1073 C 111.805 1.86235 -1.39353 0
M  V30 1074 C 112.799 1.67144 -0.275555 0
M  V30 1075 O 114.005 1.74387 -0.44601 0
M  V30 1076 H 110.38 0.613174 -0.43534 0
M  V30 1077 H 112.351 1.83756 -2.35109 0
M  V30 1078 C 111.1 3.23995 -1.26185 0
M  V30 1079 H 110.423 3.39285 -2.11484 0
M  V30 1080 H 111.863 4.03609 -1.29907 0
M  V30 1081 C 110.322 3.36888 0.0290018 0
M  V30 1082 O 110.852 3.89152 0.99619 0
M  V30 1083 N 109.058 2.90446 0.0947437 0
M  V30 1084 H 108.605 2.48102 -0.693035 0
M  V30 1085 H 108.563 2.99451 0.957932 0
M  V30 1086 N 112.336 1.25143 0.95797 0
M  V30 1087 C 113.564 1.12424 1.73691 0
M  V30 1088 C 113.979 -0.322304 1.86029 0
M  V30 1089 O 113.336 -1.22186 1.35561 0
M  V30 1090 C 113.387 1.76933 3.15241 0
M  V30 1091 O 113.108 3.15932 3.03511 0
M  V30 1092 C 114.609 1.6995 4.09429 0
M  V30 1093 H 111.829 0.3923 0.544373 0
M  V30 1094 H 114.373 1.6544 1.20207 0
M  V30 1095 H 112.528 1.27895 3.6568 0
M  V30 1096 H 112.942 3.47598 3.9278 0
M  V30 1097 H 114.416 2.19753 5.06372 0
M  V30 1098 H 114.893 0.662619 4.34173 0
M  V30 1099 H 115.499 2.18461 3.64904 0
M  V30 1100 N 113.814 -1.1601 1.06675 0
M  V30 1101 C 114.761 -2.20525 0.680967 0
M  V30 1102 C 115.731 -1.62904 -0.324283 0
M  V30 1103 O 116.916 -1.89615 -0.212294 0
M  V30 1104 C 114.056 -3.45013 0.0776551 0
M  V30 1105 C 113.169 -4.16863 1.13355 0
M  V30 1106 C 112.304 -5.2888 0.49597 0
M  V30 1107 C 111.343 -5.92537 1.53513 0
M  V30 1108 N 110.48 -6.96038 0.920631 0
M  V30 1109 H 115.32 -2.52876 1.57663 0
M  V30 1110 H 112.857 -1.24199 0.788223 0
M  V30 1111 H 114.815 -4.16193 -0.289704 0
M  V30 1112 H 113.445 -3.132 -0.781393 0
M  V30 1113 H 112.497 -3.44248 1.61857 0
M  V30 1114 H 113.809 -4.60294 1.92174 0
M  V30 1115 H 112.963 -6.06653 0.0758604 0
M  V30 1116 H 111.702 -4.86622 -0.324062 0
M  V30 1117 H 110.707 -5.13482 1.9651 0
M  V30 1118 H 111.932 -6.36873 2.35733 0
M  V30 1119 H 109.878 -6.55888 0.12138 0
M  V30 1120 H 109.795 -7.3786 1.64616 0
M  V30 1121 H 111.063 -7.77725 0.525795 0
M  V30 1122 O 115.331 -0.984177 -1.28048 0
M  V30 1123 H 116.022 -0.630054 -1.83167 0
M  V30 END ATOM
M  V30 BEGIN BOND
M  V30 END BOND
M  V30 END CTAB
M  END
$$$$
