drugbank_target|P29894 Methylamine dehydrogenase heavy chain (DB08646)
 OpenBabel12092120513D

  0  0  0     0  0            999 V3000
M  V30 BEGIN CTAB
M  V30 COUNTS 6313 6395 0 0 0
M  V30 BEGIN ATOM
M  V30 1 H -0.908 1.98254 -0.117106 0
M  V30 2 N 0 1.576 0 0
M  V30 3 C 0.933 2.03868 1.02534 0
M  V30 4 C 1.911 0.928543 1.3348 0
M  V30 5 O 3.095 1.19667 1.45644 0
M  V30 6 C 0.222 2.43627 2.35294 0
M  V30 7 C -0.732 3.65373 2.2001 0
M  V30 8 S 0.101 5.13292 1.52614 0
M  V30 9 C 1.257 5.56322 2.86805 0
M  V30 10 H 1.49 2.90518 0.631377 0
M  V30 11 H -0.977 1.52953 0.210867 0
M  V30 12 H 0.981 2.67203 3.11629 0
M  V30 13 H -0.358 1.57376 2.7183 0
M  V30 14 H -1.165 3.90944 3.18086 0
M  V30 15 H -1.563 3.418 1.51819 0
M  V30 16 H 0.729 5.58782 3.83104 0
M  V30 17 H 1.672 6.56266 2.65933 0
M  V30 18 H 2.08 4.83886 2.90714 0
M  V30 19 N 1.4781 -0.272755 1.55222 0
M  V30 20 C 2.4411 -1.32041 1.87344 0
M  V30 21 C 3.4411 -1.42342 0.74803 0
M  V30 22 O 4.6311 -1.41488 1.0162 0
M  V30 23 C 1.7631 -2.70173 2.07893 0
M  V30 24 H 2.9561 -1.04789 2.80997 0
M  V30 25 H 0.5091 -0.51083 1.47717 0
M  V30 26 H 1.2441 -3.02605 1.16622 0
M  V30 27 H 1.0291 -2.64082 2.89833 0
M  V30 28 H 2.5191 -3.45869 2.34017 0
M  V30 29 N 2.9562 -1.48159 -0.537278 0
M  V30 30 C 3.8862 -1.65029 -1.6519 0
M  V30 31 C 4.8672 -0.499281 -1.62607 0
M  V30 32 O 6.0522 -0.730972 -1.79918 0
M  V30 33 C 3.1822 -1.68303 -3.03795 0
M  V30 34 C 2.1362 -2.8283 -3.21234 0
M  V30 35 C 1.4622 -2.71189 -4.60826 0
M  V30 36 C 2.7622 -4.24211 -3.04701 0
M  V30 37 H 4.4562 -2.58341 -1.51328 0
M  V30 38 H 2.0022 -1.24325 -0.726585 0
M  V30 39 H 3.9552 -1.78693 -3.81637 0
M  V30 40 H 2.6792 -0.715635 -3.18663 0
M  V30 41 H 1.3382 -2.71983 -2.45807 0
M  V30 42 H 0.9862 -1.72435 -4.7252 0
M  V30 43 H 0.6862 -3.48035 -4.7344 0
M  V30 44 H 2.2102 -2.83537 -5.40777 0
M  V30 45 H 3.6242 -4.3593 -3.72341 0
M  V30 46 H 2.0212 -5.01998 -3.28813 0
M  V30 47 H 3.0912 -4.41184 -2.01209 0
M  V30 48 N 4.4343 0.785586 -1.36625 0
M  V30 49 C 5.8453 1.36101 -1.27803 0
M  V30 50 C 6.1963 1.96035 0.0804875 0
M  V30 51 O 5.3213 1.92834 0.982042 0
M  V30 52 C 5.9163 2.47442 -2.31426 0
M  V30 53 C 4.4753 3.00789 -2.26281 0
M  V30 54 C 3.6223 1.73896 -2.15999 0
M  V30 55 H 6.5733 0.586928 -1.47448 0
M  V30 56 H 6.5943 3.2656 -1.95291 0
M  V30 57 H 6.1063 2.03791 -3.30289 0
M  V30 58 H 4.2073 3.48851 -1.30896 0
M  V30 59 H 4.3203 3.57343 -3.19128 0
M  V30 60 H 2.6843 1.9628 -1.62316 0
M  V30 61 H 3.4673 1.32368 -3.16755 0
M  V30 62 N 5.9124 1.20967 1.01018 0
M  V30 63 C 7.3234 1.02319 1.56165 0
M  V30 64 C 7.6744 -0.418546 1.91684 0
M  V30 65 O 6.7994 -1.30096 1.72928 0
M  V30 66 C 7.3944 1.85109 2.8376 0
M  V30 67 C 5.9534 1.70809 3.35412 0
M  V30 68 C 5.1004 1.82643 2.08655 0
M  V30 69 H 8.0514 1.35065 0.833255 0
M  V30 70 H 8.0724 1.35827 3.55431 0
M  V30 71 H 7.5844 2.90035 2.57878 0
M  V30 72 H 5.6854 0.685464 3.66241 0
M  V30 73 H 5.7984 2.52467 4.07182 0
M  V30 74 H 4.1624 1.25896 2.21409 0
M  V30 75 H 4.9454 2.89066 1.85191 0
M  V30 76 N 7.3905 -1.2043 1.01659 0
M  V30 77 C 8.3385 -2.25249 0.580143 0
M  V30 78 C 9.3325 -1.65057 -0.381115 0
M  V30 79 O 10.5385 -1.78241 -0.251039 0
M  V30 80 H 6.9135 -0.732695 0.169299 0
M  V30 81 H 8.8845 -2.59389 1.47512 0
M  V30 82 C 7.6335 -3.47638 -0.065788 0
M  V30 83 H 6.9565 -3.94233 0.664874 0
M  V30 84 H 8.3965 -4.2268 -0.334282 0
M  V30 85 C 6.8555 -3.10447 -1.3086 0
M  V30 86 O 7.3855 -3.21981 -2.4019 0
M  V30 87 N 5.5915 -2.64996 -1.1927 0
M  V30 88 H 5.1385 -2.55811 -0.303064 0
M  V30 89 H 5.0965 -2.40482 -2.02523 0
M  V30 90 N 8.8686 -0.792821 -1.36206 0
M  V30 91 C 10.1156 -0.366786 -1.99151 0
M  V30 92 C 10.4436 1.06243 -1.62919 0
M  V30 93 O 9.6986 1.74927 -0.877442 0
M  V30 94 C 9.9976 -0.481501 -3.54142 0
M  V30 95 C 9.6636 -1.87202 -4.10203 0
M  V30 96 C 8.3256 -2.25248 -4.25226 0
M  V30 97 C 10.6776 -2.78237 -4.40719 0
M  V30 98 C 8.0056 -3.53723 -4.68078 0
M  V30 99 C 10.3576 -4.06144 -4.85005 0
M  V30 100 C 9.0216 -4.44207 -4.98234 0
M  V30 101 H 8.2916 -0.134217 -0.728743 0
M  V30 102 H 10.9386 -1.01094 -1.62641 0
M  V30 103 H 9.2436 0.246146 -3.91026 0
M  V30 104 H 10.9406 -0.132844 -4.0078 0
M  V30 105 H 7.5306 -1.56639 -3.98951 0
M  V30 106 H 11.7146 -2.50097 -4.28679 0
M  V30 107 H 6.9706 -3.8308 -4.76508 0
M  V30 108 H 11.1446 -4.76796 -5.07581 0
M  V30 109 H 8.7716 -5.43814 -5.31197 0
M  V30 110 N 10.3467 1.47872 -0.545128 0
M  V30 111 C 11.2797 2.2675 0.256885 0
M  V30 112 C 12.2577 1.33293 0.931228 0
M  V30 113 O 13.4417 1.62657 0.95262 0
M  V30 114 C 10.5687 3.09976 1.36501 0
M  V30 115 C 9.6147 4.1892 0.800496 0
M  V30 116 S 10.4477 5.34397 -0.343505 0
M  V30 117 C 11.6037 6.21186 0.766733 0
M  V30 118 H 11.8367 2.94425 -0.412479 0
M  V30 119 H 9.3697 1.50806 -0.331204 0
M  V30 120 H 11.3277 3.585 1.9997 0
M  V30 121 H 9.9887 2.41686 2.00616 0
M  V30 122 H 9.1817 4.76836 1.63227 0
M  V30 123 H 8.7837 3.73215 0.242217 0
M  V30 124 H 11.0757 6.56804 1.66178 0
M  V30 125 H 12.0187 7.07742 0.225204 0
M  V30 126 H 12.4267 5.54574 1.05396 0
M  V30 127 N 11.8248 0.280983 1.55075 0
M  V30 128 C 13.2358 -0.215629 1.85451 0
M  V30 129 C 13.5868 -1.54991 1.203 0
M  V30 130 O 12.7118 -2.10699 0.493435 0
M  V30 131 C 13.3068 -0.398026 3.36454 0
M  V30 132 C 11.8658 -0.838866 3.66933 0
M  V30 133 C 11.0128 0.064458 2.77225 0
M  V30 134 H 13.9638 0.502601 1.50531 0
M  V30 135 H 13.9848 -1.23569 3.59876 0
M  V30 136 H 13.4968 0.573241 3.83843 0
M  V30 137 H 11.5978 -1.8214 3.25048 0
M  V30 138 H 11.7108 -0.672123 4.74362 0
M  V30 139 H 10.0748 -0.452863 2.50642 0
M  V30 140 H 10.8578 1.03172 3.2743 0
M  V30 141 N 13.3029 -1.57598 0.00835791 0
M  V30 142 C 14.2329 -2.1198 -0.979113 0
M  V30 143 C 15.2139 -1.03091 -1.35301 0
M  V30 144 O 16.3989 -1.30818 -1.43528 0
M  V30 145 C 13.5289 -2.62995 -2.26828 0
M  V30 146 C 12.4829 -3.76485 -2.03576 0
M  V30 147 C 11.8089 -4.13846 -3.38579 0
M  V30 148 C 13.1089 -5.0342 -1.39161 0
M  V30 149 H 14.8029 -2.94738 -0.526281 0
M  V30 150 H 12.3489 -1.41783 -0.251704 0
M  V30 151 H 14.3019 -2.99669 -2.96271 0
M  V30 152 H 13.0259 -1.7737 -2.7424 0
M  V30 153 H 11.6849 -3.40217 -1.36557 0
M  V30 154 H 11.3329 -3.25232 -3.83709 0
M  V30 155 H 11.0329 -4.90312 -3.23834 0
M  V30 156 H 12.5569 -4.53086 -4.09323 0
M  V30 157 H 13.9709 -5.37812 -1.98573 0
M  V30 158 H 12.3679 -5.84746 -1.34878 0
M  V30 159 H 13.4379 -4.83548 -0.361868 0
M  V30 160 N 14.781 0.264519 -1.55364 0
M  V30 161 C 16.028 0.994986 -1.7637 0
M  V30 162 C 16.356 1.85976 -0.5695 0
M  V30 163 O 15.611 1.90509 0.44776 0
M  V30 164 C 15.91 1.9004 -3.02687 0
M  V30 165 C 15.576 1.19243 -4.34847 0
M  V30 166 C 14.238 0.996709 -4.70764 0
M  V30 167 C 16.59 0.689296 -5.16622 0
M  V30 168 C 13.918 0.285261 -5.86006 0
M  V30 169 C 16.27 -0.00860079 -6.32599 0
M  V30 170 C 14.934 -0.215963 -6.67151 0
M  V30 171 H 14.204 0.364091 -0.645383 0
M  V30 172 H 16.851 0.266543 -1.89636 0
M  V30 173 H 15.156 2.69533 -2.84357 0
M  V30 174 H 16.853 2.46695 -3.16137 0
M  V30 175 H 13.443 1.3549 -4.06621 0
M  V30 176 H 17.627 0.828108 -4.89342 0
M  V30 177 H 12.883 0.113961 -6.11294 0
M  V30 178 H 17.057 -0.406186 -6.95214 0
M  V30 179 H 14.684 -0.769217 -7.56298 0
M  V30 180 N 16.2591 1.48442 0.529413 0
M  V30 181 C 17.6751 1.34575 0.858004 0
M  V30 182 C 17.8751 0.3572 1.98309 0
M  V30 183 O 16.9311 -0.221379 2.51528 0
M  V30 184 C 18.2441 2.74617 1.22499 0
M  V30 185 C 19.7921 2.83109 1.33484 0
M  V30 186 C 20.2671 4.23854 1.73526 0
M  V30 187 N 21.7581 4.2653 1.80628 0
M  V30 188 C 22.4931 5.32372 2.12997 0
M  V30 189 N 21.9891 6.48491 2.43786 0
M  V30 190 N 23.7821 5.19766 2.14008 0
M  V30 191 H 15.9331 2.1133 -0.212925 0
M  V30 192 H 18.1961 0.947439 -0.0326199 0
M  V30 193 H 17.9021 3.4852 0.471905 0
M  V30 194 H 17.7761 3.08177 2.17501 0
M  V30 195 H 20.1631 2.09462 2.0787 0
M  V30 196 H 20.2441 2.53168 0.366027 0
M  V30 197 H 19.8881 4.98018 0.997013 0
M  V30 198 H 19.8181 4.5124 2.71459 0
M  V30 199 H 22.3091 3.42772 1.59108 0
M  V30 200 H 22.6221 7.24993 2.67592 0
M  V30 201 H 20.9671 6.51765 2.41304 0
M  V30 202 H 24.1581 4.28066 1.89412 0
M  V30 203 H 24.3311 6.02354 2.38902 0
M  V30 204 N 17.7372 -0.778329 1.37039 0
M  V30 205 C 18.7002 -1.87301 1.32102 0
M  V30 206 C 19.7002 -1.59198 0.226405 0
M  V30 207 O 20.8902 -1.67403 0.481861 0
M  V30 208 C 18.0222 -3.24309 1.05055 0
M  V30 209 H 19.2152 -1.93093 2.29467 0
M  V30 210 H 16.7682 -0.977358 1.21973 0
M  V30 211 H 17.5032 -3.24196 0.0819373 0
M  V30 212 H 17.2882 -3.46098 1.84279 0
M  V30 213 H 18.7782 -4.04382 1.04234 0
M  V30 214 N 19.2153 -1.21501 -1.00376 0
M  V30 215 C 20.4403 -1.05977 -1.78279 0
M  V30 216 C 20.8653 0.385994 -1.84097 0
M  V30 217 O 20.2233 1.27849 -1.28547 0
M  V30 218 C 20.2713 -1.66302 -3.19963 0
M  V30 219 O 19.3753 -0.909333 -4.0225 0
M  V30 220 H 18.7163 -0.372906 -0.549397 0
M  V30 221 H 21.2463 -1.6107 -1.26165 0
M  V30 222 H 21.2563 -1.70574 -3.70632 0
M  V30 223 H 19.9313 -2.71515 -3.15043 0
M  V30 224 H 18.5083 -0.941795 -3.60811 0
M  V30 225 N 20.6934 1.19889 -1.02296 0
M  V30 226 C 21.6234 2.25141 -0.619174 0
M  V30 227 C 22.6044 1.66051 0.368915 0
M  V30 228 O 23.7894 1.92546 0.252941 0
M  V30 229 C 20.9194 3.4728 0.0368783 0
M  V30 230 C 19.8734 4.19005 -0.872865 0
M  V30 231 C 19.1994 5.34637 -0.0822402 0
M  V30 232 C 20.4994 4.74452 -2.18387 0
M  V30 233 H 22.1934 2.59171 -1.49903 0
M  V30 234 H 19.7394 1.24579 -0.722222 0
M  V30 235 H 21.6924 4.20098 0.330958 0
M  V30 236 H 20.4164 3.12433 0.95149 0
M  V30 237 H 19.0754 3.48061 -1.15105 0
M  V30 238 H 18.7234 4.96034 0.83422 0
M  V30 239 H 18.4234 5.83557 -0.688149 0
M  V30 240 H 19.9474 6.10255 0.205238 0
M  V30 241 H 21.3614 5.39055 -1.95172 0
M  V30 242 H 19.7584 5.33834 -2.74119 0
M  V30 243 H 20.8284 3.92844 -2.84257 0
M  V30 244 N 22.1715 0.800033 1.35784 0
M  V30 245 C 23.4205 0.37387 1.98205 0
M  V30 246 C 23.7335 -1.06302 1.64193 0
M  V30 247 O 24.9395 -1.59198 2.19928 0
M  V30 248 C 23.3955 0.617532 3.54562 0
M  V30 249 C 23.0035 2.06654 3.9749 0
M  V30 250 C 24.7475 0.256401 4.23725 0
M  V30 251 C 22.6545 2.2563 5.46667 0
M  V30 252 H 21.5845 0.136055 0.741623 0
M  V30 253 H 24.2355 0.983166 1.54939 0
M  V30 254 H 22.6175 -0.0616248 3.95952 0
M  V30 255 H 23.7915 2.78296 3.67271 0
M  V30 256 H 22.1065 2.38691 3.41197 0
M  V30 257 H 24.7035 0.376318 5.33374 0
M  V30 258 H 25.0465 -0.796692 4.08606 0
M  V30 259 H 25.5795 0.889214 3.87734 0
M  V30 260 H 22.3185 3.2936 5.66747 0
M  V30 261 H 21.8385 1.58504 5.78478 0
M  V30 262 H 23.5175 2.06861 6.1304 0
M  V30 263 N 23.6496 -1.47581 0.552962 0
M  V30 264 C 24.8976 -2.02082 0.0272703 0
M  V30 265 C 25.2186 -1.4301 -1.32563 0
M  V30 266 O 24.4886 -0.603745 -1.86365 0
M  V30 267 H 23.0686 -0.746966 0.00709182 0
M  V30 268 H 25.7306 -1.81033 0.722008 0
M  V30 269 H 24.8266 -3.12034 -0.0639951 0
M  V30 270 N 25.1277 -0.289203 -1.54924 0
M  V30 271 C 26.0577 0.58549 -2.2604 0
M  V30 272 C 27.0387 1.14753 -1.25562 0
M  V30 273 O 28.2237 1.17906 -1.54311 0
M  V30 274 C 25.3537 1.76305 -2.99222 0
M  V30 275 C 24.3077 1.33191 -4.06748 0
M  V30 276 C 23.6337 2.5937 -4.6758 0
M  V30 277 C 24.9337 0.471775 -5.20165 0
M  V30 278 H 26.6277 -0.00763532 -2.99399 0
M  V30 279 H 24.1737 -0.00511229 -1.43999 0
M  V30 280 H 26.1267 2.38097 -3.47689 0
M  V30 281 H 24.8507 2.38223 -2.23422 0
M  V30 282 H 23.5097 0.737121 -3.59113 0
M  V30 283 H 23.1577 3.19576 -3.88433 0
M  V30 284 H 22.8577 2.31228 -5.40192 0
M  V30 285 H 24.3817 3.21985 -5.18804 0
M  V30 286 H 25.7957 0.995056 -5.64599 0
M  V30 287 H 24.1927 0.284639 -5.99425 0
M  V30 288 H 25.2627 -0.506041 -4.82252 0
M  V30 289 N 26.6058 1.57591 -0.0167156 0
M  V30 290 C 27.8538 1.90906 0.663285 0
M  V30 291 C 28.1748 0.892509 1.73376 0
M  V30 292 O 27.4448 -0.0677623 1.95783 0
M  V30 293 H 26.0248 0.704637 0.247983 0
M  V30 294 H 28.6868 1.94803 -0.0615909 0
M  V30 295 H 27.7828 2.9116 1.12393 0
M  V30 296 N 28.0839 -0.256276 1.55502 0
M  V30 297 C 29.0139 -1.32102 1.92539 0
M  V30 298 C 29.9949 -1.50684 0.789194 0
M  V30 299 O 31.1799 -1.63449 1.04872 0
M  V30 300 C 28.3099 -2.67752 2.21192 0
M  V30 301 C 27.2639 -2.63878 3.36975 0
M  V30 302 C 26.5899 -4.03236 3.51147 0
M  V30 303 C 27.8899 -2.21682 4.72921 0
M  V30 304 H 29.5839 -1.01351 2.81724 0
M  V30 305 H 27.1299 -0.486105 1.35547 0
M  V30 306 H 29.0829 -3.42365 2.45691 0
M  V30 307 H 27.8069 -3.0012 1.28824 0
M  V30 308 H 26.4659 -1.91722 3.12471 0
M  V30 309 H 26.1139 -4.32854 2.56216 0
M  V30 310 H 25.8139 -4.01535 4.29003 0
M  V30 311 H 27.3379 -4.79563 3.77957 0
M  V30 312 H 28.7519 -2.86023 4.96854 0
M  V30 313 H 27.1489 -2.3111 5.53812 0
M  V30 314 H 28.2189 -1.16833 4.70615 0
M  V30 315 N 29.562 -1.4872 -0.521534 0
M  V30 316 C 30.81 -1.56857 -1.27437 0
M  V30 317 C 31.131 -0.247982 -1.93417 0
M  V30 318 O 30.401 0.731151 -1.81744 0
M  V30 319 H 28.981 -0.577885 -0.473347 0
M  V30 320 H 31.643 -1.85233 -0.606205 0
M  V30 321 H 30.739 -2.35402 -2.0492 0
M  V30 322 N 31.0401 0.771051 -1.3745 0
M  V30 323 C 32.2801 1.54264 -1.34096 0
M  V30 324 C 32.6441 1.91858 0.0737639 0
M  V30 325 O 33.8451 2.67797 0.23203 0
M  V30 326 C 32.1161 2.77326 -2.25445 0
M  V30 327 S 33.6751 3.67383 -2.39948 0
M  V30 328 H 30.4931 0.528122 -0.476034 0
M  V30 329 H 33.0951 0.906633 -1.73206 0
M  V30 330 H 31.7991 2.47788 -3.27153 0
M  V30 331 H 31.3301 3.45886 -1.87421 0
M  V30 332 H 33.3451 4.69334 -1.61059 0
M  V30 333 N 32.5182 1.22032 0.997298 0
M  V30 334 C 33.7432 1.06921 1.77715 0
M  V30 335 C 34.1682 -0.376226 1.84299 0
M  V30 336 O 33.5262 -1.27165 1.29223 0
M  V30 337 C 33.5742 1.67996 3.19076 0
M  V30 338 O 32.6782 0.930653 4.01762 0
M  V30 339 H 32.0192 0.375814 0.547412 0
M  V30 340 H 34.5492 1.61737 1.25309 0
M  V30 341 H 34.5592 1.72538 3.69723 0
M  V30 342 H 33.2342 2.73182 3.13599 0
M  V30 343 H 31.8112 0.960917 3.60307 0
M  V30 344 N 33.9963 -1.19345 1.0293 0
M  V30 345 C 34.9593 -2.20793 0.615069 0
M  V30 346 C 35.9593 -1.57553 -0.321533 0
M  V30 347 O 37.1493 -1.73862 -0.108483 0
M  V30 348 C 34.2813 -3.40754 -0.0999222 0
M  V30 349 H 35.4743 -2.58955 1.51269 0
M  V30 350 H 33.0273 -1.3303 0.820534 0
M  V30 351 H 33.7623 -3.0811 -1.01187 0
M  V30 352 H 33.5473 -3.87889 0.57309 0
M  V30 353 H 35.0373 -4.15898 -0.376645 0
M  V30 354 N 35.4744 -0.807222 -1.35358 0
M  V30 355 C 36.4044 -0.232509 -2.3234 0
M  V30 356 C 37.3854 0.642386 -1.57504 0
M  V30 357 O 38.5704 0.572526 -1.85569 0
M  V30 358 C 35.7004 0.619238 -3.41735 0
M  V30 359 C 34.6544 -0.157215 -4.27711 0
M  V30 360 C 33.9804 0.816273 -5.28433 0
M  V30 361 C 35.2804 -1.35656 -5.04376 0
M  V30 362 H 36.9744 -1.04276 -2.80654 0
M  V30 363 H 34.5204 -0.50288 -1.34934 0
M  V30 364 H 36.4734 1.03137 -4.08584 0
M  V30 365 H 35.1974 1.46239 -2.92031 0
M  V30 366 H 33.8564 -0.550525 -3.62443 0
M  V30 367 H 33.5044 1.65494 -4.74996 0
M  V30 368 H 33.2044 0.301067 -5.86828 0
M  V30 369 H 34.7284 1.22659 -5.98153 0
M  V30 370 H 36.1424 -1.01927 -5.64166 0
M  V30 371 H 34.5394 -1.8063 -5.7227 0
M  V30 372 H 35.6094 -2.14288 -4.34981 0
M  V30 373 N 36.9525 1.47285 -0.560781 0
M  V30 374 C 37.9155 2.28535 0.174488 0
M  V30 375 C 38.9155 1.37153 0.839388 0
M  V30 376 O 40.1055 1.59748 0.694702 0
M  V30 377 C 37.2375 3.16934 1.25561 0
M  V30 378 H 38.4305 2.95012 -0.539262 0
M  V30 379 H 35.9835 1.53034 -0.317865 0
M  V30 380 H 36.7185 2.55157 2.00164 0
M  V30 381 H 36.5035 3.8419 0.783604 0
M  V30 382 H 37.9935 3.78143 1.77193 0
M  V30 383 N 38.4306 0.297415 1.54768 0
M  V30 384 C 39.3606 -0.573494 2.26348 0
M  V30 385 C 40.3416 -1.14085 1.26169 0
M  V30 386 O 41.5266 -1.17086 1.54934 0
M  V30 387 C 38.6566 -1.74716 3.00153 0
M  V30 388 C 37.6106 -1.31032 4.07449 0
M  V30 389 C 36.9366 -2.56887 4.68949 0
M  V30 390 C 38.2366 -0.444183 5.20408 0
M  V30 391 H 39.9306 0.0235131 2.99391 0
M  V30 392 H 37.4766 0.0127488 1.43994 0
M  V30 393 H 39.4296 -2.3625 3.48947 0
M  V30 394 H 38.1536 -2.37035 2.24682 0
M  V30 395 H 36.8126 -0.718066 3.59499 0
M  V30 396 H 36.4606 -3.17512 3.90122 0
M  V30 397 H 36.1606 -2.2836 5.41411 0
M  V30 398 H 37.6846 -3.19229 5.20505 0
M  V30 399 H 39.0986 -0.9651 5.65118 0
M  V30 400 H 37.4956 -0.252846 5.99567 0
M  V30 401 H 38.5656 0.531609 4.81977 0
M  V30 402 N 39.9087 -1.5758 0.0250728 0
M  V30 403 C 40.8717 -2.08896 -0.943139 0
M  V30 404 C 41.8717 -1.00321 -1.25668 0
M  V30 405 O 43.0617 -1.26495 -1.19769 0
M  V30 406 C 40.1937 -2.55143 -2.26086 0
M  V30 407 H 41.3867 -2.95723 -0.498775 0
M  V30 408 H 38.9397 -1.54703 -0.222888 0
M  V30 409 H 39.6747 -1.71633 -2.75159 0
M  V30 410 H 39.4597 -3.34461 -2.04641 0
M  V30 411 H 40.9497 -2.95083 -2.95492 0
M  V30 412 N 41.3868 0.248026 -1.55636 0
M  V30 413 C 42.3498 1.29044 -1.89421 0
M  V30 414 C 43.3498 1.41134 -0.770581 0
M  V30 415 O 44.5398 1.39854 -1.03858 0
M  V30 416 C 41.6718 2.66831 -2.12165 0
M  V30 417 H 42.8648 1.00305 -2.82629 0
M  V30 418 H 40.4178 0.487265 -1.48511 0
M  V30 419 H 41.1528 3.00711 -1.21422 0
M  V30 420 H 40.9378 2.59438 -2.93997 0
M  V30 421 H 42.4278 3.42103 -2.3949 0
M  V30 422 N 42.8649 1.48995 0.513639 0
M  V30 423 C 44.0899 1.61792 1.29762 0
M  V30 424 C 44.5149 0.284475 1.85936 0
M  V30 425 O 43.8729 -0.746185 1.65232 0
M  V30 426 C 43.9209 2.67993 2.41272 0
M  V30 427 O 43.0249 2.26287 3.44772 0
M  V30 428 H 42.3659 0.541963 0.38363 0
M  V30 429 H 44.8959 1.95097 0.616307 0
M  V30 430 H 44.9059 2.89772 2.87221 0
M  V30 431 H 43.5809 3.64791 1.9975 0
M  V30 432 H 42.1579 2.14788 3.04829 0
M  V30 433 N 44.343 -0.763751 1.37857 0
M  V30 434 C 45.306 -1.85889 1.34081 0
M  V30 435 C 46.306 -1.58949 0.243277 0
M  V30 436 O 47.496 -1.66882 0.499589 0
M  V30 437 C 44.628 -3.23176 1.08489 0
M  V30 438 H 45.821 -1.90648 2.31502 0
M  V30 439 H 43.374 -0.964367 1.23003 0
M  V30 440 H 44.109 -3.24091 0.116318 0
M  V30 441 H 43.894 -3.44124 1.8794 0
M  V30 442 H 45.384 -4.03254 1.08517 0
M  V30 443 N 45.8211 -1.22559 -0.990812 0
M  V30 444 C 46.7531 -0.955325 -2.08342 0
M  V30 445 C 47.7661 0.0668408 -1.62663 0
M  V30 446 O 48.9551 -0.167421 -1.77713 0
M  V30 447 C 46.0551 -0.415566 -3.36342 0
M  V30 448 C 45.2281 -1.49544 -4.11042 0
M  V30 449 C 44.2871 -0.962399 -5.17324 0
M  V30 450 O 43.3131 -1.64907 -5.44788 0
M  V30 451 N 44.5151 0.215134 -5.80101 0
M  V30 452 H 47.2801 -1.89596 -2.32106 0
M  V30 453 H 44.8411 -1.13276 -1.15673 0
M  V30 454 H 46.8331 -0.0442386 -4.04676 0
M  V30 455 H 45.4031 0.430232 -3.09625 0
M  V30 456 H 44.6231 -2.04 -3.37309 0
M  V30 457 H 45.9111 -2.22195 -4.57719 0
M  V30 458 H 45.3091 0.789779 -5.6016 0
M  V30 459 H 43.8661 0.527826 -6.49659 0
M  V30 460 N 47.2992 1.18797 -1.03562 0
M  V30 461 C 48.5762 1.84469 -0.650434 0
M  V30 462 C 48.9562 1.92319 0.870433 0
M  V30 463 O 48.3042 1.44528 1.76986 0
M  V30 464 C 48.5142 3.2306 -1.32036 0
M  V30 465 C 49.8622 3.9915 -1.44792 0
M  V30 466 O 50.8862 3.32481 -1.27806 0
M  V30 467 O 49.7452 5.18587 -1.72423 0
M  V30 468 H 46.8392 0.795251 -0.226946 0
M  V30 469 H 49.3852 1.26231 -1.13419 0
M  V30 470 H 48.1572 3.1222 -2.3587 0
M  V30 471 H 47.7802 3.88949 -0.8249 0
M  V30 472 N 48.7773 0.814389 1.34928 0
M  V30 473 C 49.7403 0.235759 2.27984 0
M  V30 474 C 50.7403 -0.581412 1.49921 0
M  V30 475 O 51.9303 -0.398758 1.69575 0
M  V30 476 C 49.0623 -0.670433 3.34242 0
M  V30 477 H 50.2553 1.05659 2.80671 0
M  V30 478 H 47.8083 0.585614 1.44915 0
M  V30 479 H 48.5433 -1.51466 2.86755 0
M  V30 480 H 48.3283 -0.0860822 3.92005 0
M  V30 481 H 49.8183 -1.06935 4.03676 0
M  V30 482 N 50.2554 -1.46986 0.568584 0
M  V30 483 C 51.6664 -1.86188 0.138219 0
M  V30 484 C 52.0174 -1.47388 -1.29504 0
M  V30 485 O 51.1424 -0.88219 -1.97602 0
M  V30 486 C 51.7374 -3.3792 0.244065 0
M  V30 487 C 50.2964 -3.76171 -0.131335 0
M  V30 488 C 49.4434 -2.71027 0.586465 0
M  V30 489 H 52.3944 -1.38342 0.777645 0
M  V30 490 H 52.4154 -3.76729 -0.534351 0
M  V30 491 H 51.9274 -3.66128 1.28731 0
M  V30 492 H 50.0284 -3.5358 -1.17526 0
M  V30 493 H 50.1414 -4.78523 0.235146 0
M  V30 494 H 48.5054 -2.54684 0.0282722 0
M  V30 495 H 49.2884 -3.02077 1.63109 0
M  V30 496 N 51.7335 -0.305618 -1.54608 0
M  V30 497 C 52.6435 0.57778 -2.27374 0
M  V30 498 C 53.6595 1.14451 -1.31061 0
M  V30 499 O 54.8355 1.16831 -1.6405 0
M  V30 500 C 51.9005 1.73123 -3.00382 0
M  V30 501 C 50.9615 1.19812 -4.12242 0
M  V30 502 C 50.1945 2.2966 -4.81759 0
M  V30 503 O 50.4175 3.49651 -4.50666 0
M  V30 504 O 49.3515 1.96091 -5.69062 0
M  V30 505 H 53.1775 -0.012624 -3.03697 0
M  V30 506 H 50.7625 -0.0719184 -1.49227 0
M  V30 507 H 52.6445 2.40315 -3.4616 0
M  V30 508 H 51.3195 2.30815 -2.26949 0
M  V30 509 H 50.2265 0.491798 -3.70853 0
M  V30 510 H 51.5595 0.666566 -4.87666 0
M  V30 511 N 53.2116 1.57565 -0.0334293 0
M  V30 512 C 54.1746 2.09393 0.932048 0
M  V30 513 C 55.1746 1.00986 1.25134 0
M  V30 514 O 56.3646 1.27129 1.19096 0
M  V30 515 C 53.4966 2.56338 2.2473 0
M  V30 516 H 54.6896 2.95984 0.483085 0
M  V30 517 H 52.2426 1.54819 0.21468 0
M  V30 518 H 52.9776 1.7309 2.74245 0
M  V30 519 H 52.7626 3.35542 2.02865 0
M  V30 520 H 54.2526 2.96646 2.93923 0
M  V30 521 N 54.6897 -0.239769 1.55765 0
M  V30 522 C 55.5997 -1.31831 1.94056 0
M  V30 523 C 56.6157 -1.52275 0.841925 0
M  V30 524 O 57.7917 -1.65759 1.14394 0
M  V30 525 C 54.8567 -2.65156 2.23368 0
M  V30 526 C 53.9177 -2.53173 3.46701 0
M  V30 527 C 53.1507 -3.8014 3.74606 0
M  V30 528 O 53.3737 -4.82343 3.04469 0
M  V30 529 O 52.3077 -3.78344 4.68123 0
M  V30 530 H 56.1337 -1.02347 2.85935 0
M  V30 531 H 53.7187 -0.441123 1.42739 0
M  V30 532 H 55.6007 -3.43929 2.43497 0
M  V30 533 H 54.2757 -2.94358 1.34666 0
M  V30 534 H 53.1827 -1.72662 3.31871 0
M  V30 535 H 54.5157 -2.28915 4.35728 0
M  V30 536 N 56.1678 -1.49265 -0.50573 0
M  V30 537 C 57.3958 -1.62215 -1.28429 0
M  V30 538 C 57.8108 -0.291697 -1.86533 0
M  V30 539 O 57.1678 0.722233 -1.67601 0
M  V30 540 C 57.2188 -2.68735 -2.41793 0
M  V30 541 O 56.9398 -3.96619 -1.86078 0
M  V30 542 C 58.4408 -2.92346 -3.3324 0
M  V30 543 H 55.6608 -0.546239 -0.389697 0
M  V30 544 H 58.2048 -1.95265 -0.607609 0
M  V30 545 H 56.3598 -2.38476 -3.053 0
M  V30 546 H 56.7738 -4.55256 -2.60465 0
M  V30 547 H 58.2478 -3.70623 -4.09075 0
M  V30 548 H 58.7248 -2.02081 -3.89948 0
M  V30 549 H 59.3308 -3.24003 -2.75503 0
M  V30 550 N 57.6459 0.756429 -1.3826 0
M  V30 551 C 58.5779 1.87971 -1.31147 0
M  V30 552 C 59.5909 1.61248 -0.224239 0
M  V30 553 O 60.7799 1.71881 -0.481581 0
M  V30 554 C 57.8799 3.23545 -1.00857 0
M  V30 555 C 57.0529 3.77794 -2.20432 0
M  V30 556 C 56.1119 4.91877 -1.86931 0
M  V30 557 O 55.1379 5.06659 -2.59395 0
M  V30 558 N 56.3399 5.74643 -0.822568 0
M  V30 559 H 59.1049 1.94585 -2.2794 0
M  V30 560 H 56.6659 0.936234 -1.32084 0
M  V30 561 H 58.6579 3.97403 -0.765021 0
M  V30 562 H 57.2279 3.12335 -0.128687 0
M  V30 563 H 56.4479 2.95534 -2.6087 0
M  V30 564 H 57.7359 4.10771 -3.00241 0
M  V30 565 H 57.1339 5.65266 -0.221575 0
M  V30 566 H 55.6909 6.48661 -0.638899 0
M  V30 567 N 59.124 1.23083 0.984299 0
M  V30 568 C 60.087 1.00979 2.05757 0
M  V30 569 C 61.087 -0.0269573 1.60777 0
M  V30 570 O 62.277 0.212403 1.729 0
M  V30 571 C 59.409 0.527072 3.36801 0
M  V30 572 H 60.602 1.9622 2.26799 0
M  V30 573 H 58.155 1.05072 1.15714 0
M  V30 574 H 58.89 -0.429294 3.21446 0
M  V30 575 H 58.675 1.27515 3.70786 0
M  V30 576 H 60.165 0.392942 4.15747 0
M  V30 577 N 60.6021 -1.18246 1.0419 0
M  V30 578 C 61.5341 -2.2142 0.592088 0
M  V30 579 C 62.5471 -1.59233 -0.338909 0
M  V30 580 O 63.7361 -1.78002 -0.133231 0
M  V30 581 C 60.8361 -3.38546 -0.154854 0
M  V30 582 C 60.0091 -4.3031 0.784328 0
M  V30 583 C 59.0681 -5.26138 0.0804583 0
M  V30 584 O 58.0941 -5.64738 0.711292 0
M  V30 585 N 59.2961 -5.68261 -1.18574 0
M  V30 586 H 62.0611 -2.60636 1.47949 0
M  V30 587 H 59.6221 -1.33044 0.922544 0
M  V30 588 H 61.6141 -3.99678 -0.635606 0
M  V30 589 H 60.1841 -2.98012 -0.943811 0
M  V30 590 H 59.4041 -3.66764 1.44491 0
M  V30 591 H 60.6921 -4.8852 1.42218 0
M  V30 592 H 60.0901 -5.38957 -1.71876 0
M  V30 593 H 58.6471 -6.31584 -1.61074 0
M  V30 594 N 62.0802 -0.821533 -1.34494 0
M  V30 595 C 62.9902 -0.244355 -2.33324 0
M  V30 596 C 64.0062 0.620527 -1.62559 0
M  V30 597 O 65.1822 0.528754 -1.94335 0
M  V30 598 C 62.2472 0.585368 -3.41723 0
M  V30 599 C 61.3082 -0.301752 -4.28238 0
M  V30 600 C 60.5412 0.488466 -5.3146 0
M  V30 601 O 60.7642 1.72186 -5.4379 0
M  V30 602 O 59.6982 -0.12848 -6.01763 0
M  V30 603 H 63.5242 -1.06231 -2.84515 0
M  V30 604 H 61.1092 -0.583645 -1.37528 0
M  V30 605 H 62.9912 1.05747 -4.07916 0
M  V30 606 H 61.6662 1.38068 -2.92778 0
M  V30 607 H 60.5732 -0.821315 -3.64973 0
M  V30 608 H 61.9062 -1.06138 -4.8062 0
M  V30 609 N 63.5583 1.46682 -0.576371 0
M  V30 610 C 64.7863 2.06798 -0.0649635 0
M  V30 611 C 65.2013 1.42612 1.23723 0
M  V30 612 O 64.5583 0.529203 1.74659 0
M  V30 613 C 64.6093 3.6132 0.114202 0
M  V30 614 O 64.3303 4.23104 -1.13644 0
M  V30 615 C 65.8313 4.38349 0.66069 0
M  V30 616 H 63.0513 0.668778 -0.0545616 0
M  V30 617 H 65.5953 1.88404 -0.795237 0
M  V30 618 H 63.7503 3.79162 0.794673 0
M  V30 619 H 64.1643 5.15894 -0.946253 0
M  V30 620 H 65.6383 5.47081 0.73526 0
M  V30 621 H 66.1153 4.05953 1.67627 0
M  V30 622 H 66.7213 4.25297 0.0152951 0
M  V30 623 N 65.0364 0.313813 1.54444 0
M  V30 624 C 65.9684 -0.590425 2.21465 0
M  V30 625 C 66.9814 -1.08753 1.21147 0
M  V30 626 O 68.1704 -1.00278 1.4767 0
M  V30 627 C 65.2704 -1.82179 2.85769 0
M  V30 628 C 64.4434 -1.46502 4.12136 0
M  V30 629 C 63.5024 -2.55288 4.60124 0
M  V30 630 O 62.5284 -2.19842 5.25032 0
M  V30 631 N 63.7304 -3.86053 4.33525 0
M  V30 632 H 66.4954 -0.0166033 2.99695 0
M  V30 633 H 64.0564 0.136578 1.61323 0
M  V30 634 H 66.0484 -2.54328 3.14801 0
M  V30 635 H 64.6184 -2.30369 2.11303 0
M  V30 636 H 63.8384 -0.575595 3.89975 0
M  V30 637 H 65.1264 -1.20221 4.94393 0
M  V30 638 H 64.5244 -4.17654 3.81552 0
M  V30 639 H 63.0814 -4.54461 4.67235 0
M  V30 640 N 66.5145 -1.57545 0.0417849 0
M  V30 641 C 67.7625 -1.91937 -0.632829 0
M  V30 642 C 68.0835 -0.919978 -1.71934 0
M  V30 643 O 67.3535 0.0366064 -1.95866 0
M  V30 644 H 65.9335 -0.708493 -0.236742 0
M  V30 645 H 68.5955 -1.9468 0.0925745 0
M  V30 646 H 67.6915 -2.92912 -1.07746 0
M  V30 647 N 67.9926 0.231505 -1.5589 0
M  V30 648 C 68.9246 1.31006 -1.8807 0
M  V30 649 C 69.9376 1.43539 -0.768145 0
M  V30 650 O 71.1266 1.44614 -1.04638 0
M  V30 651 C 68.2266 2.68688 -2.06543 0
M  V30 652 C 67.3996 2.78228 -3.37502 0
M  V30 653 C 66.4586 3.96857 -3.4553 0
M  V30 654 O 65.4846 3.85662 -4.18633 0
M  V30 655 N 66.6866 5.1072 -2.75944 0
M  V30 656 H 69.4516 1.03731 -2.81176 0
M  V30 657 H 67.0126 0.421573 -1.56315 0
M  V30 658 H 69.0046 3.46412 -2.09239 0
M  V30 659 H 67.5746 2.88605 -1.20109 0
M  V30 660 H 66.7946 1.87059 -3.46991 0
M  V30 661 H 68.0826 2.81564 -4.23791 0
M  V30 662 H 67.4806 5.2271 -2.16311 0
M  V30 663 H 66.0376 5.86523 -2.84314 0
M  V30 664 N 69.4707 1.49531 0.497807 0
M  V30 665 C 70.4337 1.65916 1.58128 0
M  V30 666 C 71.4337 0.530825 1.51786 0
M  V30 667 O 72.6237 0.797342 1.54881 0
M  V30 668 C 69.7557 1.65951 2.9778 0
M  V30 669 H 70.9487 2.62556 1.44929 0
M  V30 670 H 68.5017 1.38611 0.722275 0
M  V30 671 H 69.2367 0.709065 3.16453 0
M  V30 672 H 69.0217 2.47897 3.03792 0
M  V30 673 H 70.5117 1.80673 3.76493 0
M  V30 674 N 70.9488 -0.749086 1.3866 0
M  V30 675 C 71.9118 -1.84457 1.36045 0
M  V30 676 C 72.9118 -1.58682 0.260122 0
M  V30 677 O 74.1018 -1.66343 0.517261 0
M  V30 678 C 71.2338 -3.22008 1.11911 0
M  V30 679 H 72.4268 -1.88182 2.33512 0
M  V30 680 H 69.9798 -0.951266 1.24019 0
M  V30 681 H 70.7148 -3.2395 0.150686 0
M  V30 682 H 70.4998 -3.42111 1.91579 0
M  V30 683 H 71.9898 -4.0208 1.12788 0
M  V30 684 N 72.4269 -1.23603 -0.977757 0
M  V30 685 C 73.3899 -1.02069 -2.05218 0
M  V30 686 C 74.3899 0.0184305 -1.60789 0
M  V30 687 O 75.5799 -0.221569 -1.72785 0
M  V30 688 C 72.7119 -0.544926 -3.36517 0
M  V30 689 H 73.9049 -1.9742 -2.25755 0
M  V30 690 H 71.4579 -1.05684 -1.15155 0
M  V30 691 H 72.1929 0.412241 -3.21669 0
M  V30 692 H 71.9779 -1.2948 -3.70105 0
M  V30 693 H 73.4679 -0.414985 -4.15533 0
M  V30 694 N 73.905 1.17692 -1.04816 0
M  V30 695 C 75.321 1.39863 -0.768794 0
M  V30 696 C 75.521 1.91118 0.638451 0
M  V30 697 O 74.577 2.10036 1.40146 0
M  V30 698 C 75.89 2.39274 -1.82122 0
M  V30 699 C 77.438 2.52987 -1.843 0
M  V30 700 C 77.913 3.55669 -2.88555 0
M  V30 701 N 79.404 3.63183 -2.87493 0
M  V30 702 C 80.139 4.42381 -3.64811 0
M  V30 703 N 79.635 5.25125 -4.51903 0
M  V30 704 N 81.428 4.37217 -3.53267 0
M  V30 705 H 73.579 0.82752 -1.95617 0
M  V30 706 H 75.842 0.426123 -0.846831 0
M  V30 707 H 75.548 2.08678 -2.83102 0
M  V30 708 H 75.422 3.38725 -1.65967 0
M  V30 709 H 77.809 2.82896 -0.839869 0
M  V30 710 H 77.89 1.53623 -2.04532 0
M  V30 711 H 77.534 3.26499 -3.89051 0
M  V30 712 H 77.464 4.54728 -2.65575 0
M  V30 713 H 79.955 3.04103 -2.24343 0
M  V30 714 H 80.268 5.82728 -5.07591 0
M  V30 715 H 78.613 5.24519 -4.55966 0
M  V30 716 H 81.804 3.71626 -2.84625 0
M  V30 717 H 81.977 4.98696 -4.13771 0
M  V30 718 N 75.3831 0.828654 1.34056 0
M  V30 719 C 76.3461 0.259927 2.27721 0
M  V30 720 C 77.3461 -0.565478 1.50529 0
M  V30 721 O 78.5361 -0.38075 1.69988 0
M  V30 722 C 75.6681 -0.634944 3.34935 0
M  V30 723 H 76.8611 1.0863 2.79534 0
M  V30 724 H 74.4141 0.600951 1.44285 0
M  V30 725 H 75.1491 -1.48416 2.88346 0
M  V30 726 H 74.9341 -0.0444999 3.92075 0
M  V30 727 H 76.4241 -1.02648 4.04788 0
M  V30 728 N 76.8612 -1.46375 0.584142 0
M  V30 729 C 77.8242 -2.28784 -0.138108 0
M  V30 730 C 78.8242 -1.38471 -0.817462 0
M  V30 731 O 80.0142 -1.60833 -0.669199 0
M  V30 732 C 77.1462 -3.18892 -1.20503 0
M  V30 733 H 78.3392 -2.94117 0.586127 0
M  V30 734 H 75.8922 -1.52509 0.342171 0
M  V30 735 H 76.6272 -2.58309 -1.96079 0
M  V30 736 H 76.4122 -3.85388 -0.722384 0
M  V30 737 H 77.9022 -3.80914 -1.71155 0
M  V30 738 N 78.3393 -0.321999 -1.54275 0
M  V30 739 C 79.3023 0.531975 -2.22941 0
M  V30 740 C 80.3023 1.04478 -1.22234 0
M  V30 741 O 81.4923 0.937452 -1.46825 0
M  V30 742 C 78.6243 1.73874 -2.93224 0
M  V30 743 H 79.8173 -0.0682612 -2.99822 0
M  V30 744 H 77.3703 -0.0730644 -1.56129 0
M  V30 745 H 78.1053 2.37825 -2.20476 0
M  V30 746 H 77.8903 1.37847 -3.6707 0
M  V30 747 H 79.3803 2.34496 -3.45545 0
M  V30 748 N 79.8174 1.5752 -0.0501392 0
M  V30 749 C 80.7804 2.1037 0.909786 0
M  V30 750 C 81.7804 1.02308 1.24056 0
M  V30 751 O 82.9704 1.28385 1.17741 0
M  V30 752 C 80.1024 2.58708 2.21998 0
M  V30 753 H 81.2954 2.96479 0.451665 0
M  V30 754 H 78.8484 1.55038 0.198248 0
M  V30 755 H 79.5834 1.75989 2.72394 0
M  V30 756 H 79.3684 3.37675 1.99295 0
M  V30 757 H 80.8584 2.99747 2.9076 0
M  V30 758 N 81.2955 -0.223234 1.56011 0
M  V30 759 C 82.5725 -0.972108 1.69733 0
M  V30 760 C 82.9525 -2.02485 0.59691 0
M  V30 761 O 82.3005 -2.25037 -0.396324 0
M  V30 762 C 82.5105 -1.58407 3.10979 0
M  V30 763 C 83.8585 -2.07696 3.70334 0
M  V30 764 O 84.8825 -1.68304 3.1393 0
M  V30 765 O 83.7415 -2.80096 4.69264 0
M  V30 766 H 80.8355 -0.453993 0.691245 0
M  V30 767 H 83.3815 -0.215149 1.68331 0
M  V30 768 H 82.1535 -0.823831 3.82529 0
M  V30 769 H 81.7765 -2.40661 3.16493 0
M  V30 770 N 82.7736 -1.49793 -0.48987 0
M  V30 771 C 83.7036 -1.70201 -1.59856 0
M  V30 772 C 84.6846 -0.55076 -1.60937 0
M  V30 773 O 85.8696 -0.787841 -1.77501 0
M  V30 774 C 82.9996 -1.77882 -2.98287 0
M  V30 775 C 81.9536 -2.92907 -3.12073 0
M  V30 776 C 81.2796 -2.85712 -4.51965 0
M  V30 777 C 82.5796 -4.3369 -2.91051 0
M  V30 778 H 84.2736 -2.63025 -1.43032 0
M  V30 779 H 81.8196 -1.26574 -0.686664 0
M  V30 780 H 83.7726 -1.90744 -3.75759 0
M  V30 781 H 82.4966 -0.816653 -3.16225 0
M  V30 782 H 81.1556 -2.79665 -2.37029 0
M  V30 783 H 80.8036 -1.8738 -4.66795 0
M  V30 784 H 80.5036 -3.62921 -4.62128 0
M  V30 785 H 82.0276 -3.00598 -5.31482 0
M  V30 786 H 83.4416 -4.47555 -3.58284 0
M  V30 787 H 81.8386 -5.12205 -3.12675 0
M  V30 788 H 82.9086 -4.47362 -1.87071 0
M  V30 789 N 84.2517 0.741722 -1.39055 0
M  V30 790 C 85.2147 1.83733 -1.37021 0
M  V30 791 C 86.2147 1.58542 -0.268534 0
M  V30 792 O 87.4047 1.66067 -0.526076 0
M  V30 793 C 84.5367 3.2141 -1.13617 0
M  V30 794 H 85.7297 1.86941 -2.34506 0
M  V30 795 H 83.2827 0.944676 -1.24521 0
M  V30 796 H 84.0177 3.23865 -0.167863 0
M  V30 797 H 83.8027 3.4109 -1.93391 0
M  V30 798 H 85.2927 4.01477 -1.14918 0
M  V30 799 N 85.7298 1.2412 0.971189 0
M  V30 800 C 86.6928 1.03156 2.04674 0
M  V30 801 C 87.6928 -0.00990322 1.60797 0
M  V30 802 O 88.8828 0.230729 1.72665 0
M  V30 803 C 86.0148 0.562765 3.36223 0
M  V30 804 H 87.2078 1.98614 2.24705 0
M  V30 805 H 84.7608 1.06293 1.14593 0
M  V30 806 H 85.4958 -0.395176 3.21883 0
M  V30 807 H 85.2808 1.31441 3.69413 0
M  V30 808 H 86.7708 0.437015 4.15307 0
M  V30 809 N 87.2079 -1.17134 1.05439 0
M  V30 810 C 88.4559 -1.87085 0.764429 0
M  V30 811 C 88.7769 -1.81584 -0.710787 0
M  V30 812 O 88.0469 -1.24349 -1.51374 0
M  V30 813 H 86.6269 -0.692627 0.279779 0
M  V30 814 H 89.2889 -1.42087 1.33406 0
M  V30 815 H 88.3849 -2.92759 1.0816 0
M  V30 816 N 88.686 -0.835752 -1.33615 0
M  V30 817 C 89.618 -0.224151 -2.28101 0
M  V30 818 C 90.631 0.593331 -1.51603 0
M  V30 819 O 91.82 0.420911 -1.73466 0
M  V30 820 C 88.92 0.703309 -3.31522 0
M  V30 821 C 88.093 -0.0741528 -4.37337 0
M  V30 822 C 87.152 0.776176 -5.20444 0
M  V30 823 O 86.178 0.216506 -5.68788 0
M  V30 824 N 87.38 2.09401 -5.41416 0
M  V30 825 H 90.145 -1.03598 -2.81225 0
M  V30 826 H 87.706 -0.69392 -1.46275 0
M  V30 827 H 89.698 1.27707 -3.84022 0
M  V30 828 H 88.268 1.41585 -2.78698 0
M  V30 829 H 87.488 -0.82928 -3.85378 0
M  V30 830 H 88.776 -0.608863 -5.05144 0
M  V30 831 H 88.174 2.57229 -5.03835 0
M  V30 832 H 86.731 2.61633 -5.96985 0
M  V30 833 N 90.1641 1.46063 -0.591896 0
M  V30 834 C 91.4411 1.95595 -0.0137119 0
M  V30 835 C 91.8211 1.5345 1.4497 0
M  V30 836 O 91.1691 0.789543 2.14426 0
M  V30 837 C 91.3791 3.48453 -0.195373 0
M  V30 838 C 92.7271 4.24546 -0.0679765 0
M  V30 839 O 93.7511 3.55982 -0.124681 0
M  V30 840 O 92.6101 5.46467 0.0600579 0
M  V30 841 H 89.7041 0.825795 0.0446279 0
M  V30 842 H 92.2501 1.56303 -0.660859 0
M  V30 843 H 91.0221 3.72045 -1.21235 0
M  V30 844 H 90.6451 3.94597 0.487775 0
M  V30 845 N 91.6422 0.330177 1.54103 0
M  V30 846 C 92.9192 -0.325007 1.92881 0
M  V30 847 C 93.2992 -1.6934 1.26045 0
M  V30 848 O 92.6472 -2.24855 0.406526 0
M  V30 849 C 92.8572 -0.410634 3.46576 0
M  V30 850 C 94.2052 -0.667801 4.19316 0
M  V30 851 O 95.2292 -0.49329 3.52768 0
M  V30 852 O 94.0882 -1.00491 5.37181 0
M  V30 853 H 91.1822 -0.186873 0.80561 0
M  V30 854 H 93.7282 0.380376 1.65382 0
M  V30 855 H 92.5002 0.550164 3.87413 0
M  V30 856 H 92.1232 -1.16333 3.802 0
M  V30 857 N 93.1203 -1.57491 0.0584922 0
M  V30 858 C 94.0303 -2.15448 -0.928414 0
M  V30 859 C 95.0463 -1.11416 -1.3365 0
M  V30 860 O 96.2223 -1.4362 -1.41193 0
M  V30 861 C 93.2873 -2.69393 -2.18239 0
M  V30 862 C 92.3483 -3.88249 -1.83196 0
M  V30 863 C 91.5813 -4.39613 -3.02616 0
M  V30 864 O 91.8043 -3.90023 -4.16219 0
M  V30 865 O 90.7383 -5.31111 -2.83204 0
M  V30 866 H 94.5643 -3.00112 -0.465483 0
M  V30 867 H 92.1493 -1.48499 -0.163826 0
M  V30 868 H 94.0313 -3.04026 -2.91798 0
M  V30 869 H 92.7063 -1.87796 -2.63656 0
M  V30 870 H 91.6133 -3.58492 -1.06931 0
M  V30 871 H 92.9463 -4.71098 -1.42573 0
M  V30 872 N 94.5984 0.214957 -1.56127 0
M  V30 873 C 96.0094 0.781386 -1.69562 0
M  V30 874 C 96.3604 1.84707 -0.66165 0
M  V30 875 O 95.4854 2.156 0.185927 0
M  V30 876 C 96.0804 1.42411 -3.07416 0
M  V30 877 C 94.6394 1.93786 -3.22683 0
M  V30 878 C 93.7864 0.800438 -2.65496 0
M  V30 879 H 96.7374 -0.00980633 -1.58697 0
M  V30 880 H 96.7584 2.29309 -3.0364 0
M  V30 881 H 96.2704 0.64826 -3.82648 0
M  V30 882 H 94.3714 2.74152 -2.52332 0
M  V30 883 H 94.4844 2.1133 -4.29973 0
M  V30 884 H 92.8484 1.2095 -2.2415 0
M  V30 885 H 93.6314 0.0371471 -3.4328 0
M  V30 886 N 96.0765 1.50051 0.48192 0
M  V30 887 C 97.4925 1.37237 0.814756 0
M  V30 888 C 97.6925 0.420109 1.97072 0
M  V30 889 O 96.7485 -0.141246 2.52105 0
M  V30 890 C 98.0615 2.78375 1.13701 0
M  V30 891 C 99.6095 2.87213 1.2441 0
M  V30 892 C 100.084 4.29161 1.59954 0
M  V30 893 N 101.575 4.32061 1.66967 0
M  V30 894 C 102.31 5.38879 1.95952 0
M  V30 895 N 101.806 6.55918 2.23031 0
M  V30 896 N 103.599 5.26312 1.97363 0
M  V30 897 H 95.7505 2.10546 -0.28005 0
M  V30 898 H 98.0135 0.945921 -0.0627454 0
M  V30 899 H 97.7195 3.49845 0.360787 0
M  V30 900 H 97.5935 3.14941 2.07586 0
M  V30 901 H 99.9805 2.15969 2.01101 0
M  V30 902 H 100.061 2.54204 0.285299 0
M  V30 903 H 99.7055 5.00938 0.838067 0
M  V30 904 H 99.6355 4.59648 2.56966 0
M  V30 905 H 102.126 3.47661 1.48123 0
M  V30 906 H 102.439 7.33139 2.44391 0
M  V30 907 H 100.784 6.59112 2.20447 0
M  V30 908 H 103.975 4.33876 1.75697 0
M  V30 909 H 104.148 6.09649 2.19618 0
M  V30 910 N 97.5546 -0.734337 1.39446 0
M  V30 911 C 98.8036 -1.48937 1.36017 0
M  V30 912 C 99.1166 -1.95557 -0.0409005 0
M  V30 913 O 100.323 -2.70779 -0.19778 0
M  V30 914 C 98.7786 -2.69125 2.38955 0
M  V30 915 C 98.3866 -2.29452 3.8478 0
M  V30 916 C 100.131 -3.46944 2.44603 0
M  V30 917 C 98.0376 -3.46366 4.79358 0
M  V30 918 H 96.9676 -0.559296 0.505672 0
M  V30 919 H 99.6186 -0.800983 1.65095 0
M  V30 920 H 98.0006 -3.40041 2.02948 0
M  V30 921 H 99.1746 -1.66077 4.29831 0
M  V30 922 H 97.4896 -1.64723 3.82433 0
M  V30 923 H 100.087 -4.33907 3.12456 0
M  V30 924 H 100.43 -3.89454 1.47076 0
M  V30 925 H 100.963 -2.83056 2.79507 0
M  V30 926 H 97.7016 -3.08905 5.78151 0
M  V30 927 H 97.2216 -4.08719 4.38986 0
M  V30 928 H 98.9006 -4.12691 4.98292 0
M  V30 929 N 99.0327 -1.24633 -0.964593 0
M  V30 930 C 99.9627 -1.06611 -2.07741 0
M  V30 931 C 100.944 0.0218666 -1.70086 0
M  V30 932 O 102.129 -0.145793 -1.93652 0
M  V30 933 C 99.2587 -0.673444 -3.40708 0
M  V30 934 C 98.2127 -1.71054 -3.92332 0
M  V30 935 C 97.5387 -1.17285 -5.21678 0
M  V30 936 C 98.8387 -3.10718 -4.19824 0
M  V30 937 H 100.533 -1.99693 -2.23076 0
M  V30 938 H 98.0787 -0.96152 -1.07195 0
M  V30 939 H 100.032 -0.534345 -4.17998 0
M  V30 940 H 98.7557 0.293073 -3.25282 0
M  V30 941 H 97.4147 -1.83791 -3.17201 0
M  V30 942 H 97.0627 -0.196847 -5.02615 0
M  V30 943 H 96.7627 -1.86592 -5.57187 0
M  V30 944 H 98.2867 -1.04593 -6.01575 0
M  V30 945 H 99.7007 -3.01192 -4.87808 0
M  V30 946 H 98.0977 -3.77406 -4.66567 0
M  V30 947 H 99.1677 -3.58524 -3.26479 0
M  V30 948 N 100.511 1.16574 -1.06058 0
M  V30 949 C 101.421 2.2452 -0.680282 0
M  V30 950 C 102.437 1.71348 0.302604 0
M  V30 951 O 103.613 2.00822 0.152513 0
M  V30 952 C 100.678 3.46629 -0.0700315 0
M  V30 953 C 99.7388 4.14849 -1.10448 0
M  V30 954 C 98.9718 5.31129 -0.523256 0
M  V30 955 O 99.1948 5.66514 0.664709 0
M  V30 956 O 98.1288 5.88526 -1.26179 0
M  V30 957 H 101.955 2.59355 -1.58015 0
M  V30 958 H 99.5398 1.24043 -0.832694 0
M  V30 959 H 101.422 4.20543 0.268667 0
M  V30 960 H 100.097 3.13573 0.803353 0
M  V30 961 H 99.0038 3.42916 -1.49532 0
M  V30 962 H 100.337 4.51954 -1.94931 0
M  V30 963 N 101.989 0.842826 1.3317 0
M  V30 964 C 102.952 0.284065 2.27433 0
M  V30 965 C 103.952 -0.54948 1.5112 0
M  V30 966 O 105.142 -0.362699 1.70382 0
M  V30 967 C 102.274 -0.599384 3.35589 0
M  V30 968 H 103.467 1.11589 2.78366 0
M  V30 969 H 101.02 0.616221 1.4364 0
M  V30 970 H 101.755 -1.45349 2.89904 0
M  V30 971 H 101.54 -0.00291266 3.921 0
M  V30 972 H 103.03 -0.983488 4.05854 0
M  V30 973 N 103.467 -1.45747 0.599634 0
M  V30 974 C 104.878 -1.85853 0.177681 0
M  V30 975 C 105.229 -1.50102 -1.26348 0
M  V30 976 O 104.354 -0.923905 -1.95686 0
M  V30 977 C 104.949 -3.37326 0.315688 0
M  V30 978 C 103.508 -3.76365 -0.0515144 0
M  V30 979 C 102.655 -2.69722 0.643822 0
M  V30 980 H 105.606 -1.36661 0.806814 0
M  V30 981 H 105.627 -3.77778 -0.454321 0
M  V30 982 H 105.139 -3.63315 1.36468 0
M  V30 983 H 103.24 -3.55993 -1.09999 0
M  V30 984 H 103.353 -4.77916 0.336594 0
M  V30 985 H 101.717 -2.54567 0.0822881 0
M  V30 986 H 102.5 -2.98549 1.6948 0
M  V30 987 N 104.945 -0.338344 -1.53925 0
M  V30 988 C 105.908 0.508299 -2.23493 0
M  V30 989 C 106.908 1.03175 -1.23335 0
M  V30 990 O 108.098 0.921826 -1.47811 0
M  V30 991 C 105.23 1.70754 -2.95052 0
M  V30 992 H 106.423 -0.100058 -2.99733 0
M  V30 993 H 103.976 -0.0896198 -1.56043 0
M  V30 994 H 104.711 2.35474 -2.22986 0
M  V30 995 H 104.496 1.33946 -3.68512 0
M  V30 996 H 105.986 2.30818 -3.48013 0
M  V30 997 N 106.423 1.57458 -0.0668435 0
M  V30 998 C 107.834 1.80776 0.466558 0
M  V30 999 C 108.185 0.980361 1.69951 0
M  V30 1000 O 107.31 0.201441 2.1546 0
M  V30 1001 C 107.905 3.27881 0.85321 0
M  V30 1002 C 106.464 3.52062 1.3315 0
M  V30 1003 C 105.611 2.75513 0.314264 0
M  V30 1004 H 108.562 1.5598 -0.292588 0
M  V30 1005 H 108.583 3.39659 1.715 0
M  V30 1006 H 108.095 3.88075 -0.0443439 0
M  V30 1007 H 106.196 2.97167 2.24772 0
M  V30 1008 H 106.309 4.60762 1.31285 0
M  V30 1009 H 104.673 2.42123 0.790492 0
M  V30 1010 H 105.456 3.38442 -0.575477 0
M  V30 1011 N 107.901 -0.206675 1.56239 0
M  V30 1012 C 109.178 -0.954051 1.70755 0
M  V30 1013 C 109.558 -2.01841 0.618353 0
M  V30 1014 O 108.906 -2.25444 -0.372434 0
M  V30 1015 C 109.116 -1.551 3.12642 0
M  V30 1016 C 110.464 -2.03757 3.72516 0
M  V30 1017 O 111.488 -1.64965 3.15698 0
M  V30 1018 O 110.347 -2.75103 4.72208 0
M  V30 1019 H 107.441 -0.446636 0.696021 0
M  V30 1020 H 109.987 -0.197283 1.68549 0
M  V30 1021 H 108.759 -0.783212 3.83382 0
M  V30 1022 H 108.382 -2.37291 3.19028 0
M  V30 1023 N 109.379 -1.50304 -0.473955 0
M  V30 1024 C 110.342 -1.6841 -1.55469 0
M  V30 1025 C 111.342 -0.554905 -1.50922 0
M  V30 1026 O 112.532 -0.821882 -1.53593 0
M  V30 1027 C 109.664 -1.70667 -2.95102 0
M  V30 1028 H 110.857 -2.64828 -1.40733 0
M  V30 1029 H 108.41 -1.39742 -0.700132 0
M  V30 1030 H 109.145 -0.75932 -3.15285 0
M  V30 1031 H 108.93 -2.52698 -2.9981 0
M  V30 1032 H 110.42 -1.8664 -3.73571 0
M  V30 1033 N 110.857 0.726932 -1.39834 0
M  V30 1034 C 112.273 1.03354 -1.21615 0
M  V30 1035 C 112.473 2.01327 -0.08338 0
M  V30 1036 O 111.529 2.46158 0.56238 0
M  V30 1037 C 112.842 1.58811 -2.55342 0
M  V30 1038 C 114.39 1.70851 -2.62257 0
M  V30 1039 C 114.865 2.29716 -3.96225 0
M  V30 1040 N 116.356 2.37116 -3.97907 0
M  V30 1041 C 117.091 2.83619 -4.98345 0
M  V30 1042 N 116.587 3.29958 -6.09179 0
M  V30 1043 N 118.38 2.82901 -4.8572 0
M  V30 1044 H 110.531 0.0773069 -2.12259 0
M  V30 1045 H 112.794 0.0969102 -0.943034 0
M  V30 1046 H 112.5 0.942855 -3.38826 0
M  V30 1047 H 112.374 2.57502 -2.75632 0
M  V30 1048 H 114.761 2.34497 -1.79152 0
M  V30 1049 H 114.842 0.707913 -2.45809 0
M  V30 1050 H 114.486 1.66696 -4.79765 0
M  V30 1051 H 114.416 3.30469 -4.09997 0
M  V30 1052 H 116.907 2.04374 -3.17868 0
M  V30 1053 H 117.22 3.63976 -6.8172 0
M  V30 1054 H 115.565 3.27946 -6.12761 0
M  V30 1055 H 118.756 2.46027 -3.98231 0
M  V30 1056 H 118.929 3.18827 -5.6414 0
M  V30 1057 N 112.336 1.25143 0.95797 0
M  V30 1058 C 113.752 1.01892 1.22842 0
M  V30 1059 C 113.952 -0.266311 1.99732 0
M  V30 1060 O 113.008 -0.979913 2.3271 0
M  V30 1061 C 114.321 2.24004 2.00606 0
M  V30 1062 C 115.869 2.28731 2.13662 0
M  V30 1063 C 116.344 3.5049 2.94823 0
M  V30 1064 N 117.835 3.50866 3.02403 0
M  V30 1065 C 118.57 4.4174 3.65586 0
M  V30 1066 N 118.066 5.42882 4.30408 0
M  V30 1067 N 119.859 4.29429 3.62694 0
M  V30 1068 H 112.01 2.07718 0.443493 0
M  V30 1069 H 114.273 0.912031 0.258657 0
M  V30 1070 H 113.979 3.17395 1.51503 0
M  V30 1071 H 113.853 2.26907 3.01319 0
M  V30 1072 H 116.24 1.35865 2.61963 0
M  V30 1073 H 116.321 2.29848 1.12265 0
M  V30 1074 H 115.965 4.43676 2.47213 0
M  V30 1075 H 115.895 3.46617 3.96439 0
M  V30 1076 H 118.386 2.777 2.56302 0
M  V30 1077 H 118.699 6.0844 4.76467 0
M  V30 1078 H 117.044 5.46758 4.29047 0
M  V30 1079 H 120.235 3.49643 3.11236 0
M  V30 1080 H 120.408 5.00448 4.1165 0
M  V30 1081 N 113.814 -1.1601 1.06675 0
M  V30 1082 C 115.06 -1.86909 0.786945 0
M  V30 1083 C 115.393 -1.81717 -0.685018 0
M  V30 1084 O 114.668 -1.23551 -1.50218 0
M  V30 1085 C 114.951 -3.36313 1.28707 0
M  V30 1086 C 114.804 -3.50175 2.82308 0
M  V30 1087 C 116.123 -4.3084 0.898071 0
M  V30 1088 H 113.242 -0.678677 0.287343 0
M  V30 1089 H 115.884 -1.36336 1.32334 0
M  V30 1090 H 114.034 -3.79513 0.830768 0
M  V30 1091 H 115.706 -3.15886 3.36175 0
M  V30 1092 H 113.949 -2.91959 3.20847 0
M  V30 1093 H 114.62 -4.55116 3.12368 0
M  V30 1094 H 117.096 -3.95561 1.29114 0
M  V30 1095 H 115.972 -5.33876 1.27543 0
M  V30 1096 H 116.233 -4.41662 -0.196651 0
M  V30 1097 N 115.292 -0.849877 -1.32721 0
M  V30 1098 C 116.522 -0.46408 -2.0132 0
M  V30 1099 C 116.93 0.94246 -1.64056 0
M  V30 1100 O 116.273 1.6257 -0.855379 0
M  V30 1101 C 116.335 -0.517887 -3.5575 0
M  V30 1102 C 115.999 -1.88248 -4.16427 0
M  V30 1103 C 116.996 -2.84726 -4.35002 0
M  V30 1104 C 114.681 -2.17832 -4.52609 0
M  V30 1105 C 116.675 -4.08945 -4.8892 0
M  V30 1106 C 114.362 -3.42304 -5.06232 0
M  V30 1107 C 115.36 -4.37677 -5.24335 0
M  V30 1108 O 115.048 -5.59946 -5.76815 0
M  V30 1109 H 114.78 -0.181327 -0.651227 0
M  V30 1110 H 117.334 -1.14713 -1.70382 0
M  V30 1111 H 115.564 0.221997 -3.86062 0
M  V30 1112 H 117.253 -0.148366 -4.05629 0
M  V30 1113 H 118.019 -2.63174 -4.07388 0
M  V30 1114 H 113.898 -1.44385 -4.37806 0
M  V30 1115 H 117.442 -4.83396 -5.02966 0
M  V30 1116 H 113.339 -3.63709 -5.33278 0
M  V30 1117 H 114.107 -5.61838 -5.95214 0
M  V30 1118 N 116.77 1.45427 -0.607355 0
M  V30 1119 C 118.016 2.0254 -0.102607 0
M  V30 1120 C 118.349 1.47478 1.26348 0
M  V30 1121 O 117.624 0.64939 1.83339 0
M  V30 1122 C 117.907 3.60044 -0.0634347 0
M  V30 1123 C 117.76 4.2544 -1.46017 0
M  V30 1124 C 119.079 4.35646 0.624514 0
M  V30 1125 H 116.198 0.73598 -0.0387607 0
M  V30 1126 H 118.84 1.73284 -0.779282 0
M  V30 1127 H 116.99 3.85101 0.512808 0
M  V30 1128 H 118.662 4.11569 -2.08347 0
M  V30 1129 H 116.905 3.83849 -2.02094 0
M  V30 1130 H 117.576 5.34342 -1.385 0
M  V30 1131 H 120.052 4.15882 0.134723 0
M  V30 1132 H 118.928 5.45376 0.621028 0
M  V30 1133 H 119.189 4.08501 1.69055 0
M  V30 1134 N 118.248 0.346503 1.53744 0
M  V30 1135 C 119.196 -0.52422 2.26616 0
M  V30 1136 C 120.19 -1.09948 1.28871 0
M  V30 1137 O 121.396 -1.04488 1.46568 0
M  V30 1138 H 117.771 -0.187743 0.728187 0
M  V30 1139 H 119.742 0.11239 2.98188 0
M  V30 1140 C 118.491 -1.66186 3.05414 0
M  V30 1141 H 117.814 -1.22848 3.80458 0
M  V30 1142 H 119.254 -2.24622 3.59612 0
M  V30 1143 C 117.713 -2.59302 2.1509 0
M  V30 1144 O 118.243 -3.61628 1.74895 0
M  V30 1145 N 116.449 -2.28055 1.8011 0
M  V30 1146 H 115.996 -1.44883 2.12994 0
M  V30 1147 H 115.954 -2.90615 1.19958 0
M  V30 1148 N 119.726 -1.57421 0.075193 0
M  V30 1149 C 121.003 -1.85029 -0.634329 0
M  V30 1150 C 121.383 -0.968305 -1.87582 0
M  V30 1151 O 120.731 -0.0354749 -2.28472 0
M  V30 1152 C 120.941 -3.35286 -0.968742 0
M  V30 1153 C 122.289 -4.02875 -1.34077 0
M  V30 1154 O 123.313 -3.40051 -1.06037 0
M  V30 1155 O 122.172 -5.13691 -1.86506 0
M  V30 1156 H 119.266 -0.7645 -0.315387 0
M  V30 1157 H 121.812 -1.69366 0.106382 0
M  V30 1158 H 120.584 -3.91203 -0.0871376 0
M  V30 1159 H 120.207 -3.56223 -1.7661 0
M  V30 1160 N 121.204 0.198386 -1.56346 0
M  V30 1161 C 122.615 0.763358 -1.70381 0
M  V30 1162 C 122.966 1.83995 -0.681203 0
M  V30 1163 O 122.091 2.15785 0.16305 0
M  V30 1164 C 122.686 1.39143 -3.08909 0
M  V30 1165 C 121.245 1.90352 -3.2472 0
M  V30 1166 C 120.392 0.772233 -2.6633 0
M  V30 1167 H 123.343 -0.0266377 -1.58678 0
M  V30 1168 H 123.364 2.26076 -3.06055 0
M  V30 1169 H 122.876 0.607638 -3.83314 0
M  V30 1170 H 120.977 2.71461 -2.55225 0
M  V30 1171 H 121.09 2.06757 -4.3219 0
M  V30 1172 H 119.454 1.18566 -2.2542 0
M  V30 1173 H 120.237 0.00073556 -3.433 0
M  V30 1174 N 122.682 1.50554 0.465978 0
M  V30 1175 C 123.645 1.69233 1.54574 0
M  V30 1176 C 124.645 0.562901 1.50626 0
M  V30 1177 O 125.835 0.830016 1.53155 0
M  V30 1178 C 122.967 1.7223 2.94193 0
M  V30 1179 H 124.16 2.65571 1.39327 0
M  V30 1180 H 121.713 1.40111 0.692711 0
M  V30 1181 H 122.448 0.77603 3.14878 0
M  V30 1182 H 122.233 2.54285 2.98466 0
M  V30 1183 H 123.723 1.88618 3.72576 0
M  V30 1184 N 124.16 -0.719506 1.40217 0
M  V30 1185 C 125.11 -1.8251 1.36653 0
M  V30 1186 C 126.094 -1.59028 0.244732 0
M  V30 1187 O 127.286 -1.70268 0.483524 0
M  V30 1188 C 124.415 -3.20599 1.22763 0
M  V30 1189 C 123.501 -3.49858 2.39708 0
M  V30 1190 N 123.892 -3.49957 3.6519 0
M  V30 1191 C 122.19 -3.80297 2.33002 0
M  V30 1192 C 122.891 -3.77449 4.42614 0
M  V30 1193 N 121.867 -3.96002 3.72402 0
M  V30 1194 H 125.669 -1.80914 2.31619 0
M  V30 1195 H 123.183 -0.918455 1.33933 0
M  V30 1196 H 125.18 -3.99766 1.18292 0
M  V30 1197 H 123.84 -3.23424 0.287614 0
M  V30 1198 H 124.851 -3.309 3.98404 0
M  V30 1199 H 121.528 -3.90635 1.47346 0
M  V30 1200 H 122.918 -3.83863 5.51451 0
M  V30 1201 N 125.638 -1.25649 -0.95132 0
M  V30 1202 C 126.885 -1.10594 -1.69633 0
M  V30 1203 C 127.213 0.352515 -1.91279 0
M  V30 1204 O 126.468 1.27601 -1.4838 0
M  V30 1205 C 126.767 -1.80909 -3.08231 0
M  V30 1206 C 126.433 -3.30825 -3.06375 0
M  V30 1207 C 125.095 -3.71722 -3.05576 0
M  V30 1208 C 127.447 -4.26589 -2.99452 0
M  V30 1209 C 124.775 -5.06788 -2.95606 0
M  V30 1210 C 127.127 -5.61683 -2.91024 0
M  V30 1211 C 125.791 -6.01904 -2.88562 0
M  V30 1212 H 125.061 -0.404691 -0.620731 0
M  V30 1213 H 127.708 -1.55964 -1.11119 0
M  V30 1214 H 126.013 -1.27979 -3.70309 0
M  V30 1215 H 127.71 -1.6671 -3.64704 0
M  V30 1216 H 124.3 -2.98287 -3.07771 0
M  V30 1217 H 128.484 -3.95982 -2.99185 0
M  V30 1218 H 123.74 -5.37126 -2.92071 0
M  V30 1219 H 127.914 -6.35578 -2.84629 0
M  V30 1220 H 125.541 -7.06521 -2.80593 0
M  V30 1221 N 127.117 1.15442 -1.07289 0
M  V30 1222 C 128.08 2.18358 -0.696591 0
M  V30 1223 C 129.08 1.58637 0.262837 0
M  V30 1224 O 130.27 1.74145 0.0438809 0
M  V30 1225 C 127.402 3.4089 -0.0266151 0
M  V30 1226 H 128.595 2.53162 -1.60776 0
M  V30 1227 H 126.148 1.29893 -0.869342 0
M  V30 1228 H 126.883 3.11653 0.896822 0
M  V30 1229 H 126.668 3.85495 -0.716657 0
M  V30 1230 H 128.158 4.17009 0.222028 0
M  V30 1231 N 128.595 0.856903 1.32268 0
M  V30 1232 C 129.558 0.308171 2.27119 0
M  V30 1233 C 130.558 -0.533421 1.51695 0
M  V30 1234 O 131.748 -0.344607 1.70757 0
M  V30 1235 C 128.88 -0.563757 3.36206 0
M  V30 1236 H 130.073 1.14535 2.77167 0
M  V30 1237 H 127.626 0.631421 1.42978 0
M  V30 1238 H 128.361 -1.42266 2.91429 0
M  V30 1239 H 128.146 0.0386749 3.92081 0
M  V30 1240 H 129.636 -0.940386 4.06874 0
M  V30 1241 N 130.073 -1.45103 0.615059 0
M  V30 1242 C 131.319 -2.02483 0.113347 0
M  V30 1243 C 131.652 -1.48146 -1.25564 0
M  V30 1244 O 130.927 -0.659104 -1.82992 0
M  V30 1245 C 131.21 -3.60005 0.0825278 0
M  V30 1246 C 131.063 -4.2466 1.48271 0
M  V30 1247 C 132.382 -4.35972 -0.601401 0
M  V30 1248 H 129.501 -0.735764 0.0426632 0
M  V30 1249 H 132.143 -1.72868 0.788461 0
M  V30 1250 H 130.293 -3.85367 -0.492378 0
M  V30 1251 H 131.965 -4.10458 2.10527 0
M  V30 1252 H 130.208 -3.82772 2.04127 0
M  V30 1253 H 130.879 -5.336 1.41332 0
M  V30 1254 H 133.355 -4.15947 -0.112666 0
M  V30 1255 H 132.231 -5.45697 -0.592097 0
M  V30 1256 H 132.492 -4.09391 -1.66887 0
M  V30 1257 N 131.551 -0.354651 -1.53558 0
M  V30 1258 C 132.779 0.239515 -2.05509 0
M  V30 1259 C 133.194 1.4333 -1.2289 0
M  V30 1260 O 132.551 1.80538 -0.266899 0
M  V30 1261 C 132.602 0.643719 -3.55723 0
M  V30 1262 O 132.323 -0.502602 -4.35207 0
M  V30 1263 C 133.824 1.29743 -4.23889 0
M  V30 1264 H 131.044 0.0442697 -0.669538 0
M  V30 1265 H 133.588 -0.509856 -1.98042 0
M  V30 1266 H 131.743 1.34302 -3.63376 0
M  V30 1267 H 132.157 -0.178172 -5.24197 0
M  V30 1268 H 133.631 1.53091 -5.30346 0
M  V30 1269 H 134.108 2.25441 -3.76926 0
M  V30 1270 H 134.714 0.639865 -4.20459 0
M  V30 1271 N 133.029 1.57378 -0.0835403 0
M  V30 1272 C 133.961 2.10389 0.909338 0
M  V30 1273 C 134.974 1.03858 1.25369 0
M  V30 1274 O 136.163 1.31338 1.20882 0
M  V30 1275 C 133.263 2.55908 2.2218 0
M  V30 1276 C 132.436 3.86145 2.05453 0
M  V30 1277 C 131.495 4.17633 3.20108 0
M  V30 1278 O 130.521 4.87043 2.94581 0
M  V30 1279 N 131.723 3.72113 4.45547 0
M  V30 1280 H 134.488 2.962 0.456657 0
M  V30 1281 H 132.049 1.61579 0.101877 0
M  V30 1282 H 134.041 2.74027 2.97811 0
M  V30 1283 H 132.611 1.75171 2.58909 0
M  V30 1284 H 131.831 3.7729 1.1422 0
M  V30 1285 H 133.119 4.7137 1.91541 0
M  V30 1286 H 132.517 3.16062 4.69171 0
M  V30 1287 H 131.074 3.95409 5.18165 0
M  V30 1288 N 134.507 -0.190092 1.56449 0
M  V30 1289 C 135.439 -1.25973 1.91477 0
M  V30 1290 C 136.452 -1.41452 0.805931 0
M  V30 1291 O 137.641 -1.41789 1.08435 0
M  V30 1292 C 134.741 -2.63117 2.13594 0
M  V30 1293 C 133.914 -2.69182 3.4476 0
M  V30 1294 C 132.973 -3.87557 3.5593 0
M  V30 1295 O 131.999 -3.74427 4.28711 0
M  V30 1296 N 133.201 -5.03224 2.89388 0
M  V30 1297 H 135.966 -0.962394 2.83828 0
M  V30 1298 H 133.527 -0.379981 1.57378 0
M  V30 1299 H 135.519 -3.40742 2.1835 0
M  V30 1300 H 134.089 -2.85319 1.27719 0
M  V30 1301 H 133.309 -1.77793 3.51828 0
M  V30 1302 H 134.597 -2.70229 4.31107 0
M  V30 1303 H 133.995 -5.16791 2.30094 0
M  V30 1304 H 132.552 -5.78778 2.99764 0
M  V30 1305 N 135.985 -1.50799 -0.457987 0
M  V30 1306 C 137.232 -1.62442 -1.20908 0
M  V30 1307 C 137.56 -0.330865 -1.91665 0
M  V30 1308 O 136.815 0.68401 -1.83357 0
M  V30 1309 C 137.114 -2.76358 -2.2663 0
M  V30 1310 C 136.78 -4.16378 -1.73033 0
M  V30 1311 C 135.442 -4.54473 -1.58138 0
M  V30 1312 C 137.794 -5.03836 -1.33413 0
M  V30 1313 C 135.122 -5.77754 -1.02065 0
M  V30 1314 C 137.474 -6.27676 -0.78778 0
M  V30 1315 C 136.138 -6.64562 -0.625561 0
M  V30 1316 H 135.408 -0.594417 -0.442435 0
M  V30 1317 H 138.055 -1.84772 -0.503136 0
M  V30 1318 H 136.36 -2.48167 -3.03184 0
M  V30 1319 H 138.057 -2.82568 -2.84528 0
M  V30 1320 H 134.647 -3.86331 -1.85598 0
M  V30 1321 H 138.831 -4.75026 -1.4375 0
M  V30 1322 H 134.087 -6.04997 -0.882547 0
M  V30 1323 H 138.261 -6.94797 -0.472177 0
M  V30 1324 H 135.888 -7.59965 -0.188926 0
M  V30 1325 N 137.463 0.71206 -1.40597 0
M  V30 1326 C 138.709 1.47416 -1.39271 0
M  V30 1327 C 139.042 1.942 0.00388791 0
M  V30 1328 O 138.317 1.68403 0.973179 0
M  V30 1329 C 138.6 2.69774 -2.38525 0
M  V30 1330 C 138.453 2.28861 -3.87224 0
M  V30 1331 C 139.772 3.71939 -2.35264 0
M  V30 1332 H 136.891 0.534713 -0.5072 0
M  V30 1333 H 139.533 0.812375 -1.71757 0
M  V30 1334 H 137.683 3.26238 -2.10953 0
M  V30 1335 H 139.355 1.77852 -4.25636 0
M  V30 1336 H 137.598 1.60824 -4.02887 0
M  V30 1337 H 138.269 3.16584 -4.52193 0
M  V30 1338 H 140.745 3.25113 -2.59694 0
M  V30 1339 H 139.621 4.55186 -3.06753 0
M  V30 1340 H 139.882 4.20484 -1.36549 0
M  V30 1341 N 138.941 1.26152 0.944643 0
M  V30 1342 C 140.19 1.10883 1.68487 0
M  V30 1343 C 140.503 -0.348153 1.92477 0
M  V30 1344 O 141.709 -0.621459 2.64292 0
M  V30 1345 C 140.165 1.93624 3.03377 0
M  V30 1346 C 139.773 3.43875 2.87148 0
M  V30 1347 C 141.517 1.86954 3.81115 0
M  V30 1348 C 139.424 4.18875 4.1749 0
M  V30 1349 H 138.354 0.41135 0.631907 0
M  V30 1350 H 141.005 1.50433 1.05082 0
M  V30 1351 H 139.387 1.46904 3.67743 0
M  V30 1352 H 140.561 3.98338 2.31653 0
M  V30 1353 H 138.876 3.51744 2.22856 0
M  V30 1354 H 141.473 2.40275 4.77673 0
M  V30 1355 H 141.816 0.839518 4.07747 0
M  V30 1356 H 142.349 2.31477 3.23517 0
M  V30 1357 H 139.088 5.22332 3.96043 0
M  V30 1358 H 138.608 3.69193 4.72712 0
M  V30 1359 H 140.287 4.27134 4.85968 0
M  V30 1360 N 140.419 -1.14872 1.07899 0
M  V30 1361 C 141.696 -1.81928 0.71845 0
M  V30 1362 C 142.076 -1.95417 -0.798455 0
M  V30 1363 O 141.424 -1.50997 -1.715 0
M  V30 1364 C 141.634 -3.17937 1.43935 0
M  V30 1365 C 142.982 -3.93501 1.59506 0
M  V30 1366 O 144.006 -3.27509 1.40058 0
M  V30 1367 O 142.865 -5.1183 1.91551 0
M  V30 1368 H 139.959 -0.78628 0.256305 0
M  V30 1369 H 142.505 -1.21934 1.18026 0
M  V30 1370 H 141.277 -3.0325 2.47295 0
M  V30 1371 H 140.9 -3.85619 0.968687 0
M  V30 1372 N 141.898 -0.863906 -1.31812 0
M  V30 1373 C 143.146 -0.470904 -1.96537 0
M  V30 1374 C 143.467 0.978771 -1.68657 0
M  V30 1375 O 142.737 1.6853 -0.998717 0
M  V30 1376 H 141.317 -0.171148 -0.72713 0
M  V30 1377 H 143.979 -1.10236 -1.60729 0
M  V30 1378 H 143.075 -0.623616 -3.05806 0
M  V30 1379 N 143.376 1.44774 -0.622745 0
M  V30 1380 C 144.286 2.34433 0.0886031 0
M  V30 1381 C 145.302 1.52131 0.844529 0
M  V30 1382 O 146.478 1.84886 0.798691 0
M  V30 1383 C 143.543 3.29986 1.0635 0
M  V30 1384 C 142.604 4.28195 0.307873 0
M  V30 1385 C 141.837 5.19183 1.23633 0
M  V30 1386 O 142.06 5.13918 2.47476 0
M  V30 1387 O 140.994 5.97515 0.725189 0
M  V30 1388 H 144.82 2.96693 -0.648599 0
M  V30 1389 H 142.405 1.44408 -0.382957 0
M  V30 1390 H 144.287 3.88825 1.6246 0
M  V30 1391 H 142.962 2.70269 1.78146 0
M  V30 1392 H 141.869 3.72927 -0.296064 0
M  V30 1393 H 143.202 4.90808 -0.3699 0
M  V30 1394 N 144.854 0.36279 1.53368 0
M  V30 1395 C 145.817 -0.472679 2.24273 0
M  V30 1396 C 146.817 -1.012 1.24961 0
M  V30 1397 O 148.007 -0.898194 1.49259 0
M  V30 1398 C 145.139 -1.66039 2.97731 0
M  V30 1399 H 146.332 0.14773 2.99536 0
M  V30 1400 H 143.885 0.114434 1.55881 0
M  V30 1401 H 144.62 -2.31896 2.26704 0
M  V30 1402 H 144.405 -1.28066 3.70596 0
M  V30 1403 H 145.895 -2.25252 3.51641 0
M  V30 1404 N 146.332 -1.57332 0.0918853 0
M  V30 1405 C 147.58 -1.93853 -0.571446 0
M  V30 1406 C 147.901 -0.974212 -1.6892 0
M  V30 1407 O 147.171 -0.0257254 -1.95883 0
M  V30 1408 H 145.751 -0.715666 -0.214082 0
M  V30 1409 H 148.413 -1.94287 0.154464 0
M  V30 1410 H 147.509 -2.96191 -0.983729 0
M  V30 1411 N 147.81 0.181792 -1.56548 0
M  V30 1412 C 149.226 0.53316 -1.50431 0
M  V30 1413 C 149.426 1.85184 -0.794297 0
M  V30 1414 O 148.482 2.50058 -0.350318 0
M  V30 1415 C 149.795 0.575597 -2.9514 0
M  V30 1416 C 151.343 0.663519 -3.05886 0
M  V30 1417 C 151.818 0.736946 -4.52032 0
M  V30 1418 N 153.309 0.800118 -4.56237 0
M  V30 1419 C 154.044 0.877327 -5.66649 0
M  V30 1420 N 153.54 0.916016 -6.86718 0
M  V30 1421 N 155.333 0.915542 -5.54594 0
M  V30 1422 H 147.484 -0.683025 -2.01118 0
M  V30 1423 H 149.747 -0.244988 -0.915797 0
M  V30 1424 H 149.453 -0.324482 -3.502 0
M  V30 1425 H 149.327 1.42572 -3.49218 0
M  V30 1426 H 151.714 1.55403 -2.50867 0
M  V30 1427 H 151.795 -0.21307 -2.54911 0
M  V30 1428 H 151.439 -0.149262 -5.07681 0
M  V30 1429 H 151.369 1.62953 -5.00753 0
M  V30 1430 H 153.86 0.778926 -3.69785 0
M  V30 1431 H 154.173 0.975813 -7.66614 0
M  V30 1432 H 152.518 0.884469 -6.89349 0
M  V30 1433 H 155.709 0.882245 -4.59711 0
M  V30 1434 H 155.882 0.972253 -6.40665 0
M  V30 1435 N 149.288 1.51039 0.449983 0
M  V30 1436 C 150.534 1.63322 1.20223 0
M  V30 1437 C 150.867 0.34241 1.91158 0
M  V30 1438 O 150.142 -0.657344 1.83055 0
M  V30 1439 C 150.425 2.82801 2.22925 0
M  V30 1440 C 150.278 4.21823 1.56157 0
M  V30 1441 C 151.597 2.97807 3.24035 0
M  V30 1442 H 148.716 0.594407 0.435718 0
M  V30 1443 H 151.358 1.83489 0.493136 0
M  V30 1444 H 149.508 2.65738 2.834 0
M  V30 1445 H 151.18 4.50526 0.991162 0
M  V30 1446 H 149.423 4.25105 0.864172 0
M  V30 1447 H 150.094 5.01391 2.30891 0
M  V30 1448 H 152.57 3.13497 2.73603 0
M  V30 1449 H 151.446 3.82992 3.93202 0
M  V30 1450 H 151.707 2.09328 3.89402 0
M  V30 1451 N 150.766 -0.704594 1.40972 0
M  V30 1452 C 152.015 -1.46018 1.39146 0
M  V30 1453 C 152.328 -1.956 0.000589254 0
M  V30 1454 O 153.534 -2.71137 -0.1403 0
M  V30 1455 C 151.99 -2.63996 2.4461 0
M  V30 1456 C 151.598 -2.21238 3.89561 0
M  V30 1457 C 153.342 -3.41677 2.51907 0
M  V30 1458 C 151.249 -3.3612 4.86598 0
M  V30 1459 H 150.179 -0.548444 0.517422 0
M  V30 1460 H 152.83 -0.765784 1.66757 0
M  V30 1461 H 151.212 -3.3566 2.10115 0
M  V30 1462 H 152.386 -1.56923 4.33257 0
M  V30 1463 H 150.701 -1.56574 3.85841 0
M  V30 1464 H 153.298 -4.27182 3.2159 0
M  V30 1465 H 153.641 -3.86247 1.55303 0
M  V30 1466 H 154.174 -2.77064 2.85448 0
M  V30 1467 H 150.913 -2.96572 5.84573 0
M  V30 1468 H 150.433 -3.99315 4.47557 0
M  V30 1469 H 152.112 -4.02029 5.06934 0
M  V30 1470 N 152.244 -1.26651 -0.937939 0
M  V30 1471 C 153.492 -1.12165 -1.68118 0
M  V30 1472 C 153.813 0.334983 -1.92101 0
M  V30 1473 O 153.083 1.23583 -1.52 0
M  V30 1474 H 151.663 -0.412093 -0.623048 0
M  V30 1475 H 154.325 -1.59027 -1.12678 0
M  V30 1476 H 153.421 -1.64289 -2.6536 0
M  V30 1477 N 153.722 1.14298 -1.08507 0
M  V30 1478 C 154.655 2.18447 -0.660004 0
M  V30 1479 C 155.633 1.59242 0.328749 0
M  V30 1480 O 156.817 1.87062 0.232367 0
M  V30 1481 C 153.944 3.38688 0.0290807 0
M  V30 1482 C 152.99 4.1646 -0.919982 0
M  V30 1483 S 153.823 4.77334 -2.42718 0
M  V30 1484 C 154.979 6.00931 -1.75024 0
M  V30 1485 H 155.212 2.54166 -1.54231 0
M  V30 1486 H 152.745 1.25446 -0.900149 0
M  V30 1487 H 154.703 4.08342 0.420378 0
M  V30 1488 H 153.364 3.01289 0.887895 0
M  V30 1489 H 152.557 5.02529 -0.384751 0
M  V30 1490 H 152.159 3.52414 -1.25223 0
M  V30 1491 H 154.451 6.69017 -1.06877 0
M  V30 1492 H 155.394 6.59044 -2.58971 0
M  V30 1493 H 155.802 5.51089 -1.22317 0
M  V30 1494 N 155.201 0.870884 1.31352 0
M  V30 1495 C 156.45 0.478408 1.95944 0
M  V30 1496 C 156.763 -0.974493 1.69597 0
M  V30 1497 O 157.969 -1.47316 2.28058 0
M  V30 1498 C 156.425 0.804609 3.50791 0
M  V30 1499 C 156.033 2.27433 3.85977 0
M  V30 1500 C 157.777 0.480648 4.2177 0
M  V30 1501 C 155.684 2.5429 5.33939 0
M  V30 1502 H 154.614 0.175175 0.733369 0
M  V30 1503 H 157.265 1.06391 1.4951 0
M  V30 1504 H 155.647 0.148347 3.95722 0
M  V30 1505 H 156.821 2.97373 3.52002 0
M  V30 1506 H 155.136 2.56442 3.28065 0
M  V30 1507 H 157.733 0.658519 5.30629 0
M  V30 1508 H 158.076 -0.578979 4.12254 0
M  V30 1509 H 158.609 1.09349 3.82476 0
M  V30 1510 H 155.348 3.58939 5.48491 0
M  V30 1511 H 154.868 1.88945 5.69263 0
M  V30 1512 H 156.547 2.39066 6.01212 0
M  V30 1513 N 156.679 -1.44442 0.630414 0
M  V30 1514 C 157.956 -1.9549 0.0655657 0
M  V30 1515 C 158.336 -1.5724 -1.40851 0
M  V30 1516 O 157.684 -0.846116 -2.12257 0
M  V30 1517 C 157.894 -3.47812 0.287691 0
M  V30 1518 C 159.242 -4.24216 0.180513 0
M  V30 1519 O 160.266 -3.55526 0.219019 0
M  V30 1520 O 159.125 -5.46434 0.0848493 0
M  V30 1521 H 156.219 -0.826688 -0.0227177 0
M  V30 1522 H 158.765 -1.54496 0.702068 0
M  V30 1523 H 157.537 -3.687 1.31056 0
M  V30 1524 H 157.16 -3.95751 -0.382984 0
M  V30 1525 N 158.157 -0.370918 -1.53173 0
M  V30 1526 C 159.405 0.216673 -2.00935 0
M  V30 1527 C 159.726 1.48845 -1.25977 0
M  V30 1528 O 158.996 1.92286 -0.374551 0
M  V30 1529 H 157.576 0.0830565 -0.742368 0
M  V30 1530 H 160.238 -0.49838 -1.8842 0
M  V30 1531 H 159.334 0.439893 -3.08984 0
M  V30 1532 N 159.635 1.57281 -0.100228 0
M  V30 1533 C 160.883 1.94153 0.561157 0
M  V30 1534 C 161.204 0.983157 1.68401 0
M  V30 1535 O 160.474 0.0361132 1.95867 0
M  V30 1536 H 159.054 0.716791 0.210283 0
M  V30 1537 H 161.716 1.94202 -0.164765 0
M  V30 1538 H 160.812 2.96709 0.968008 0
M  V30 1539 N 161.113 -0.173488 1.56642 0
M  V30 1540 C 162.36 -0.890465 1.81871 0
M  V30 1541 C 162.688 -1.82339 0.67696 0
M  V30 1542 O 161.943 -1.92795 -0.335926 0
M  V30 1543 C 162.242 -1.72069 3.13252 0
M  V30 1544 C 161.908 -0.936878 4.41059 0
M  V30 1545 C 160.57 -0.720545 4.75775 0
M  V30 1546 C 162.922 -0.386919 5.19762 0
M  V30 1547 C 160.25 0.0568829 5.86672 0
M  V30 1548 C 162.602 0.37741 6.31473 0
M  V30 1549 C 161.266 0.604563 6.64757 0
M  V30 1550 H 160.536 -0.325844 0.665512 0
M  V30 1551 H 163.183 -0.155527 1.90867 0
M  V30 1552 H 161.488 -2.52496 2.99588 0
M  V30 1553 H 163.185 -2.27844 3.29982 0
M  V30 1554 H 159.775 -1.11553 4.13828 0
M  V30 1555 H 163.959 -0.541398 4.93338 0
M  V30 1556 H 159.215 0.242635 6.10918 0
M  V30 1557 H 163.389 0.810825 6.91664 0
M  V30 1558 H 161.016 1.20885 7.50527 0
M  V30 1559 N 162.591 -1.51276 -0.441967 0
M  V30 1560 C 163.521 -1.752 -1.54361 0
M  V30 1561 C 164.502 -0.601682 -1.59103 0
M  V30 1562 O 165.687 -0.843913 -1.74905 0
M  V30 1563 C 162.817 -1.87282 -2.92477 0
M  V30 1564 C 161.771 -3.02687 -3.02596 0
M  V30 1565 C 161.097 -2.99947 -4.42647 0
M  V30 1566 C 162.397 -4.4273 -2.77106 0
M  V30 1567 H 164.091 -2.67442 -1.34592 0
M  V30 1568 H 161.637 -1.28694 -0.646048 0
M  V30 1569 H 163.59 -2.02602 -3.695 0
M  V30 1570 H 162.314 -0.916844 -3.13467 0
M  V30 1571 H 160.973 -2.87065 -2.28012 0
M  V30 1572 H 160.621 -2.02136 -4.60597 0
M  V30 1573 H 160.321 -3.77439 -4.50348 0
M  V30 1574 H 161.845 -3.17354 -5.2165 0
M  V30 1575 H 163.259 -4.58727 -3.43864 0
M  V30 1576 H 161.656 -5.21893 -2.96222 0
M  V30 1577 H 162.726 -4.53087 -1.72744 0
M  V30 1578 N 164.069 0.697108 -1.41344 0
M  V30 1579 C 165.48 1.27697 -1.36199 0
M  V30 1580 C 165.831 1.9615 -0.0443463 0
M  V30 1581 O 164.956 1.98689 0.857419 0
M  V30 1582 C 165.551 2.32223 -2.46694 0
M  V30 1583 C 164.11 2.8579 -2.44952 0
M  V30 1584 C 163.257 1.59807 -2.26621 0
M  V30 1585 H 166.208 0.491968 -1.50882 0
M  V30 1586 H 166.229 3.1348 -2.15664 0
M  V30 1587 H 165.741 1.82373 -3.42581 0
M  V30 1588 H 163.842 3.3982 -1.52817 0
M  V30 1589 H 163.955 3.36325 -3.41207 0
M  V30 1590 H 162.319 1.8556 -1.7447 0
M  V30 1591 H 163.102 1.11956 -3.24532 0
M  V30 1592 N 165.547 1.27147 0.931209 0
M  V30 1593 C 166.495 1.09398 2.05268 0
M  V30 1594 C 167.489 0.0180591 1.6939 0
M  V30 1595 O 168.695 0.17551 1.79142 0
M  V30 1596 H 165.07 0.336986 0.672268 0
M  V30 1597 H 167.041 2.04416 2.17386 0
M  V30 1598 C 165.79 0.75424 3.39421 0
M  V30 1599 H 165.113 1.57404 3.67511 0
M  V30 1600 H 166.553 0.669903 4.18674 0
M  V30 1601 C 165.012 -0.541197 3.32525 0
M  V30 1602 O 165.542 -1.57664 3.69466 0
M  V30 1603 N 163.748 -0.535517 2.85623 0
M  V30 1604 H 163.295 0.307511 2.55758 0
M  V30 1605 H 163.253 -1.40236 2.81392 0
M  V30 1606 N 167.025 -1.13721 1.09112 0
M  V30 1607 C 168.436 -1.6648 0.845068 0
M  V30 1608 C 168.787 -1.85911 -0.62701 0
M  V30 1609 O 167.912 -1.57556 -1.48341 0
M  V30 1610 C 168.507 -3.02413 1.52748 0
M  V30 1611 C 167.066 -3.52176 1.32849 0
M  V30 1612 C 166.213 -2.27492 1.58564 0
M  V30 1613 H 169.164 -0.976872 1.25072 0
M  V30 1614 H 169.185 -3.68223 0.958752 0
M  V30 1615 H 168.697 -2.88238 2.59885 0
M  V30 1616 H 166.798 -3.7156 0.278137 0
M  V30 1617 H 166.911 -4.32499 2.0611 0
M  V30 1618 H 165.275 -2.33923 1.00758 0
M  V30 1619 H 166.058 -2.15886 2.66924 0
M  V30 1620 N 168.503 -0.877838 -1.30888 0
M  V30 1621 C 169.749 -0.493426 -1.96706 0
M  V30 1622 C 170.082 0.953504 -1.6918 0
M  V30 1623 O 169.357 1.67266 -0.992594 0
M  V30 1624 C 169.64 -0.760429 -3.51979 0
M  V30 1625 C 169.493 -2.25747 -3.89048 0
M  V30 1626 C 170.812 -0.232148 -4.39487 0
M  V30 1627 H 167.931 -0.180746 -0.714493 0
M  V30 1628 H 170.573 -1.10052 -1.54882 0
M  V30 1629 H 168.723 -0.243715 -3.87735 0
M  V30 1630 H 170.395 -2.84204 -3.63354 0
M  V30 1631 H 168.638 -2.72694 -3.37373 0
M  V30 1632 H 169.309 -2.39491 -4.97341 0
M  V30 1633 H 171.785 -0.674314 -4.106 0
M  V30 1634 H 170.661 -0.448355 -5.47066 0
M  V30 1635 H 170.922 0.866297 -4.33529 0
M  V30 1636 N 169.982 1.44106 -0.638065 0
M  V30 1637 C 171.228 2.02277 -0.145546 0
M  V30 1638 C 171.561 1.50125 1.23191 0
M  V30 1639 O 170.836 0.688133 1.8192 0
M  V30 1640 C 171.119 3.59829 -0.139791 0
M  V30 1641 C 170.972 4.22247 -1.55008 0
M  V30 1642 C 172.291 4.36873 0.531966 0
M  V30 1643 H 169.41 0.734992 -0.0543632 0
M  V30 1644 H 172.052 1.71592 -0.815863 0
M  V30 1645 H 170.202 3.86102 0.431007 0
M  V30 1646 H 171.874 4.07057 -2.1703 0
M  V30 1647 H 170.117 3.79476 -2.10191 0
M  V30 1648 H 170.788 5.31284 -1.49804 0
M  V30 1649 H 173.264 4.16074 0.0464781 0
M  V30 1650 H 172.14 5.4657 0.505206 0
M  V30 1651 H 172.401 4.11995 1.60352 0
M  V30 1652 N 171.46 0.379036 1.52974 0
M  V30 1653 C 172.423 -0.448865 2.24762 0
M  V30 1654 C 173.423 -0.998689 1.26027 0
M  V30 1655 O 174.613 -0.882313 1.50203 0
M  V30 1656 C 171.745 -1.62872 2.99476 0
M  V30 1657 H 172.938 0.179491 2.99362 0
M  V30 1658 H 170.491 0.13096 1.5575 0
M  V30 1659 H 171.226 -2.29479 2.29151 0
M  V30 1660 H 171.011 -1.24128 3.71934 0
M  V30 1661 H 172.501 -2.2151 3.5401 0
M  V30 1662 N 172.938 -1.57226 0.108567 0
M  V30 1663 C 174.215 -1.86333 -0.594939 0
M  V30 1664 C 174.595 -1.00788 -1.85486 0
M  V30 1665 O 173.943 -0.0839293 -2.28346 0
M  V30 1666 C 174.153 -3.37265 -0.897405 0
M  V30 1667 C 175.501 -4.05629 -1.25501 0
M  V30 1668 O 176.525 -3.42224 -0.987998 0
M  V30 1669 O 175.384 -5.17531 -1.75567 0
M  V30 1670 H 172.478 -0.771018 -0.2991 0
M  V30 1671 H 175.024 -1.69102 0.142283 0
M  V30 1672 H 173.796 -3.913 -0.00413806 0
M  V30 1673 H 173.419 -3.59889 -1.69014 0
M  V30 1674 N 174.416 0.165178 -1.56732 0
M  V30 1675 C 175.693 0.908443 -1.73224 0
M  V30 1676 C 176.073 2.0013 -0.67165 0
M  V30 1677 O 175.421 2.26353 0.31253 0
M  V30 1678 C 175.631 1.46756 -3.16644 0
M  V30 1679 C 176.979 1.93809 -3.77787 0
M  V30 1680 O 178.003 1.56537 -3.1996 0
M  V30 1681 O 176.862 2.62486 -4.79336 0
M  V30 1682 H 173.956 0.428025 -0.707618 0
M  V30 1683 H 176.502 0.152526 -1.69013 0
M  V30 1684 H 175.274 0.68129 -3.85323 0
M  V30 1685 H 174.897 2.28749 -3.25207 0
M  V30 1686 N 175.894 1.51508 0.433938 0
M  V30 1687 C 177.142 1.6402 1.18075 0
M  V30 1688 C 177.463 0.360328 1.91642 0
M  V30 1689 O 176.733 -0.623945 1.85698 0
M  V30 1690 H 175.313 0.6045 0.43885 0
M  V30 1691 H 177.975 1.88452 0.497178 0
M  V30 1692 H 177.071 2.46949 1.90847 0
M  V30 1693 N 177.372 -0.689602 1.41712 0
M  V30 1694 C 178.597 -1.48329 1.44959 0
M  V30 1695 C 179.022 -1.8801 0.0581283 0
M  V30 1696 O 178.38 -1.55026 -0.940035 0
M  V30 1697 C 178.428 -2.71835 2.36935 0
M  V30 1698 O 177.532 -3.69549 1.8305 0
M  V30 1699 H 176.873 -0.446199 0.491734 0
M  V30 1700 H 179.403 -0.847127 1.86239 0
M  V30 1701 H 179.413 -3.20076 2.53013 0
M  V30 1702 H 178.088 -2.42291 3.38035 0
M  V30 1703 H 176.665 -3.2851 1.76452 0
M  V30 1704 N 178.85 -1.27639 -0.924453 0
M  V30 1705 C 180.097 -1.14167 -1.67249 0
M  V30 1706 C 180.425 0.311863 -1.91984 0
M  V30 1707 O 179.68 1.24425 -1.51053 0
M  V30 1708 C 179.979 -1.87407 -3.04325 0
M  V30 1709 C 179.645 -3.37249 -2.99289 0
M  V30 1710 C 178.307 -3.7812 -2.97622 0
M  V30 1711 C 180.659 -4.32845 -2.90336 0
M  V30 1712 C 177.987 -5.12944 -2.8479 0
M  V30 1713 C 180.339 -5.6773 -2.79045 0
M  V30 1714 C 179.003 -6.07889 -2.7573 0
M  V30 1715 H 178.273 -0.417766 -0.612007 0
M  V30 1716 H 180.92 -1.58286 -1.07786 0
M  V30 1717 H 179.225 -1.35805 -3.67511 0
M  V30 1718 H 180.922 -1.74408 -3.61086 0
M  V30 1719 H 177.512 -3.04748 -3.01374 0
M  V30 1720 H 181.696 -4.02239 -2.90719 0
M  V30 1721 H 176.952 -5.432 -2.80612 0
M  V30 1722 H 181.126 -6.41472 -2.71083 0
M  V30 1723 H 178.753 -7.12314 -2.65544 0
M  V30 1724 N 180.328 1.1314 -1.09713 0
M  V30 1725 C 181.577 1.83838 -0.829851 0
M  V30 1726 C 181.89 1.84599 0.646728 0
M  V30 1727 O 183.096 2.51218 1.02965 0
M  V30 1728 C 181.552 3.30069 -1.43466 0
M  V30 1729 C 181.16 3.37688 -2.94399 0
M  V30 1730 C 182.904 4.05788 -1.24645 0
M  V30 1731 C 180.811 4.78209 -3.47952 0
M  V30 1732 H 179.741 0.68877 -0.306777 0
M  V30 1733 H 182.392 1.27448 -1.3202 0
M  V30 1734 H 180.774 3.8628 -0.871996 0
M  V30 1735 H 181.948 2.91456 -3.56918 0
M  V30 1736 H 180.263 2.75436 -3.12289 0
M  V30 1737 H 182.86 5.09535 -1.62107 0
M  V30 1738 H 183.203 4.15878 -0.187357 0
M  V30 1739 H 183.736 3.55915 -1.77678 0
M  V30 1740 H 180.475 4.73311 -4.53495 0
M  V30 1741 H 179.995 5.24924 -2.90198 0
M  V30 1742 H 181.674 5.47133 -3.45332 0
M  V30 1743 N 181.806 0.884767 1.30421 0
M  V30 1744 C 182.769 0.356277 2.26414 0
M  V30 1745 C 183.769 -0.501124 1.52792 0
M  V30 1746 O 184.959 -0.30831 1.7145 0
M  V30 1747 C 182.091 -0.492316 3.37326 0
M  V30 1748 H 183.284 1.20389 2.74675 0
M  V30 1749 H 180.837 0.661607 1.41607 0
M  V30 1750 H 181.572 -1.36052 2.94381 0
M  V30 1751 H 181.357 0.121832 3.91911 0
M  V30 1752 H 182.847 -0.853871 4.08777 0
M  V30 1753 N 183.284 -1.43765 0.645699 0
M  V30 1754 C 184.234 -2.27884 -0.0726442 0
M  V30 1755 C 185.218 -1.39483 -0.802086 0
M  V30 1756 O 186.41 -1.63174 -0.685791 0
M  V30 1757 C 183.539 -3.27055 -1.04356 0
M  V30 1758 C 182.625 -4.22944 -0.312985 0
M  V30 1759 N 183.016 -5.01391 0.666386 0
M  V30 1760 C 181.314 -4.42528 -0.55546 0
M  V30 1761 C 182.015 -5.71217 1.09935 0
M  V30 1762 N 180.991 -5.41856 0.435137 0
M  V30 1763 H 184.793 -2.85949 0.678988 0
M  V30 1764 H 182.307 -1.55378 0.472368 0
M  V30 1765 H 184.304 -3.86089 -1.57292 0
M  V30 1766 H 182.964 -2.70551 -1.79534 0
M  V30 1767 H 183.975 -5.07252 1.04481 0
M  V30 1768 H 180.652 -3.97104 -1.28899 0
M  V30 1769 H 182.042 -6.44202 1.90929 0
M  V30 1770 N 184.763 -0.387143 -1.52771 0
M  V30 1771 C 185.726 0.436939 -2.24997 0
M  V30 1772 C 186.726 0.991991 -1.26555 0
M  V30 1773 O 187.916 0.874335 -1.50669 0
M  V30 1774 C 185.048 1.61281 -3.00335 0
M  V30 1775 H 186.241 -0.195365 -2.99263 0
M  V30 1776 H 183.794 -0.139218 -1.55679 0
M  V30 1777 H 184.529 2.2826 -2.30364 0
M  V30 1778 H 184.314 1.22154 -3.72587 0
M  V30 1779 H 185.804 2.19629 -3.5518 0
M  V30 1780 N 186.241 1.57166 -0.116904 0
M  V30 1781 C 187.466 1.999 0.55271 0
M  V30 1782 C 187.891 0.996039 1.59564 0
M  V30 1783 O 187.249 -0.032556 1.81271 0
M  V30 1784 C 187.297 3.4152 1.15742 0
M  V30 1785 O 186.401 3.44106 2.27299 0
M  V30 1786 H 185.742 0.649447 0.138258 0
M  V30 1787 H 188.272 2.03573 -0.204759 0
M  V30 1788 H 188.282 3.79684 1.49346 0
M  V30 1789 H 186.957 4.14034 0.393493 0
M  V30 1790 H 185.534 3.17759 1.9515 0
M  V30 1791 N 187.719 -0.156864 1.56817 0
M  V30 1792 C 188.947 -0.886316 1.86955 0
M  V30 1793 C 189.362 -1.75185 0.703975 0
M  V30 1794 O 188.719 -1.79555 -0.326552 0
M  V30 1795 C 188.77 -1.75117 3.16253 0
M  V30 1796 O 188.491 -0.920537 4.2832 0
M  V30 1797 C 189.992 -2.58905 3.59837 0
M  V30 1798 H 187.212 -0.25678 0.619923 0
M  V30 1799 H 189.756 -0.152615 2.0393 0
M  V30 1800 H 187.911 -2.43805 3.01062 0
M  V30 1801 H 188.325 -1.51337 5.02192 0
M  V30 1802 H 189.799 -3.1518 4.53172 0
M  V30 1803 H 190.276 -3.34472 2.84649 0
M  V30 1804 H 190.882 -1.95526 3.7769 0
M  V30 1805 N 189.197 -1.51736 -0.425897 0
M  V30 1806 C 190.443 -1.65214 -1.1761 0
M  V30 1807 C 190.776 -0.372778 -1.90589 0
M  V30 1808 O 190.051 0.628139 -1.84078 0
M  V30 1809 C 190.334 -2.86312 -2.18398 0
M  V30 1810 C 190.187 -4.24254 -1.49426 0
M  V30 1811 C 191.506 -3.02925 -3.19256 0
M  V30 1812 H 188.625 -0.601263 -0.426206 0
M  V30 1813 H 191.267 -1.8425 -0.463882 0
M  V30 1814 H 189.417 -2.70213 -2.79137 0
M  V30 1815 H 191.089 -4.52046 -0.919362 0
M  V30 1816 H 189.332 -4.26426 -0.796432 0
M  V30 1817 H 190.003 -5.05001 -2.22885 0
M  V30 1818 H 192.479 -3.1781 -2.68581 0
M  V30 1819 H 191.355 -3.89199 -3.8706 0
M  V30 1820 H 191.616 -2.15497 -3.86023 0
M  V30 1821 N 190.675 0.682077 -1.42076 0
M  V30 1822 C 191.922 1.44215 -1.42156 0
M  V30 1823 C 192.25 1.94468 -0.0354186 0
M  V30 1824 O 191.505 1.70816 0.955002 0
M  V30 1825 C 191.804 2.66036 -2.38662 0
M  V30 1826 C 191.47 2.34366 -3.85206 0
M  V30 1827 C 190.132 2.25439 -4.25124 0
M  V30 1828 C 192.484 2.08513 -4.77673 0
M  V30 1829 C 189.812 1.88775 -5.55501 0
M  V30 1830 C 192.164 1.73354 -6.08384 0
M  V30 1831 C 190.828 1.62933 -6.47309 0
M  V30 1832 H 190.098 0.527718 -0.520187 0
M  V30 1833 H 192.745 0.778387 -1.74967 0
M  V30 1834 H 191.05 3.3741 -1.99152 0
M  V30 1835 H 192.747 3.24205 -2.35991 0
M  V30 1836 H 189.337 2.42213 -3.53597 0
M  V30 1837 H 193.521 2.14346 -4.47626 0
M  V30 1838 H 188.777 1.7927 -5.84527 0
M  V30 1839 H 192.951 1.52373 -6.79526 0
M  V30 1840 H 190.578 1.34292 -7.48244 0
M  V30 1841 N 192.153 1.28127 0.917671 0
M  V30 1842 C 193.378 1.18007 1.70555 0
M  V30 1843 C 193.803 -0.258257 1.86319 0
M  V30 1844 O 193.161 -1.1869 1.37049 0
M  V30 1845 C 193.209 1.87948 3.07746 0
M  V30 1846 O 192.313 1.18427 3.9503 0
M  V30 1847 H 191.654 0.409867 0.522403 0
M  V30 1848 H 194.184 1.69379 1.1477 0
M  V30 1849 H 194.194 1.95701 3.58001 0
M  V30 1850 H 192.869 2.92573 2.95591 0
M  V30 1851 H 191.446 1.18811 3.53466 0
M  V30 1852 N 193.631 -1.12557 1.10312 0
M  V30 1853 C 195.047 -1.36036 0.834649 0
M  V30 1854 C 195.247 -1.93946 -0.546539 0
M  V30 1855 O 194.303 -2.16484 -1.29966 0
M  V30 1856 C 195.616 -2.30312 1.9333 0
M  V30 1857 C 197.164 -2.43906 1.9616 0
M  V30 1858 C 197.639 -3.41496 3.05195 0
M  V30 1859 N 199.13 -3.49053 3.04494 0
M  V30 1860 C 199.865 -4.24471 3.85502 0
M  V30 1861 N 199.361 -5.02966 4.76442 0
M  V30 1862 N 201.154 -4.19864 3.73725 0
M  V30 1863 H 193.305 -0.733246 1.99342 0
M  V30 1864 H 195.568 -0.385234 0.866198 0
M  V30 1865 H 195.274 -1.94933 2.92735 0
M  V30 1866 H 195.148 -3.30421 1.81939 0
M  V30 1867 H 197.535 -2.78567 0.973886 0
M  V30 1868 H 197.616 -1.4369 2.11629 0
M  V30 1869 H 197.26 -3.07565 4.04186 0
M  V30 1870 H 197.19 -4.41539 2.86968 0
M  V30 1871 H 199.681 -2.93053 2.38596 0
M  V30 1872 H 199.994 -5.57846 5.34815 0
M  V30 1873 H 198.339 -5.02167 4.80472 0
M  V30 1874 H 201.53 -3.57623 3.02032 0
M  V30 1875 H 201.703 -4.78386 4.37093 0
M  V30 1876 N 195.109 -0.891671 -1.2995 0
M  V30 1877 C 196.358 -0.509521 -1.95158 0
M  V30 1878 C 196.671 0.947388 -1.71125 0
M  V30 1879 O 197.877 1.43669 -2.30372 0
M  V30 1880 C 196.333 -0.860315 -3.49466 0
M  V30 1881 C 195.941 -2.33545 -3.8231 0
M  V30 1882 C 197.685 -0.547687 -4.20952 0
M  V30 1883 C 195.592 -2.62752 -5.29826 0
M  V30 1884 H 194.522 -0.18682 -0.730489 0
M  V30 1885 H 197.173 -1.08756 -1.47798 0
M  V30 1886 H 195.555 -0.211285 -3.95436 0
M  V30 1887 H 196.729 -3.02936 -3.47227 0
M  V30 1888 H 195.044 -2.61629 -3.23944 0
M  V30 1889 H 197.641 -0.742854 -5.29515 0
M  V30 1890 H 197.984 0.51332 -4.13123 0
M  V30 1891 H 198.517 -1.1542 -3.80688 0
M  V30 1892 H 195.256 -3.6762 -5.42712 0
M  V30 1893 H 194.776 -1.97977 -5.66185 0
M  V30 1894 H 196.455 -2.48601 -5.97333 0
M  V30 1895 N 196.587 1.43421 -0.653314 0
M  V30 1896 C 197.55 2.29182 0.0287951 0
M  V30 1897 C 198.55 1.42213 0.750465 0
M  V30 1898 O 199.74 1.63843 0.591701 0
M  V30 1899 C 196.872 3.24278 1.05151 0
M  V30 1900 H 198.065 2.90985 -0.725786 0
M  V30 1901 H 195.618 1.50702 -0.414545 0
M  V30 1902 H 196.353 2.6737 1.83532 0
M  V30 1903 H 196.138 3.88396 0.537687 0
M  V30 1904 H 197.628 3.88647 1.52786 0
M  V30 1905 N 198.065 0.39524 1.52563 0
M  V30 1906 C 199.481 0.0454682 1.59535 0
M  V30 1907 C 199.681 -1.44056 1.4089 0
M  V30 1908 O 198.737 -2.20579 1.22888 0
M  V30 1909 C 200.05 0.527963 2.96029 0
M  V30 1910 C 201.598 0.484733 3.09224 0
M  V30 1911 C 202.073 0.943512 4.48176 0
M  V30 1912 N 203.564 0.899765 4.54377 0
M  V30 1913 C 204.299 1.22609 5.60138 0
M  V30 1914 N 203.795 1.62319 6.73516 0
M  V30 1915 N 205.588 1.14696 5.50274 0
M  V30 1916 H 197.739 1.36261 1.62931 0
M  V30 1917 H 200.002 0.558887 0.765735 0
M  V30 1918 H 199.708 1.56607 3.14908 0
M  V30 1919 H 199.582 -0.0698056 3.77135 0
M  V30 1920 H 201.969 -0.544298 2.90037 0
M  V30 1921 H 202.05 1.11838 2.30056 0
M  V30 1922 H 201.694 1.9708 4.68104 0
M  V30 1923 H 201.624 0.286817 5.25818 0
M  V30 1924 H 204.115 0.607632 3.72983 0
M  V30 1925 H 204.428 1.85567 7.5019 0
M  V30 1926 H 202.773 1.66211 6.74833 0
M  V30 1927 H 205.964 0.835701 4.6058 0
M  V30 1928 H 206.137 1.40459 6.32594 0
M  V30 1929 N 199.544 -1.57102 0.125237 0
M  V30 1930 C 200.792 -1.95021 -0.530198 0
M  V30 1931 C 201.113 -1.00982 -1.66816 0
M  V30 1932 O 200.383 -0.0672693 -1.95784 0
M  V30 1933 H 198.963 -0.720046 -0.198853 0
M  V30 1934 H 201.625 -1.93916 0.19564 0
M  V30 1935 H 200.721 -2.98211 -0.920681 0
M  V30 1936 N 201.022 0.148545 -1.56898 0
M  V30 1937 C 201.932 1.20293 -2.01412 0
M  V30 1938 C 202.948 1.47107 -0.929273 0
M  V30 1939 O 204.124 1.58807 -1.23863 0
M  V30 1940 C 201.189 2.51682 -2.38447 0
M  V30 1941 C 200.25 2.32529 -3.60872 0
M  V30 1942 C 199.483 3.57653 -3.96132 0
M  V30 1943 O 199.706 4.63771 -3.32073 0
M  V30 1944 O 198.64 3.50408 -4.89385 0
M  V30 1945 H 202.466 0.855025 -2.91416 0
M  V30 1946 H 200.051 0.357151 -1.45068 0
M  V30 1947 H 201.933 3.29147 -2.63135 0
M  V30 1948 H 200.608 2.86006 -1.51599 0
M  V30 1949 H 199.515 1.53019 -3.41373 0
M  V30 1950 H 200.848 2.03121 -4.48333 0
M  V30 1951 N 202.5 1.5196 0.417844 0
M  V30 1952 C 203.916 1.40569 0.755816 0
M  V30 1953 C 204.116 0.503316 1.95113 0
M  V30 1954 O 203.172 -0.0341925 2.52477 0
M  V30 1955 C 204.485 2.82947 1.01791 0
M  V30 1956 C 206.033 2.92231 1.12116 0
M  V30 1957 C 206.508 4.35559 1.41608 0
M  V30 1958 N 207.999 4.38753 1.48491 0
M  V30 1959 C 208.734 5.46705 1.7292 0
M  V30 1960 N 208.23 6.64788 1.95011 0
M  V30 1961 N 210.023 5.34209 1.74863 0
M  V30 1962 H 202.174 2.09168 -0.369098 0
M  V30 1963 H 204.437 0.942409 -0.102809 0
M  V30 1964 H 204.143 3.5106 0.212081 0
M  V30 1965 H 204.017 3.23462 1.94042 0
M  V30 1966 H 206.404 2.24304 1.9176 0
M  V30 1967 H 206.485 2.55185 0.177225 0
M  V30 1968 H 206.129 5.04042 0.624848 0
M  V30 1969 H 206.059 4.70133 2.37239 0
M  V30 1970 H 208.55 3.5363 1.33244 0
M  V30 1971 H 208.863 7.42845 2.13076 0
M  V30 1972 H 207.208 6.67869 1.92293 0
M  V30 1973 H 210.399 4.40937 1.57137 0
M  V30 1974 H 210.572 6.18415 1.93563 0
M  V30 1975 N 203.978 -0.674533 1.42435 0
M  V30 1976 C 205.206 -1.46283 1.46317 0
M  V30 1977 C 205.621 -1.88653 0.0745836 0
M  V30 1978 O 204.978 -1.58151 -0.91074 0
M  V30 1979 C 205.029 -2.71178 2.3905 0
M  V30 1980 O 204.75 -2.30586 3.72507 0
M  V30 1981 C 206.251 -3.64738 2.51955 0
M  V30 1982 H 203.471 -0.450104 0.497642 0
M  V30 1983 H 206.015 -0.828792 1.86953 0
M  V30 1984 H 204.17 -3.3077 2.01667 0
M  V30 1985 H 204.584 -3.11241 4.22172 0
M  V30 1986 H 206.058 -4.49096 3.20962 0
M  V30 1987 H 206.535 -4.10656 1.55752 0
M  V30 1988 H 207.141 -3.11038 2.90061 0
M  V30 1989 N 205.456 -1.28612 -0.910864 0
M  V30 1990 C 206.733 -1.06632 -1.63979 0
M  V30 1991 C 207.113 0.393351 -2.07403 0
M  V30 1992 O 206.461 1.37999 -1.82122 0
M  V30 1993 C 206.671 -2.0436 -2.8291 0
M  V30 1994 C 208.019 -2.34666 -3.5386 0
M  V30 1995 O 209.043 -2.02467 -2.93062 0
M  V30 1996 O 207.902 -2.89631 -4.63439 0
M  V30 1997 H 204.996 -0.407737 -0.7195 0
M  V30 1998 H 207.542 -1.39942 -0.959914 0
M  V30 1999 H 206.314 -3.02727 -2.47936 0
M  V30 2000 H 205.937 -1.71714 -3.58609 0
M  V30 2001 N 206.934 1.1197 -1.10907 0
M  V30 2002 C 208.164 1.8713 -0.875553 0
M  V30 2003 C 208.572 1.8016 0.577843 0
M  V30 2004 O 207.915 1.17699 1.41042 0
M  V30 2005 C 207.977 3.37005 -1.2517 0
M  V30 2006 C 207.641 3.67748 -2.71313 0
M  V30 2007 C 208.638 3.65698 -3.69542 0
M  V30 2008 C 206.323 3.96928 -3.07821 0
M  V30 2009 C 208.317 3.92395 -5.023 0
M  V30 2010 C 206.004 4.23284 -4.40765 0
M  V30 2011 C 207.002 4.21005 -5.37814 0
M  V30 2012 O 206.69 4.46704 -6.68364 0
M  V30 2013 H 206.422 0.598786 -0.313737 0
M  V30 2014 H 208.976 1.42568 -1.47863 0
M  V30 2015 H 207.206 3.82146 -0.591741 0
M  V30 2016 H 208.895 3.93519 -0.994877 0
M  V30 2017 H 209.661 3.43211 -3.42682 0
M  V30 2018 H 205.54 3.97841 -2.32902 0
M  V30 2019 H 209.084 3.90531 -5.78041 0
M  V30 2020 H 204.981 4.45246 -4.67361 0
M  V30 2021 H 205.749 4.64299 -6.74069 0
M  V30 2022 N 208.412 0.89855 1.29475 0
M  V30 2023 C 209.658 0.524658 1.95896 0
M  V30 2024 C 209.991 -0.926468 1.70676 0
M  V30 2025 O 209.266 -1.65665 1.01908 0
M  V30 2026 C 209.549 0.81633 3.50725 0
M  V30 2027 C 209.402 2.31907 3.85408 0
M  V30 2028 C 210.721 0.302038 4.39062 0
M  V30 2029 H 207.84 0.19209 0.711527 0
M  V30 2030 H 210.482 1.12502 1.53112 0
M  V30 2031 H 208.632 0.305369 3.87298 0
M  V30 2032 H 210.304 2.89949 3.58786 0
M  V30 2033 H 208.547 2.78027 3.32992 0
M  V30 2034 H 209.218 2.47373 4.93468 0
M  V30 2035 H 211.694 0.739551 4.09475 0
M  V30 2036 H 210.57 0.535331 5.46283 0
M  V30 2037 H 210.831 -0.797216 4.34853 0
M  V30 2038 N 209.89 -1.43072 0.660911 0
M  V30 2039 C 210.8 -2.34585 -0.0264163 0
M  V30 2040 C 211.816 -1.54316 -0.803898 0
M  V30 2041 O 212.992 -1.86939 -0.749391 0
M  V30 2042 C 210.057 -3.32689 -0.975639 0
M  V30 2043 C 209.118 -4.2886 -0.194236 0
M  V30 2044 C 208.351 -5.22278 -1.09825 0
M  V30 2045 O 208.574 -5.20299 -2.33763 0
M  V30 2046 O 207.508 -5.99228 -0.566513 0
M  V30 2047 H 211.334 -2.94869 0.727034 0
M  V30 2048 H 208.919 -1.43342 0.42111 0
M  V30 2049 H 210.801 -3.92995 -1.52094 0
M  V30 2050 H 209.476 -2.74898 -1.70918 0
M  V30 2051 H 208.383 -3.72011 0.394835 0
M  V30 2052 H 209.716 -4.89655 0.499899 0
M  V30 2053 N 211.368 -0.403325 -1.52352 0
M  V30 2054 C 212.614 0.174605 -2.02047 0
M  V30 2055 C 212.947 1.45282 -1.28867 0
M  V30 2056 O 212.222 1.90483 -0.393257 0
M  V30 2057 C 212.505 0.428238 -3.57545 0
M  V30 2058 C 212.358 -0.866248 -4.4138 0
M  V30 2059 C 213.677 1.21287 -4.23057 0
M  V30 2060 H 210.796 0.0619851 -0.734389 0
M  V30 2061 H 213.438 -0.53565 -1.82293 0
M  V30 2062 H 211.588 1.03327 -3.74507 0
M  V30 2063 H 213.26 -1.50265 -4.3614 0
M  V30 2064 H 211.503 -1.47851 -4.07827 0
M  V30 2065 H 212.174 -0.643249 -5.48239 0
M  V30 2066 H 214.65 0.700703 -4.10158 0
M  V30 2067 H 213.526 1.35909 -5.31808 0
M  V30 2068 H 213.787 2.23193 -3.81625 0
M  V30 2069 N 212.846 1.57033 -0.133567 0
M  V30 2070 C 214.093 1.95686 0.520877 0
M  V30 2071 C 214.421 1.0177 1.6575 0
M  V30 2072 O 213.676 0.0443195 1.9565 0
M  V30 2073 C 213.975 3.40674 1.08057 0
M  V30 2074 C 213.641 4.50855 0.0637899 0
M  V30 2075 C 212.303 4.80716 -0.215757 0
M  V30 2076 C 214.655 5.17398 -0.62835 0
M  V30 2077 C 211.983 5.74433 -1.19348 0
M  V30 2078 C 214.335 6.12167 -1.5948 0
M  V30 2079 C 212.999 6.40414 -1.88218 0
M  V30 2080 H 212.269 0.716067 0.190602 0
M  V30 2081 H 214.916 1.9026 -0.217556 0
M  V30 2082 H 213.221 3.42865 1.89606 0
M  V30 2083 H 214.918 3.67902 1.59529 0
M  V30 2084 H 211.508 4.27605 0.291855 0
M  V30 2085 H 215.692 4.94472 -0.425562 0
M  V30 2086 H 210.948 5.94616 -1.42272 0
M  V30 2087 H 215.122 6.6281 -2.13671 0
M  V30 2088 H 212.749 7.12838 -2.64133 0
M  V30 2089 N 214.325 -0.140222 1.56975 0
M  V30 2090 C 215.602 -0.880769 1.74648 0
M  V30 2091 C 215.982 -1.99036 0.703404 0
M  V30 2092 O 215.33 -2.26821 -0.27648 0
M  V30 2093 C 215.54 -1.417 3.18939 0
M  V30 2094 C 216.888 -1.87774 3.80823 0
M  V30 2095 O 217.912 -1.51427 3.2241 0
M  V30 2096 O 216.771 -2.54827 4.83452 0
M  V30 2097 H 213.865 -0.416713 0.714338 0
M  V30 2098 H 216.411 -0.125618 1.69234 0
M  V30 2099 H 215.183 -0.619902 3.86359 0
M  V30 2100 H 214.806 -2.23546 3.28805 0
M  V30 2101 N 215.803 -1.52179 -0.40978 0
M  V30 2102 C 217.214 -1.58377 -0.988615 0
M  V30 2103 C 217.565 -0.423879 -1.91566 0
M  V30 2104 O 216.69 0.455844 -2.11544 0
M  V30 2105 C 217.285 -2.87044 -1.79976 0
M  V30 2106 C 215.844 -2.95722 -2.32863 0
M  V30 2107 C 214.991 -2.53309 -1.12828 0
M  V30 2108 H 217.942 -1.57558 -0.190039 0
M  V30 2109 H 217.963 -2.7236 -2.65707 0
M  V30 2110 H 217.475 -3.71444 -1.12478 0
M  V30 2111 H 215.576 -2.15814 -3.03735 0
M  V30 2112 H 215.689 -3.99951 -2.63773 0
M  V30 2113 H 214.053 -2.07142 -1.48204 0
M  V30 2114 H 214.836 -3.40082 -0.46897 0
M  V30 2115 N 217.281 0.66697 -1.42791 0
M  V30 2116 C 218.527 1.4291 -1.43891 0
M  V30 2117 C 218.86 1.94114 -0.0578972 0
M  V30 2118 O 218.135 1.71414 0.91911 0
M  V30 2119 C 218.418 2.62049 -2.46987 0
M  V30 2120 C 218.271 2.16426 -3.94309 0
M  V30 2121 C 219.59 3.64266 -2.46978 0
M  V30 2122 H 216.709 0.518306 -0.523954 0
M  V30 2123 H 219.351 0.757321 -1.74255 0
M  V30 2124 H 217.501 3.19361 -2.21225 0
M  V30 2125 H 219.173 1.64221 -4.31079 0
M  V30 2126 H 217.416 1.47925 -4.078 0
M  V30 2127 H 218.087 3.02038 -4.62036 0
M  V30 2128 H 220.563 3.16686 -2.69906 0
M  V30 2129 H 219.439 4.45196 -3.21079 0
M  V30 2130 H 219.7 4.15927 -1.49857 0
M  V30 2131 N 218.759 1.29093 0.90403 0
M  V30 2132 C 219.987 1.19689 1.68766 0
M  V30 2133 C 220.402 -0.243113 1.87228 0
M  V30 2134 O 219.759 -1.16326 1.40621 0
M  V30 2135 C 219.81 1.90144 3.07453 0
M  V30 2136 O 219.531 3.2852 2.89838 0
M  V30 2137 C 221.032 1.87162 4.01852 0
M  V30 2138 H 218.252 0.415035 0.527244 0
M  V30 2139 H 220.796 1.7039 1.13082 0
M  V30 2140 H 218.951 1.43289 3.59926 0
M  V30 2141 H 219.365 3.63944 3.77684 0
M  V30 2142 H 220.839 2.41032 4.96596 0
M  V30 2143 H 221.316 0.84617 4.30972 0
M  V30 2144 H 221.922 2.33741 3.5531 0
M  V30 2145 N 220.237 -1.11381 1.11499 0
M  V30 2146 C 221.167 -2.19509 0.796125 0
M  V30 2147 C 222.148 -1.68458 -0.235796 0
M  V30 2148 O 223.333 -1.93947 -0.0991344 0
M  V30 2149 C 220.463 -3.46475 0.239205 0
M  V30 2150 C 219.417 -4.10744 1.20307 0
M  V30 2151 C 218.743 -5.32293 0.50683 0
M  V30 2152 C 220.043 -4.55597 2.55399 0
M  V30 2153 H 221.737 -2.46439 1.70024 0
M  V30 2154 H 219.283 -1.18446 0.818935 0
M  V30 2155 H 221.236 -4.214 0.00392006 0
M  V30 2156 H 219.96 -3.19006 -0.700206 0
M  V30 2157 H 218.619 -3.37813 1.42399 0
M  V30 2158 H 218.267 -5.01095 -0.437408 0
M  V30 2159 H 217.967 -5.76243 1.1497 0
M  V30 2160 H 219.491 -6.09956 0.280351 0
M  V30 2161 H 220.905 -5.21841 2.37391 0
M  V30 2162 H 219.302 -5.10363 3.15673 0
M  V30 2163 H 220.372 -3.69013 3.14575 0
M  V30 2164 N 221.715 -0.905404 -1.28997 0
M  V30 2165 C 222.645 -0.404212 -2.29975 0
M  V30 2166 C 223.626 0.523784 -1.61835 0
M  V30 2167 O 224.811 0.433298 -1.89304 0
M  V30 2168 C 221.941 0.364042 -3.45387 0
M  V30 2169 C 220.895 -0.474048 -4.25367 0
M  V30 2170 C 220.221 0.422045 -5.33032 0
M  V30 2171 C 221.521 -1.72696 -4.92923 0
M  V30 2172 H 223.215 -1.24807 -2.72146 0
M  V30 2173 H 220.761 -0.601585 -1.30832 0
M  V30 2174 H 222.714 0.725447 -4.15109 0
M  V30 2175 H 221.438 1.24174 -3.02074 0
M  V30 2176 H 220.097 -0.81786 -3.57361 0
M  V30 2177 H 219.745 1.29804 -4.85963 0
M  V30 2178 H 219.445 -0.135057 -5.87445 0
M  V30 2179 H 220.969 0.779517 -6.05604 0
M  V30 2180 H 222.383 -1.43495 -5.55051 0
M  V30 2181 H 220.78 -2.22582 -5.57295 0
M  V30 2182 H 221.85 -2.45964 -4.17887 0
M  V30 2183 N 223.193 1.4272 -0.668489 0
M  V30 2184 C 224.604 1.84793 -0.266151 0
M  V30 2185 C 224.955 1.55959 1.19043 0
M  V30 2186 O 224.08 1.01622 1.91055 0
M  V30 2187 C 224.675 3.35436 -0.476271 0
M  V30 2188 C 223.234 3.76182 -0.128113 0
M  V30 2189 C 222.381 2.66344 -0.771777 0
M  V30 2190 H 225.332 1.32656 -0.871098 0
M  V30 2191 H 225.353 3.79515 0.273561 0
M  V30 2192 H 224.865 3.5639 -1.53647 0
M  V30 2193 H 222.966 3.60836 0.928891 0
M  V30 2194 H 223.079 4.75766 -0.564231 0
M  V30 2195 H 221.443 2.53885 -0.203652 0
M  V30 2196 H 222.226 2.90123 -1.83531 0
M  V30 2197 N 224.671 0.411399 1.52136 0
M  V30 2198 C 225.899 -0.163076 2.06256 0
M  V30 2199 C 226.314 -1.3867 1.28125 0
M  V30 2200 O 225.671 -1.79423 0.333721 0
M  V30 2201 C 225.722 -0.511252 3.57867 0
M  V30 2202 O 225.443 0.66378 4.33042 0
M  V30 2203 C 226.944 -1.13921 4.28412 0
M  V30 2204 H 224.164 -0.0193897 0.67072 0
M  V30 2205 H 226.708 0.583007 1.96013 0
M  V30 2206 H 224.863 -1.20723 3.6811 0
M  V30 2207 H 225.277 0.372601 5.23175 0
M  V30 2208 H 226.751 -1.33302 5.35663 0
M  V30 2209 H 227.228 -2.11296 3.85033 0
M  V30 2210 H 227.834 -0.483373 4.22544 0
M  V30 2211 N 226.149 -1.5696 0.141893 0
M  V30 2212 C 227.112 -2.15316 -0.785587 0
M  V30 2213 C 228.112 -1.09366 -1.1788 0
M  V30 2214 O 229.302 -1.35031 -1.10056 0
M  V30 2215 C 226.434 -2.71211 -2.06537 0
M  V30 2216 H 227.627 -2.98608 -0.278041 0
M  V30 2217 H 225.18 -1.5593 -0.107519 0
M  V30 2218 H 225.915 -1.91571 -2.6167 0
M  V30 2219 H 225.7 -3.4872 -1.79268 0
M  V30 2220 H 227.19 -3.16189 -2.72789 0
M  V30 2221 N 227.627 0.131896 -1.57047 0
M  V30 2222 C 228.904 0.871495 -1.75112 0
M  V30 2223 C 229.284 1.9866 -0.713949 0
M  V30 2224 O 228.632 2.26965 0.264447 0
M  V30 2225 C 228.842 1.40007 -3.19686 0
M  V30 2226 C 230.19 1.85752 -3.81813 0
M  V30 2227 O 231.214 1.49715 -3.23209 0
M  V30 2228 O 230.073 2.5226 -4.84796 0
M  V30 2229 H 227.167 0.412919 -0.716538 0
M  V30 2230 H 229.713 0.116641 -1.69299 0
M  V30 2231 H 228.485 0.599404 -3.86682 0
M  V30 2232 H 228.108 2.218 -3.29986 0
M  V30 2233 N 229.106 1.52395 0.401703 0
M  V30 2234 C 230.355 1.66044 1.14509 0
M  V30 2235 C 230.668 0.400216 1.91462 0
M  V30 2236 O 231.874 0.416632 2.68284 0
M  V30 2237 C 230.33 2.93388 2.0845 0
M  V30 2238 C 229.938 4.26545 1.36978 0
M  V30 2239 C 231.682 3.16402 2.83001 0
M  V30 2240 C 229.589 5.45007 2.29611 0
M  V30 2241 H 228.519 0.618562 0.431158 0
M  V30 2242 H 231.17 1.78886 0.40892 0
M  V30 2243 H 229.552 2.74263 2.8565 0
M  V30 2244 H 230.726 4.56179 0.650916 0
M  V30 2245 H 229.041 4.09692 0.74438 0
M  V30 2246 H 231.638 4.02085 3.52465 0
M  V30 2247 H 231.981 2.30943 3.46368 0
M  V30 2248 H 232.514 3.36034 2.12898 0
M  V30 2249 H 229.253 6.32835 1.70879 0
M  V30 2250 H 228.773 5.19702 2.9945 0
M  V30 2251 H 230.452 5.7838 2.89974 0
M  V30 2252 N 230.584 -0.659388 1.43143 0
M  V30 2253 C 231.494 -1.80167 1.50256 0
M  V30 2254 C 232.51 -1.69571 0.390106 0
M  V30 2255 O 233.686 -1.90849 0.643319 0
M  V30 2256 C 230.751 -3.16409 1.41725 0
M  V30 2257 C 229.812 -3.38848 2.63591 0
M  V30 2258 C 229.045 -4.68591 2.55458 0
M  V30 2259 O 229.268 -5.47532 1.59891 0
M  V30 2260 O 228.202 -4.92614 3.45854 0
M  V30 2261 H 232.028 -1.77121 2.46702 0
M  V30 2262 H 229.613 -0.817092 1.25076 0
M  V30 2263 H 231.495 -3.9768 1.39387 0
M  V30 2264 H 230.17 -3.20059 0.484118 0
M  V30 2265 H 229.077 -2.57366 2.71502 0
M  V30 2266 H 230.41 -3.4004 3.55856 0
M  V30 2267 N 232.062 -1.29571 -0.897171 0
M  V30 2268 C 232.992 -1.17473 -2.01798 0
M  V30 2269 C 233.973 -0.068323 -1.69963 0
M  V30 2270 O 235.158 -0.248239 -1.92607 0
M  V30 2271 C 232.288 -0.853099 -3.36659 0
M  V30 2272 C 231.242 -1.9161 -3.82713 0
M  V30 2273 C 230.568 -1.44773 -5.14728 0
M  V30 2274 C 231.868 -3.32535 -4.02763 0
M  V30 2275 H 233.562 -2.11237 -2.12177 0
M  V30 2276 H 231.108 -1.01699 -1.01948 0
M  V30 2277 H 233.061 -0.755165 -4.14578 0
M  V30 2278 H 231.785 0.120236 -3.26379 0
M  V30 2279 H 230.444 -2.00346 -3.07013 0
M  V30 2280 H 230.092 -0.462995 -5.00865 0
M  V30 2281 H 229.792 -2.15865 -5.46513 0
M  V30 2282 H 231.316 -1.36334 -5.95185 0
M  V30 2283 H 232.73 -3.26626 -4.71156 0
M  V30 2284 H 231.127 -4.01607 -4.45905 0
M  V30 2285 H 232.197 -3.75326 -3.07016 0
M  V30 2286 N 233.54 1.10788 -1.12088 0
M  V30 2287 C 234.951 1.64181 -0.88891 0
M  V30 2288 C 235.302 1.87508 0.577498 0
M  V30 2289 O 234.427 1.61434 1.44112 0
M  V30 2290 C 235.022 2.98257 -1.60712 0
M  V30 2291 C 233.581 3.4853 -1.42139 0
M  V30 2292 C 232.728 2.23208 -1.6454 0
M  V30 2293 H 235.679 0.943368 -1.27618 0
M  V30 2294 H 235.7 3.65552 -1.05604 0
M  V30 2295 H 235.212 2.81246 -2.67436 0
M  V30 2296 H 233.313 3.70692 -0.376552 0
M  V30 2297 H 233.426 4.26882 -2.17505 0
M  V30 2298 H 231.79 2.31169 -1.06925 0
M  V30 2299 H 232.573 2.08733 -2.72554 0
M  V30 2300 N 235.018 0.912232 1.28515 0
M  V30 2301 C 236.295 0.463597 1.90027 0
M  V30 2302 C 236.675 -1.05753 1.82701 0
M  V30 2303 O 236.023 -1.90492 1.26194 0
M  V30 2304 C 236.233 0.992253 3.34597 0
M  V30 2305 C 237.581 1.04344 4.11579 0
M  V30 2306 O 238.605 0.94079 3.43551 0
M  V30 2307 O 237.464 1.1995 5.33174 0
M  V30 2308 H 234.558 0.146666 0.813891 0
M  V30 2309 H 237.104 1.00292 1.36893 0
M  V30 2310 H 235.876 2.03623 3.34146 0
M  V30 2311 H 235.499 0.433672 3.95228 0
M  V30 2312 N 236.496 -1.42363 0.676048 0
M  V30 2313 C 237.459 -2.29199 0.00766941 0
M  V30 2314 C 238.459 -1.43389 -0.727745 0
M  V30 2315 O 239.649 -1.64764 -0.56556 0
M  V30 2316 C 236.781 -3.2591 -0.999785 0
M  V30 2317 H 237.974 -2.89794 0.771988 0
M  V30 2318 H 235.527 -1.50024 0.438468 0
M  V30 2319 H 236.262 -2.70256 -1.79255 0
M  V30 2320 H 236.047 -3.89202 -0.475829 0
M  V30 2321 H 237.537 -3.91028 -1.46583 0
M  V30 2322 N 237.974 -0.419461 -1.51915 0
M  V30 2323 C 239.385 0.0477853 -1.86639 0
M  V30 2324 C 239.736 1.43531 -1.33766 0
M  V30 2325 O 238.861 2.05401 -0.68113 0
M  V30 2326 C 239.456 0.0934885 -3.38671 0
M  V30 2327 C 238.015 0.505097 -3.72996 0
M  V30 2328 C 237.162 -0.313792 -2.75519 0
M  V30 2329 H 240.113 -0.636088 -1.45395 0
M  V30 2330 H 240.134 0.906667 -3.6954 0
M  V30 2331 H 239.646 -0.916501 -3.77123 0
M  V30 2332 H 237.747 1.52135 -3.40126 0
M  V30 2333 H 237.86 0.242309 -4.78487 0
M  V30 2334 H 236.224 0.225363 -2.53701 0
M  V30 2335 H 237.007 -1.32232 -3.16812 0
M  V30 2336 N 239.452 1.56882 -0.150215 0
M  V30 2337 C 240.868 1.58263 0.20617 0
M  V30 2338 C 241.068 1.16464 1.64434 0
M  V30 2339 O 240.124 0.866422 2.3717 0
M  V30 2340 C 241.437 3.00649 -0.0555025 0
M  V30 2341 C 242.985 3.12999 0.00795388 0
M  V30 2342 C 243.46 4.5744 -0.226429 0
M  V30 2343 N 244.951 4.62875 -0.173469 0
M  V30 2344 C 245.686 5.72454 -0.329288 0
M  V30 2345 N 245.182 6.90669 -0.543005 0
M  V30 2346 N 246.975 5.61467 -0.266666 0
M  V30 2347 H 239.126 1.82345 -1.08922 0
M  V30 2348 H 241.389 0.844149 -0.431413 0
M  V30 2349 H 241.095 3.3563 -1.05096 0
M  V30 2350 H 240.969 3.71337 0.66246 0
M  V30 2351 H 243.356 2.77857 0.993966 0
M  V30 2352 H 243.437 2.4479 -0.742388 0
M  V30 2353 H 243.081 4.93287 -1.20956 0
M  V30 2354 H 243.011 5.2378 0.544274 0
M  V30 2355 H 245.502 3.77898 -0.0130709 0
M  V30 2356 H 245.815 7.70045 -0.651922 0
M  V30 2357 H 244.16 6.92581 -0.579366 0
M  V30 2358 H 247.351 4.67992 -0.100441 0
M  V30 2359 H 247.524 6.46816 -0.391535 0
M  V30 2360 N 240.93 -0.123565 1.57115 0
M  V30 2361 C 242.177 -0.832153 1.84612 0
M  V30 2362 C 242.505 -1.80093 0.734627 0
M  V30 2363 O 241.76 -1.93766 -0.27442 0
M  V30 2364 C 242.059 -1.62016 3.18568 0
M  V30 2365 C 241.725 -0.796084 4.43817 0
M  V30 2366 C 240.387 -0.568816 4.77826 0
M  V30 2367 C 242.739 -0.221364 5.2073 0
M  V30 2368 C 240.067 0.243499 5.86194 0
M  V30 2369 C 242.419 0.578117 6.29953 0
M  V30 2370 C 241.083 0.815744 6.62497 0
M  V30 2371 H 240.353 -0.304507 0.675542 0
M  V30 2372 H 243 -0.0947248 1.91266 0
M  V30 2373 H 241.305 -2.42837 3.0747 0
M  V30 2374 H 243.002 -2.17231 3.37064 0
M  V30 2375 H 239.592 -0.983307 4.17168 0
M  V30 2376 H 243.776 -0.384173 4.94811 0
M  V30 2377 H 239.032 0.436871 6.09837 0
M  V30 2378 H 243.206 1.03046 6.88734 0
M  V30 2379 H 240.833 1.44701 7.46301 0
M  V30 2380 N 242.408 -1.52605 -0.393616 0
M  V30 2381 C 243.338 -1.80022 -1.48709 0
M  V30 2382 C 244.319 -0.651995 -1.57108 0
M  V30 2383 O 245.504 -0.89913 -1.72132 0
M  V30 2384 C 242.634 -1.96492 -2.86371 0
M  V30 2385 C 241.588 -3.12161 -2.92813 0
M  V30 2386 C 240.914 -3.13877 -4.3288 0
M  V30 2387 C 242.214 -4.51322 -2.6288 0
M  V30 2388 H 243.908 -2.71589 -1.26015 0
M  V30 2389 H 241.454 -1.30684 -0.604778 0
M  V30 2390 H 243.407 -2.14255 -3.62867 0
M  V30 2391 H 242.131 -1.01611 -3.10391 0
M  V30 2392 H 240.79 -2.94173 -2.18764 0
M  V30 2393 H 240.438 -2.16687 -4.53933 0
M  V30 2394 H 240.138 -3.91576 -4.38112 0
M  V30 2395 H 241.662 -3.33789 -5.1129 0
M  V30 2396 H 243.076 -4.69435 -3.29096 0
M  V30 2397 H 241.473 -5.31053 -2.79468 0
M  V30 2398 H 242.543 -4.58353 -1.58242 0
M  V30 2399 N 243.887 0.651787 -1.4349 0
M  V30 2400 C 245.133 1.41376 -1.45398 0
M  V30 2401 C 245.466 1.94041 -0.0784823 0
M  V30 2402 O 244.741 1.72379 0.900878 0
M  V30 2403 C 245.024 2.59414 -2.49752 0
M  V30 2404 C 244.877 2.12232 -3.96582 0
M  V30 2405 C 246.196 3.61626 -2.50827 0
M  V30 2406 H 243.315 0.512719 -0.529422 0
M  V30 2407 H 245.957 0.738796 -1.75048 0
M  V30 2408 H 244.107 3.16997 -2.246 0
M  V30 2409 H 245.779 1.59639 -4.32797 0
M  V30 2410 H 244.022 1.43592 -4.09346 0
M  V30 2411 H 244.693 2.9712 -4.65214 0
M  V30 2412 H 247.169 3.13805 -2.7325 0
M  V30 2413 H 246.045 4.41766 -3.25783 0
M  V30 2414 H 246.306 4.14314 -1.5426 0
M  V30 2415 N 245.365 1.30045 0.890287 0
M  V30 2416 C 246.613 1.18327 1.63839 0
M  V30 2417 C 246.934 -0.263455 1.93212 0
M  V30 2418 O 246.204 -1.17856 1.56482 0
M  V30 2419 H 244.784 0.434933 0.607324 0
M  V30 2420 H 247.446 1.631 1.06698 0
M  V30 2421 H 246.542 1.74024 2.59079 0
M  V30 2422 N 246.843 -1.10192 1.12674 0
M  V30 2423 C 248.071 -1.85983 0.906527 0
M  V30 2424 C 248.486 -1.80783 -0.544333 0
M  V30 2425 O 247.843 -1.19834 -1.37645 0
M  V30 2426 C 247.894 -3.34281 1.37618 0
M  V30 2427 O 247.615 -3.39401 2.77017 0
M  V30 2428 C 249.116 -4.26938 1.19325 0
M  V30 2429 H 246.336 -0.587716 0.323775 0
M  V30 2430 H 248.88 -1.39284 1.49734 0
M  V30 2431 H 247.035 -3.78436 0.828539 0
M  V30 2432 H 247.449 -4.31838 2.97684 0
M  V30 2433 H 248.923 -5.29181 1.57071 0
M  V30 2434 H 249.4 -4.38995 0.134097 0
M  V30 2435 H 250.006 -3.8859 1.72852 0
M  V30 2436 N 248.321 -0.919034 -1.28029 0
M  V30 2437 C 249.551 -0.570143 -1.98577 0
M  V30 2438 C 249.959 0.854172 -1.68821 0
M  V30 2439 O 249.302 1.57807 -0.940351 0
M  V30 2440 C 249.364 -0.705734 -3.52505 0
M  V30 2441 C 249.028 -2.10057 -4.05863 0
M  V30 2442 C 250.025 -3.07385 -4.19298 0
M  V30 2443 C 247.71 -2.41517 -4.40426 0
M  V30 2444 C 249.704 -4.34287 -4.66555 0
M  V30 2445 C 247.391 -3.68657 -4.87376 0
M  V30 2446 C 248.389 -4.64856 -5.00398 0
M  V30 2447 O 248.077 -5.89735 -5.46322 0
M  V30 2448 H 247.809 -0.215592 -0.6407 0
M  V30 2449 H 250.363 -1.23583 -1.64062 0
M  V30 2450 H 248.593 0.0170414 -3.86696 0
M  V30 2451 H 250.282 -0.363172 -4.04272 0
M  V30 2452 H 251.048 -2.84398 -3.92865 0
M  V30 2453 H 246.927 -1.67389 -4.29537 0
M  V30 2454 H 250.471 -5.09377 -4.76635 0
M  V30 2455 H 246.368 -3.91466 -5.13249 0
M  V30 2456 H 247.136 -5.92599 -5.64596 0
M  V30 2457 N 249.799 1.42003 -0.683588 0
M  V30 2458 C 251.21 1.84501 -0.285736 0
M  V30 2459 C 251.561 1.57213 1.17382 0
M  V30 2460 O 250.686 1.03642 1.89966 0
M  V30 2461 C 251.281 3.34912 -0.511821 0
M  V30 2462 C 249.84 3.76025 -0.168005 0
M  V30 2463 C 248.987 2.6551 -0.799983 0
M  V30 2464 H 251.938 1.31724 -0.885119 0
M  V30 2465 H 251.959 3.79784 0.233292 0
M  V30 2466 H 251.471 3.54741 -1.57418 0
M  V30 2467 H 249.572 3.61801 0.890567 0
M  V30 2468 H 249.685 4.75141 -0.614661 0
M  V30 2469 H 248.049 2.53654 -0.230568 0
M  V30 2470 H 248.832 2.8816 -1.86597 0
M  V30 2471 N 251.277 0.427512 1.51691 0
M  V30 2472 C 252.523 -0.134744 2.02953 0
M  V30 2473 C 252.878 -1.41235 1.30654 0
M  V30 2474 O 252.171 -1.87168 0.409713 0
M  V30 2475 C 252.365 -0.418249 3.54944 0
M  V30 2476 C 252.194 0.830327 4.41968 0
M  V30 2477 C 250.964 1.36097 4.86627 0
M  V30 2478 C 253.162 1.7137 4.84909 0
M  V30 2479 N 251.144 2.56311 5.57833 0
M  V30 2480 C 252.515 2.76195 5.55082 0
M  V30 2481 C 254.57 1.72928 4.66905 0
M  V30 2482 C 253.273 3.82512 6.09161 0
M  V30 2483 C 255.299 2.78175 5.21894 0
M  V30 2484 C 254.661 3.8172 5.92004 0
M  V30 2485 H 250.76 -0.0103958 0.781931 0
M  V30 2486 H 253.344 0.585981 1.85673 0
M  V30 2487 H 251.515 -1.10801 3.7226 0
M  V30 2488 H 253.247 -0.970999 3.92879 0
M  V30 2489 H 250.002 0.916311 4.64651 0
M  V30 2490 H 250.426 3.17242 5.98069 0
M  V30 2491 H 255.068 0.942081 4.12171 0
M  V30 2492 H 252.786 4.62077 6.62956 0
M  V30 2493 H 256.372 2.8031 5.09821 0
M  V30 2494 H 255.252 4.61821 6.33791 0
M  V30 2495 N 252.755 -1.56801 0.158532 0
M  V30 2496 C 253.688 -2.13148 -0.815065 0
M  V30 2497 C 254.666 -1.0581 -1.23462 0
M  V30 2498 O 255.85 -1.3371 -1.32868 0
M  V30 2499 C 252.977 -2.6606 -2.09594 0
M  V30 2500 C 252.023 -3.85651 -1.82141 0
M  V30 2501 S 252.856 -5.26041 -1.00207 0
M  V30 2502 C 254.012 -5.8235 -2.29389 0
M  V30 2503 H 254.245 -2.95396 -0.335937 0
M  V30 2504 H 251.778 -1.54299 -0.0559391 0
M  V30 2505 H 253.736 -2.97195 -2.8317 0
M  V30 2506 H 252.397 -1.83921 -2.54621 0
M  V30 2507 H 251.59 -4.20958 -2.77147 0
M  V30 2508 H 251.192 -3.55338 -1.16667 0
M  V30 2509 H 253.484 -5.94485 -3.24952 0
M  V30 2510 H 254.427 -6.79688 -1.9857 0
M  V30 2511 H 254.835 -5.10675 -2.40564 0
M  V30 2512 N 254.233 0.115231 -1.57178 0
M  V30 2513 C 255.461 0.836437 -1.89239 0
M  V30 2514 C 255.876 1.73256 -0.750175 0
M  V30 2515 O 255.233 1.80357 0.278832 0
M  V30 2516 C 255.284 1.66671 -3.20785 0
M  V30 2517 O 255.005 0.806652 -4.3061 0
M  V30 2518 C 256.506 2.49274 -3.66575 0
M  V30 2519 H 253.726 0.240253 -0.626514 0
M  V30 2520 H 256.27 0.0984932 -2.04263 0
M  V30 2521 H 254.425 2.35737 -3.0742 0
M  V30 2522 H 254.839 1.37969 -5.06028 0
M  V30 2523 H 256.313 3.03055 -4.6137 0
M  V30 2524 H 256.79 3.26807 -2.93417 0
M  V30 2525 H 257.396 1.85443 -3.82741 0
M  V30 2526 N 255.711 1.52812 0.385517 0
M  V30 2527 C 256.936 1.72207 1.15583 0
M  V30 2528 C 257.361 0.441034 1.82857 0
M  V30 2529 O 256.719 -0.603465 1.70962 0
M  V30 2530 C 256.767 2.87476 2.17692 0
M  V30 2531 O 255.871 2.54693 3.24354 0
M  V30 2532 H 255.212 0.572526 0.336319 0
M  V30 2533 H 257.742 1.99618 0.448744 0
M  V30 2534 H 257.752 3.13072 2.6163 0
M  V30 2535 H 256.427 3.80408 1.68115 0
M  V30 2536 H 255.004 2.3985 2.85529 0
M  V30 2537 N 257.189 -0.644168 1.43834 0
M  V30 2538 C 258.119 -1.76814 1.52509 0
M  V30 2539 C 259.1 -1.65823 0.379052 0
M  V30 2540 O 260.285 -1.84781 0.597466 0
M  V30 2541 C 257.415 -3.15288 1.4564 0
M  V30 2542 C 256.369 -3.41053 2.58586 0
M  V30 2543 C 255.695 -4.79421 2.36769 0
M  V30 2544 C 256.995 -3.34902 4.00797 0
M  V30 2545 H 258.689 -1.69812 2.46586 0
M  V30 2546 H 256.235 -0.815542 1.1868 0
M  V30 2547 H 258.188 -3.93681 1.50311 0
M  V30 2548 H 256.912 -3.23043 0.480725 0
M  V30 2549 H 255.571 -2.65035 2.53282 0
M  V30 2550 H 255.219 -4.83863 1.37424 0
M  V30 2551 H 254.919 -4.9762 3.12487 0
M  V30 2552 H 256.443 -5.6006 2.43238 0
M  V30 2553 H 257.857 -4.03218 4.07539 0
M  V30 2554 H 256.254 -3.64637 4.76613 0
M  V30 2555 H 257.324 -2.32928 4.25291 0
M  V30 2556 N 258.668 -1.30515 -0.883378 0
M  V30 2557 C 259.896 -1.22359 -1.66841 0
M  V30 2558 C 260.311 0.213296 -1.87591 0
M  V30 2559 O 259.668 1.14075 -1.42454 0
M  V30 2560 C 259.719 -1.95011 -3.04389 0
M  V30 2561 O 259.44 -3.3309 -2.84575 0
M  V30 2562 C 260.941 -1.93532 -3.98824 0
M  V30 2563 H 258.161 -0.423371 -0.520575 0
M  V30 2564 H 260.705 -1.72167 -1.10357 0
M  V30 2565 H 258.86 -1.48997 -3.57601 0
M  V30 2566 H 259.274 -3.69907 -3.71846 0
M  V30 2567 H 260.748 -2.48902 -4.92699 0
M  V30 2568 H 261.225 -0.914627 -4.29571 0
M  V30 2569 H 261.831 -2.39364 -3.51547 0
M  V30 2570 N 260.146 1.09593 -1.13257 0
M  V30 2571 C 261.557 1.63229 -0.906274 0
M  V30 2572 C 261.908 1.8811 0.557578 0
M  V30 2573 O 261.033 1.62953 1.42391 0
M  V30 2574 C 261.628 2.96535 -1.63867 0
M  V30 2575 C 260.187 3.47003 -1.45828 0
M  V30 2576 C 259.334 2.2145 -1.66898 0
M  V30 2577 H 262.285 0.92978 -1.28611 0
M  V30 2578 H 262.306 3.64411 -1.09476 0
M  V30 2579 H 261.818 2.78394 -2.70404 0
M  V30 2580 H 259.919 3.70272 -0.415848 0
M  V30 2581 H 260.032 4.24551 -2.2202 0
M  V30 2582 H 258.396 2.30022 -1.09371 0
M  V30 2583 H 259.179 2.0583 -2.74752 0
M  V30 2584 N 261.624 0.925811 1.2754 0
M  V30 2585 C 262.901 0.483726 1.89524 0
M  V30 2586 C 263.281 -1.03809 1.83812 0
M  V30 2587 O 262.629 -1.89143 1.28207 0
M  V30 2588 C 262.839 1.02769 3.33526 0
M  V30 2589 C 264.187 1.08703 4.10449 0
M  V30 2590 O 265.211 0.977175 3.42534 0
M  V30 2591 O 264.07 1.25599 5.31871 0
M  V30 2592 H 261.164 0.15529 0.812289 0
M  V30 2593 H 263.71 1.01738 1.35822 0
M  V30 2594 H 262.482 2.07155 3.31967 0
M  V30 2595 H 262.105 0.475567 3.94746 0
M  V30 2596 N 263.102 -1.41638 0.69111 0
M  V30 2597 C 264.35 -2.00902 0.219758 0
M  V30 2598 C 264.671 -1.54994 -1.18329 0
M  V30 2599 O 263.941 -0.778628 -1.79762 0
M  V30 2600 H 262.521 -0.74289 0.0782558 0
M  V30 2601 H 265.183 -1.73327 0.891271 0
M  V30 2602 H 264.279 -3.11224 0.233708 0
M  V30 2603 N 264.58 -0.43555 -1.51462 0
M  V30 2604 C 265.527 0.376797 -2.27703 0
M  V30 2605 C 266.497 1.01838 -1.31219 0
M  V30 2606 O 267.682 1.03762 -1.60119 0
M  V30 2607 C 264.822 1.47301 -3.12084 0
M  V30 2608 C 263.935 0.849744 -4.2356 0
M  V30 2609 C 263.07 1.92086 -4.95254 0
M  V30 2610 C 262.109 1.27593 -5.98654 0
M  V30 2611 N 261.246 2.28833 -6.63762 0
M  V30 2612 H 266.086 -0.279734 -2.96684 0
M  V30 2613 H 263.623 -0.149795 -1.46335 0
M  V30 2614 H 265.581 2.11984 -3.59331 0
M  V30 2615 H 264.211 2.0992 -2.45221 0
M  V30 2616 H 263.263 0.0912529 -3.80291 0
M  V30 2617 H 264.575 0.338878 -4.97648 0
M  V30 2618 H 263.729 2.64435 -5.46039 0
M  V30 2619 H 262.468 2.46545 -4.20793 0
M  V30 2620 H 261.473 0.537893 -5.47162 0
M  V30 2621 H 262.698 0.738693 -6.7507 0
M  V30 2622 H 260.644 2.82375 -5.92115 0
M  V30 2623 H 260.561 1.82632 -7.33608 0
M  V30 2624 H 261.829 3.00671 -7.19178 0
M  V30 2625 N 266.058 1.56714 -0.166846 0
M  V30 2626 C 267.286 2.0112 0.485644 0
M  V30 2627 C 267.701 1.04705 1.57106 0
M  V30 2628 O 267.058 0.0471923 1.82439 0
M  V30 2629 C 267.109 3.45361 1.06808 0
M  V30 2630 O 266.83 4.38092 0.0259995 0
M  V30 2631 C 268.331 4.05145 1.79924 0
M  V30 2632 H 265.551 0.65931 0.124704 0
M  V30 2633 H 268.095 2.02746 -0.267262 0
M  V30 2634 H 266.25 3.44524 1.7715 0
M  V30 2635 H 266.664 5.22519 0.455398 0
M  V30 2636 H 268.138 5.08009 2.15942 0
M  V30 2637 H 268.615 3.46982 2.69258 0
M  V30 2638 H 269.221 4.09672 1.14234 0
M  V30 2639 N 267.536 -0.106894 1.57237 0
M  V30 2640 C 268.466 -1.13148 2.04254 0
M  V30 2641 C 269.447 -1.42476 0.929224 0
M  V30 2642 O 270.632 -1.52709 1.19973 0
M  V30 2643 C 267.762 -2.4545 2.45706 0
M  V30 2644 C 266.716 -2.30558 3.60592 0
M  V30 2645 C 266.042 -3.67931 3.87983 0
M  V30 2646 C 267.342 -1.75597 4.91897 0
M  V30 2647 H 269.036 -0.740374 2.90101 0
M  V30 2648 H 266.582 -0.354696 1.39563 0
M  V30 2649 H 268.535 -3.17389 2.77205 0
M  V30 2650 H 267.259 -2.86475 1.56843 0
M  V30 2651 H 265.918 -1.61067 3.29322 0
M  V30 2652 H 265.566 -4.06462 2.96306 0
M  V30 2653 H 265.266 -3.58817 4.65322 0
M  V30 2654 H 266.79 -4.41356 4.21945 0
M  V30 2655 H 268.204 -2.37364 5.21854 0
M  V30 2656 H 266.601 -1.77272 5.73319 0
M  V30 2657 H 267.671 -0.714451 4.79608 0
M  V30 2658 N 269.014 -1.53014 -0.377408 0
M  V30 2659 C 269.944 -1.81589 -1.46791 0
M  V30 2660 C 270.925 -0.668622 -1.56408 0
M  V30 2661 O 272.11 -0.917337 -1.71168 0
M  V30 2662 C 269.24 -1.99519 -2.8427 0
M  V30 2663 C 268.194 -3.15249 -2.89486 0
M  V30 2664 C 267.52 -3.18451 -4.29527 0
M  V30 2665 C 268.82 -4.54084 -2.58079 0
M  V30 2666 H 270.514 -2.7291 -1.23127 0
M  V30 2667 H 268.06 -1.31319 -0.590883 0
M  V30 2668 H 270.013 -2.18092 -3.60575 0
M  V30 2669 H 268.737 -1.04897 -3.09296 0
M  V30 2670 H 267.396 -2.96477 -2.15631 0
M  V30 2671 H 267.044 -2.2149 -4.5161 0
M  V30 2672 H 266.744 -3.962 -4.33934 0
M  V30 2673 H 268.268 -3.39193 -5.07721 0
M  V30 2674 H 269.682 -4.72899 -3.24098 0
M  V30 2675 H 268.079 -5.33987 -2.7382 0
M  V30 2676 H 269.149 -4.60006 -1.53372 0
M  V30 2677 N 270.492 0.636531 -1.44174 0
M  V30 2678 C 271.739 1.39619 -1.46672 0
M  V30 2679 C 272.067 1.94257 -0.0972691 0
M  V30 2680 O 271.322 1.73768 0.900175 0
M  V30 2681 C 271.621 2.58309 -2.47005 0
M  V30 2682 C 271.287 2.21992 -3.92467 0
M  V30 2683 C 269.949 2.118 -4.32081 0
M  V30 2684 C 272.301 1.9321 -4.84065 0
M  V30 2685 C 269.629 1.71007 -5.61225 0
M  V30 2686 C 271.981 1.53911 -6.13591 0
M  V30 2687 C 270.645 1.42257 -6.52165 0
M  V30 2688 H 269.915 0.510902 -0.536712 0
M  V30 2689 H 272.562 0.722328 -1.77355 0
M  V30 2690 H 270.867 3.30903 -2.09786 0
M  V30 2691 H 272.564 3.16533 -2.46186 0
M  V30 2692 H 269.154 2.30841 -3.61124 0
M  V30 2693 H 273.338 1.99997 -4.54219 0
M  V30 2694 H 268.594 1.60583 -5.89935 0
M  V30 2695 H 272.768 1.30677 -6.8403 0
M  V30 2696 H 270.395 1.10419 -7.52138 0
M  V30 2697 N 271.97 1.30982 0.876444 0
M  V30 2698 C 273.2 1.23063 1.65949 0
M  V30 2699 C 273.608 -0.207537 1.88058 0
M  V30 2700 O 272.951 -1.14781 1.43426 0
M  V30 2701 C 273.013 1.89768 3.05333 0
M  V30 2702 C 272.677 3.39106 3.0636 0
M  V30 2703 C 273.674 4.3496 2.84791 0
M  V30 2704 C 271.359 3.80693 3.27686 0
M  V30 2705 C 273.353 5.70375 2.84519 0
M  V30 2706 C 271.04 5.16223 3.27043 0
M  V30 2707 C 272.038 6.10875 3.05485 0
M  V30 2708 O 271.726 7.43928 3.04674 0
M  V30 2709 H 271.458 0.426685 0.524324 0
M  V30 2710 H 274.012 1.7329 1.10271 0
M  V30 2711 H 272.242 1.34082 3.6271 0
M  V30 2712 H 273.931 1.75853 3.65829 0
M  V30 2713 H 274.697 4.0416 2.68103 0
M  V30 2714 H 270.576 3.07457 3.43499 0
M  V30 2715 H 274.12 6.44228 2.67611 0
M  V30 2716 H 270.017 5.4666 3.43269 0
M  V30 2717 H 270.785 7.53022 3.2078 0
M  V30 2718 N 273.449 -1.08991 1.13837 0
M  V30 2719 C 274.381 -2.15606 0.777612 0
M  V30 2720 C 275.394 -1.61533 -0.202739 0
M  V30 2721 O 276.583 -1.78491 0.0181055 0
M  V30 2722 C 273.683 -3.3864 0.132623 0
M  V30 2723 C 272.856 -4.22115 1.1462 0
M  V30 2724 C 271.915 -5.23564 0.526074 0
M  V30 2725 O 270.941 -5.56678 1.18735 0
M  V30 2726 N 272.143 -5.76266 -0.699866 0
M  V30 2727 H 274.908 -2.47159 1.69506 0
M  V30 2728 H 272.469 -1.24747 1.03198 0
M  V30 2729 H 274.461 -4.03626 -0.29459 0
M  V30 2730 H 273.031 -3.04938 -0.687849 0
M  V30 2731 H 272.251 -3.53199 1.75055 0
M  V30 2732 H 273.539 -4.74709 1.83109 0
M  V30 2733 H 272.937 -5.51585 -1.25581 0
M  V30 2734 H 271.494 -6.42963 -1.06968 0
M  V30 2735 N 274.927 -0.932562 -1.27047 0
M  V30 2736 C 276.174 -0.575559 -1.94148 0
M  V30 2737 C 276.502 0.883984 -1.73251 0
M  V30 2738 O 275.757 1.64655 -1.0577 0
M  V30 2739 C 276.056 -0.853713 -3.47054 0
M  V30 2740 C 275.722 -2.29577 -3.88079 0
M  V30 2741 C 274.384 -2.68999 -3.9899 0
M  V30 2742 C 276.736 -3.23331 -4.08787 0
M  V30 2743 C 274.064 -4.01289 -4.28 0
M  V30 2744 C 276.416 -4.55207 -4.39282 0
M  V30 2745 C 275.08 -4.94457 -4.48407 0
M  V30 2746 H 274.35 -0.210612 -0.710439 0
M  V30 2747 H 276.997 -1.17744 -1.51025 0
M  V30 2748 H 275.302 -0.169204 -3.91434 0
M  V30 2749 H 276.999 -0.55639 -3.97121 0
M  V30 2750 H 273.589 -1.97994 -3.80127 0
M  V30 2751 H 277.773 -2.94074 -3.99793 0
M  V30 2752 H 273.029 -4.31374 -4.33275 0
M  V30 2753 H 277.203 -5.27852 -4.54252 0
M  V30 2754 H 274.83 -5.96994 -4.7064 0
M  V30 2755 N 276.405 1.4127 -0.698611 0
M  V30 2756 C 277.63 2.06024 -0.238512 0
M  V30 2757 C 278.055 1.5224 1.10475 0
M  V30 2758 O 277.413 0.650623 1.69223 0
M  V30 2759 C 277.461 3.59988 -0.209952 0
M  V30 2760 O 276.565 4.04282 0.814235 0
M  V30 2761 H 275.906 0.653829 -0.115775 0
M  V30 2762 H 278.436 1.8098 -0.954326 0
M  V30 2763 H 278.446 4.07979 -0.0418436 0
M  V30 2764 H 277.121 3.98503 -1.1903 0
M  V30 2765 H 275.698 3.6779 0.615234 0
M  V30 2766 N 277.883 0.443576 1.51229 0
M  V30 2767 C 279.294 -0.0180867 1.86691 0
M  V30 2768 C 279.645 -1.41384 1.36033 0
M  V30 2769 O 278.77 -2.04291 0.713722 0
M  V30 2770 C 279.365 -0.039597 3.38777 0
M  V30 2771 C 277.924 -0.445692 3.73752 0
M  V30 2772 C 277.071 0.357584 2.74985 0
M  V30 2773 H 280.022 0.659138 1.44364 0
M  V30 2774 H 280.043 -0.847761 3.70936 0
M  V30 2775 H 279.555 0.976382 3.75617 0
M  V30 2776 H 277.656 -1.46704 3.42503 0
M  V30 2777 H 277.769 -0.166155 4.78812 0
M  V30 2778 H 276.133 -0.184973 2.54027 0
M  V30 2779 H 276.916 1.37256 3.14668 0
M  V30 2780 N 279.361 -1.56624 0.175154 0
M  V30 2781 C 280.324 -2.16934 -0.739738 0
M  V30 2782 C 281.324 -1.11842 -1.15533 0
M  V30 2783 O 282.514 -1.37335 -1.07167 0
M  V30 2784 C 279.646 -2.75531 -2.00738 0
M  V30 2785 H 280.839 -2.99131 -0.214639 0
M  V30 2786 H 278.392 -1.56123 -0.0744197 0
M  V30 2787 H 279.127 -1.97078 -2.57548 0
M  V30 2788 H 278.912 -3.52444 -1.71831 0
M  V30 2789 H 280.402 -3.21904 -2.66021 0
M  V30 2790 N 280.839 0.0985539 -1.57292 0
M  V30 2791 C 282.25 0.653457 -1.74891 0
M  V30 2792 C 282.601 1.7929 -0.796838 0
M  V30 2793 O 281.726 2.16385 0.0254886 0
M  V30 2794 C 282.321 1.19216 -3.17133 0
M  V30 2795 C 280.88 1.69316 -3.36168 0
M  V30 2796 C 280.027 0.601294 -2.70702 0
M  V30 2797 H 282.978 -0.127497 -1.58187 0
M  V30 2798 H 282.999 2.06154 -3.19814 0
M  V30 2799 H 282.511 0.362635 -3.86402 0
M  V30 2800 H 280.612 2.5468 -2.71972 0
M  V30 2801 H 280.725 1.78853 -4.44464 0
M  V30 2802 H 279.089 1.0399 -2.32504 0
M  V30 2803 H 279.872 -0.217592 -3.4261 0
M  V30 2804 N 282.317 1.53212 0.369288 0
M  V30 2805 C 283.28 1.7872 1.43498 0
M  V30 2806 C 284.28 0.657554 1.46741 0
M  V30 2807 O 285.47 0.925736 1.47566 0
M  V30 2808 C 282.602 1.90591 2.82645 0
M  V30 2809 H 283.795 2.73894 1.22156 0
M  V30 2810 H 281.348 1.44233 0.602203 0
M  V30 2811 H 282.083 0.974709 3.09306 0
M  V30 2812 H 281.868 2.72751 2.8169 0
M  V30 2813 H 283.358 2.11931 3.59826 0
M  V30 2814 N 283.795 -0.628877 1.44509 0
M  V30 2815 C 285.041 -1.39045 1.47629 0
M  V30 2816 C 285.374 -1.93892 0.109343 0
M  V30 2817 O 284.649 -1.7379 -0.87334 0
M  V30 2818 C 284.932 -2.55408 2.53848 0
M  V30 2819 C 284.785 -2.05896 3.99909 0
M  V30 2820 C 286.104 -3.5759 2.56549 0
M  V30 2821 H 283.223 -0.504232 0.537512 0
M  V30 2822 H 285.865 -0.710854 1.76201 0
M  V30 2823 H 284.015 -3.13384 2.29615 0
M  V30 2824 H 285.687 -1.52734 4.35282 0
M  V30 2825 H 283.93 -1.37061 4.11578 0
M  V30 2826 H 284.601 -2.89681 4.69882 0
M  V30 2827 H 287.077 -3.09419 2.78207 0
M  V30 2828 H 285.953 -4.36527 3.32769 0
M  V30 2829 H 286.214 -4.11808 1.60832 0
M  V30 2830 N 285.273 -1.31445 -0.869486 0
M  V30 2831 C 286.521 -1.20918 -1.61936 0
M  V30 2832 C 286.842 0.232683 -1.93607 0
M  V30 2833 O 286.112 1.15352 -1.58338 0
M  V30 2834 H 284.692 -0.44454 -0.600328 0
M  V30 2835 H 287.354 -1.64776 -1.0409 0
M  V30 2836 H 286.45 -1.78124 -2.56278 0
M  V30 2837 N 286.751 1.08385 -1.14413 0
M  V30 2838 C 287.997 1.81044 -0.913834 0
M  V30 2839 C 288.33 1.86004 0.558209 0
M  V30 2840 O 287.605 1.33606 1.4135 0
M  V30 2841 C 287.888 3.26648 -1.51569 0
M  V30 2842 C 287.741 3.29895 -3.0576 0
M  V30 2843 C 289.06 4.23629 -1.19273 0
M  V30 2844 H 286.179 0.65727 -0.333414 0
M  V30 2845 H 288.821 1.26896 -1.41412 0
M  V30 2846 H 286.971 3.72889 -1.09023 0
M  V30 2847 H 288.643 2.91977 -3.57137 0
M  V30 2848 H 286.886 2.69163 -3.40197 0
M  V30 2849 H 287.557 4.32516 -3.42977 0
M  V30 2850 H 290.033 3.85727 -1.56057 0
M  V30 2851 H 288.909 5.23822 -1.64017 0
M  V30 2852 H 289.17 4.41968 -0.108068 0
M  V30 2853 N 288.23 0.939286 1.26551 0
M  V30 2854 C 289.476 0.586715 1.94128 0
M  V30 2855 C 289.809 -0.8717 1.73537 0
M  V30 2856 O 289.084 -1.62339 1.07127 0
M  V30 2857 C 289.367 0.927497 3.4795 0
M  V30 2858 C 289.22 2.44052 3.77834 0
M  V30 2859 C 290.539 0.441569 4.37879 0
M  V30 2860 H 287.658 0.21463 0.705055 0
M  V30 2861 H 290.3 1.17316 1.49455 0
M  V30 2862 H 288.45 0.428431 3.8613 0
M  V30 2863 H 290.122 3.01216 3.4938 0
M  V30 2864 H 288.365 2.8848 3.23978 0
M  V30 2865 H 289.036 2.62947 4.85348 0
M  V30 2866 H 291.512 0.869448 4.06915 0
M  V30 2867 H 290.388 0.708856 5.44304 0
M  V30 2868 H 290.649 -0.658467 4.37169 0
M  V30 2869 N 289.708 -1.40897 0.706093 0
M  V30 2870 C 290.985 -1.94868 0.169099 0
M  V30 2871 C 291.365 -1.64485 -1.32318 0
M  V30 2872 O 290.713 -0.95744 -2.07474 0
M  V30 2873 C 290.923 -3.45798 0.471654 0
M  V30 2874 C 292.271 -4.22663 0.405127 0
M  V30 2875 O 293.295 -3.53865 0.407168 0
M  V30 2876 O 292.154 -5.45216 0.374383 0
M  V30 2877 H 289.248 -0.82673 0.0211352 0
M  V30 2878 H 291.794 -1.50558 0.782976 0
M  V30 2879 H 290.566 -3.61235 1.50416 0
M  V30 2880 H 290.189 -3.97225 -0.172666 0
M  V30 2881 N 291.186 -0.45159 -1.50991 0
M  V30 2882 C 292.116 0.342898 -2.30969 0
M  V30 2883 C 293.097 1.00815 -1.37005 0
M  V30 2884 O 294.282 1.00907 -1.65926 0
M  V30 2885 C 291.412 1.43637 -3.16205 0
M  V30 2886 C 290.366 0.893818 -4.18563 0
M  V30 2887 C 289.692 2.08411 -4.92411 0
M  V30 2888 C 290.992 -0.0815568 -5.22236 0
M  V30 2889 H 292.686 -0.324556 -2.97636 0
M  V30 2890 H 290.232 -0.157531 -1.43136 0
M  V30 2891 H 292.185 1.9995 -3.70942 0
M  V30 2892 H 290.909 2.13232 -2.47386 0
M  V30 2893 H 289.568 0.352798 -3.64898 0
M  V30 2894 H 289.216 2.76658 -4.20082 0
M  V30 2895 H 288.916 1.72741 -5.61636 0
M  V30 2896 H 290.44 2.65251 -5.49976 0
M  V30 2897 H 291.854 0.391742 -5.7196 0
M  V30 2898 H 290.251 -0.351551 -5.99069 0
M  V30 2899 H 291.321 -1.01374 -4.74185 0
M  V30 2900 N 292.664 1.56529 -0.183458 0
M  V30 2901 C 293.574 2.22144 0.754272 0
M  V30 2902 C 294.59 1.21684 1.24374 0
M  V30 2903 O 295.766 1.54385 1.29333 0
M  V30 2904 C 292.831 2.85884 1.96141 0
M  V30 2905 C 291.892 4.01579 1.51765 0
M  V30 2906 C 291.125 4.6227 2.66725 0
M  V30 2907 O 291.348 4.21865 3.83909 0
M  V30 2908 O 290.282 5.51936 2.40104 0
M  V30 2909 H 294.108 3.02861 0.225527 0
M  V30 2910 H 291.693 1.49331 0.0453032 0
M  V30 2911 H 293.575 3.26253 2.66715 0
M  V30 2912 H 292.25 2.08154 2.47899 0
M  V30 2913 H 291.157 3.65856 0.781049 0
M  V30 2914 H 292.49 4.80938 1.04686 0
M  V30 2915 N 294.142 -0.090211 1.57342 0
M  V30 2916 C 295.39 -0.791241 1.85967 0
M  V30 2917 C 295.711 -1.7903 0.772859 0
M  V30 2918 O 294.981 -1.94872 -0.200398 0
M  V30 2919 H 293.561 -0.295205 0.686195 0
M  V30 2920 H 296.223 -0.0706782 1.94772 0
M  V30 2921 H 295.319 -1.31882 2.82867 0
M  V30 2922 N 295.62 -1.53406 -0.361157 0
M  V30 2923 C 296.567 -1.80156 -1.44265 0
M  V30 2924 C 297.537 -0.646183 -1.53015 0
M  V30 2925 O 298.722 -0.888818 -1.68833 0
M  V30 2926 C 295.862 -2.00116 -2.81154 0
M  V30 2927 C 294.975 -3.27833 -2.81335 0
M  V30 2928 C 294.11 -3.37957 -4.09828 0
M  V30 2929 C 293.149 -4.59689 -4.04168 0
M  V30 2930 N 292.286 -4.66942 -5.24318 0
M  V30 2931 H 297.126 -2.72438 -1.20754 0
M  V30 2932 H 294.663 -1.34954 -0.585296 0
M  V30 2933 H 296.621 -2.09677 -3.60682 0
M  V30 2934 H 295.251 -1.11167 -3.03054 0
M  V30 2935 H 294.303 -3.27204 -1.94014 0
M  V30 2936 H 295.615 -4.17442 -2.73027 0
M  V30 2937 H 294.769 -3.46853 -4.97773 0
M  V30 2938 H 293.508 -2.46372 -4.20894 0
M  V30 2939 H 292.513 -4.50889 -3.14609 0
M  V30 2940 H 293.738 -5.5262 -3.947 0
M  V30 2941 H 291.684 -3.7826 -5.35962 0
M  V30 2942 H 291.601 -5.50462 -5.18197 0
M  V30 2943 H 292.869 -4.80127 -6.14084 0
M  V30 2944 N 297.098 0.621204 -1.44841 0
M  V30 2945 C 298.061 1.71459 -1.521 0
M  V30 2946 C 299.061 1.55696 -0.401933 0
M  V30 2947 O 300.251 1.61011 -0.664925 0
M  V30 2948 C 297.383 3.10624 -1.40447 0
M  V30 2949 H 298.576 1.66394 -2.49506 0
M  V30 2950 H 296.129 0.835745 -1.3208 0
M  V30 2951 H 296.864 3.21277 -0.441737 0
M  V30 2952 H 296.649 3.23473 -2.21602 0
M  V30 2953 H 298.139 3.90293 -1.4853 0
M  V30 2954 N 298.576 1.31904 0.862503 0
M  V30 2955 C 299.823 1.22017 1.61611 0
M  V30 2956 C 300.151 -0.21991 1.93253 0
M  V30 2957 O 299.406 -1.17076 1.56817 0
M  V30 2958 C 299.705 2.01713 2.95037 0
M  V30 2959 C 299.371 3.51145 2.82857 0
M  V30 2960 C 298.033 3.91889 2.79243 0
M  V30 2961 C 300.385 4.46204 2.69353 0
M  V30 2962 C 297.713 5.25947 2.59993 0
M  V30 2963 C 300.065 5.80397 2.5164 0
M  V30 2964 C 298.729 6.20352 2.46413 0
M  V30 2965 H 297.999 0.44649 0.591378 0
M  V30 2966 H 300.646 1.63248 1.00111 0
M  V30 2967 H 298.951 1.53185 3.60613 0
M  V30 2968 H 300.648 1.91437 3.52353 0
M  V30 2969 H 297.238 3.1878 2.86491 0
M  V30 2970 H 301.422 4.15652 2.71196 0
M  V30 2971 H 296.678 5.5597 2.54376 0
M  V30 2972 H 300.852 6.53676 2.40169 0
M  V30 2973 H 298.479 7.24172 2.31256 0
M  V30 2974 N 300.054 -1.07777 1.14986 0
M  V30 2975 C 301.001 -2.14867 0.842672 0
M  V30 2976 C 301.971 -1.6486 -0.202552 0
M  V30 2977 O 303.156 -1.90668 -0.0710568 0
M  V30 2978 C 300.296 -3.43486 0.333363 0
M  V30 2979 C 299.409 -4.07306 1.43965 0
M  V30 2980 C 298.544 -5.23744 0.886914 0
M  V30 2981 C 297.583 -5.79517 1.97043 0
M  V30 2982 N 296.72 -6.87291 1.4344 0
M  V30 2983 H 301.56 -2.40485 1.75986 0
M  V30 2984 H 299.097 -1.1801 0.878179 0
M  V30 2985 H 301.055 -4.17195 0.0198163 0
M  V30 2986 H 299.685 -3.18133 -0.546916 0
M  V30 2987 H 298.737 -3.31293 1.86946 0
M  V30 2988 H 300.049 -4.44771 2.25788 0
M  V30 2989 H 299.203 -6.04419 0.525651 0
M  V30 2990 H 297.942 -4.87685 0.0377957 0
M  V30 2991 H 296.947 -4.97491 2.34057 0
M  V30 2992 H 298.172 -6.17632 2.82325 0
M  V30 2993 H 296.118 -6.5318 0.607567 0
M  V30 2994 H 296.035 -7.23617 2.18895 0
M  V30 2995 H 297.303 -7.71682 1.10124 0
M  V30 2996 N 301.532 -0.945985 -1.26051 0
M  V30 2997 C 302.948 -0.649045 -1.45807 0
M  V30 2998 C 303.148 0.796158 -1.85104 0
M  V30 2999 O 302.204 1.57233 -1.97571 0
M  V30 3000 C 303.517 -1.61458 -2.53677 0
M  V30 3001 C 305.065 -1.62481 -2.67524 0
M  V30 3002 C 305.54 -2.57776 -3.7857 0
M  V30 3003 N 307.031 -2.5609 -3.85969 0
M  V30 3004 C 307.766 -3.26508 -4.7136 0
M  V30 3005 N 307.262 -4.0637 -5.61102 0
M  V30 3006 N 309.055 -3.15437 -4.65248 0
M  V30 3007 H 301.206 -1.88005 -0.988328 0
M  V30 3008 H 303.469 -0.808198 -0.4955 0
M  V30 3009 H 303.175 -2.64644 -2.31638 0
M  V30 3010 H 303.049 -1.37036 -3.51427 0
M  V30 3011 H 305.436 -0.600167 -2.88933 0
M  V30 3012 H 305.517 -1.90958 -1.70202 0
M  V30 3013 H 305.161 -3.60361 -3.57913 0
M  V30 3014 H 305.091 -2.26587 -4.75359 0
M  V30 3015 H 307.582 -1.98105 -3.21812 0
M  V30 3016 H 307.895 -4.57042 -6.23164 0
M  V30 3017 H 306.24 -4.10469 -5.60839 0
M  V30 3018 H 309.431 -2.52525 -3.94143 0
M  V30 3019 H 309.604 -3.70584 -5.31575 0
M  V30 3020 N 303.011 1.40521 -0.713556 0
M  V30 3021 C 303.944 2.28198 -0.00881422 0
M  V30 3022 C 304.922 1.43227 0.769735 0
M  V30 3023 O 306.106 1.72641 0.756799 0
M  V30 3024 C 303.233 3.23758 0.994899 0
M  V30 3025 C 302.279 4.25391 0.3074 0
M  V30 3026 S 303.112 5.26765 -0.963247 0
M  V30 3027 C 304.268 6.25888 0.0384143 0
M  V30 3028 H 304.501 2.87622 -0.752407 0
M  V30 3029 H 302.034 1.45925 -0.504502 0
M  V30 3030 H 303.992 3.79341 1.56879 0
M  V30 3031 H 302.653 2.63396 1.71118 0
M  V30 3032 H 301.846 4.92596 1.0661 0
M  V30 3033 H 301.448 3.73497 -0.193879 0
M  V30 3034 H 303.74 6.71683 0.885912 0
M  V30 3035 H 304.683 7.05552 -0.60019 0
M  V30 3036 H 305.091 5.63072 0.401233 0
M  V30 3037 N 304.489 0.459591 1.5075 0
M  V30 3038 C 305.419 -0.330644 2.31147 0
M  V30 3039 C 306.4 -1.00087 1.37538 0
M  V30 3040 O 307.585 -1.00025 1.66459 0
M  V30 3041 C 304.715 -1.41958 3.16962 0
M  V30 3042 C 303.669 -0.871608 4.19031 0
M  V30 3043 C 302.995 -2.05797 4.9351 0
M  V30 3044 C 304.295 0.109251 5.22186 0
M  V30 3045 H 305.989 0.340336 2.97459 0
M  V30 3046 H 303.535 0.165119 1.4305 0
M  V30 3047 H 305.488 -1.9798 3.71997 0
M  V30 3048 H 304.212 -2.11917 2.48513 0
M  V30 3049 H 302.871 -0.333442 3.6508 0
M  V30 3050 H 302.519 -2.74427 4.21544 0
M  V30 3051 H 302.219 -1.6976 5.62544 0
M  V30 3052 H 303.743 -2.62331 5.51375 0
M  V30 3053 H 305.157 -0.361405 5.7216 0
M  V30 3054 H 303.554 0.383316 5.98875 0
M  V30 3055 H 304.624 1.03887 4.73641 0
M  V30 3056 N 305.967 -1.56429 0.191757 0
M  V30 3057 C 307.244 -1.89224 -0.495332 0
M  V30 3058 C 307.624 -1.10478 -1.79883 0
M  V30 3059 O 306.972 -0.204852 -2.2758 0
M  V30 3060 C 307.182 -3.41548 -0.717367 0
M  V30 3061 C 308.53 -4.11711 -1.03823 0
M  V30 3062 O 309.554 -3.4698 -0.805204 0
M  V30 3063 O 308.413 -5.2611 -1.47887 0
M  V30 3064 H 305.507 -0.785788 -0.25781 0
M  V30 3065 H 308.053 -1.68111 0.231721 0
M  V30 3066 H 306.825 -3.90772 0.203287 0
M  V30 3067 H 306.448 -3.68342 -1.497 0
M  V30 3068 N 307.445 0.0818655 -1.57387 0
M  V30 3069 C 308.691 0.784074 -1.8703 0
M  V30 3070 C 309.024 1.77729 -0.782689 0
M  V30 3071 O 308.299 1.93384 0.208051 0
M  V30 3072 C 308.582 1.50105 -3.27323 0
M  V30 3073 C 308.435 0.524925 -4.46727 0
M  V30 3074 C 309.754 2.44843 -3.65705 0
M  V30 3075 H 306.873 0.283582 -0.680257 0
M  V30 3076 H 309.515 0.0474352 -1.89941 0
M  V30 3077 H 307.665 2.12897 -3.24972 0
M  V30 3078 H 309.337 -0.0970111 -4.61198 0
M  V30 3079 H 307.58 -0.160606 -4.33503 0
M  V30 3080 H 308.251 1.064 -5.41648 0
M  V30 3081 H 310.727 1.92135 -3.69085 0
M  V30 3082 H 309.603 2.92018 -4.64776 0
M  V30 3083 H 309.864 3.29197 -2.95096 0
M  V30 3084 N 308.923 1.53595 0.353017 0
M  V30 3085 C 310.334 1.61937 0.929153 0
M  V30 3086 C 310.685 0.494686 1.89861 0
M  V30 3087 O 309.81 -0.377017 2.1309 0
M  V30 3088 C 310.405 2.93526 1.69199 0
M  V30 3089 C 308.964 3.04161 2.21727 0
M  V30 3090 C 308.111 2.57322 1.03348 0
M  V30 3091 H 311.062 1.58155 0.131431 0
M  V30 3092 H 311.083 2.82034 2.55416 0
M  V30 3093 H 310.595 3.75362 0.986144 0
M  V30 3094 H 308.696 2.26938 2.95516 0
M  V30 3095 H 308.809 4.09465 2.48748 0
M  V30 3096 H 307.173 2.12499 1.40414 0
M  V30 3097 H 307.956 3.41588 0.342428 0
M  V30 3098 N 310.401 -0.613514 1.45168 0
M  V30 3099 C 311.678 -1.37263 1.39349 0
M  V30 3100 C 312.058 -2.11012 0.0610848 0
M  V30 3101 O 311.406 -2.07502 -0.956825 0
M  V30 3102 C 311.616 -2.3244 2.60332 0
M  V30 3103 C 312.964 -2.9523 3.05163 0
M  V30 3104 O 313.988 -2.42762 2.60663 0
M  V30 3105 O 312.847 -3.90454 3.82372 0
M  V30 3106 H 309.941 -0.615188 0.552696 0
M  V30 3107 H 312.487 -0.637097 1.57287 0
M  V30 3108 H 311.259 -1.77164 3.48896 0
M  V30 3109 H 310.882 -3.13383 2.44698 0
M  V30 3110 N 311.879 -1.3236 -0.855495 0
M  V30 3111 C 313.119 -1.24187 -1.62348 0
M  V30 3112 C 313.483 0.193597 -1.91021 0
M  V30 3113 O 314.684 0.39904 -2.65822 0
M  V30 3114 C 312.955 -2.07661 -2.90881 0
M  V30 3115 S 314.514 -2.16505 -3.81669 0
M  V30 3116 H 311.332 -0.442076 -0.556857 0
M  V30 3117 H 313.934 -1.67198 -1.01317 0
M  V30 3118 H 312.638 -3.11018 -2.67761 0
M  V30 3119 H 312.169 -1.65425 -3.56929 0
M  V30 3120 H 314.184 -1.31394 -4.78487 0
M  V30 3121 N 313.357 1.07166 -1.15556 0
M  V30 3122 C 314.587 1.83248 -0.954133 0
M  V30 3123 C 314.995 1.82449 0.500911 0
M  V30 3124 O 314.338 1.23575 1.35923 0
M  V30 3125 C 314.4 3.31393 -1.39351 0
M  V30 3126 C 314.064 3.5591 -2.86666 0
M  V30 3127 C 315.061 3.49695 -3.8472 0
M  V30 3128 C 312.746 3.83515 -3.24379 0
M  V30 3129 C 314.74 3.70737 -5.18491 0
M  V30 3130 C 312.427 4.04209 -4.58321 0
M  V30 3131 C 313.425 3.97815 -5.55186 0
M  V30 3132 O 313.113 4.17954 -6.86709 0
M  V30 3133 H 312.845 0.584941 -0.338851 0
M  V30 3134 H 315.399 1.36169 -1.53777 0
M  V30 3135 H 313.629 3.79292 -0.75329 0
M  V30 3136 H 315.318 3.88945 -1.16089 0
M  V30 3137 H 316.084 3.28368 -3.56931 0
M  V30 3138 H 311.963 3.87605 -2.49567 0
M  V30 3139 H 315.507 3.65663 -5.94085 0
M  V30 3140 H 311.404 4.25023 -4.85825 0
M  V30 3141 H 312.172 4.35291 -6.93155 0
M  V30 3142 N 314.835 0.952656 1.25548 0
M  V30 3143 C 315.785 0.442033 2.23674 0
M  V30 3144 C 316.769 -0.467632 1.53955 0
M  V30 3145 O 317.961 -0.301006 1.74422 0
M  V30 3146 C 315.09 -0.280816 3.4215 0
M  V30 3147 C 314.176 0.646803 4.19139 0
M  V30 3148 N 314.567 1.77759 4.73535 0
M  V30 3149 C 312.865 0.454617 4.43677 0
M  V30 3150 C 313.566 2.35658 5.31827 0
M  V30 3151 N 312.542 1.64333 5.18166 0
M  V30 3152 H 316.344 1.30505 2.63336 0
M  V30 3153 H 313.858 0.809904 1.40763 0
M  V30 3154 H 315.855 -0.663747 4.11582 0
M  V30 3155 H 314.515 -1.14046 3.04012 0
M  V30 3156 H 315.526 2.15949 4.7073 0
M  V30 3157 H 312.203 -0.362312 4.15925 0
M  V30 3158 H 313.593 3.30998 5.84713 0
M  V30 3159 N 316.313 -1.40141 0.720998 0
M  V30 3160 C 317.562 -2.0002 0.259804 0
M  V30 3161 C 317.875 -1.57839 -1.15526 0
M  V30 3162 O 319.081 -2.10455 -1.71525 0
M  V30 3163 C 317.537 -3.57516 0.413566 0
M  V30 3164 C 317.145 -4.08667 1.83562 0
M  V30 3165 C 318.889 -4.24498 0.0134387 0
M  V30 3166 C 316.796 -5.58686 1.93968 0
M  V30 3167 H 315.726 -0.748195 0.0933806 0
M  V30 3168 H 318.377 -1.60313 0.892866 0
M  V30 3169 H 316.759 -3.9495 -0.288169 0
M  V30 3170 H 317.933 -3.82598 2.56817 0
M  V30 3171 H 316.248 -3.543 2.1877 0
M  V30 3172 H 318.845 -5.34654 0.0703954 0
M  V30 3173 H 319.188 -4.03375 -1.02927 0
M  V30 3174 H 319.721 -3.92188 0.665815 0
M  V30 3175 H 316.46 -5.8467 2.96379 0
M  V30 3176 H 315.98 -5.86602 1.25131 0
M  V30 3177 H 317.659 -6.23875 1.71431 0
M  V30 3178 N 317.792 -0.46758 -1.50504 0
M  V30 3179 C 319.039 0.0886219 -2.02306 0
M  V30 3180 C 319.367 1.40037 -1.34981 0
M  V30 3181 O 318.622 1.90136 -0.463318 0
M  V30 3182 C 318.921 0.323995 -3.55928 0
M  V30 3183 C 318.587 -0.905618 -4.41712 0
M  V30 3184 C 317.249 -1.24275 -4.64875 0
M  V30 3185 C 319.601 -1.72448 -4.91845 0
M  V30 3186 C 316.929 -2.39888 -5.35417 0
M  V30 3187 C 319.281 -2.87185 -5.63656 0
M  V30 3188 C 317.945 -3.21317 -5.85074 0
M  V30 3189 H 317.215 0.0324291 -0.74029 0
M  V30 3190 H 319.862 -0.620945 -1.81153 0
M  V30 3191 H 318.167 1.11577 -3.75577 0
M  V30 3192 H 319.864 0.76826 -3.93572 0
M  V30 3193 H 316.454 -0.632956 -4.239 0
M  V30 3194 H 320.638 -1.4772 -4.73806 0
M  V30 3195 H 315.894 -2.66611 -5.50208 0
M  V30 3196 H 320.068 -3.50985 -6.01484 0
M  V30 3197 H 317.695 -4.1101 -6.39511 0
M  V30 3198 N 319.27 1.56325 -0.20005 0
M  V30 3199 C 320.681 1.8408 0.31167 0
M  V30 3200 C 321.032 1.12087 1.61031 0
M  V30 3201 O 320.157 0.38332 2.12978 0
M  V30 3202 C 320.752 3.33932 0.57226 0
M  V30 3203 C 319.311 3.6208 1.02834 0
M  V30 3204 C 318.458 2.77186 0.079634 0
M  V30 3205 H 321.409 1.52939 -0.423729 0
M  V30 3206 H 321.43 3.52971 1.42096 0
M  V30 3207 H 320.942 3.86303 -0.37308 0
M  V30 3208 H 319.043 3.15147 1.98778 0
M  V30 3209 H 319.156 4.7023 0.917624 0
M  V30 3210 H 317.52 2.47951 0.582448 0
M  V30 3211 H 318.303 3.32347 -0.860238 0
M  V30 3212 N 320.748 -0.0735177 1.57428 0
M  V30 3213 C 321.976 -0.785969 1.9139 0
M  V30 3214 C 322.391 -1.71207 0.795847 0
M  V30 3215 O 321.748 -1.81033 -0.230915 0
M  V30 3216 C 321.799 -1.58107 3.25091 0
M  V30 3217 O 321.52 -0.6922 4.32597 0
M  V30 3218 C 323.021 -2.39467 3.73055 0
M  V30 3219 H 320.241 -0.223558 0.632663 0
M  V30 3220 H 322.785 -0.044302 2.04452 0
M  V30 3221 H 320.94 -2.27503 3.13562 0
M  V30 3222 H 321.354 -1.24504 5.09508 0
M  V30 3223 H 322.828 -2.90716 4.69242 0
M  V30 3224 H 323.305 -3.18913 3.01979 0
M  V30 3225 H 323.911 -1.7523 3.87523 0
M  V30 3226 N 322.226 -1.5378 -0.344866 0
M  V30 3227 C 323.189 -1.80981 -1.40637 0
M  V30 3228 C 324.189 -0.680816 -1.45676 0
M  V30 3229 O 325.379 -0.949095 -1.46075 0
M  V30 3230 C 322.511 -1.95063 -2.79577 0
M  V30 3231 H 323.704 -2.75803 -1.17783 0
M  V30 3232 H 321.257 -1.45173 -0.579181 0
M  V30 3233 H 321.992 -1.02379 -3.07716 0
M  V30 3234 H 321.777 -2.77198 -2.77315 0
M  V30 3235 H 323.267 -2.17629 -3.56409 0
M  V30 3236 N 323.704 0.605807 -1.45491 0
M  V30 3237 C 325.115 1.18777 -1.44045 0
M  V30 3238 C 325.466 1.95471 -0.169001 0
M  V30 3239 O 324.591 2.0374 0.729324 0
M  V30 3240 C 325.186 2.16064 -2.60963 0
M  V30 3241 C 323.745 2.69633 -2.62631 0
M  V30 3242 C 322.892 1.45072 -2.36325 0
M  V30 3243 H 325.843 0.395017 -1.53705 0
M  V30 3244 H 325.864 2.9913 -2.35163 0
M  V30 3245 H 325.376 1.60217 -3.53486 0
M  V30 3246 H 323.477 3.29414 -1.74119 0
M  V30 3247 H 323.59 3.13944 -3.61906 0
M  V30 3248 H 321.954 1.74089 -1.85917 0
M  V30 3249 H 322.737 0.910899 -3.30995 0
M  V30 3250 N 325.182 1.32811 0.848464 0
M  V30 3251 C 326.459 1.14334 1.58704 0
M  V30 3252 C 326.839 -0.293948 2.09043 0
M  V30 3253 O 326.187 -1.29153 1.88499 0
M  V30 3254 C 326.397 2.17626 2.72837 0
M  V30 3255 C 327.745 2.51282 3.42261 0
M  V30 3256 O 328.769 2.16219 2.83068 0
M  V30 3257 O 327.628 3.11413 4.49093 0
M  V30 3258 H 324.722 0.441601 0.699226 0
M  V30 3259 H 327.268 1.44362 0.892053 0
M  V30 3260 H 326.04 3.14211 2.3321 0
M  V30 3261 H 325.663 1.88628 3.50008 0
M  V30 3262 N 326.66 -1.06551 1.16123 0
M  V30 3263 C 327.888 -1.83005 0.965237 0
M  V30 3264 C 328.303 -1.82423 -0.486542 0
M  V30 3265 O 327.66 -1.24152 -1.33763 0
M  V30 3266 C 327.711 -3.29733 1.48183 0
M  V30 3267 O 327.432 -3.30416 2.87674 0
M  V30 3268 C 328.933 -4.22926 1.32848 0
M  V30 3269 H 326.153 -0.577118 0.342309 0
M  V30 3270 H 328.697 -1.3445 1.54089 0
M  V30 3271 H 326.852 -3.75609 0.948517 0
M  V30 3272 H 327.266 -4.22149 3.11272 0
M  V30 3273 H 328.74 -5.23916 1.73827 0
M  V30 3274 H 329.217 -4.38346 0.273692 0
M  V30 3275 H 329.823 -3.82894 1.85127 0
M  V30 3276 N 328.138 -0.959301 -1.25041 0
M  V30 3277 C 329.385 -0.616611 -1.92884 0
M  V30 3278 C 329.713 0.847036 -1.75087 0
M  V30 3279 O 328.968 1.62374 -1.09239 0
M  V30 3280 C 329.267 -0.927136 -3.45165 0
M  V30 3281 C 328.933 -2.37757 -3.83122 0
M  V30 3282 C 327.595 -2.77402 -3.93194 0
M  V30 3283 C 329.947 -3.31929 -4.01836 0
M  V30 3284 C 327.275 -4.10277 -4.19392 0
M  V30 3285 C 329.627 -4.64423 -4.29528 0
M  V30 3286 C 328.291 -5.03857 -4.37818 0
M  V30 3287 H 327.561 -0.225634 -0.705812 0
M  V30 3288 H 330.208 -1.20921 -1.48493 0
M  V30 3289 H 328.513 -0.252195 -3.90987 0
M  V30 3290 H 330.21 -0.6405 -3.95852 0
M  V30 3291 H 326.8 -2.06013 -3.75841 0
M  V30 3292 H 330.984 -3.02488 -3.93465 0
M  V30 3293 H 326.24 -4.40467 -4.24027 0
M  V30 3294 H 330.414 -5.37369 -4.42953 0
M  V30 3295 H 328.041 -6.06843 -4.57871 0
M  V30 3296 N 329.616 1.39756 -0.72842 0
M  V30 3297 C 330.863 2.00645 -0.273487 0
M  V30 3298 C 331.191 1.57786 1.13727 0
M  V30 3299 O 330.446 0.794886 1.7883 0
M  V30 3300 C 330.745 3.56002 -0.315776 0
M  V30 3301 C 330.411 4.18489 -1.67863 0
M  V30 3302 C 329.073 4.3527 -2.05166 0
M  V30 3303 C 331.425 4.53219 -2.57375 0
M  V30 3304 C 328.753 4.84069 -3.31503 0
M  V30 3305 C 331.105 5.03423 -3.83077 0
M  V30 3306 C 329.769 5.18413 -4.20481 0
M  V30 3307 H 329.039 0.734211 -0.100076 0
M  V30 3308 H 331.686 1.6718 -0.933972 0
M  V30 3309 H 329.991 3.89452 0.428285 0
M  V30 3310 H 331.688 4.00963 0.0542575 0
M  V30 3311 H 328.278 4.05824 -1.37858 0
M  V30 3312 H 332.462 4.39878 -2.29827 0
M  V30 3313 H 327.718 4.93859 -3.60435 0
M  V30 3314 H 331.892 5.2927 -4.52599 0
M  V30 3315 H 329.519 5.55987 -5.18443 0
M  V30 3316 N 331.094 0.475555 1.50254 0
M  V30 3317 C 332.027 -0.362381 2.25304 0
M  V30 3318 C 333.005 -0.992393 1.28803 0
M  V30 3319 O 334.189 -1.02746 1.58036 0
M  V30 3320 C 331.316 -1.50813 3.03271 0
M  V30 3321 C 330.362 -0.995044 4.1473 0
M  V30 3322 S 331.195 0.0938436 5.35418 0
M  V30 3323 C 332.351 -1.05567 6.16933 0
M  V30 3324 H 332.584 0.274686 2.96028 0
M  V30 3325 H 330.117 0.260495 1.52187 0
M  V30 3326 H 332.075 -2.16476 3.48781 0
M  V30 3327 H 330.736 -2.11672 2.32064 0
M  V30 3328 H 329.929 -1.85293 4.68703 0
M  V30 3329 H 329.531 -0.416052 3.71679 0
M  V30 3330 H 331.823 -1.96636 6.48337 0
M  V30 3331 H 332.766 -0.555109 7.05921 0
M  V30 3332 H 333.174 -1.31151 5.49053 0
M  V30 3333 N 332.573 -1.56217 0.208337 0
M  V30 3334 C 333.523 -2.16324 -0.720281 0
M  V30 3335 C 334.507 -1.10775 -1.16695 0
M  V30 3336 O 335.699 -1.36801 -1.12314 0
M  V30 3337 C 332.828 -2.83644 -1.93393 0
M  V30 3338 C 331.914 -3.96401 -1.50755 0
M  V30 3339 N 332.305 -4.99546 -0.792937 0
M  V30 3340 C 330.603 -4.08246 -1.79585 0
M  V30 3341 C 331.304 -5.78828 -0.577364 0
M  V30 3342 N 330.28 -5.31723 -1.1301 0
M  V30 3343 H 334.082 -2.93432 -0.165725 0
M  V30 3344 H 331.596 -1.62397 0.00906463 0
M  V30 3345 H 333.593 -3.25107 -2.60981 0
M  V30 3346 H 332.253 -2.08027 -2.49308 0
M  V30 3347 H 333.264 -5.15967 -0.447004 0
M  V30 3348 H 329.941 -3.4377 -2.36915 0
M  V30 3349 H 331.331 -6.71899 -0.00952956 0
M  V30 3350 N 334.051 0.0651679 -1.57465 0
M  V30 3351 C 335.291 0.768329 -1.8941 0
M  V30 3352 C 335.655 1.74406 -0.802894 0
M  V30 3353 O 336.856 2.49281 -1.0056 0
M  V30 3354 C 335.127 1.45199 -3.26576 0
M  V30 3355 S 336.686 2.1893 -3.80283 0
M  V30 3356 H 333.504 0.255359 -0.663561 0
M  V30 3357 H 336.106 0.024167 -1.95485 0
M  V30 3358 H 334.81 0.728123 -4.03889 0
M  V30 3359 H 334.341 2.23545 -3.23715 0
M  V30 3360 H 336.356 3.45551 -3.56102 0
M  V30 3361 N 335.529 1.53961 0.336706 0
M  V30 3362 C 336.945 1.44378 0.680241 0
M  V30 3363 C 337.145 0.606034 1.9217 0
M  V30 3364 O 336.201 0.099688 2.52303 0
M  V30 3365 C 337.514 2.87945 0.8665 0
M  V30 3366 C 339.062 2.97763 0.964682 0
M  V30 3367 C 339.537 4.42453 1.18321 0
M  V30 3368 N 341.028 4.46008 1.25025 0
M  V30 3369 C 341.763 5.55102 1.43697 0
M  V30 3370 N 341.259 6.7419 1.59498 0
M  V30 3371 N 343.052 5.42727 1.463 0
M  V30 3372 H 335.203 2.06918 -0.479455 0
M  V30 3373 H 337.466 0.935634 -0.152619 0
M  V30 3374 H 337.172 3.51691 0.0256937 0
M  V30 3375 H 337.046 3.33293 1.76623 0
M  V30 3376 H 339.433 2.34153 1.796 0
M  V30 3377 H 339.514 2.55766 0.041708 0
M  V30 3378 H 339.158 5.06645 0.356788 0
M  V30 3379 H 339.088 4.82048 2.11985 0
M  V30 3380 H 341.579 3.60196 1.14312 0
M  V30 3381 H 341.892 7.53095 1.734 0
M  V30 3382 H 340.237 6.77123 1.56621 0
M  V30 3383 H 343.428 4.48647 1.33543 0
M  V30 3384 H 343.601 6.27806 1.6051 0
M  V30 3385 N 337.007 -0.598083 1.45811 0
M  V30 3386 C 338.284 -1.35777 1.40797 0
M  V30 3387 C 338.664 -2.10935 0.083462 0
M  V30 3388 O 338.012 -2.08505 -0.934763 0
M  V30 3389 C 338.222 -2.29666 2.62783 0
M  V30 3390 C 339.57 -2.91977 3.08277 0
M  V30 3391 O 340.594 -2.39984 2.63223 0
M  V30 3392 O 339.453 -3.86376 3.86491 0
M  V30 3393 H 336.547 -0.609291 0.55919 0
M  V30 3394 H 339.093 -0.620379 1.57954 0
M  V30 3395 H 337.865 -1.73454 3.50756 0
M  V30 3396 H 337.488 -3.1077 2.48008 0
M  V30 3397 N 338.485 -1.33259 -0.841409 0
M  V30 3398 C 339.733 -1.24326 -1.59334 0
M  V30 3399 C 340.054 0.191564 -1.94057 0
M  V30 3400 O 339.324 1.11967 -1.60749 0
M  V30 3401 H 337.904 -0.457174 -0.590763 0
M  V30 3402 H 340.566 -1.66947 -1.00571 0
M  V30 3403 H 339.662 -1.8352 -2.52442 0
M  V30 3404 N 339.963 1.05934 -1.16686 0
M  V30 3405 C 341.188 1.83029 -0.975455 0
M  V30 3406 C 341.613 1.82096 0.471452 0
M  V30 3407 O 340.971 1.22443 1.33706 0
M  V30 3408 C 341.019 3.27372 -1.51195 0
M  V30 3409 O 340.123 4.06054 -0.720701 0
M  V30 3410 H 339.464 0.566194 -0.346872 0
M  V30 3411 H 341.994 1.33541 -1.55009 0
M  V30 3412 H 342.004 3.78186 -1.53099 0
M  V30 3413 H 340.679 3.27366 -2.56523 0
M  V30 3414 H 339.256 3.64812 -0.772458 0
M  V30 3415 N 341.441 0.965919 1.2453 0
M  V30 3416 C 342.371 0.513476 2.27784 0
M  V30 3417 C 343.352 -0.445974 1.6415 0
M  V30 3418 O 344.537 -0.342485 1.91156 0
M  V30 3419 C 341.667 -0.198839 3.4673 0
M  V30 3420 C 340.621 0.676456 4.2262 0
M  V30 3421 C 339.947 -0.167248 5.34438 0
M  V30 3422 C 341.247 1.96017 4.84123 0
M  V30 3423 H 342.941 1.3765 2.65881 0
M  V30 3424 H 340.487 0.663321 1.27813 0
M  V30 3425 H 342.44 -0.526567 4.18097 0
M  V30 3426 H 341.164 -1.0962 3.07654 0
M  V30 3427 H 339.823 0.98743 3.53052 0
M  V30 3428 H 339.471 -1.0647 4.91603 0
M  V30 3429 H 339.171 0.415181 5.86131 0
M  V30 3430 H 340.695 -0.489688 6.08633 0
M  V30 3431 H 342.109 1.69814 5.47573 0
M  V30 3432 H 340.506 2.48918 5.4604 0
M  V30 3433 H 341.576 2.65622 4.05676 0
M  V30 3434 N 342.919 -1.39368 0.735821 0
M  V30 3435 C 343.882 -2.2896 0.104874 0
M  V30 3436 C 344.882 -1.46347 -0.666274 0
M  V30 3437 O 346.072 -1.67014 -0.49517 0
M  V30 3438 C 343.204 -3.29857 -0.860656 0
M  V30 3439 H 344.397 -2.86259 0.894205 0
M  V30 3440 H 341.95 -1.48029 0.501704 0
M  V30 3441 H 342.685 -2.77615 -1.67631 0
M  V30 3442 H 342.47 -3.9087 -0.310327 0
M  V30 3443 H 343.96 -3.96893 -1.29867 0
M  V30 3444 N 344.397 -0.483516 -1.5 0
M  V30 3445 C 345.344 0.304164 -2.28787 0
M  V30 3446 C 346.314 0.976114 -1.34392 0
M  V30 3447 O 347.499 0.986156 -1.63339 0
M  V30 3448 C 344.639 1.37298 -3.16612 0
M  V30 3449 C 343.752 0.714561 -4.26049 0
M  V30 3450 C 342.887 1.76232 -5.01114 0
M  V30 3451 C 341.926 1.08483 -6.0241 0
M  V30 3452 N 341.063 2.076 -6.70706 0
M  V30 3453 H 345.903 -0.373981 -2.95644 0
M  V30 3454 H 343.44 -0.196275 -1.45785 0
M  V30 3455 H 345.398 2.00445 -3.65893 0
M  V30 3456 H 344.028 2.02012 -2.51776 0
M  V30 3457 H 343.08 -0.0297798 -3.80388 0
M  V30 3458 H 344.392 0.180383 -4.98474 0
M  V30 3459 H 343.546 2.46929 -5.54176 0
M  V30 3460 H 342.285 2.33033 -4.28424 0
M  V30 3461 H 341.29 0.363545 -5.48597 0
M  V30 3462 H 342.515 0.523551 -6.77079 0
M  V30 3463 H 340.461 2.63394 -6.00799 0
M  V30 3464 H 340.378 1.59201 -7.39047 0
M  V30 3465 H 341.646 2.77639 -7.2838 0
M  V30 3466 N 345.875 1.56104 -0.216619 0
M  V30 3467 C 347.121 1.98466 0.417033 0
M  V30 3468 C 347.454 1.10403 1.59765 0
M  V30 3469 O 346.729 0.160632 1.93836 0
M  V30 3470 C 347.012 3.49769 0.85637 0
M  V30 3471 C 346.865 4.48606 -0.327546 0
M  V30 3472 C 348.184 4.05339 1.7143 0
M  V30 3473 H 345.303 0.721551 0.150112 0
M  V30 3474 H 347.945 1.87423 -0.311864 0
M  V30 3475 H 346.095 3.5931 1.47745 0
M  V30 3476 H 347.767 4.5108 -0.965618 0
M  V30 3477 H 346.01 4.22682 -0.975805 0
M  V30 3478 H 346.681 5.51995 0.0227149 0
M  V30 3479 H 349.157 3.98712 1.19031 0
M  V30 3480 H 348.033 5.11533 1.99061 0
M  V30 3481 H 348.294 3.51918 2.67593 0
M  V30 3482 N 347.353 -0.0568162 1.57498 0
M  V30 3483 C 348.316 -1.05038 2.03715 0
M  V30 3484 C 349.316 -1.30709 0.936577 0
M  V30 3485 O 350.506 -1.26178 1.20103 0
M  V30 3486 C 347.638 -2.39034 2.43055 0
M  V30 3487 H 348.831 -0.651715 2.92733 0
M  V30 3488 H 346.384 -0.302947 1.53336 0
M  V30 3489 H 347.119 -2.83703 1.57108 0
M  V30 3490 H 346.904 -2.21739 3.2338 0
M  V30 3491 H 348.394 -3.10421 2.79336 0
M  V30 3492 N 348.832 -1.54138 -0.328536 0
M  V30 3493 C 350.079 -1.72105 -1.06706 0
M  V30 3494 C 350.407 -0.492111 -1.88171 0
M  V30 3495 O 349.662 0.526153 -1.88494 0
M  V30 3496 C 349.961 -2.9457 -2.02393 0
M  V30 3497 C 349.627 -4.29544 -1.37122 0
M  V30 3498 C 348.289 -4.6624 -1.19052 0
M  V30 3499 C 350.641 -5.1333 -0.902331 0
M  V30 3500 C 347.969 -5.84325 -0.527331 0
M  V30 3501 C 350.321 -6.32094 -0.252988 0
M  V30 3502 C 348.985 -6.67473 -0.0600901 0
M  V30 3503 H 348.255 -0.629775 -0.390466 0
M  V30 3504 H 350.902 -1.88372 -0.34473 0
M  V30 3505 H 349.207 -2.72969 -2.81061 0
M  V30 3506 H 350.904 -3.05665 -2.59557 0
M  V30 3507 H 347.494 -4.0067 -1.52188 0
M  V30 3508 H 351.678 -4.855 -1.02974 0
M  V30 3509 H 346.934 -6.103 -0.366634 0
M  V30 3510 H 351.108 -6.96299 0.118366 0
M  V30 3511 H 348.735 -7.58832 0.455828 0
M  V30 3512 N 350.31 0.590341 -1.46126 0
M  V30 3513 C 351.558 1.34616 -1.50742 0
M  V30 3514 C 351.879 1.94363 -0.157486 0
M  V30 3515 O 351.149 1.78136 0.815136 0
M  V30 3516 H 349.729 0.499789 -0.555175 0
M  V30 3517 H 352.391 0.691953 -1.82203 0
M  V30 3518 H 351.487 2.15678 -2.25587 0
M  V30 3519 N 351.788 1.33704 0.83433 0
M  V30 3520 C 353.016 1.28467 1.62185 0
M  V30 3521 C 353.431 -0.143526 1.88254 0
M  V30 3522 O 352.788 -1.08709 1.4659 0
M  V30 3523 C 352.839 2.06174 2.96942 0
M  V30 3524 O 352.56 3.43422 2.72016 0
M  V30 3525 C 354.061 2.08201 3.91366 0
M  V30 3526 H 351.281 0.4424 0.504503 0
M  V30 3527 H 353.825 1.76145 1.03891 0
M  V30 3528 H 351.98 1.62167 3.51825 0
M  V30 3529 H 352.394 3.83453 3.57861 0
M  V30 3530 H 353.868 2.67017 4.83121 0
M  V30 3531 H 354.345 1.07343 4.2588 0
M  V30 3532 H 354.951 2.52246 3.42421 0
M  V30 3533 N 353.266 -1.05314 1.17247 0
M  V30 3534 C 354.176 -2.16538 0.90268 0
M  V30 3535 C 355.192 -1.73523 -0.128707 0
M  V30 3536 O 356.368 -2.01337 0.0502701 0
M  V30 3537 C 353.433 -3.44167 0.418356 0
M  V30 3538 C 352.494 -4.01635 1.51618 0
M  V30 3539 C 351.727 -5.23171 1.05487 0
M  V30 3540 O 351.95 -5.70327 -0.0914715 0
M  V30 3541 O 350.884 -5.72848 1.8474 0
M  V30 3542 H 354.71 -2.42145 1.83302 0
M  V30 3543 H 352.295 -1.15037 0.953246 0
M  V30 3544 H 354.177 -4.21112 0.155726 0
M  V30 3545 H 352.852 -3.20063 -0.48385 0
M  V30 3546 H 351.759 -3.26135 1.83268 0
M  V30 3547 H 353.092 -4.30053 2.39405 0
M  V30 3548 N 354.744 -0.972509 -1.24016 0
M  V30 3549 C 355.992 -0.635776 -1.91839 0
M  V30 3550 C 356.313 0.832312 -1.76345 0
M  V30 3551 O 355.583 1.5946 -1.13795 0
M  V30 3552 H 354.163 -0.232157 -0.710009 0
M  V30 3553 H 356.825 -1.23462 -1.50809 0
M  V30 3554 H 355.921 -0.880545 -2.99421 0
M  V30 3555 N 356.222 1.38976 -0.743202 0
M  V30 3556 C 357.45 2.04636 -0.30525 0
M  V30 3557 C 357.865 1.56044 1.06281 0
M  V30 3558 O 357.222 0.728921 1.67311 0
M  V30 3559 C 357.273 3.60193 -0.307177 0
M  V30 3560 O 356.994 4.06998 -1.62124 0
M  V30 3561 C 358.495 4.4306 0.145928 0
M  V30 3562 H 355.715 0.65788 -0.132041 0
M  V30 3563 H 358.259 1.77866 -1.00915 0
M  V30 3564 H 356.414 3.85835 0.347898 0
M  V30 3565 H 356.828 5.01371 -1.54036 0
M  V30 3566 H 358.302 5.51921 0.0934183 0
M  V30 3567 H 358.779 4.22706 1.19231 0
M  V30 3568 H 359.385 4.22584 -0.479886 0
M  V30 3569 N 357.7 0.491464 1.49741 0
M  V30 3570 C 359.111 0.0413169 1.86654 0
M  V30 3571 C 359.462 -1.36985 1.40462 0
M  V30 3572 O 358.587 -2.01917 0.778354 0
M  V30 3573 C 359.182 0.0682023 3.38731 0
M  V30 3574 C 357.741 -0.32656 3.74981 0
M  V30 3575 C 356.888 0.444888 2.73708 0
M  V30 3576 H 359.839 0.704733 1.42194 0
M  V30 3577 H 359.86 -0.729322 3.73445 0
M  V30 3578 H 359.372 1.09539 3.72321 0
M  V30 3579 H 357.473 -1.35734 3.46997 0
M  V30 3580 H 357.586 -0.013741 4.79098 0
M  V30 3581 H 355.95 -0.104062 2.54487 0
M  V30 3582 H 356.733 1.47197 3.10142 0
M  V30 3583 N 359.178 -1.55987 0.224894 0
M  V30 3584 C 360.088 -2.24066 -0.69511 0
M  V30 3585 C 361.104 -1.24939 -1.21104 0
M  V30 3586 O 362.28 -1.5776 -1.25195 0
M  V30 3587 C 359.345 -2.90983 -1.88493 0
M  V30 3588 C 358.406 -4.05462 -1.41064 0
M  V30 3589 C 357.639 -4.69179 -2.54375 0
M  V30 3590 O 357.862 -4.31895 -3.72589 0
M  V30 3591 O 356.796 -5.58108 -2.25386 0
M  V30 3592 H 360.622 -3.03353 -0.145149 0
M  V30 3593 H 358.207 -1.49399 -0.00569476 0
M  V30 3594 H 360.089 -3.33209 -2.57972 0
M  V30 3595 H 358.764 -2.14653 -2.42293 0
M  V30 3596 H 357.671 -3.67798 -0.683774 0
M  V30 3597 H 359.004 -4.83545 -0.918985 0
M  V30 3598 N 360.656 0.0484629 -1.57525 0
M  V30 3599 C 361.905 0.742065 -1.87553 0
M  V30 3600 C 362.218 1.77545 -0.820802 0
M  V30 3601 O 363.424 2.52027 -1.00967 0
M  V30 3602 C 361.88 1.37081 -3.32771 0
M  V30 3603 C 361.488 0.374786 -4.4643 0
M  V30 3604 C 363.232 2.04542 -3.71972 0
M  V30 3605 C 361.139 1.01077 -5.82698 0
M  V30 3606 H 360.069 0.280903 -0.699721 0
M  V30 3607 H 362.72 -0.00411877 -1.835 0
M  V30 3608 H 361.102 2.16605 -3.31509 0
M  V30 3609 H 362.276 -0.392331 -4.59127 0
M  V30 3610 H 360.591 -0.196653 -4.15935 0
M  V30 3611 H 363.188 2.52943 -4.71088 0
M  V30 3612 H 363.531 2.85515 -3.02964 0
M  V30 3613 H 364.064 1.31819 -3.75325 0
M  V30 3614 H 360.803 0.240878 -6.55057 0
M  V30 3615 H 360.323 1.74819 -5.73758 0
M  V30 3616 H 362.002 1.52383 -6.28799 0
M  V30 3617 N 362.134 1.5431 0.320358 0
M  V30 3618 C 363.362 1.76636 1.07738 0
M  V30 3619 C 363.777 0.51649 1.81598 0
M  V30 3620 O 363.134 -0.512942 1.75143 0
M  V30 3621 C 363.185 2.96158 2.07299 0
M  V30 3622 O 362.906 4.16313 1.36438 0
M  V30 3623 C 364.407 3.3072 2.95193 0
M  V30 3624 H 361.627 0.589597 0.320339 0
M  V30 3625 H 364.171 2.01207 0.36551 0
M  V30 3626 H 362.326 2.73851 2.74016 0
M  V30 3627 H 362.74 4.83565 2.03138 0
M  V30 3628 H 364.214 4.17643 3.60941 0
M  V30 3629 H 364.691 2.48026 3.62463 0
M  V30 3630 H 365.297 3.55117 2.34034 0
M  V30 3631 N 363.613 -0.582584 1.46437 0
M  V30 3632 C 364.563 -1.68654 1.53426 0
M  V30 3633 C 365.547 -1.55971 0.395194 0
M  V30 3634 O 366.739 -1.64884 0.643612 0
M  V30 3635 C 363.868 -3.07439 1.52762 0
M  V30 3636 C 362.954 -3.25418 2.71963 0
M  V30 3637 N 363.345 -3.13556 3.96883 0
M  V30 3638 C 361.643 -3.56357 2.68189 0
M  V30 3639 C 362.344 -3.33543 4.76575 0
M  V30 3640 N 361.32 -3.58704 4.08451 0
M  V30 3641 H 365.122 -1.58014 2.47808 0
M  V30 3642 H 362.636 -0.786617 1.42078 0
M  V30 3643 H 364.633 -3.86671 1.55857 0
M  V30 3644 H 363.293 -3.1921 0.594573 0
M  V30 3645 H 364.304 -2.9142 4.28129 0
M  V30 3646 H 360.981 -3.74812 1.83908 0
M  V30 3647 H 362.371 -3.29555 5.85528 0
M  V30 3648 N 365.091 -1.34144 -0.827227 0
M  V30 3649 C 366.319 -1.29325 -1.61501 0
M  V30 3650 C 366.734 0.13354 -1.88327 0
M  V30 3651 O 366.091 1.0793 -1.47164 0
M  V30 3652 C 366.142 -2.07746 -2.95844 0
M  V30 3653 O 365.863 -3.4486 -2.70191 0
M  V30 3654 C 367.364 -2.10273 -3.90256 0
M  V30 3655 H 364.584 -0.445069 -0.50215 0
M  V30 3656 H 367.128 -1.76693 -1.02955 0
M  V30 3657 H 365.283 -1.6403 -3.5096 0
M  V30 3658 H 365.697 -3.85345 -3.55822 0
M  V30 3659 H 367.171 -2.69575 -4.81698 0
M  V30 3660 H 367.648 -1.096 -4.25305 0
M  V30 3661 H 368.254 -2.54059 -3.41078 0
M  V30 3662 N 366.569 1.04691 -1.17803 0
M  V30 3663 C 367.479 2.16057 -0.914151 0
M  V30 3664 C 368.495 1.73589 0.119503 0
M  V30 3665 O 369.671 2.01308 -0.0609468 0
M  V30 3666 C 366.736 3.4394 -0.436603 0
M  V30 3667 C 365.797 4.00825 -1.53746 0
M  V30 3668 C 365.03 5.22604 -1.0826 0
M  V30 3669 O 365.253 5.70367 0.0612244 0
M  V30 3670 O 364.187 5.7186 -1.87775 0
M  V30 3671 H 368.013 2.41169 -1.84584 0
M  V30 3672 H 365.598 1.1453 -0.959334 0
M  V30 3673 H 367.48 4.21024 -0.178057 0
M  V30 3674 H 366.155 3.20316 0.466869 0
M  V30 3675 H 365.062 3.25158 -1.84995 0
M  V30 3676 H 366.395 4.28778 -2.41683 0
M  V30 3677 N 368.047 0.979072 1.23499 0
M  V30 3678 C 369.293 0.648178 1.92163 0
M  V30 3679 C 369.626 -0.816049 1.76222 0
M  V30 3680 O 368.901 -1.58849 1.12237 0
M  V30 3681 C 369.184 1.03773 3.44824 0
M  V30 3682 C 369.037 2.55948 3.69879 0
M  V30 3683 C 370.356 0.580653 4.36253 0
M  V30 3684 H 367.475 0.236952 0.69787 0
M  V30 3685 H 370.117 1.22012 1.45647 0
M  V30 3686 H 368.267 0.551058 3.84572 0
M  V30 3687 H 369.939 3.12179 3.3962 0
M  V30 3688 H 368.182 2.98641 3.14636 0
M  V30 3689 H 368.853 2.78255 4.76737 0
M  V30 3690 H 371.329 0.998465 4.03943 0
M  V30 3691 H 370.205 0.881663 5.41773 0
M  V30 3692 H 370.466 -0.519052 4.39042 0
M  V30 3693 N 369.525 -1.3858 0.750561 0
M  V30 3694 C 370.772 -2.00184 0.305373 0
M  V30 3695 C 371.1 -1.59575 -1.11203 0
M  V30 3696 O 370.355 -0.823236 -1.77542 0
M  V30 3697 C 370.654 -3.55455 0.372373 0
M  V30 3698 C 370.32 -4.15765 1.745 0
M  V30 3699 C 368.982 -4.31951 2.12065 0
M  V30 3700 C 371.334 -4.49067 2.64553 0
M  V30 3701 C 368.662 -4.78734 3.39162 0
M  V30 3702 C 371.014 -4.97265 3.91038 0
M  V30 3703 C 369.678 -5.11658 4.28676 0
M  V30 3704 H 368.948 -0.732526 0.111744 0
M  V30 3705 H 371.595 -1.65673 0.960451 0
M  V30 3706 H 369.9 -3.90084 -0.366272 0
M  V30 3707 H 371.597 -4.00999 0.00953918 0
M  V30 3708 H 368.187 -4.03579 1.44297 0
M  V30 3709 H 372.371 -4.36166 2.36796 0
M  V30 3710 H 367.627 -4.88062 3.68246 0
M  V30 3711 H 371.801 -5.22003 4.60962 0
M  V30 3712 H 369.428 -5.47668 5.27222 0
M  V30 3713 N 371.003 -0.499398 -1.49478 0
M  V30 3714 C 371.953 0.299103 -2.2603 0
M  V30 3715 C 372.937 0.936934 -1.30807 0
M  V30 3716 O 374.129 0.844798 -1.55538 0
M  V30 3717 C 371.258 1.36391 -3.15044 0
M  V30 3718 C 370.344 0.732398 -4.17728 0
M  V30 3719 N 370.735 -0.164028 -5.05534 0
M  V30 3720 C 369.033 0.993162 -4.34801 0
M  V30 3721 C 369.734 -0.525345 -5.79323 0
M  V30 3722 N 368.71 0.106348 -5.43496 0
M  V30 3723 H 372.512 -0.391003 -2.91287 0
M  V30 3724 H 370.026 -0.31537 -1.59308 0
M  V30 3725 H 372.023 1.94939 -3.68516 0
M  V30 3726 H 370.683 2.05571 -2.51338 0
M  V30 3727 H 371.694 -0.534736 -5.15132 0
M  V30 3728 H 368.371 1.67783 -3.82302 0
M  V30 3729 H 369.761 -1.25862 -6.60006 0
M  V30 3730 N 372.481 1.55866 -0.233164 0
M  V30 3731 C 373.892 1.847 0.272554 0
M  V30 3732 C 374.243 1.15477 1.58617 0
M  V30 3733 O 373.368 0.42841 2.12117 0
M  V30 3734 C 373.963 3.35071 0.501299 0
M  V30 3735 C 372.522 3.6418 0.951304 0
M  V30 3736 C 371.669 2.77292 0.0208209 0
M  V30 3737 H 374.62 1.52005 -0.456074 0
M  V30 3738 H 374.641 3.55906 1.34577 0
M  V30 3739 H 374.153 3.85424 -0.454936 0
M  V30 3740 H 372.254 3.19293 1.92049 0
M  V30 3741 H 372.367 4.72071 0.817675 0
M  V30 3742 H 370.731 2.49131 0.529723 0
M  V30 3743 H 371.514 3.30448 -0.93054 0
M  V30 3744 N 373.959 -0.0401083 1.57549 0
M  V30 3745 C 374.869 -1.06133 2.0922 0
M  V30 3746 C 375.885 -1.40356 1.0284 0
M  V30 3747 O 377.061 -1.49897 1.34509 0
M  V30 3748 C 374.126 -2.34658 2.55218 0
M  V30 3749 C 373.187 -2.07117 3.76033 0
M  V30 3750 C 372.42 -3.29514 4.19829 0
M  V30 3751 O 372.643 -4.39794 3.63232 0
M  V30 3752 O 371.577 -3.15863 5.12362 0
M  V30 3753 H 375.403 -0.652244 2.96613 0
M  V30 3754 H 372.988 -0.256368 1.47184 0
M  V30 3755 H 374.87 -3.10239 2.85184 0
M  V30 3756 H 373.545 -2.74883 1.70941 0
M  V30 3757 H 372.452 -1.29139 3.51104 0
M  V30 3758 H 373.785 -1.71754 4.61261 0
M  V30 3759 N 375.437 -1.54477 -0.31217 0
M  V30 3760 C 376.714 -1.63891 -1.06767 0
M  V30 3761 C 377.094 -0.480028 -2.0557 0
M  V30 3762 O 376.442 0.524487 -2.22399 0
M  V30 3763 C 376.652 -3.01402 -1.75948 0
M  V30 3764 C 378 -3.57838 -2.28554 0
M  V30 3765 O 379.024 -3.03782 -1.85998 0
M  V30 3766 O 377.883 -4.52462 -3.06497 0
M  V30 3767 H 374.977 -0.664125 -0.492816 0
M  V30 3768 H 377.523 -1.66823 -0.311149 0
M  V30 3769 H 376.295 -3.77187 -1.04144 0
M  V30 3770 H 375.918 -3.02199 -2.58383 0
M  V30 3771 N 376.915 0.57481 -1.46744 0
M  V30 3772 C 377.825 1.711 -1.60505 0
M  V30 3773 C 378.841 1.67008 -0.488307 0
M  V30 3774 O 380.017 1.86774 -0.753495 0
M  V30 3775 C 377.082 3.07608 -1.59932 0
M  V30 3776 C 376.143 3.22904 -2.82898 0
M  V30 3777 C 375.376 4.529 -2.82343 0
M  V30 3778 O 375.599 5.37278 -1.91542 0
M  V30 3779 O 374.533 4.71611 -3.73987 0
M  V30 3780 H 378.359 1.62436 -2.56609 0
M  V30 3781 H 375.944 0.742779 -1.29627 0
M  V30 3782 H 377.826 3.88877 -1.62336 0
M  V30 3783 H 376.501 3.16692 -0.669898 0
M  V30 3784 H 375.408 2.41099 -2.86046 0
M  V30 3785 H 376.741 3.18715 -3.75076 0
M  V30 3786 N 378.394 1.34581 0.820102 0
M  V30 3787 C 379.641 1.27096 1.57648 0
M  V30 3788 C 379.969 -0.158317 1.93855 0
M  V30 3789 O 379.224 -1.12028 1.60463 0
M  V30 3790 C 379.523 2.10997 2.8847 0
M  V30 3791 C 379.189 3.59966 2.71543 0
M  V30 3792 C 377.851 4.00575 2.66634 0
M  V30 3793 C 380.203 4.54548 2.55021 0
M  V30 3794 C 377.531 5.33953 2.43128 0
M  V30 3795 C 379.883 5.88109 2.33047 0
M  V30 3796 C 378.547 6.27878 2.26552 0
M  V30 3797 H 377.817 0.465078 0.576874 0
M  V30 3798 H 380.464 1.6635 0.948671 0
M  V30 3799 H 378.769 1.6458 3.55557 0
M  V30 3800 H 380.466 2.0255 3.46084 0
M  V30 3801 H 377.056 3.27733 2.76205 0
M  V30 3802 H 381.24 4.24069 2.57835 0
M  V30 3803 H 376.496 5.63781 2.3656 0
M  V30 3804 H 380.67 6.60985 2.19251 0
M  V30 3805 H 378.297 7.31162 2.081 0
M  V30 3806 N 379.872 -1.04064 1.18357 0
M  V30 3807 C 380.802 -2.14001 0.934113 0
M  V30 3808 C 381.783 -1.69616 -0.128186 0
M  V30 3809 O 382.968 -1.94185 0.0244093 0
M  V30 3810 C 380.098 -3.44253 0.459066 0
M  V30 3811 C 379.052 -4.02261 1.46185 0
M  V30 3812 C 378.378 -5.27992 0.844322 0
M  V30 3813 C 379.678 -4.38432 2.83856 0
M  V30 3814 H 381.372 -2.35127 1.85352 0
M  V30 3815 H 378.918 -1.12998 0.892604 0
M  V30 3816 H 380.871 -4.20522 0.271907 0
M  V30 3817 H 379.595 -3.22813 -0.495912 0
M  V30 3818 H 378.254 -3.28074 1.63595 0
M  V30 3819 H 377.902 -5.02862 -0.117845 0
M  V30 3820 H 377.602 -5.67765 1.51384 0
M  V30 3821 H 379.126 -6.06938 0.667693 0
M  V30 3822 H 380.54 -5.05688 2.70098 0
M  V30 3823 H 378.937 -4.89254 3.47491 0
M  V30 3824 H 380.007 -3.4826 3.37406 0
M  V30 3825 N 381.35 -0.985608 -1.22978 0
M  V30 3826 C 382.599 -0.652881 -1.90841 0
M  V30 3827 C 382.912 0.817842 -1.77681 0
M  V30 3828 O 384.118 1.26185 -2.40395 0
M  V30 3829 C 382.574 -1.11717 -3.42122 0
M  V30 3830 C 382.182 -2.6126 -3.63933 0
M  V30 3831 C 383.926 -0.85843 -4.1573 0
M  V30 3832 C 381.833 -3.0133 -5.08876 0
M  V30 3833 H 380.763 -0.240491 -0.714619 0
M  V30 3834 H 383.414 -1.1942 -1.39324 0
M  V30 3835 H 381.796 -0.504027 -3.92779 0
M  V30 3836 H 382.97 -3.27858 -3.23799 0
M  V30 3837 H 381.285 -2.84937 -3.03644 0
M  V30 3838 H 383.882 -1.13359 -5.22546 0
M  V30 3839 H 384.225 0.205461 -4.15793 0
M  V30 3840 H 384.758 -1.43341 -3.71077 0
M  V30 3841 H 381.497 -4.06864 -5.13947 0
M  V30 3842 H 381.017 -2.3943 -5.49939 0
M  V30 3843 H 382.696 -2.92224 -5.77247 0
M  V30 3844 N 382.828 1.3818 -0.7579 0
M  V30 3845 C 383.776 2.32277 -0.122482 0
M  V30 3846 C 384.77 1.54238 0.700505 0
M  V30 3847 O 385.976 1.69737 0.599119 0
M  V30 3848 H 382.351 0.751712 -0.0208143 0
M  V30 3849 H 384.322 2.83469 -0.932099 0
M  V30 3850 C 383.071 3.39447 0.753076 0
M  V30 3851 H 382.394 3.99591 0.129184 0
M  V30 3852 H 383.834 4.07684 1.16489 0
M  V30 3853 C 382.293 2.78375 1.8976 0
M  V30 3854 O 382.823 2.68025 2.99208 0
M  V30 3855 N 381.029 2.36121 1.69397 0
M  V30 3856 H 380.576 2.4474 0.803762 0
M  V30 3857 H 380.534 1.95602 2.46145 0
M  V30 3858 N 384.306 0.507319 1.49211 0
M  V30 3859 C 385.256 -0.287112 2.26185 0
M  V30 3860 C 386.24 -0.929983 1.31302 0
M  V30 3861 O 387.432 -0.836538 1.55984 0
M  V30 3862 C 384.561 -1.34718 3.15763 0
M  V30 3863 C 383.647 -0.710235 4.18111 0
M  V30 3864 N 384.038 0.190836 5.0544 0
M  V30 3865 C 382.336 -0.97009 4.35322 0
M  V30 3866 C 383.037 0.55606 5.79036 0
M  V30 3867 N 382.013 -0.0775232 5.43545 0
M  V30 3868 H 385.815 0.406445 2.91076 0
M  V30 3869 H 383.329 0.323814 1.59139 0
M  V30 3870 H 385.326 -1.92982 3.69545 0
M  V30 3871 H 383.986 -2.04235 2.52424 0
M  V30 3872 H 384.997 0.562047 5.14841 0
M  V30 3873 H 381.674 -1.65753 3.83187 0
M  V30 3874 H 383.064 1.2936 6.5933 0
M  V30 3875 N 385.784 -1.5574 0.241426 0
M  V30 3876 C 387.195 -1.84842 -0.262755 0
M  V30 3877 C 387.546 -1.16317 -1.58003 0
M  V30 3878 O 386.671 -0.439653 -2.11887 0
M  V30 3879 C 387.266 -3.35332 -0.483523 0
M  V30 3880 C 385.825 -3.6468 -0.931977 0
M  V30 3881 C 384.972 -2.77299 -0.0061151 0
M  V30 3882 H 387.923 -1.51761 0.464129 0
M  V30 3883 H 387.944 -3.56615 -1.32688 0
M  V30 3884 H 387.456 -3.85178 0.47537 0
M  V30 3885 H 385.557 -3.20307 -1.90353 0
M  V30 3886 H 385.67 -4.72498 -0.792628 0
M  V30 3887 H 384.034 -2.49408 -0.516503 0
M  V30 3888 H 384.817 -3.2995 0.948052 0
M  V30 3889 N 387.262 0.0317525 -1.57568 0
M  V30 3890 C 388.225 1.01783 -2.0536 0
M  V30 3891 C 389.225 1.29203 -0.957253 0
M  V30 3892 O 390.415 1.24251 -1.22095 0
M  V30 3893 C 387.547 2.35137 -2.46827 0
M  V30 3894 H 388.74 0.605062 -2.93733 0
M  V30 3895 H 386.293 0.278514 -1.53799 0
M  V30 3896 H 387.028 2.81168 -1.61602 0
M  V30 3897 H 386.813 2.16566 -3.26866 0
M  V30 3898 H 388.303 3.05938 -2.84239 0
M  V30 3899 N 388.74 1.54641 0.303973 0
M  V30 3900 C 389.97 1.77511 1.05705 0
M  V30 3901 C 390.378 0.533228 1.81531 0
M  V30 3902 O 389.721 -0.506423 1.76582 0
M  V30 3903 C 389.783 2.92779 2.08617 0
M  V30 3904 C 389.447 4.30977 1.52013 0
M  V30 3905 C 390.444 5.11115 0.9517 0
M  V30 3906 C 388.129 4.77571 1.55665 0
M  V30 3907 C 390.123 6.35966 0.427327 0
M  V30 3908 C 387.81 6.02384 1.02841 0
M  V30 3909 C 388.808 6.81417 0.464713 0
M  V30 3910 O 388.496 8.03881 -0.0555283 0
M  V30 3911 H 388.228 0.59579 0.319391 0
M  V30 3912 H 390.782 2.02401 0.349712 0
M  V30 3913 H 389.012 2.63506 2.83022 0
M  V30 3914 H 390.701 3.03252 2.69802 0
M  V30 3915 H 391.467 4.76264 0.916407 0
M  V30 3916 H 387.346 4.16085 1.9848 0
M  V30 3917 H 390.89 6.97599 -0.0133062 0
M  V30 3918 H 386.787 6.36723 1.06084 0
M  V30 3919 H 387.555 8.18479 0.0580522 0
M  V30 3920 N 390.218 -0.567019 1.47046 0
M  V30 3921 C 391.443 -1.3551 1.57009 0
M  V30 3922 C 391.868 -1.86841 0.217259 0
M  V30 3923 O 391.226 -1.62435 -0.805268 0
M  V30 3924 C 391.274 -2.50777 2.5912 0
M  V30 3925 O 390.378 -3.52706 2.13711 0
M  V30 3926 H 389.719 -0.402919 0.52778 0
M  V30 3927 H 392.249 -0.686241 1.92748 0
M  V30 3928 H 392.259 -2.97481 2.79229 0
M  V30 3929 H 390.934 -2.12771 3.57353 0
M  V30 3930 H 389.511 -3.12374 2.03659 0
M  V30 3931 N 391.696 -1.35014 -0.812953 0
M  V30 3932 C 392.628 -1.23262 -1.93233 0
M  V30 3933 C 393.641 -0.157371 -1.62038 0
M  V30 3934 O 394.83 -0.410096 -1.73725 0
M  V30 3935 C 391.93 -0.87392 -3.27438 0
M  V30 3936 C 391.103 -2.04622 -3.86586 0
M  V30 3937 C 390.162 -1.66432 -4.99186 0
M  V30 3938 O 389.188 -2.38222 -5.16951 0
M  V30 3939 N 390.39 -0.584248 -5.77552 0
M  V30 3940 H 393.155 -2.19699 -2.03844 0
M  V30 3941 H 390.716 -1.281 -0.99005 0
M  V30 3942 H 392.708 -0.600039 -4.00227 0
M  V30 3943 H 391.278 0.00057392 -3.126 0
M  V30 3944 H 390.498 -2.48427 -3.06068 0
M  V30 3945 H 391.786 -2.82999 -4.22835 0
M  V30 3946 H 391.184 0.0123526 -5.65699 0
M  V30 3947 H 389.741 -0.37013 -6.50748 0
M  V30 3948 N 393.175 1.03435 -1.18907 0
M  V30 3949 C 394.122 2.11591 -0.921837 0
M  V30 3950 C 395.092 1.65499 0.141226 0
M  V30 3951 O 396.277 1.908 0.000242829 0
M  V30 3952 C 393.417 3.42012 -0.460616 0
M  V30 3953 C 392.53 4.01682 -1.58982 0
M  V30 3954 C 391.665 5.20091 -1.08069 0
M  V30 3955 C 390.704 5.71805 -2.18416 0
M  V30 3956 N 389.841 6.81494 -1.68849 0
M  V30 3957 H 394.681 2.33787 -1.8479 0
M  V30 3958 H 392.218 1.1467 -0.921373 0
M  V30 3959 H 394.176 4.16834 -0.174642 0
M  V30 3960 H 392.806 3.19944 0.428467 0
M  V30 3961 H 391.858 3.24127 -1.99113 0
M  V30 3962 H 393.17 4.36084 -2.4214 0
M  V30 3963 H 392.324 6.02051 -0.749615 0
M  V30 3964 H 391.063 4.87209 -0.218771 0
M  V30 3965 H 390.068 4.88461 -2.5236 0
M  V30 3966 H 391.293 6.06728 -3.05054 0
M  V30 3967 H 389.239 6.50475 -0.849572 0
M  V30 3968 H 389.156 7.14994 -2.45601 0
M  V30 3969 H 390.424 7.67063 -1.38689 0
M  V30 3970 N 394.653 0.992116 1.22453 0
M  V30 3971 C 395.616 0.546883 2.2258 0
M  V30 3972 C 396.616 -0.369829 1.56489 0
M  V30 3973 O 397.806 -0.161896 1.73446 0
M  V30 3974 C 394.938 -0.204659 3.40285 0
M  V30 3975 H 396.131 1.43234 2.63484 0
M  V30 3976 H 393.684 0.779239 1.3549 0
M  V30 3977 H 394.419 -1.10614 3.04853 0
M  V30 3978 H 394.204 0.45354 3.89468 0
M  V30 3979 H 395.694 -0.504358 4.14543 0
M  V30 3980 N 396.131 -1.37776 0.765217 0
M  V30 3981 C 397.379 -1.99454 0.325943 0
M  V30 3982 C 397.7 -1.61049 -1.09947 0
M  V30 3983 O 396.97 -0.872821 -1.75381 0
M  V30 3984 H 395.55 -0.737697 0.117525 0
M  V30 3985 H 398.212 -1.68359 0.981895 0
M  V30 3986 H 397.308 -3.09547 0.398353 0
M  V30 3987 N 397.609 -0.515225 -1.4894 0
M  V30 3988 C 399.025 -0.172099 -1.58669 0
M  V30 3989 C 399.225 1.32405 -1.51892 0
M  V30 3990 O 398.281 2.10116 -1.40027 0
M  V30 3991 C 399.594 -0.761533 -2.90897 0
M  V30 3992 C 401.142 -0.728926 -3.04394 0
M  V30 3993 C 401.617 -1.29667 -4.39261 0
M  V30 3994 N 403.108 -1.25799 -4.4579 0
M  V30 3995 C 403.843 -1.66733 -5.48623 0
M  V30 3996 N 403.339 -2.15327 -6.58488 0
M  V30 3997 N 405.132 -1.58061 -5.39419 0
M  V30 3998 H 397.283 -1.48778 -1.51588 0
M  V30 3999 H 399.546 -0.617968 -0.718901 0
M  V30 4000 H 399.252 -1.81136 -3.01468 0
M  V30 4001 H 399.126 -0.230106 -3.76497 0
M  V30 4002 H 401.513 0.312098 -2.93445 0
M  V30 4003 H 401.594 -1.29766 -2.20442 0
M  V30 4004 H 401.238 -2.33655 -4.50963 0
M  V30 4005 H 401.168 -0.703752 -5.21876 0
M  V30 4006 H 403.659 -0.902102 -3.66975 0
M  V30 4007 H 403.972 -2.44594 -7.33071 0
M  V30 4008 H 402.317 -2.19311 -6.59491 0
M  V30 4009 H 405.508 -1.19906 -4.52482 0
M  V30 4010 H 405.681 -1.90284 -6.19432 0
M  V30 4011 N 399.087 1.5561 -0.249682 0
M  V30 4012 C 400.017 2.24477 0.642826 0
M  V30 4013 C 400.998 1.22601 1.17911 0
M  V30 4014 O 402.183 1.5126 1.21795 0
M  V30 4015 C 399.313 2.94638 1.83863 0
M  V30 4016 C 398.267 4.03227 1.435 0
M  V30 4017 C 397.593 4.60828 2.71186 0
M  V30 4018 C 398.893 5.18796 0.604002 0
M  V30 4019 H 400.587 2.99321 0.0685625 0
M  V30 4020 H 398.133 1.43965 0.0315363 0
M  V30 4021 H 400.086 3.41517 2.46868 0
M  V30 4022 H 398.81 2.17287 2.43832 0
M  V30 4023 H 397.469 3.57121 0.828275 0
M  V30 4024 H 397.117 3.80174 3.29358 0
M  V30 4025 H 396.817 5.34132 2.44901 0
M  V30 4026 H 398.341 5.10442 3.35084 0
M  V30 4027 H 399.755 5.61883 1.13842 0
M  V30 4028 H 398.152 5.98506 0.437097 0
M  V30 4029 H 399.222 4.83384 -0.383147 0
M  V30 4030 N 400.565 -0.0233959 1.57583 0
M  V30 4031 C 401.811 -0.714119 1.89811 0
M  V30 4032 C 402.144 -1.74702 0.848113 0
M  V30 4033 O 401.419 -1.94023 -0.136135 0
M  V30 4034 C 401.702 -1.37853 3.32669 0
M  V30 4035 C 401.555 -0.358764 4.48367 0
M  V30 4036 C 402.874 -2.31101 3.7454 0
M  V30 4037 H 399.993 -0.25814 0.690314 0
M  V30 4038 H 402.635 0.0230927 1.89986 0
M  V30 4039 H 400.785 -2.00689 3.3265 0
M  V30 4040 H 402.457 0.268115 4.6052 0
M  V30 4041 H 400.7 0.321387 4.32608 0
M  V30 4042 H 401.371 -0.862242 5.45224 0
M  V30 4043 H 403.847 -1.78304 3.75961 0
M  V30 4044 H 402.723 -2.74567 4.75294 0
M  V30 4045 H 402.984 -3.18018 3.0711 0
M  V30 4046 N 402.043 -1.548 -0.295768 0
M  V30 4047 C 403.289 -1.75517 -1.02789 0
M  V30 4048 C 403.644 -0.537266 -1.84746 0
M  V30 4049 O 402.937 0.470299 -1.85738 0
M  V30 4050 C 403.131 -2.98797 -1.961 0
M  V30 4051 C 402.96 -4.3246 -1.23321 0
M  V30 4052 C 401.73 -4.96131 -0.95822 0
M  V30 4053 C 403.928 -5.10365 -0.635024 0
M  V30 4054 N 401.91 -6.1357 -0.201257 0
M  V30 4055 C 403.281 -6.19999 -0.0110937 0
M  V30 4056 C 405.336 -4.94957 -0.540594 0
M  V30 4057 C 404.039 -7.15904 0.698136 0
M  V30 4058 C 406.065 -5.91197 0.154992 0
M  V30 4059 C 405.427 -7.00203 0.767752 0
M  V30 4060 H 401.526 -0.694786 -0.358882 0
M  V30 4061 H 404.11 -1.92281 -0.305943 0
M  V30 4062 H 402.281 -2.83448 -2.6554 0
M  V30 4063 H 404.013 -3.08017 -2.62502 0
M  V30 4064 H 400.768 -4.56595 -1.25771 0
M  V30 4065 H 401.192 -6.76802 0.16389 0
M  V30 4066 H 405.834 -4.10803 -1.00003 0
M  V30 4067 H 403.552 -7.99595 1.16933 0
M  V30 4068 H 407.138 -5.81353 0.228069 0
M  V30 4069 H 406.018 -7.73393 1.29743 0
M  V30 4070 N 403.521 0.559213 -1.47345 0
M  V30 4071 C 404.932 1.14134 -1.47751 0
M  V30 4072 C 405.283 1.94834 -0.231103 0
M  V30 4073 O 404.408 2.05957 0.664137 0
M  V30 4074 C 405.003 2.07653 -2.67705 0
M  V30 4075 C 403.562 2.61141 -2.71076 0
M  V30 4076 C 402.709 1.3748 -2.40821 0
M  V30 4077 H 405.66 0.345917 -1.54884 0
M  V30 4078 H 405.681 2.91497 -2.44561 0
M  V30 4079 H 405.193 1.4889 -3.58404 0
M  V30 4080 H 403.294 3.23707 -1.84511 0
M  V30 4081 H 403.407 3.02272 -3.7171 0
M  V30 4082 H 401.771 1.68086 -1.91362 0
M  V30 4083 H 402.554 0.805135 -3.33725 0
M  V30 4084 N 404.999 1.35443 0.805782 0
M  V30 4085 C 406.227 1.31878 1.59423 0
M  V30 4086 C 406.642 -0.103562 1.88516 0
M  V30 4087 O 405.999 -1.05575 1.48863 0
M  V30 4088 C 406.05 2.12426 2.92502 0
M  V30 4089 O 405.771 3.49115 2.6467 0
M  V30 4090 C 407.272 2.16455 3.86862 0
M  V30 4091 H 404.492 0.453002 0.495005 0
M  V30 4092 H 407.036 1.78309 1.00131 0
M  V30 4093 H 405.191 1.69593 3.48306 0
M  V30 4094 H 405.605 3.90957 3.49647 0
M  V30 4095 H 407.079 2.77204 4.77349 0
M  V30 4096 H 407.556 1.16352 4.23508 0
M  V30 4097 H 408.162 2.59453 3.36993 0
M  V30 4098 N 406.477 -1.02803 1.19454 0
M  V30 4099 C 407.707 -1.79581 1.02149 0
M  V30 4100 C 408.115 -1.84182 -0.432851 0
M  V30 4101 O 407.458 -1.28534 -1.31243 0
M  V30 4102 C 407.52 -3.25993 1.51554 0
M  V30 4103 C 407.184 -3.45025 2.99678 0
M  V30 4104 C 408.181 -3.35175 3.97434 0
M  V30 4105 C 405.866 -3.71212 3.38389 0
M  V30 4106 C 407.86 -3.51238 5.31893 0
M  V30 4107 C 405.547 -3.8692 4.73008 0
M  V30 4108 C 406.545 -3.76936 5.69569 0
M  V30 4109 O 406.233 -3.92179 7.01748 0
M  V30 4110 H 405.965 -0.571962 0.360327 0
M  V30 4111 H 408.519 -1.30367 1.58725 0
M  V30 4112 H 406.749 -3.76235 0.893543 0
M  V30 4113 H 408.438 -3.84368 1.30444 0
M  V30 4114 H 409.204 -3.14895 3.68872 0
M  V30 4115 H 405.083 -3.78075 2.6378 0
M  V30 4116 H 408.627 -3.43362 6.07247 0
M  V30 4117 H 404.524 -4.06699 5.01265 0
M  V30 4118 H 405.292 -4.09265 7.08833 0
M  V30 4119 N 407.956 -0.998596 -1.21925 0
M  V30 4120 C 409.184 -0.696286 -1.94832 0
M  V30 4121 C 409.599 0.740032 -1.73692 0
M  V30 4122 O 408.956 1.5 -1.03953 0
M  V30 4123 C 409.007 -0.999833 -3.47398 0
M  V30 4124 O 408.728 -2.37972 -3.67833 0
M  V30 4125 C 410.229 -0.716025 -4.37479 0
M  V30 4126 H 407.449 -0.257111 -0.619786 0
M  V30 4127 H 409.993 -1.33491 -1.54921 0
M  V30 4128 H 408.148 -0.406918 -3.85257 0
M  V30 4129 H 408.562 -2.48338 -4.61983 0
M  V30 4130 H 410.036 -0.978642 -5.43256 0
M  V30 4131 H 410.513 0.349968 -4.37803 0
M  V30 4132 H 411.119 -1.29025 -4.05256 0
M  V30 4133 N 409.434 1.37368 -0.772513 0
M  V30 4134 C 410.682 1.99279 -0.336516 0
M  V30 4135 C 411.003 1.6163 1.09091 0
M  V30 4136 O 410.273 0.882109 1.74916 0
M  V30 4137 H 408.853 0.737063 -0.121435 0
M  V30 4138 H 411.515 1.67836 -0.990809 0
M  V30 4139 H 410.611 3.09332 -0.414763 0
M  V30 4140 N 410.912 0.523116 1.48665 0
M  V30 4141 C 411.859 -0.243398 2.29513 0
M  V30 4142 C 412.829 -0.940139 1.36933 0
M  V30 4143 O 414.014 -0.942503 1.65896 0
M  V30 4144 C 411.154 -1.28855 3.20141 0
M  V30 4145 C 410.267 -0.60135 4.27794 0
M  V30 4146 C 409.402 -1.62884 5.05611 0
M  V30 4147 C 408.441 -0.924726 6.05075 0
M  V30 4148 N 407.578 -1.89744 6.75975 0
M  V30 4149 H 412.418 0.452234 2.94549 0
M  V30 4150 H 409.955 0.234858 1.45213 0
M  V30 4151 H 411.913 -1.90674 3.71079 0
M  V30 4152 H 410.543 -1.95266 2.57043 0
M  V30 4153 H 409.595 0.130623 3.80176 0
M  V30 4154 H 410.907 -0.0481585 4.98777 0
M  V30 4155 H 410.061 -2.32149 5.60528 0
M  V30 4156 H 408.8 -2.21592 4.34452 0
M  V30 4157 H 407.805 -0.217966 5.49368 0
M  V30 4158 H 409.03 -0.343851 6.78229 0
M  V30 4159 H 406.976 -2.47373 6.07571 0
M  V30 4160 H 406.893 -1.3955 7.43009 0
M  V30 4161 H 408.161 -2.58229 7.35485 0
M  V30 4162 N 412.39 -1.55475 0.257931 0
M  V30 4163 C 413.639 -1.98383 -0.364275 0
M  V30 4164 C 413.952 -1.14952 -1.58258 0
M  V30 4165 O 415.158 -1.47924 -2.27664 0
M  V30 4166 C 413.614 -3.53037 -0.699479 0
M  V30 4167 C 413.222 -4.45223 0.498046 0
M  V30 4168 C 414.966 -4.04575 -1.28526 0
M  V30 4169 C 412.873 -5.91238 0.138383 0
M  V30 4170 H 411.803 -0.740911 -0.13988 0
M  V30 4171 H 414.454 -1.79936 0.359883 0
M  V30 4172 H 412.836 -3.6722 -1.48207 0
M  V30 4173 H 414.01 -4.42803 1.27522 0
M  V30 4174 H 412.325 -4.04226 0.999503 0
M  V30 4175 H 414.922 -5.11196 -1.56788 0
M  V30 4176 H 415.265 -3.5258 -2.21344 0
M  V30 4177 H 415.798 -3.93762 -0.565337 0
M  V30 4178 H 412.537 -6.47294 1.03398 0
M  V30 4179 H 412.057 -5.96768 -0.602374 0
M  V30 4180 H 413.736 -6.46413 -0.27553 0
M  V30 4181 N 413.868 0.0150385 -1.57593 0
M  V30 4182 C 414.818 1.01943 -2.0394 0
M  V30 4183 C 415.802 1.31209 -0.931286 0
M  V30 4184 O 416.994 1.30559 -1.19513 0
M  V30 4185 C 414.123 2.31621 -2.53391 0
M  V30 4186 C 413.209 2.05384 -3.7105 0
M  V30 4187 N 413.6 1.49253 -4.83278 0
M  V30 4188 C 411.898 2.35601 -3.78693 0
M  V30 4189 C 412.599 1.39143 -5.64813 0
M  V30 4190 N 411.575 1.87187 -5.10355 0
M  V30 4191 H 415.377 0.57969 -2.88126 0
M  V30 4192 H 412.891 0.221056 -1.60888 0
M  V30 4193 H 414.888 3.044 -2.84862 0
M  V30 4194 H 413.548 2.76261 -1.70616 0
M  V30 4195 H 414.559 1.17334 -5.04433 0
M  V30 4196 H 411.236 2.8322 -3.06746 0
M  V30 4197 H 412.626 0.961153 -6.6499 0
M  V30 4198 N 415.346 1.54954 0.287554 0
M  V30 4199 C 416.278 1.83224 1.37701 0
M  V30 4200 C 417.291 0.715898 1.46215 0
M  V30 4201 O 418.48 0.993565 1.48292 0
M  V30 4202 C 415.58 1.96723 2.75959 0
M  V30 4203 C 414.753 3.27253 2.90215 0
M  V30 4204 C 413.812 3.30998 4.09056 0
M  V30 4205 O 412.838 4.04457 4.00503 0
M  V30 4206 N 414.04 2.57353 5.20336 0
M  V30 4207 H 416.805 2.77254 1.138 0
M  V30 4208 H 414.366 1.54694 0.477652 0
M  V30 4209 H 416.358 1.96615 3.5373 0
M  V30 4210 H 414.928 1.09626 2.92747 0
M  V30 4211 H 414.148 3.40022 1.99447 0
M  V30 4212 H 415.436 4.13365 2.96659 0
M  V30 4213 H 414.834 1.97327 5.30169 0
M  V30 4214 H 413.391 2.62984 5.96391 0
M  V30 4215 N 416.824 -0.551391 1.4764 0
M  V30 4216 C 418.073 -1.30467 1.53822 0
M  V30 4217 C 418.386 -1.94495 0.207661 0
M  V30 4218 O 419.592 -2.71099 0.147533 0
M  V30 4219 C 418.048 -2.36616 2.71184 0
M  V30 4220 C 417.656 -1.78754 4.10793 0
M  V30 4221 C 419.4 -3.13088 2.86663 0
M  V30 4222 C 417.307 -2.82717 5.19447 0
M  V30 4223 H 416.237 -0.490584 0.572576 0
M  V30 4224 H 418.888 -0.58494 1.73927 0
M  V30 4225 H 417.27 -3.11529 2.4447 0
M  V30 4226 H 418.444 -1.10173 4.47435 0
M  V30 4227 H 416.759 -1.14846 4.00249 0
M  V30 4228 H 419.356 -3.90736 3.65007 0
M  V30 4229 H 419.699 -3.67635 1.95321 0
M  V30 4230 H 420.232 -2.45288 3.13175 0
M  V30 4231 H 416.971 -2.33018 6.12685 0
M  V30 4232 H 416.491 -3.4969 4.87316 0
M  V30 4233 H 418.17 -3.46102 5.46646 0
M  V30 4234 N 418.302 -1.35869 -0.798587 0
M  V30 4235 C 419.579 -1.20145 -1.54352 0
M  V30 4236 C 419.959 0.216161 -2.0999 0
M  V30 4237 O 419.307 1.22068 -1.93162 0
M  V30 4238 C 419.517 -2.27602 -2.64572 0
M  V30 4239 C 420.865 -2.63811 -3.32699 0
M  V30 4240 O 421.889 -2.26576 -2.74849 0
M  V30 4241 O 420.748 -3.27866 -4.37226 0
M  V30 4242 H 417.842 -0.467248 -0.682355 0
M  V30 4243 H 420.388 -1.47574 -0.837859 0
M  V30 4244 H 419.16 -3.2265 -2.21388 0
M  V30 4245 H 418.783 -2.01488 -3.42766 0
M  V30 4246 N 419.78 1.02168 -1.19998 0
M  V30 4247 C 420.71 2.12488 -0.96804 0
M  V30 4248 C 421.691 1.69799 0.101185 0
M  V30 4249 O 422.876 1.94121 -0.0552993 0
M  V30 4250 C 420.006 3.43479 -0.513776 0
M  V30 4251 C 418.96 3.99884 -1.52566 0
M  V30 4252 C 418.286 5.26582 -0.928214 0
M  V30 4253 C 419.586 4.33861 -2.90795 0
M  V30 4254 H 421.28 2.32149 -1.89069 0
M  V30 4255 H 418.826 1.11564 -0.910468 0
M  V30 4256 H 420.779 4.20036 -0.338774 0
M  V30 4257 H 419.503 3.23561 0.444493 0
M  V30 4258 H 418.162 3.25429 -1.68794 0
M  V30 4259 H 417.81 5.02986 0.0378289 0
M  V30 4260 H 417.51 5.65284 -1.60397 0
M  V30 4261 H 419.034 6.05799 -0.764167 0
M  V30 4262 H 420.448 5.01327 -2.78109 0
M  V30 4263 H 418.845 4.83664 -3.55231 0
M  V30 4264 H 419.915 3.42848 -3.42904 0
M  V30 4265 N 421.258 1.00505 1.21394 0
M  V30 4266 C 422.483 0.706367 1.95001 0
M  V30 4267 C 422.908 -0.72463 1.73582 0
M  V30 4268 O 422.266 -1.49702 1.0227 0
M  V30 4269 C 422.314 1.03299 3.45487 0
M  V30 4270 O 421.418 0.138275 4.12168 0
M  V30 4271 H 420.759 0.263175 0.609619 0
M  V30 4272 H 423.289 1.34531 1.54151 0
M  V30 4273 H 423.299 0.979872 3.96059 0
M  V30 4274 H 421.974 2.07567 3.60401 0
M  V30 4275 H 420.551 0.247928 3.72075 0
M  V30 4276 N 422.737 -1.36956 0.779787 0
M  V30 4277 C 423.962 -2.04283 0.358224 0
M  V30 4278 C 424.387 -1.58422 -1.01411 0
M  V30 4279 O 423.745 -0.748179 -1.65142 0
M  V30 4280 C 423.793 -3.58152 0.419479 0
M  V30 4281 O 422.897 -4.08342 -0.577142 0
M  V30 4282 H 422.238 -0.645967 0.153698 0
M  V30 4283 H 424.768 -1.75108 1.05822 0
M  V30 4284 H 424.778 -4.07041 0.279636 0
M  V30 4285 H 423.453 -3.90886 1.42061 0
M  V30 4286 H 422.03 -3.70751 -0.399755 0
M  V30 4287 N 424.215 -0.530993 -1.48385 0
M  V30 4288 C 425.463 0.00273189 -2.021 0
M  V30 4289 C 425.784 1.34672 -1.41027 0
M  V30 4290 O 425.054 1.8724 -0.576012 0
M  V30 4291 H 423.634 0.00399774 -0.746989 0
M  V30 4292 H 426.296 -0.695054 -1.82085 0
M  V30 4293 H 425.392 0.11031 -3.11905 0
M  V30 4294 N 425.693 1.55336 -0.266172 0
M  V30 4295 C 426.97 1.91372 0.404486 0
M  V30 4296 C 427.35 1.18935 1.74407 0
M  V30 4297 O 426.698 0.3132 2.26343 0
M  V30 4298 C 426.908 3.44581 0.553593 0
M  V30 4299 C 428.256 4.16196 0.840618 0
M  V30 4300 O 429.28 3.50426 0.638739 0
M  V30 4301 O 428.139 5.32567 1.22618 0
M  V30 4302 H 425.233 0.797194 0.220025 0
M  V30 4303 H 427.779 1.66813 -0.311664 0
M  V30 4304 H 426.551 3.89357 -0.389498 0
M  V30 4305 H 426.174 3.75065 1.31955 0
M  V30 4306 N 427.171 -0.0066808 1.57599 0
M  V30 4307 C 428.134 -0.985035 2.06953 0
M  V30 4308 C 429.134 -1.27663 0.977687 0
M  V30 4309 O 430.324 -1.22293 1.24057 0
M  V30 4310 C 427.456 -2.3118 2.50536 0
M  V30 4311 H 428.649 -0.558255 2.94658 0
M  V30 4312 H 426.202 -0.254011 1.54222 0
M  V30 4313 H 426.937 -2.78561 1.66054 0
M  V30 4314 H 426.722 -2.11338 3.3027 0
M  V30 4315 H 428.212 -3.01377 2.8907 0
M  V30 4316 N 428.649 -1.55105 -0.279332 0
M  V30 4317 C 429.596 -1.8755 -1.34513 0
M  V30 4318 C 430.566 -0.726384 -1.49375 0
M  V30 4319 O 431.751 -0.977063 -1.63884 0
M  V30 4320 C 428.891 -2.14738 -2.70151 0
M  V30 4321 C 428.004 -3.42285 -2.63562 0
M  V30 4322 C 427.139 -3.59206 -3.91337 0
M  V30 4323 C 426.178 -4.80467 -3.79233 0
M  V30 4324 N 425.315 -4.94079 -4.98829 0
M  V30 4325 H 430.155 -2.78456 -1.06143 0
M  V30 4326 H 427.692 -1.37867 -0.512936 0
M  V30 4327 H 429.65 -2.28501 -3.49061 0
M  V30 4328 H 428.28 -1.27075 -2.96735 0
M  V30 4329 H 427.332 -3.37029 -1.76397 0
M  V30 4330 H 428.644 -4.31328 -2.50515 0
M  V30 4331 H 427.798 -3.72751 -4.78687 0
M  V30 4332 H 426.537 -2.68337 -4.07243 0
M  V30 4333 H 425.542 -4.66932 -2.90266 0
M  V30 4334 H 426.767 -5.72765 -3.64852 0
M  V30 4335 H 424.713 -4.06139 -5.15158 0
M  V30 4336 H 424.63 -5.77156 -4.8829 0
M  V30 4337 H 425.898 -5.12003 -5.8777 0
M  V30 4338 N 430.127 0.543554 -1.4793 0
M  V30 4339 C 431.374 1.30008 -1.55255 0
M  V30 4340 C 431.702 1.93245 -0.220612 0
M  V30 4341 O 430.957 1.79141 0.787843 0
M  V30 4342 C 431.256 2.42078 -2.62932 0
M  V30 4343 C 430.922 1.96583 -4.0579 0
M  V30 4344 C 429.584 1.83893 -4.44676 0
M  V30 4345 C 431.936 1.62034 -4.95373 0
M  V30 4346 C 429.264 1.34969 -5.70964 0
M  V30 4347 C 431.616 1.14577 -6.22137 0
M  V30 4348 C 430.28 1.00493 -6.59892 0
M  V30 4349 H 429.55 0.475735 -0.568117 0
M  V30 4350 H 432.197 0.608075 -1.81589 0
M  V30 4351 H 430.502 3.16892 -2.30406 0
M  V30 4352 H 432.199 3.00236 -2.65818 0
M  V30 4353 H 428.789 2.07407 -3.75074 0
M  V30 4354 H 432.973 1.70705 -4.66019 0
M  V30 4355 H 428.229 1.2274 -5.98953 0
M  V30 4356 H 432.403 0.869109 -6.90955 0
M  V30 4357 H 430.03 0.623624 -7.57638 0
M  V30 4358 N 431.605 1.3629 0.791371 0
M  V30 4359 C 432.535 1.33137 1.91825 0
M  V30 4360 C 433.516 0.203168 1.68882 0
M  V30 4361 O 434.701 0.400509 1.90025 0
M  V30 4362 C 431.831 1.11793 3.28816 0
M  V30 4363 C 430.785 2.21417 3.66277 0
M  V30 4364 C 430.111 1.85218 5.01596 0
M  V30 4365 C 431.411 3.63489 3.75064 0
M  V30 4366 H 433.105 2.2743 1.9472 0
M  V30 4367 H 430.651 1.09479 0.935437 0
M  V30 4368 H 432.604 1.08222 4.07266 0
M  V30 4369 H 431.328 0.139501 3.26302 0
M  V30 4370 H 429.987 2.2411 2.90121 0
M  V30 4371 H 429.635 0.859544 4.95602 0
M  V30 4372 H 429.335 2.58611 5.27631 0
M  V30 4373 H 430.859 1.832 5.82469 0
M  V30 4374 H 432.273 3.63034 4.43711 0
M  V30 4375 H 430.67 4.35771 4.12582 0
M  V30 4376 H 431.74 3.98536 2.76219 0
M  V30 4377 N 433.083 -1.0153 1.20538 0
M  V30 4378 C 434.494 -1.56598 1.01657 0
M  V30 4379 C 434.845 -1.91505 -0.426668 0
M  V30 4380 O 433.97 -1.72375 -1.30827 0
M  V30 4381 C 434.565 -2.84542 1.83905 0
M  V30 4382 C 433.124 -3.36133 1.69386 0
M  V30 4383 C 432.271 -2.09427 1.81757 0
M  V30 4384 H 435.222 -0.838974 1.34711 0
M  V30 4385 H 435.243 -3.56004 1.34319 0
M  V30 4386 H 434.755 -2.59105 2.8894 0
M  V30 4387 H 432.856 -3.66528 0.669933 0
M  V30 4388 H 432.969 -4.08248 2.50739 0
M  V30 4389 H 431.333 -2.21941 1.24957 0
M  V30 4390 H 432.116 -1.86414 2.88279 0
M  V30 4391 N 434.561 -1.01147 -1.20859 0
M  V30 4392 C 435.524 -0.582224 -2.21682 0
M  V30 4393 C 436.524 0.344887 -1.57058 0
M  V30 4394 O 437.714 0.134281 -1.73682 0
M  V30 4395 C 434.846 0.150496 -3.40568 0
M  V30 4396 H 436.039 -1.47408 -2.61172 0
M  V30 4397 H 433.592 -0.800695 -1.34233 0
M  V30 4398 H 434.327 1.0575 -3.06574 0
M  V30 4399 H 434.112 -0.515444 -3.88697 0
M  V30 4400 H 435.602 0.438344 -4.15293 0
M  V30 4401 N 436.039 1.36541 -0.78704 0
M  V30 4402 C 437.285 1.99599 -0.358872 0
M  V30 4403 C 437.618 1.62323 1.06606 0
M  V30 4404 O 436.893 0.876858 1.73613 0
M  V30 4405 C 437.176 3.56327 -0.519944 0
M  V30 4406 C 437.029 4.03464 -1.98839 0
M  V30 4407 C 438.348 4.4005 0.0664737 0
M  V30 4408 H 435.467 0.725107 -0.131869 0
M  V30 4409 H 438.109 1.6199 -0.992936 0
M  V30 4410 H 436.259 3.88495 0.0198321 0
M  V30 4411 H 437.931 3.81793 -2.58905 0
M  V30 4412 H 436.174 3.55092 -2.49183 0
M  V30 4413 H 436.845 5.12439 -2.05207 0
M  V30 4414 H 439.321 4.14228 -0.394267 0
M  V30 4415 H 438.197 5.48847 -0.0762682 0
M  V30 4416 H 438.458 4.26655 1.15835 0
M  V30 4417 N 437.518 0.538854 1.48102 0
M  V30 4418 C 438.428 -0.222648 2.33541 0
M  V30 4419 C 439.444 -0.930225 1.47047 0
M  V30 4420 O 440.62 -0.903211 1.80011 0
M  V30 4421 C 437.685 -1.25064 3.23357 0
M  V30 4422 C 436.746 -0.552469 4.2573 0
M  V30 4423 C 435.979 -1.53149 5.11254 0
M  V30 4424 O 436.202 -2.76487 4.9891 0
M  V30 4425 O 435.136 -1.06602 5.92385 0
M  V30 4426 H 438.962 0.477707 2.99919 0
M  V30 4427 H 436.547 0.299669 1.46364 0
M  V30 4428 H 438.429 -1.8445 3.78888 0
M  V30 4429 H 437.104 -1.93325 2.59629 0
M  V30 4430 H 436.011 0.082114 3.7401 0
M  V30 4431 H 437.344 0.0883526 4.92121 0
M  V30 4432 N 438.996 -1.55193 0.274407 0
M  V30 4433 C 439.959 -2.212 -0.600279 0
M  V30 4434 C 440.959 -1.18963 -1.08187 0
M  V30 4435 O 442.149 -1.43873 -0.982158 0
M  V30 4436 C 439.281 -2.87739 -1.82809 0
M  V30 4437 H 440.474 -2.9989 -0.0239682 0
M  V30 4438 H 438.027 -1.5628 0.0250192 0
M  V30 4439 H 438.762 -2.13058 -2.44493 0
M  V30 4440 H 438.547 -3.62658 -1.49069 0
M  V30 4441 H 440.037 -3.38171 -2.45011 0
M  V30 4442 N 440.474 -0.00167713 -1.576 0
M  V30 4443 C 441.404 0.988091 -2.11563 0
M  V30 4444 C 442.385 1.35736 -1.02517 0
M  V30 4445 O 443.57 1.44082 -1.30208 0
M  V30 4446 C 440.7 2.27941 -2.62031 0
M  V30 4447 C 439.654 2.0517 -3.75619 0
M  V30 4448 C 438.98 3.4033 -4.12407 0
M  V30 4449 C 440.28 1.41294 -5.02825 0
M  V30 4450 H 441.974 0.538771 -2.94513 0
M  V30 4451 H 439.52 0.257712 -1.41675 0
M  V30 4452 H 441.473 2.97539 -2.9841 0
M  V30 4453 H 440.197 2.74989 -1.76205 0
M  V30 4454 H 438.856 1.37998 -3.39635 0
M  V30 4455 H 438.504 3.85085 -3.23603 0
M  V30 4456 H 438.204 3.25909 -4.88935 0
M  V30 4457 H 439.728 4.1124 -4.51347 0
M  V30 4458 H 441.142 2.00851 -5.36965 0
M  V30 4459 H 439.539 1.37356 -5.84169 0
M  V30 4460 H 440.609 0.382362 -4.8339 0
M  V30 4461 N 441.952 1.55251 0.271103 0
M  V30 4462 C 443.18 1.79974 1.02064 0
M  V30 4463 C 443.595 0.574003 1.79863 0
M  V30 4464 O 442.952 -0.456962 1.76686 0
M  V30 4465 C 443.003 3.02603 1.97772 0
M  V30 4466 O 442.724 4.20443 1.23124 0
M  V30 4467 C 444.225 3.39944 2.84522 0
M  V30 4468 H 441.445 0.599489 0.301419 0
M  V30 4469 H 443.989 2.02268 0.301313 0
M  V30 4470 H 442.144 2.8243 2.65165 0
M  V30 4471 H 442.558 4.89783 1.87651 0
M  V30 4472 H 444.032 4.28915 3.47471 0
M  V30 4473 H 444.509 2.59432 3.54389 0
M  V30 4474 H 445.115 3.62383 2.22618 0
M  V30 4475 N 443.43 -0.535701 1.48216 0
M  V30 4476 C 444.34 -1.66785 1.64985 0
M  V30 4477 C 445.356 -1.65654 0.532414 0
M  V30 4478 O 446.532 -1.8471 0.80275 0
M  V30 4479 C 443.597 -3.0326 1.68031 0
M  V30 4480 C 442.658 -3.1529 2.9136 0
M  V30 4481 C 441.891 -4.45255 2.94252 0
M  V30 4482 O 442.114 -5.32011 2.05719 0
M  V30 4483 O 441.048 -4.6153 3.86359 0
M  V30 4484 H 444.874 -1.55576 2.60825 0
M  V30 4485 H 442.459 -0.70815 1.31551 0
M  V30 4486 H 444.341 -3.84436 1.72589 0
M  V30 4487 H 443.016 -3.14805 0.753628 0
M  V30 4488 H 441.923 -2.3343 2.92337 0
M  V30 4489 H 443.256 -3.08658 3.83394 0
M  V30 4490 N 444.908 -1.36708 -0.784132 0
M  V30 4491 C 445.871 -1.31307 -1.87859 0
M  V30 4492 C 446.871 -0.219654 -1.59293 0
M  V30 4493 O 448.061 -0.47476 -1.67606 0
M  V30 4494 C 445.193 -1.03679 -3.24751 0
M  V30 4495 H 446.386 -2.28647 -1.94064 0
M  V30 4496 H 443.939 -1.21558 -0.98252 0
M  V30 4497 H 444.674 -0.0681936 -3.24228 0
M  V30 4498 H 444.459 -1.82811 -3.46876 0
M  V30 4499 H 445.949 -1.02518 -4.04821 0
M  V30 4500 N 446.386 1.0089 -1.21074 0
M  V30 4501 C 447.296 2.13039 -0.982425 0
M  V30 4502 C 448.312 1.73881 0.0642161 0
M  V30 4503 O 449.488 2.01012 -0.12496 0
M  V30 4504 C 446.553 3.42377 -0.545803 0
M  V30 4505 C 445.614 3.95731 -1.6642 0
M  V30 4506 C 444.847 5.18896 -1.24832 0
M  V30 4507 O 445.07 5.70273 -0.120265 0
M  V30 4508 O 444.004 5.65597 -2.05873 0
M  V30 4509 H 447.83 2.35175 -1.92163 0
M  V30 4510 H 445.415 1.1142 -0.995285 0
M  V30 4511 H 447.297 4.20244 -0.311912 0
M  V30 4512 H 445.972 3.21639 0.364727 0
M  V30 4513 H 444.879 3.19108 -1.95246 0
M  V30 4514 H 446.212 4.20872 -2.55201 0
M  V30 4515 N 447.864 1.01787 1.20321 0
M  V30 4516 C 449.28 0.732951 1.41774 0
M  V30 4517 C 449.48 -0.686883 1.89431 0
M  V30 4518 O 448.536 -1.45446 2.06402 0
M  V30 4519 C 449.849 1.75973 2.43832 0
M  V30 4520 C 451.397 1.77802 2.57596 0
M  V30 4521 C 451.872 2.7941 3.62897 0
M  V30 4522 N 453.363 2.78157 3.70382 0
M  V30 4523 C 454.098 3.53434 4.51521 0
M  V30 4524 N 453.594 4.38392 5.36455 0
M  V30 4525 N 455.387 3.42026 4.46066 0
M  V30 4526 H 447.538 1.93447 0.877035 0
M  V30 4527 H 449.801 0.835712 0.447536 0
M  V30 4528 H 449.507 2.77699 2.15815 0
M  V30 4529 H 449.381 1.57292 3.4284 0
M  V30 4530 H 451.768 0.767602 2.84942 0
M  V30 4531 H 451.849 2.00557 1.58779 0
M  V30 4532 H 451.493 3.80616 3.36295 0
M  V30 4533 H 451.423 2.53916 4.61339 0
M  V30 4534 H 453.914 2.16531 3.09714 0
M  V30 4535 H 454.227 4.92596 5.95457 0
M  V30 4536 H 452.572 4.4247 5.35953 0
M  V30 4537 H 455.763 2.75075 3.78749 0
M  V30 4538 H 455.936 4.00946 5.09064 0
M  V30 4539 N 449.342 -1.36122 0.79427 0
M  V30 4540 C 450.305 -2.28309 0.201889 0
M  V30 4541 C 451.305 -1.49041 -0.603603 0
M  V30 4542 O 452.495 -1.68964 -0.423888 0
M  V30 4543 C 449.627 -3.3321 -0.719978 0
M  V30 4544 H 450.82 -2.82208 1.01481 0
M  V30 4545 H 448.373 -1.45768 0.564037 0
M  V30 4546 H 449.108 -2.84475 -1.55706 0
M  V30 4547 H 448.893 -3.91835 -0.144266 0
M  V30 4548 H 450.383 -4.02044 -1.12916 0
M  V30 4549 N 450.82 -0.546701 -1.47814 0
M  V30 4550 C 452.097 0.0464413 -1.95545 0
M  V30 4551 C 452.477 1.4962 -1.48919 0
M  V30 4552 O 451.825 2.16752 -0.723232 0
M  V30 4553 C 452.035 -0.0881298 -3.48889 0
M  V30 4554 C 453.383 0.0626059 -4.24554 0
M  V30 4555 O 454.407 -0.0151555 -3.56197 0
M  V30 4556 O 453.266 0.228071 -5.46024 0
M  V30 4557 H 450.36 0.0700004 -0.824032 0
M  V30 4558 H 452.906 -0.612482 -1.58262 0
M  V30 4559 H 451.678 -1.09737 -3.75597 0
M  V30 4560 H 451.301 0.608886 -3.9291 0
M  V30 4561 N 452.299 1.55045 -0.282633 0
M  V30 4562 C 453.547 1.99365 0.331334 0
M  V30 4563 C 453.868 1.1725 1.55812 0
M  V30 4564 O 453.138 0.263871 1.94115 0
M  V30 4565 H 451.718 0.736397 0.125414 0
M  V30 4566 H 454.38 1.90964 -0.389711 0
M  V30 4567 H 453.476 3.0596 0.616036 0
M  V30 4568 N 453.777 0.010035 1.57597 0
M  V30 4569 C 455.023 -0.668011 1.92118 0
M  V30 4570 C 455.378 -1.70821 0.885328 0
M  V30 4571 O 454.671 -1.91333 -0.101187 0
M  V30 4572 C 454.865 -1.34434 3.31153 0
M  V30 4573 C 454.694 -0.371176 4.48166 0
M  V30 4574 C 453.464 0.0220686 5.05295 0
M  V30 4575 C 455.662 0.366731 5.12991 0
M  V30 4576 N 453.644 0.9924 6.05826 0
M  V30 4577 C 455.015 1.19142 6.08445 0
M  V30 4578 C 457.07 0.429489 4.96044 0
M  V30 4579 C 455.773 2.07317 6.88776 0
M  V30 4580 C 457.799 1.2985 5.76969 0
M  V30 4581 C 457.161 2.11101 6.72023 0
M  V30 4582 H 453.26 -0.217337 0.751192 0
M  V30 4583 H 455.844 0.0727375 1.94564 0
M  V30 4584 H 454.015 -2.05533 3.29561 0
M  V30 4585 H 455.747 -1.97789 3.53075 0
M  V30 4586 H 452.502 -0.348409 4.72317 0
M  V30 4587 H 452.926 1.47324 6.60776 0
M  V30 4588 H 457.568 -0.18442 4.22398 0
M  V30 4589 H 455.286 2.69771 7.61741 0
M  V30 4590 H 458.872 1.3511 5.65894 0
M  V30 4591 H 457.752 2.77257 7.33552 0
M  V30 4592 N 455.255 -1.55392 -0.262866 0
M  V30 4593 C 456.671 -1.47459 -0.610582 0
M  V30 4594 C 456.871 -0.697031 -1.8906 0
M  V30 4595 O 455.927 -0.219952 -2.5154 0
M  V30 4596 C 457.24 -2.91751 -0.728131 0
M  V30 4597 C 458.788 -3.02027 -0.821517 0
M  V30 4598 C 459.263 -4.47594 -0.97076 0
M  V30 4599 N 460.754 -4.51465 -1.03603 0
M  V30 4600 C 461.489 -5.61326 -1.17049 0
M  V30 4601 N 460.985 -6.81032 -1.2715 0
M  V30 4602 N 462.778 -5.49089 -1.20239 0
M  V30 4603 H 454.929 -2.04395 0.577632 0
M  V30 4604 H 457.192 -0.927287 0.197086 0
M  V30 4605 H 456.898 -3.51413 0.142132 0
M  V30 4606 H 456.772 -3.4134 -1.6052 0
M  V30 4607 H 459.159 -2.42456 -1.68224 0
M  V30 4608 H 459.24 -2.55674 0.0803688 0
M  V30 4609 H 458.884 -5.07771 -0.114655 0
M  V30 4610 H 458.814 -4.91613 -1.88745 0
M  V30 4611 H 461.305 -3.6524 -0.96996 0
M  V30 4612 H 461.618 -7.60511 -1.37271 0
M  V30 4613 H 459.963 -6.83824 -1.24136 0
M  V30 4614 H 463.154 -4.54507 -1.11985 0
M  V30 4615 H 463.327 -6.34749 -1.30373 0
M  V30 4616 N 456.733 0.527833 -1.48498 0
M  V30 4617 C 458.144 1.10975 -1.50138 0
M  V30 4618 C 458.495 1.943 -0.272378 0
M  V30 4619 O 457.62 2.07319 0.620301 0
M  V30 4620 C 458.215 2.01927 -2.72049 0
M  V30 4621 C 456.774 2.55332 -2.76554 0
M  V30 4622 C 455.921 1.32341 -2.43683 0
M  V30 4623 H 458.872 0.312986 -1.55583 0
M  V30 4624 H 458.893 2.86244 -2.50689 0
M  V30 4625 H 458.405 1.41254 -3.61481 0
M  V30 4626 H 456.506 3.19721 -1.91336 0
M  V30 4627 H 456.619 2.94319 -3.78038 0
M  V30 4628 H 454.983 1.63989 -1.94884 0
M  V30 4629 H 455.766 0.734165 -3.35358 0
M  V30 4630 N 458.211 1.37122 0.776871 0
M  V30 4631 C 459.459 1.31787 1.53221 0
M  V30 4632 C 459.78 -0.0987589 1.9475 0
M  V30 4633 O 459.05 -1.0417 1.65908 0
M  V30 4634 H 457.63 0.484839 0.568278 0
M  V30 4635 H 460.292 1.71556 0.924917 0
M  V30 4636 H 459.388 1.95355 2.43398 0
M  V30 4637 N 459.689 -1.00246 1.21608 0
M  V30 4638 C 460.937 -1.73717 1.0328 0
M  V30 4639 C 461.258 -1.90102 -0.434318 0
M  V30 4640 O 460.528 -1.45376 -1.31311 0
M  V30 4641 H 459.108 -0.643613 0.379172 0
M  V30 4642 H 461.77 -1.20787 1.52959 0
M  V30 4643 H 460.866 -2.73535 1.50283 0
M  V30 4644 N 461.167 -1.02423 -1.1978 0
M  V30 4645 C 462.413 -0.72878 -1.89896 0
M  V30 4646 C 462.768 0.734248 -1.77839 0
M  V30 4647 O 462.061 1.52733 -1.15685 0
M  V30 4648 C 462.255 -1.1088 -3.39765 0
M  V30 4649 C 462.084 -2.60722 -3.66407 0
M  V30 4650 C 460.854 -3.27623 -3.84696 0
M  V30 4651 C 463.052 -3.58924 -3.68345 0
M  V30 4652 N 461.034 -4.66617 -3.98926 0
M  V30 4653 C 462.405 -4.83514 -3.8809 0
M  V30 4654 C 464.46 -3.52788 -3.51347 0
M  V30 4655 C 463.163 -6.0271 -3.92598 0
M  V30 4656 C 465.189 -4.71394 -3.5713 0
M  V30 4657 C 464.551 -5.94796 -3.77356 0
M  V30 4658 H 460.65 -0.318473 -0.714212 0
M  V30 4659 H 463.234 -1.3106 -1.43984 0
M  V30 4660 H 461.405 -0.555233 -3.84411 0
M  V30 4661 H 463.137 -0.766082 -3.97383 0
M  V30 4662 H 459.892 -2.7804 -3.83393 0
M  V30 4663 H 460.316 -5.38805 -4.099 0
M  V30 4664 H 464.958 -2.58372 -3.3467 0
M  V30 4665 H 462.676 -6.97499 -4.08069 0
M  V30 4666 H 466.262 -4.6827 -3.45275 0
M  V30 4667 H 465.142 -6.85037 -3.81699 0
M  V30 4668 N 462.645 1.35699 -0.801477 0
M  V30 4669 C 463.577 2.28598 -0.166028 0
M  V30 4670 C 464.59 1.50044 0.631721 0
M  V30 4671 O 465.779 1.72339 0.464921 0
M  V30 4672 C 462.879 3.29625 0.787451 0
M  V30 4673 C 462.052 4.37384 0.037171 0
M  V30 4674 C 461.111 5.183 0.908375 0
M  V30 4675 O 460.137 5.68053 0.361189 0
M  V30 4676 N 461.339 5.35912 2.23112 0
M  V30 4677 H 464.104 2.83771 -0.964071 0
M  V30 4678 H 461.665 1.47994 -0.656469 0
M  V30 4679 H 463.657 3.80648 1.37439 0
M  V30 4680 H 462.227 2.75004 1.48632 0
M  V30 4681 H 461.447 3.87364 -0.730935 0
M  V30 4682 H 462.735 5.0653 -0.480109 0
M  V30 4683 H 462.133 4.97125 2.69968 0
M  V30 4684 H 460.69 5.90133 2.76741 0
M  V30 4685 N 464.123 0.554532 1.47522 0
M  V30 4686 C 465.055 -0.232106 2.28022 0
M  V30 4687 C 466.068 -0.881865 1.36847 0
M  V30 4688 O 467.257 -0.756168 1.61692 0
M  V30 4689 C 464.357 -1.34604 3.11022 0
M  V30 4690 C 463.53 -0.793582 4.30141 0
M  V30 4691 C 462.589 -1.79168 4.94758 0
M  V30 4692 O 461.615 -1.33886 5.5323 0
M  V30 4693 N 462.817 -3.12495 4.89211 0
M  V30 4694 H 465.582 0.458407 2.96173 0
M  V30 4695 H 463.143 0.390433 1.57122 0
M  V30 4696 H 465.135 -2.01243 3.51118 0
M  V30 4697 H 463.705 -1.93983 2.45131 0
M  V30 4698 H 462.925 0.0495025 3.94169 0
M  V30 4699 H 464.213 -0.403776 5.07195 0
M  V30 4700 H 463.611 -3.51931 4.42901 0
M  V30 4701 H 462.168 -3.74698 5.33333 0
M  V30 4702 N 465.601 -1.54893 0.290851 0
M  V30 4703 C 466.847 -2.0023 -0.321867 0
M  V30 4704 C 467.18 -1.179 -1.54316 0
M  V30 4705 O 466.455 -0.25293 -1.92848 0
M  V30 4706 C 466.738 -3.53456 -0.688515 0
M  V30 4707 C 466.591 -4.46532 0.541209 0
M  V30 4708 C 467.91 -4.13057 -1.51895 0
M  V30 4709 H 465.029 -0.727891 -0.115515 0
M  V30 4710 H 467.671 -1.85722 0.400931 0
M  V30 4711 H 465.821 -3.6595 -1.30433 0
M  V30 4712 H 467.493 -4.4596 1.17973 0
M  V30 4713 H 465.736 -4.17545 1.17636 0
M  V30 4714 H 466.407 -5.51475 0.240675 0
M  V30 4715 H 468.883 -4.03937 -0.99872 0
M  V30 4716 H 467.759 -5.20448 -1.74429 0
M  V30 4717 H 468.02 -3.64284 -2.50498 0
M  V30 4718 N 467.08 -0.0183926 -1.57589 0
M  V30 4719 C 468.043 0.951986 -2.08494 0
M  V30 4720 C 469.043 1.26092 -0.997874 0
M  V30 4721 O 470.233 1.20304 -1.25987 0
M  V30 4722 C 467.365 2.27165 -2.54182 0
M  V30 4723 H 468.558 0.511307 -2.95509 0
M  V30 4724 H 466.111 0.229444 -1.54607 0
M  V30 4725 H 466.846 2.75884 -1.70465 0
M  V30 4726 H 466.631 2.06057 -3.33591 0
M  V30 4727 H 468.121 2.9674 -2.93828 0
M  V30 4728 N 468.558 1.5553 0.254621 0
M  V30 4729 C 469.788 1.80784 1.00004 0
M  V30 4730 C 470.196 0.59071 1.79742 0
M  V30 4731 O 469.539 -0.449988 1.78103 0
M  V30 4732 C 469.601 2.99268 1.99196 0
M  V30 4733 C 469.265 4.35595 1.38224 0
M  V30 4734 C 470.262 5.13884 0.788611 0
M  V30 4735 C 467.947 4.82281 1.40393 0
M  V30 4736 C 469.941 6.37004 0.224783 0
M  V30 4737 C 467.628 6.05351 0.836243 0
M  V30 4738 C 468.626 6.82551 0.24769 0
M  V30 4739 O 468.314 8.03297 -0.311249 0
M  V30 4740 H 468.046 0.60565 0.300274 0
M  V30 4741 H 470.6 2.03411 0.285143 0
M  V30 4742 H 468.83 2.72377 2.74496 0
M  V30 4743 H 470.519 3.11682 2.60018 0
M  V30 4744 H 471.285 4.78938 0.764423 0
M  V30 4745 H 467.164 4.22189 1.85142 0
M  V30 4746 H 470.708 6.97203 -0.235235 0
M  V30 4747 H 466.605 6.39776 0.857733 0
M  V30 4748 H 467.373 8.1825 -0.20237 0
M  V30 4749 N 470.036 -0.519951 1.48776 0
M  V30 4750 C 470.986 -1.61995 1.60442 0
M  V30 4751 C 471.97 -1.54155 0.460991 0
M  V30 4752 O 473.162 -1.62006 0.712965 0
M  V30 4753 C 470.291 -3.00683 1.65664 0
M  V30 4754 C 469.377 -3.1359 2.8552 0
M  V30 4755 N 469.768 -2.96441 4.09825 0
M  V30 4756 C 468.066 -3.44662 2.83062 0
M  V30 4757 C 468.767 -3.1303 4.90293 0
M  V30 4758 N 467.743 -3.41058 4.23297 0
M  V30 4759 H 471.545 -1.47362 2.54287 0
M  V30 4760 H 469.059 -0.725649 1.45286 0
M  V30 4761 H 471.056 -3.79712 1.72117 0
M  V30 4762 H 469.716 -3.16401 0.729425 0
M  V30 4763 H 470.727 -2.72999 4.40104 0
M  V30 4764 H 467.404 -3.66675 1.9964 0
M  V30 4765 H 468.794 -3.04424 5.98979 0
M  V30 4766 N 471.514 -1.37532 -0.769588 0
M  V30 4767 C 472.93 -1.18379 -1.07045 0
M  V30 4768 C 473.13 -0.0214312 -2.01489 0
M  V30 4769 O 472.186 0.637809 -2.44312 0
M  V30 4770 C 473.499 -2.50338 -1.66588 0
M  V30 4771 C 475.047 -2.56879 -1.78835 0
M  V30 4772 C 475.522 -3.88974 -2.41792 0
M  V30 4773 N 477.013 -3.90428 -2.4924 0
M  V30 4774 C 477.748 -4.89388 -2.98809 0
M  V30 4775 N 477.244 -5.98745 -3.48535 0
M  V30 4776 N 479.037 -4.76791 -2.97703 0
M  V30 4777 H 471.188 -2.11921 -0.142541 0
M  V30 4778 H 473.451 -0.939608 -0.125863 0
M  V30 4779 H 473.157 -3.35767 -1.0466 0
M  V30 4780 H 473.031 -2.67583 -2.65856 0
M  V30 4781 H 475.418 -1.71856 -2.39895 0
M  V30 4782 H 475.499 -2.43516 -0.783166 0
M  V30 4783 H 475.143 -4.74412 -1.81371 0
M  V30 4784 H 475.073 -3.99641 -3.4292 0
M  V30 4785 H 477.564 -3.11433 -2.14052 0
M  V30 4786 H 477.877 -6.70205 -3.84767 0
M  V30 4787 H 476.222 -6.02387 -3.46634 0
M  V30 4788 H 479.413 -3.90478 -2.58157 0
M  V30 4789 H 479.586 -5.54069 -3.36024 0
M  V30 4790 N 472.992 0.995999 -1.22138 0
M  V30 4791 C 473.955 2.06711 -0.990109 0
M  V30 4792 C 474.955 1.60744 0.0422978 0
M  V30 4793 O 476.145 1.73095 -0.195895 0
M  V30 4794 C 473.277 3.37288 -0.49491 0
M  V30 4795 H 474.47 2.28661 -1.94047 0
M  V30 4796 H 472.023 1.16711 -1.03963 0
M  V30 4797 H 472.758 3.21022 0.459948 0
M  V30 4798 H 472.543 3.71986 -1.23971 0
M  V30 4799 H 474.033 4.16103 -0.353253 0
M  V30 4800 N 474.47 1.03057 1.19235 0
M  V30 4801 C 475.4 0.633497 2.24742 0
M  V30 4802 C 476.381 -0.358335 1.66283 0
M  V30 4803 O 477.566 -0.240676 1.92703 0
M  V30 4804 C 474.696 -0.0147648 3.47297 0
M  V30 4805 C 473.65 0.899527 4.18441 0
M  V30 4806 C 472.976 0.116281 5.34574 0
M  V30 4807 C 474.276 2.21404 4.73051 0
M  V30 4808 H 475.97 1.5155 2.58211 0
M  V30 4809 H 473.516 0.73014 1.24117 0
M  V30 4810 H 475.469 -0.304202 4.20301 0
M  V30 4811 H 474.193 -0.931577 3.13032 0
M  V30 4812 H 472.852 1.17319 3.47321 0
M  V30 4813 H 472.5 -0.802619 4.96555 0
M  V30 4814 H 472.2 0.725293 5.83107 0
M  V30 4815 H 473.724 -0.166376 6.10373 0
M  V30 4816 H 475.138 1.98601 5.37802 0
M  V30 4817 H 473.535 2.77512 5.32078 0
M  V30 4818 H 474.605 2.86752 3.91026 0
M  V30 4819 N 475.948 -1.35272 0.808662 0
M  V30 4820 C 477.225 -1.93077 0.313181 0
M  V30 4821 C 477.605 -1.73847 -1.19752 0
M  V30 4822 O 476.953 -1.1087 -1.998 0
M  V30 4823 C 477.163 -3.41347 0.726859 0
M  V30 4824 C 478.511 -4.18493 0.717532 0
M  V30 4825 O 479.535 -3.4987 0.668535 0
M  V30 4826 O 478.394 -5.40937 0.777779 0
M  V30 4827 H 475.488 -0.822885 0.0824018 0
M  V30 4828 H 478.034 -1.44335 0.892499 0
M  V30 4829 H 476.806 -3.49082 1.76797 0
M  V30 4830 H 476.429 -3.97411 0.122461 0
M  V30 4831 N 477.426 -0.562348 -1.47226 0
M  V30 4832 C 478.842 -0.222492 -1.58042 0
M  V30 4833 C 479.042 1.27505 -1.56028 0
M  V30 4834 O 478.098 2.05555 -1.46641 0
M  V30 4835 C 479.411 -0.853694 -2.88327 0
M  V30 4836 C 480.959 -0.825397 -3.01921 0
M  V30 4837 C 481.434 -1.43576 -4.34914 0
M  V30 4838 N 482.925 -1.39918 -4.41562 0
M  V30 4839 C 483.66 -1.84103 -5.43041 0
M  V30 4840 N 483.156 -2.36167 -6.51304 0
M  V30 4841 N 484.949 -1.75142 -5.34118 0
M  V30 4842 H 477.1 -1.53525 -1.46778 0
M  V30 4843 H 479.363 -0.640527 -0.698877 0
M  V30 4844 H 479.069 -1.90635 -2.95552 0
M  V30 4845 H 478.943 -0.34977 -3.75575 0
M  V30 4846 H 481.33 0.218583 -2.94289 0
M  V30 4847 H 481.411 -1.36713 -2.16202 0
M  V30 4848 H 481.055 -2.47884 -4.43301 0
M  V30 4849 H 480.985 -0.869427 -5.19373 0
M  V30 4850 H 483.476 -1.0184 -3.63919 0
M  V30 4851 H 483.789 -2.67793 -7.24919 0
M  V30 4852 H 482.134 -2.40181 -6.52179 0
M  V30 4853 H 485.325 -1.34241 -4.48439 0
M  V30 4854 H 485.498 -2.09895 -6.13065 0
M  V30 4855 N 478.904 1.54736 -0.299062 0
M  V30 4856 C 480.153 1.99279 0.311549 0
M  V30 4857 C 480.466 1.19107 1.55154 0
M  V30 4858 O 481.672 1.53908 2.23662 0
M  V30 4859 C 480.128 3.54768 0.605632 0
M  V30 4860 C 479.736 4.43746 -0.615914 0
M  V30 4861 C 481.48 4.07841 1.17754 0
M  V30 4862 C 479.387 5.90663 -0.29509 0
M  V30 4863 H 478.317 0.744359 0.120187 0
M  V30 4864 H 480.968 1.78919 -0.407464 0
M  V30 4865 H 479.35 3.71021 1.38419 0
M  V30 4866 H 480.524 4.39267 -1.39218 0
M  V30 4867 H 478.839 4.01434 -1.10633 0
M  V30 4868 H 481.436 5.15174 1.43179 0
M  V30 4869 H 481.779 3.58324 2.11918 0
M  V30 4870 H 482.312 3.95123 0.460739 0
M  V30 4871 H 479.051 6.44325 -1.20524 0
M  V30 4872 H 478.571 5.98155 0.44394 0
M  V30 4873 H 480.25 6.46916 0.104048 0
M  V30 4874 N 480.382 0.0267497 1.57577 0
M  V30 4875 C 481.612 -0.6617 1.95717 0
M  V30 4876 C 482.02 -1.66331 0.901706 0
M  V30 4877 O 481.363 -1.83273 -0.125241 0
M  V30 4878 C 481.425 -1.42649 3.29987 0
M  V30 4879 C 481.089 -0.583482 4.5326 0
M  V30 4880 C 482.086 0.140221 5.19711 0
M  V30 4881 C 479.771 -0.521581 4.99585 0
M  V30 4882 C 481.765 0.914523 6.30805 0
M  V30 4883 C 479.452 0.256428 6.10562 0
M  V30 4884 C 480.45 0.973189 6.76031 0
M  V30 4885 O 480.138 1.73845 7.84878 0
M  V30 4886 H 479.87 -0.187483 0.649481 0
M  V30 4887 H 482.424 0.0820847 2.05236 0
M  V30 4888 H 480.654 -2.21536 3.16952 0
M  V30 4889 H 482.343 -2.00282 3.53047 0
M  V30 4890 H 483.109 0.101716 4.84893 0
M  V30 4891 H 478.988 -1.06904 4.48433 0
M  V30 4892 H 482.532 1.4745 6.81839 0
M  V30 4893 H 478.429 0.296657 6.44818 0
M  V30 4894 H 479.197 1.65797 8.01532 0
M  V30 4895 N 481.861 -1.55662 -0.24637 0
M  V30 4896 C 482.791 -1.93377 -1.30873 0
M  V30 4897 C 483.772 -0.798773 -1.50179 0
M  V30 4898 O 484.957 -1.0591 -1.62778 0
M  V30 4899 C 482.087 -2.22893 -2.66338 0
M  V30 4900 C 481.041 -3.38649 -2.61727 0
M  V30 4901 C 480.367 -3.53708 -4.00992 0
M  V30 4902 C 481.667 -4.74323 -2.18666 0
M  V30 4903 H 483.361 -2.82363 -0.995552 0
M  V30 4904 H 480.907 -1.35854 -0.477464 0
M  V30 4905 H 482.86 -2.47866 -3.40794 0
M  V30 4906 H 481.584 -1.30733 -2.99293 0
M  V30 4907 H 480.243 -3.13685 -1.89729 0
M  V30 4908 H 479.891 -2.58967 -4.31214 0
M  V30 4909 H 479.591 -4.31551 -3.98795 0
M  V30 4910 H 481.115 -3.81003 -4.77147 0
M  V30 4911 H 482.529 -4.98665 -2.82854 0
M  V30 4912 H 480.926 -5.55273 -2.27579 0
M  V30 4913 H 481.996 -4.71349 -1.13834 0
M  V30 4914 N 483.339 0.512053 -1.4905 0
M  V30 4915 C 484.269 1.62365 -1.67809 0
M  V30 4916 C 485.25 1.61737 -0.526809 0
M  V30 4917 O 486.435 1.78651 -0.761404 0
M  V30 4918 C 483.565 3.00895 -1.73435 0
M  V30 4919 C 482.519 3.16387 -2.88242 0
M  V30 4920 C 481.845 4.56157 -2.78971 0
M  V30 4921 C 483.145 2.97457 -4.29321 0
M  V30 4922 H 484.839 1.46921 -2.60873 0
M  V30 4923 H 482.385 0.705379 -1.2554 0
M  V30 4924 H 484.338 3.78549 -1.85145 0
M  V30 4925 H 483.062 3.17403 -0.769619 0
M  V30 4926 H 481.721 2.41155 -2.76116 0
M  V30 4927 H 481.369 4.69525 -1.8043 0
M  V30 4928 H 481.069 4.67465 -3.5602 0
M  V30 4929 H 482.593 5.35886 -2.92675 0
M  V30 4930 H 484.007 3.64888 -4.42187 0
M  V30 4931 H 482.404 3.20245 -5.07507 0
M  V30 4932 H 483.474 1.93692 -4.44535 0
M  V30 4933 N 484.817 1.37938 0.762283 0
M  V30 4934 C 486.063 1.33866 1.52341 0
M  V30 4935 C 486.396 -0.0738961 1.94059 0
M  V30 4936 O 485.671 -1.03326 1.64785 0
M  V30 4937 C 485.954 2.28644 2.78197 0
M  V30 4938 C 485.807 3.78722 2.42672 0
M  V30 4939 C 487.126 2.21702 3.80179 0
M  V30 4940 H 484.245 0.487593 0.55265 0
M  V30 4941 H 486.887 1.68717 0.873767 0
M  V30 4942 H 485.037 1.99055 3.33631 0
M  V30 4943 H 486.709 4.18948 1.93081 0
M  V30 4944 H 484.952 3.96827 1.75244 0
M  V30 4945 H 485.623 4.40486 3.3268 0
M  V30 4946 H 488.099 2.47805 3.34263 0
M  V30 4947 H 486.975 2.90143 4.65949 0
M  V30 4948 H 487.236 1.21301 4.25133 0
M  V30 4949 N 486.295 -0.989507 1.22664 0
M  V30 4950 C 487.572 -1.70326 0.961688 0
M  V30 4951 C 487.952 -2.04537 -0.522279 0
M  V30 4952 O 487.3 -1.73136 -1.49118 0
M  V30 4953 C 487.51 -2.95135 1.86269 0
M  V30 4954 C 488.858 -3.67842 2.12078 0
M  V30 4955 O 489.882 -3.0515 1.83745 0
M  V30 4956 O 488.741 -4.80644 2.60083 0
M  V30 4957 H 485.835 -0.743589 0.361946 0
M  V30 4958 H 488.381 -1.04555 1.33665 0
M  V30 4959 H 487.153 -2.66382 2.8663 0
M  V30 4960 H 486.776 -3.68645 1.48952 0
M  V30 4961 N 487.773 -1.03688 -1.18687 0
M  V30 4962 C 488.705 -0.582696 -2.21669 0
M  V30 4963 C 489.718 0.345656 -1.59088 0
M  V30 4964 O 490.907 0.140776 -1.77944 0
M  V30 4965 C 488.007 0.169204 -3.38477 0
M  V30 4966 C 487.18 -0.766079 -4.30639 0
M  V30 4967 C 486.239 -0.0581541 -5.26168 0
M  V30 4968 O 485.265 -0.687346 -5.65035 0
M  V30 4969 N 486.467 1.20981 -5.67753 0
M  V30 4970 H 489.232 -1.46843 -2.61261 0
M  V30 4971 H 486.793 -0.916896 -1.33434 0
M  V30 4972 H 488.785 0.652543 -3.99405 0
M  V30 4973 H 487.355 0.956435 -2.97609 0
M  V30 4974 H 486.575 -1.42935 -3.67373 0
M  V30 4975 H 487.863 -1.40146 -4.89118 0
M  V30 4976 H 487.261 1.74159 -5.38224 0
M  V30 4977 H 485.818 1.6375 -6.30896 0
M  V30 4978 N 489.251 1.34841 -0.815825 0
M  V30 4979 C 490.667 1.51543 -0.500697 0
M  V30 4980 C 490.867 1.76261 0.976444 0
M  V30 4981 O 489.923 1.8094 1.76117 0
M  V30 4982 C 491.236 2.68487 -1.35407 0
M  V30 4983 C 492.784 2.82368 -1.35046 0
M  V30 4984 C 493.259 4.02347 -2.18816 0
M  V30 4985 N 494.75 4.09542 -2.16402 0
M  V30 4986 C 495.485 5.01517 -2.77971 0
M  V30 4987 N 494.981 5.98763 -3.48503 0
M  V30 4988 N 496.774 4.94334 -2.67563 0
M  V30 4989 H 488.925 1.17055 -1.77234 0
M  V30 4990 H 491.188 0.573481 -0.754866 0
M  V30 4991 H 490.894 2.56829 -2.40274 0
M  V30 4992 H 490.768 3.63321 -1.01377 0
M  V30 4993 H 493.155 2.93471 -0.309604 0
M  V30 4994 H 493.236 1.88363 -1.73069 0
M  V30 4995 H 492.88 3.92004 -3.22948 0
M  V30 4996 H 492.81 4.95551 -1.78148 0
M  V30 4997 H 495.301 3.39932 -1.65091 0
M  V30 4998 H 495.614 6.6556 -3.92747 0
M  V30 4999 H 493.959 5.98909 -3.52609 0
M  V30 5000 H 497.15 4.1732 -2.12041 0
M  V30 5001 H 497.323 5.6582 -3.15834 0
M  V30 5002 N 490.729 0.570148 1.46925 0
M  V30 5003 C 492.006 -0.0153259 1.95594 0
M  V30 5004 C 492.386 -1.47232 1.51281 0
M  V30 5005 O 491.734 -2.15574 0.757624 0
M  V30 5006 C 491.944 0.143624 3.48704 0
M  V30 5007 C 493.292 0.00494484 4.246 0
M  V30 5008 O 494.316 0.0718214 3.56128 0
M  V30 5009 O 493.175 -0.141175 5.46318 0
M  V30 5010 H 490.269 -0.0568819 0.825041 0
M  V30 5011 H 492.815 0.637583 1.57267 0
M  V30 5012 H 491.587 1.15699 3.73804 0
M  V30 5013 H 491.21 -0.5463 3.93829 0
M  V30 5014 N 492.207 -1.54576 0.307264 0
M  V30 5015 C 493.117 -2.27435 -0.57536 0
M  V30 5016 C 494.133 -1.31183 -1.14311 0
M  V30 5017 O 495.309 -1.64175 -1.16656 0
M  V30 5018 C 492.374 -3.00566 -1.72803 0
M  V30 5019 C 491.435 -4.12369 -1.19373 0
M  V30 5020 C 490.668 -4.82003 -2.29147 0
M  V30 5021 O 490.891 -4.51038 -3.49171 0
M  V30 5022 O 489.825 -5.69271 -1.95485 0
M  V30 5023 H 493.651 -3.03696 0.0158558 0
M  V30 5024 H 491.236 -1.49219 0.0735064 0
M  V30 5025 H 493.118 -3.46416 -2.39946 0
M  V30 5026 H 491.793 -2.27195 -2.30574 0
M  V30 5027 H 490.7 -3.70905 -0.487851 0
M  V30 5028 H 492.033 -4.87736 -0.661376 0
M  V30 5029 N 493.685 -0.035106 -1.57561 0
M  V30 5030 C 494.931 0.637362 -1.93156 0
M  V30 5031 C 495.286 1.69391 -0.912392 0
M  V30 5032 O 494.579 1.91469 0.070735 0
M  V30 5033 C 494.773 1.29149 -3.3325 0
M  V30 5034 C 494.602 0.29983 -4.48699 0
M  V30 5035 C 493.372 -0.102454 -5.05196 0
M  V30 5036 C 495.57 -0.448297 -5.12342 0
M  V30 5037 N 493.552 -1.08866 -6.0417 0
M  V30 5038 C 494.923 -1.28807 -6.06472 0
M  V30 5039 C 496.978 -0.508351 -4.95298 0
M  V30 5040 C 495.681 -2.18248 -6.85391 0
M  V30 5041 C 497.707 -1.39013 -5.7483 0
M  V30 5042 C 497.069 -2.21766 -6.6858 0
M  V30 5043 H 493.168 0.205358 -0.754554 0
M  V30 5044 H 495.752 -0.103682 -1.94424 0
M  V30 5045 H 493.923 2.00264 -3.3279 0
M  V30 5046 H 495.655 1.92147 -3.56177 0
M  V30 5047 H 492.41 0.273223 -4.72811 0
M  V30 5048 H 492.834 -1.57817 -6.58348 0
M  V30 5049 H 497.476 0.117197 -4.22638 0
M  V30 5050 H 495.194 -2.81855 -7.57353 0
M  V30 5051 H 498.78 -1.44096 -5.63673 0
M  V30 5052 H 497.66 -2.88892 -7.29048 0
M  V30 5053 N 495.163 1.55791 0.238111 0
M  V30 5054 C 496.579 1.48411 0.587045 0
M  V30 5055 C 496.779 0.72702 1.87927 0
M  V30 5056 O 495.835 0.259942 2.51158 0
M  V30 5057 C 497.148 2.92873 0.681623 0
M  V30 5058 C 498.696 3.03295 0.773363 0
M  V30 5059 C 499.171 4.49082 0.899428 0
M  V30 5060 N 500.662 4.53056 0.964075 0
M  V30 5061 C 501.397 5.63117 1.08104 0
M  V30 5062 N 500.893 6.82969 1.16299 0
M  V30 5063 N 502.686 5.50933 1.11488 0
M  V30 5064 H 494.837 2.0345 -0.610076 0
M  V30 5065 H 497.1 0.924034 -0.211813 0
M  V30 5066 H 496.806 3.51142 -0.19802 0
M  V30 5067 H 496.68 3.43851 1.55069 0
M  V30 5068 H 499.067 2.45101 1.64346 0
M  V30 5069 H 499.148 2.55513 -0.121034 0
M  V30 5070 H 498.792 5.07889 0.0338586 0
M  V30 5071 H 498.722 4.94553 1.809 0
M  V30 5072 H 501.213 3.66737 0.91173 0
M  V30 5073 H 501.526 7.62598 1.25155 0
M  V30 5074 H 499.871 6.85712 1.13241 0
M  V30 5075 H 503.062 4.56231 1.0474 0
M  V30 5076 H 503.235 6.36743 1.20259 0
M  V30 5077 N 496.642 -0.504142 1.49319 0
M  V30 5078 C 497.592 -1.60284 1.62151 0
M  V30 5079 C 498.576 -1.53657 0.477315 0
M  V30 5080 O 499.768 -1.6124 0.730108 0
M  V30 5081 C 496.897 -2.98909 1.68844 0
M  V30 5082 C 495.983 -3.10544 2.8883 0
M  V30 5083 N 496.374 -2.92078 4.12946 0
M  V30 5084 C 494.672 -3.4164 2.86702 0
M  V30 5085 C 495.373 -3.07812 4.93585 0
M  V30 5086 N 494.349 -3.36549 4.26891 0
M  V30 5087 H 498.151 -1.44656 2.55835 0
M  V30 5088 H 495.665 -0.710198 1.46048 0
M  V30 5089 H 497.662 -3.77865 1.76134 0
M  V30 5090 H 496.322 -3.15609 0.762943 0
M  V30 5091 H 497.333 -2.68316 4.42975 0
M  V30 5092 H 494.01 -3.64537 2.03517 0
M  V30 5093 H 495.4 -2.98054 6.02174 0
M  V30 5094 N 498.12 -1.38341 -0.754957 0
M  V30 5095 C 499.067 -1.3546 -1.86867 0
M  V30 5096 C 500.037 -0.217369 -1.64672 0
M  V30 5097 O 501.222 -0.409383 -1.86356 0
M  V30 5098 C 498.362 -1.18413 -3.24149 0
M  V30 5099 C 497.475 -2.41511 -3.58185 0
M  V30 5100 C 496.61 -2.17205 -4.84763 0
M  V30 5101 C 495.649 -3.36081 -5.11582 0
M  V30 5102 N 494.786 -3.11219 -6.29354 0
M  V30 5103 H 499.626 -2.30672 -1.88664 0
M  V30 5104 H 497.163 -1.14607 -0.922154 0
M  V30 5105 H 499.121 -1.06545 -4.03366 0
M  V30 5106 H 497.751 -0.268397 -3.21682 0
M  V30 5107 H 496.803 -2.64056 -2.73822 0
M  V30 5108 H 498.115 -3.30115 -3.73932 0
M  V30 5109 H 497.269 -2.02465 -5.7192 0
M  V30 5110 H 496.008 -1.25964 -4.71152 0
M  V30 5111 H 495.013 -3.51341 -4.22894 0
M  V30 5112 H 496.238 -4.28196 -5.27091 0
M  V30 5113 H 494.184 -2.22624 -6.17069 0
M  V30 5114 H 494.101 -3.93373 -6.45596 0
M  V30 5115 H 495.369 -3.00132 -7.19403 0
M  V30 5116 N 499.598 0.982988 -1.23187 0
M  V30 5117 C 500.826 1.75921 -1.08901 0
M  V30 5118 C 501.241 1.85341 0.359719 0
M  V30 5119 O 500.598 1.33072 1.24892 0
M  V30 5120 C 500.649 3.18742 -1.70545 0
M  V30 5121 O 500.37 3.09814 -3.09753 0
M  V30 5122 C 501.871 4.1277 -1.61667 0
M  V30 5123 H 499.091 0.552166 -0.381252 0
M  V30 5124 H 501.635 1.23516 -1.62985 0
M  V30 5125 H 499.79 3.68182 -1.20501 0
M  V30 5126 H 500.204 3.99703 -3.39614 0
M  V30 5127 H 501.678 5.10697 -2.09506 0
M  V30 5128 H 502.155 4.3542 -0.575009 0
M  V30 5129 H 502.761 3.69232 -2.11064 0
M  V30 5130 N 501.076 1.04316 1.18135 0
M  V30 5131 C 502.039 0.640794 2.2006 0
M  V30 5132 C 503.039 -0.303124 1.57917 0
M  V30 5133 O 504.229 -0.0881855 1.73977 0
M  V30 5134 C 501.361 -0.060148 3.40847 0
M  V30 5135 H 502.554 1.54281 2.57172 0
M  V30 5136 H 500.107 0.836004 1.32063 0
M  V30 5137 H 500.842 -0.975845 3.0927 0
M  V30 5138 H 500.627 0.618319 3.87194 0
M  V30 5139 H 502.117 -0.328082 4.16309 0
M  V30 5140 N 502.554 -1.34406 0.822964 0
M  V30 5141 C 503.779 -2.0304 0.423034 0
M  V30 5142 C 504.204 -1.61568 -0.963196 0
M  V30 5143 O 503.562 -0.800339 -1.62678 0
M  V30 5144 C 503.61 -3.56636 0.53321 0
M  V30 5145 O 502.714 -4.09971 -0.446939 0
M  V30 5146 H 502.055 -0.64075 0.174171 0
M  V30 5147 H 504.585 -1.71653 1.11339 0
M  V30 5148 H 504.595 -4.05945 0.408991 0
M  V30 5149 H 503.27 -3.86168 1.54425 0
M  V30 5150 H 501.847 -3.71835 -0.281601 0
M  V30 5151 N 504.032 -0.577932 -1.46621 0
M  V30 5152 C 505.448 -0.239242 -1.57797 0
M  V30 5153 C 505.648 1.25843 -1.57371 0
M  V30 5154 O 504.704 2.03988 -1.48813 0
M  V30 5155 C 506.017 -0.884227 -2.87405 0
M  V30 5156 C 507.565 -0.857373 -3.01028 0
M  V30 5157 C 508.04 -1.48181 -4.33366 0
M  V30 5158 N 509.531 -1.44593 -4.40053 0
M  V30 5159 C 510.266 -1.89852 -5.41058 0
M  V30 5160 N 509.762 -2.43062 -6.48762 0
M  V30 5161 N 511.555 -1.80797 -5.3223 0
M  V30 5162 H 503.706 -1.55073 -1.45142 0
M  V30 5163 H 505.969 -0.647903 -0.692044 0
M  V30 5164 H 505.675 -1.93759 -2.93514 0
M  V30 5165 H 505.549 -0.389585 -3.75183 0
M  V30 5166 H 507.936 0.187357 -2.94505 0
M  V30 5167 H 508.017 -1.38999 -2.14739 0
M  V30 5168 H 507.661 -2.52572 -4.40647 0
M  V30 5169 H 507.591 -0.924464 -5.18422 0
M  V30 5170 H 510.082 -1.05694 -3.62819 0
M  V30 5171 H 510.395 -2.75466 -7.22038 0
M  V30 5172 H 508.74 -2.47085 -6.49595 0
M  V30 5173 H 511.931 -1.38989 -4.46989 0
M  V30 5174 H 512.104 -2.16385 -6.10804 0
M  V30 5175 N 505.51 1.54411 -0.315457 0
M  V30 5176 C 506.44 2.27002 0.547039 0
M  V30 5177 C 507.421 1.27492 1.12605 0
M  V30 5178 O 508.606 1.5629 1.15269 0
M  V30 5179 C 505.736 3.02171 1.71201 0
M  V30 5180 C 504.69 4.0895 1.26268 0
M  V30 5181 C 504.016 4.71915 2.51396 0
M  V30 5182 C 505.316 5.20891 0.383419 0
M  V30 5183 H 507.01 2.99343 -0.0584517 0
M  V30 5184 H 504.556 1.4397 -0.0295527 0
M  V30 5185 H 506.509 3.51681 2.32161 0
M  V30 5186 H 505.233 2.27433 2.34397 0
M  V30 5187 H 503.892 3.60312 0.676062 0
M  V30 5188 H 503.54 3.93801 3.12937 0
M  V30 5189 H 503.24 5.44039 2.22026 0
M  V30 5190 H 504.764 5.24195 3.13133 0
M  V30 5191 H 506.178 5.66206 0.899082 0
M  V30 5192 H 504.575 5.99821 0.182857 0
M  V30 5193 H 505.645 4.81324 -0.587821 0
M  V30 5194 N 506.988 0.0434614 1.5754 0
M  V30 5195 C 507.918 -0.931651 2.14109 0
M  V30 5196 C 508.899 -1.32971 1.06079 0
M  V30 5197 O 510.084 -1.40579 1.33982 0
M  V30 5198 C 507.214 -2.20914 2.67982 0
M  V30 5199 C 506.168 -1.95139 3.80926 0
M  V30 5200 C 505.494 -3.29276 4.21285 0
M  V30 5201 C 506.794 -1.27913 5.06395 0
M  V30 5202 H 508.488 -0.460497 2.95837 0
M  V30 5203 H 506.034 -0.220058 1.42309 0
M  V30 5204 H 507.987 -2.89522 3.06194 0
M  V30 5205 H 506.711 -2.70221 1.83434 0
M  V30 5206 H 505.37 -1.28945 3.43175 0
M  V30 5207 H 505.018 -3.76369 3.33699 0
M  V30 5208 H 504.718 -3.12831 4.97404 0
M  V30 5209 H 506.242 -3.99129 4.62091 0
M  V30 5210 H 507.656 -1.86544 5.42102 0
M  V30 5211 H 506.053 -1.2182 5.87605 0
M  V30 5212 H 507.123 -0.254066 4.84234 0
M  V30 5213 N 508.466 -1.55915 -0.229846 0
M  V30 5214 C 509.712 -1.78807 -0.956868 0
M  V30 5215 C 510.045 -0.611687 -1.84315 0
M  V30 5216 O 509.32 0.389398 -1.90562 0
M  V30 5217 C 509.603 -3.11718 -1.80288 0
M  V30 5218 C 509.456 -4.3979 -0.943649 0
M  V30 5219 C 510.775 -3.40999 -2.78222 0
M  V30 5220 H 507.894 -0.6505 -0.346437 0
M  V30 5221 H 510.536 -1.88648 -0.226252 0
M  V30 5222 H 508.686 -3.03459 -2.42579 0
M  V30 5223 H 510.358 -4.60059 -0.338121 0
M  V30 5224 H 508.601 -4.33086 -0.248705 0
M  V30 5225 H 509.272 -5.29208 -1.5698 0
M  V30 5226 H 511.748 -3.49332 -2.26067 0
M  V30 5227 H 510.624 -4.35183 -3.34526 0
M  V30 5228 H 510.885 -2.62754 -3.55546 0
M  V30 5229 N 509.944 0.496216 -1.49584 0
M  V30 5230 C 511.19 1.25189 -1.59548 0
M  V30 5231 C 511.523 1.9212 -0.283466 0
M  V30 5232 O 510.798 1.80947 0.713324 0
M  V30 5233 C 511.081 2.31516 -2.75812 0
M  V30 5234 C 510.934 1.69054 -4.16822 0
M  V30 5235 C 512.253 3.3304 -2.87702 0
M  V30 5236 H 509.372 0.45379 -0.580727 0
M  V30 5237 H 512.014 0.549327 -1.81886 0
M  V30 5238 H 510.164 2.91438 -2.56897 0
M  V30 5239 H 511.836 1.12923 -4.47265 0
M  V30 5240 H 510.079 0.994485 -4.22247 0
M  V30 5241 H 510.75 2.462 -4.94054 0
M  V30 5242 H 513.226 2.83114 -3.04936 0
M  V30 5243 H 512.102 4.04794 -3.7072 0
M  V30 5244 H 512.363 3.95655 -1.97255 0
M  V30 5245 N 511.423 1.38739 0.74761 0
M  V30 5246 C 512.353 1.39173 1.87492 0
M  V30 5247 C 513.334 0.256794 1.6815 0
M  V30 5248 O 514.519 0.460762 1.88655 0
M  V30 5249 C 511.649 1.22197 3.25093 0
M  V30 5250 C 510.603 2.32957 3.59047 0
M  V30 5251 C 509.929 2.01082 4.95449 0
M  V30 5252 C 511.229 3.75237 3.6331 0
M  V30 5253 H 512.923 2.3351 1.87386 0
M  V30 5254 H 510.469 1.12399 0.900134 0
M  V30 5255 H 512.422 1.21124 4.03617 0
M  V30 5256 H 511.146 0.243241 3.25693 0
M  V30 5257 H 509.805 2.33226 2.82845 0
M  V30 5258 H 509.453 1.01678 4.92616 0
M  V30 5259 H 509.153 2.75267 5.19136 0
M  V30 5260 H 510.677 2.01638 5.76346 0
M  V30 5261 H 512.091 3.76966 4.31937 0
M  V30 5262 H 510.488 4.48677 3.98509 0
M  V30 5263 H 511.558 4.07122 2.634 0
M  V30 5264 N 512.901 -0.976442 1.23707 0
M  V30 5265 C 514.178 -1.69296 0.979699 0
M  V30 5266 C 514.558 -2.0508 -0.500555 0
M  V30 5267 O 513.906 -1.74708 -1.47273 0
M  V30 5268 C 514.116 -2.93143 1.89389 0
M  V30 5269 C 515.464 -3.65572 2.15968 0
M  V30 5270 O 516.488 -3.03184 1.86971 0
M  V30 5271 O 515.347 -4.77859 2.65167 0
M  V30 5272 H 512.441 -0.739708 0.369812 0
M  V30 5273 H 514.987 -1.03131 1.34767 0
M  V30 5274 H 513.759 -2.63327 2.89439 0
M  V30 5275 H 513.382 -3.67044 1.52854 0
M  V30 5276 N 514.379 -1.04941 -1.1758 0
M  V30 5277 C 515.342 -0.652456 -2.19717 0
M  V30 5278 C 516.342 0.294745 -1.58076 0
M  V30 5279 O 517.532 0.0789579 -1.74021 0
M  V30 5280 C 514.664 0.0420712 -3.40874 0
M  V30 5281 H 515.857 -1.55642 -2.5635 0
M  V30 5282 H 513.41 -0.842995 -1.31618 0
M  V30 5283 H 514.145 0.95943 -3.09783 0
M  V30 5284 H 513.93 -0.638844 -3.86861 0
M  V30 5285 H 515.42 0.306 -4.16477 0
M  V30 5286 N 515.857 1.33968 -0.830081 0
M  V30 5287 C 516.804 2.29387 -0.255008 0
M  V30 5288 C 517.774 1.53923 0.624243 0
M  V30 5289 O 518.959 1.82262 0.564372 0
M  V30 5290 C 516.099 3.4034 0.571209 0
M  V30 5291 C 515.212 4.30729 -0.331083 0
M  V30 5292 C 514.347 5.2879 0.505389 0
M  V30 5293 C 513.386 6.10819 -0.395843 0
M  V30 5294 N 512.523 7.00948 0.401979 0
M  V30 5295 H 517.363 2.77972 -1.07404 0
M  V30 5296 H 514.9 1.36785 -0.541133 0
M  V30 5297 H 516.858 4.03361 1.06562 0
M  V30 5298 H 515.488 2.9297 1.35529 0
M  V30 5299 H 514.54 3.68507 -0.943759 0
M  V30 5300 H 515.852 4.88181 -1.02377 0
M  V30 5301 H 515.006 5.97297 1.06399 0
M  V30 5302 H 513.745 4.71894 1.23155 0
M  V30 5303 H 512.75 5.41238 -0.966529 0
M  V30 5304 H 513.975 6.69797 -1.12023 0
M  V30 5305 H 511.921 6.46512 1.11168 0
M  V30 5306 H 511.838 7.55643 -0.232167 0
M  V30 5307 H 513.106 7.73774 0.943102 0
M  V30 5308 N 517.335 0.585699 1.46312 0
M  V30 5309 C 518.563 0.0781299 2.06752 0
M  V30 5310 C 518.978 -1.22812 1.43396 0
M  V30 5311 O 518.335 -1.74318 0.540314 0
M  V30 5312 C 518.386 -0.0911927 3.61385 0
M  V30 5313 O 518.107 1.16336 4.22371 0
M  V30 5314 C 519.608 -0.632765 4.38761 0
M  V30 5315 H 516.828 0.0588188 0.668417 0
M  V30 5316 H 519.372 0.807218 1.87894 0
M  V30 5317 H 517.527 -0.770514 3.7966 0
M  V30 5318 H 517.941 0.979082 5.15281 0
M  V30 5319 H 519.415 -0.70041 5.47538 0
M  V30 5320 H 519.892 -1.65039 4.07012 0
M  V30 5321 H 520.498 0.0117856 4.25298 0
M  V30 5322 N 518.813 -1.54241 0.323641 0
M  V30 5323 C 520.061 -2.00174 -0.278359 0
M  V30 5324 C 520.382 -1.2134 -1.52648 0
M  V30 5325 O 519.652 -0.315244 -1.93347 0
M  V30 5326 H 518.232 -0.739463 -0.105845 0
M  V30 5327 H 520.894 -1.89864 0.440204 0
M  V30 5328 H 519.99 -3.07486 -0.5347 0
M  V30 5329 N 520.291 -0.0518155 -1.57515 0
M  V30 5330 C 521.201 0.937539 -2.15052 0
M  V30 5331 C 522.217 1.34121 -1.10849 0
M  V30 5332 O 523.393 1.418 -1.4302 0
M  V30 5333 C 520.458 2.19379 -2.68466 0
M  V30 5334 C 519.519 1.84841 -3.87469 0
M  V30 5335 C 518.752 3.04477 -4.38326 0
M  V30 5336 O 518.975 4.17868 -3.88256 0
M  V30 5337 O 517.909 2.85453 -5.29906 0
M  V30 5338 H 521.735 0.478201 -2.99912 0
M  V30 5339 H 519.32 0.17012 -1.48428 0
M  V30 5340 H 521.202 2.93084 -3.02787 0
M  V30 5341 H 519.877 2.64449 -1.86677 0
M  V30 5342 H 518.784 1.08449 -3.58036 0
M  V30 5343 H 520.117 1.44569 -4.7049 0
M  V30 5344 N 521.769 1.56035 0.221574 0
M  V30 5345 C 523.185 1.49026 0.571271 0
M  V30 5346 C 523.385 0.746912 1.87146 0
M  V30 5347 O 522.441 0.286566 2.50869 0
M  V30 5348 C 523.754 2.93579 0.650522 0
M  V30 5349 C 525.302 3.04099 0.741151 0
M  V30 5350 C 525.777 4.5001 0.851747 0
M  V30 5351 N 527.268 4.54053 0.915968 0
M  V30 5352 C 528.003 5.64232 1.02125 0
M  V30 5353 N 527.499 6.84164 1.09049 0
M  V30 5354 N 529.292 5.52084 1.05639 0
M  V30 5355 H 521.443 2.02791 -0.63162 0
M  V30 5356 H 523.706 0.921736 -0.221602 0
M  V30 5357 H 523.412 3.50912 -0.235253 0
M  V30 5358 H 523.286 3.45476 1.51413 0
M  V30 5359 H 525.673 2.4683 1.61737 0
M  V30 5360 H 525.754 2.55371 -0.148128 0
M  V30 5361 H 525.398 5.07896 -0.0200117 0
M  V30 5362 H 525.328 4.96444 1.75644 0
M  V30 5363 H 527.819 3.67683 0.872782 0
M  V30 5364 H 528.132 7.63883 1.1706 0
M  V30 5365 H 526.477 6.86875 1.05962 0
M  V30 5366 H 529.668 4.57317 0.998953 0
M  V30 5367 H 529.841 6.37983 1.13498 0
M  V30 5368 N 523.247 -0.488276 1.49845 0
M  V30 5369 C 524.177 -1.59675 1.70371 0
M  V30 5370 C 525.158 -1.60878 0.552473 0
M  V30 5371 O 526.343 -1.77417 0.78973 0
M  V30 5372 C 523.473 -2.98098 1.782 0
M  V30 5373 C 522.427 -3.11761 2.93239 0
M  V30 5374 C 521.753 -4.51661 2.86193 0
M  V30 5375 C 523.053 -2.90589 4.33999 0
M  V30 5376 H 524.747 -1.42752 2.63177 0
M  V30 5377 H 522.293 -0.685317 1.26647 0
M  V30 5378 H 524.246 -3.75555 1.91144 0
M  V30 5379 H 522.97 -3.16138 0.820018 0
M  V30 5380 H 521.629 -2.36732 2.79917 0
M  V30 5381 H 521.277 -4.66595 1.87877 0
M  V30 5382 H 520.977 -4.61742 3.63412 0
M  V30 5383 H 522.501 -5.31162 3.01163 0
M  V30 5384 H 523.915 -3.57807 4.47936 0
M  V30 5385 H 522.312 -3.1213 5.12538 0
M  V30 5386 H 523.382 -1.86595 4.4756 0
M  V30 5387 N 524.725 -1.39134 -0.740242 0
M  V30 5388 C 525.688 -1.37217 -1.83587 0
M  V30 5389 C 526.688 -0.270221 -1.58513 0
M  V30 5390 O 527.878 -0.527843 -1.6601 0
M  V30 5391 C 525.01 -1.13959 -3.21288 0
M  V30 5392 H 526.203 -2.34705 -1.86691 0
M  V30 5393 H 523.756 -1.24622 -0.94335 0
M  V30 5394 H 524.491 -0.17131 -3.23847 0
M  V30 5395 H 524.276 -1.93754 -3.40884 0
M  V30 5396 H 525.766 -1.15346 -4.01354 0
M  V30 5397 N 526.204 0.969867 -1.24223 0
M  V30 5398 C 527.151 2.06407 -1.0327 0
M  V30 5399 C 528.121 1.66014 0.0533 0
M  V30 5400 O 529.306 1.90533 -0.100896 0
M  V30 5401 C 526.446 3.3909 -0.641262 0
M  V30 5402 C 525.559 3.9269 -1.80051 0
M  V30 5403 C 524.694 5.13631 -1.35486 0
M  V30 5404 C 523.733 5.59423 -2.48419 0
M  V30 5405 N 522.87 6.71586 -2.04737 0
M  V30 5406 H 527.71 2.23663 -1.96923 0
M  V30 5407 H 525.247 1.09624 -0.980862 0
M  V30 5408 H 527.205 4.15323 -0.395351 0
M  V30 5409 H 525.835 3.21765 0.258269 0
M  V30 5410 H 524.887 3.13116 -2.16014 0
M  V30 5411 H 526.199 4.22636 -2.64916 0
M  V30 5412 H 525.353 5.97231 -1.0677 0
M  V30 5413 H 524.092 4.85364 -0.476722 0
M  V30 5414 H 523.097 4.74398 -2.77897 0
M  V30 5415 H 524.322 5.89705 -3.36786 0
M  V30 5416 H 522.268 6.45058 -1.19318 0
M  V30 5417 H 522.185 7.0097 -2.83156 0
M  V30 5418 H 523.453 7.58633 -1.79154 0
M  V30 5419 N 527.682 1.05563 1.17022 0
M  V30 5420 C 528.929 0.767937 1.87374 0
M  V30 5421 C 529.257 -0.705224 1.81265 0
M  V30 5422 O 528.512 -1.5318 1.21796 0
M  V30 5423 C 528.811 1.19849 3.36706 0
M  V30 5424 C 528.477 2.6745 3.63017 0
M  V30 5425 C 527.139 3.0777 3.69907 0
M  V30 5426 C 529.491 3.62811 3.74189 0
M  V30 5427 C 526.819 4.42307 3.85463 0
M  V30 5428 C 529.171 4.97087 3.91264 0
M  V30 5429 C 527.835 5.37055 3.96394 0
M  V30 5430 H 527.105 0.281008 0.68565 0
M  V30 5431 H 529.752 1.32339 1.38415 0
M  V30 5432 H 528.057 0.562096 3.87747 0
M  V30 5433 H 529.754 0.953038 3.8951 0
M  V30 5434 H 526.344 2.35228 3.58282 0
M  V30 5435 H 530.528 3.32798 3.68183 0
M  V30 5436 H 525.784 4.72769 3.87684 0
M  V30 5437 H 529.958 5.70869 3.9885 0
M  V30 5438 H 527.585 6.41308 4.082 0
M  V30 5439 N 529.16 -1.33526 0.837174 0
M  V30 5440 C 530.07 -2.33023 0.271568 0
M  V30 5441 C 531.086 -1.63272 -0.601514 0
M  V30 5442 O 532.262 -1.94939 -0.506038 0
M  V30 5443 C 529.327 -3.42382 -0.545448 0
M  V30 5444 C 528.388 -4.27857 0.351709 0
M  V30 5445 C 527.621 -5.31994 -0.426409 0
M  V30 5446 O 527.844 -5.45763 -1.65828 0
M  V30 5447 O 526.778 -6.01572 0.1987 0
M  V30 5448 H 530.604 -2.83256 1.09545 0
M  V30 5449 H 528.189 -1.36837 0.599655 0
M  V30 5450 H 530.071 -4.09122 -1.00979 0
M  V30 5451 H 528.746 -2.94369 -1.34641 0
M  V30 5452 H 527.653 -3.6399 0.863853 0
M  V30 5453 H 528.986 -4.79349 1.1174 0
M  V30 5454 N 530.638 -0.59345 -1.46 0
M  V30 5455 C 531.571 0.182196 -2.27472 0
M  V30 5456 C 532.549 0.886901 -1.36282 0
M  V30 5457 O 533.733 0.898627 -1.65701 0
M  V30 5458 C 530.86 1.26236 -3.14296 0
M  V30 5459 C 529.906 0.662331 -4.21326 0
M  V30 5460 S 530.739 -0.519017 -5.32979 0
M  V30 5461 C 531.895 0.562086 -6.23371 0
M  V30 5462 H 532.128 -0.509056 -2.92909 0
M  V30 5463 H 529.661 -0.380607 -1.49635 0
M  V30 5464 H 531.619 1.88075 -3.64881 0
M  V30 5465 H 530.28 1.92562 -2.48151 0
M  V30 5466 H 529.473 1.47461 -4.81945 0
M  V30 5467 H 529.075 0.119381 -3.73809 0
M  V30 5468 H 531.367 1.44494 -6.61912 0
M  V30 5469 H 532.31 -0.00760776 -7.081 0
M  V30 5470 H 532.718 0.871061 -5.57739 0
M  V30 5471 N 532.116 1.54067 -0.331816 0
M  V30 5472 C 533.364 2.00319 0.267739 0
M  V30 5473 C 533.685 1.22148 1.52003 0
M  V30 5474 O 532.955 0.325494 1.93177 0
M  V30 5475 H 531.535 0.740014 0.101922 0
M  V30 5476 H 534.197 1.89628 -0.450267 0
M  V30 5477 H 533.293 3.07765 0.518385 0
M  V30 5478 N 533.594 0.0601682 1.57485 0
M  V30 5479 C 534.544 -0.920969 2.08572 0
M  V30 5480 C 535.528 -1.26617 0.992827 0
M  V30 5481 O 536.72 -1.24708 1.25606 0
M  V30 5482 C 533.849 -2.19267 2.64153 0
M  V30 5483 C 532.935 -1.87447 3.80427 0
M  V30 5484 N 533.326 -1.26025 4.89848 0
M  V30 5485 C 531.624 -2.17265 3.89502 0
M  V30 5486 C 532.325 -1.12036 5.70809 0
M  V30 5487 N 531.301 -1.62624 5.18705 0
M  V30 5488 H 535.103 -0.441561 2.90564 0
M  V30 5489 H 532.617 -0.144043 1.6176 0
M  V30 5490 H 534.614 -2.90462 2.99061 0
M  V30 5491 H 533.274 -2.67806 1.83603 0
M  V30 5492 H 534.285 -0.931336 5.09457 0
M  V30 5493 H 530.962 -2.68262 3.19909 0
M  V30 5494 H 532.352 -0.642783 6.68818 0
M  V30 5495 N 535.072 -1.5615 -0.213296 0
M  V30 5496 C 535.982 -1.96265 -1.28519 0
M  V30 5497 C 536.998 -0.86765 -1.50824 0
M  V30 5498 O 538.174 -1.17191 -1.63793 0
M  V30 5499 C 535.239 -2.27836 -2.61327 0
M  V30 5500 C 534.3 -3.50949 -2.47252 0
M  V30 5501 C 533.533 -3.81004 -3.73727 0
M  V30 5502 O 533.756 -3.12612 -4.77106 0
M  V30 5503 O 532.69 -4.74477 -3.70344 0
M  V30 5504 H 536.516 -2.87631 -0.974795 0
M  V30 5505 H 534.101 -1.43467 -0.416832 0
M  V30 5506 H 535.983 -2.49299 -3.39747 0
M  V30 5507 H 534.658 -1.39643 -2.9203 0
M  V30 5508 H 533.565 -3.34754 -1.67004 0
M  V30 5509 H 534.898 -4.39551 -2.21486 0
M  V30 5510 N 536.55 0.480323 -1.50102 0
M  V30 5511 C 537.799 1.22979 -1.59872 0
M  V30 5512 C 538.112 1.93282 -0.30022 0
M  V30 5513 O 539.318 2.70086 -0.276709 0
M  V30 5514 C 537.774 2.23408 -2.82164 0
M  V30 5515 C 537.382 1.5895 -4.18854 0
M  V30 5516 C 539.126 2.99055 -3.01275 0
M  V30 5517 C 537.033 2.57611 -5.32344 0
M  V30 5518 H 535.963 0.462707 -0.59533 0
M  V30 5519 H 538.614 0.501291 -1.7652 0
M  V30 5520 H 536.996 2.99511 -2.59055 0
M  V30 5521 H 538.17 0.887 -4.52182 0
M  V30 5522 H 536.485 0.956191 -4.05273 0
M  V30 5523 H 539.082 3.72876 -3.83233 0
M  V30 5524 H 539.425 3.57897 -2.12639 0
M  V30 5525 H 539.958 2.30066 -3.24522 0
M  V30 5526 H 536.697 2.03521 -6.23105 0
M  V30 5527 H 536.217 3.26041 -5.03445 0
M  V30 5528 H 537.896 3.19627 -5.62537 0
M  V30 5529 N 538.028 1.39524 0.732853 0
M  V30 5530 C 539.305 1.27373 1.48444 0
M  V30 5531 C 539.685 -0.115725 2.10783 0
M  V30 5532 O 539.033 -1.12713 1.98766 0
M  V30 5533 C 539.243 2.39966 2.53412 0
M  V30 5534 C 540.591 2.79384 3.19733 0
M  V30 5535 O 541.615 2.39431 2.63725 0
M  V30 5536 O 540.474 3.48353 4.21085 0
M  V30 5537 H 537.568 0.499272 0.659285 0
M  V30 5538 H 540.114 1.51403 0.766496 0
M  V30 5539 H 538.886 3.32845 2.05742 0
M  V30 5540 H 538.509 2.17612 3.32762 0
M  V30 5541 N 539.506 -0.963266 1.24736 0
M  V30 5542 C 540.731 -1.74699 1.11781 0
M  V30 5543 C 541.156 -1.85267 -0.325258 0
M  V30 5544 O 540.514 -1.32681 -1.23553 0
M  V30 5545 C 540.562 -3.14322 1.76731 0
M  V30 5546 O 539.666 -3.99043 1.04109 0
M  V30 5547 H 539.007 -0.53684 0.390767 0
M  V30 5548 H 541.537 -1.20801 1.65131 0
M  V30 5549 H 541.547 -3.64824 1.82668 0
M  V30 5550 H 540.222 -3.05946 2.81726 0
M  V30 5551 H 538.799 -3.5752 1.05991 0
M  V30 5552 N 540.985 -1.06182 -1.16461 0
M  V30 5553 C 542.234 -0.772927 -1.86303 0
M  V30 5554 C 542.547 0.703187 -1.82523 0
M  V30 5555 O 543.753 1.10641 -2.47933 0
M  V30 5556 C 542.209 -1.33249 -3.34324 0
M  V30 5557 C 541.817 -2.83876 -3.46581 0
M  V30 5558 C 543.561 -1.12108 -4.09429 0
M  V30 5559 C 541.468 -3.33082 -4.88682 0
M  V30 5560 H 540.398 -0.285452 -0.697878 0
M  V30 5561 H 543.049 -1.28039 -1.31447 0
M  V30 5562 H 541.431 -0.7528 -3.88779 0
M  V30 5563 H 542.605 -3.47786 -3.02293 0
M  V30 5564 H 540.92 -3.03671 -2.84909 0
M  V30 5565 H 543.517 -1.46361 -5.14279 0
M  V30 5566 H 543.86 -0.0593832 -4.16258 0
M  V30 5567 H 544.393 -1.6665 -3.6121 0
M  V30 5568 H 541.132 -4.38726 -4.87032 0
M  V30 5569 H 540.652 -2.73919 -5.33599 0
M  V30 5570 H 542.331 -3.28344 -5.57494 0
M  V30 5571 N 542.463 1.3308 -0.844243 0
M  V30 5572 C 543.411 2.31028 -0.269954 0
M  V30 5573 C 544.405 1.58381 0.600997 0
M  V30 5574 O 545.611 1.73203 0.48996 0
M  V30 5575 H 541.986 0.748866 -0.0685782 0
M  V30 5576 H 543.957 2.76967 -1.11049 0
M  V30 5577 C 542.706 3.43549 0.535676 0
M  V30 5578 H 542.029 3.99604 -0.125202 0
M  V30 5579 H 543.469 4.14267 0.903262 0
M  V30 5580 C 541.928 2.8988 1.71672 0
M  V30 5581 O 542.458 2.86511 2.81557 0
M  V30 5582 N 540.664 2.46416 1.54037 0
M  V30 5583 H 540.211 2.49356 0.64649 0
M  V30 5584 H 540.169 2.1086 2.33207 0
M  V30 5585 N 543.941 0.601185 1.45683 0
M  V30 5586 C 545.187 0.0940202 2.02582 0
M  V30 5587 C 545.52 -1.26972 1.46941 0
M  V30 5588 O 544.795 -1.83613 0.641612 0
M  V30 5589 C 545.078 0.0481715 3.60068 0
M  V30 5590 C 544.931 1.44212 4.26055 0
M  V30 5591 C 546.25 -0.642975 4.35378 0
M  V30 5592 H 543.369 0.0356404 0.736138 0
M  V30 5593 H 546.011 0.771929 1.73612 0
M  V30 5594 H 544.161 -0.529128 3.8488 0
M  V30 5595 H 545.833 2.06601 4.12449 0
M  V30 5596 H 544.076 2.00465 3.84703 0
M  V30 5597 H 544.747 1.36234 5.34925 0
M  V30 5598 H 547.223 -0.152351 4.15821 0
M  V30 5599 H 546.099 -0.644141 5.45107 0
M  V30 5600 H 546.36 -1.70785 4.0778 0
M  V30 5601 N 545.419 -1.53889 0.339982 0
M  V30 5602 C 546.644 -2.05741 -0.261798 0
M  V30 5603 C 547.069 -1.21354 -1.43718 0
M  V30 5604 O 546.427 -0.22645 -1.7988 0
M  V30 5605 C 546.475 -3.54542 -0.658228 0
M  V30 5606 O 545.579 -3.7302 -1.75869 0
M  V30 5607 H 544.92 -0.662529 -0.0441672 0
M  V30 5608 H 547.45 -1.98568 0.493161 0
M  V30 5609 H 547.46 -3.9711 -0.936368 0
M  V30 5610 H 546.135 -4.15412 0.201358 0
M  V30 5611 H 544.712 -3.42355 -1.47809 0
M  V30 5612 N 546.897 -0.0685191 -1.57451 0
M  V30 5613 C 547.829 0.929372 -2.09512 0
M  V30 5614 C 548.842 1.26354 -1.02657 0
M  V30 5615 O 550.031 1.2213 -1.30179 0
M  V30 5616 C 547.131 2.24612 -2.53777 0
M  V30 5617 C 546.304 2.09128 -3.84167 0
M  V30 5618 C 545.363 3.24079 -4.14559 0
M  V30 5619 O 544.389 2.99215 -4.8421 0
M  V30 5620 N 545.591 4.49077 -3.67845 0
M  V30 5621 H 548.356 0.484901 -2.95751 0
M  V30 5622 H 545.917 0.11729 -1.61475 0
M  V30 5623 H 547.909 3.00412 -2.71172 0
M  V30 5624 H 546.479 2.60569 -1.72692 0
M  V30 5625 H 545.699 1.17815 -3.76182 0
M  V30 5626 H 546.987 1.9603 -4.69521 0
M  V30 5627 H 546.385 4.72165 -3.11571 0
M  V30 5628 H 544.942 5.21915 -3.90446 0
M  V30 5629 N 548.375 1.56261 0.205012 0
M  V30 5630 C 549.652 1.70856 0.952233 0
M  V30 5631 C 550.032 0.620501 2.01775 0
M  V30 5632 O 549.38 -0.370035 2.25484 0
M  V30 5633 C 549.59 3.12807 1.54767 0
M  V30 5634 C 550.938 3.72733 2.0336 0
M  V30 5635 O 551.962 3.15873 1.64629 0
M  V30 5636 O 550.821 4.72501 2.746 0
M  V30 5637 H 547.915 0.696496 0.445895 0
M  V30 5638 H 550.461 1.6857 0.195489 0
M  V30 5639 H 549.233 3.83465 0.779132 0
M  V30 5640 H 548.856 3.1928 2.36951 0
M  V30 5641 N 549.853 -0.472356 1.50355 0
M  V30 5642 C 550.763 -1.59637 1.7191 0
M  V30 5643 C 551.779 -1.63247 0.602195 0
M  V30 5644 O 552.955 -1.81139 0.880369 0
M  V30 5645 C 550.02 -2.9586 1.80742 0
M  V30 5646 C 549.081 -3.02649 3.04471 0
M  V30 5647 C 548.314 -4.32374 3.12872 0
M  V30 5648 O 548.537 -5.22807 2.28099 0
M  V30 5649 O 547.471 -4.44728 4.05587 0
M  V30 5650 H 551.297 -1.44373 2.67189 0
M  V30 5651 H 548.882 -0.651717 1.34436 0
M  V30 5652 H 550.764 -3.7677 1.88739 0
M  V30 5653 H 549.439 -3.11325 0.88647 0
M  V30 5654 H 548.346 -2.20821 3.01975 0
M  V30 5655 H 549.679 -2.92119 3.9614 0
M  V30 5656 N 551.331 -1.39911 -0.725443 0
M  V30 5657 C 552.278 -1.39393 -1.83952 0
M  V30 5658 C 553.248 -0.252249 -1.64173 0
M  V30 5659 O 554.433 -0.44882 -1.85446 0
M  V30 5660 C 551.573 -1.25262 -3.21564 0
M  V30 5661 C 550.686 -2.49054 -3.52982 0
M  V30 5662 C 549.821 -2.27439 -4.80047 0
M  V30 5663 C 548.86 -3.46857 -5.04338 0
M  V30 5664 N 547.997 -3.24499 -6.22611 0
M  V30 5665 H 552.837 -2.34622 -1.83729 0
M  V30 5666 H 550.374 -1.16537 -0.897636 0
M  V30 5667 H 552.332 -1.15077 -4.01015 0
M  V30 5668 H 550.962 -0.33657 -3.21041 0
M  V30 5669 H 550.014 -2.69805 -2.6816 0
M  V30 5670 H 551.326 -3.37973 -3.66846 0
M  V30 5671 H 550.48 -2.14551 -5.67497 0
M  V30 5672 H 549.219 -1.35929 -4.68374 0
M  V30 5673 H 548.224 -3.60232 -4.15346 0
M  V30 5674 H 549.449 -4.3928 -5.17889 0
M  V30 5675 H 547.395 -2.35663 -6.12208 0
M  V30 5676 H 547.312 -4.06978 -6.37106 0
M  V30 5677 H 548.58 -3.15325 -7.12875 0
M  V30 5678 N 552.809 0.956637 -1.25245 0
M  V30 5679 C 554.22 1.51569 -1.09012 0
M  V30 5680 C 554.571 1.93322 0.334813 0
M  V30 5681 O 553.696 1.78421 1.22454 0
M  V30 5682 C 554.291 2.75444 -1.97271 0
M  V30 5683 C 552.85 3.27669 -1.8523 0
M  V30 5684 C 551.997 2.00517 -1.91542 0
M  V30 5685 H 554.948 0.773746 -1.3856 0
M  V30 5686 H 554.969 3.4919 -1.51151 0
M  V30 5687 H 554.481 2.45024 -3.00973 0
M  V30 5688 H 552.582 3.62914 -0.844045 0
M  V30 5689 H 552.695 3.9582 -2.69932 0
M  V30 5690 H 551.059 2.15727 -1.35404 0
M  V30 5691 H 551.842 1.72448 -2.96844 0
M  V30 5692 N 554.287 1.06798 1.15896 0
M  V30 5693 C 555.217 0.704677 2.22613 0
M  V30 5694 C 556.198 -0.305252 1.67339 0
M  V30 5695 O 557.383 -0.179247 1.93371 0
M  V30 5696 C 554.513 0.0957325 3.47168 0
M  V30 5697 C 553.467 1.0322 4.15367 0
M  V30 5698 C 552.793 0.286293 5.33933 0
M  V30 5699 C 554.093 2.36341 4.65768 0
M  V30 5700 H 555.787 1.59688 2.53259 0
M  V30 5701 H 553.333 0.769257 1.21731 0
M  V30 5702 H 555.286 -0.170333 4.21056 0
M  V30 5703 H 554.01 -0.831516 3.15838 0
M  V30 5704 H 552.669 1.28309 3.43413 0
M  V30 5705 H 552.317 -0.644237 4.98857 0
M  V30 5706 H 552.017 0.910436 5.80504 0
M  V30 5707 H 553.541 0.0278938 6.10594 0
M  V30 5708 H 554.955 2.1561 5.31211 0
M  V30 5709 H 553.352 2.94299 5.2298 0
M  V30 5710 H 554.422 2.99047 3.81705 0
M  V30 5711 N 555.766 -1.3263 0.851289 0
M  V30 5712 C 556.696 -2.31449 0.308771 0
M  V30 5713 C 557.677 -1.59531 -0.590255 0
M  V30 5714 O 558.862 -1.87351 -0.511205 0
M  V30 5715 C 555.992 -3.43586 -0.506548 0
M  V30 5716 C 554.946 -4.26963 0.297753 0
M  V30 5717 C 554.272 -5.30831 -0.642094 0
M  V30 5718 C 555.572 -4.99643 1.52166 0
M  V30 5719 H 557.266 -2.77074 1.13447 0
M  V30 5720 H 554.812 -1.33207 0.546971 0
M  V30 5721 H 556.765 -4.11754 -0.896474 0
M  V30 5722 H 555.489 -2.96681 -1.36558 0
M  V30 5723 H 554.148 -3.60437 0.669391 0
M  V30 5724 H 553.796 -4.8018 -1.49788 0
M  V30 5725 H 553.496 -5.87501 -0.107968 0
M  V30 5726 H 555.02 -6.01862 -1.02927 0
M  V30 5727 H 556.434 -5.6051 1.20421 0
M  V30 5728 H 554.831 -5.66022 1.99347 0
M  V30 5729 H 555.901 -4.27701 2.28474 0
M  V30 5730 N 557.244 -0.608902 -1.45362 0
M  V30 5731 C 558.474 -0.110852 -2.06302 0
M  V30 5732 C 558.882 1.21062 -1.45398 0
M  V30 5733 O 558.225 1.74861 -0.562976 0
M  V30 5734 C 558.287 0.101793 -3.59356 0
M  V30 5735 C 557.951 -1.13808 -4.42602 0
M  V30 5736 C 558.948 -2.05653 -4.77496 0
M  V30 5737 C 556.633 -1.36727 -4.83333 0
M  V30 5738 C 558.627 -3.18745 -5.51978 0
M  V30 5739 C 556.314 -2.5012 -5.57569 0
M  V30 5740 C 557.312 -3.40957 -5.91809 0
M  V30 5741 O 557 -4.52376 -6.64538 0
M  V30 5742 H 556.732 -0.0666001 -0.672711 0
M  V30 5743 H 559.286 -0.836942 -1.87575 0
M  V30 5744 H 557.516 0.88279 -3.76489 0
M  V30 5745 H 559.205 0.551607 -4.02134 0
M  V30 5746 H 559.971 -1.89172 -4.46586 0
M  V30 5747 H 555.85 -0.669216 -4.56117 0
M  V30 5748 H 559.394 -3.8967 -5.78622 0
M  V30 5749 H 555.291 -2.66553 -5.87894 0
M  V30 5750 H 556.059 -4.51075 -6.82989 0
M  V30 5751 N 558.722 1.53707 -0.348139 0
M  V30 5752 C 559.685 2.23812 0.494058 0
M  V30 5753 C 560.685 1.23989 1.02388 0
M  V30 5754 O 561.875 1.48395 0.912396 0
M  V30 5755 C 559.007 2.96133 1.68872 0
M  V30 5756 H 560.2 2.99663 -0.119141 0
M  V30 5757 H 557.753 1.55983 -0.0995539 0
M  V30 5758 H 558.488 2.24481 2.34049 0
M  V30 5759 H 558.273 3.69357 1.31596 0
M  V30 5760 H 559.763 3.49475 2.28597 0
M  V30 5761 N 560.2 0.0768682 1.57412 0
M  V30 5762 C 561.13 -0.886026 2.16037 0
M  V30 5763 C 562.111 -1.30691 1.08876 0
M  V30 5764 O 563.296 -1.37705 1.36934 0
M  V30 5765 C 560.426 -2.1518 2.72608 0
M  V30 5766 C 559.38 -1.87015 3.8498 0
M  V30 5767 C 558.706 -3.20266 4.28175 0
M  V30 5768 C 560.006 -1.17143 5.08994 0
M  V30 5769 H 561.7 -0.397642 2.96748 0
M  V30 5770 H 559.246 -0.189823 1.42743 0
M  V30 5771 H 561.199 -2.82962 3.12266 0
M  V30 5772 H 559.923 -2.66269 1.89125 0
M  V30 5773 H 558.582 -1.21636 3.45833 0
M  V30 5774 H 558.23 -3.69207 3.41607 0
M  V30 5775 H 557.93 -3.0221 5.03927 0
M  V30 5776 H 559.454 -3.89237 4.70454 0
M  V30 5777 H 560.868 -1.75003 5.45937 0
M  V30 5778 H 559.265 -1.09328 5.90057 0
M  V30 5779 H 560.335 -0.151295 4.84664 0
M  V30 5780 N 561.678 -1.56367 -0.196722 0
M  V30 5781 C 562.903 -1.84991 -0.937714 0
M  V30 5782 C 563.328 -0.660244 -1.76132 0
M  V30 5783 O 562.686 0.390967 -1.77034 0
M  V30 5784 C 562.734 -3.11828 -1.81096 0
M  V30 5785 O 561.838 -2.92266 -2.90955 0
M  V30 5786 H 561.179 -0.609193 -0.264159 0
M  V30 5787 H 563.709 -2.03595 -0.202529 0
M  V30 5788 H 563.719 -3.42579 -2.21594 0
M  V30 5789 H 562.394 -3.98037 -1.2058 0
M  V30 5790 H 560.971 -2.72809 -2.54224 0
M  V30 5791 N 563.156 0.464375 -1.50603 0
M  V30 5792 C 564.384 1.23907 -1.65695 0
M  V30 5793 C 564.799 1.85658 -0.343027 0
M  V30 5794 O 564.156 1.69529 0.675739 0
M  V30 5795 C 564.207 2.3429 -2.75301 0
M  V30 5796 O 563.928 1.7507 -4.01599 0
M  V30 5797 C 565.429 3.25051 -3.01424 0
M  V30 5798 H 562.649 0.374485 -0.556778 0
M  V30 5799 H 565.193 0.55353 -1.96866 0
M  V30 5800 H 563.348 2.98607 -2.46804 0
M  V30 5801 H 563.762 2.47812 -4.62266 0
M  V30 5802 H 565.236 3.98699 -3.81763 0
M  V30 5803 H 565.713 3.84227 -2.12758 0
M  V30 5804 H 566.319 2.66463 -3.31477 0
M  V30 5805 N 564.634 1.40294 0.718013 0
M  V30 5806 C 565.882 1.38167 1.47494 0
M  V30 5807 C 566.203 -0.01607 1.94993 0
M  V30 5808 O 565.473 -0.970396 1.70177 0
M  V30 5809 H 564.053 0.508505 0.547203 0
M  V30 5810 H 566.715 1.75324 0.851322 0
M  V30 5811 H 565.811 2.05503 2.34894 0
M  V30 5812 N 566.112 -0.949982 1.2575 0
M  V30 5813 C 567.389 -1.6718 1.01539 0
M  V30 5814 C 567.769 -2.06095 -0.456942 0
M  V30 5815 O 567.117 -1.77792 -1.43534 0
M  V30 5816 C 567.327 -2.8906 1.95564 0
M  V30 5817 C 568.675 -3.60909 2.23673 0
M  V30 5818 O 569.699 -2.9915 1.9336 0
M  V30 5819 O 568.558 -4.72127 2.75243 0
M  V30 5820 H 565.652 -0.731697 0.385419 0
M  V30 5821 H 568.198 -1.00249 1.36924 0
M  V30 5822 H 566.97 -2.57128 2.94959 0
M  V30 5823 H 566.593 -3.63719 1.60605 0
M  V30 5824 N 567.59 -1.07411 -1.15328 0
M  V30 5825 C 568.537 -0.694995 -2.20087 0
M  V30 5826 C 569.507 0.313904 -1.63107 0
M  V30 5827 O 570.692 0.200216 -1.89747 0
M  V30 5828 C 567.832 -0.0996218 -3.44956 0
M  V30 5829 C 566.945 -1.16007 -4.16133 0
M  V30 5830 C 566.08 -0.529636 -5.28553 0
M  V30 5831 C 565.119 -1.57283 -5.91548 0
M  V30 5832 N 564.256 -0.964932 -6.95438 0
M  V30 5833 H 569.096 -1.5927 -2.51867 0
M  V30 5834 H 566.633 -0.796115 -1.23695 0
M  V30 5835 H 568.591 0.263197 -4.16369 0
M  V30 5836 H 567.221 0.761435 -3.13691 0
M  V30 5837 H 566.273 -1.64045 -3.4321 0
M  V30 5838 H 567.585 -1.95101 -4.59061 0
M  V30 5839 H 566.739 -0.114487 -6.06592 0
M  V30 5840 H 565.478 0.29307 -4.86819 0
M  V30 5841 H 564.483 -1.99775 -5.12221 0
M  V30 5842 H 565.708 -2.39783 -6.35359 0
M  V30 5843 H 563.654 -0.16314 -6.55797 0
M  V30 5844 H 563.571 -1.69311 -7.36797 0
M  V30 5845 H 564.839 -0.575305 -7.77374 0
M  V30 5846 N 569.068 1.32177 -0.85831 0
M  V30 5847 C 570.296 2.01313 -0.477582 0
M  V30 5848 C 570.711 1.6449 0.926736 0
M  V30 5849 O 570.068 0.868096 1.60531 0
M  V30 5850 C 570.119 3.56293 -0.611337 0
M  V30 5851 O 569.84 3.91794 -1.96034 0
M  V30 5852 C 571.341 4.42702 -0.230093 0
M  V30 5853 H 568.561 0.644323 -0.187322 0
M  V30 5854 H 571.105 1.68674 -1.15626 0
M  V30 5855 H 569.26 3.87395 0.0196494 0
M  V30 5856 H 569.674 4.86513 -1.95973 0
M  V30 5857 H 571.148 5.50727 -0.374674 0
M  V30 5858 H 571.625 4.3129 0.829779 0
M  V30 5859 H 572.231 4.16997 -0.836302 0
M  V30 5860 N 570.547 0.616602 1.45037 0
M  V30 5861 C 571.477 -0.0840787 2.33349 0
M  V30 5862 C 572.458 -0.849641 1.4736 0
M  V30 5863 O 573.643 -0.818407 1.76113 0
M  V30 5864 C 570.773 -1.07604 3.3021 0
M  V30 5865 C 569.727 -0.423096 4.25904 0
M  V30 5866 C 569.053 -1.52394 5.12523 0
M  V30 5867 C 570.353 0.661457 5.18095 0
M  V30 5868 H 572.047 0.653333 2.92185 0
M  V30 5869 H 569.593 0.315634 1.40498 0
M  V30 5870 H 571.546 -1.57485 3.90866 0
M  V30 5871 H 570.27 -1.84416 2.69552 0
M  V30 5872 H 568.929 0.05493 3.66559 0
M  V30 5873 H 568.577 -2.28257 4.48227 0
M  V30 5874 H 568.277 -1.09251 5.77354 0
M  V30 5875 H 569.801 -2.02485 5.76049 0
M  V30 5876 H 571.215 0.246353 5.7277 0
M  V30 5877 H 569.612 1.01517 5.91451 0
M  V30 5878 H 570.682 1.53446 4.59981 0
M  V30 5879 N 572.025 -1.5352 0.356285 0
M  V30 5880 C 573.255 -2.05236 -0.236983 0
M  V30 5881 C 573.663 -1.23016 -1.43749 0
M  V30 5882 O 573.006 -0.2615 -1.81829 0
M  V30 5883 C 573.068 -3.52549 -0.7035 0
M  V30 5884 C 572.732 -4.55425 0.379059 0
M  V30 5885 C 573.729 -5.0524 1.22592 0
M  V30 5886 C 571.414 -4.99425 0.536638 0
M  V30 5887 C 573.408 -5.97647 2.21578 0
M  V30 5888 C 571.095 -5.9164 1.52988 0
M  V30 5889 C 572.093 -6.4064 2.3679 0
M  V30 5890 O 571.781 -7.31039 3.34421 0
M  V30 5891 H 571.513 -0.674346 -0.047254 0
M  V30 5892 H 574.067 -1.98962 0.510238 0
M  V30 5893 H 572.297 -3.56331 -1.50217 0
M  V30 5894 H 573.986 -3.87171 -1.21873 0
M  V30 5895 H 574.752 -4.72002 1.11532 0
M  V30 5896 H 570.631 -4.60879 -0.105834 0
M  V30 5897 H 574.175 -6.35816 2.87025 0
M  V30 5898 H 570.072 -6.24293 1.64099 0
M  V30 5899 H 570.84 -7.49009 3.30041 0
M  V30 5900 N 573.503 -0.0852151 -1.57369 0
M  V30 5901 C 574.752 0.580443 -1.93168 0
M  V30 5902 C 575.065 1.6995 -0.968319 0
M  V30 5903 O 576.271 2.42564 -1.21963 0
M  V30 5904 C 574.727 1.08386 -3.43192 0
M  V30 5905 C 574.335 -0.00491388 -4.48 0
M  V30 5906 C 576.079 1.72281 -3.87968 0
M  V30 5907 C 573.986 0.513299 -5.89168 0
M  V30 5908 H 572.916 0.22059 -0.72101 0
M  V30 5909 H 575.567 -0.159621 -1.82804 0
M  V30 5910 H 573.949 1.8773 -3.48674 0
M  V30 5911 H 575.123 -0.780032 -4.5415 0
M  V30 5912 H 573.438 -0.548453 -4.12772 0
M  V30 5913 H 576.035 2.12108 -4.9083 0
M  V30 5914 H 576.378 2.58811 -3.26071 0
M  V30 5915 H 576.911 0.995359 -3.85146 0
M  V30 5916 H 573.65 -0.315153 -6.54742 0
M  V30 5917 H 573.17 1.25564 -5.8651 0
M  V30 5918 H 574.849 0.985433 -6.39451 0
M  V30 5919 N 574.981 1.5647 0.188427 0
M  V30 5920 C 575.931 1.91479 1.23774 0
M  V30 5921 C 576.915 0.78119 1.40664 0
M  V30 5922 O 578.107 1.04414 1.42922 0
M  V30 5923 C 575.236 2.26354 2.58106 0
M  V30 5924 C 574.322 3.46186 2.44981 0
M  V30 5925 N 574.713 4.63911 2.01546 0
M  V30 5926 C 573.011 3.50456 2.75856 0
M  V30 5927 C 573.712 5.46064 2.00472 0
M  V30 5928 N 572.688 4.86648 2.42229 0
M  V30 5929 H 576.49 2.79994 0.893339 0
M  V30 5930 H 574.004 1.57477 0.39682 0
M  V30 5931 H 576.001 2.49622 3.33908 0
M  V30 5932 H 574.661 1.39168 2.93364 0
M  V30 5933 H 575.672 4.88451 1.7215 0
M  V30 5934 H 572.349 2.73704 3.15265 0
M  V30 5935 H 573.739 6.50368 1.68734 0
M  V30 5936 N 576.459 -0.456382 1.50847 0
M  V30 5937 C 577.736 -1.21739 1.53098 0
M  V30 5938 C 578.116 -2.09179 0.284132 0
M  V30 5939 O 577.464 -2.16466 -0.731773 0
M  V30 5940 C 577.674 -2.03573 2.83477 0
M  V30 5941 C 579.022 -2.61264 3.34703 0
M  V30 5942 O 580.046 -2.13802 2.84898 0
M  V30 5943 O 578.905 -3.47779 4.21559 0
M  V30 5944 H 575.999 -0.553219 0.614718 0
M  V30 5945 H 578.545 -0.467003 1.63148 0
M  V30 5946 H 577.317 -1.39232 3.65691 0
M  V30 5947 H 576.94 -2.85716 2.76499 0
M  V30 5948 N 577.937 -1.40673 -0.710563 0
M  V30 5949 C 578.9 -1.4108 -1.80635 0
M  V30 5950 C 579.9 -0.303783 -1.57904 0
M  V30 5951 O 581.09 -0.562937 -1.64853 0
M  V30 5952 C 578.222 -1.20748 -3.18799 0
M  V30 5953 H 579.415 -2.38612 -1.81671 0
M  V30 5954 H 576.968 -1.26595 -0.916704 0
M  V30 5955 H 577.703 -0.239964 -3.23411 0
M  V30 5956 H 577.488 -2.00941 -3.36698 0
M  V30 5957 H 578.978 -1.23833 -3.98817 0
M  V30 5958 N 579.415 0.9433 -1.26252 0
M  V30 5959 C 580.325 2.07532 -1.09397 0
M  V30 5960 C 581.341 1.73977 -0.0280449 0
M  V30 5961 O 582.517 2.00067 -0.231337 0
M  V30 5962 C 579.582 3.39002 -0.726523 0
M  V30 5963 C 578.643 3.86353 -1.87163 0
M  V30 5964 C 577.876 5.11549 -1.52162 0
M  V30 5965 O 578.099 5.68834 -0.422385 0
M  V30 5966 O 577.033 5.53889 -2.35565 0
M  V30 5967 H 580.859 2.24658 -2.04359 0
M  V30 5968 H 578.444 1.05988 -1.05295 0
M  V30 5969 H 580.326 4.18 -0.534236 0
M  V30 5970 H 579.001 3.2312 0.193721 0
M  V30 5971 H 577.908 3.0831 -2.11886 0
M  V30 5972 H 579.241 4.06752 -2.77152 0
M  V30 5973 N 580.893 1.08022 1.14757 0
M  V30 5974 C 582.118 0.82895 1.90114 0
M  V30 5975 C 582.543 -0.612772 1.77839 0
M  V30 5976 O 581.901 -1.42895 1.11583 0
M  V30 5977 C 581.949 1.25062 3.38219 0
M  V30 5978 O 581.053 0.400119 4.10454 0
M  V30 5979 H 580.394 0.301412 0.591648 0
M  V30 5980 H 582.924 1.44062 1.45284 0
M  V30 5981 H 582.934 1.22977 3.89025 0
M  V30 5982 H 581.609 2.30067 3.46471 0
M  V30 5983 H 580.186 0.484052 3.69745 0
M  V30 5984 N 582.371 -1.3172 0.865308 0
M  V30 5985 C 583.619 -1.96487 0.472995 0
M  V30 5986 C 583.94 -1.68761 -0.976975 0
M  V30 5987 O 583.21 -1.00051 -1.68424 0
M  V30 5988 H 581.79 -0.726947 0.171922 0
M  V30 5989 H 584.452 -1.60612 1.10407 0
M  V30 5990 H 583.548 -3.0574 0.62687 0
M  V30 5991 N 583.85 -0.624285 -1.44708 0
M  V30 5992 C 584.76 0.0861083 -2.34442 0
M  V30 5993 C 585.776 0.84291 -1.5222 0
M  V30 5994 O 586.952 0.796723 -1.84971 0
M  V30 5995 C 584.017 1.05999 -3.30099 0
M  V30 5996 C 583.077 0.303316 -4.28227 0
M  V30 5997 C 582.311 1.23081 -5.19314 0
M  V30 5998 O 582.534 2.46929 -5.14181 0
M  V30 5999 O 581.468 0.71883 -5.97592 0
M  V30 6000 H 585.293 -0.651756 -2.96624 0
M  V30 6001 H 582.879 -0.384493 -1.44368 0
M  V30 6002 H 584.76 1.62046 -3.88997 0
M  V30 6003 H 583.436 1.77859 -2.70459 0
M  V30 6004 H 582.343 -0.300033 -3.72895 0
M  V30 6005 H 583.676 -0.375123 -4.90768 0
M  V30 6006 N 585.328 1.53329 -0.364422 0
M  V30 6007 C 586.238 2.29414 0.490552 0
M  V30 6008 C 587.254 1.35335 1.09363 0
M  V30 6009 O 588.43 1.68391 1.10483 0
M  V30 6010 C 585.495 3.06772 1.61529 0
M  V30 6011 C 584.556 4.16516 1.03986 0
M  V30 6012 C 583.789 4.90176 2.111 0
M  V30 6013 O 584.012 4.63687 3.32191 0
M  V30 6014 O 582.946 5.76134 1.74222 0
M  V30 6015 H 586.772 3.03428 -0.12856 0
M  V30 6016 H 584.357 1.48843 -0.128837 0
M  V30 6017 H 586.239 3.55082 2.26924 0
M  V30 6018 H 584.914 2.35596 2.21983 0
M  V30 6019 H 583.821 3.7246 0.349856 0
M  V30 6020 H 585.154 4.89855 0.4799 0
M  V30 6021 N 586.806 0.0935595 1.57322 0
M  V30 6022 C 587.736 -0.863062 2.16964 0
M  V30 6023 C 588.717 -1.29528 1.10256 0
M  V30 6024 O 589.902 -1.36245 1.38387 0
M  V30 6025 C 587.032 -2.12276 2.74875 0
M  V30 6026 C 585.986 -1.82921 3.86942 0
M  V30 6027 C 585.312 -3.15707 4.31548 0
M  V30 6028 C 586.612 -1.11737 5.10208 0
M  V30 6029 H 588.306 -0.366145 2.97153 0
M  V30 6030 H 585.852 -0.174673 1.42937 0
M  V30 6031 H 587.805 -2.79634 3.1525 0
M  V30 6032 H 586.529 -2.64248 1.91938 0
M  V30 6033 H 585.188 -1.17961 3.47103 0
M  V30 6034 H 584.836 -3.65563 3.45504 0
M  V30 6035 H 584.536 -2.96849 5.07104 0
M  V30 6036 H 586.06 -3.84226 4.74555 0
M  V30 6037 H 587.474 -1.69203 5.47762 0
M  V30 6038 H 585.871 -1.03064 5.91183 0
M  V30 6039 H 586.941 -0.0998818 4.84797 0
M  V30 6040 N 588.284 -1.56567 -0.180126 0
M  V30 6041 C 589.7 -1.50488 -0.531559 0
M  V30 6042 C 589.9 -0.796267 -1.851 0
M  V30 6043 O 588.956 -0.352978 -2.50021 0
M  V30 6044 C 590.269 -2.95201 -0.572456 0
M  V30 6045 C 591.817 -3.05957 -0.660264 0
M  V30 6046 C 592.292 -4.5211 -0.732135 0
M  V30 6047 N 593.783 -4.56322 -0.795262 0
M  V30 6048 C 594.518 -5.66742 -0.871296 0
M  V30 6049 N 594.014 -6.86815 -0.908708 0
M  V30 6050 N 595.807 -5.54691 -0.909639 0
M  V30 6051 H 587.958 -2.01045 0.685165 0
M  V30 6052 H 590.221 -0.915536 0.245962 0
M  V30 6053 H 589.927 -3.50165 0.328208 0
M  V30 6054 H 589.801 -3.49369 -1.422 0
M  V30 6055 H 592.188 -2.51032 -1.55136 0
M  V30 6056 H 592.269 -2.54888 0.215783 0
M  V30 6057 H 591.913 -5.07664 0.154664 0
M  V30 6058 H 591.843 -5.00926 -1.6242 0
M  V30 6059 H 594.334 -3.69868 -0.77499 0
M  V30 6060 H 594.647 -7.66718 -0.967654 0
M  V30 6061 H 592.992 -6.89443 -0.877132 0
M  V30 6062 H 596.183 -4.59804 -0.877353 0
M  V30 6063 H 596.356 -6.40768 -0.965434 0
M  V30 6064 N 589.762 0.448376 -1.51087 0
M  V30 6065 C 590.987 1.22605 -1.6728 0
M  V30 6066 C 591.412 1.84524 -0.365045 0
M  V30 6067 O 590.77 1.6832 0.673642 0
M  V30 6068 C 590.818 2.29393 -2.78229 0
M  V30 6069 O 589.922 3.34608 -2.41063 0
M  V30 6070 H 589.263 0.359705 -0.558129 0
M  V30 6071 H 591.793 0.530903 -1.97592 0
M  V30 6072 H 591.803 2.74352 -3.01986 0
M  V30 6073 H 590.478 1.83701 -3.73131 0
M  V30 6074 H 589.055 2.95202 -2.27838 0
M  V30 6075 N 591.24 1.41047 0.703093 0
M  V30 6076 C 592.486 1.40207 1.46526 0
M  V30 6077 C 592.819 0.00847763 1.94198 0
M  V30 6078 O 592.094 -0.962437 1.69019 0
M  V30 6079 C 592.377 2.40238 2.6825 0
M  V30 6080 C 592.23 3.88674 2.26391 0
M  V30 6081 C 593.549 2.37627 3.70434 0
M  V30 6082 H 590.668 0.510594 0.531472 0
M  V30 6083 H 593.31 1.72271 0.801422 0
M  V30 6084 H 591.46 2.13026 3.24888 0
M  V30 6085 H 593.132 4.2676 1.75138 0
M  V30 6086 H 591.375 4.03903 1.58255 0
M  V30 6087 H 592.046 4.542 3.13698 0
M  V30 6088 H 594.522 2.61759 3.23452 0
M  V30 6089 H 593.398 3.09645 4.53223 0
M  V30 6090 H 593.659 1.39223 4.19606 0
M  V30 6091 N 592.718 -0.936591 1.26751 0
M  V30 6092 C 593.666 -2.0573 1.08527 0
M  V30 6093 C 594.66 -1.69397 0.0108784 0
M  V30 6094 O 595.866 -1.79215 0.167915 0
M  V30 6095 H 592.241 -0.673691 0.334133 0
M  V30 6096 H 594.212 -2.1825 2.03493 0
M  V30 6097 C 592.961 -3.39738 0.739845 0
M  V30 6098 H 592.284 -3.68174 1.55845 0
M  V30 6099 H 593.724 -4.18955 0.652149 0
M  V30 6100 C 592.183 -3.32292 -0.555288 0
M  V30 6101 O 592.713 -3.68794 -1.59229 0
M  V30 6102 N 590.919 -2.85394 -0.54762 0
M  V30 6103 H 590.466 -2.55886 0.296667 0
M  V30 6104 H 590.424 -2.80795 -1.41427 0
M  V30 6105 N 594.196 -1.08629 -1.14182 0
M  V30 6106 C 595.128 -0.676189 -2.18998 0
M  V30 6107 C 596.141 0.277871 -1.60411 0
M  V30 6108 O 597.33 0.0651771 -1.78381 0
M  V30 6109 C 594.43 0.0254916 -3.3889 0
M  V30 6110 C 593.603 -0.948039 -4.27002 0
M  V30 6111 C 592.662 -0.281268 -5.25448 0
M  V30 6112 O 591.688 -0.926378 -5.61611 0
M  V30 6113 N 592.89 0.967923 -5.72374 0
M  V30 6114 H 595.655 -1.57792 -2.54798 0
M  V30 6115 H 593.216 -0.972665 -1.29425 0
M  V30 6116 H 595.208 0.482554 -4.01813 0
M  V30 6117 H 593.778 0.829348 -3.01398 0
M  V30 6118 H 592.998 -1.58388 -3.6098 0
M  V30 6119 H 594.286 -1.60765 -4.82734 0
M  V30 6120 H 593.684 1.51175 -5.45126 0
M  V30 6121 H 592.241 1.36844 -6.37273 0
M  V30 6122 N 595.674 1.31259 -0.872281 0
M  V30 6123 C 596.604 2.30929 -0.345554 0
M  V30 6124 C 597.585 1.60449 0.5648 0
M  V30 6125 O 598.77 1.8814 0.481335 0
M  V30 6126 C 595.9 3.44348 0.451823 0
M  V30 6127 C 594.854 4.26435 -0.365641 0
M  V30 6128 C 594.18 5.31785 0.557562 0
M  V30 6129 C 595.48 4.97159 -1.60095 0
M  V30 6130 H 597.174 2.75234 -1.17841 0
M  V30 6131 H 594.72 1.3232 -0.568094 0
M  V30 6132 H 596.673 4.13128 0.830854 0
M  V30 6133 H 595.397 2.98816 1.31821 0
M  V30 6134 H 594.056 3.59326 -0.726649 0
M  V30 6135 H 593.704 4.82502 1.4213 0
M  V30 6136 H 593.404 5.87598 0.0144878 0
M  V30 6137 H 594.928 6.03424 0.933387 0
M  V30 6138 H 596.342 5.58523 -1.29323 0
M  V30 6139 H 594.739 5.62779 -2.08327 0
M  V30 6140 H 595.809 4.24012 -2.35249 0
M  V30 6141 N 597.152 0.631951 1.44375 0
M  V30 6142 C 598.4 0.136497 2.01639 0
M  V30 6143 C 598.721 -1.24637 1.49969 0
M  V30 6144 O 597.991 -1.82827 0.70363 0
M  V30 6145 H 596.571 0.0474703 0.74549 0
M  V30 6146 H 599.233 0.818837 1.76865 0
M  V30 6147 H 598.329 0.104817 3.11924 0
M  V30 6148 N 598.631 -1.53133 0.372548 0
M  V30 6149 C 599.581 -2.22733 -0.487218 0
M  V30 6150 C 600.565 -1.22506 -1.04312 0
M  V30 6151 O 601.757 -1.47923 -0.972005 0
M  V30 6152 C 598.886 -3.02524 -1.62278 0
M  V30 6153 C 597.972 -4.10133 -1.07943 0
M  V30 6154 N 598.363 -5.05133 -0.259629 0
M  V30 6155 C 596.661 -4.24964 -1.35356 0
M  V30 6156 C 597.362 -5.81687 0.0386656 0
M  V30 6157 N 596.338 -5.40699 -0.560827 0
M  V30 6158 H 600.14 -2.93538 0.145853 0
M  V30 6159 H 597.654 -1.61389 0.180938 0
M  V30 6160 H 599.651 -3.50909 -2.25096 0
M  V30 6161 H 598.311 -2.33252 -2.25884 0
M  V30 6162 H 599.322 -5.178 0.101746 0
M  V30 6163 H 595.999 -3.66919 -1.9919 0
M  V30 6164 H 597.389 -6.68224 0.701841 0
M  V30 6165 N 600.109 -0.101901 -1.5727 0
M  V30 6166 C 601.357 0.559091 -1.94213 0
M  V30 6167 C 601.678 1.68297 -0.984948 0
M  V30 6168 O 600.948 1.95863 -0.0381975 0
M  V30 6169 H 599.528 0.20952 -0.717015 0
M  V30 6170 H 602.19 -0.166831 -1.94185 0
M  V30 6171 H 601.286 0.96485 -2.96811 0
M  V30 6172 N 601.587 1.56661 0.17182 0
M  V30 6173 C 602.998 1.71652 0.734329 0
M  V30 6174 C 603.349 0.712335 1.82812 0
M  V30 6175 O 602.474 -0.126401 2.16031 0
M  V30 6176 C 603.069 3.11226 1.3388 0
M  V30 6177 C 601.628 3.27904 1.84813 0
M  V30 6178 C 600.775 2.67603 0.726917 0
M  V30 6179 H 603.726 1.5861 -0.0535665 0
M  V30 6180 H 603.747 3.09849 2.20849 0
M  V30 6181 H 603.259 3.8429 0.54249 0
M  V30 6182 H 601.36 2.59796 2.6709 0
M  V30 6183 H 601.473 4.35637 1.99392 0
M  V30 6184 H 599.837 2.274 1.14723 0
M  V30 6185 H 600.62 3.43252 -0.0575334 0
M  V30 6186 N 603.065 -0.440357 1.51323 0
M  V30 6187 C 603.997 -1.55254 1.68609 0
M  V30 6188 C 605.01 -1.52614 0.566812 0
M  V30 6189 O 606.199 -1.57445 0.841032 0
M  V30 6190 C 603.299 -2.94169 1.68279 0
M  V30 6191 C 602.472 -3.21346 2.96742 0
M  V30 6192 C 601.531 -4.3997 2.8864 0
M  V30 6193 O 600.557 -4.38771 3.62586 0
M  V30 6194 N 601.759 -5.43367 2.04285 0
M  V30 6195 H 604.524 -1.40831 2.6455 0
M  V30 6196 H 602.085 -0.629251 1.49171 0
M  V30 6197 H 604.077 -3.71543 1.60431 0
M  V30 6198 H 602.647 -3.02205 0.799441 0
M  V30 6199 H 601.867 -2.32299 3.18482 0
M  V30 6200 H 603.155 -3.3633 3.81785 0
M  V30 6201 H 602.553 -5.47176 1.43578 0
M  V30 6202 H 601.11 -6.19605 2.02318 0
M  V30 6203 N 604.543 -1.41418 -0.695603 0
M  V30 6204 C 605.789 -1.40982 -1.4578 0
M  V30 6205 C 606.122 -0.0187763 -1.94191 0
M  V30 6206 O 605.397 0.95346 -1.69527 0
M  V30 6207 C 605.68 -2.41657 -2.66972 0
M  V30 6208 C 605.533 -3.89869 -2.24327 0
M  V30 6209 C 606.852 -2.39589 -3.69168 0
M  V30 6210 H 603.971 -0.513405 -0.528757 0
M  V30 6211 H 606.613 -1.72693 -0.792275 0
M  V30 6212 H 604.763 -2.14746 -3.23754 0
M  V30 6213 H 606.435 -4.27683 -1.72872 0
M  V30 6214 H 604.678 -4.04737 -1.56111 0
M  V30 6215 H 605.349 -4.55857 -3.11285 0
M  V30 6216 H 607.825 -2.63471 -3.2206 0
M  V30 6217 H 606.701 -3.12044 -4.51575 0
M  V30 6218 H 606.962 -1.41447 -4.18862 0
M  V30 6219 N 606.021 0.929856 -1.27246 0
M  V30 6220 C 607.27 1.67182 -1.12842 0
M  V30 6221 C 607.583 1.9287 0.325666 0
M  V30 6222 O 608.789 2.64999 0.590572 0
M  V30 6223 C 607.245 3.01097 -1.97151 0
M  V30 6224 C 606.853 2.83115 -3.47203 0
M  V30 6225 C 608.597 3.78907 -1.91389 0
M  V30 6226 C 606.504 4.12573 -4.23719 0
M  V30 6227 H 605.434 0.627064 -0.418697 0
M  V30 6228 H 608.085 1.0332 -1.51649 0
M  V30 6229 H 606.467 3.66004 -1.51186 0
M  V30 6230 H 607.641 2.26989 -4.01015 0
M  V30 6231 H 605.956 2.18736 -3.54321 0
M  V30 6232 H 608.553 4.74837 -2.45834 0
M  V30 6233 H 608.896 4.0674 -0.887047 0
M  V30 6234 H 609.429 3.20794 -2.35237 0
M  V30 6235 H 606.168 3.8992 -5.26918 0
M  V30 6236 H 605.688 4.68371 -3.74685 0
M  V30 6237 H 607.367 4.8095 -4.32777 0
M  V30 6238 N 607.499 1.09233 1.13605 0
M  V30 6239 C 608.727 0.848908 1.88683 0
M  V30 6240 C 609.142 -0.599667 1.79024 0
M  V30 6241 O 608.499 -1.41265 1.15544 0
M  V30 6242 C 608.55 1.27273 3.38355 0
M  V30 6243 O 608.271 2.66449 3.47759 0
M  V30 6244 C 609.772 1.0614 4.30406 0
M  V30 6245 H 606.992 0.305549 0.597395 0
M  V30 6246 H 609.536 1.4538 1.43823 0
M  V30 6247 H 607.691 0.711776 3.80805 0
M  V30 6248 H 608.105 2.84264 4.40788 0
M  V30 6249 H 609.579 1.40725 5.33761 0
M  V30 6250 H 610.056 -0.000960332 4.392 0
M  V30 6251 H 610.662 1.60821 3.93722 0
M  V30 6252 N 608.977 -1.30795 0.87923 0
M  V30 6253 C 610.205 -2.00527 0.509548 0
M  V30 6254 C 610.62 -1.65944 -0.90045 0
M  V30 6255 O 609.977 -0.893525 -1.5913 0
M  V30 6256 C 610.028 -3.55276 0.667943 0
M  V30 6257 O 609.749 -3.88625 2.02242 0
M  V30 6258 C 611.25 -4.4228 0.300494 0
M  V30 6259 H 608.47 -0.641261 0.197549 0
M  V30 6260 H 611.014 -1.66813 1.18295 0
M  V30 6261 H 609.169 -3.87377 0.0419843 0
M  V30 6262 H 609.583 -4.83334 2.03688 0
M  V30 6263 H 611.057 -5.50061 0.462242 0
M  V30 6264 H 611.534 -4.32556 -0.76106 0
M  V30 6265 H 612.14 -4.15613 0.902536 0
M  V30 6266 N 610.455 -0.639598 -1.44038 0
M  V30 6267 C 611.418 0.0506628 -2.29144 0
M  V30 6268 C 612.418 0.764001 -1.41491 0
M  V30 6269 O 613.608 0.607309 -1.63271 0
M  V30 6270 C 610.74 1.0824 -3.2326 0
M  V30 6271 H 611.933 -0.697987 -2.91664 0
M  V30 6272 H 609.486 -0.400146 -1.51091 0
M  V30 6273 H 610.221 1.86075 -2.65606 0
M  V30 6274 H 610.006 0.574725 -3.87865 0
M  V30 6275 H 611.496 1.56487 -3.87171 0
M  V30 6276 N 611.933 1.52934 -0.380664 0
M  V30 6277 C 613.21 1.93845 0.261417 0
M  V30 6278 C 613.59 1.31544 1.65104 0
M  V30 6279 O 612.938 0.480234 2.23397 0
M  V30 6280 C 613.148 3.47739 0.296466 0
M  V30 6281 C 614.496 4.21284 0.529578 0
M  V30 6282 O 615.52 3.54199 0.377041 0
M  V30 6283 O 614.379 5.40195 0.827753 0
M  V30 6284 H 611.473 0.811318 0.160285 0
M  V30 6285 H 614.019 1.64042 -0.434544 0
M  V30 6286 H 612.791 3.85395 -0.67724 0
M  V30 6287 H 612.414 3.8382 1.0377 0
M  V30 6288 N 613.412 0.11024 1.57214 0
M  V30 6289 C 614.345 -0.880224 2.1054 0
M  V30 6290 C 615.323 -1.26658 1.01964 0
M  V30 6291 O 616.507 -1.36917 1.29561 0
M  V30 6292 C 613.634 -2.17676 2.59489 0
M  V30 6293 C 612.68 -1.93914 3.79868 0
M  V30 6294 S 613.513 -1.16336 5.2271 0
M  V30 6295 C 614.669 -2.47188 5.75021 0
M  V30 6296 H 614.902 -0.426614 2.94223 0
M  V30 6297 H 612.435 -0.10336 1.54054 0
M  V30 6298 H 614.393 -2.92175 2.88347 0
M  V30 6299 H 613.054 -2.60156 1.76005 0
M  V30 6300 H 612.247 -2.8996 4.12236 0
M  V30 6301 H 611.849 -1.27539 3.51582 0
M  V30 6302 H 614.141 -3.43079 5.84211 0
M  V30 6303 H 615.084 -2.19377 6.7326 0
M  V30 6304 H 615.492 -2.56154 5.03036 0
M  V30 6305 N 614.89 -1.56749 -0.16351 0
M  V30 6306 C 616.138 -1.82074 -0.87713 0
M  V30 6307 C 616.459 -0.688503 -1.82441 0
M  V30 6308 O 615.729 0.291085 -1.93725 0
M  V30 6309 H 614.309 -0.671677 -0.326893 0
M  V30 6310 H 616.971 -1.9423 -0.161459 0
M  V30 6311 H 616.067 -2.76407 -1.44934 0
M  V30 6312 O 616.407 0.308401 -1.58528 0
M  V30 6313 H 617.098 0.955962 -1.68467 0
M  V30 END ATOM
M  V30 BEGIN BOND
M  V30 END BOND
M  V30 END CTAB
M  END
$$$$
