drugbank_target|P29899 Cytochrome c-L (DB08646)
 OpenBabel12092120513D

  0  0  0     0  0            999 V3000
M  V30 BEGIN CTAB
M  V30 COUNTS 2635 2673 0 0 0
M  V30 BEGIN ATOM
M  V30 1 H -0.908 1.98254 -0.117106 0
M  V30 2 N 0 1.576 0 0
M  V30 3 C 0.933 2.03868 1.02534 0
M  V30 4 C 1.911 0.928543 1.3348 0
M  V30 5 O 3.095 1.19667 1.45644 0
M  V30 6 C 0.222 2.43627 2.35294 0
M  V30 7 C -0.732 3.65373 2.2001 0
M  V30 8 S 0.101 5.13292 1.52614 0
M  V30 9 C 1.257 5.56322 2.86805 0
M  V30 10 H 1.49 2.90518 0.631377 0
M  V30 11 H -0.977 1.52953 0.210867 0
M  V30 12 H 0.981 2.67203 3.11629 0
M  V30 13 H -0.358 1.57376 2.7183 0
M  V30 14 H -1.165 3.90944 3.18086 0
M  V30 15 H -1.563 3.418 1.51819 0
M  V30 16 H 0.729 5.58782 3.83104 0
M  V30 17 H 1.672 6.56266 2.65933 0
M  V30 18 H 2.08 4.83886 2.90714 0
M  V30 19 N 1.4781 -0.272755 1.55222 0
M  V30 20 C 2.7061 -1.02255 1.79865 0
M  V30 21 C 3.1211 -1.79924 0.572088 0
M  V30 22 O 2.4781 -1.76638 -0.458842 0
M  V30 23 C 2.5291 -1.98094 3.02392 0
M  V30 24 O 2.2501 -1.23572 4.20311 0
M  V30 25 C 3.7511 -2.84884 3.39641 0
M  V30 26 H 0.9711 -0.302057 0.599168 0
M  V30 27 H 3.5151 -0.303465 2.02236 0
M  V30 28 H 1.6701 -2.65465 2.82147 0
M  V30 29 H 2.0841 -1.88172 4.89583 0
M  V30 30 H 3.5581 -3.47927 4.28545 0
M  V30 31 H 4.0351 -3.54665 2.59055 0
M  V30 32 H 4.6411 -2.23003 3.62146 0
M  V30 33 N 2.9562 -1.48159 -0.537278 0
M  V30 34 C 3.9032 -1.62138 -1.64256 0
M  V30 35 C 4.8732 -0.463668 -1.59497 0
M  V30 36 O 6.0582 -0.686241 -1.78032 0
M  V30 37 C 3.1982 -1.66028 -3.02537 0
M  V30 38 C 2.3112 -2.92855 -3.17585 0
M  V30 39 C 1.4462 -2.87952 -4.46382 0
M  V30 40 C 0.4852 -4.09516 -4.54932 0
M  V30 41 N -0.3778 -4.02733 -5.75109 0
M  V30 42 H 4.4622 -2.56529 -1.51647 0
M  V30 43 H 1.9992 -1.27224 -0.738414 0
M  V30 44 H 3.9572 -1.66265 -3.82638 0
M  V30 45 H 2.5872 -0.751331 -3.13934 0
M  V30 46 H 1.6392 -3.02395 -2.30784 0
M  V30 47 H 2.9512 -3.82822 -3.19764 0
M  V30 48 H 2.1052 -2.8655 -5.34765 0
M  V30 49 H 0.8442 -1.95702 -4.46712 0
M  V30 50 H -0.1508 -4.11201 -3.64957 0
M  V30 51 H 1.0742 -5.02917 -4.56346 0
M  V30 52 H -0.9798 -3.13299 -5.76351 0
M  V30 53 H -1.0628 -4.86397 -5.78752 0
M  V30 54 H 0.2052 -4.05379 -6.65799 0
M  V30 55 N 4.4343 0.785586 -1.36625 0
M  V30 56 C 5.8453 1.36101 -1.27803 0
M  V30 57 C 6.1963 1.96035 0.0804875 0
M  V30 58 O 5.3213 1.92834 0.982042 0
M  V30 59 C 5.9163 2.47442 -2.31426 0
M  V30 60 C 4.4753 3.00789 -2.26281 0
M  V30 61 C 3.6223 1.73896 -2.15999 0
M  V30 62 H 6.5733 0.586928 -1.47448 0
M  V30 63 H 6.5943 3.2656 -1.95291 0
M  V30 64 H 6.1063 2.03791 -3.30289 0
M  V30 65 H 4.2073 3.48851 -1.30896 0
M  V30 66 H 4.3203 3.57343 -3.19128 0
M  V30 67 H 2.6843 1.9628 -1.62316 0
M  V30 68 H 3.4673 1.32368 -3.16755 0
M  V30 69 N 5.9124 1.20967 1.01018 0
M  V30 70 C 7.3284 0.965905 1.27053 0
M  V30 71 C 7.5284 -0.350785 1.98423 0
M  V30 72 O 6.5844 -1.07773 2.28344 0
M  V30 73 C 7.8974 2.15294 2.09926 0
M  V30 74 C 9.4454 2.19463 2.23171 0
M  V30 75 C 9.9204 3.3767 3.09424 0
M  V30 76 N 11.4114 3.37724 3.17012 0
M  V30 77 C 12.1464 4.25837 3.83993 0
M  V30 78 N 11.6424 5.24138 4.53047 0
M  V30 79 N 13.4354 4.1366 3.80581 0
M  V30 80 H 5.5864 2.0565 0.531194 0
M  V30 81 H 7.8494 0.90024 0.297106 0
M  V30 82 H 7.5554 3.10684 1.64828 0
M  V30 83 H 7.4294 2.13923 3.10672 0
M  V30 84 H 9.8164 1.24632 2.6749 0
M  V30 85 H 9.8974 2.2488 1.21912 0
M  V30 86 H 9.5414 4.32791 2.65808 0
M  V30 87 H 9.4714 3.29491 4.10784 0
M  V30 88 H 11.9624 2.6658 2.6785 0
M  V30 89 H 12.2754 5.87684 5.01844 0
M  V30 90 H 10.6204 5.28068 4.5185 0
M  V30 91 H 13.8114 3.36127 3.25785 0
M  V30 92 H 13.9844 4.82538 4.32505 0
M  V30 93 N 7.3905 -1.2043 1.01659 0
M  V30 94 C 8.6395 -1.89118 0.701237 0
M  V30 95 C 8.9525 -1.79705 -0.772358 0
M  V30 96 O 10.1585 -2.43528 -1.20026 0
M  V30 97 C 8.6145 -3.39168 1.20388 0
M  V30 98 C 8.2225 -3.57166 2.70438 0
M  V30 99 C 9.9665 -4.1341 0.963953 0
M  V30 100 C 7.8735 -5.01042 3.14183 0
M  V30 101 H 6.8035 -0.708267 0.2586 0
M  V30 102 H 9.4545 -1.36239 1.22927 0
M  V30 103 H 7.8365 -3.91369 0.603824 0
M  V30 104 H 9.0105 -3.15351 3.35992 0
M  V30 105 H 7.3255 -2.96294 2.92572 0
M  V30 106 H 9.9225 -5.19491 1.26621 0
M  V30 107 H 10.2655 -4.16181 -0.099578 0
M  V30 108 H 10.7985 -3.67309 1.52738 0
M  V30 109 H 7.5375 -5.03426 4.19812 0
M  V30 110 H 7.0575 -5.43668 2.53348 0
M  V30 111 H 8.7365 -5.69623 3.0682 0
M  V30 112 N 8.8686 -0.792821 -1.36206 0
M  V30 113 C 9.7986 -0.207853 -2.32573 0
M  V30 114 C 10.7796 0.659055 -1.56813 0
M  V30 115 O 11.9646 0.592176 -1.84951 0
M  V30 116 C 9.0946 0.655449 -3.41059 0
M  V30 117 C 8.0486 -0.111842 -4.27854 0
M  V30 118 C 7.3746 0.872274 -5.27537 0
M  V30 119 C 8.6746 -1.30299 -5.05786 0
M  V30 120 H 10.3686 -1.01294 -2.81744 0
M  V30 121 H 7.9146 -0.48854 -1.3546 0
M  V30 122 H 9.8676 1.07464 -4.07467 0
M  V30 123 H 8.5916 1.49328 -2.90463 0
M  V30 124 H 7.2506 -0.512053 -3.63006 0
M  V30 125 H 6.8986 1.70523 -4.73214 0
M  V30 126 H 6.5986 0.363291 -5.86476 0
M  V30 127 H 8.1226 1.28996 -5.96818 0
M  V30 128 H 9.5366 -0.959379 -5.65216 0
M  V30 129 H 7.9336 -1.7455 -5.74154 0
M  V30 130 H 9.0036 -2.09663 -4.37229 0
M  V30 131 N 10.3467 1.47872 -0.545128 0
M  V30 132 C 11.3097 2.28337 0.198717 0
M  V30 133 C 12.3097 1.36255 0.853888 0
M  V30 134 O 13.4997 1.59003 0.711606 0
M  V30 135 C 10.6317 3.15585 1.28915 0
M  V30 136 H 11.8247 2.95567 -0.507941 0
M  V30 137 H 9.3777 1.53362 -0.301616 0
M  V30 138 H 10.1127 2.53019 2.02859 0
M  V30 139 H 9.8977 3.83337 0.824309 0
M  V30 140 H 11.3877 3.76243 1.81194 0
M  V30 141 N 11.8248 0.280983 1.55075 0
M  V30 142 C 12.7878 -0.590896 2.21452 0
M  V30 143 C 13.7878 -1.07682 1.19421 0
M  V30 144 O 14.9778 -0.97605 1.44288 0
M  V30 145 C 12.1098 -1.81587 2.88511 0
M  V30 146 H 13.3028 -0.0112554 2.99898 0
M  V30 147 H 10.8558 0.0316438 1.56268 0
M  V30 148 H 11.5908 -2.43587 2.14093 0
M  V30 149 H 11.3758 -1.4753 3.63287 0
M  V30 150 H 12.8658 -2.43575 3.39206 0
M  V30 151 N 13.3029 -1.57598 0.00835791 0
M  V30 152 C 14.5499 -1.90928 -0.674732 0
M  V30 153 C 14.8779 -0.88277 -1.73313 0
M  V30 154 O 14.1329 0.111294 -1.95383 0
M  V30 155 C 14.4319 -3.3101 -1.34787 0
M  V30 156 C 14.0979 -4.48922 -0.421861 0
M  V30 157 C 12.7599 -4.8091 -0.166927 0
M  V30 158 C 15.1119 -5.20755 0.215211 0
M  V30 159 C 12.4399 -5.821 0.733232 0
M  V30 160 C 14.7919 -6.22905 1.1033 0
M  V30 161 C 13.4559 -6.53346 1.36733 0
M  V30 162 H 12.7259 -0.698656 -0.246902 0
M  V30 163 H 15.3729 -1.91387 0.0656779 0
M  V30 164 H 13.6779 -3.26714 -2.16253 0
M  V30 165 H 15.3749 -3.54061 -1.8826 0
M  V30 166 H 11.9649 -4.23934 -0.630729 0
M  V30 167 H 16.1489 -4.9629 0.0312829 0
M  V30 168 H 11.4049 -6.04042 0.945712 0
M  V30 169 H 15.5789 -6.77694 1.60325 0
M  V30 170 H 13.2059 -7.31573 2.06652 0
M  V30 171 N 14.781 0.264519 -1.55364 0
M  V30 172 C 15.744 1.31046 -1.88042 0
M  V30 173 C 16.744 1.41943 -0.755569 0
M  V30 174 O 17.934 1.40947 -1.02369 0
M  V30 175 C 15.066 2.69067 -2.09323 0
M  V30 176 H 16.259 1.03297 -2.81549 0
M  V30 177 H 13.812 0.502989 -1.47986 0
M  V30 178 H 14.547 3.01982 -1.18226 0
M  V30 179 H 14.332 2.62542 -2.91229 0
M  V30 180 H 15.822 3.44623 -2.35848 0
M  V30 181 N 16.2591 1.48442 0.529413 0
M  V30 182 C 17.1921 1.57577 1.65059 0
M  V30 183 C 18.1701 0.426198 1.56915 0
M  V30 184 O 19.3541 0.637877 1.77379 0
M  V30 185 C 16.4811 1.5043 3.03461 0
M  V30 186 C 15.5271 2.70235 3.29962 0
M  V30 187 S 16.3601 4.32198 3.16172 0
M  V30 188 C 17.5161 4.2765 4.57019 0
M  V30 189 H 17.7491 2.52427 1.5706 0
M  V30 190 H 15.2821 1.36982 0.712417 0
M  V30 191 H 17.2401 1.46992 3.8328 0
M  V30 192 H 15.9011 0.569167 3.089 0
M  V30 193 H 15.0941 2.61374 4.30929 0
M  V30 194 H 14.6961 2.70938 2.57815 0
M  V30 195 H 16.9881 3.97618 5.48549 0
M  V30 196 H 17.9311 5.28797 4.70934 0
M  V30 197 H 18.3391 3.5811 4.36368 0
M  V30 198 N 17.7372 -0.778329 1.37039 0
M  V30 199 C 18.9652 -1.56734 1.35063 0
M  V30 200 C 19.3802 -1.88686 -0.0655597 0
M  V30 201 O 18.7372 -1.5096 -1.02554 0
M  V30 202 C 18.7882 -2.88163 2.18276 0
M  V30 203 O 18.5092 -2.57583 3.54376 0
M  V30 204 C 20.0102 -3.82422 2.24206 0
M  V30 205 H 17.2302 -0.485778 0.462883 0
M  V30 206 H 19.7742 -0.965185 1.8029 0
M  V30 207 H 17.9292 -3.44818 1.76576 0
M  V30 208 H 18.3432 -3.41699 3.97922 0
M  V30 209 H 19.8172 -4.71667 2.86765 0
M  V30 210 H 20.2942 -4.21078 1.24861 0
M  V30 211 H 20.9002 -3.31697 2.6619 0
M  V30 212 N 19.2153 -1.21501 -1.00376 0
M  V30 213 C 20.1453 -0.999478 -2.11028 0
M  V30 214 C 21.1263 0.0759671 -1.6993 0
M  V30 215 O 22.3113 -0.0841106 -1.94018 0
M  V30 216 C 19.4413 -0.564709 -3.42678 0
M  V30 217 C 18.3953 -1.58486 -3.97576 0
M  V30 218 C 17.7213 -1.00628 -5.25146 0
M  V30 219 C 19.0213 -2.97204 -4.29496 0
M  V30 220 H 20.7153 -1.92495 -2.29317 0
M  V30 221 H 18.2613 -0.92693 -1.102 0
M  V30 222 H 20.2143 -0.401091 -4.19487 0
M  V30 223 H 18.9383 0.396411 -3.24185 0
M  V30 224 H 17.5973 -1.73606 -3.22888 0
M  V30 225 H 17.2453 -0.0368439 -5.02987 0
M  V30 226 H 16.9453 -1.68771 -5.62841 0
M  V30 227 H 18.4693 -0.854015 -6.04598 0
M  V30 228 H 19.8833 -2.8552 -4.97143 0
M  V30 229 H 18.2803 -3.62372 -4.78338 0
M  V30 230 H 19.3503 -3.47956 -3.3772 0
M  V30 231 N 20.6934 1.19889 -1.02296 0
M  V30 232 C 21.9424 1.88743 -0.711257 0
M  V30 233 C 22.2554 1.80112 0.762817 0
M  V30 234 O 23.4614 2.44161 1.18733 0
M  V30 235 C 21.9174 3.38525 -1.22185 0
M  V30 236 C 21.5254 3.55727 -2.72328 0
M  V30 237 C 23.2694 4.12893 -0.985864 0
M  V30 238 C 21.1764 4.99369 -3.16835 0
M  V30 239 H 20.1064 0.706885 -0.262353 0
M  V30 240 H 22.7574 1.35586 -1.23648 0
M  V30 241 H 21.1394 3.91044 -0.624571 0
M  V30 242 H 22.3134 3.13564 -3.3766 0
M  V30 243 H 20.6284 2.94739 -2.9414 0
M  V30 244 H 23.2254 5.18813 -1.29374 0
M  V30 245 H 23.5684 4.16228 0.0775055 0
M  V30 246 H 24.1014 3.66494 -1.54684 0
M  V30 247 H 20.8404 5.01193 -4.22476 0
M  V30 248 H 20.3604 5.42317 -2.56228 0
M  V30 249 H 22.0394 5.67988 -3.09837 0
M  V30 250 N 22.1715 0.800033 1.35784 0
M  V30 251 C 23.4205 0.37387 1.98205 0
M  V30 252 C 23.7335 -1.06302 1.64193 0
M  V30 253 O 24.9395 -1.59198 2.19928 0
M  V30 254 C 23.3955 0.617532 3.54562 0
M  V30 255 C 23.0035 2.06654 3.9749 0
M  V30 256 C 24.7475 0.256401 4.23725 0
M  V30 257 C 22.6545 2.2563 5.46667 0
M  V30 258 H 21.5845 0.136055 0.741623 0
M  V30 259 H 24.2355 0.983166 1.54939 0
M  V30 260 H 22.6175 -0.0616248 3.95952 0
M  V30 261 H 23.7915 2.78296 3.67271 0
M  V30 262 H 22.1065 2.38691 3.41197 0
M  V30 263 H 24.7035 0.376318 5.33374 0
M  V30 264 H 25.0465 -0.796692 4.08606 0
M  V30 265 H 25.5795 0.889214 3.87734 0
M  V30 266 H 22.3185 3.2936 5.66747 0
M  V30 267 H 21.8385 1.58504 5.78478 0
M  V30 268 H 23.5175 2.06861 6.1304 0
M  V30 269 N 23.6496 -1.47581 0.552962 0
M  V30 270 C 25.0606 -1.86324 0.118463 0
M  V30 271 C 25.4116 -1.46006 -1.3106 0
M  V30 272 O 24.5366 -0.861182 -1.98526 0
M  V30 273 C 25.1316 -3.3816 0.20821 0
M  V30 274 C 23.6906 -3.7601 -0.171226 0
M  V30 275 C 22.8376 -2.71634 0.557686 0
M  V30 276 H 25.7886 -1.39159 0.762928 0
M  V30 277 H 25.8096 -3.76141 -0.574278 0
M  V30 278 H 25.3216 -3.67473 1.24841 0
M  V30 279 H 23.4226 -3.52313 -1.21269 0
M  V30 280 H 23.5356 -4.78745 0.184379 0
M  V30 281 H 21.8996 -2.547 0.00125792 0
M  V30 282 H 22.6826 -3.0379 1.59896 0
M  V30 283 N 25.1277 -0.289203 -1.54924 0
M  V30 284 C 26.3737 0.323998 -2.00195 0
M  V30 285 C 26.7067 1.54441 -1.17735 0
M  V30 286 O 25.9817 1.92875 -0.250878 0
M  V30 287 C 26.2647 0.692276 -3.53383 0
M  V30 288 C 26.1177 -0.536457 -4.46589 0
M  V30 289 C 27.4367 1.52335 -4.12895 0
M  V30 290 H 24.5557 0.116289 -0.727768 0
M  V30 291 H 27.1977 -0.398954 -1.85764 0
M  V30 292 H 25.3477 1.30822 -3.65811 0
M  V30 293 H 27.0197 -1.17499 -4.46085 0
M  V30 294 H 25.2627 -1.17192 -4.1767 0
M  V30 295 H 25.9337 -0.234806 -5.515 0
M  V30 296 H 28.4097 1.00302 -4.0383 0
M  V30 297 H 27.2857 1.74982 -5.20262 0
M  V30 298 H 27.5467 2.50886 -3.64018 0
M  V30 299 N 26.6058 1.57591 -0.0167156 0
M  V30 300 C 27.5688 2.08393 0.954204 0
M  V30 301 C 28.5688 0.996531 1.26198 0
M  V30 302 O 29.7588 1.25858 1.20438 0
M  V30 303 C 26.8908 2.5394 2.27436 0
M  V30 304 H 28.0838 2.95455 0.514451 0
M  V30 305 H 25.6368 1.54582 0.231089 0
M  V30 306 H 26.3718 1.70171 2.76066 0
M  V30 307 H 26.1568 3.33371 2.06412 0
M  V30 308 H 27.6468 2.93512 2.97053 0
M  V30 309 N 28.0839 -0.256276 1.55502 0
M  V30 310 C 29.0469 -1.30047 1.88734 0
M  V30 311 C 30.0469 -1.4154 0.763086 0
M  V30 312 O 31.2369 -1.40403 1.03115 0
M  V30 313 C 28.3689 -2.67953 2.10747 0
M  V30 314 H 29.5619 -1.01802 2.82093 0
M  V30 315 H 27.1149 -0.495134 1.4825 0
M  V30 316 H 27.8499 -3.01351 1.19825 0
M  V30 317 H 27.6349 -2.60993 2.92617 0
M  V30 318 H 29.1249 -3.43368 2.37673 0
M  V30 319 N 29.562 -1.4872 -0.521534 0
M  V30 320 C 30.495 -1.58451 -1.64221 0
M  V30 321 C 31.473 -0.434513 -1.56687 0
M  V30 322 O 32.657 -0.647275 -1.77038 0
M  V30 323 C 29.784 -1.52037 -3.02659 0
M  V30 324 C 28.83 -2.71981 -3.28525 0
M  V30 325 S 29.663 -4.33869 -3.13876 0
M  V30 326 C 30.819 -4.30067 -4.54745 0
M  V30 327 H 31.052 -2.53256 -1.55719 0
M  V30 328 H 28.585 -1.37358 -0.705143 0
M  V30 329 H 30.543 -1.49023 -3.82495 0
M  V30 330 H 29.204 -0.585541 -3.08594 0
M  V30 331 H 28.397 -2.63656 -4.29536 0
M  V30 332 H 27.999 -2.72302 -2.56374 0
M  V30 333 H 30.291 -4.00521 -5.46433 0
M  V30 334 H 31.234 -5.31287 -4.68123 0
M  V30 335 H 31.642 -3.60419 -4.34463 0
M  V30 336 N 31.0401 0.771051 -1.3745 0
M  V30 337 C 32.0031 1.86598 -1.33093 0
M  V30 338 C 33.0031 1.59076 -0.234845 0
M  V30 339 O 34.1931 1.67145 -0.490732 0
M  V30 340 C 31.3251 3.23747 -1.06773 0
M  V30 341 H 32.5181 1.91873 -2.30488 0
M  V30 342 H 30.0711 0.970876 -1.2249 0
M  V30 343 H 30.8061 3.24148 -0.099129 0
M  V30 344 H 30.5911 3.45115 -1.86112 0
M  V30 345 H 32.0811 4.03824 -1.06377 0
M  V30 346 N 32.5182 1.22032 0.997298 0
M  V30 347 C 33.4812 0.987909 2.06816 0
M  V30 348 C 34.4812 -0.0440084 1.6074 0
M  V30 349 O 35.6712 0.194053 1.73116 0
M  V30 350 C 32.8032 0.49132 3.37341 0
M  V30 351 H 33.9962 1.93803 2.28868 0
M  V30 352 H 31.5492 1.03838 1.16822 0
M  V30 353 H 32.2842 -0.463364 3.20973 0
M  V30 354 H 32.0692 1.23575 3.72118 0
M  V30 355 H 33.5592 0.348824 4.16141 0
M  V30 356 N 33.9963 -1.19345 1.0293 0
M  V30 357 C 35.4073 -1.70725 0.755633 0
M  V30 358 C 35.7583 -1.82326 -0.724676 0
M  V30 359 O 34.8833 -1.49471 -1.56484 0
M  V30 360 C 35.4783 -3.10084 1.36503 0
M  V30 361 C 34.0373 -3.58723 1.13994 0
M  V30 362 C 33.1843 -2.35577 1.46283 0
M  V30 363 H 36.1353 -1.0418 1.19718 0
M  V30 364 H 36.1563 -3.72787 0.762217 0
M  V30 365 H 35.6683 -3.01609 2.44241 0
M  V30 366 H 33.7693 -3.72512 0.0807901 0
M  V30 367 H 33.8823 -4.42816 1.82894 0
M  V30 368 H 32.2463 -2.38935 0.88217 0
M  V30 369 H 33.0293 -2.29731 2.55105 0
M  V30 370 N 35.4744 -0.807222 -1.35358 0
M  V30 371 C 36.4064 -0.175717 -2.28525 0
M  V30 372 C 37.4194 0.625354 -1.5031 0
M  V30 373 O 38.6084 0.457611 -1.72535 0
M  V30 374 C 35.7084 0.773471 -3.29956 0
M  V30 375 C 34.8814 0.0186296 -4.37396 0
M  V30 376 C 33.9404 0.886395 -5.18681 0
M  V30 377 O 32.9664 0.337106 -5.68201 0
M  V30 378 N 34.1684 2.20839 -5.36852 0
M  V30 379 H 36.9334 -0.976091 -2.83359 0
M  V30 380 H 34.4944 -0.662737 -1.47714 0
M  V30 381 H 36.4864 1.35824 -3.81227 0
M  V30 382 H 35.0564 1.47465 -2.75632 0
M  V30 383 H 34.2764 -0.747349 -3.87051 0
M  V30 384 H 35.5644 -0.501577 -5.06322 0
M  V30 385 H 34.9624 2.67858 -4.98265 0
M  V30 386 H 33.5194 2.74237 -5.91301 0
M  V30 387 N 36.9525 1.47285 -0.560781 0
M  V30 388 C 38.1995 2.02464 -0.038062 0
M  V30 389 C 38.5275 1.43474 1.31322 0
M  V30 390 O 37.7825 0.581311 1.86867 0
M  V30 391 C 38.0815 3.57258 0.100784 0
M  V30 392 C 37.7475 4.35184 -1.18007 0
M  V30 393 C 36.4095 4.56194 -1.53103 0
M  V30 394 C 38.7615 4.80098 -2.02867 0
M  V30 395 C 36.0895 5.19367 -2.729 0
M  V30 396 C 38.4415 5.44593 -3.21871 0
M  V30 397 C 37.1055 5.63835 -3.57276 0
M  V30 398 H 36.3755 0.740869 -0.0139279 0
M  V30 399 H 39.0225 1.76916 -0.733012 0
M  V30 400 H 37.3275 3.81819 0.878724 0
M  V30 401 H 39.0245 3.97606 0.520639 0
M  V30 402 H 35.6145 4.19113 -0.8968 0
M  V30 403 H 39.7985 4.63642 -1.7706 0
M  V30 404 H 35.0545 5.32459 -3.00496 0
M  V30 405 H 39.2285 5.78358 -3.87911 0
M  V30 406 H 36.8555 6.12557 -4.50197 0
M  V30 407 N 38.4306 0.297415 1.54768 0
M  V30 408 C 39.6776 -0.312913 2.00068 0
M  V30 409 C 40.0056 -1.54171 1.18582 0
M  V30 410 O 39.2606 -1.94108 0.249133 0
M  V30 411 C 39.5596 -0.717561 3.50123 0
M  V30 412 C 39.2256 0.409095 4.4904 0
M  V30 413 C 37.8876 0.718399 4.75807 0
M  V30 414 C 40.2396 1.16717 5.07963 0
M  V30 415 C 37.5676 1.78896 5.5876 0
M  V30 416 C 39.9196 2.22762 5.92081 0
M  V30 417 C 38.5836 2.54303 6.1716 0
M  V30 418 H 37.8536 -0.114503 0.7321 0
M  V30 419 H 40.5006 0.415767 1.86932 0
M  V30 420 H 38.8056 -1.52627 3.60849 0
M  V30 421 H 40.5026 -1.20091 3.82595 0
M  V30 422 H 37.0926 0.157918 4.28309 0
M  V30 423 H 41.2766 0.941466 4.87289 0
M  V30 424 H 36.5326 2.0381 5.7643 0
M  V30 425 H 40.7066 2.81962 6.36765 0
M  V30 426 H 38.3336 3.3739 6.81229 0
M  V30 427 N 39.9087 -1.5758 0.0250728 0
M  V30 428 C 40.8567 -2.11125 -0.97617 0
M  V30 429 C 41.8507 -1.03689 -1.33959 0
M  V30 430 O 43.0567 -1.22128 -1.3223 0
M  V30 431 H 39.4317 -0.674468 -0.332561 0
M  V30 432 H 41.4027 -2.94194 -0.499223 0
M  V30 433 C 40.1517 -2.65017 -2.2508 0
M  V30 434 H 39.4747 -3.47333 -1.9799 0
M  V30 435 H 40.9147 -3.06133 -2.93357 0
M  V30 436 C 39.3737 -1.57574 -2.97779 0
M  V30 437 O 39.9037 -0.973203 -3.89733 0
M  V30 438 N 38.1097 -1.29716 -2.60043 0
M  V30 439 H 37.6567 -1.789 -1.85345 0
M  V30 440 H 37.6147 -0.58051 -3.08994 0
M  V30 441 N 41.3868 0.248026 -1.55636 0
M  V30 442 C 42.6358 0.974134 -1.76617 0
M  V30 443 C 42.9488 1.86528 -0.588796 0
M  V30 444 O 44.1548 2.62805 -0.681594 0
M  V30 445 C 42.6108 1.78213 -3.12679 0
M  V30 446 C 42.2188 0.93843 -4.38061 0
M  V30 447 C 43.9628 2.50104 -3.42999 0
M  V30 448 C 41.8698 1.74225 -5.65155 0
M  V30 449 H 40.7998 0.36745 -0.658405 0
M  V30 450 H 43.4508 0.22884 -1.82067 0
M  V30 451 H 41.8328 2.56933 -3.01333 0
M  V30 452 H 43.0068 0.193635 -4.60393 0
M  V30 453 H 41.3218 0.332905 -4.15067 0
M  V30 454 H 43.9188 3.10694 -4.3517 0
M  V30 455 H 44.2618 3.21662 -2.64271 0
M  V30 456 H 44.7948 1.78395 -3.55556 0
M  V30 457 H 41.5338 1.07043 -6.46701 0
M  V30 458 H 41.0538 2.46235 -5.46926 0
M  V30 459 H 42.7328 2.30967 -6.0437 0
M  V30 460 N 42.8649 1.48995 0.513639 0
M  V30 461 C 44.1139 1.57093 1.2651 0
M  V30 462 C 44.4269 0.257091 1.93903 0
M  V30 463 O 45.6329 0.216478 2.70636 0
M  V30 464 C 44.0889 2.77118 2.29638 0
M  V30 465 C 43.6969 4.15209 1.68241 0
M  V30 466 C 45.4409 2.94538 3.05692 0
M  V30 467 C 43.3479 5.26474 2.69406 0
M  V30 468 H 42.2779 0.584876 0.475854 0
M  V30 469 H 44.9289 1.7536 0.540487 0
M  V30 470 H 43.3109 2.52319 3.05207 0
M  V30 471 H 44.4849 4.50094 0.987505 0
M  V30 472 H 42.7999 4.03042 1.04623 0
M  V30 473 H 45.3969 3.74832 3.8132 0
M  V30 474 H 45.7399 2.04614 3.62545 0
M  V30 475 H 46.2729 3.19316 2.37238 0
M  V30 476 H 43.0119 6.18417 2.17351 0
M  V30 477 H 42.5319 4.96058 3.37175 0
M  V30 478 H 44.2109 5.55277 3.32078 0
M  V30 479 N 44.343 -0.763751 1.37857 0
M  V30 480 C 45.62 -1.51244 1.24035 0
M  V30 481 C 46 -2.10472 -0.162649 0
M  V30 482 O 45.348 -1.96206 -1.17112 0
M  V30 483 C 45.558 -2.58694 2.34261 0
M  V30 484 C 46.906 -3.25878 2.72193 0
M  V30 485 O 47.93 -2.68993 2.33497 0
M  V30 486 O 46.789 -4.2874 3.38887 0
M  V30 487 H 43.883 -0.670243 0.484462 0
M  V30 488 H 46.429 -0.800031 1.49658 0
M  V30 489 H 45.201 -2.13105 3.2818 0
M  V30 490 H 44.824 -3.37527 2.10146 0
M  V30 491 N 45.8211 -1.22559 -0.990812 0
M  V30 492 C 47.0691 -1.04933 -1.72724 0
M  V30 493 C 47.3901 0.416158 -1.90508 0
M  V30 494 O 46.6601 1.29918 -1.46622 0
M  V30 495 H 45.2401 -0.385296 -0.639965 0
M  V30 496 H 47.9021 -1.54105 -1.19322 0
M  V30 497 H 46.9981 -1.52886 -2.72089 0
M  V30 498 N 47.2992 1.18797 -1.03562 0
M  V30 499 C 48.5242 1.9314 -0.755764 0
M  V30 500 C 48.9492 1.7537 0.68022 0
M  V30 501 O 48.3072 1.06046 1.47051 0
M  V30 502 C 48.3552 3.42747 -1.12058 0
M  V30 503 O 47.4592 4.11683 -0.243124 0
M  V30 504 H 46.8002 0.602724 -0.278604 0
M  V30 505 H 49.3302 1.50678 -1.3841 0
M  V30 506 H 49.3402 3.93437 -1.08035 0
M  V30 507 H 48.0152 3.55002 -2.16672 0
M  V30 508 H 46.5922 3.71323 -0.342539 0
M  V30 509 N 48.7773 0.814389 1.34928 0
M  V30 510 C 50.1883 0.458364 1.80986 0
M  V30 511 C 50.5393 -1.02042 1.67577 0
M  V30 512 O 49.6643 -1.79352 1.21086 0
M  V30 513 C 50.2593 0.825212 3.28597 0
M  V30 514 C 48.8183 0.521677 3.72767 0
M  V30 515 C 47.9653 1.04668 2.56788 0
M  V30 516 H 50.9163 1.00533 1.22795 0
M  V30 517 H 50.9373 0.12571 3.80292 0
M  V30 518 H 50.4493 1.90154 3.38324 0
M  V30 519 H 48.5503 -0.545589 3.68584 0
M  V30 520 H 48.6633 1.05977 4.67232 0
M  V30 521 H 47.0273 0.468622 2.50352 0
M  V30 522 H 47.8103 2.12927 2.6929 0
M  V30 523 N 50.2554 -1.46986 0.568584 0
M  V30 524 C 51.1854 -2.32946 -0.160753 0
M  V30 525 C 52.1664 -1.44487 -0.897631 0
M  V30 526 O 53.3514 -1.73327 -0.875867 0
M  V30 527 C 50.4814 -3.26494 -1.18403 0
M  V30 528 C 49.4354 -4.24282 -0.562895 0
M  V30 529 C 48.7614 -5.07236 -1.69163 0
M  V30 530 C 50.0614 -5.19989 0.490761 0
M  V30 531 H 51.7554 -2.94175 0.556916 0
M  V30 532 H 49.3014 -1.4146 0.26927 0
M  V30 533 H 51.2544 -3.85477 -1.70251 0
M  V30 534 H 49.9784 -2.63343 -1.93179 0
M  V30 535 H 48.6374 -3.66541 -0.0656164 0
M  V30 536 H 48.2854 -4.4048 -2.42871 0
M  V30 537 H 47.9854 -5.7345 -1.28174 0
M  V30 538 H 49.5094 -5.6908 -2.21314 0
M  V30 539 H 50.9234 -5.73271 0.0579047 0
M  V30 540 H 49.3204 -5.94469 0.820165 0
M  V30 541 H 50.3904 -4.64777 1.3824 0
M  V30 542 N 51.7335 -0.305618 -1.54608 0
M  V30 543 C 52.6815 0.584119 -2.25146 0
M  V30 544 C 53.6755 1.13326 -1.25911 0
M  V30 545 O 54.8815 1.08337 -1.43747 0
M  V30 546 H 51.2565 0.206983 -0.722954 0
M  V30 547 H 53.2275 -0.033291 -2.98381 0
M  V30 548 C 51.9765 1.74225 -3.009 0
M  V30 549 H 51.2995 1.32892 -3.77067 0
M  V30 550 H 52.7395 2.34077 -3.53531 0
M  V30 551 C 51.1985 2.64914 -2.0814 0
M  V30 552 O 51.7285 3.66137 -1.65246 0
M  V30 553 N 49.9345 2.3275 -1.74 0
M  V30 554 H 49.4815 1.50479 -2.09078 0
M  V30 555 H 49.4395 2.93694 -1.12211 0
M  V30 556 N 53.2116 1.57565 -0.0334293 0
M  V30 557 C 54.4586 1.91978 0.644272 0
M  V30 558 C 54.7866 0.910231 1.71887 0
M  V30 559 O 54.0416 -0.0801961 1.95536 0
M  V30 560 C 54.3406 3.33112 1.29504 0
M  V30 561 C 54.0066 4.49537 0.350388 0
M  V30 562 C 52.6686 4.81115 0.0903974 0
M  V30 563 C 55.0206 5.20347 -0.298032 0
M  V30 564 C 52.3486 5.8086 -0.825746 0
M  V30 565 C 54.7006 6.2107 -1.20226 0
M  V30 566 C 53.3646 6.51088 -1.4711 0
M  V30 567 H 52.6346 0.702496 0.235756 0
M  V30 568 H 55.2816 1.91259 -0.0961176 0
M  V30 569 H 53.5866 3.30113 2.11028 0
M  V30 570 H 55.2836 3.57011 1.82603 0
M  V30 571 H 51.8736 4.24883 0.563205 0
M  V30 572 H 56.0576 4.96178 -0.110234 0
M  V30 573 H 51.3136 6.02461 -1.04169 0
M  V30 574 H 55.4876 6.75057 -1.71086 0
M  V30 575 H 53.1146 7.28193 -2.18264 0
M  V30 576 N 54.6897 -0.239769 1.55765 0
M  V30 577 C 55.9667 -0.990056 1.68693 0
M  V30 578 C 56.3467 -2.03107 0.5754 0
M  V30 579 O 55.6947 -2.24604 -0.42017 0
M  V30 580 C 55.9047 -1.61696 3.09282 0
M  V30 581 C 57.2527 -2.11613 3.6811 0
M  V30 582 O 58.2767 -1.71624 3.12127 0
M  V30 583 O 57.1357 -2.85057 4.66267 0
M  V30 584 H 54.2297 -0.461299 0.686391 0
M  V30 585 H 56.7757 -0.232991 1.68093 0
M  V30 586 H 55.5477 -0.864357 3.81634 0
M  V30 587 H 55.1707 -2.44005 3.13923 0
M  V30 588 N 56.1678 -1.49265 -0.50573 0
M  V30 589 C 57.4448 -1.49012 -1.26707 0
M  V30 590 C 57.8248 -0.215205 -2.1 0
M  V30 591 O 57.1728 0.802547 -2.13943 0
M  V30 592 C 57.3828 -2.7663 -2.12783 0
M  V30 593 C 58.7308 -3.25932 -2.72127 0
M  V30 594 O 59.7548 -2.77715 -2.23054 0
M  V30 595 O 58.6138 -4.09897 -3.61451 0
M  V30 596 H 55.7078 -0.596197 -0.57313 0
M  V30 597 H 58.2538 -1.61524 -0.52039 0
M  V30 598 H 57.0258 -3.60916 -1.5118 0
M  V30 599 H 56.6488 -2.66956 -2.94653 0
M  V30 600 N 57.6459 0.756429 -1.3826 0
M  V30 601 C 58.6089 1.85176 -1.35065 0
M  V30 602 C 59.6089 1.58818 -0.251703 0
M  V30 603 O 60.7989 1.66615 -0.508433 0
M  V30 604 C 57.9309 3.22596 -1.10201 0
M  V30 605 H 59.1239 1.89417 -2.3251 0
M  V30 606 H 56.6769 0.95783 -1.23512 0
M  V30 607 H 57.4119 3.24025 -0.133504 0
M  V30 608 H 57.1969 3.43122 -1.89762 0
M  V30 609 H 58.6869 4.02673 -1.10654 0
M  V30 610 N 59.124 1.23083 0.984299 0
M  V30 611 C 60.057 0.951786 2.07404 0
M  V30 612 C 61.035 -0.10848 1.62238 0
M  V30 613 O 62.219 0.0249467 1.88483 0
M  V30 614 C 59.346 0.433142 3.35919 0
M  V30 615 C 58.392 1.47941 4.0002 0
M  V30 616 S 59.225 3.05556 4.39768 0
M  V30 617 C 60.381 2.55351 5.71442 0
M  V30 618 H 60.614 1.87456 2.30754 0
M  V30 619 H 58.147 1.06284 1.11996 0
M  V30 620 H 60.105 0.140506 4.10259 0
M  V30 621 H 58.766 -0.468656 3.10584 0
M  V30 622 H 57.959 1.06658 4.92585 0
M  V30 623 H 57.561 1.7212 3.3204 0
M  V30 624 H 59.853 1.97128 6.48187 0
M  V30 625 H 60.796 3.46441 6.17563 0
M  V30 626 H 61.204 1.96339 5.29255 0
M  V30 627 N 60.6021 -1.18246 1.0419 0
M  V30 628 C 61.5121 -2.25574 0.644476 0
M  V30 629 C 62.5281 -1.70845 -0.329826 0
M  V30 630 O 63.7041 -2.00554 -0.184443 0
M  V30 631 C 60.7691 -3.46697 0.014877 0
M  V30 632 C 59.8301 -4.16554 1.03834 0
M  V30 633 C 59.0631 -5.31894 0.438692 0
M  V30 634 O 59.2861 -5.65385 -0.754752 0
M  V30 635 O 58.2201 -5.90459 1.168 0
M  V30 636 H 62.0461 -2.61836 1.53869 0
M  V30 637 H 59.6311 -1.25352 0.812854 0
M  V30 638 H 61.5131 -4.20062 -0.335538 0
M  V30 639 H 60.1881 -3.12255 -0.853138 0
M  V30 640 H 59.0951 -3.45251 1.44057 0
M  V30 641 H 60.4281 -4.54998 1.87716 0
M  V30 642 N 62.0802 -0.821533 -1.34494 0
M  V30 643 C 62.9902 -0.244355 -2.33324 0
M  V30 644 C 64.0062 0.620527 -1.62559 0
M  V30 645 O 65.1822 0.528754 -1.94335 0
M  V30 646 C 62.2472 0.585368 -3.41723 0
M  V30 647 C 61.3082 -0.301752 -4.28238 0
M  V30 648 C 60.5412 0.488466 -5.3146 0
M  V30 649 O 60.7642 1.72186 -5.4379 0
M  V30 650 O 59.6982 -0.12848 -6.01763 0
M  V30 651 H 63.5242 -1.06231 -2.84515 0
M  V30 652 H 61.1092 -0.583645 -1.37528 0
M  V30 653 H 62.9912 1.05747 -4.07916 0
M  V30 654 H 61.6662 1.38068 -2.92778 0
M  V30 655 H 60.5732 -0.821315 -3.64973 0
M  V30 656 H 61.9062 -1.06138 -4.8062 0
M  V30 657 N 63.5583 1.46682 -0.576371 0
M  V30 658 C 64.8063 2.02013 -0.0594163 0
M  V30 659 C 65.1273 1.45101 1.30271 0
M  V30 660 O 64.3973 0.633317 1.8538 0
M  V30 661 H 62.9773 0.746759 -0.0189745 0
M  V30 662 H 65.6393 1.79862 -0.750717 0
M  V30 663 H 64.7353 3.12097 0.014345 0
M  V30 664 N 65.0364 0.313813 1.54444 0
M  V30 665 C 66.4524 -0.0391619 1.59552 0
M  V30 666 C 66.6524 -1.51322 1.33056 0
M  V30 667 O 65.7084 -2.26782 1.11022 0
M  V30 668 C 67.0214 0.370302 2.98411 0
M  V30 669 C 68.5694 0.320139 3.11358 0
M  V30 670 C 69.0444 0.704617 4.52547 0
M  V30 671 N 70.5354 0.657645 4.58508 0
M  V30 672 C 71.2704 0.927453 5.6585 0
M  V30 673 N 70.7664 1.26389 6.81174 0
M  V30 674 N 72.5594 0.853662 5.5558 0
M  V30 675 H 64.7104 1.27433 1.69925 0
M  V30 676 H 66.9734 0.517511 0.794284 0
M  V30 677 H 66.6794 1.39694 3.22767 0
M  V30 678 H 66.5534 -0.269619 3.76235 0
M  V30 679 H 68.9404 -0.697275 2.86744 0
M  V30 680 H 69.0214 0.99486 2.35661 0
M  V30 681 H 68.6654 1.7199 4.77893 0
M  V30 682 H 68.5954 0.00768843 5.26599 0
M  V30 683 H 71.0864 0.409067 3.75679 0
M  V30 684 H 71.3994 1.4554 7.58972 0
M  V30 685 H 69.7444 1.30206 6.82694 0
M  V30 686 H 72.9354 0.590383 4.64362 0
M  V30 687 H 73.1084 1.0673 6.3915 0
M  V30 688 N 66.5145 -1.57545 0.0417849 0
M  V30 689 C 67.7915 -1.83642 -0.673433 0
M  V30 690 C 68.1715 -0.928298 -1.89594 0
M  V30 691 O 67.5195 0.0129955 -2.28496 0
M  V30 692 C 67.7295 -3.33155 -1.03964 0
M  V30 693 C 69.0775 -3.99941 -1.42592 0
M  V30 694 O 70.1015 -3.37725 -1.13226 0
M  V30 695 O 68.9605 -5.09619 -1.9736 0
M  V30 696 H 66.0545 -0.757638 -0.331533 0
M  V30 697 H 68.6005 -1.69554 0.070433 0
M  V30 698 H 67.3725 -3.9093 -0.170098 0
M  V30 699 H 66.9955 -3.52396 -1.84126 0
M  V30 700 N 67.9926 0.231505 -1.5589 0
M  V30 701 C 69.2206 0.974505 -1.82513 0
M  V30 702 C 69.6356 1.78344 -0.619591 0
M  V30 703 O 68.9926 1.77792 0.411848 0
M  V30 704 C 69.0436 1.90007 -3.07538 0
M  V30 705 O 68.7646 1.12385 -4.2344 0
M  V30 706 C 70.2656 2.75779 -3.47075 0
M  V30 707 H 67.4856 0.286065 -0.606966 0
M  V30 708 H 70.0296 0.249739 -2.02969 0
M  V30 709 H 68.1846 2.57891 -2.89086 0
M  V30 710 H 68.5986 1.75125 -4.944 0
M  V30 711 H 70.0726 3.36443 -4.37619 0
M  V30 712 H 70.5496 3.47672 -2.68367 0
M  V30 713 H 71.1556 2.13323 -3.67931 0
M  V30 714 N 69.4707 1.49531 0.497807 0
M  V30 715 C 70.3807 1.69176 1.62532 0
M  V30 716 C 71.3967 0.5744 1.64246 0
M  V30 717 O 72.5727 0.849497 1.82608 0
M  V30 718 C 69.6377 1.75695 2.98885 0
M  V30 719 C 68.6987 2.9929 3.07773 0
M  V30 720 C 67.9317 3.05488 4.37622 0
M  V30 721 O 68.1547 2.19192 5.26603 0
M  V30 722 O 67.0887 3.9798 4.51548 0
M  V30 723 H 70.9147 2.647 1.48887 0
M  V30 724 H 68.4997 1.3331 0.674441 0
M  V30 725 H 70.3817 1.82317 3.79919 0
M  V30 726 H 69.0567 0.8335 3.12785 0
M  V30 727 H 67.9637 2.98183 2.25915 0
M  V30 728 H 69.2967 3.91125 2.98801 0
M  V30 729 N 70.9488 -0.749086 1.3866 0
M  V30 730 C 71.9118 -1.84457 1.36045 0
M  V30 731 C 72.9118 -1.58682 0.260122 0
M  V30 732 O 74.1018 -1.66343 0.517261 0
M  V30 733 C 71.2338 -3.22008 1.11911 0
M  V30 734 H 72.4268 -1.88182 2.33512 0
M  V30 735 H 69.9798 -0.951266 1.24019 0
M  V30 736 H 70.7148 -3.2395 0.150686 0
M  V30 737 H 70.4998 -3.42111 1.91579 0
M  V30 738 H 71.9898 -4.0208 1.12788 0
M  V30 739 N 72.4269 -1.23603 -0.977757 0
M  V30 740 C 73.6729 -1.07129 -1.72195 0
M  V30 741 C 74.0059 0.390501 -1.90233 0
M  V30 742 O 73.2809 1.28902 -1.45653 0
M  V30 743 C 73.5639 -1.80031 -3.11867 0
M  V30 744 C 73.4169 -3.33899 -3.01383 0
M  V30 745 C 74.7359 -1.56492 -4.11337 0
M  V30 746 H 71.8549 -0.390571 -0.624999 0
M  V30 747 H 74.4969 -1.52142 -1.13811 0
M  V30 748 H 72.6469 -1.41768 -3.6171 0
M  V30 749 H 74.3189 -3.81699 -2.59043 0
M  V30 750 H 72.5619 -3.62796 -2.37827 0
M  V30 751 H 73.2329 -3.801 -4.00285 0
M  V30 752 H 75.7089 -1.89757 -3.70313 0
M  V30 753 H 74.5849 -2.09973 -5.07151 0
M  V30 754 H 74.8459 -0.500874 -4.39254 0
M  V30 755 N 73.905 1.17692 -1.04816 0
M  V30 756 C 74.852 2.21581 -0.645797 0
M  V30 757 C 75.822 1.62367 0.350159 0
M  V30 758 O 77.007 1.89254 0.242433 0
M  V30 759 C 74.147 3.45092 -0.0227568 0
M  V30 760 C 73.26 4.18613 -1.06709 0
M  V30 761 C 72.395 5.29602 -0.411767 0
M  V30 762 C 71.434 5.94904 -1.44067 0
M  V30 763 N 70.571 6.97414 -0.809781 0
M  V30 764 H 75.411 2.55353 -1.5362 0
M  V30 765 H 72.948 1.25438 -0.768364 0
M  V30 766 H 74.906 4.15679 0.35588 0
M  V30 767 H 73.536 3.11917 0.831122 0
M  V30 768 H 72.588 3.46779 -1.5636 0
M  V30 769 H 73.9 4.63293 -1.84827 0
M  V30 770 H 73.054 6.06696 0.0206623 0
M  V30 771 H 71.793 4.86045 0.401438 0
M  V30 772 H 70.798 5.16544 -1.88316 0
M  V30 773 H 72.023 6.40542 -2.25571 0
M  V30 774 H 69.969 6.55998 -0.0170186 0
M  V30 775 H 69.886 7.40386 -1.52856 0
M  V30 776 H 71.154 7.78463 -0.401999 0
M  V30 777 N 75.3831 0.828654 1.34056 0
M  V30 778 C 76.3331 0.226828 2.26869 0
M  V30 779 C 77.3171 -0.612243 1.48796 0
M  V30 780 O 78.5091 -0.465884 1.70759 0
M  V30 781 C 75.6381 -0.605654 3.37915 0
M  V30 782 C 74.7241 0.244361 4.23395 0
M  V30 783 N 75.1151 1.31815 4.88322 0
M  V30 784 C 73.4131 0.0296616 4.4599 0
M  V30 785 C 74.1141 1.83895 5.51867 0
M  V30 786 N 73.0901 1.14196 5.3147 0
M  V30 787 H 76.8921 1.04811 2.74576 0
M  V30 788 H 74.4061 0.67205 1.47842 0
M  V30 789 H 76.4031 -1.05302 4.03382 0
M  V30 790 H 75.0631 -1.42504 2.91758 0
M  V30 791 H 76.0741 1.70099 4.8917 0
M  V30 792 H 72.7511 -0.757097 4.10578 0
M  V30 793 H 74.1411 2.7376 6.136 0
M  V30 794 N 76.8612 -1.46375 0.584142 0
M  V30 795 C 78.1082 -2.02378 0.0702675 0
M  V30 796 C 78.4362 -1.45545 -1.29023 0
M  V30 797 O 77.6912 -0.610967 -1.85918 0
M  V30 798 C 77.9902 -3.57373 -0.0439342 0
M  V30 799 C 77.6562 -4.33252 1.24915 0
M  V30 800 C 76.3182 -4.53701 1.60341 0
M  V30 801 C 78.6702 -4.7681 2.1048 0
M  V30 802 C 75.9982 -5.1496 2.81128 0
M  V30 803 C 78.3502 -5.39404 3.30494 0
M  V30 804 C 77.0142 -5.5808 3.66201 0
M  V30 805 H 76.2842 -0.740554 0.0257127 0
M  V30 806 H 78.9312 -1.75727 0.761065 0
M  V30 807 H 77.2362 -3.83169 -0.817869 0
M  V30 808 H 78.9332 -3.98384 -0.457318 0
M  V30 809 H 75.5232 -4.17633 0.963364 0
M  V30 810 H 79.7072 -4.60766 1.84414 0
M  V30 811 H 74.9632 -5.27611 3.08928 0
M  V30 812 H 79.1372 -5.72114 3.97063 0
M  V30 813 H 76.7642 -6.05318 4.59885 0
M  V30 814 N 78.3393 -0.321999 -1.54275 0
M  V30 815 C 79.2693 0.537411 -2.27231 0
M  V30 816 C 80.2503 1.12064 -1.27968 0
M  V30 817 O 81.4353 1.14606 -1.56777 0
M  V30 818 C 78.5653 1.69919 -3.02894 0
M  V30 819 C 77.5193 1.24534 -4.09482 0
M  V30 820 C 76.8453 2.49394 -4.72977 0
M  V30 821 C 78.1453 0.361335 -5.21049 0
M  V30 822 H 79.8393 -0.0711406 -2.99315 0
M  V30 823 H 77.3853 -0.0356555 -1.43956 0
M  V30 824 H 79.3383 2.30668 -3.52662 0
M  V30 825 H 78.0623 2.33431 -2.28424 0
M  V30 826 H 76.7213 0.660782 -3.60596 0
M  V30 827 H 76.3693 3.11265 -3.95124 0
M  V30 828 H 76.0693 2.19718 -5.44975 0
M  V30 829 H 77.5933 3.10908 -5.25517 0
M  V30 830 H 79.0073 0.875072 -5.66582 0
M  V30 831 H 77.4043 0.157428 -5.99893 0
M  V30 832 H 78.4743 -0.60822 -4.8107 0
M  V30 833 N 79.8174 1.5752 -0.0501392 0
M  V30 834 C 80.7274 2.14952 0.939827 0
M  V30 835 C 81.7434 1.10706 1.34239 0
M  V30 836 O 82.9194 1.42869 1.41952 0
M  V30 837 C 79.9844 2.68232 2.19665 0
M  V30 838 C 79.0454 3.87272 1.85253 0
M  V30 839 C 78.2784 4.38002 3.04943 0
M  V30 840 O 78.5014 3.87811 4.18281 0
M  V30 841 O 77.4354 5.29602 2.86017 0
M  V30 842 H 81.2614 2.9986 0.481392 0
M  V30 843 H 78.8464 1.4841 0.171699 0
M  V30 844 H 80.7284 3.02475 2.93406 0
M  V30 845 H 79.4034 1.86395 2.64648 0
M  V30 846 H 78.3104 3.5792 1.0883 0
M  V30 847 H 79.6434 4.70336 1.4507 0
M  V30 848 N 81.2955 -0.223234 1.56011 0
M  V30 849 C 82.5235 -0.964812 1.83027 0
M  V30 850 C 82.9385 -1.78013 0.62904 0
M  V30 851 O 82.2955 -1.78008 -0.402414 0
M  V30 852 C 82.3465 -1.88373 3.08542 0
M  V30 853 O 82.0675 -1.10137 4.2403 0
M  V30 854 C 83.5685 -2.73934 3.48533 0
M  V30 855 H 80.7885 -0.282842 0.608475 0
M  V30 856 H 83.3325 -0.238971 2.03099 0
M  V30 857 H 81.4875 -2.56354 2.9045 0
M  V30 858 H 81.9015 -1.72501 4.95322 0
M  V30 859 H 83.3755 -3.34117 4.39397 0
M  V30 860 H 83.8525 -3.46244 2.70207 0
M  V30 861 H 84.4585 -2.11369 3.69057 0
M  V30 862 N 82.7736 -1.49793 -0.48987 0
M  V30 863 C 84.0216 -1.59525 -1.24081 0
M  V30 864 C 84.3426 -0.288953 -1.92847 0
M  V30 865 O 83.6126 0.692436 -1.83254 0
M  V30 866 H 82.1926 -0.587796 -0.460983 0
M  V30 867 H 84.8546 -1.86477 -0.566778 0
M  V30 868 H 83.9506 -2.39696 -1.99881 0
M  V30 869 N 84.2517 0.741722 -1.39055 0
M  V30 870 C 85.1617 1.88621 -1.39496 0
M  V30 871 C 86.1777 1.71557 -0.290578 0
M  V30 872 O 87.3537 1.94275 -0.530954 0
M  V30 873 C 84.4187 3.24134 -1.23037 0
M  V30 874 C 83.4797 3.5364 -2.43387 0
M  V30 875 C 82.7127 4.82687 -2.27703 0
M  V30 876 O 82.9357 5.55922 -1.27696 0
M  V30 877 O 81.8697 5.1194 -3.16545 0
M  V30 878 H 85.6957 1.91203 -2.35956 0
M  V30 879 H 83.2807 0.888625 -1.20099 0
M  V30 880 H 85.1627 4.0513 -1.15964 0
M  V30 881 H 83.8377 3.22337 -0.296691 0
M  V30 882 H 82.7447 2.72758 -2.56035 0
M  V30 883 H 84.0777 3.60209 -3.35425 0
M  V30 884 N 85.7298 1.2412 0.971189 0
M  V30 885 C 86.6778 1.02812 2.08644 0
M  V30 886 C 87.6718 -0.0358403 1.69362 0
M  V30 887 O 88.8778 0.118429 1.7961 0
M  V30 888 H 85.2528 0.315428 0.682649 0
M  V30 889 H 87.2238 1.97397 2.23779 0
M  V30 890 C 85.9728 0.645874 3.41649 0
M  V30 891 H 85.2958 1.45632 3.72332 0
M  V30 892 H 86.7358 0.536366 4.20594 0
M  V30 893 C 85.1948 -0.646713 3.30635 0
M  V30 894 O 85.7248 -1.69338 3.64263 0
M  V30 895 N 83.9308 -0.626115 2.83775 0
M  V30 896 H 83.4778 0.225988 2.56607 0
M  V30 897 H 83.4358 -1.49117 2.76788 0
M  V30 898 N 87.2079 -1.17134 1.05439 0
M  V30 899 C 88.4539 -1.87733 0.767077 0
M  V30 900 C 88.7869 -1.8098 -0.704253 0
M  V30 901 O 88.0619 -1.21951 -1.5152 0
M  V30 902 C 88.3449 -3.37659 1.25133 0
M  V30 903 C 88.1979 -3.53149 2.78578 0
M  V30 904 C 89.5169 -4.31768 0.852324 0
M  V30 905 H 86.6359 -0.681687 0.280129 0
M  V30 906 H 89.2779 -1.37732 1.30881 0
M  V30 907 H 87.4279 -3.80373 0.790469 0
M  V30 908 H 89.0999 -3.19434 3.32806 0
M  V30 909 H 87.3429 -2.95345 3.17732 0
M  V30 910 H 88.0139 -4.58403 3.07523 0
M  V30 911 H 90.4899 -3.96909 1.24911 0
M  V30 912 H 89.3659 -5.35199 1.21873 0
M  V30 913 H 89.6269 -4.41429 -0.243485 0
M  V30 914 N 88.686 -0.835752 -1.33615 0
M  V30 915 C 89.916 -0.442701 -2.01801 0
M  V30 916 C 90.324 0.959807 -1.63047 0
M  V30 917 O 89.667 1.63468 -0.838088 0
M  V30 918 C 89.729 -0.480125 -3.56279 0
M  V30 919 C 89.393 -1.8382 -4.18401 0
M  V30 920 C 90.39 -2.80097 -4.37998 0
M  V30 921 C 88.075 -2.13019 -4.54894 0
M  V30 922 C 90.069 -4.03736 -4.9323 0
M  V30 923 C 87.756 -3.36916 -5.09834 0
M  V30 924 C 88.754 -4.32091 -5.28948 0
M  V30 925 O 88.442 -5.53797 -5.82721 0
M  V30 926 H 88.174 -0.17441 -0.653114 0
M  V30 927 H 90.728 -1.129 -1.71589 0
M  V30 928 H 88.958 0.262931 -3.85805 0
M  V30 929 H 90.647 -0.105335 -4.05763 0
M  V30 930 H 91.413 -2.58838 -4.10156 0
M  V30 931 H 87.292 -1.39733 -4.39313 0
M  V30 932 H 90.836 -4.78034 -5.08064 0
M  V30 933 H 86.733 -3.58033 -5.37106 0
M  V30 934 H 87.501 -5.55494 -6.0114 0
M  V30 935 N 90.1641 1.46063 -0.591896 0
M  V30 936 C 91.1121 2.32124 0.148739 0
M  V30 937 C 92.1061 1.45035 0.875286 0
M  V30 938 O 93.3121 1.61609 0.792632 0
M  V30 939 H 89.6871 0.749024 0.066832 0
M  V30 940 H 91.6581 2.92392 -0.595783 0
M  V30 941 C 90.4071 3.28373 1.1431 0
M  V30 942 H 89.7301 3.95371 0.59346 0
M  V30 943 H 91.1701 3.91352 1.63155 0
M  V30 944 C 89.6291 2.54393 2.20875 0
M  V30 945 O 90.1591 2.31373 3.28374 0
M  V30 946 N 88.3651 2.14797 1.95731 0
M  V30 947 H 87.9121 2.33719 1.08319 0
M  V30 948 H 87.8701 1.65619 2.67241 0
M  V30 949 N 91.6422 0.330177 1.54103 0
M  V30 950 C 92.5522 -0.541534 2.28264 0
M  V30 951 C 93.5682 -1.12351 1.32866 0
M  V30 952 O 94.7442 -1.14206 1.65888 0
M  V30 953 C 91.8092 -1.68322 3.03098 0
M  V30 954 C 90.8702 -1.13238 4.14096 0
M  V30 955 C 90.1032 -2.21966 4.85352 0
M  V30 956 O 90.3262 -3.42437 4.56172 0
M  V30 957 O 89.2602 -1.87013 5.7211 0
M  V30 958 H 93.0862 0.060938 3.03639 0
M  V30 959 H 90.6712 0.09565 1.49093 0
M  V30 960 H 92.5532 -2.34777 3.49939 0
M  V30 961 H 91.2282 -2.27176 2.30593 0
M  V30 962 H 90.1352 -0.432736 3.71589 0
M  V30 963 H 91.4682 -0.588898 4.88664 0
M  V30 964 N 93.1203 -1.57491 0.0584922 0
M  V30 965 C 94.3973 -1.84346 -0.653918 0
M  V30 966 C 94.7773 -0.948355 -1.88599 0
M  V30 967 O 94.1253 -0.0112403 -2.28497 0
M  V30 968 C 94.3353 -3.34239 -1.00425 0
M  V30 969 C 95.6833 -4.01431 -1.38342 0
M  V30 970 O 96.7073 -3.38907 -1.09637 0
M  V30 971 O 95.5663 -5.11683 -1.91943 0
M  V30 972 H 92.6603 -0.761112 -0.323478 0
M  V30 973 H 95.2063 -1.6947 0.0884125 0
M  V30 974 H 93.9783 -3.91089 -0.128625 0
M  V30 975 H 93.6013 -3.54329 -1.80378 0
M  V30 976 N 94.5984 0.214957 -1.56127 0
M  V30 977 C 96.0094 0.781386 -1.69562 0
M  V30 978 C 96.3604 1.84707 -0.66165 0
M  V30 979 O 95.4854 2.156 0.185927 0
M  V30 980 C 96.0804 1.42411 -3.07416 0
M  V30 981 C 94.6394 1.93786 -3.22683 0
M  V30 982 C 93.7864 0.800438 -2.65496 0
M  V30 983 H 96.7374 -0.00980633 -1.58697 0
M  V30 984 H 96.7584 2.29309 -3.0364 0
M  V30 985 H 96.2704 0.64826 -3.82648 0
M  V30 986 H 94.3714 2.74152 -2.52332 0
M  V30 987 H 94.4844 2.1133 -4.29973 0
M  V30 988 H 92.8484 1.2095 -2.2415 0
M  V30 989 H 93.6314 0.0371471 -3.4328 0
M  V30 990 N 96.0765 1.50051 0.48192 0
M  V30 991 C 96.9865 1.7089 1.60728 0
M  V30 992 C 98.0025 0.591788 1.63627 0
M  V30 993 O 99.1785 0.868817 1.81696 0
M  V30 994 C 96.2435 1.78855 2.97005 0
M  V30 995 C 95.3045 3.02537 3.04581 0
M  V30 996 C 94.5375 3.10112 4.34357 0
M  V30 997 O 94.7605 2.24765 5.24249 0
M  V30 998 O 93.6945 4.02747 4.47301 0
M  V30 999 H 97.5205 2.66264 1.46072 0
M  V30 1000 H 95.1055 1.34018 0.660264 0
M  V30 1001 H 96.9875 1.86336 3.77964 0
M  V30 1002 H 95.6625 0.866628 3.11883 0
M  V30 1003 H 94.5695 3.00563 2.22739 0
M  V30 1004 H 95.9025 3.94272 2.94636 0
M  V30 1005 N 97.5546 -0.734337 1.39446 0
M  V30 1006 C 98.8036 -1.48937 1.36017 0
M  V30 1007 C 99.1166 -1.95557 -0.0409005 0
M  V30 1008 O 100.323 -2.70779 -0.19778 0
M  V30 1009 C 98.7786 -2.69125 2.38955 0
M  V30 1010 C 98.3866 -2.29452 3.8478 0
M  V30 1011 C 100.131 -3.46944 2.44603 0
M  V30 1012 C 98.0376 -3.46366 4.79358 0
M  V30 1013 H 96.9676 -0.559296 0.505672 0
M  V30 1014 H 99.6186 -0.800983 1.65095 0
M  V30 1015 H 98.0006 -3.40041 2.02948 0
M  V30 1016 H 99.1746 -1.66077 4.29831 0
M  V30 1017 H 97.4896 -1.64723 3.82433 0
M  V30 1018 H 100.087 -4.33907 3.12456 0
M  V30 1019 H 100.43 -3.89454 1.47076 0
M  V30 1020 H 100.963 -2.83056 2.79507 0
M  V30 1021 H 97.7016 -3.08905 5.78151 0
M  V30 1022 H 97.2216 -4.08719 4.38986 0
M  V30 1023 H 98.9006 -4.12691 4.98292 0
M  V30 1024 N 99.0327 -1.24633 -0.964593 0
M  V30 1025 C 99.9627 -1.06611 -2.07741 0
M  V30 1026 C 100.944 0.0218666 -1.70086 0
M  V30 1027 O 102.129 -0.145793 -1.93652 0
M  V30 1028 C 99.2587 -0.673444 -3.40708 0
M  V30 1029 C 98.2127 -1.71054 -3.92332 0
M  V30 1030 C 97.5387 -1.17285 -5.21678 0
M  V30 1031 C 98.8387 -3.10718 -4.19824 0
M  V30 1032 H 100.533 -1.99693 -2.23076 0
M  V30 1033 H 98.0787 -0.96152 -1.07195 0
M  V30 1034 H 100.032 -0.534345 -4.17998 0
M  V30 1035 H 98.7557 0.293073 -3.25282 0
M  V30 1036 H 97.4147 -1.83791 -3.17201 0
M  V30 1037 H 97.0627 -0.196847 -5.02615 0
M  V30 1038 H 96.7627 -1.86592 -5.57187 0
M  V30 1039 H 98.2867 -1.04593 -6.01575 0
M  V30 1040 H 99.7007 -3.01192 -4.87808 0
M  V30 1041 H 98.0977 -3.77406 -4.66567 0
M  V30 1042 H 99.1677 -3.58524 -3.26479 0
M  V30 1043 N 100.511 1.16574 -1.06058 0
M  V30 1044 C 101.922 1.68662 -0.800632 0
M  V30 1045 C 102.273 1.84184 0.67608 0
M  V30 1046 O 101.398 1.53568 1.52466 0
M  V30 1047 C 101.993 3.06356 -1.44676 0
M  V30 1048 C 100.552 3.55575 -1.23465 0
M  V30 1049 C 99.6988 2.31616 -1.52477 0
M  V30 1050 H 102.65 1.00969 -1.22438 0
M  V30 1051 H 102.671 3.70636 -0.860788 0
M  V30 1052 H 102.183 2.95027 -2.52152 0
M  V30 1053 H 100.284 3.72167 -0.179527 0
M  V30 1054 H 100.397 4.37812 -1.94571 0
M  V30 1055 H 98.7608 2.36512 -0.945209 0
M  V30 1056 H 99.5438 2.22887 -2.61106 0
M  V30 1057 N 101.989 0.842826 1.3317 0
M  V30 1058 C 102.899 0.281444 2.32906 0
M  V30 1059 C 103.915 -0.594587 1.63526 0
M  V30 1060 O 105.091 -0.49777 1.95152 0
M  V30 1061 C 102.156 -0.530929 3.42611 0
M  V30 1062 C 101.217 0.369843 4.27704 0
M  V30 1063 C 100.45 -0.403853 5.3217 0
M  V30 1064 O 100.673 -1.63513 5.46461 0
M  V30 1065 O 99.6069 0.224199 6.01482 0
M  V30 1066 H 103.433 1.10744 2.82789 0
M  V30 1067 H 101.018 0.60545 1.36582 0
M  V30 1068 H 102.9 -0.992437 4.09547 0
M  V30 1069 H 101.575 -1.33392 2.94938 0
M  V30 1070 H 100.482 0.879275 3.6362 0
M  V30 1071 H 101.815 1.13771 4.78871 0
M  V30 1072 N 103.467 -1.45747 0.599634 0
M  V30 1073 C 104.43 -2.28917 -0.113835 0
M  V30 1074 C 105.43 -1.3933 -0.802729 0
M  V30 1075 O 106.62 -1.61534 -0.652103 0
M  V30 1076 C 103.752 -3.20152 -1.17114 0
M  V30 1077 H 104.945 -2.93478 0.617289 0
M  V30 1078 H 102.498 -1.52137 0.358327 0
M  V30 1079 H 103.233 -2.60374 -1.93329 0
M  V30 1080 H 103.018 -3.86133 -0.681468 0
M  V30 1081 H 104.508 -3.82708 -1.67105 0
M  V30 1082 N 104.945 -0.338344 -1.53925 0
M  V30 1083 C 105.855 0.529421 -2.28548 0
M  V30 1084 C 106.871 1.11645 -1.3346 0
M  V30 1085 O 108.047 1.13325 -1.66492 0
M  V30 1086 C 105.112 1.66713 -3.03987 0
M  V30 1087 C 104.173 1.11041 -4.14691 0
M  V30 1088 C 103.406 2.19389 -4.86522 0
M  V30 1089 O 103.629 3.40013 -4.57982 0
M  V30 1090 O 102.563 1.83976 -5.73094 0
M  V30 1091 H 106.389 -0.0770399 -3.03602 0
M  V30 1092 H 103.974 -0.103555 -1.49041 0
M  V30 1093 H 105.856 2.32918 -3.5118 0
M  V30 1094 H 104.531 2.25949 -2.31794 0
M  V30 1095 H 103.438 0.413024 -3.71813 0
M  V30 1096 H 104.771 0.562975 -4.8897 0
M  V30 1097 N 106.423 1.57458 -0.0668435 0
M  V30 1098 C 107.333 2.15937 0.916975 0
M  V30 1099 C 108.349 1.12123 1.33058 0
M  V30 1100 O 109.525 1.44366 1.40429 0
M  V30 1101 C 106.59 2.70547 2.16807 0
M  V30 1102 C 105.651 3.89215 1.81135 0
M  V30 1103 C 104.884 4.41211 3.0028 0
M  V30 1104 O 105.107 3.92225 4.14144 0
M  V30 1105 O 104.041 5.32605 2.80384 0
M  V30 1106 H 107.867 3.00354 0.449561 0
M  V30 1107 H 105.452 1.48584 0.155949 0
M  V30 1108 H 107.334 3.0557 2.90181 0
M  V30 1109 H 106.009 1.89192 2.62656 0
M  V30 1110 H 104.916 3.59054 1.05028 0
M  V30 1111 H 106.249 4.71848 1.40073 0
M  V30 1112 N 107.901 -0.206675 1.56239 0
M  V30 1113 C 108.831 -1.25909 1.96645 0
M  V30 1114 C 109.812 -1.48097 0.836734 0
M  V30 1115 O 110.997 -1.6003 1.10019 0
M  V30 1116 C 108.127 -2.6058 2.29599 0
M  V30 1117 C 107.081 -2.53024 3.452 0
M  V30 1118 C 106.407 -3.91861 3.63798 0
M  V30 1119 C 107.707 -2.06524 4.79734 0
M  V30 1120 H 109.401 -0.923369 2.84806 0
M  V30 1121 H 106.947 -0.442735 1.37025 0
M  V30 1122 H 108.9 -3.34375 2.56459 0
M  V30 1123 H 107.624 -2.95869 1.38307 0
M  V30 1124 H 106.283 -1.81684 3.18412 0
M  V30 1125 H 105.931 -4.24483 2.69857 0
M  V30 1126 H 105.631 -3.87683 4.4156 0
M  V30 1127 H 107.155 -4.67296 3.93022 0
M  V30 1128 H 108.569 -2.70072 5.05702 0
M  V30 1129 H 106.966 -2.13374 5.60885 0
M  V30 1130 H 108.036 -1.01802 4.74093 0
M  V30 1131 N 109.379 -1.50304 -0.473955 0
M  V30 1132 C 110.609 -1.64663 -1.24778 0
M  V30 1133 C 111.017 -0.328174 -1.86332 0
M  V30 1134 O 110.36 0.699536 -1.69859 0
M  V30 1135 C 110.422 -2.6778 -2.39863 0
M  V30 1136 C 110.086 -4.11413 -1.98969 0
M  V30 1137 C 111.083 -4.97372 -1.51385 0
M  V30 1138 C 108.768 -4.57312 -2.07777 0
M  V30 1139 C 110.762 -6.27277 -1.13148 0
M  V30 1140 C 108.449 -5.87223 -1.69152 0
M  V30 1141 C 109.447 -6.72031 -1.21915 0
M  V30 1142 O 109.135 -7.99518 -0.838237 0
M  V30 1143 H 108.867 -0.556602 -0.383627 0
M  V30 1144 H 111.421 -1.9726 -0.572491 0
M  V30 1145 H 109.651 -2.30419 -3.10554 0
M  V30 1146 H 111.34 -2.71388 -3.01833 0
M  V30 1147 H 112.106 -4.63128 -1.44004 0
M  V30 1148 H 107.985 -3.91449 -2.43493 0
M  V30 1149 H 111.529 -6.93425 -0.762077 0
M  V30 1150 H 107.426 -6.20989 -1.76191 0
M  V30 1151 H 108.194 -8.12764 -0.967339 0
M  V30 1152 N 110.857 0.726932 -1.39834 0
M  V30 1153 C 111.82 1.82269 -1.38962 0
M  V30 1154 C 112.82 1.58248 -0.285334 0
M  V30 1155 O 114.01 1.65499 -0.54366 0
M  V30 1156 C 111.142 3.20186 -1.17019 0
M  V30 1157 H 112.335 1.84443 -2.36476 0
M  V30 1158 H 109.888 0.931416 -1.25516 0
M  V30 1159 H 110.623 3.23669 -0.202204 0
M  V30 1160 H 110.408 3.3902 -1.96998 0
M  V30 1161 H 111.898 4.00235 -1.1917 0
M  V30 1162 N 112.336 1.25143 0.95797 0
M  V30 1163 C 113.584 1.09476 1.69881 0
M  V30 1164 C 113.905 -0.365502 1.91544 0
M  V30 1165 O 113.175 -1.25985 1.50015 0
M  V30 1166 H 111.755 0.402128 0.629525 0
M  V30 1167 H 114.417 1.57214 1.15194 0
M  V30 1168 H 113.513 1.60046 2.6794 0
M  V30 1169 N 113.814 -1.1601 1.06675 0
M  V30 1170 C 114.747 -2.1947 0.625168 0
M  V30 1171 C 115.725 -1.58699 -0.354041 0
M  V30 1172 O 116.909 -1.86669 -0.262098 0
M  V30 1173 C 114.036 -3.38598 -0.0829593 0
M  V30 1174 C 113.082 -4.1787 0.853611 0
M  V30 1175 S 113.915 -4.81135 2.35094 0
M  V30 1176 C 115.071 -6.03639 1.65441 0
M  V30 1177 H 115.304 -2.56587 1.50168 0
M  V30 1178 H 112.837 -1.26862 0.880078 0
M  V30 1179 H 114.795 -4.07621 -0.485288 0
M  V30 1180 H 113.456 -2.99839 -0.935716 0
M  V30 1181 H 112.649 -5.03078 0.304755 0
M  V30 1182 H 112.251 -3.54361 1.196 0
M  V30 1183 H 114.543 -6.70632 0.962201 0
M  V30 1184 H 115.486 -6.63081 2.48454 0
M  V30 1185 H 115.894 -5.52965 1.13534 0
M  V30 1186 N 115.292 -0.849877 -1.32721 0
M  V30 1187 C 116.532 -0.457146 -1.99222 0
M  V30 1188 C 116.896 0.968038 -1.6581 0
M  V30 1189 O 118.097 1.46507 -2.25364 0
M  V30 1190 C 116.368 -0.683966 -3.50794 0
M  V30 1191 S 117.927 -0.388095 -4.3708 0
M  V30 1192 H 114.745 -0.171464 -0.690015 0
M  V30 1193 H 117.347 -1.10155 -1.61512 0
M  V30 1194 H 116.051 -1.72038 -3.726 0
M  V30 1195 H 115.582 -0.0258086 -3.93392 0
M  V30 1196 H 117.597 0.787791 -4.89906 0
M  V30 1197 N 116.77 1.45427 -0.607355 0
M  V30 1198 C 117.995 2.07124 -0.107006 0
M  V30 1199 C 118.42 1.44906 1.19933 0
M  V30 1200 O 117.778 0.541687 1.73019 0
M  V30 1201 C 117.826 3.60595 0.0194119 0
M  V30 1202 O 116.93 3.98285 1.0697 0
M  V30 1203 H 116.271 0.659868 -0.0739597 0
M  V30 1204 H 118.801 1.86683 -0.837297 0
M  V30 1205 H 118.811 4.07419 0.2177 0
M  V30 1206 H 117.486 4.05266 -0.934453 0
M  V30 1207 H 116.063 3.63133 0.847889 0
M  V30 1208 N 118.248 0.346503 1.53744 0
M  V30 1209 C 119.496 -0.248612 2.00565 0
M  V30 1210 C 119.817 -1.5083 1.23593 0
M  V30 1211 O 119.087 -1.92858 0.343912 0
M  V30 1212 H 117.667 -0.0948564 0.740953 0
M  V30 1213 H 120.329 0.468341 1.89189 0
M  V30 1214 H 119.425 -0.488994 3.08245 0
M  V30 1215 N 119.726 -1.57421 0.075193 0
M  V30 1216 C 120.966 -1.95495 -0.596757 0
M  V30 1217 C 121.33 -0.954886 -1.66571 0
M  V30 1218 O 122.531 -1.22341 -2.39345 0
M  V30 1219 C 120.802 -3.382 -1.15566 0
M  V30 1220 S 122.361 -3.98254 -1.84226 0
M  V30 1221 H 119.179 -0.683649 -0.195307 0
M  V30 1222 H 121.781 -1.94925 0.149859 0
M  V30 1223 H 120.485 -4.08766 -0.36588 0
M  V30 1224 H 120.016 -3.42321 -1.93856 0
M  V30 1225 H 122.031 -3.85435 -3.12497 0
M  V30 1226 N 121.204 0.198386 -1.56346 0
M  V30 1227 C 122.154 1.2499 -1.90687 0
M  V30 1228 C 123.138 1.41158 -0.772217 0
M  V30 1229 O 124.33 1.43584 -1.03502 0
M  V30 1230 C 121.459 2.59542 -2.24706 0
M  V30 1231 C 120.545 2.47181 -3.44619 0
M  V30 1232 N 120.936 2.04495 -4.62618 0
M  V30 1233 C 119.234 2.78082 -3.48692 0
M  V30 1234 C 119.935 2.03945 -5.44776 0
M  V30 1235 N 118.911 2.45323 -4.85095 0
M  V30 1236 H 122.713 0.911149 -2.7942 0
M  V30 1237 H 120.227 0.40684 -1.57221 0
M  V30 1238 H 122.224 3.3549 -2.47491 0
M  V30 1239 H 120.884 2.94244 -1.37298 0
M  V30 1240 H 121.895 1.75256 -4.87345 0
M  V30 1241 H 118.572 3.17002 -2.71691 0
M  V30 1242 H 119.962 1.72872 -6.4928 0
M  V30 1243 N 122.682 1.50554 0.465978 0
M  V30 1244 C 123.93 1.61479 1.21528 0
M  V30 1245 C 124.251 0.319596 1.92363 0
M  V30 1246 O 123.521 -0.663194 1.84333 0
M  V30 1247 H 122.101 0.595055 0.451573 0
M  V30 1248 H 124.763 1.87355 0.53704 0
M  V30 1249 H 123.859 2.42846 1.96042 0
M  V30 1250 N 124.16 -0.719506 1.40217 0
M  V30 1251 C 125.11 -1.8251 1.36653 0
M  V30 1252 C 126.094 -1.59028 0.244732 0
M  V30 1253 O 127.286 -1.70268 0.483524 0
M  V30 1254 C 124.415 -3.20599 1.22763 0
M  V30 1255 C 123.501 -3.49858 2.39708 0
M  V30 1256 N 123.892 -3.49957 3.6519 0
M  V30 1257 C 122.19 -3.80297 2.33002 0
M  V30 1258 C 122.891 -3.77449 4.42614 0
M  V30 1259 N 121.867 -3.96002 3.72402 0
M  V30 1260 H 125.669 -1.80914 2.31619 0
M  V30 1261 H 123.183 -0.918455 1.33933 0
M  V30 1262 H 125.18 -3.99766 1.18292 0
M  V30 1263 H 123.84 -3.23424 0.287614 0
M  V30 1264 H 124.851 -3.309 3.98404 0
M  V30 1265 H 121.528 -3.90635 1.47346 0
M  V30 1266 H 122.918 -3.83863 5.51451 0
M  V30 1267 N 125.638 -1.25649 -0.95132 0
M  V30 1268 C 126.868 -1.13179 -1.72841 0
M  V30 1269 C 127.276 0.316827 -1.86528 0
M  V30 1270 O 126.619 1.22948 -1.3649 0
M  V30 1271 C 126.681 -1.71644 -3.15878 0
M  V30 1272 C 126.345 -3.20667 -3.25609 0
M  V30 1273 C 127.342 -4.17616 -3.09666 0
M  V30 1274 C 125.027 -3.6094 -3.49324 0
M  V30 1275 C 127.021 -5.52817 -3.17289 0
M  V30 1276 C 124.708 -4.96278 -3.56584 0
M  V30 1277 C 125.706 -5.92025 -3.40581 0
M  V30 1278 O 125.394 -7.24899 -3.47528 0
M  V30 1279 H 125.126 -0.395389 -0.54831 0
M  V30 1280 H 127.68 -1.66566 -1.20187 0
M  V30 1281 H 125.91 -1.12707 -3.69911 0
M  V30 1282 H 127.599 -1.54225 -3.75459 0
M  V30 1283 H 128.365 -3.87842 -2.91211 0
M  V30 1284 H 124.244 -2.86907 -3.6084 0
M  V30 1285 H 127.788 -6.2753 -3.04716 0
M  V30 1286 H 123.685 -5.25716 -3.74556 0
M  V30 1287 H 124.453 -7.33039 -3.64138 0
M  V30 1288 N 127.117 1.15442 -1.07289 0
M  V30 1289 C 128.08 2.18358 -0.696591 0
M  V30 1290 C 129.08 1.58637 0.262837 0
M  V30 1291 O 130.27 1.74145 0.0438809 0
M  V30 1292 C 127.402 3.4089 -0.0266151 0
M  V30 1293 H 128.595 2.53162 -1.60776 0
M  V30 1294 H 126.148 1.29893 -0.869342 0
M  V30 1295 H 126.883 3.11653 0.896822 0
M  V30 1296 H 126.668 3.85495 -0.716657 0
M  V30 1297 H 128.158 4.17009 0.222028 0
M  V30 1298 N 128.595 0.856903 1.32268 0
M  V30 1299 C 129.505 0.306131 2.32594 0
M  V30 1300 C 130.521 -0.577209 1.64147 0
M  V30 1301 O 131.697 -0.477043 1.95669 0
M  V30 1302 C 128.762 -0.494561 3.43154 0
M  V30 1303 C 127.823 0.415186 4.27288 0
M  V30 1304 C 127.056 -0.347387 5.32568 0
M  V30 1305 O 127.279 -1.57708 5.48165 0
M  V30 1306 O 126.213 0.287982 6.01211 0
M  V30 1307 H 130.039 1.13737 2.81598 0
M  V30 1308 H 127.624 0.619902 1.35932 0
M  V30 1309 H 129.506 -0.948944 4.10576 0
M  V30 1310 H 128.181 -1.30257 2.96336 0
M  V30 1311 H 127.088 0.917793 3.62667 0
M  V30 1312 H 128.421 1.18844 4.77637 0
M  V30 1313 N 130.073 -1.45103 0.615059 0
M  V30 1314 C 131.321 -2.01784 0.112955 0
M  V30 1315 C 131.642 -1.48504 -1.26378 0
M  V30 1316 O 130.912 -0.682245 -1.83636 0
M  V30 1317 H 129.492 -0.745993 0.0387668 0
M  V30 1318 H 132.154 -1.77808 0.798141 0
M  V30 1319 H 131.25 -3.12025 0.0684069 0
M  V30 1320 N 131.551 -0.354651 -1.53558 0
M  V30 1321 C 132.498 0.496968 -2.25386 0
M  V30 1322 C 133.468 1.0865 -1.25636 0
M  V30 1323 O 134.653 1.12104 -1.54394 0
M  V30 1324 C 131.793 1.63637 -3.03837 0
M  V30 1325 C 130.906 1.07307 -4.18461 0
M  V30 1326 C 130.041 2.18068 -4.84376 0
M  V30 1327 C 129.08 1.59147 -5.91049 0
M  V30 1328 N 128.217 2.63695 -6.50699 0
M  V30 1329 H 133.057 -0.122075 -2.9775 0
M  V30 1330 H 130.594 -0.0720154 -1.46924 0
M  V30 1331 H 132.552 2.30734 -3.47589 0
M  V30 1332 H 131.182 2.22623 -2.33749 0
M  V30 1333 H 130.234 0.292708 -3.79272 0
M  V30 1334 H 131.546 0.602193 -4.95152 0
M  V30 1335 H 130.7 2.93007 -5.31255 0
M  V30 1336 H 129.439 2.68504 -4.07133 0
M  V30 1337 H 128.444 0.827175 -5.43542 0
M  V30 1338 H 129.669 1.09549 -6.70206 0
M  V30 1339 H 127.615 3.13365 -5.76315 0
M  V30 1340 H 127.532 2.21263 -7.22896 0
M  V30 1341 H 128.8 3.3837 -7.02229 0
M  V30 1342 N 133.029 1.57378 -0.0835403 0
M  V30 1343 C 134.278 1.93106 0.582498 0
M  V30 1344 C 134.591 0.96651 1.70053 0
M  V30 1345 O 135.797 1.21705 2.42693 0
M  V30 1346 C 134.253 3.43076 1.08751 0
M  V30 1347 C 133.861 4.48 -0.000146404 0
M  V30 1348 C 135.605 3.87785 1.72694 0
M  V30 1349 C 133.512 5.89113 0.519568 0
M  V30 1350 H 132.442 0.720775 0.221358 0
M  V30 1351 H 135.093 1.82821 -0.157675 0
M  V30 1352 H 133.475 3.48474 1.88101 0
M  V30 1353 H 134.649 4.54233 -0.775199 0
M  V30 1354 H 132.964 4.1283 -0.54406 0
M  V30 1355 H 135.561 4.90604 2.1263 0
M  V30 1356 H 135.904 3.25796 2.59158 0
M  V30 1357 H 136.437 3.8504 0.999457 0
M  V30 1358 H 133.176 6.54775 -0.308186 0
M  V30 1359 H 132.696 5.86376 1.26188 0
M  V30 1360 H 134.375 6.39346 0.992237 0
M  V30 1361 N 134.507 -0.190092 1.56449 0
M  V30 1362 C 135.755 -0.907908 1.80559 0
M  V30 1363 C 136.076 -1.83583 0.657438 0
M  V30 1364 O 135.346 -1.93203 -0.323924 0
M  V30 1365 H 133.926 -0.338247 0.666032 0
M  V30 1366 H 136.588 -0.194403 1.93928 0
M  V30 1367 H 135.684 -1.49604 2.73907 0
M  V30 1368 N 135.985 -1.50799 -0.457987 0
M  V30 1369 C 137.396 -1.55152 -1.0385 0
M  V30 1370 C 137.747 -0.362719 -1.92818 0
M  V30 1371 O 136.872 0.522915 -2.09987 0
M  V30 1372 C 137.467 -2.81173 -1.89017 0
M  V30 1373 C 136.026 -2.88164 -2.42154 0
M  V30 1374 C 135.173 -2.49591 -1.20829 0
M  V30 1375 H 138.124 -1.56874 -0.240068 0
M  V30 1376 H 138.145 -2.63769 -2.74238 0
M  V30 1377 H 137.657 -3.67677 -1.24238 0
M  V30 1378 H 135.758 -2.06042 -3.10447 0
M  V30 1379 H 135.871 -3.91356 -2.76364 0
M  V30 1380 H 134.235 -2.02322 -1.54719 0
M  V30 1381 H 135.018 -3.38418 -0.576927 0
M  V30 1382 N 137.463 0.71206 -1.40597 0
M  V30 1383 C 138.711 1.46907 -1.38791 0
M  V30 1384 C 139.032 1.94998 0.00780391 0
M  V30 1385 O 138.302 1.70587 0.963174 0
M  V30 1386 H 136.882 0.545043 -0.51082 0
M  V30 1387 H 139.544 0.843882 -1.75683 0
M  V30 1388 H 138.64 2.34021 -2.06496 0
M  V30 1389 N 138.941 1.26152 0.944643 0
M  V30 1390 C 139.871 1.09902 2.06019 0
M  V30 1391 C 140.852 0.00519538 1.70099 0
M  V30 1392 O 142.037 0.176583 1.93396 0
M  V30 1393 C 139.167 0.727562 3.39594 0
M  V30 1394 C 138.121 1.77274 3.89561 0
M  V30 1395 C 137.447 1.25569 5.19747 0
M  V30 1396 C 138.747 3.17357 4.14827 0
M  V30 1397 H 140.441 2.03217 2.19871 0
M  V30 1398 H 137.987 0.978452 1.05652 0
M  V30 1399 H 139.94 0.600777 4.17095 0
M  V30 1400 H 138.664 -0.241287 3.25707 0
M  V30 1401 H 137.323 1.88814 3.14237 0
M  V30 1402 H 136.971 0.276783 5.02238 0
M  V30 1403 H 136.671 1.95433 5.54148 0
M  V30 1404 H 138.195 1.1415 5.99835 0
M  V30 1405 H 139.609 3.08914 4.82954 0
M  V30 1406 H 138.006 3.84781 4.60504 0
M  V30 1407 H 139.076 3.63673 3.20734 0
M  V30 1408 N 140.419 -1.14872 1.07899 0
M  V30 1409 C 141.367 -2.21857 0.698727 0
M  V30 1410 C 142.361 -1.66845 -0.293086 0
M  V30 1411 O 143.567 -1.79321 -0.156204 0
M  V30 1412 H 139.942 -0.722691 0.207899 0
M  V30 1413 H 141.913 -2.51205 1.61054 0
M  V30 1414 C 140.662 -3.47498 0.11858 0
M  V30 1415 H 139.985 -3.90154 0.872914 0
M  V30 1416 H 141.425 -4.23858 -0.109759 0
M  V30 1417 C 139.884 -3.16947 -1.1422 0
M  V30 1418 O 140.414 -3.3426 -2.22785 0
M  V30 1419 N 138.62 -2.70946 -1.05055 0
M  V30 1420 H 138.167 -2.57058 -0.167038 0
M  V30 1421 H 138.125 -2.50879 -1.89491 0
M  V30 1422 N 141.898 -0.863906 -1.31812 0
M  V30 1423 C 143.175 -0.39275 -1.91616 0
M  V30 1424 C 143.555 1.12461 -1.7865 0
M  V30 1425 O 142.903 1.95045 -1.19037 0
M  V30 1426 C 143.113 -0.867385 -3.38049 0
M  V30 1427 C 144.461 -0.889966 -4.15168 0
M  V30 1428 O 145.485 -0.812635 -3.46806 0
M  V30 1429 O 144.344 -1.00079 -5.37258 0
M  V30 1430 H 141.438 -0.116358 -0.818773 0
M  V30 1431 H 143.984 -0.951418 -1.40521 0
M  V30 1432 H 142.756 -1.91081 -3.41473 0
M  V30 1433 H 142.379 -0.286687 -3.96565 0
M  V30 1434 N 143.376 1.44774 -0.622745 0
M  V30 1435 C 144.339 2.29069 0.0774015 0
M  V30 1436 C 145.339 1.4059 0.780461 0
M  V30 1437 O 146.529 1.62551 0.626322 0
M  V30 1438 C 143.661 3.21974 1.12006 0
M  V30 1439 H 144.854 2.92459 -0.663901 0
M  V30 1440 H 142.407 1.51548 -0.382486 0
M  V30 1441 H 143.142 2.63417 1.89162 0
M  V30 1442 H 142.927 3.87168 0.619951 0
M  V30 1443 H 144.417 3.85318 1.60995 0
M  V30 1444 N 144.854 0.36279 1.53368 0
M  V30 1445 C 146.084 -0.228281 2.05335 0
M  V30 1446 C 146.492 -1.43226 1.23625 0
M  V30 1447 O 145.835 -1.81717 0.269206 0
M  V30 1448 C 145.897 -0.688549 3.52845 0
M  V30 1449 C 145.561 0.398362 4.5526 0
M  V30 1450 C 146.558 1.24732 5.04716 0
M  V30 1451 C 144.243 0.557805 4.99193 0
M  V30 1452 C 146.237 2.2411 5.96702 0
M  V30 1453 C 143.924 1.55495 5.90986 0
M  V30 1454 C 144.922 2.39503 6.39631 0
M  V30 1455 O 144.61 3.37517 7.29615 0
M  V30 1456 H 144.342 -0.044395 0.674541 0
M  V30 1457 H 146.896 0.518668 1.98744 0
M  V30 1458 H 145.126 -1.48706 3.56964 0
M  V30 1459 H 146.815 -1.20231 3.87685 0
M  V30 1460 H 147.581 1.13532 4.71525 0
M  V30 1461 H 143.46 -0.0862959 4.60919 0
M  V30 1462 H 147.004 2.89718 6.34594 0
M  V30 1463 H 142.901 1.66744 6.23592 0
M  V30 1464 H 143.669 3.33213 7.47604 0
M  V30 1465 N 146.332 -1.57332 0.0918853 0
M  V30 1466 C 147.578 -1.95328 -0.567313 0
M  V30 1467 C 147.933 -0.972866 -1.65991 0
M  V30 1468 O 147.226 0.00166256 -1.916 0
M  V30 1469 C 147.42 -3.37689 -1.17051 0
M  V30 1470 C 147.249 -4.49489 -0.137875 0
M  V30 1471 C 146.019 -5.04498 0.284515 0
M  V30 1472 C 148.217 -5.10393 0.63271 0
M  V30 1473 N 146.199 -5.99853 1.30576 0
M  V30 1474 C 147.57 -6.01435 1.50587 0
M  V30 1475 C 149.625 -4.93143 0.68658 0
M  V30 1476 C 148.328 -6.77077 2.42815 0
M  V30 1477 C 150.354 -5.69445 1.59645 0
M  V30 1478 C 149.716 -6.60151 2.45725 0
M  V30 1479 H 145.815 -0.761467 -0.178023 0
M  V30 1480 H 148.399 -1.93924 0.173706 0
M  V30 1481 H 146.57 -3.39793 -1.88136 0
M  V30 1482 H 148.302 -3.62872 -1.79181 0
M  V30 1483 H 145.057 -4.73489 -0.102593 0
M  V30 1484 H 145.481 -6.52231 1.81449 0
M  V30 1485 H 150.123 -4.22785 0.035244 0
M  V30 1486 H 147.841 -7.46699 3.08975 0
M  V30 1487 H 151.427 -5.58112 1.64323 0
M  V30 1488 H 150.307 -7.18159 3.14987 0
M  V30 1489 N 147.81 0.181792 -1.56548 0
M  V30 1490 C 149.038 0.915947 -1.85521 0
M  V30 1491 C 149.453 1.76282 -0.676016 0
M  V30 1492 O 148.81 1.79012 0.355077 0
M  V30 1493 C 148.861 1.80126 -3.13427 0
M  V30 1494 O 148.582 0.988562 -4.26801 0
M  V30 1495 C 150.083 2.64597 -3.55673 0
M  V30 1496 H 147.303 0.26661 -0.61576 0
M  V30 1497 H 149.847 0.185039 -2.03661 0
M  V30 1498 H 148.002 2.48563 -2.97145 0
M  V30 1499 H 148.416 1.59308 -4.99721 0
M  V30 1500 H 149.89 3.2235 -4.48101 0
M  V30 1501 H 150.367 3.38958 -2.79292 0
M  V30 1502 H 150.973 2.0151 -3.74532 0
M  V30 1503 N 149.288 1.51039 0.449983 0
M  V30 1504 C 150.518 1.66627 1.22143 0
M  V30 1505 C 150.926 0.357776 1.85786 0
M  V30 1506 O 150.269 -0.672424 1.70951 0
M  V30 1507 C 150.331 2.71562 2.35573 0
M  V30 1508 C 149.995 4.14526 1.92399 0
M  V30 1509 C 150.992 4.99717 1.43453 0
M  V30 1510 C 148.677 4.60559 2.00475 0
M  V30 1511 C 150.671 6.28998 1.03155 0
M  V30 1512 C 148.358 5.8984 1.59788 0
M  V30 1513 C 149.356 6.73886 1.11208 0
M  V30 1514 O 149.044 8.0075 0.710935 0
M  V30 1515 H 148.776 0.562635 0.374724 0
M  V30 1516 H 151.33 1.98146 0.541036 0
M  V30 1517 H 149.56 2.3533 3.06849 0
M  V30 1518 H 151.249 2.76156 2.97478 0
M  V30 1519 H 152.015 4.65361 1.36618 0
M  V30 1520 H 147.894 3.95273 2.37235 0
M  V30 1521 H 151.438 6.9455 0.651663 0
M  V30 1522 H 147.335 6.23713 1.66289 0
M  V30 1523 H 148.103 8.142 0.837913 0
M  V30 1524 N 150.766 -0.704594 1.40972 0
M  V30 1525 C 152.177 -1.28418 1.3552 0
M  V30 1526 C 152.528 -1.96171 0.0339434 0
M  V30 1527 O 151.653 -1.98231 -0.867944 0
M  V30 1528 C 152.248 -2.33528 2.45459 0
M  V30 1529 C 150.807 -2.87085 2.43433 0
M  V30 1530 C 149.954 -1.61007 2.2577 0
M  V30 1531 H 152.905 -0.499963 1.50619 0
M  V30 1532 H 152.926 -3.14619 2.13998 0
M  V30 1533 H 152.438 -1.84187 3.41609 0
M  V30 1534 H 150.539 -3.40626 1.51013 0
M  V30 1535 H 150.652 -3.3813 3.39419 0
M  V30 1536 H 149.016 -1.86482 1.73483 0
M  V30 1537 H 149.799 -1.13675 3.23933 0
M  V30 1538 N 152.244 -1.26651 -0.937939 0
M  V30 1539 C 153.492 -1.12165 -1.68118 0
M  V30 1540 C 153.813 0.334983 -1.92101 0
M  V30 1541 O 153.083 1.23583 -1.52 0
M  V30 1542 H 151.663 -0.412093 -0.623048 0
M  V30 1543 H 154.325 -1.59027 -1.12678 0
M  V30 1544 H 153.421 -1.64289 -2.6536 0
M  V30 1545 N 153.722 1.14298 -1.08507 0
M  V30 1546 C 154.67 2.21483 -0.710483 0
M  V30 1547 C 155.664 1.66998 0.284234 0
M  V30 1548 O 156.87 1.79401 0.146692 0
M  V30 1549 H 153.245 0.721578 -0.211729 0
M  V30 1550 H 155.216 2.50348 -1.62384 0
M  V30 1551 C 153.965 3.4743 -0.137007 0
M  V30 1552 H 153.288 3.89686 -0.893592 0
M  V30 1553 H 154.728 4.2391 0.0872789 0
M  V30 1554 C 153.187 3.17548 1.12538 0
M  V30 1555 O 153.717 3.35437 2.21009 0
M  V30 1556 N 151.923 2.71499 1.03617 0
M  V30 1557 H 151.47 2.57143 0.153403 0
M  V30 1558 H 151.428 2.51881 1.88158 0
M  V30 1559 N 155.201 0.870884 1.31352 0
M  V30 1560 C 156.111 0.330783 2.32256 0
M  V30 1561 C 157.127 -0.559767 1.6475 0
M  V30 1562 O 158.303 -0.456263 1.96164 0
M  V30 1563 C 155.368 -0.458137 3.4366 0
M  V30 1564 C 154.429 0.460482 4.26823 0
M  V30 1565 C 153.662 -0.290881 5.32907 0
M  V30 1566 O 153.885 -1.51885 5.49806 0
M  V30 1567 O 152.819 0.351732 6.00871 0
M  V30 1568 H 156.645 1.16718 2.80376 0
M  V30 1569 H 154.23 0.634285 1.35267 0
M  V30 1570 H 156.112 -0.905343 4.1156 0
M  V30 1571 H 154.787 -1.27106 2.97701 0
M  V30 1572 H 153.694 0.956207 3.61673 0
M  V30 1573 H 155.027 1.23903 4.7635 0
M  V30 1574 N 156.679 -1.44442 0.630414 0
M  V30 1575 C 157.907 -2.06414 0.141671 0
M  V30 1576 C 158.322 -1.47105 -1.18345 0
M  V30 1577 O 157.679 -0.593662 -1.72574 0
M  V30 1578 C 157.73 -3.61494 0.0199784 0
M  V30 1579 O 157.451 -4.18594 1.29269 0
M  V30 1580 C 158.952 -4.40499 -0.497544 0
M  V30 1581 H 156.172 -0.666292 0.0793452 0
M  V30 1582 H 158.716 -1.85323 0.864614 0
M  V30 1583 H 156.871 -3.8185 -0.653402 0
M  V30 1584 H 157.285 -5.12026 1.13707 0
M  V30 1585 H 158.759 -5.49433 -0.531708 0
M  V30 1586 H 159.236 -4.11895 -1.52445 0
M  V30 1587 H 159.842 -4.25061 0.142562 0
M  V30 1588 N 158.157 -0.370918 -1.53173 0
M  V30 1589 C 159.434 0.273754 -1.93675 0
M  V30 1590 C 159.814 1.65938 -1.3049 0
M  V30 1591 O 159.162 2.23698 -0.465999 0
M  V30 1592 C 159.372 0.318602 -3.47543 0
M  V30 1593 C 160.72 0.556392 -4.20939 0
M  V30 1594 O 161.744 0.399587 -3.53952 0
M  V30 1595 O 160.603 0.862133 -5.39657 0
M  V30 1596 H 157.697 0.165448 -0.810281 0
M  V30 1597 H 160.243 -0.42409 -1.64315 0
M  V30 1598 H 159.015 -0.652687 -3.85818 0
M  V30 1599 H 158.638 1.06212 -3.83151 0
M  V30 1600 N 159.635 1.57281 -0.100228 0
M  V30 1601 C 160.881 1.94826 0.563101 0
M  V30 1602 C 161.214 0.982475 1.67514 0
M  V30 1603 O 160.489 0.0164069 1.94493 0
M  V30 1604 C 160.772 3.42453 1.11346 0
M  V30 1605 C 160.625 4.498 0.00612081 0
M  V30 1606 C 161.944 3.91506 2.01024 0
M  V30 1607 H 159.063 0.708428 0.203221 0
M  V30 1608 H 161.705 1.8922 -0.171979 0
M  V30 1609 H 159.855 3.47361 1.7399 0
M  V30 1610 H 161.527 4.57 -0.628357 0
M  V30 1611 H 159.77 4.28756 -0.659581 0
M  V30 1612 H 160.441 5.50306 0.432109 0
M  V30 1613 H 162.917 3.88784 1.48278 0
M  V30 1614 H 161.793 4.95358 2.36457 0
M  V30 1615 H 162.054 3.31099 2.92961 0
M  V30 1616 N 161.113 -0.173488 1.56642 0
M  V30 1617 C 162.361 -0.888706 1.81512 0
M  V30 1618 C 162.682 -1.82875 0.676872 0
M  V30 1619 O 161.952 -1.93536 -0.303414 0
M  V30 1620 H 160.532 -0.331164 0.669582 0
M  V30 1621 H 163.194 -0.173823 1.94123 0
M  V30 1622 H 162.29 -1.46691 2.75478 0
M  V30 1623 N 162.591 -1.51276 -0.441967 0
M  V30 1624 C 163.521 -1.752 -1.54361 0
M  V30 1625 C 164.502 -0.601682 -1.59103 0
M  V30 1626 O 165.687 -0.843913 -1.74905 0
M  V30 1627 C 162.817 -1.87282 -2.92477 0
M  V30 1628 C 161.771 -3.02687 -3.02596 0
M  V30 1629 C 161.097 -2.99947 -4.42647 0
M  V30 1630 C 162.397 -4.4273 -2.77106 0
M  V30 1631 H 164.091 -2.67442 -1.34592 0
M  V30 1632 H 161.637 -1.28694 -0.646048 0
M  V30 1633 H 163.59 -2.02602 -3.695 0
M  V30 1634 H 162.314 -0.916844 -3.13467 0
M  V30 1635 H 160.973 -2.87065 -2.28012 0
M  V30 1636 H 160.621 -2.02136 -4.60597 0
M  V30 1637 H 160.321 -3.77439 -4.50348 0
M  V30 1638 H 161.845 -3.17354 -5.2165 0
M  V30 1639 H 163.259 -4.58727 -3.43864 0
M  V30 1640 H 161.656 -5.21893 -2.96222 0
M  V30 1641 H 162.726 -4.53087 -1.72744 0
M  V30 1642 N 164.069 0.697108 -1.41344 0
M  V30 1643 C 165.316 1.45714 -1.40619 0
M  V30 1644 C 165.644 1.94494 -0.0147907 0
M  V30 1645 O 164.899 1.69794 0.973066 0
M  V30 1646 C 165.198 2.68553 -2.35826 0
M  V30 1647 C 164.864 2.38438 -3.82698 0
M  V30 1648 C 163.526 2.29936 -4.22709 0
M  V30 1649 C 165.878 2.13567 -4.75435 0
M  V30 1650 C 163.206 1.94656 -5.53467 0
M  V30 1651 C 165.558 1.79797 -6.06511 0
M  V30 1652 C 164.222 1.69789 -6.45545 0
M  V30 1653 H 163.492 0.533206 -0.51456 0
M  V30 1654 H 166.139 0.796901 -1.74131 0
M  V30 1655 H 164.444 3.39503 -1.95563 0
M  V30 1656 H 166.141 3.2669 -2.32539 0
M  V30 1657 H 162.731 2.4595 -3.51008 0
M  V30 1658 H 166.915 2.19082 -4.45328 0
M  V30 1659 H 162.171 1.8546 -5.82593 0
M  V30 1660 H 166.345 1.59572 -6.77872 0
M  V30 1661 H 163.972 1.4222 -7.46778 0
M  V30 1662 N 165.547 1.27147 0.931209 0
M  V30 1663 C 166.772 1.16191 1.71797 0
M  V30 1664 C 167.197 -0.278004 1.86034 0
M  V30 1665 O 166.555 -1.20137 1.35782 0
M  V30 1666 C 166.603 1.84673 3.09723 0
M  V30 1667 O 165.707 1.14231 3.96264 0
M  V30 1668 H 165.048 0.404303 0.526721 0
M  V30 1669 H 167.578 1.68152 1.1656 0
M  V30 1670 H 167.588 1.91893 3.60057 0
M  V30 1671 H 166.263 2.89421 2.98677 0
M  V30 1672 H 164.84 1.15056 3.54706 0
M  V30 1673 N 167.025 -1.13721 1.09112 0
M  V30 1674 C 168.253 -1.88773 0.846899 0
M  V30 1675 C 168.668 -1.7896 -0.601572 0
M  V30 1676 O 168.025 -1.15394 -1.41388 0
M  V30 1677 C 168.076 -3.3849 1.26913 0
M  V30 1678 O 167.797 -3.48043 2.66079 0
M  V30 1679 C 169.298 -4.30518 1.05682 0
M  V30 1680 H 166.518 -0.59772 0.304914 0
M  V30 1681 H 169.062 -1.43977 1.45227 0
M  V30 1682 H 167.217 -3.80881 0.707723 0
M  V30 1683 H 167.631 -4.4109 2.83795 0
M  V30 1684 H 169.105 -5.3391 1.40156 0
M  V30 1685 H 169.582 -4.392 -0.00563416 0
M  V30 1686 H 170.188 -3.93893 1.60402 0
M  V30 1687 N 168.503 -0.877838 -1.30888 0
M  V30 1688 C 169.433 -0.35534 -2.3078 0
M  V30 1689 C 170.414 0.557994 -1.60687 0
M  V30 1690 O 171.599 0.473355 -1.88343 0
M  V30 1691 C 168.729 0.437221 -3.44537 0
M  V30 1692 C 167.683 -0.383715 -4.26276 0
M  V30 1693 C 167.009 0.535014 -5.32017 0
M  V30 1694 C 168.309 -1.62201 -4.96476 0
M  V30 1695 H 170.003 -1.19007 -2.74732 0
M  V30 1696 H 167.549 -0.573698 -1.32078 0
M  V30 1697 H 169.502 0.813334 -4.13477 0
M  V30 1698 H 168.226 1.30553 -2.99372 0
M  V30 1699 H 166.885 -0.741874 -3.59015 0
M  V30 1700 H 166.533 1.40083 -4.831 0
M  V30 1701 H 166.233 -0.0104211 -5.87599 0
M  V30 1702 H 167.757 0.907799 -6.03814 0
M  V30 1703 H 169.171 -1.31689 -5.5797 0
M  V30 1704 H 167.568 -2.10711 -5.61891 0
M  V30 1705 H 168.638 -2.37044 -4.23011 0
M  V30 1706 N 169.982 1.44106 -0.638065 0
M  V30 1707 C 171.212 2.06037 -0.152394 0
M  V30 1708 C 171.62 1.47808 1.18108 0
M  V30 1709 O 170.963 0.598092 1.73691 0
M  V30 1710 C 171.025 3.59488 0.0293714 0
M  V30 1711 C 170.689 4.4022 -1.22702 0
M  V30 1712 C 171.686 4.73256 -2.15232 0
M  V30 1713 C 169.371 4.8048 -1.46437 0
M  V30 1714 C 171.365 5.45444 -3.29802 0
M  V30 1715 C 169.052 5.52417 -2.61303 0
M  V30 1716 C 170.05 5.84819 -3.52811 0
M  V30 1717 O 169.738 6.55289 -4.65673 0
M  V30 1718 H 169.47 0.671233 -0.0801401 0
M  V30 1719 H 172.024 1.85851 -0.874563 0
M  V30 1720 H 170.254 3.78191 0.806758 0
M  V30 1721 H 171.943 4.03164 0.470475 0
M  V30 1722 H 172.709 4.42684 -1.98131 0
M  V30 1723 H 168.588 4.54676 -0.760977 0
M  V30 1724 H 172.132 5.70653 -4.01249 0
M  V30 1725 H 168.029 5.82404 -2.78344 0
M  V30 1726 H 168.797 6.73762 -4.64744 0
M  V30 1727 N 171.46 0.379036 1.52974 0
M  V30 1728 C 172.708 -0.206014 2.01047 0
M  V30 1729 C 173.029 -1.48175 1.26765 0
M  V30 1730 O 172.299 -1.92085 0.384743 0
M  V30 1731 H 170.879 -0.0791184 0.742798 0
M  V30 1732 H 173.541 0.508366 1.88153 0
M  V30 1733 H 172.637 -0.423501 3.09213 0
M  V30 1734 N 172.938 -1.57226 0.108567 0
M  V30 1735 C 174.186 -1.94448 -0.550853 0
M  V30 1736 C 174.507 -0.992074 -1.67878 0
M  V30 1737 O 173.777 -0.0465 -1.95845 0
M  V30 1738 H 172.357 -0.717897 -0.206479 0
M  V30 1739 H 175.019 -1.94112 0.175062 0
M  V30 1740 H 174.115 -2.97218 -0.952259 0
M  V30 1741 N 174.416 0.165178 -1.56732 0
M  V30 1742 C 175.379 1.18822 -1.95995 0
M  V30 1743 C 176.379 1.3685 -0.84431 0
M  V30 1744 O 177.569 1.34152 -1.11126 0
M  V30 1745 C 174.701 2.5521 -2.26011 0
M  V30 1746 H 175.894 0.851825 -2.87548 0
M  V30 1747 H 173.447 0.407857 -1.50885 0
M  V30 1748 H 174.182 2.93852 -1.37191 0
M  V30 1749 H 173.967 2.43489 -3.07336 0
M  V30 1750 H 175.457 3.28927 -2.57288 0
M  V30 1751 N 175.894 1.51508 0.433938 0
M  V30 1752 C 177.122 1.68157 1.20543 0
M  V30 1753 C 177.537 0.380362 1.84929 0
M  V30 1754 O 176.894 -0.641446 1.70856 0
M  V30 1755 C 176.945 2.79965 2.28696 0
M  V30 1756 O 176.666 4.05045 1.66943 0
M  V30 1757 C 178.167 3.07912 3.18912 0
M  V30 1758 H 175.387 0.56421 0.363191 0
M  V30 1759 H 177.931 1.97941 0.513754 0
M  V30 1760 H 176.086 2.5277 2.93574 0
M  V30 1761 H 176.5 4.67165 2.38448 0
M  V30 1762 H 177.974 3.89719 3.90926 0
M  V30 1763 H 178.451 2.20456 3.79863 0
M  V30 1764 H 179.057 3.36779 2.59731 0
M  V30 1765 N 177.372 -0.689602 1.41712 0
M  V30 1766 C 178.62 -1.4468 1.4111 0
M  V30 1767 C 178.941 -1.94986 0.0232196 0
M  V30 1768 O 178.211 -1.72097 -0.935913 0
M  V30 1769 H 176.791 -0.536847 0.519427 0
M  V30 1770 H 179.453 -0.815825 1.77004 0
M  V30 1771 H 178.549 -2.30706 2.10193 0
M  V30 1772 N 178.85 -1.27639 -0.924453 0
M  V30 1773 C 179.782 -1.06442 -2.02985 0
M  V30 1774 C 180.795 -0.0194771 -1.62788 0
M  V30 1775 O 181.984 -0.261388 -1.76576 0
M  V30 1776 C 179.084 -0.59327 -3.33667 0
M  V30 1777 C 178.257 -1.71123 -4.02537 0
M  V30 1778 C 177.316 -1.23527 -5.11495 0
M  V30 1779 O 176.342 -1.93553 -5.35281 0
M  V30 1780 N 177.544 -0.0926678 -5.80426 0
M  V30 1781 H 180.309 -2.01633 -2.2173 0
M  V30 1782 H 177.87 -1.19248 -1.09505 0
M  V30 1783 H 179.862 -0.258686 -4.03872 0
M  V30 1784 H 178.432 0.265502 -3.1147 0
M  V30 1785 H 177.652 -2.21593 -3.26022 0
M  V30 1786 H 178.94 -2.46145 -4.45298 0
M  V30 1787 H 178.338 0.491741 -5.63559 0
M  V30 1788 H 176.895 0.182714 -6.51544 0
M  V30 1789 N 180.328 1.1314 -1.09713 0
M  V30 1790 C 181.261 2.17735 -0.683137 0
M  V30 1791 C 182.239 1.59582 0.311841 0
M  V30 1792 O 183.423 1.87298 0.212514 0
M  V30 1793 C 180.55 3.38699 -0.00684324 0
M  V30 1794 C 179.596 4.1546 -0.964102 0
M  V30 1795 S 180.429 4.74733 -2.47767 0
M  V30 1796 C 181.585 5.9904 -1.81387 0
M  V30 1797 H 181.818 2.52515 -1.56918 0
M  V30 1798 H 179.351 1.24484 -0.913404 0
M  V30 1799 H 181.309 4.08765 0.377044 0
M  V30 1800 H 179.97 3.02214 0.85589 0
M  V30 1801 H 179.163 5.02093 -0.43803 0
M  V30 1802 H 178.765 3.51066 -1.28953 0
M  V30 1803 H 181.057 6.67846 -1.13967 0
M  V30 1804 H 182 6.56261 -2.65947 0
M  V30 1805 H 182.408 5.4976 -1.28155 0
M  V30 1806 N 181.806 0.884767 1.30421 0
M  V30 1807 C 183.054 0.502112 1.95763 0
M  V30 1808 C 183.375 -0.951815 1.70192 0
M  V30 1809 O 182.645 -1.6692 1.0254 0
M  V30 1810 H 181.225 0.182694 0.724315 0
M  V30 1811 H 183.887 1.1278 1.58955 0
M  V30 1812 H 182.983 0.672188 3.04775 0
M  V30 1813 N 183.284 -1.43765 0.645699 0
M  V30 1814 C 184.695 -1.85193 0.236719 0
M  V30 1815 C 185.046 -1.54045 -1.21509 0
M  V30 1816 O 184.171 -0.985694 -1.92647 0
M  V30 1817 C 184.766 -3.36151 0.422845 0
M  V30 1818 C 183.325 -3.76338 0.0682492 0
M  V30 1819 C 182.472 -2.67538 0.729306 0
M  V30 1820 H 185.423 -1.34025 0.849883 0
M  V30 1821 H 185.444 -3.79032 -0.333904 0
M  V30 1822 H 184.956 -3.5879 1.47958 0
M  V30 1823 H 183.057 -3.59312 -0.986179 0
M  V30 1824 H 183.17 -4.76603 0.488469 0
M  V30 1825 H 181.534 -2.54176 0.163235 0
M  V30 1826 H 182.317 -2.93006 1.78892 0
M  V30 1827 N 184.763 -0.387143 -1.52771 0
M  V30 1828 C 185.696 0.493123 -2.22808 0
M  V30 1829 C 186.674 1.0658 -1.22798 0
M  V30 1830 O 187.858 1.11785 -1.51777 0
M  V30 1831 C 184.985 1.68238 -2.93962 0
M  V30 1832 C 184.031 1.23515 -4.08223 0
M  V30 1833 S 184.864 0.21848 -5.35054 0
M  V30 1834 C 186.02 1.41357 -6.09729 0
M  V30 1835 H 186.253 -0.101625 -2.97126 0
M  V30 1836 H 183.786 -0.171323 -1.53447 0
M  V30 1837 H 185.744 2.36443 -3.35567 0
M  V30 1838 H 184.405 2.24842 -2.19328 0
M  V30 1839 H 183.598 2.12304 -4.57103 0
M  V30 1840 H 183.2 0.632044 -3.68621 0
M  V30 1841 H 185.492 2.34101 -6.3577 0
M  V30 1842 H 186.435 0.965736 -7.01484 0
M  V30 1843 H 186.843 1.6294 -5.40473 0
M  V30 1844 N 186.241 1.57166 -0.116904 0
M  V30 1845 C 187.487 1.96206 0.536166 0
M  V30 1846 C 187.842 0.99915 1.64422 0
M  V30 1847 O 187.135 0.0288195 1.91578 0
M  V30 1848 C 187.329 3.39508 1.11664 0
M  V30 1849 C 187.158 4.49651 0.0663474 0
M  V30 1850 C 185.928 5.03982 -0.36474 0
M  V30 1851 C 188.126 5.09322 -0.713829 0
M  V30 1852 N 186.108 5.97699 -1.40102 0
M  V30 1853 C 187.479 5.98963 -1.60136 0
M  V30 1854 C 189.534 4.91989 -0.764948 0
M  V30 1855 C 188.237 6.73128 -2.53556 0
M  V30 1856 C 190.263 5.66833 -1.68685 0
M  V30 1857 C 189.625 6.56158 -2.56196 0
M  V30 1858 H 185.724 0.764203 0.165886 0
M  V30 1859 H 188.308 1.93623 -0.204535 0
M  V30 1860 H 186.479 3.42743 1.82707 0
M  V30 1861 H 188.211 3.65677 1.73386 0
M  V30 1862 H 184.966 4.73592 0.027252 0
M  V30 1863 H 185.39 6.49262 -1.91802 0
M  V30 1864 H 190.032 4.22676 -0.102501 0
M  V30 1865 H 187.75 7.41689 -3.20816 0
M  V30 1866 H 191.336 5.55427 -1.73181 0
M  V30 1867 H 190.216 7.13057 -3.26372 0
M  V30 1868 N 187.719 -0.156864 1.56817 0
M  V30 1869 C 188.967 -0.869404 1.82444 0
M  V30 1870 C 189.288 -1.82147 0.69623 0
M  V30 1871 O 188.558 -1.93847 -0.28287 0
M  V30 1872 H 187.138 -0.324043 0.673056 0
M  V30 1873 H 189.8 -0.153224 1.94297 0
M  V30 1874 H 188.896 -1.43761 2.77019 0
M  V30 1875 N 189.197 -1.51736 -0.425897 0
M  V30 1876 C 190.422 -1.69082 -1.20108 0
M  V30 1877 C 190.847 -0.392398 -1.83962 0
M  V30 1878 O 190.205 0.64858 -1.69302 0
M  V30 1879 C 190.253 -2.81604 -2.25237 0
M  V30 1880 O 189.357 -2.46004 -3.30992 0
M  V30 1881 H 188.698 -0.563408 -0.35138 0
M  V30 1882 H 191.228 -1.98358 -0.501512 0
M  V30 1883 H 191.238 -3.06025 -2.69838 0
M  V30 1884 H 189.913 -3.75817 -1.78142 0
M  V30 1885 H 188.49 -2.32195 -2.91787 0
M  V30 1886 N 190.675 0.682077 -1.42076 0
M  V30 1887 C 191.605 1.80796 -1.47767 0
M  V30 1888 C 192.586 1.6677 -0.334954 0
M  V30 1889 O 193.771 1.863 -0.548264 0
M  V30 1890 C 190.901 3.19038 -1.37229 0
M  V30 1891 C 189.855 3.47789 -2.49453 0
M  V30 1892 C 189.181 4.8553 -2.23975 0
M  V30 1893 C 190.481 3.45411 -3.91776 0
M  V30 1894 H 192.175 1.7629 -2.41997 0
M  V30 1895 H 189.721 0.846721 -1.16476 0
M  V30 1896 H 191.674 3.97528 -1.39821 0
M  V30 1897 H 190.398 3.24204 -0.394907 0
M  V30 1898 H 189.057 2.71657 -2.46166 0
M  V30 1899 H 188.705 4.87337 -1.24547 0
M  V30 1900 H 188.405 5.0573 -2.99184 0
M  V30 1901 H 189.929 5.66312 -2.28304 0
M  V30 1902 H 191.343 4.13882 -3.96705 0
M  V30 1903 H 189.74 3.77145 -4.66778 0
M  V30 1904 H 190.81 2.44122 -4.18966 0
M  V30 1905 N 192.153 1.28127 0.917671 0
M  V30 1906 C 193.381 1.17892 1.70026 0
M  V30 1907 C 193.796 -0.262958 1.8696 0
M  V30 1908 O 193.153 -1.17811 1.3938 0
M  V30 1909 C 193.204 1.86872 3.09453 0
M  V30 1910 O 192.925 3.25428 2.93306 0
M  V30 1911 C 194.426 1.8289 4.03815 0
M  V30 1912 H 191.646 0.40942 0.531617 0
M  V30 1913 H 194.19 1.69181 1.14883 0
M  V30 1914 H 192.345 1.39464 3.61426 0
M  V30 1915 H 192.759 3.59918 3.81523 0
M  V30 1916 H 194.233 2.35751 4.99125 0
M  V30 1917 H 194.71 0.800412 4.31845 0
M  V30 1918 H 195.316 2.29959 3.57769 0
M  V30 1919 N 193.631 -1.12557 1.10312 0
M  V30 1920 C 194.561 -2.20341 0.772798 0
M  V30 1921 C 195.542 -1.68198 -0.25365 0
M  V30 1922 O 196.727 -1.93831 -0.119699 0
M  V30 1923 C 193.857 -3.46709 0.202443 0
M  V30 1924 C 192.811 -4.11996 1.15943 0
M  V30 1925 C 192.137 -5.328 0.450345 0
M  V30 1926 C 193.437 -4.5828 2.50552 0
M  V30 1927 H 195.131 -2.48229 1.674 0
M  V30 1928 H 192.677 -1.19308 0.806326 0
M  V30 1929 H 194.63 -4.2138 -0.0407752 0
M  V30 1930 H 193.354 -3.18245 -0.734001 0
M  V30 1931 H 192.013 -3.39305 1.38808 0
M  V30 1932 H 191.661 -5.00602 -0.490531 0
M  V30 1933 H 191.361 -5.7743 1.08851 0
M  V30 1934 H 192.885 -6.10219 0.215642 0
M  V30 1935 H 194.299 -5.2433 2.31843 0
M  V30 1936 H 192.696 -5.13683 3.10242 0
M  V30 1937 H 193.766 -3.72329 3.10643 0
M  V30 1938 N 195.109 -0.891671 -1.2995 0
M  V30 1939 C 196.386 -0.433307 -1.9074 0
M  V30 1940 C 196.766 1.08646 -1.80995 0
M  V30 1941 O 196.114 1.92476 -1.23147 0
M  V30 1942 C 196.324 -0.938895 -3.36134 0
M  V30 1943 C 197.672 -0.977829 -4.13187 0
M  V30 1944 O 198.696 -0.886015 -3.45005 0
M  V30 1945 O 197.555 -1.11453 -5.35015 0
M  V30 1946 H 194.649 -0.133699 -0.816121 0
M  V30 1947 H 197.195 -0.981011 -1.38471 0
M  V30 1948 H 195.967 -1.98281 -3.37343 0
M  V30 1949 H 195.59 -0.37074 -3.95868 0
M  V30 1950 N 196.587 1.43421 -0.653314 0
M  V30 1951 C 197.497 2.34568 0.0388565 0
M  V30 1952 C 198.513 1.53888 0.81207 0
M  V30 1953 O 199.689 1.86539 0.759294 0
M  V30 1954 C 196.754 3.32167 0.993269 0
M  V30 1955 C 195.815 4.28751 0.216977 0
M  V30 1956 C 195.048 5.21688 1.12593 0
M  V30 1957 O 195.271 5.19052 2.36519 0
M  V30 1958 O 194.205 5.98919 0.598284 0
M  V30 1959 H 198.031 2.95251 -0.711386 0
M  V30 1960 H 195.616 1.43564 -0.413502 0
M  V30 1961 H 197.498 3.92183 1.54176 0
M  V30 1962 H 196.173 2.73987 1.72374 0
M  V30 1963 H 195.08 3.72215 -0.375101 0
M  V30 1964 H 196.413 4.89913 -0.473924 0
M  V30 1965 N 198.065 0.39524 1.52563 0
M  V30 1966 C 198.998 -0.4813 2.23067 0
M  V30 1967 C 199.976 -1.05927 1.23362 0
M  V30 1968 O 201.16 -1.10979 1.52368 0
M  V30 1969 C 198.287 -1.66676 2.9485 0
M  V30 1970 C 197.333 -1.21348 4.08873 0
M  V30 1971 S 198.166 -0.190102 5.35162 0
M  V30 1972 C 199.322 -1.38121 6.1047 0
M  V30 1973 H 199.555 0.117381 2.97068 0
M  V30 1974 H 197.088 0.179458 1.53354 0
M  V30 1975 H 199.046 -2.3466 3.36816 0
M  V30 1976 H 197.707 -2.23676 2.20518 0
M  V30 1977 H 196.9 -2.09877 4.58222 0
M  V30 1978 H 196.502 -0.612486 3.68951 0
M  V30 1979 H 198.794 -2.30726 6.37002 0
M  V30 1980 H 199.737 -0.928521 7.01986 0
M  V30 1981 H 200.145 -1.60071 5.41329 0
M  V30 1982 N 199.544 -1.57102 0.125237 0
M  V30 1983 C 200.474 -2.18659 -0.819174 0
M  V30 1984 C 201.455 -1.12843 -1.27281 0
M  V30 1985 O 202.64 -1.41104 -1.33429 0
M  V30 1986 C 199.77 -2.79096 -2.06695 0
M  V30 1987 C 198.724 -3.90548 -1.75088 0
M  V30 1988 C 198.05 -4.37821 -3.06948 0
M  V30 1989 C 199.35 -5.12356 -1.01435 0
M  V30 1990 H 201.044 -2.9783 -0.306202 0
M  V30 1991 H 198.59 -1.4326 -0.145839 0
M  V30 1992 H 200.543 -3.2082 -2.73226 0
M  V30 1993 H 199.267 -1.97223 -2.60328 0
M  V30 1994 H 197.926 -3.49409 -1.10944 0
M  V30 1995 H 197.574 -3.52799 -3.58527 0
M  V30 1996 H 197.274 -5.12982 -2.86571 0
M  V30 1997 H 198.798 -4.822 -3.74587 0
M  V30 1998 H 200.212 -5.5106 -1.58132 0
M  V30 1999 H 198.609 -5.9314 -0.911319 0
M  V30 2000 H 199.679 -4.849 -0.00218681 0
M  V30 2001 N 201.022 0.148545 -1.56898 0
M  V30 2002 C 202.438 0.501131 -1.51528 0
M  V30 2003 C 202.638 1.83458 -0.833399 0
M  V30 2004 O 201.694 2.49259 -0.40328 0
M  V30 2005 C 203.007 0.512864 -2.96294 0
M  V30 2006 C 204.555 0.598487 -3.07225 0
M  V30 2007 C 205.03 0.640897 -4.53494 0
M  V30 2008 N 206.521 0.703163 -4.57832 0
M  V30 2009 C 207.256 0.756935 -5.68382 0
M  V30 2010 N 206.752 0.770147 -6.88506 0
M  V30 2011 N 208.545 0.797698 -5.56411 0
M  V30 2012 H 200.696 -0.725532 -1.99624 0
M  V30 2013 H 202.959 -0.264358 -0.910395 0
M  V30 2014 H 202.665 -0.398691 -3.49433 0
M  V30 2015 H 202.539 1.35133 -3.52163 0
M  V30 2016 H 204.926 1.50046 -2.54106 0
M  V30 2017 H 205.007 -0.267093 -2.54402 0
M  V30 2018 H 204.651 -0.256915 -5.0725 0
M  V30 2019 H 204.581 1.52295 -5.04097 0
M  V30 2020 H 207.072 0.700314 -3.71354 0
M  V30 2021 H 207.385 0.812983 -7.68512 0
M  V30 2022 H 205.73 0.738049 -6.9107 0
M  V30 2023 H 208.921 0.784535 -4.61479 0
M  V30 2024 H 209.094 0.83614 -6.42583 0
M  V30 2025 N 202.5 1.5196 0.417844 0
M  V30 2026 C 203.728 1.69426 1.18753 0
M  V30 2027 C 204.143 0.399955 1.84515 0
M  V30 2028 O 203.5 -0.623288 1.71527 0
M  V30 2029 C 203.551 2.82375 2.25714 0
M  V30 2030 O 203.272 4.06793 1.62638 0
M  V30 2031 C 204.773 3.11277 3.15628 0
M  V30 2032 H 201.993 0.568031 0.357186 0
M  V30 2033 H 204.537 1.98475 0.49273 0
M  V30 2034 H 202.692 2.5587 2.90877 0
M  V30 2035 H 203.106 4.69667 2.3348 0
M  V30 2036 H 204.58 3.93843 3.86771 0
M  V30 2037 H 205.057 2.24473 3.77503 0
M  V30 2038 H 205.663 3.39515 2.56144 0
M  V30 2039 N 203.978 -0.674533 1.42435 0
M  V30 2040 C 204.911 -1.79924 1.40366 0
M  V30 2041 C 205.889 -1.60378 0.267899 0
M  V30 2042 O 207.073 -1.82847 0.458159 0
M  V30 2043 C 204.2 -3.16927 1.19478 0
M  V30 2044 C 203.246 -3.55221 2.36051 0
M  V30 2045 S 204.079 -3.5762 3.98583 0
M  V30 2046 C 205.235 -4.97315 3.80038 0
M  V30 2047 H 205.468 -1.81405 2.35541 0
M  V30 2048 H 203.001 -0.845221 1.29211 0
M  V30 2049 H 204.959 -3.96007 1.08114 0
M  V30 2050 H 203.62 -3.13031 0.258883 0
M  V30 2051 H 202.813 -4.54804 2.17185 0
M  V30 2052 H 202.415 -2.83502 2.43932 0
M  V30 2053 H 204.707 -5.85401 3.41045 0
M  V30 2054 H 205.65 -5.21228 4.79298 0
M  V30 2055 H 206.058 -4.69845 3.12899 0
M  V30 2056 N 205.456 -1.28612 -0.910864 0
M  V30 2057 C 206.419 -1.12803 -1.9952 0
M  V30 2058 C 207.419 -0.0668264 -1.60661 0
M  V30 2059 O 208.609 -0.312847 -1.71368 0
M  V30 2060 C 205.741 -0.72254 -3.33155 0
M  V30 2061 H 206.934 -2.09109 -2.14973 0
M  V30 2062 H 204.487 -1.11639 -1.09391 0
M  V30 2063 H 205.222 0.241152 -3.23402 0
M  V30 2064 H 205.007 -1.48916 -3.62721 0
M  V30 2065 H 206.497 -0.634666 -4.12749 0
M  V30 2066 N 206.934 1.1197 -1.10907 0
M  V30 2067 C 208.18 1.84059 -0.865674 0
M  V30 2068 C 208.535 1.82731 0.602254 0
M  V30 2069 O 207.828 1.26543 1.43866 0
M  V30 2070 C 208.022 3.30749 -1.35425 0
M  V30 2071 C 207.851 3.46363 -2.86815 0
M  V30 2072 C 206.621 3.59712 -3.54874 0
M  V30 2073 C 208.819 3.41116 -3.84895 0
M  V30 2074 N 206.801 3.63741 -4.94536 0
M  V30 2075 C 208.172 3.51698 -5.10596 0
M  V30 2076 C 210.227 3.24612 -3.77533 0
M  V30 2077 C 208.93 3.4748 -6.29802 0
M  V30 2078 C 210.956 3.21708 -4.96244 0
M  V30 2079 C 210.318 3.32856 -6.20795 0
M  V30 2080 H 206.417 0.689015 -0.369841 0
M  V30 2081 H 209.001 1.34016 -1.41237 0
M  V30 2082 H 207.172 3.79322 -0.834814 0
M  V30 2083 H 208.904 3.90718 -1.05458 0
M  V30 2084 H 205.659 3.62038 -3.05329 0
M  V30 2085 H 206.083 3.69408 -5.67333 0
M  V30 2086 H 210.725 3.14883 -2.8215 0
M  V30 2087 H 208.443 3.55978 -7.25469 0
M  V30 2088 H 212.029 3.10113 -4.92261 0
M  V30 2089 H 210.909 3.3059 -7.11112 0
M  V30 2090 N 208.412 0.89855 1.29475 0
M  V30 2091 C 209.658 0.524658 1.95896 0
M  V30 2092 C 209.991 -0.926468 1.70676 0
M  V30 2093 O 209.266 -1.65665 1.01908 0
M  V30 2094 C 209.549 0.81633 3.50725 0
M  V30 2095 C 209.402 2.31907 3.85408 0
M  V30 2096 C 210.721 0.302038 4.39062 0
M  V30 2097 H 207.84 0.19209 0.711527 0
M  V30 2098 H 210.482 1.12502 1.53112 0
M  V30 2099 H 208.632 0.305369 3.87298 0
M  V30 2100 H 210.304 2.89949 3.58786 0
M  V30 2101 H 208.547 2.78027 3.32992 0
M  V30 2102 H 209.218 2.47373 4.93468 0
M  V30 2103 H 211.694 0.739551 4.09475 0
M  V30 2104 H 210.57 0.535331 5.46283 0
M  V30 2105 H 210.831 -0.797216 4.34853 0
M  V30 2106 N 209.89 -1.43072 0.660911 0
M  V30 2107 C 211.306 -1.56169 0.329173 0
M  V30 2108 C 211.506 -1.64317 -1.16629 0
M  V30 2109 O 210.562 -1.60245 -1.95135 0
M  V30 2110 C 211.875 -2.81873 1.04729 0
M  V30 2111 C 213.423 -2.95627 1.02828 0
M  V30 2112 C 213.898 -4.24174 1.72744 0
M  V30 2113 N 215.389 -4.31055 1.69545 0
M  V30 2114 C 216.124 -5.29304 2.20511 0
M  V30 2115 N 215.62 -6.33786 2.79799 0
M  V30 2116 N 217.413 -5.21008 2.10966 0
M  V30 2117 H 209.564 -1.36027 1.63127 0
M  V30 2118 H 211.827 -0.653823 0.686454 0
M  V30 2119 H 211.533 -2.81942 2.10242 0
M  V30 2120 H 211.407 -3.72338 0.603702 0
M  V30 2121 H 213.794 -2.95094 -0.0184742 0
M  V30 2122 H 213.875 -2.06431 1.51063 0
M  V30 2123 H 213.519 -4.25467 2.7738 0
M  V30 2124 H 213.449 -5.1228 1.2197 0
M  V30 2125 H 215.94 -3.56174 1.26288 0
M  V30 2126 H 216.253 -7.05086 3.16344 0
M  V30 2127 H 214.598 -6.34387 2.83863 0
M  V30 2128 H 217.789 -4.38301 1.64347 0
M  V30 2129 H 217.962 -5.97416 2.50993 0
M  V30 2130 N 211.368 -0.403325 -1.52352 0
M  V30 2131 C 212.318 0.442244 -2.2367 0
M  V30 2132 C 213.302 1.01823 -1.24583 0
M  V30 2133 O 214.494 0.942005 -1.49851 0
M  V30 2134 C 211.623 1.5615 -3.05732 0
M  V30 2135 C 210.709 0.996575 -4.12225 0
M  V30 2136 N 211.1 0.157804 -5.05554 0
M  V30 2137 C 209.398 1.26767 -4.27605 0
M  V30 2138 C 210.099 -0.155853 -5.81491 0
M  V30 2139 N 209.075 0.451775 -5.41719 0
M  V30 2140 H 212.877 -0.204964 -2.93184 0
M  V30 2141 H 210.391 -0.213418 -1.60992 0
M  V30 2142 H 212.388 2.17981 -3.55373 0
M  V30 2143 H 211.048 2.21139 -2.37755 0
M  V30 2144 H 212.059 -0.206049 -5.1749 0
M  V30 2145 H 208.736 1.91757 -3.70858 0
M  V30 2146 H 210.126 -0.836329 -6.66675 0
M  V30 2147 N 212.846 1.57033 -0.133567 0
M  V30 2148 C 213.776 2.1909 0.807567 0
M  V30 2149 C 214.757 1.13517 1.26681 0
M  V30 2150 O 215.942 1.41809 1.32679 0
M  V30 2151 C 213.072 2.80188 2.05212 0
M  V30 2152 C 212.026 3.91471 1.73015 0
M  V30 2153 C 211.352 4.39443 3.04622 0
M  V30 2154 C 212.652 5.12886 0.987168 0
M  V30 2155 H 214.346 2.97988 0.290403 0
M  V30 2156 H 211.892 1.43335 0.138239 0
M  V30 2157 H 213.845 3.22264 2.71521 0
M  V30 2158 H 212.569 1.98601 2.59278 0
M  V30 2159 H 211.228 3.49993 1.0909 0
M  V30 2160 H 210.876 3.54695 3.56651 0
M  V30 2161 H 210.576 5.14495 2.83847 0
M  V30 2162 H 212.1 4.8418 3.72024 0
M  V30 2163 H 213.514 5.51891 1.55208 0
M  V30 2164 H 211.911 5.93615 0.87985 0
M  V30 2165 H 212.981 4.84894 -0.0235286 0
M  V30 2166 N 214.325 -0.140222 1.56975 0
M  V30 2167 C 215.555 -0.865181 1.87612 0
M  V30 2168 C 215.963 -1.74942 0.72055 0
M  V30 2169 O 215.306 -1.80917 -0.318561 0
M  V30 2170 C 215.368 -1.76782 3.13031 0
M  V30 2171 C 215.032 -1.06005 4.44536 0
M  V30 2172 C 216.029 -0.410768 5.18275 0
M  V30 2173 C 213.714 -1.04754 4.91255 0
M  V30 2174 C 215.708 0.241572 6.36942 0
M  V30 2175 C 213.395 -0.391394 6.09845 0
M  V30 2176 C 214.393 0.252029 6.82535 0
M  V30 2177 O 214.081 0.897757 7.98871 0
M  V30 2178 H 213.813 -0.255188 0.625983 0
M  V30 2179 H 216.367 -0.135653 2.04952 0
M  V30 2180 H 214.597 -2.53846 2.91718 0
M  V30 2181 H 216.286 -2.36533 3.29859 0
M  V30 2182 H 217.052 -0.412195 4.83245 0
M  V30 2183 H 212.931 -1.53777 4.34596 0
M  V30 2184 H 216.475 0.744375 6.93617 0
M  V30 2185 H 212.372 -0.387656 6.44335 0
M  V30 2186 H 213.14 0.800102 8.1458 0
M  V30 2187 N 215.803 -1.52179 -0.40978 0
M  V30 2188 C 217.031 -1.70054 -1.17853 0
M  V30 2189 C 217.446 -0.409735 -1.843 0
M  V30 2190 O 216.803 0.614183 -1.71855 0
M  V30 2191 C 216.854 -2.83568 -2.24213 0
M  V30 2192 O 216.575 -4.0765 -1.60478 0
M  V30 2193 C 218.076 -3.12947 -3.13973 0
M  V30 2194 H 215.296 -0.569917 -0.354169 0
M  V30 2195 H 217.84 -1.98734 -0.482198 0
M  V30 2196 H 215.995 -2.57409 -2.89516 0
M  V30 2197 H 216.409 -4.70899 -2.30986 0
M  V30 2198 H 217.883 -3.95889 -3.84677 0
M  V30 2199 H 218.36 -2.26472 -3.76307 0
M  V30 2200 H 218.966 -3.40868 -2.5434 0
M  V30 2201 N 217.281 0.66697 -1.42791 0
M  V30 2202 C 218.529 1.42417 -1.43394 0
M  V30 2203 C 218.85 1.94925 -0.0542373 0
M  V30 2204 O 218.12 1.73564 0.908415 0
M  V30 2205 H 216.7 0.528515 -0.527902 0
M  V30 2206 H 219.362 0.787562 -1.78279 0
M  V30 2207 H 218.458 2.27333 -2.13837 0
M  V30 2208 N 218.759 1.29093 0.90403 0
M  V30 2209 C 220.036 1.075 1.63411 0
M  V30 2210 C 220.416 -0.382346 2.07609 0
M  V30 2211 O 219.764 -1.37031 1.82851 0
M  V30 2212 C 219.974 2.05858 2.81822 0
M  V30 2213 C 221.322 2.36539 3.52611 0
M  V30 2214 O 222.346 2.04019 2.91984 0
M  V30 2215 O 221.205 2.92085 4.61897 0
M  V30 2216 H 218.299 0.411547 0.717327 0
M  V30 2217 H 220.845 1.40449 0.952479 0
M  V30 2218 H 219.617 3.04037 2.46327 0
M  V30 2219 H 219.24 1.73613 3.57693 0
M  V30 2220 N 220.237 -1.11381 1.11499 0
M  V30 2221 C 221.648 -1.6465 0.880191 0
M  V30 2222 C 221.999 -1.87199 -0.587434 0
M  V30 2223 O 221.124 -1.60667 -1.44966 0
M  V30 2224 C 221.719 -2.99105 1.59128 0
M  V30 2225 C 220.278 -3.49279 1.40289 0
M  V30 2226 C 219.425 -2.24077 1.63354 0
M  V30 2227 H 222.376 -0.950123 1.27116 0
M  V30 2228 H 222.397 -3.66107 1.03664 0
M  V30 2229 H 221.909 -2.82661 2.65941 0
M  V30 2230 H 220.01 -3.70887 0.356888 0
M  V30 2231 H 220.123 -4.2803 2.15238 0
M  V30 2232 H 218.487 -2.31733 1.05698 0
M  V30 2233 H 219.27 -2.10175 2.71443 0
M  V30 2234 N 221.715 -0.905404 -1.28997 0
M  V30 2235 C 222.662 -0.385892 -2.27551 0
M  V30 2236 C 223.632 0.535113 -1.57244 0
M  V30 2237 O 224.817 0.459119 -1.85194 0
M  V30 2238 C 221.957 0.375461 -3.43051 0
M  V30 2239 C 221.07 -0.577092 -4.28128 0
M  V30 2240 C 220.205 0.201879 -5.30816 0
M  V30 2241 C 219.244 -0.744829 -6.07551 0
M  V30 2242 N 218.381 9.42587e-05 -7.021 0
M  V30 2243 H 223.221 -1.23139 -2.71368 0
M  V30 2244 H 220.758 -0.618542 -1.33463 0
M  V30 2245 H 222.716 0.832992 -4.088 0
M  V30 2246 H 221.346 1.18537 -3.00248 0
M  V30 2247 H 220.398 -1.15315 -3.62501 0
M  V30 2248 H 221.71 -1.30152 -4.8152 0
M  V30 2249 H 220.864 0.720351 -6.02408 0
M  V30 2250 H 219.603 0.959413 -4.7817 0
M  V30 2251 H 218.608 -1.27475 -5.34818 0
M  V30 2252 H 219.833 -1.50178 -6.62286 0
M  V30 2253 H 217.779 0.739791 -6.51815 0
M  V30 2254 H 217.696 -0.664321 -7.53076 0
M  V30 2255 H 218.964 0.498644 -7.77903 0
M  V30 2256 N 223.193 1.4272 -0.668489 0
M  V30 2257 C 224.47 1.95248 -0.117373 0
M  V30 2258 C 224.85 1.60919 1.36632 0
M  V30 2259 O 224.198 0.902095 2.09939 0
M  V30 2260 C 224.408 3.46927 -0.379806 0
M  V30 2261 C 225.756 4.23588 -0.292923 0
M  V30 2262 O 226.78 3.5482 -0.313204 0
M  V30 2263 O 225.639 5.46017 -0.229697 0
M  V30 2264 H 222.733 0.827 0.00079152 0
M  V30 2265 H 225.279 1.52581 -0.742783 0
M  V30 2266 H 224.051 3.65096 -1.40786 0
M  V30 2267 H 223.674 3.96627 0.277923 0
M  V30 2268 N 224.671 0.411399 1.52136 0
M  V30 2269 C 225.634 -0.401089 2.25663 0
M  V30 2270 C 226.634 -0.971732 1.28117 0
M  V30 2271 O 227.824 -0.850254 1.52041 0
M  V30 2272 C 224.956 -1.56483 3.02863 0
M  V30 2273 H 226.149 0.24295 2.98914 0
M  V30 2274 H 223.702 0.163968 1.55438 0
M  V30 2275 H 224.437 -2.24567 2.33967 0
M  V30 2276 H 224.222 -1.16211 3.74483 0
M  V30 2277 H 225.712 -2.13951 3.58629 0
M  V30 2278 N 226.149 -1.5696 0.141893 0
M  V30 2279 C 227.374 -2.00754 -0.520838 0
M  V30 2280 C 227.799 -1.0213 -1.57959 0
M  V30 2281 O 227.157 0.00371324 -1.813 0
M  V30 2282 C 227.205 -3.43318 -1.10294 0
M  V30 2283 O 226.309 -3.47679 -2.21795 0
M  V30 2284 H 225.65 -0.651564 -0.127908 0
M  V30 2285 H 228.18 -2.03221 0.23712 0
M  V30 2286 H 228.19 -3.82012 -1.43287 0
M  V30 2287 H 226.865 -4.14608 -0.327574 0
M  V30 2288 H 225.442 -3.20824 -1.9007 0
M  V30 2289 N 227.627 0.131896 -1.57047 0
M  V30 2290 C 228.873 0.838268 -1.85323 0
M  V30 2291 C 229.228 1.78098 -0.727937 0
M  V30 2292 O 228.521 1.89645 0.27304 0
M  V30 2293 C 228.715 1.63703 -3.17704 0
M  V30 2294 C 228.544 0.773167 -4.43004 0
M  V30 2295 C 227.314 0.432956 -5.03442 0
M  V30 2296 C 229.512 0.0966216 -5.14209 0
M  V30 2297 N 227.494 -0.442924 -6.123 0
M  V30 2298 C 228.865 -0.638778 -6.16701 0
M  V30 2299 C 230.92 0.018861 -4.97896 0
M  V30 2300 C 229.623 -1.44462 -7.04644 0
M  V30 2301 C 231.649 -0.773762 -5.86316 0
M  V30 2302 C 231.011 -1.4974 -6.883 0
M  V30 2303 H 227.11 0.284086 -0.728573 0
M  V30 2304 H 229.694 0.102731 -1.94429 0
M  V30 2305 H 227.865 2.3437 -3.09718 0
M  V30 2306 H 229.597 2.28774 -3.33833 0
M  V30 2307 H 226.352 0.772237 -4.67262 0
M  V30 2308 H 226.776 -0.872332 -6.71356 0
M  V30 2309 H 231.418 0.56397 -4.19022 0
M  V30 2310 H 229.136 -2.00093 -7.82936 0
M  V30 2311 H 232.722 -0.83612 -5.75761 0
M  V30 2312 H 231.602 -2.10087 -7.55535 0
M  V30 2313 N 229.106 1.52395 0.401703 0
M  V30 2314 C 230.036 1.79231 1.49661 0
M  V30 2315 C 231.017 0.643654 1.57452 0
M  V30 2316 O 232.202 0.889989 1.72606 0
M  V30 2317 C 229.332 1.94971 2.87409 0
M  V30 2318 C 228.286 3.10604 2.94465 0
M  V30 2319 C 227.612 3.11577 4.34538 0
M  V30 2320 C 228.912 4.49921 2.6527 0
M  V30 2321 H 230.606 2.70917 1.27454 0
M  V30 2322 H 228.152 1.30362 0.6117 0
M  V30 2323 H 230.105 2.12328 3.63999 0
M  V30 2324 H 228.829 0.999632 3.10926 0
M  V30 2325 H 227.488 2.93009 2.20321 0
M  V30 2326 H 227.136 2.14277 4.55076 0
M  V30 2327 H 226.836 3.89247 4.40183 0
M  V30 2328 H 228.36 3.31073 5.13053 0
M  V30 2329 H 229.774 4.67683 3.31581 0
M  V30 2330 H 228.171 5.29564 2.82281 0
M  V30 2331 H 229.241 4.57507 1.60671 0
M  V30 2332 N 230.584 -0.659388 1.43143 0
M  V30 2333 C 231.812 -1.44723 1.47861 0
M  V30 2334 C 232.227 -1.88563 0.0945886 0
M  V30 2335 O 231.584 -1.59108 -0.893915 0
M  V30 2336 C 231.635 -2.68627 2.41913 0
M  V30 2337 O 231.356 -2.26623 3.74932 0
M  V30 2338 C 232.857 -3.62045 2.55809 0
M  V30 2339 H 230.077 -0.444801 0.502387 0
M  V30 2340 H 232.621 -0.808916 1.87821 0
M  V30 2341 H 230.776 -3.28613 2.05164 0
M  V30 2342 H 231.19 -3.06745 4.2545 0
M  V30 2343 H 232.664 -4.45666 3.25708 0
M  V30 2344 H 233.141 -4.08981 1.60099 0
M  V30 2345 H 233.747 -3.07944 2.93344 0
M  V30 2346 N 232.062 -1.29571 -0.897171 0
M  V30 2347 C 233.339 -1.08365 -1.62839 0
M  V30 2348 C 233.719 0.371331 -2.07808 0
M  V30 2349 O 233.067 1.3606 -1.83576 0
M  V30 2350 C 233.277 -2.0735 -2.80726 0
M  V30 2351 C 234.625 -2.38406 -3.51351 0
M  V30 2352 O 235.649 -2.05564 -2.90898 0
M  V30 2353 O 234.508 -2.9453 -4.60341 0
M  V30 2354 H 231.602 -0.415345 -0.715134 0
M  V30 2355 H 234.148 -1.40952 -0.945018 0
M  V30 2356 H 232.92 -3.05339 -2.44711 0
M  V30 2357 H 232.543 -1.75507 -3.56767 0
M  V30 2358 N 233.54 1.10788 -1.12088 0
M  V30 2359 C 234.45 2.20599 -0.798338 0
M  V30 2360 C 235.466 1.72712 0.21135 0
M  V30 2361 O 236.642 2.01348 0.0458477 0
M  V30 2362 C 233.707 3.45771 -0.253674 0
M  V30 2363 C 232.768 4.08411 -1.32283 0
M  V30 2364 C 232.001 5.27608 -0.80406 0
M  V30 2365 O 232.224 5.69241 0.363478 0
M  V30 2366 O 231.158 5.8101 -1.57198 0
M  V30 2367 H 234.984 2.50614 -1.7154 0
M  V30 2368 H 232.569 1.19454 -0.897275 0
M  V30 2369 H 234.451 4.21376 0.0453691 0
M  V30 2370 H 233.126 3.1739 0.636005 0
M  V30 2371 H 232.033 3.34507 -1.67499 0
M  V30 2372 H 233.366 4.40986 -2.18614 0
M  V30 2373 N 235.018 0.912232 1.28515 0
M  V30 2374 C 235.95 0.35676 2.26406 0
M  V30 2375 C 236.963 -0.503933 1.54804 0
M  V30 2376 O 238.152 -0.319059 1.75625 0
M  V30 2377 C 235.252 -0.508825 3.35058 0
M  V30 2378 C 234.425 0.329007 4.36161 0
M  V30 2379 C 233.484 -0.471422 5.24084 0
M  V30 2380 O 232.51 0.115482 5.69083 0
M  V30 2381 N 233.712 -1.77479 5.52704 0
M  V30 2382 H 236.477 1.19818 2.74707 0
M  V30 2383 H 234.038 0.778022 1.4198 0
M  V30 2384 H 236.03 -1.051 3.90815 0
M  V30 2385 H 234.6 -1.25095 2.86478 0
M  V30 2386 H 233.82 1.05256 3.79888 0
M  V30 2387 H 235.108 0.90234 5.00735 0
M  V30 2388 H 234.506 -2.27417 5.17975 0
M  V30 2389 H 233.063 -2.26382 6.11224 0
M  V30 2390 N 236.496 -1.42363 0.676048 0
M  V30 2391 C 237.443 -2.308 -0.00150904 0
M  V30 2392 C 238.413 -1.46032 -0.791444 0
M  V30 2393 O 239.598 -1.74861 -0.76344 0
M  V30 2394 C 236.738 -3.31883 -0.945919 0
M  V30 2395 C 235.851 -4.31741 -0.149675 0
M  V30 2396 C 234.986 -5.19898 -1.08995 0
M  V30 2397 C 234.025 -6.11434 -0.285465 0
M  V30 2398 N 233.162 -6.92138 -1.17851 0
M  V30 2399 H 238.002 -2.88187 0.758455 0
M  V30 2400 H 235.539 -1.41952 0.38576 0
M  V30 2401 H 237.497 -3.89019 -1.50731 0
M  V30 2402 H 236.127 -2.76093 -1.6725 0
M  V30 2403 H 235.179 -3.76713 0.528359 0
M  V30 2404 H 236.491 -4.96534 0.474866 0
M  V30 2405 H 235.645 -5.81772 -1.72123 0
M  V30 2406 H 234.384 -4.55284 -1.74837 0
M  V30 2407 H 233.389 -5.48627 0.359018 0
M  V30 2408 H 234.614 -6.78097 0.368883 0
M  V30 2409 H 232.56 -6.30152 -1.82332 0
M  V30 2410 H 232.477 -7.53542 -0.609082 0
M  V30 2411 H 233.745 -7.58499 -1.79722 0
M  V30 2412 N 237.974 -0.419461 -1.51915 0
M  V30 2413 C 238.937 0.389116 -2.25873 0
M  V30 2414 C 239.937 0.964924 -1.28631 0
M  V30 2415 O 241.127 0.842179 -1.52489 0
M  V30 2416 C 238.259 1.54874 -3.03689 0
M  V30 2417 H 239.452 -0.258799 -2.98781 0
M  V30 2418 H 237.005 -0.172209 -1.55348 0
M  V30 2419 H 237.74 2.23323 -2.35154 0
M  V30 2420 H 237.525 1.14223 -3.75094 0
M  V30 2421 H 239.015 2.12046 -3.59759 0
M  V30 2422 N 239.452 1.56882 -0.150215 0
M  V30 2423 C 240.7 1.9584 0.499105 0
M  V30 2424 C 241.021 1.03623 1.65188 0
M  V30 2425 O 240.291 0.0984084 1.95653 0
M  V30 2426 H 238.871 0.723119 0.187373 0
M  V30 2427 H 241.533 1.9358 -0.226466 0
M  V30 2428 H 240.629 2.99638 0.873122 0
M  V30 2429 N 240.93 -0.123565 1.57115 0
M  V30 2430 C 242.177 -0.832153 1.84612 0
M  V30 2431 C 242.505 -1.80093 0.734627 0
M  V30 2432 O 241.76 -1.93766 -0.27442 0
M  V30 2433 C 242.059 -1.62016 3.18568 0
M  V30 2434 C 241.725 -0.796084 4.43817 0
M  V30 2435 C 240.387 -0.568816 4.77826 0
M  V30 2436 C 242.739 -0.221364 5.2073 0
M  V30 2437 C 240.067 0.243499 5.86194 0
M  V30 2438 C 242.419 0.578117 6.29953 0
M  V30 2439 C 241.083 0.815744 6.62497 0
M  V30 2440 H 240.353 -0.304507 0.675542 0
M  V30 2441 H 243 -0.0947248 1.91266 0
M  V30 2442 H 241.305 -2.42837 3.0747 0
M  V30 2443 H 243.002 -2.17231 3.37064 0
M  V30 2444 H 239.592 -0.983307 4.17168 0
M  V30 2445 H 243.776 -0.384173 4.94811 0
M  V30 2446 H 239.032 0.436871 6.09837 0
M  V30 2447 H 243.206 1.03046 6.88734 0
M  V30 2448 H 240.833 1.44701 7.46301 0
M  V30 2449 N 242.408 -1.52605 -0.393616 0
M  V30 2450 C 243.636 -1.71294 -1.16043 0
M  V30 2451 C 244.051 -0.429259 -1.83855 0
M  V30 2452 O 243.408 0.595921 -1.72496 0
M  V30 2453 C 243.459 -2.8593 -2.21193 0
M  V30 2454 O 243.18 -4.09329 -1.56146 0
M  V30 2455 C 244.681 -3.16259 -3.10636 0
M  V30 2456 H 241.901 -0.573641 -0.348104 0
M  V30 2457 H 244.445 -1.99234 -0.461092 0
M  V30 2458 H 242.6 -2.60465 -2.86769 0
M  V30 2459 H 243.014 -4.73323 -2.25978 0
M  V30 2460 H 244.488 -3.99946 -3.80456 0
M  V30 2461 H 244.965 -2.3045 -3.73884 0
M  V30 2462 H 245.571 -3.43547 -2.50711 0
M  V30 2463 N 243.887 0.651787 -1.4349 0
M  V30 2464 C 245.298 1.233 -1.40193 0
M  V30 2465 C 245.649 1.9591 -0.106727 0
M  V30 2466 O 244.774 2.01316 0.793773 0
M  V30 2467 C 245.369 2.24257 -2.53957 0
M  V30 2468 C 243.928 2.77852 -2.5392 0
M  V30 2469 C 243.075 1.52517 -2.3159 0
M  V30 2470 H 246.026 0.443717 -1.52371 0
M  V30 2471 H 246.047 3.0646 -2.25528 0
M  V30 2472 H 245.559 1.71382 -3.4821 0
M  V30 2473 H 243.66 3.34786 -1.63551 0
M  V30 2474 H 243.773 3.25299 -3.51735 0
M  V30 2475 H 242.137 1.79915 -1.80285 0
M  V30 2476 H 242.92 1.01574 -3.27929 0
M  V30 2477 N 245.365 1.30045 0.890287 0
M  V30 2478 C 246.612 1.18561 1.64163 0
M  V30 2479 C 246.94 -0.260852 1.92743 0
M  V30 2480 O 246.195 -1.20376 1.54299 0
M  V30 2481 C 246.494 1.95409 2.99249 0
M  V30 2482 C 246.16 3.45066 2.90242 0
M  V30 2483 C 244.822 3.85878 2.87492 0
M  V30 2484 C 247.174 4.4039 2.78758 0
M  V30 2485 C 244.502 5.20314 2.7109 0
M  V30 2486 C 246.854 5.74928 2.63894 0
M  V30 2487 C 245.518 6.14986 2.59516 0
M  V30 2488 H 244.788 0.433846 0.600715 0
M  V30 2489 H 247.435 1.61088 1.03552 0
M  V30 2490 H 245.74 1.45501 3.63781 0
M  V30 2491 H 247.437 1.8392 3.56334 0
M  V30 2492 H 244.027 3.12631 2.93189 0
M  V30 2493 H 248.211 4.09806 2.79952 0
M  V30 2494 H 243.467 5.50449 2.66112 0
M  V30 2495 H 247.641 6.48434 2.53981 0
M  V30 2496 H 245.268 7.19104 2.46565 0
M  V30 2497 N 246.843 -1.10192 1.12674 0
M  V30 2498 C 247.775 -2.16418 0.754701 0
M  V30 2499 C 248.788 -1.61309 -0.21986 0
M  V30 2500 O 249.977 -1.785 -0.000826841 0
M  V30 2501 C 247.077 -3.38762 0.096698 0
M  V30 2502 C 246.25 -4.23307 1.10136 0
M  V30 2503 C 245.309 -5.24092 0.470513 0
M  V30 2504 O 244.335 -5.57906 1.12824 0
M  V30 2505 N 245.537 -5.75491 -0.760948 0
M  V30 2506 H 248.302 -2.48943 1.66875 0
M  V30 2507 H 245.863 -1.25834 1.01869 0
M  V30 2508 H 247.855 -4.03291 -0.337384 0
M  V30 2509 H 246.425 -3.04192 -0.720153 0
M  V30 2510 H 245.645 -3.55036 1.71299 0
M  V30 2511 H 246.933 -4.76624 1.78064 0
M  V30 2512 H 246.331 -5.50222 -1.31424 0
M  V30 2513 H 244.888 -6.41792 -1.13781 0
M  V30 2514 N 248.321 -0.919034 -1.28029 0
M  V30 2515 C 249.732 -0.600735 -1.76771 0
M  V30 2516 C 250.083 0.884024 -1.75156 0
M  V30 2517 O 249.208 1.69163 -1.34956 0
M  V30 2518 C 249.803 -1.08372 -3.21 0
M  V30 2519 C 248.362 -0.816248 -3.67443 0
M  V30 2520 C 247.509 -1.24742 -2.47658 0
M  V30 2521 H 250.46 -1.09974 -1.14418 0
M  V30 2522 H 250.481 -0.427512 -3.78091 0
M  V30 2523 H 249.993 -2.16437 -3.22144 0
M  V30 2524 H 248.094 0.250968 -3.71754 0
M  V30 2525 H 248.207 -1.4277 -4.57333 0
M  V30 2526 H 246.571 -0.666083 -2.45836 0
M  V30 2527 H 247.354 -2.33653 -2.51518 0
M  V30 2528 N 249.799 1.42003 -0.683588 0
M  V30 2529 C 250.746 2.30798 -0.0107309 0
M  V30 2530 C 251.716 1.4645 0.783688 0
M  V30 2531 O 252.901 1.75263 0.754156 0
M  V30 2532 C 250.041 3.3238 0.928306 0
M  V30 2533 C 249.154 4.31814 0.126776 0
M  V30 2534 C 248.289 5.20468 1.06236 0
M  V30 2535 C 247.328 6.11577 0.253035 0
M  V30 2536 N 246.465 6.92754 1.14179 0
M  V30 2537 H 251.305 2.8778 -0.773727 0
M  V30 2538 H 248.842 1.41745 -0.393283 0
M  V30 2539 H 250.8 3.89813 1.48666 0
M  V30 2540 H 249.43 2.76976 1.65783 0
M  V30 2541 H 248.482 3.76427 -0.54833 0
M  V30 2542 H 249.794 4.96276 -0.501192 0
M  V30 2543 H 248.948 5.82677 1.69035 0
M  V30 2544 H 247.687 4.56204 1.7242 0
M  V30 2545 H 246.692 5.48428 -0.388108 0
M  V30 2546 H 247.917 6.77892 -0.404839 0
M  V30 2547 H 245.863 6.3111 1.78987 0
M  V30 2548 H 245.78 7.53855 0.569111 0
M  V30 2549 H 247.048 7.59441 1.75697 0
M  V30 2550 N 251.277 0.427512 1.51691 0
M  V30 2551 C 252.502 -0.143601 2.06902 0
M  V30 2552 C 252.927 -1.36536 1.29382 0
M  V30 2553 O 252.285 -1.78289 0.329043 0
M  V30 2554 C 252.333 -0.454207 3.57728 0
M  V30 2555 O 251.437 -1.54228 3.82475 0
M  V30 2556 H 250.778 -0.00617128 0.663971 0
M  V30 2557 H 253.308 0.606014 1.95419 0
M  V30 2558 H 253.318 -0.707525 4.01818 0
M  V30 2559 H 251.993 0.438812 4.13579 0
M  V30 2560 H 250.57 -1.2797 3.50254 0
M  V30 2561 N 252.755 -1.56801 0.158532 0
M  V30 2562 C 253.98 -2.01295 -0.499516 0
M  V30 2563 C 254.405 -1.03799 -1.56867 0
M  V30 2564 O 253.763 -0.0155162 -1.81293 0
M  V30 2565 C 253.811 -3.44469 -1.06647 0
M  V30 2566 O 252.915 -3.50012 -2.18095 0
M  V30 2567 H 252.256 -0.652884 -0.12099 0
M  V30 2568 H 254.786 -2.02958 0.258661 0
M  V30 2569 H 254.796 -3.8351 -1.39227 0
M  V30 2570 H 253.471 -4.14932 -0.283581 0
M  V30 2571 H 252.048 -3.22822 -1.86656 0
M  V30 2572 N 254.233 0.115231 -1.57178 0
M  V30 2573 C 255.481 0.820727 -1.84685 0
M  V30 2574 C 255.802 1.80237 -0.744279 0
M  V30 2575 O 255.072 1.94529 0.231375 0
M  V30 2576 H 253.652 0.306084 -0.681411 0
M  V30 2577 H 256.314 0.101656 -1.94635 0
M  V30 2578 H 255.41 1.36366 -2.80733 0
M  V30 2579 N 255.711 1.52812 0.385517 0
M  V30 2580 C 256.621 1.80766 1.49535 0
M  V30 2581 C 257.637 0.694651 1.59532 0
M  V30 2582 O 258.813 0.982611 1.75803 0
M  V30 2583 C 255.878 1.97381 2.85029 0
M  V30 2584 C 254.939 3.21295 2.84724 0
M  V30 2585 C 254.172 3.37108 4.13756 0
M  V30 2586 O 254.395 2.5765 5.08893 0
M  V30 2587 O 253.329 4.30378 4.20783 0
M  V30 2588 H 257.155 2.75015 1.28842 0
M  V30 2589 H 254.74 1.37946 0.573697 0
M  V30 2590 H 256.622 2.09996 3.65349 0
M  V30 2591 H 255.297 1.06322 3.05741 0
M  V30 2592 H 254.204 3.1412 2.03174 0
M  V30 2593 H 255.537 4.12212 2.68965 0
M  V30 2594 N 257.189 -0.644168 1.43834 0
M  V30 2595 C 258.466 -1.40188 1.36406 0
M  V30 2596 C 258.846 -2.11094 0.0163124 0
M  V30 2597 O 258.194 -2.05426 -1.00062 0
M  V30 2598 C 258.404 -2.3791 2.55343 0
M  V30 2599 C 259.752 -3.01637 2.98832 0
M  V30 2600 O 260.776 -2.48237 2.55455 0
M  V30 2601 O 259.635 -3.98477 3.74003 0
M  V30 2602 H 256.729 -0.626773 0.539523 0
M  V30 2603 H 259.275 -0.670317 1.559 0
M  V30 2604 H 258.047 -1.84525 3.4506 0
M  V30 2605 H 257.67 -3.18503 2.37995 0
M  V30 2606 N 258.668 -1.30515 -0.883378 0
M  V30 2607 C 259.6 -1.12846 -1.99496 0
M  V30 2608 C 260.613 -0.0712571 -1.62644 0
M  V30 2609 O 261.802 -0.317432 -1.75655 0
M  V30 2610 C 258.902 -0.699123 -3.3161 0
M  V30 2611 C 258.075 -1.83842 -3.96889 0
M  V30 2612 C 257.134 -1.39737 -5.07307 0
M  V30 2613 O 256.16 -2.10485 -5.28852 0
M  V30 2614 N 257.362 -0.277279 -5.79837 0
M  V30 2615 H 260.127 -2.08585 -2.15203 0
M  V30 2616 H 257.688 -1.22672 -1.05656 0
M  V30 2617 H 259.68 -0.387044 -4.02845 0
M  V30 2618 H 258.25 0.166276 -3.12157 0
M  V30 2619 H 257.47 -2.31853 -3.18807 0
M  V30 2620 H 258.758 -2.60187 -4.37241 0
M  V30 2621 H 258.156 0.3122 -5.64838 0
M  V30 2622 H 256.713 -0.0246623 -6.51795 0
M  V30 2623 N 260.146 1.09593 -1.13257 0
M  V30 2624 C 261.371 1.8604 -0.916732 0
M  V30 2625 C 261.796 1.80504 0.529146 0
M  V30 2626 O 261.154 1.18127 1.37534 0
M  V30 2627 C 261.202 3.32017 -1.40703 0
M  V30 2628 O 260.306 4.08141 -0.591153 0
M  V30 2629 H 259.647 0.576943 -0.328683 0
M  V30 2630 H 262.177 1.38405 -1.50682 0
M  V30 2631 H 262.187 3.82865 -1.4099 0
M  V30 2632 H 260.862 3.35361 -2.45979 0
M  V30 2633 H 259.439 3.67084 -0.656005 0
M  V30 2634 O 261.663 1.05716 1.22092 0
M  V30 2635 H 262.354 0.735773 1.79182 0
M  V30 END ATOM
M  V30 BEGIN BOND
M  V30 END BOND
M  V30 END CTAB
M  END
$$$$
