drugbank_target|P29972 Aquaporin-1 (DB00819; DB02451; DB09338)
 OpenBabel12092119423D

  0  0  0     0  0            999 V3000
M  V30 BEGIN CTAB
M  V30 COUNTS 4066 4103 0 0 0
M  V30 BEGIN ATOM
M  V30 1 H -0.908 1.98254 -0.117106 0
M  V30 2 N 0 1.576 0 0
M  V30 3 C 0.933 2.03868 1.02534 0
M  V30 4 C 1.911 0.928543 1.3348 0
M  V30 5 O 3.095 1.19667 1.45644 0
M  V30 6 C 0.222 2.43627 2.35294 0
M  V30 7 C -0.732 3.65373 2.2001 0
M  V30 8 S 0.101 5.13292 1.52614 0
M  V30 9 C 1.257 5.56322 2.86805 0
M  V30 10 H 1.49 2.90518 0.631377 0
M  V30 11 H -0.977 1.52953 0.210867 0
M  V30 12 H 0.981 2.67203 3.11629 0
M  V30 13 H -0.358 1.57376 2.7183 0
M  V30 14 H -1.165 3.90944 3.18086 0
M  V30 15 H -1.563 3.418 1.51819 0
M  V30 16 H 0.729 5.58782 3.83104 0
M  V30 17 H 1.672 6.56266 2.65933 0
M  V30 18 H 2.08 4.83886 2.90714 0
M  V30 19 N 1.4781 -0.272755 1.55222 0
M  V30 20 C 2.4411 -1.32041 1.87344 0
M  V30 21 C 3.4411 -1.42342 0.74803 0
M  V30 22 O 4.6311 -1.41488 1.0162 0
M  V30 23 C 1.7631 -2.70173 2.07893 0
M  V30 24 H 2.9561 -1.04789 2.80997 0
M  V30 25 H 0.5091 -0.51083 1.47717 0
M  V30 26 H 1.2441 -3.02605 1.16622 0
M  V30 27 H 1.0291 -2.64082 2.89833 0
M  V30 28 H 2.5191 -3.45869 2.34017 0
M  V30 29 N 2.9562 -1.48159 -0.537278 0
M  V30 30 C 4.1812 -1.59707 -1.32319 0
M  V30 31 C 4.6062 -0.254859 -1.86365 0
M  V30 32 O 3.9642 0.772378 -1.64024 0
M  V30 33 C 4.0122 -2.6412 -2.45505 0
M  V30 34 O 3.1162 -2.20774 -3.48328 0
M  V30 35 H 2.4572 -0.535791 -0.392204 0
M  V30 36 H 4.9872 -1.94092 -0.647268 0
M  V30 37 H 4.9972 -2.85166 -2.91795 0
M  V30 38 H 3.6722 -3.61567 -2.05528 0
M  V30 39 H 2.2492 -2.09911 -3.08207 0
M  V30 40 N 4.4343 0.785586 -1.36625 0
M  V30 41 C 5.3443 1.92964 -1.33425 0
M  V30 42 C 6.3603 1.72394 -0.235851 0
M  V30 43 O 7.5363 1.95866 -0.468878 0
M  V30 44 C 4.6013 3.27884 -1.12662 0
M  V30 45 C 3.6623 3.61204 -2.32013 0
M  V30 46 C 2.8953 4.89687 -2.12231 0
M  V30 47 O 3.1183 5.59704 -1.09945 0
M  V30 48 O 2.0523 5.21752 -3.00098 0
M  V30 49 H 5.8783 1.98613 -2.29753 0
M  V30 50 H 3.4633 0.926384 -1.17211 0
M  V30 51 H 5.3453 4.08614 -1.03016 0
M  V30 52 H 4.0203 3.23118 -0.193991 0
M  V30 53 H 2.9273 2.80765 -2.47228 0
M  V30 54 H 4.2603 3.70698 -3.23796 0
M  V30 55 N 5.9124 1.20967 1.01018 0
M  V30 56 C 7.1594 1.02374 1.74716 0
M  V30 57 C 7.4874 -0.443375 1.89379 0
M  V30 58 O 6.7424 -1.34535 1.42123 0
M  V30 59 C 7.0414 1.65997 3.16512 0
M  V30 60 C 6.7074 3.15831 3.2181 0
M  V30 61 C 5.3694 3.56719 3.22963 0
M  V30 62 C 7.7214 4.11816 3.19464 0
M  V30 63 C 5.0494 4.92107 3.19449 0
M  V30 64 C 7.4014 5.47158 3.17491 0
M  V30 65 C 6.0654 5.87451 3.16951 0
M  V30 66 H 5.3354 0.374614 0.639332 0
M  V30 67 H 7.9824 1.50485 1.18434 0
M  V30 68 H 6.2874 1.10166 3.75993 0
M  V30 69 H 7.9844 1.49119 3.72242 0
M  V30 70 H 4.5744 2.83263 3.21652 0
M  V30 71 H 8.7584 3.81257 3.17737 0
M  V30 72 H 4.0144 5.22579 3.17366 0
M  V30 73 H 8.1884 6.21274 3.14629 0
M  V30 74 H 5.8154 6.92329 3.13983 0
M  V30 75 N 7.3905 -1.2043 1.01659 0
M  V30 76 C 8.3375 -2.23215 0.586822 0
M  V30 77 C 9.3075 -1.61382 -0.393085 0
M  V30 78 O 10.4925 -1.88544 -0.292525 0
M  V30 79 C 7.6325 -3.45032 -0.0687464 0
M  V30 80 C 6.7455 -4.21296 0.955724 0
M  V30 81 C 5.8805 -5.30507 0.271208 0
M  V30 82 C 4.9195 -5.98515 1.28244 0
M  V30 83 N 4.0565 -6.99316 0.62459 0
M  V30 84 H 8.8965 -2.59336 1.46796 0
M  V30 85 H 6.4335 -1.27431 0.734836 0
M  V30 86 H 8.3915 -4.1459 -0.465965 0
M  V30 87 H 7.0215 -3.09604 -0.913529 0
M  V30 88 H 6.0735 -3.50803 1.4711 0
M  V30 89 H 7.3855 -4.6803 1.72479 0
M  V30 90 H 6.5395 -6.06428 -0.18151 0
M  V30 91 H 5.2785 -4.8481 -0.530163 0
M  V30 92 H 4.2835 -5.21355 1.74554 0
M  V30 93 H 5.5085 -6.46298 2.08509 0
M  V30 94 H 3.4545 -6.55812 -0.156914 0
M  V30 95 H 3.3715 -7.44178 1.33172 0
M  V30 96 H 4.6395 -7.79255 0.195462 0
M  V30 97 N 8.8686 -0.792821 -1.36206 0
M  V30 98 C 9.8156 -0.191653 -2.30003 0
M  V30 99 C 10.7856 0.666453 -1.52143 0
M  V30 100 O 11.9706 0.61442 -1.80636 0
M  V30 101 C 9.1106 0.664848 -3.38635 0
M  V30 102 C 8.2236 -0.212175 -4.31479 0
M  V30 103 C 7.3586 0.651022 -5.27196 0
M  V30 104 C 6.3976 -0.227247 -6.11678 0
M  V30 105 N 5.5346 0.595127 -6.99573 0
M  V30 106 H 10.3746 -0.996978 -2.80828 0
M  V30 107 H 7.9116 -0.503206 -1.38225 0
M  V30 108 H 9.8696 1.17645 -4.00269 0
M  V30 109 H 8.4996 1.43557 -2.89122 0
M  V30 110 H 7.5516 -0.841777 -3.70969 0
M  V30 111 H 8.8636 -0.888751 -4.90818 0
M  V30 112 H 8.0176 1.2283 -5.94136 0
M  V30 113 H 6.7566 1.36121 -4.68319 0
M  V30 114 H 5.7616 -0.816904 -5.43697 0
M  V30 115 H 6.9866 -0.93509 -6.72631 0
M  V30 116 H 4.9326 1.28955 -6.432 0
M  V30 117 H 4.8496 -0.0236952 -7.55996 0
M  V30 118 H 6.1176 1.15613 -7.70879 0
M  V30 119 N 10.3467 1.47872 -0.545128 0
M  V30 120 C 11.2937 2.29849 0.2093 0
M  V30 121 C 12.2637 1.38313 0.919707 0
M  V30 122 O 13.4487 1.67277 0.917772 0
M  V30 123 C 10.5887 3.22019 1.24088 0
M  V30 124 C 9.7017 4.2864 0.537778 0
M  V30 125 C 8.8367 5.07973 1.5536 0
M  V30 126 C 7.8757 6.06381 0.8348 0
M  V30 127 N 7.0127 6.78717 1.79688 0
M  V30 128 H 11.8527 2.93845 -0.49591 0
M  V30 129 H 9.3897 1.44848 -0.256389 0
M  V30 130 H 11.3477 3.73868 1.85144 0
M  V30 131 H 9.9777 2.59914 1.91428 0
M  V30 132 H 9.0297 3.7994 -0.187046 0
M  V30 133 H 10.3417 4.98793 -0.0258907 0
M  V30 134 H 9.4957 5.63912 2.23803 0
M  V30 135 H 8.2347 4.37693 2.15118 0
M  V30 136 H 7.2397 5.49631 0.136388 0
M  V30 137 H 8.4647 6.78665 0.24313 0
M  V30 138 H 6.4107 6.11177 2.38326 0
M  V30 139 H 6.3277 7.44998 1.28505 0
M  V30 140 H 7.5957 7.39237 2.47282 0
M  V30 141 N 11.8248 0.280983 1.55075 0
M  V30 142 C 12.7548 -0.597469 2.25727 0
M  V30 143 C 13.7358 -1.15417 1.24952 0
M  V30 144 O 14.9208 -1.18722 1.53684 0
M  V30 145 C 12.0508 -1.7789 2.98283 0
M  V30 146 C 11.0048 -1.35347 4.06036 0
M  V30 147 C 10.3308 -2.61846 4.66198 0
M  V30 148 C 11.6308 -0.499354 5.19907 0
M  V30 149 H 13.3248 -0.00824265 2.99399 0
M  V30 150 H 10.8708 -0.0025244 1.44 0
M  V30 151 H 12.8238 -2.39937 3.46422 0
M  V30 152 H 11.5478 -2.39405 2.22155 0
M  V30 153 H 10.2068 -0.756156 3.58717 0
M  V30 154 H 9.8548 -3.21632 3.86732 0
M  V30 155 H 9.5548 -2.3409 5.38958 0
M  V30 156 H 11.0788 -3.24732 5.1709 0
M  V30 157 H 12.4928 -1.02498 5.64063 0
M  V30 158 H 10.8898 -0.316424 5.99265 0
M  V30 159 H 11.9598 0.480459 4.82514 0
M  V30 160 N 13.3029 -1.57598 0.00835791 0
M  V30 161 C 14.5499 -1.90928 -0.674732 0
M  V30 162 C 14.8779 -0.88277 -1.73313 0
M  V30 163 O 14.1329 0.111294 -1.95383 0
M  V30 164 C 14.4319 -3.3101 -1.34787 0
M  V30 165 C 14.0979 -4.48922 -0.421861 0
M  V30 166 C 12.7599 -4.8091 -0.166927 0
M  V30 167 C 15.1119 -5.20755 0.215211 0
M  V30 168 C 12.4399 -5.821 0.733232 0
M  V30 169 C 14.7919 -6.22905 1.1033 0
M  V30 170 C 13.4559 -6.53346 1.36733 0
M  V30 171 H 12.7259 -0.698656 -0.246902 0
M  V30 172 H 15.3729 -1.91387 0.0656779 0
M  V30 173 H 13.6779 -3.26714 -2.16253 0
M  V30 174 H 15.3749 -3.54061 -1.8826 0
M  V30 175 H 11.9649 -4.23934 -0.630729 0
M  V30 176 H 16.1489 -4.9629 0.0312829 0
M  V30 177 H 11.4049 -6.04042 0.945712 0
M  V30 178 H 15.5789 -6.77694 1.60325 0
M  V30 179 H 13.2059 -7.31573 2.06652 0
M  V30 180 N 14.781 0.264519 -1.55364 0
M  V30 181 C 16.027 0.992314 -1.77552 0
M  V30 182 C 16.382 1.83626 -0.574379 0
M  V30 183 O 15.675 1.86648 0.432782 0
M  V30 184 C 15.869 1.9004 -3.02687 0
M  V30 185 C 15.698 1.14583 -4.34857 0
M  V30 186 C 14.468 0.858068 -4.97961 0
M  V30 187 C 16.666 0.532069 -5.1154 0
M  V30 188 N 14.648 0.0775974 -6.13851 0
M  V30 189 C 16.019 -0.113823 -6.19896 0
M  V30 190 C 18.074 0.440763 -4.95945 0
M  V30 191 C 16.777 -0.842231 -7.14352 0
M  V30 192 C 18.803 -0.274072 -5.90765 0
M  V30 193 C 18.165 -0.90867 -6.98515 0
M  V30 194 H 14.264 0.344811 -0.701875 0
M  V30 195 H 16.848 0.267141 -1.92859 0
M  V30 196 H 15.019 2.59775 -2.88741 0
M  V30 197 H 16.751 2.56243 -3.13243 0
M  V30 198 H 13.506 1.16547 -4.59036 0
M  V30 199 H 13.93 -0.300216 -6.76334 0
M  V30 200 H 18.572 0.917064 -4.12735 0
M  V30 201 H 16.29 -1.33019 -7.97077 0
M  V30 202 H 19.876 -0.345151 -5.80775 0
M  V30 203 H 18.756 -1.45299 -7.70622 0
M  V30 204 N 16.2591 1.48442 0.529413 0
M  V30 205 C 17.6751 1.34575 0.858004 0
M  V30 206 C 17.8751 0.3572 1.98309 0
M  V30 207 O 16.9311 -0.221379 2.51528 0
M  V30 208 C 18.2441 2.74617 1.22499 0
M  V30 209 C 19.7921 2.83109 1.33484 0
M  V30 210 C 20.2671 4.23854 1.73526 0
M  V30 211 N 21.7581 4.2653 1.80628 0
M  V30 212 C 22.4931 5.32372 2.12997 0
M  V30 213 N 21.9891 6.48491 2.43786 0
M  V30 214 N 23.7821 5.19766 2.14008 0
M  V30 215 H 15.9331 2.1133 -0.212925 0
M  V30 216 H 18.1961 0.947439 -0.0326199 0
M  V30 217 H 17.9021 3.4852 0.471905 0
M  V30 218 H 17.7761 3.08177 2.17501 0
M  V30 219 H 20.1631 2.09462 2.0787 0
M  V30 220 H 20.2441 2.53168 0.366027 0
M  V30 221 H 19.8881 4.98018 0.997013 0
M  V30 222 H 19.8181 4.5124 2.71459 0
M  V30 223 H 22.3091 3.42772 1.59108 0
M  V30 224 H 22.6221 7.24993 2.67592 0
M  V30 225 H 20.9671 6.51765 2.41304 0
M  V30 226 H 24.1581 4.28066 1.89412 0
M  V30 227 H 24.3311 6.02354 2.38902 0
M  V30 228 N 17.7372 -0.778329 1.37039 0
M  V30 229 C 18.7002 -1.87301 1.32102 0
M  V30 230 C 19.7002 -1.59198 0.226405 0
M  V30 231 O 20.8902 -1.67403 0.481861 0
M  V30 232 C 18.0222 -3.24309 1.05055 0
M  V30 233 H 19.2152 -1.93093 2.29467 0
M  V30 234 H 16.7682 -0.977358 1.21973 0
M  V30 235 H 17.5032 -3.24196 0.0819373 0
M  V30 236 H 17.2882 -3.46098 1.84279 0
M  V30 237 H 18.7782 -4.04382 1.04234 0
M  V30 238 N 19.2153 -1.21501 -1.00376 0
M  V30 239 C 20.4613 -1.03452 -1.74429 0
M  V30 240 C 20.7943 0.430764 -1.89362 0
M  V30 241 O 20.0693 1.31962 -1.42886 0
M  V30 242 C 20.3523 -1.73375 -3.15615 0
M  V30 243 C 20.2053 -3.27431 -3.08397 0
M  V30 244 C 21.5243 -1.47732 -4.14564 0
M  V30 245 H 18.6433 -0.377226 -0.633143 0
M  V30 246 H 21.2853 -1.49693 -1.17013 0
M  V30 247 H 19.4353 -1.34064 -3.64636 0
M  V30 248 H 21.1073 -3.76119 -2.67081 0
M  V30 249 H 19.3503 -3.5767 -2.45468 0
M  V30 250 H 20.0213 -3.71524 -4.08258 0
M  V30 251 H 22.4973 -1.8186 -3.74254 0
M  V30 252 H 21.3733 -1.99169 -5.11491 0
M  V30 253 H 21.6343 -0.407589 -4.40217 0
M  V30 254 N 20.6934 1.19889 -1.02296 0
M  V30 255 C 21.9394 1.89701 -0.717033 0
M  V30 256 C 22.2724 1.7905 0.751989 0
M  V30 257 O 21.5474 1.17891 1.547 0
M  V30 258 C 21.8304 3.40858 -1.16136 0
M  V30 259 C 21.6834 3.60411 -2.69117 0
M  V30 260 C 23.0024 4.33876 -0.737549 0
M  V30 261 H 20.1214 0.688874 -0.261957 0
M  V30 262 H 22.7634 1.41154 -1.27183 0
M  V30 263 H 20.9134 3.82335 -0.689342 0
M  V30 264 H 22.5854 3.28145 -3.2422 0
M  V30 265 H 20.8284 3.03665 -3.0979 0
M  V30 266 H 21.4994 4.66396 -2.95261 0
M  V30 267 H 23.9754 4.00081 -1.14344 0
M  V30 268 H 22.8514 5.38242 -1.0764 0
M  V30 269 H 23.1124 4.40628 0.360436 0
M  V30 270 N 22.1715 0.800033 1.35784 0
M  V30 271 C 23.1345 0.211565 2.28221 0
M  V30 272 C 24.1345 -0.59728 1.49296 0
M  V30 273 O 25.3245 -0.416721 1.69142 0
M  V30 274 C 22.4565 -0.705846 3.33513 0
M  V30 275 H 23.6495 1.02677 2.81776 0
M  V30 276 H 21.2025 0.570211 1.45528 0
M  V30 277 H 21.9375 -1.54498 2.85133 0
M  V30 278 H 21.7225 -0.127655 3.91892 0
M  V30 279 H 23.2125 -1.11211 4.02519 0
M  V30 280 N 23.6496 -1.47581 0.552962 0
M  V30 281 C 24.5596 -2.33743 -0.200353 0
M  V30 282 C 25.5756 -1.47928 -0.916151 0
M  V30 283 O 26.7516 -1.80865 -0.885993 0
M  V30 284 C 23.8166 -3.24536 -1.21973 0
M  V30 285 C 22.8776 -4.26238 -0.511819 0
M  V30 286 C 22.1106 -5.12693 -1.48263 0
M  V30 287 O 22.3336 -5.01525 -2.71714 0
M  V30 288 O 21.2676 -5.93375 -1.00945 0
M  V30 289 H 25.0936 -2.9945 0.506304 0
M  V30 290 H 22.6786 -1.46071 0.313622 0
M  V30 291 H 24.5606 -3.80631 -1.80827 0
M  V30 292 H 23.2356 -2.61462 -1.90839 0
M  V30 293 H 22.1426 -3.73914 0.117799 0
M  V30 294 H 23.4756 -4.92014 0.135308 0
M  V30 295 N 25.1277 -0.289203 -1.54924 0
M  V30 296 C 26.3747 0.323519 -1.99899 0
M  V30 297 C 26.7027 1.54797 -1.17762 0
M  V30 298 O 25.9577 1.94237 -0.238835 0
M  V30 299 C 26.2567 0.736119 -3.49737 0
M  V30 300 C 25.9227 -0.385276 -4.49251 0
M  V30 301 C 24.5847 -0.693156 -4.76181 0
M  V30 302 C 26.9367 -1.14021 -5.08575 0
M  V30 303 C 24.2647 -1.7593 -5.59701 0
M  V30 304 C 26.6167 -2.19619 -5.93254 0
M  V30 305 C 25.2807 -2.51026 -6.185 0
M  V30 306 H 24.5507 0.118384 -0.731482 0
M  V30 307 H 27.1977 -0.405847 -1.8715 0
M  V30 308 H 25.5027 1.54539 -3.60035 0
M  V30 309 H 27.1997 1.22118 -3.81953 0
M  V30 310 H 23.7897 -0.135202 -4.28387 0
M  V30 311 H 27.9737 -0.915611 -4.87781 0
M  V30 312 H 23.2297 -2.0075 -5.77503 0
M  V30 313 H 27.4037 -2.78581 -6.38252 0
M  V30 314 H 25.0307 -3.33772 -6.83008 0
M  V30 315 N 26.6058 1.57591 -0.0167156 0
M  V30 316 C 27.5358 2.12496 0.967858 0
M  V30 317 C 28.5168 1.03807 1.34752 0
M  V30 318 O 29.7018 1.31577 1.42833 0
M  V30 319 C 26.8318 2.64194 2.25431 0
M  V30 320 C 25.7858 3.77559 2.01576 0
M  V30 321 C 25.1118 4.15636 3.36379 0
M  V30 322 C 26.4118 5.04151 1.36489 0
M  V30 323 H 28.1058 2.95013 0.510643 0
M  V30 324 H 25.6518 1.41915 0.244181 0
M  V30 325 H 27.6048 3.01236 2.94678 0
M  V30 326 H 26.3288 1.78821 2.73296 0
M  V30 327 H 24.9878 3.40937 1.34751 0
M  V30 328 H 24.6358 3.27263 3.81979 0
M  V30 329 H 24.3358 4.92022 3.21229 0
M  V30 330 H 25.8598 4.5525 4.06915 0
M  V30 331 H 27.2738 5.38857 1.95718 0
M  V30 332 H 25.6708 5.85453 1.31776 0
M  V30 333 H 26.7408 4.83733 0.336219 0
M  V30 334 N 28.0839 -0.256276 1.55502 0
M  V30 335 C 29.0469 -1.30047 1.88734 0
M  V30 336 C 30.0469 -1.4154 0.763086 0
M  V30 337 O 31.2369 -1.40403 1.03115 0
M  V30 338 C 28.3689 -2.67953 2.10747 0
M  V30 339 H 29.5619 -1.01802 2.82093 0
M  V30 340 H 27.1149 -0.495134 1.4825 0
M  V30 341 H 27.8499 -3.01351 1.19825 0
M  V30 342 H 27.6349 -2.60993 2.92617 0
M  V30 343 H 29.1249 -3.43368 2.37673 0
M  V30 344 N 29.562 -1.4872 -0.521534 0
M  V30 345 C 30.79 -1.60843 -1.30142 0
M  V30 346 C 31.205 -0.271897 -1.86832 0
M  V30 347 O 30.562 0.739969 -1.66825 0
M  V30 348 C 30.613 -2.66155 -2.4463 0
M  V30 349 O 30.334 -3.94623 -1.90275 0
M  V30 350 C 31.835 -2.88795 -3.36322 0
M  V30 351 H 29.055 -0.542075 -0.395468 0
M  V30 352 H 31.599 -1.94609 -0.628285 0
M  V30 353 H 29.754 -2.35224 -3.07812 0
M  V30 354 H 30.168 -4.52468 -2.65279 0
M  V30 355 H 31.642 -3.66264 -4.12983 0
M  V30 356 H 32.119 -1.97934 -3.9207 0
M  V30 357 H 32.725 -3.21063 -2.78924 0
M  V30 358 N 31.0401 0.771051 -1.3745 0
M  V30 359 C 32.2681 1.56015 -1.35893 0
M  V30 360 C 32.6831 1.88718 0.0555523 0
M  V30 361 O 32.0401 1.51502 1.01752 0
M  V30 362 C 32.0911 2.87001 -2.19801 0
M  V30 363 O 31.8121 2.557 -3.55738 0
M  V30 364 C 33.3131 3.81228 -2.26231 0
M  V30 365 H 30.5331 0.483317 -0.465453 0
M  V30 366 H 33.0771 0.955611 -1.80799 0
M  V30 367 H 31.2321 3.43877 -1.78402 0
M  V30 368 H 31.6461 3.39584 -3.99729 0
M  V30 369 H 33.1201 4.70139 -2.89263 0
M  V30 370 H 33.5971 4.20409 -1.27093 0
M  V30 371 H 34.2031 3.30281 -2.67945 0
M  V30 372 N 32.5182 1.22032 0.997298 0
M  V30 373 C 33.4482 1.01065 2.10495 0
M  V30 374 C 34.4292 -0.0669542 1.69968 0
M  V30 375 O 35.6142 0.0943987 1.9397 0
M  V30 376 C 32.7442 0.582874 3.42374 0
M  V30 377 C 31.6982 1.60592 3.96729 0
M  V30 378 C 31.0242 1.03412 5.24605 0
M  V30 379 C 32.3242 2.99478 4.27914 0
M  V30 380 H 34.0182 1.93708 2.28292 0
M  V30 381 H 31.5642 0.932761 1.09707 0
M  V30 382 H 33.5172 0.423332 4.19268 0
M  V30 383 H 32.2412 -0.379213 3.24391 0
M  V30 384 H 30.9002 1.75316 3.21963 0
M  V30 385 H 30.5482 0.063518 5.0296 0
M  V30 386 H 30.2482 1.71754 5.61938 0
M  V30 387 H 31.7722 0.886066 6.04137 0
M  V30 388 H 33.1862 2.88153 4.95622 0
M  V30 389 H 31.5832 3.64903 4.76409 0
M  V30 390 H 32.6532 3.49742 3.3587 0
M  V30 391 N 33.9963 -1.19345 1.0293 0
M  V30 392 C 35.2433 -1.89038 0.726008 0
M  V30 393 C 35.5713 -1.79649 -0.745427 0
M  V30 394 O 34.8263 -1.18354 -1.55855 0
M  V30 395 C 35.1253 -3.39292 1.12319 0
M  V30 396 C 34.7913 -3.68885 2.59297 0
M  V30 397 C 33.4533 -3.76671 2.99453 0
M  V30 398 C 35.8053 -3.82178 3.54386 0
M  V30 399 C 33.1333 -3.9522 4.33611 0
M  V30 400 C 35.4853 -4.0224 4.88248 0
M  V30 401 C 34.1493 -4.08259 5.28092 0
M  V30 402 H 33.4193 -0.691739 0.265665 0
M  V30 403 H 36.0663 -1.41328 1.29223 0
M  V30 404 H 34.3713 -3.88903 0.475584 0
M  V30 405 H 36.0683 -3.91536 0.866037 0
M  V30 406 H 32.6583 -3.63433 2.27189 0
M  V30 407 H 36.8423 -3.75505 3.24514 0
M  V30 408 H 32.0983 -3.98119 4.64016 0
M  V30 409 H 36.2723 -4.11468 5.61843 0
M  V30 410 H 33.8993 -4.22384 6.32057 0
M  V30 411 N 35.4744 -0.807222 -1.35358 0
M  V30 412 C 36.7204 -0.388463 -1.99045 0
M  V30 413 C 37.0534 1.04184 -1.63888 0
M  V30 414 O 36.3284 1.72292 -0.902535 0
M  V30 415 C 36.6114 -0.572783 -3.55515 0
M  V30 416 C 36.4644 -2.04807 -4.00468 0
M  V30 417 C 37.7834 0.00114064 -4.401 0
M  V30 418 H 34.9024 -0.142619 -0.723069 0
M  V30 419 H 37.5444 -1.01687 -1.60498 0
M  V30 420 H 35.6944 -0.0378425 -3.88482 0
M  V30 421 H 37.3664 -2.64544 -3.77908 0
M  V30 422 H 35.6094 -2.54427 -3.51353 0
M  V30 423 H 36.2804 -2.12792 -5.09337 0
M  V30 424 H 38.7564 -0.455716 -4.13597 0
M  V30 425 H 37.6324 -0.157737 -5.48673 0
M  V30 426 H 37.8934 1.09488 -4.28328 0
M  V30 427 N 36.9525 1.47285 -0.560781 0
M  V30 428 C 38.1995 2.02464 -0.038062 0
M  V30 429 C 38.5275 1.43474 1.31322 0
M  V30 430 O 37.7825 0.581311 1.86867 0
M  V30 431 C 38.0815 3.57258 0.100784 0
M  V30 432 C 37.7475 4.35184 -1.18007 0
M  V30 433 C 36.4095 4.56194 -1.53103 0
M  V30 434 C 38.7615 4.80098 -2.02867 0
M  V30 435 C 36.0895 5.19367 -2.729 0
M  V30 436 C 38.4415 5.44593 -3.21871 0
M  V30 437 C 37.1055 5.63835 -3.57276 0
M  V30 438 H 36.3755 0.740869 -0.0139279 0
M  V30 439 H 39.0225 1.76916 -0.733012 0
M  V30 440 H 37.3275 3.81819 0.878724 0
M  V30 441 H 39.0245 3.97606 0.520639 0
M  V30 442 H 35.6145 4.19113 -0.8968 0
M  V30 443 H 39.7985 4.63642 -1.7706 0
M  V30 444 H 35.0545 5.32459 -3.00496 0
M  V30 445 H 39.2285 5.78358 -3.87911 0
M  V30 446 H 36.8555 6.12557 -4.50197 0
M  V30 447 N 38.4306 0.297415 1.54768 0
M  V30 448 C 39.6796 -0.313669 1.99246 0
M  V30 449 C 39.9926 -1.55281 1.18942 0
M  V30 450 O 41.1986 -2.23825 1.5367 0
M  V30 451 C 39.6546 -0.609407 3.54703 0
M  V30 452 C 39.2626 0.611192 4.43811 0
M  V30 453 C 41.0066 -1.18188 4.07715 0
M  V30 454 C 38.9136 0.288805 5.90694 0
M  V30 455 H 37.8436 -0.120979 0.744231 0
M  V30 456 H 40.4946 0.40556 1.78962 0
M  V30 457 H 38.8766 -1.38813 3.70873 0
M  V30 458 H 40.0506 1.3875 4.39414 0
M  V30 459 H 38.3656 1.10205 4.01552 0
M  V30 460 H 40.9626 -1.43727 5.15021 0
M  V30 461 H 41.3056 -2.12299 3.58099 0
M  V30 462 H 41.8386 -0.464944 3.95074 0
M  V30 463 H 38.5776 1.19838 6.44453 0
M  V30 464 H 38.0976 -0.450305 5.98107 0
M  V30 465 H 39.7766 -0.110933 6.46905 0
M  V30 466 N 39.9087 -1.5758 0.0250728 0
M  V30 467 C 41.1337 -1.96337 -0.668317 0
M  V30 468 C 41.5587 -0.901314 -1.651 0
M  V30 469 O 40.9167 0.138187 -1.80773 0
M  V30 470 C 40.9647 -3.34191 -1.35457 0
M  V30 471 O 40.0687 -3.30269 -2.46974 0
M  V30 472 H 39.4097 -0.640281 -0.175887 0
M  V30 473 H 41.9397 -2.0442 0.0857224 0
M  V30 474 H 41.9497 -3.70331 -1.71228 0
M  V30 475 H 40.6247 -4.11036 -0.634218 0
M  V30 476 H 39.2017 -3.05841 -2.13344 0
M  V30 477 N 41.3868 0.248026 -1.55636 0
M  V30 478 C 42.6358 0.974134 -1.76617 0
M  V30 479 C 42.9488 1.86528 -0.588796 0
M  V30 480 O 44.1548 2.62805 -0.681594 0
M  V30 481 C 42.6108 1.78213 -3.12679 0
M  V30 482 C 42.2188 0.93843 -4.38061 0
M  V30 483 C 43.9628 2.50104 -3.42999 0
M  V30 484 C 41.8698 1.74225 -5.65155 0
M  V30 485 H 40.7998 0.36745 -0.658405 0
M  V30 486 H 43.4508 0.22884 -1.82067 0
M  V30 487 H 41.8328 2.56933 -3.01333 0
M  V30 488 H 43.0068 0.193635 -4.60393 0
M  V30 489 H 41.3218 0.332905 -4.15067 0
M  V30 490 H 43.9188 3.10694 -4.3517 0
M  V30 491 H 44.2618 3.21662 -2.64271 0
M  V30 492 H 44.7948 1.78395 -3.55556 0
M  V30 493 H 41.5338 1.07043 -6.46701 0
M  V30 494 H 41.0538 2.46235 -5.46926 0
M  V30 495 H 42.7328 2.30967 -6.0437 0
M  V30 496 N 42.8649 1.48995 0.513639 0
M  V30 497 C 44.1129 1.57531 1.26604 0
M  V30 498 C 44.4339 0.258236 1.93283 0
M  V30 499 O 43.7039 -0.721502 1.8213 0
M  V30 500 H 42.2839 0.580387 0.470276 0
M  V30 501 H 44.9459 1.85552 0.596373 0
M  V30 502 H 44.0419 2.36486 2.03669 0
M  V30 503 N 44.343 -0.763751 1.37857 0
M  V30 504 C 45.568 -1.55805 1.36893 0
M  V30 505 C 45.993 -1.88054 -0.0416135 0
M  V30 506 O 45.351 -1.49825 -1.02089 0
M  V30 507 C 45.399 -2.84012 2.22192 0
M  V30 508 O 44.503 -3.78732 1.63204 0
M  V30 509 H 43.844 -0.471638 0.46739 0
M  V30 510 H 46.374 -0.944657 1.81487 0
M  V30 511 H 46.384 -3.33037 2.35691 0
M  V30 512 H 45.059 -2.59869 3.24716 0
M  V30 513 H 43.636 -3.37402 1.58791 0
M  V30 514 N 45.8211 -1.22559 -0.990812 0
M  V30 515 C 46.7841 -0.998863 -2.0629 0
M  V30 516 C 47.7841 0.0354834 -1.60761 0
M  V30 517 O 48.9741 -0.203231 -1.7301 0
M  V30 518 C 46.1061 -0.509203 -3.37076 0
M  V30 519 H 47.2991 -1.95014 -2.27837 0
M  V30 520 H 44.8521 -1.04456 -1.16269 0
M  V30 521 H 45.5871 0.446335 -3.21214 0
M  V30 522 H 45.3721 -1.25547 -3.71457 0
M  V30 523 H 46.8621 -0.370888 -4.1595 0
M  V30 524 N 47.2992 1.18797 -1.03562 0
M  V30 525 C 48.2292 2.24472 -0.643019 0
M  V30 526 C 49.2102 1.66433 0.351283 0
M  V30 527 O 50.3952 1.92803 0.232505 0
M  V30 528 C 47.5252 3.473 4.24935e-05 0
M  V30 529 C 46.4792 4.18055 -0.917257 0
M  V30 530 C 45.8052 5.34519 -0.138941 0
M  V30 531 C 47.1052 4.72109 -2.23407 0
M  V30 532 H 48.7992 2.57566 -1.52643 0
M  V30 533 H 46.3452 1.23806 -0.735394 0
M  V30 534 H 48.2982 4.20426 0.286383 0
M  V30 535 H 47.0222 3.13424 0.918299 0
M  V30 536 H 45.6812 3.46821 -1.1879 0
M  V30 537 H 45.3292 4.96891 0.781562 0
M  V30 538 H 45.0292 5.82794 -0.750005 0
M  V30 539 H 46.5532 6.10438 0.1405 0
M  V30 540 H 47.9672 5.36955 -2.00879 0
M  V30 541 H 46.3642 5.30897 -2.79765 0
M  V30 542 H 47.4342 3.89807 -2.88407 0
M  V30 543 N 48.7773 0.814389 1.34928 0
M  V30 544 C 50.0253 0.397636 1.9815 0
M  V30 545 C 50.3463 -1.04069 1.64908 0
M  V30 546 O 49.6163 -1.72121 0.93548 0
M  V30 547 H 48.1963 0.144043 0.732981 0
M  V30 548 H 50.8583 1.04195 1.6471 0
M  V30 549 H 49.9543 0.509688 3.0791 0
M  V30 550 N 50.2554 -1.46986 0.568584 0
M  V30 551 C 51.5024 -2.02441 0.0487986 0
M  V30 552 C 51.8304 -1.44169 -1.30559 0
M  V30 553 O 51.0854 -0.591213 -1.86556 0
M  V30 554 C 51.3844 -3.57306 -0.081836 0
M  V30 555 C 51.0504 -4.34552 1.20313 0
M  V30 556 C 49.7124 -4.55376 1.5552 0
M  V30 557 C 52.0644 -4.79016 2.05411 0
M  V30 558 C 49.3924 -5.17913 2.7565 0
M  V30 559 C 51.7444 -5.42879 3.24754 0
M  V30 560 C 50.4084 -5.61933 3.60261 0
M  V30 561 H 49.6784 -0.740785 0.0178567 0
M  V30 562 H 52.3254 -1.76525 0.742384 0
M  V30 563 H 50.6304 -3.8228 -0.858463 0
M  V30 564 H 52.3274 -3.97876 -0.499546 0
M  V30 565 H 48.9174 -4.18631 0.919014 0
M  V30 566 H 53.1014 -4.62696 1.79516 0
M  V30 567 H 48.3574 -5.30858 3.03315 0
M  V30 568 H 52.5314 -5.76293 3.90973 0
M  V30 569 H 50.1584 -6.10161 4.53439 0
M  V30 570 N 51.7335 -0.305618 -1.54608 0
M  V30 571 C 52.6805 0.568421 -2.23691 0
M  V30 572 C 53.6505 1.12592 -1.22116 0
M  V30 573 O 54.8355 1.16959 -1.50749 0
M  V30 574 C 51.9755 1.7322 -2.98477 0
M  V30 575 C 51.0885 1.20566 -4.14835 0
M  V30 576 C 50.2235 2.33368 -4.77193 0
M  V30 577 C 49.2625 1.7787 -5.85686 0
M  V30 578 N 48.3995 2.84263 -6.4198 0
M  V30 579 H 53.2395 -0.0272867 -2.97988 0
M  V30 580 H 50.7765 -0.0252363 -1.47078 0
M  V30 581 H 52.7345 2.41675 -3.40072 0
M  V30 582 H 51.3645 2.29947 -2.26548 0
M  V30 583 H 50.4165 0.413223 -3.78149 0
M  V30 584 H 51.7285 0.759417 -4.92985 0
M  V30 585 H 50.8825 3.09761 -5.21664 0
M  V30 586 H 49.6215 2.8132 -3.98385 0
M  V30 587 H 48.6265 0.99968 -5.40635 0
M  V30 588 H 49.8515 1.30816 -6.66381 0
M  V30 589 H 47.7975 3.31541 -5.66053 0
M  V30 590 H 47.7145 2.44149 -7.15491 0
M  V30 591 H 48.9825 3.6054 -6.91109 0
M  V30 592 N 53.2116 1.57565 -0.0334293 0
M  V30 593 C 54.4416 1.95996 0.653398 0
M  V30 594 C 54.8496 0.908749 1.65947 0
M  V30 595 O 54.1926 -0.117471 1.83324 0
M  V30 596 C 54.2546 3.30589 1.41249 0
M  V30 597 C 53.9186 4.53503 0.564263 0
M  V30 598 C 54.9156 5.19647 -0.16225 0
M  V30 599 C 52.6006 4.99801 0.500398 0
M  V30 600 C 54.5946 6.30412 -0.941255 0
M  V30 601 C 52.2816 6.10448 -0.282308 0
M  V30 602 C 53.2796 6.75612 -1.00184 0
M  V30 603 O 52.9676 7.84134 -1.77171 0
M  V30 604 H 52.6996 0.65027 0.184728 0
M  V30 605 H 55.2536 2.05199 -0.0907841 0
M  V30 606 H 53.4836 3.17888 2.20191 0
M  V30 607 H 55.1726 3.53892 1.98784 0
M  V30 608 H 55.9386 4.84846 -0.12227 0
M  V30 609 H 51.8176 4.48883 1.05002 0
M  V30 610 H 55.3616 6.81208 -1.50339 0
M  V30 611 H 51.2586 6.44686 -0.323989 0
M  V30 612 H 52.0266 8.00822 -1.69194 0
M  V30 613 N 54.6897 -0.239769 1.55765 0
M  V30 614 C 56.1007 -0.808263 1.68297 0
M  V30 615 C 56.4517 -1.85736 0.632181 0
M  V30 616 O 55.5767 -2.15277 -0.220204 0
M  V30 617 C 56.1717 -1.47284 3.05111 0
M  V30 618 C 54.7307 -1.98895 3.19559 0
M  V30 619 C 53.8777 -0.842575 2.64189 0
M  V30 620 H 56.8287 -0.0154422 1.58692 0
M  V30 621 H 56.8497 -2.34111 2.99954 0
M  V30 622 H 56.3617 -0.709053 3.81568 0
M  V30 623 H 54.4627 -2.78132 2.47938 0
M  V30 624 H 54.5757 -2.18143 4.26556 0
M  V30 625 H 52.9397 -1.24501 2.22197 0
M  V30 626 H 53.7227 -0.0917552 3.43177 0
M  V30 627 N 56.1678 -1.49265 -0.50573 0
M  V30 628 C 57.4138 -1.58748 -1.26202 0
M  V30 629 C 57.7468 -0.271227 -1.92297 0
M  V30 630 O 57.0218 0.724831 -1.80489 0
M  V30 631 C 57.3048 -2.74332 -2.33268 0
M  V30 632 C 57.1578 -4.15737 -1.71705 0
M  V30 633 C 58.4768 -2.85576 -3.34865 0
M  V30 634 H 55.5958 -0.577826 -0.457478 0
M  V30 635 H 58.2378 -1.81532 -0.560897 0
M  V30 636 H 56.3878 -2.55036 -2.93068 0
M  V30 637 H 58.0598 -4.46537 -1.15769 0
M  V30 638 H 56.3028 -4.21605 -1.02135 0
M  V30 639 H 56.9738 -4.92477 -2.49341 0
M  V30 640 H 59.4498 -3.03127 -2.8505 0
M  V30 641 H 58.3258 -3.68135 -4.07146 0
M  V30 642 H 58.5868 -1.94732 -3.96903 0
M  V30 643 N 57.6459 0.756429 -1.3826 0
M  V30 644 C 58.8939 1.51248 -1.34047 0
M  V30 645 C 59.2149 1.94875 0.0698372 0
M  V30 646 O 58.4849 1.67436 1.01696 0
M  V30 647 H 57.0649 0.561018 -0.493222 0
M  V30 648 H 59.7269 0.899347 -1.7291 0
M  V30 649 H 58.8229 2.40472 -1.98947 0
M  V30 650 N 59.124 1.23083 0.984299 0
M  V30 651 C 60.072 1.00593 2.09723 0
M  V30 652 C 61.066 -0.0538014 1.69315 0
M  V30 653 O 62.272 0.0993719 1.79725 0
M  V30 654 H 58.647 0.30817 0.685956 0
M  V30 655 H 60.618 1.95012 2.2586 0
M  V30 656 C 59.367 0.609601 3.42314 0
M  V30 657 H 58.69 1.41675 3.73856 0
M  V30 658 H 60.13 0.491726 4.21139 0
M  V30 659 C 58.589 -0.681745 3.2993 0
M  V30 660 O 59.119 -1.73192 3.62446 0
M  V30 661 N 57.325 -0.656178 2.83095 0
M  V30 662 H 56.872 0.198759 2.56832 0
M  V30 663 H 56.83 -1.52044 2.75191 0
M  V30 664 N 60.6021 -1.18246 1.0419 0
M  V30 665 C 61.5501 -2.23968 0.627792 0
M  V30 666 C 62.5441 -1.65828 -0.346019 0
M  V30 667 O 63.7501 -1.78733 -0.213175 0
M  V30 668 H 60.1251 -0.728939 0.184802 0
M  V30 669 H 62.0961 -2.56202 1.52981 0
M  V30 670 C 60.8451 -3.47699 0.00796591 0
M  V30 671 H 60.1681 -3.92734 0.748347 0
M  V30 672 H 61.6081 -4.23294 -0.24455 0
M  V30 673 C 60.0671 -3.13153 -1.24246 0
M  V30 674 O 60.5971 -3.27003 -2.33307 0
M  V30 675 N 58.8031 -2.67467 -1.13622 0
M  V30 676 H 58.3501 -2.56396 -0.248734 0
M  V30 677 H 58.3081 -2.44724 -1.97377 0
M  V30 678 N 62.0802 -0.821533 -1.34494 0
M  V30 679 C 63.0122 -0.199946 -2.28326 0
M  V30 680 C 64.0252 0.609377 -1.50965 0
M  V30 681 O 65.2142 0.439285 -1.7301 0
M  V30 682 C 62.3142 0.738431 -3.30757 0
M  V30 683 C 61.4872 -0.0277632 -4.37391 0
M  V30 684 C 60.5462 0.831332 -5.19591 0
M  V30 685 O 59.5722 0.276822 -5.68526 0
M  V30 686 N 60.7742 2.15132 -5.39165 0
M  V30 687 H 63.5392 -1.00609 -2.82308 0
M  V30 688 H 61.1002 -0.678366 -1.47003 0
M  V30 689 H 63.0922 1.31773 -3.82646 0
M  V30 690 H 61.6622 1.44533 -2.7718 0
M  V30 691 H 60.8822 -0.788359 -3.86236 0
M  V30 692 H 62.1702 -0.555251 -5.05761 0
M  V30 693 H 61.5682 2.62559 -5.01078 0
M  V30 694 H 60.1252 2.6795 -5.94177 0
M  V30 695 N 63.5583 1.46682 -0.576371 0
M  V30 696 C 64.7863 2.06798 -0.0649635 0
M  V30 697 C 65.2013 1.42612 1.23723 0
M  V30 698 O 64.5583 0.529203 1.74659 0
M  V30 699 C 64.6093 3.6132 0.114202 0
M  V30 700 O 64.3303 4.23104 -1.13644 0
M  V30 701 C 65.8313 4.38349 0.66069 0
M  V30 702 H 63.0513 0.668778 -0.0545616 0
M  V30 703 H 65.5953 1.88404 -0.795237 0
M  V30 704 H 63.7503 3.79162 0.794673 0
M  V30 705 H 64.1643 5.15894 -0.946253 0
M  V30 706 H 65.6383 5.47081 0.73526 0
M  V30 707 H 66.1153 4.05953 1.67627 0
M  V30 708 H 66.7213 4.25297 0.0152951 0
M  V30 709 N 65.0364 0.313813 1.54444 0
M  V30 710 C 65.9994 -0.54379 2.22656 0
M  V30 711 C 66.9994 -1.05124 1.21678 0
M  V30 712 O 68.1894 -0.945225 1.46325 0
M  V30 713 C 65.3214 -1.75427 2.92298 0
M  V30 714 H 66.5144 0.0523599 2.99854 0
M  V30 715 H 64.0674 0.0647834 1.56166 0
M  V30 716 H 64.8024 -2.38991 2.19211 0
M  V30 717 H 64.5874 -1.39791 3.66334 0
M  V30 718 H 66.0774 -2.36325 3.44297 0
M  V30 719 N 66.5145 -1.57545 0.0417849 0
M  V30 720 C 67.7605 -1.92601 -0.635021 0
M  V30 721 C 68.0935 -0.919627 -1.71045 0
M  V30 722 O 67.3685 0.0557892 -1.9442 0
M  V30 723 C 67.6515 -3.38085 -1.23979 0
M  V30 724 C 67.5045 -4.49467 -0.173057 0
M  V30 725 C 68.8235 -3.83776 -2.15416 0
M  V30 726 H 65.9425 -0.700397 -0.229374 0
M  V30 727 H 68.5845 -1.89728 0.101633 0
M  V30 728 H 66.7345 -3.40664 -1.86762 0
M  V30 729 H 68.4065 -4.59018 0.458312 0
M  V30 730 H 66.6495 -4.30909 0.499996 0
M  V30 731 H 67.3205 -5.48323 -0.636054 0
M  V30 732 H 69.7965 -3.83013 -1.62605 0
M  V30 733 H 68.6725 -4.8624 -2.54679 0
M  V30 734 H 68.9335 -3.19998 -3.05047 0
M  V30 735 N 67.9926 0.231505 -1.5589 0
M  V30 736 C 68.9246 1.31006 -1.8807 0
M  V30 737 C 69.9376 1.43539 -0.768145 0
M  V30 738 O 71.1266 1.44614 -1.04638 0
M  V30 739 C 68.2266 2.68688 -2.06543 0
M  V30 740 C 67.3996 2.78228 -3.37502 0
M  V30 741 C 66.4586 3.96857 -3.4553 0
M  V30 742 O 65.4846 3.85662 -4.18633 0
M  V30 743 N 66.6866 5.1072 -2.75944 0
M  V30 744 H 69.4516 1.03731 -2.81176 0
M  V30 745 H 67.0126 0.421573 -1.56315 0
M  V30 746 H 69.0046 3.46412 -2.09239 0
M  V30 747 H 67.5746 2.88605 -1.20109 0
M  V30 748 H 66.7946 1.87059 -3.46991 0
M  V30 749 H 68.0826 2.81564 -4.23791 0
M  V30 750 H 67.4806 5.2271 -2.16311 0
M  V30 751 H 66.0376 5.86523 -2.84314 0
M  V30 752 N 69.4707 1.49531 0.497807 0
M  V30 753 C 70.7477 1.49682 1.25915 0
M  V30 754 C 71.1277 0.226339 2.09883 0
M  V30 755 O 70.4757 -0.791189 2.14365 0
M  V30 756 C 70.6857 2.77755 2.11313 0
M  V30 757 C 72.0337 3.27371 2.70395 0
M  V30 758 O 73.0577 2.78894 2.21578 0
M  V30 759 O 71.9167 4.11808 3.59272 0
M  V30 760 H 69.0107 0.599228 0.56996 0
M  V30 761 H 71.5567 1.61798 0.511816 0
M  V30 762 H 70.3287 3.61713 1.49264 0
M  V30 763 H 69.9517 2.68515 2.93233 0
M  V30 764 N 70.9488 -0.749086 1.3866 0
M  V30 765 C 71.8968 -1.88428 1.36373 0
M  V30 766 C 72.8908 -1.67561 0.248929 0
M  V30 767 O 74.0968 -1.75074 0.41821 0
M  V30 768 H 70.4718 -0.620023 0.42553 0
M  V30 769 H 72.4428 -1.87473 2.32156 0
M  V30 770 C 71.1918 -3.25961 1.21014 0
M  V30 771 H 70.5148 -3.42607 2.06059 0
M  V30 772 H 71.9548 -4.05625 1.23469 0
M  V30 773 C 70.4138 -3.36799 -0.0825941 0
M  V30 774 O 70.9438 -3.87517 -1.05797 0
M  V30 775 N 69.1498 -2.90258 -0.140939 0
M  V30 776 H 68.6968 -2.49174 0.653477 0
M  V30 777 H 68.6548 -2.97889 -1.00545 0
M  V30 778 N 72.4269 -1.23603 -0.977757 0
M  V30 779 C 73.6729 -1.07129 -1.72195 0
M  V30 780 C 74.0059 0.390501 -1.90233 0
M  V30 781 O 73.2809 1.28902 -1.45653 0
M  V30 782 C 73.5639 -1.80031 -3.11867 0
M  V30 783 C 73.4169 -3.33899 -3.01383 0
M  V30 784 C 74.7359 -1.56492 -4.11337 0
M  V30 785 H 71.8549 -0.390571 -0.624999 0
M  V30 786 H 74.4969 -1.52142 -1.13811 0
M  V30 787 H 72.6469 -1.41768 -3.6171 0
M  V30 788 H 74.3189 -3.81699 -2.59043 0
M  V30 789 H 72.5619 -3.62796 -2.37827 0
M  V30 790 H 73.2329 -3.801 -4.00285 0
M  V30 791 H 75.7089 -1.89757 -3.70313 0
M  V30 792 H 74.5849 -2.09973 -5.07151 0
M  V30 793 H 74.8459 -0.500874 -4.39254 0
M  V30 794 N 73.905 1.17692 -1.04816 0
M  V30 795 C 74.852 2.21581 -0.645797 0
M  V30 796 C 75.822 1.62367 0.350159 0
M  V30 797 O 77.007 1.89254 0.242433 0
M  V30 798 C 74.147 3.45092 -0.0227568 0
M  V30 799 C 73.26 4.18613 -1.06709 0
M  V30 800 C 72.395 5.29602 -0.411767 0
M  V30 801 C 71.434 5.94904 -1.44067 0
M  V30 802 N 70.571 6.97414 -0.809781 0
M  V30 803 H 75.411 2.55353 -1.5362 0
M  V30 804 H 72.948 1.25438 -0.768364 0
M  V30 805 H 74.906 4.15679 0.35588 0
M  V30 806 H 73.536 3.11917 0.831122 0
M  V30 807 H 72.588 3.46779 -1.5636 0
M  V30 808 H 73.9 4.63293 -1.84827 0
M  V30 809 H 73.054 6.06696 0.0206623 0
M  V30 810 H 71.793 4.86045 0.401438 0
M  V30 811 H 70.798 5.16544 -1.88316 0
M  V30 812 H 72.023 6.40542 -2.25571 0
M  V30 813 H 69.969 6.55998 -0.0170186 0
M  V30 814 H 69.886 7.40386 -1.52856 0
M  V30 815 H 71.154 7.78463 -0.401999 0
M  V30 816 N 75.3831 0.828654 1.34056 0
M  V30 817 C 76.6291 0.42008 1.98402 0
M  V30 818 C 76.9621 -1.01564 1.65525 0
M  V30 819 O 76.2371 -1.70834 0.929831 0
M  V30 820 C 76.5201 0.62927 3.54559 0
M  V30 821 C 76.3731 2.11152 3.97159 0
M  V30 822 C 77.6921 0.0688756 4.40046 0
M  V30 823 H 74.8111 0.154104 0.720709 0
M  V30 824 H 77.4531 1.04228 1.5886 0
M  V30 825 H 75.6031 0.0996418 3.88372 0
M  V30 826 H 77.2751 2.70522 3.73651 0
M  V30 827 H 75.5181 2.59985 3.47261 0
M  V30 828 H 76.1891 2.20868 5.05887 0
M  V30 829 H 78.6651 0.521458 4.1282 0
M  V30 830 H 77.5411 0.245006 5.48353 0
M  V30 831 H 77.8021 -1.0266 4.30015 0
M  V30 832 N 76.8612 -1.46375 0.584142 0
M  V30 833 C 78.0862 -2.07268 0.0740405 0
M  V30 834 C 78.5112 -1.42979 -1.22223 0
M  V30 835 O 77.8692 -0.514092 -1.73859 0
M  V30 836 C 77.9172 -3.60518 -0.0767769 0
M  V30 837 O 77.0212 -3.96533 -1.13292 0
M  V30 838 H 76.3622 -0.660961 0.0634524 0
M  V30 839 H 78.8922 -1.87991 0.807492 0
M  V30 840 H 78.9022 -4.07021 -0.282489 0
M  V30 841 H 77.5772 -4.06702 0.86986 0
M  V30 842 H 76.1542 -3.61738 -0.905553 0
M  V30 843 N 78.3393 -0.321999 -1.54275 0
M  V30 844 C 79.2693 0.537411 -2.27231 0
M  V30 845 C 80.2503 1.12064 -1.27968 0
M  V30 846 O 81.4353 1.14606 -1.56777 0
M  V30 847 C 78.5653 1.69919 -3.02894 0
M  V30 848 C 77.5193 1.24534 -4.09482 0
M  V30 849 C 76.8453 2.49394 -4.72977 0
M  V30 850 C 78.1453 0.361335 -5.21049 0
M  V30 851 H 79.8393 -0.0711406 -2.99315 0
M  V30 852 H 77.3853 -0.0356555 -1.43956 0
M  V30 853 H 79.3383 2.30668 -3.52662 0
M  V30 854 H 78.0623 2.33431 -2.28424 0
M  V30 855 H 76.7213 0.660782 -3.60596 0
M  V30 856 H 76.3693 3.11265 -3.95124 0
M  V30 857 H 76.0693 2.19718 -5.44975 0
M  V30 858 H 77.5933 3.10908 -5.25517 0
M  V30 859 H 79.0073 0.875072 -5.66582 0
M  V30 860 H 77.4043 0.157428 -5.99893 0
M  V30 861 H 78.4743 -0.60822 -4.8107 0
M  V30 862 N 79.8174 1.5752 -0.0501392 0
M  V30 863 C 80.7804 2.1037 0.909786 0
M  V30 864 C 81.7804 1.02308 1.24056 0
M  V30 865 O 82.9704 1.28385 1.17741 0
M  V30 866 C 80.1024 2.58708 2.21998 0
M  V30 867 H 81.2954 2.96479 0.451665 0
M  V30 868 H 78.8484 1.55038 0.198248 0
M  V30 869 H 79.5834 1.75989 2.72394 0
M  V30 870 H 79.3684 3.37675 1.99295 0
M  V30 871 H 80.8584 2.99747 2.9076 0
M  V30 872 N 81.2955 -0.223234 1.56011 0
M  V30 873 C 82.5425 -0.947875 1.78946 0
M  V30 874 C 82.8705 -1.844 0.618608 0
M  V30 875 O 82.1255 -1.91629 -0.397093 0
M  V30 876 C 82.4245 -1.81948 3.0762 0
M  V30 877 C 82.0905 -1.07672 4.37856 0
M  V30 878 C 80.7525 -0.871544 4.73242 0
M  V30 879 C 83.1045 -0.552081 5.18268 0
M  V30 880 C 80.4325 -0.129791 5.86556 0
M  V30 881 C 82.7845 0.17632 6.32354 0
M  V30 882 C 81.4485 0.39277 6.66343 0
M  V30 883 H 80.7185 -0.346852 0.654809 0
M  V30 884 H 83.3655 -0.216171 1.90276 0
M  V30 885 H 81.6705 -2.61899 2.91404 0
M  V30 886 H 83.3675 -2.38227 3.22566 0
M  V30 887 H 79.9575 -1.24662 4.1007 0
M  V30 888 H 84.1415 -0.698076 4.91366 0
M  V30 889 H 79.3975 0.048153 6.11381 0
M  V30 890 H 83.5715 0.590367 6.93893 0
M  V30 891 H 81.1985 0.969466 7.53993 0
M  V30 892 N 82.7736 -1.49793 -0.48987 0
M  V30 893 C 84.0216 -1.59525 -1.24081 0
M  V30 894 C 84.3426 -0.288953 -1.92847 0
M  V30 895 O 83.6126 0.692436 -1.83254 0
M  V30 896 H 82.1926 -0.587796 -0.460983 0
M  V30 897 H 84.8546 -1.86477 -0.566778 0
M  V30 898 H 83.9506 -2.39696 -1.99881 0
M  V30 899 N 84.2517 0.741722 -1.39055 0
M  V30 900 C 85.1817 1.869 -1.39966 0
M  V30 901 C 86.1627 1.6804 -0.26392 0
M  V30 902 O 87.3477 1.88458 -0.468755 0
M  V30 903 C 84.4777 3.24572 -1.23574 0
M  V30 904 C 83.4317 3.58056 -2.34477 0
M  V30 905 C 82.7577 4.94593 -2.0318 0
M  V30 906 C 84.0577 3.61716 -3.76774 0
M  V30 907 H 85.7517 1.86395 -2.34302 0
M  V30 908 H 83.2977 0.895361 -1.1278 0
M  V30 909 H 85.2507 4.031 -1.22834 0
M  V30 910 H 83.9747 3.25587 -0.257045 0
M  V30 911 H 82.6337 2.81854 -2.34423 0
M  V30 912 H 82.2817 4.92181 -1.03765 0
M  V30 913 H 81.9817 5.17964 -2.77465 0
M  V30 914 H 83.5057 5.75486 -2.04079 0
M  V30 915 H 84.9197 4.30335 -3.78794 0
M  V30 916 H 83.3167 3.96603 -4.50362 0
M  V30 917 H 84.3867 2.61672 -4.08235 0
M  V30 918 N 85.7298 1.2412 0.971189 0
M  V30 919 C 86.9548 1.10667 1.75407 0
M  V30 920 C 87.3798 -0.337048 1.85056 0
M  V30 921 O 86.7378 -1.24396 1.31892 0
M  V30 922 C 86.7858 1.74726 3.15441 0
M  V30 923 O 85.8898 1.01566 3.99697 0
M  V30 924 H 85.2308 0.387341 0.539317 0
M  V30 925 H 87.7608 1.64358 1.2185 0
M  V30 926 H 87.7708 1.80341 3.6598 0
M  V30 927 H 86.4458 2.79773 3.07734 0
M  V30 928 H 85.0228 1.03713 3.58187 0
M  V30 929 N 87.2079 -1.17134 1.05439 0
M  V30 930 C 88.4569 -1.86791 0.761049 0
M  V30 931 C 88.7699 -1.82072 -0.714795 0
M  V30 932 O 89.9759 -2.47223 -1.12218 0
M  V30 933 C 88.4319 -3.35166 1.31117 0
M  V30 934 C 88.0399 -3.48381 2.81664 0
M  V30 935 C 89.7839 -4.10134 1.09499 0
M  V30 936 C 87.6909 -4.90793 3.29964 0
M  V30 937 H 86.6209 -0.699681 0.281002 0
M  V30 938 H 89.2719 -1.3226 1.27199 0
M  V30 939 H 87.6539 -3.8925 0.72803 0
M  V30 940 H 88.8279 -3.04502 3.45855 0
M  V30 941 H 87.1429 -2.86836 3.01851 0
M  V30 942 H 89.7399 -5.152 1.43084 0
M  V30 943 H 90.0829 -4.16287 0.0328772 0
M  V30 944 H 90.6159 -3.62264 1.64346 0
M  V30 945 H 87.3549 -4.89816 4.35616 0
M  V30 946 H 86.8749 -5.35333 2.70516 0
M  V30 947 H 88.5539 -5.59573 3.24787 0
M  V30 948 N 88.686 -0.835752 -1.33615 0
M  V30 949 C 89.649 -0.272 -2.2758 0
M  V30 950 C 90.649 0.557487 -1.50827 0
M  V30 951 O 91.839 0.37173 -1.70188 0
M  V30 952 C 88.971 0.617173 -3.35267 0
M  V30 953 H 90.164 -1.10111 -2.78954 0
M  V30 954 H 87.717 -0.608594 -1.43965 0
M  V30 955 H 88.452 1.46884 -2.89129 0
M  V30 956 H 88.237 0.0237066 -3.92093 0
M  V30 957 H 89.727 1.005 -4.05326 0
M  V30 958 N 90.1641 1.46063 -0.591896 0
M  V30 959 C 91.3921 2.06717 -0.0868936 0
M  V30 960 C 91.8071 1.43916 1.22203 0
M  V30 961 O 91.1641 0.547698 1.74088 0
M  V30 962 C 91.2151 3.6142 0.0758725 0
M  V30 963 O 90.9361 4.21874 -1.18126 0
M  V30 964 C 92.4371 4.39025 0.61416 0
M  V30 965 H 89.6571 0.668162 -0.0616518 0
M  V30 966 H 92.2011 1.8755 -0.815175 0
M  V30 967 H 90.3561 3.79983 0.754413 0
M  V30 968 H 90.7701 5.14861 -1.00092 0
M  V30 969 H 92.2441 5.4783 0.677193 0
M  V30 970 H 92.7211 4.07708 1.63312 0
M  V30 971 H 93.3271 4.2529 -0.0298142 0
M  V30 972 N 91.6422 0.330177 1.54103 0
M  V30 973 C 92.5722 -0.525353 2.27513 0
M  V30 974 C 93.5532 -1.11383 1.2856 0
M  V30 975 O 94.7382 -1.13773 1.57383 0
M  V30 976 C 91.8682 -1.6831 3.03791 0
M  V30 977 C 90.8222 -1.2236 4.10137 0
M  V30 978 C 90.1482 -2.46882 4.74293 0
M  V30 979 C 91.4482 -0.333697 5.21233 0
M  V30 980 H 93.1422 0.087013 2.99274 0
M  V30 981 H 90.6882 0.0432893 1.43935 0
M  V30 982 H 92.6412 -2.28795 3.5388 0
M  V30 983 H 91.3652 -2.32216 2.29659 0
M  V30 984 H 90.0242 -0.64165 3.60941 0
M  V30 985 H 89.6722 -3.09165 3.96769 0
M  V30 986 H 89.3722 -2.16825 5.46133 0
M  V30 987 H 90.8962 -3.08117 5.27159 0
M  V30 988 H 92.3102 -0.845013 5.67038 0
M  V30 989 H 90.7072 -0.125612 5.99969 0
M  V30 990 H 91.7772 0.633724 4.80741 0
M  V30 991 N 93.1203 -1.57491 0.0584922 0
M  V30 992 C 94.0833 -2.1085 -0.898617 0
M  V30 993 C 95.0833 -1.02964 -1.23511 0
M  V30 994 O 96.2733 -1.29007 -1.17059 0
M  V30 995 C 93.4053 -2.59881 -2.20623 0
M  V30 996 H 94.5983 -2.96715 -0.435936 0
M  V30 997 H 92.1513 -1.55141 -0.190023 0
M  V30 998 H 92.8863 -1.77431 -2.71457 0
M  V30 999 H 92.6713 -3.38727 -1.97501 0
M  V30 1000 H 94.1613 -3.01285 -2.89166 0
M  V30 1001 N 94.5984 0.214957 -1.56127 0
M  V30 1002 C 95.5304 1.29004 -1.89448 0
M  V30 1003 C 96.5434 1.42716 -0.783326 0
M  V30 1004 O 97.7324 1.43496 -1.06166 0
M  V30 1005 C 94.8324 2.66482 -2.09381 0
M  V30 1006 C 94.0054 2.74633 -3.40434 0
M  V30 1007 C 93.0644 3.9317 -3.49719 0
M  V30 1008 O 92.0904 3.812 -4.227 0
M  V30 1009 N 93.2924 5.07765 -2.81346 0
M  V30 1010 H 96.0574 1.00743 -2.82261 0
M  V30 1011 H 93.6184 0.40497 -1.56753 0
M  V30 1012 H 95.6104 3.44173 -2.12901 0
M  V30 1013 H 94.1804 2.87314 -1.23163 0
M  V30 1014 H 93.4004 1.83368 -3.48955 0
M  V30 1015 H 94.6884 2.77054 -4.26754 0
M  V30 1016 H 94.0864 5.20386 -2.21843 0
M  V30 1017 H 92.6434 5.83474 -2.90519 0
M  V30 1018 N 96.0765 1.50051 0.48192 0
M  V30 1019 C 97.3015 1.64508 1.26301 0
M  V30 1020 C 97.7265 0.323851 1.85291 0
M  V30 1021 O 97.0845 -0.710969 1.66778 0
M  V30 1022 C 97.1325 2.7305 2.35533 0
M  V30 1023 O 96.2365 2.3355 3.39895 0
M  V30 1024 H 95.5775 0.549978 0.372048 0
M  V30 1025 H 98.1075 1.9636 0.574786 0
M  V30 1026 H 98.1175 2.95799 2.8101 0
M  V30 1027 H 96.7925 3.68946 1.91967 0
M  V30 1028 H 95.3695 2.21205 3.00204 0
M  V30 1029 N 97.5546 -0.734337 1.39446 0
M  V30 1030 C 98.8006 -1.49613 1.36908 0
M  V30 1031 C 99.1336 -1.94169 -0.0347829 0
M  V30 1032 O 98.4086 -1.66833 -0.999847 0
M  V30 1033 C 98.6916 -2.73534 2.34203 0
M  V30 1034 C 98.5446 -2.34993 3.83534 0
M  V30 1035 C 99.8636 -3.75635 2.29317 0
M  V30 1036 H 96.9826 -0.542714 0.498629 0
M  V30 1037 H 99.6246 -0.839597 1.70443 0
M  V30 1038 H 97.7746 -3.29553 2.05736 0
M  V30 1039 H 99.4466 -1.84601 4.22753 0
M  V30 1040 H 97.6896 -1.67213 4.00278 0
M  V30 1041 H 98.3606 -3.23738 4.47099 0
M  V30 1042 H 100.837 -3.29203 2.54489 0
M  V30 1043 H 99.7126 -4.60008 2.99472 0
M  V30 1044 H 99.9736 -4.22603 1.29842 0
M  V30 1045 N 99.0327 -1.24633 -0.964593 0
M  V30 1046 C 100.281 -1.08573 -1.70459 0
M  V30 1047 C 100.602 0.375655 -1.91347 0
M  V30 1048 O 99.8717 1.26779 -1.49345 0
M  V30 1049 H 98.4517 -0.398784 -0.631649 0
M  V30 1050 H 101.114 -1.56601 -1.16026 0
M  V30 1051 H 100.21 -1.58623 -2.68785 0
M  V30 1052 N 100.511 1.16574 -1.06058 0
M  V30 1053 C 101.461 2.18854 -0.63929 0
M  V30 1054 C 102.445 1.57505 0.328798 0
M  V30 1055 O 103.637 1.76408 0.144623 0
M  V30 1056 C 100.766 3.43291 -0.0247203 0
M  V30 1057 C 99.8518 4.11722 -1.01716 0
M  V30 1058 N 100.243 4.55841 -2.19186 0
M  V30 1059 C 98.5408 4.37872 -0.847569 0
M  V30 1060 C 99.2418 5.08751 -2.82042 0
M  V30 1061 N 98.2178 5.01489 -2.09784 0
M  V30 1062 H 102.02 2.5068 -1.53417 0
M  V30 1063 H 99.5338 1.32999 -0.931935 0
M  V30 1064 H 101.531 4.15856 0.294915 0
M  V30 1065 H 100.191 3.12954 0.865448 0
M  V30 1066 H 101.202 4.49649 -2.56975 0
M  V30 1067 H 97.8788 4.17499 -0.00918848 0
M  V30 1068 H 99.2688 5.52944 -3.81709 0
M  V30 1069 N 101.989 0.842826 1.3317 0
M  V30 1070 C 103.238 0.436738 1.96915 0
M  V30 1071 C 103.551 -1.01025 1.67491 0
M  V30 1072 O 104.757 -1.5212 2.24881 0
M  V30 1073 C 103.213 0.730021 3.52418 0
M  V30 1074 C 102.821 2.19195 3.90714 0
M  V30 1075 C 104.565 0.391076 4.22695 0
M  V30 1076 C 102.472 2.42907 5.39212 0
M  V30 1077 H 101.402 0.15958 0.736919 0
M  V30 1078 H 104.053 1.03196 1.51733 0
M  V30 1079 H 102.435 0.0643755 3.95948 0
M  V30 1080 H 103.609 2.8984 3.58231 0
M  V30 1081 H 101.924 2.49425 3.33431 0
M  V30 1082 H 104.521 0.545817 5.31907 0
M  V30 1083 H 104.864 -0.666294 4.10933 0
M  V30 1084 H 105.397 1.01212 3.84709 0
M  V30 1085 H 102.136 3.47224 5.55982 0
M  V30 1086 H 101.656 1.76827 5.73142 0
M  V30 1087 H 103.335 2.2626 6.06148 0
M  V30 1088 N 103.467 -1.45747 0.599634 0
M  V30 1089 C 104.692 -2.07178 0.0960198 0
M  V30 1090 C 105.117 -1.44268 -1.207 0
M  V30 1091 O 104.475 -0.532503 -1.73303 0
M  V30 1092 C 104.523 -3.60579 -0.0385348 0
M  V30 1093 O 103.627 -3.97713 -1.0908 0
M  V30 1094 H 102.968 -0.660251 0.0704593 0
M  V30 1095 H 105.498 -1.87124 0.827385 0
M  V30 1096 H 105.508 -4.07298 -0.239304 0
M  V30 1097 H 104.183 -4.05756 0.912947 0
M  V30 1098 H 102.76 -3.62678 -0.867135 0
M  V30 1099 N 104.945 -0.338344 -1.53925 0
M  V30 1100 C 106.193 0.259245 -2.0043 0
M  V30 1101 C 106.514 1.51484 -1.22791 0
M  V30 1102 O 105.784 1.93037 -0.33368 0
M  V30 1103 H 104.364 0.0987845 -0.740439 0
M  V30 1104 H 107.026 -0.458302 -1.89435 0
M  V30 1105 H 106.122 0.505334 -3.07982 0
M  V30 1106 N 106.423 1.57458 -0.0668435 0
M  V30 1107 C 107.386 2.11323 0.887422 0
M  V30 1108 C 108.386 1.03618 1.22964 0
M  V30 1109 O 109.576 1.29626 1.16373 0
M  V30 1110 C 106.708 2.61048 2.19242 0
M  V30 1111 H 107.901 2.96942 0.420194 0
M  V30 1112 H 105.454 1.55239 0.181793 0
M  V30 1113 H 106.189 1.78868 2.70512 0
M  V30 1114 H 105.974 3.39769 1.95702 0
M  V30 1115 H 107.464 3.02814 2.87565 0
M  V30 1116 N 107.901 -0.206675 1.56239 0
M  V30 1117 C 108.851 -1.26 1.90021 0
M  V30 1118 C 109.835 -1.41566 0.764721 0
M  V30 1119 O 111.027 -1.44131 1.02739 0
M  V30 1120 C 108.156 -2.6073 2.23326 0
M  V30 1121 C 107.242 -2.49005 3.43304 0
M  V30 1122 N 107.633 -2.06946 4.61527 0
M  V30 1123 C 105.931 -2.79927 3.47213 0
M  V30 1124 C 106.632 -2.06832 5.43687 0
M  V30 1125 N 105.608 -2.47892 4.83788 0
M  V30 1126 H 109.41 -0.925955 2.78932 0
M  V30 1127 H 106.924 -0.415172 1.57003 0
M  V30 1128 H 108.921 -3.36798 2.45708 0
M  V30 1129 H 107.581 -2.94968 1.35735 0
M  V30 1130 H 108.592 -1.77839 4.86409 0
M  V30 1131 H 105.269 -3.18438 2.70006 0
M  V30 1132 H 106.659 -1.76312 6.48354 0
M  V30 1133 N 109.379 -1.50304 -0.473955 0
M  V30 1134 C 110.309 -1.71886 -1.58042 0
M  V30 1135 C 111.29 -0.567799 -1.60344 0
M  V30 1136 O 112.475 -0.806623 -1.76656 0
M  V30 1137 C 109.605 -1.81036 -2.96384 0
M  V30 1138 C 108.559 -2.962 -3.08949 0
M  V30 1139 C 107.885 -2.9049 -4.48909 0
M  V30 1140 C 109.185 -4.36752 -2.86434 0
M  V30 1141 H 110.879 -2.64527 -1.40234 0
M  V30 1142 H 108.425 -1.27295 -0.673201 0
M  V30 1143 H 110.378 -1.94719 -3.73714 0
M  V30 1144 H 109.102 -0.850147 -3.15341 0
M  V30 1145 H 107.761 -2.82164 -2.3405 0
M  V30 1146 H 107.409 -1.92321 -4.64781 0
M  V30 1147 H 107.109 -3.67802 -4.58253 0
M  V30 1148 H 108.633 -3.06218 -5.28264 0
M  V30 1149 H 110.047 -4.5133 -3.53517 0
M  V30 1150 H 108.444 -5.15493 -3.07225 0
M  V30 1151 H 109.514 -4.49321 -1.82316 0
M  V30 1152 N 110.857 0.726932 -1.39834 0
M  V30 1153 C 111.805 1.86235 -1.39353 0
M  V30 1154 C 112.799 1.67144 -0.275555 0
M  V30 1155 O 114.005 1.74387 -0.44601 0
M  V30 1156 H 110.38 0.613174 -0.43534 0
M  V30 1157 H 112.351 1.83756 -2.35109 0
M  V30 1158 C 111.1 3.23995 -1.26185 0
M  V30 1159 H 110.423 3.39285 -2.11484 0
M  V30 1160 H 111.863 4.03609 -1.29907 0
M  V30 1161 C 110.322 3.36888 0.0290018 0
M  V30 1162 O 110.852 3.89152 0.99619 0
M  V30 1163 N 109.058 2.90446 0.0947437 0
M  V30 1164 H 108.605 2.48102 -0.693035 0
M  V30 1165 H 108.563 2.99451 0.957932 0
M  V30 1166 N 112.336 1.25143 0.95797 0
M  V30 1167 C 113.747 1.08851 1.51685 0
M  V30 1168 C 114.098 -0.33687 1.93286 0
M  V30 1169 O 113.223 -1.22644 1.7829 0
M  V30 1170 C 113.818 1.96978 2.75654 0
M  V30 1171 C 112.377 1.84881 3.27866 0
M  V30 1172 C 111.524 1.91329 2.0072 0
M  V30 1173 H 114.475 1.38478 0.77522 0
M  V30 1174 H 114.496 1.5078 3.4935 0
M  V30 1175 H 114.008 3.00712 2.45345 0
M  V30 1176 H 112.109 0.840182 3.63004 0
M  V30 1177 H 112.222 2.6951 3.96107 0
M  V30 1178 H 110.586 1.35174 2.15871 0
M  V30 1179 H 111.369 2.96661 1.72764 0
M  V30 1180 N 113.814 -1.1601 1.06675 0
M  V30 1181 C 114.777 -2.18724 0.685001 0
M  V30 1182 C 115.777 -1.58496 -0.271246 0
M  V30 1183 O 116.967 -1.74119 -0.0531156 0
M  V30 1184 C 114.099 -3.40899 0.00853648 0
M  V30 1185 H 115.292 -2.54011 1.59431 0
M  V30 1186 H 112.845 -1.30352 0.862441 0
M  V30 1187 H 113.58 -3.11173 -0.913337 0
M  V30 1188 H 113.365 -3.8587 0.696204 0
M  V30 1189 H 114.855 -4.16886 -0.24414 0
M  V30 1190 N 115.292 -0.849877 -1.32721 0
M  V30 1191 C 116.538 -0.451591 -1.97708 0
M  V30 1192 C 116.871 0.989175 -1.6712 0
M  V30 1193 O 116.146 1.69334 -0.956891 0
M  V30 1194 C 116.429 -0.685598 -3.53513 0
M  V30 1195 C 116.282 -2.17444 -3.93749 0
M  V30 1196 C 117.601 -0.138874 -4.39881 0
M  V30 1197 H 114.72 -0.16555 -0.718166 0
M  V30 1198 H 117.362 -1.06742 -1.57182 0
M  V30 1199 H 115.512 -0.161416 -3.88165 0
M  V30 1200 H 117.184 -2.76433 -3.693 0
M  V30 1201 H 115.427 -2.65476 -3.43081 0
M  V30 1202 H 116.098 -2.28888 -5.02309 0
M  V30 1203 H 118.574 -0.587068 -4.11938 0
M  V30 1204 H 117.45 -0.332213 -5.47894 0
M  V30 1205 H 117.711 0.95806 -4.31594 0
M  V30 1206 N 116.77 1.45427 -0.607355 0
M  V30 1207 C 117.998 2.06614 -0.108814 0
M  V30 1208 C 118.413 1.45204 1.2067 0
M  V30 1209 O 117.77 0.566132 1.73497 0
M  V30 1210 C 117.821 3.61481 0.0375347 0
M  V30 1211 O 117.542 4.20598 -1.22593 0
M  V30 1212 C 119.043 4.39652 0.567561 0
M  V30 1213 H 116.263 0.66747 -0.0687351 0
M  V30 1214 H 118.807 1.86675 -0.835022 0
M  V30 1215 H 116.962 3.80762 0.714068 0
M  V30 1216 H 117.376 5.1377 -1.05547 0
M  V30 1217 H 118.85 5.48518 0.61905 0
M  V30 1218 H 119.327 4.09417 1.58978 0
M  V30 1219 H 119.933 4.25234 -0.0749202 0
M  V30 1220 N 118.248 0.346503 1.53744 0
M  V30 1221 C 119.178 -0.501193 2.28058 0
M  V30 1222 C 120.159 -1.10014 1.29734 0
M  V30 1223 O 121.344 -1.12097 1.58581 0
M  V30 1224 C 118.474 -1.65078 3.05559 0
M  V30 1225 C 117.428 -1.18003 4.11411 0
M  V30 1226 C 116.754 -2.41837 4.76884 0
M  V30 1227 C 118.054 -0.278394 5.21558 0
M  V30 1228 H 119.748 0.11875 2.99164 0
M  V30 1229 H 117.294 0.0585531 1.43881 0
M  V30 1230 H 119.247 -2.25028 3.56287 0
M  V30 1231 H 117.971 -2.29767 2.32109 0
M  V30 1232 H 116.63 -0.603331 3.61601 0
M  V30 1233 H 116.278 -3.0494 4.00026 0
M  V30 1234 H 115.978 -2.1102 5.48402 0
M  V30 1235 H 117.502 -3.02508 5.30397 0
M  V30 1236 H 118.916 -0.784823 5.67903 0
M  V30 1237 H 117.313 -0.0619707 6.00068 0
M  V30 1238 H 118.383 0.684677 4.80042 0
M  V30 1239 N 119.726 -1.57421 0.075193 0
M  V30 1240 C 120.974 -1.93236 -0.591974 0
M  V30 1241 C 121.295 -0.956241 -1.69944 0
M  V30 1242 O 120.565 -0.00494792 -1.95899 0
M  V30 1243 H 119.145 -0.713355 -0.22166 0
M  V30 1244 H 121.807 -1.9444 0.133848 0
M  V30 1245 H 120.903 -2.95131 -1.01509 0
M  V30 1246 N 121.204 0.198386 -1.56346 0
M  V30 1247 C 122.134 1.24865 -1.9731 0
M  V30 1248 C 123.115 1.47651 -0.844576 0
M  V30 1249 O 124.3 1.59444 -1.10866 0
M  V30 1250 C 121.43 2.59358 -2.30977 0
M  V30 1251 C 120.384 2.5119 -3.46537 0
M  V30 1252 C 119.71 3.89926 -3.65871 0
M  V30 1253 C 121.01 2.03977 -4.80823 0
M  V30 1254 H 122.704 0.908252 -2.85291 0
M  V30 1255 H 120.25 0.435462 -1.37258 0
M  V30 1256 H 122.203 3.33011 -2.58228 0
M  V30 1257 H 120.927 2.95132 -1.39874 0
M  V30 1258 H 119.586 1.79993 -3.19371 0
M  V30 1259 H 119.234 4.23046 -2.72105 0
M  V30 1260 H 118.934 3.85336 -4.4361 0
M  V30 1261 H 120.458 4.65205 -3.95495 0
M  V30 1262 H 121.872 2.67386 -5.07127 0
M  V30 1263 H 120.269 2.10397 -5.62008 0
M  V30 1264 H 121.339 0.992861 -4.74626 0
M  V30 1265 N 122.682 1.50554 0.465978 0
M  V30 1266 C 123.612 1.72722 1.57128 0
M  V30 1267 C 124.593 0.576294 1.6004 0
M  V30 1268 O 125.778 0.81598 1.76225 0
M  V30 1269 C 122.908 1.82605 2.95419 0
M  V30 1270 C 121.862 2.97835 3.07373 0
M  V30 1271 C 121.188 2.92867 4.47363 0
M  V30 1272 C 122.488 4.38265 2.84114 0
M  V30 1273 H 124.182 2.65267 1.38829 0
M  V30 1274 H 121.728 1.2765 0.666441 0
M  V30 1275 H 123.681 1.96698 3.72677 0
M  V30 1276 H 122.405 0.866858 3.14886 0
M  V30 1277 H 121.064 2.83401 2.3255 0
M  V30 1278 H 120.712 1.94783 4.63755 0
M  V30 1279 H 120.412 3.70227 4.56296 0
M  V30 1280 H 121.936 3.09015 5.26633 0
M  V30 1281 H 123.35 4.53198 3.51118 0
M  V30 1282 H 121.747 5.17115 3.04487 0
M  V30 1283 H 122.817 4.50281 1.7993 0
M  V30 1284 N 124.16 -0.719506 1.40217 0
M  V30 1285 C 125.09 -1.8465 1.42922 0
M  V30 1286 C 126.071 -1.67599 0.29062 0
M  V30 1287 O 127.256 -1.87688 0.498677 0
M  V30 1288 C 124.386 -3.22565 1.28722 0
M  V30 1289 C 123.34 -3.54281 2.40144 0
M  V30 1290 C 122.666 -4.91298 2.11023 0
M  V30 1291 C 123.966 -3.55676 3.82481 0
M  V30 1292 H 125.66 -1.82644 2.37237 0
M  V30 1293 H 123.206 -0.877305 1.1419 0
M  V30 1294 H 125.159 -4.01095 1.29232 0
M  V30 1295 H 123.883 -3.25137 0.308811 0
M  V30 1296 H 122.542 -2.78088 2.38877 0
M  V30 1297 H 122.19 -4.90468 1.11582 0
M  V30 1298 H 121.89 -5.13485 2.8567 0
M  V30 1299 H 123.414 -5.72166 2.13209 0
M  V30 1300 H 124.828 -4.24254 3.85592 0
M  V30 1301 H 123.225 -3.89388 4.56614 0
M  V30 1302 H 124.295 -2.55144 4.12346 0
M  V30 1303 N 125.638 -1.25649 -0.95132 0
M  V30 1304 C 126.863 -1.13443 -1.73624 0
M  V30 1305 C 127.288 0.307565 -1.85568 0
M  V30 1306 O 126.646 1.22282 -1.33854 0
M  V30 1307 C 126.694 -1.79723 -3.12621 0
M  V30 1308 O 125.798 -1.07912 -3.98031 0
M  V30 1309 H 125.139 -0.395872 -0.533086 0
M  V30 1310 H 127.669 -1.66276 -1.1922 0
M  V30 1311 H 127.679 -1.86141 -3.63064 0
M  V30 1312 H 126.354 -2.84633 -3.03244 0
M  V30 1313 H 124.931 -1.09398 -3.56492 0
M  V30 1314 N 127.117 1.15442 -1.07289 0
M  V30 1315 C 128.357 1.8788 -0.805012 0
M  V30 1316 C 128.721 1.80413 0.656907 0
M  V30 1317 O 129.922 2.47874 1.0398 0
M  V30 1318 C 128.193 3.3298 -1.29843 0
M  V30 1319 S 129.752 4.23158 -1.16114 0
M  V30 1320 H 126.57 0.64839 -0.291739 0
M  V30 1321 H 129.172 1.39285 -1.37186 0
M  V30 1322 H 127.876 3.35958 -2.35712 0
M  V30 1323 H 127.407 3.86629 -0.726767 0
M  V30 1324 H 129.422 4.96103 -0.0982778 0
M  V30 1325 N 128.595 0.856903 1.32268 0
M  V30 1326 C 129.527 0.260412 2.27716 0
M  V30 1327 C 130.54 -0.569137 1.52528 0
M  V30 1328 O 131.729 -0.39326 1.74114 0
M  V30 1329 C 128.829 -0.650477 3.32599 0
M  V30 1330 C 128.002 0.14372 4.37164 0
M  V30 1331 C 127.061 -0.69328 5.21613 0
M  V30 1332 O 126.087 -0.12599 5.69061 0
M  V30 1333 N 127.289 -2.00761 5.44679 0
M  V30 1334 H 130.054 1.08059 2.79541 0
M  V30 1335 H 127.615 0.717103 1.45152 0
M  V30 1336 H 129.607 -1.21581 3.86005 0
M  V30 1337 H 128.177 -1.37133 2.80915 0
M  V30 1338 H 127.397 0.890486 3.8401 0
M  V30 1339 H 128.685 0.68915 5.04111 0
M  V30 1340 H 128.083 -2.49181 5.07863 0
M  V30 1341 H 126.64 -2.52103 6.01072 0
M  V30 1342 N 130.073 -1.45103 0.615059 0
M  V30 1343 C 131.322 -2.01396 0.110718 0
M  V30 1344 C 131.635 -1.48834 -1.26916 0
M  V30 1345 O 132.841 -1.97152 -1.86664 0
M  V30 1346 C 131.297 -3.59599 0.14723 0
M  V30 1347 C 130.905 -4.21158 1.52743 0
M  V30 1348 C 132.649 -4.23428 -0.30148 0
M  V30 1349 C 130.556 -5.71535 1.51992 0
M  V30 1350 H 129.486 -0.753061 0.0376241 0
M  V30 1351 H 132.137 -1.66494 0.77149 0
M  V30 1352 H 130.519 -3.91724 -0.580339 0
M  V30 1353 H 131.693 -4.00594 2.2773 0
M  V30 1354 H 130.008 -3.69552 1.91886 0
M  V30 1355 H 132.605 -5.33703 -0.326392 0
M  V30 1356 H 132.948 -3.94629 -1.32565 0
M  V30 1357 H 133.481 -3.96047 0.373065 0
M  V30 1358 H 130.22 -6.05044 2.52193 0
M  V30 1359 H 129.74 -5.94268 0.81274 0
M  V30 1360 H 131.419 -6.34873 1.24681 0
M  V30 1361 N 131.551 -0.354651 -1.53558 0
M  V30 1362 C 132.776 0.242153 -2.05981 0
M  V30 1363 C 133.201 1.42553 -1.2272 0
M  V30 1364 O 132.559 1.79656 -0.243604 0
M  V30 1365 C 132.607 0.624367 -3.55154 0
M  V30 1366 O 131.711 1.72301 -3.74681 0
M  V30 1367 H 131.052 0.0378432 -0.662921 0
M  V30 1368 H 133.582 -0.512087 -1.98088 0
M  V30 1369 H 133.592 0.898433 -3.97985 0
M  V30 1370 H 132.267 -0.240989 -4.15201 0
M  V30 1371 H 130.844 1.44535 -3.4375 0
M  V30 1372 N 133.029 1.57378 -0.0835403 0
M  V30 1373 C 134.278 1.93106 0.582498 0
M  V30 1374 C 134.591 0.96651 1.70053 0
M  V30 1375 O 135.797 1.21705 2.42693 0
M  V30 1376 C 134.253 3.43076 1.08751 0
M  V30 1377 C 133.861 4.48 -0.000146404 0
M  V30 1378 C 135.605 3.87785 1.72694 0
M  V30 1379 C 133.512 5.89113 0.519568 0
M  V30 1380 H 132.442 0.720775 0.221358 0
M  V30 1381 H 135.093 1.82821 -0.157675 0
M  V30 1382 H 133.475 3.48474 1.88101 0
M  V30 1383 H 134.649 4.54233 -0.775199 0
M  V30 1384 H 132.964 4.1283 -0.54406 0
M  V30 1385 H 135.561 4.90604 2.1263 0
M  V30 1386 H 135.904 3.25796 2.59158 0
M  V30 1387 H 136.437 3.8504 0.999457 0
M  V30 1388 H 133.176 6.54775 -0.308186 0
M  V30 1389 H 132.696 5.86376 1.26188 0
M  V30 1390 H 134.375 6.39346 0.992237 0
M  V30 1391 N 134.507 -0.190092 1.56449 0
M  V30 1392 C 135.754 -0.909705 1.80916 0
M  V30 1393 C 136.082 -1.83047 0.657583 0
M  V30 1394 O 135.337 -1.92428 -0.356356 0
M  V30 1395 C 135.636 -1.75382 3.1141 0
M  V30 1396 C 135.302 -0.983606 4.40041 0
M  V30 1397 C 133.964 -0.770967 4.74984 0
M  V30 1398 C 136.316 -0.442024 5.19322 0
M  V30 1399 C 133.644 -0.0053448 5.867 0
M  V30 1400 C 135.996 0.310412 6.31838 0
M  V30 1401 C 134.66 0.534023 6.6536 0
M  V30 1402 H 133.93 -0.332885 0.662019 0
M  V30 1403 H 136.577 -0.175762 1.90692 0
M  V30 1404 H 134.882 -2.55659 2.96893 0
M  V30 1405 H 136.579 -2.31331 3.27547 0
M  V30 1406 H 133.169 -1.15936 4.12622 0
M  V30 1407 H 137.353 -0.593693 4.92736 0
M  V30 1408 H 132.609 0.177825 6.11141 0
M  V30 1409 H 136.783 0.737419 6.92485 0
M  V30 1410 H 134.41 1.12918 7.51767 0
M  V30 1411 N 135.985 -1.50799 -0.457987 0
M  V30 1412 C 137.401 -1.38515 -0.792819 0
M  V30 1413 C 137.601 -0.451409 -1.96379 0
M  V30 1414 O 136.657 0.10112 -2.52297 0
M  V30 1415 C 137.97 -2.80149 -1.09258 0
M  V30 1416 C 139.518 -2.89156 -1.19825 0
M  V30 1417 C 139.993 -4.31651 -1.53106 0
M  V30 1418 N 141.484 -4.34662 -1.60072 0
M  V30 1419 C 142.219 -5.41928 -1.87354 0
M  V30 1420 N 141.715 -6.59384 -2.12568 0
M  V30 1421 N 143.508 -5.29385 -1.88965 0
M  V30 1422 H 135.659 -2.10073 0.313511 0
M  V30 1423 H 137.922 -0.944803 0.0777862 0
M  V30 1424 H 137.628 -3.50374 -0.305084 0
M  V30 1425 H 137.502 -3.18204 -2.02549 0
M  V30 1426 H 139.889 -2.19141 -1.97639 0
M  V30 1427 H 139.97 -2.54626 -0.244821 0
M  V30 1428 H 139.614 -5.02208 -0.758266 0
M  V30 1429 H 139.544 -4.63678 -2.49621 0
M  V30 1430 H 142.035 -3.49973 -1.42573 0
M  V30 1431 H 142.348 -7.36934 -2.32696 0
M  V30 1432 H 140.693 -6.62535 -2.09933 0
M  V30 1433 H 143.884 -4.36616 -1.68772 0
M  V30 1434 H 144.057 -6.13066 -2.09891 0
M  V30 1435 N 137.463 0.71206 -1.40597 0
M  V30 1436 C 138.426 1.80785 -1.40888 0
M  V30 1437 C 139.426 1.57937 -0.302103 0
M  V30 1438 O 140.616 1.64913 -0.561182 0
M  V30 1439 C 137.748 3.18927 -1.20409 0
M  V30 1440 H 138.941 1.81924 -2.38419 0
M  V30 1441 H 136.494 0.91805 -1.26497 0
M  V30 1442 H 137.229 3.23436 -0.236522 0
M  V30 1443 H 137.014 3.36911 -2.00582 0
M  V30 1444 H 138.504 3.98949 -1.23408 0
M  V30 1445 N 138.941 1.26152 0.944643 0
M  V30 1446 C 139.871 1.09902 2.06019 0
M  V30 1447 C 140.852 0.00519538 1.70099 0
M  V30 1448 O 142.037 0.176583 1.93396 0
M  V30 1449 C 139.167 0.727562 3.39594 0
M  V30 1450 C 138.121 1.77274 3.89561 0
M  V30 1451 C 137.447 1.25569 5.19747 0
M  V30 1452 C 138.747 3.17357 4.14827 0
M  V30 1453 H 140.441 2.03217 2.19871 0
M  V30 1454 H 137.987 0.978452 1.05652 0
M  V30 1455 H 139.94 0.600777 4.17095 0
M  V30 1456 H 138.664 -0.241287 3.25707 0
M  V30 1457 H 137.323 1.88814 3.14237 0
M  V30 1458 H 136.971 0.276783 5.02238 0
M  V30 1459 H 136.671 1.95433 5.54148 0
M  V30 1460 H 138.195 1.1415 5.99835 0
M  V30 1461 H 139.609 3.08914 4.82954 0
M  V30 1462 H 138.006 3.84781 4.60504 0
M  V30 1463 H 139.076 3.63673 3.20734 0
M  V30 1464 N 140.419 -1.14872 1.07899 0
M  V30 1465 C 141.352 -2.18794 0.64841 0
M  V30 1466 C 142.33 -1.59065 -0.337189 0
M  V30 1467 O 143.514 -1.86936 -0.242284 0
M  V30 1468 C 140.641 -3.38667 -0.0470417 0
M  V30 1469 C 139.687 -4.16942 0.897884 0
M  V30 1470 S 140.52 -4.78615 2.40183 0
M  V30 1471 C 141.676 -6.0185 1.71834 0
M  V30 1472 H 141.909 -2.5498 1.52881 0
M  V30 1473 H 139.442 -1.25922 0.893484 0
M  V30 1474 H 141.4 -4.08113 -0.442027 0
M  V30 1475 H 140.061 -3.00814 -0.903861 0
M  V30 1476 H 139.254 -5.02726 0.358096 0
M  V30 1477 H 138.856 -3.53073 1.23352 0
M  V30 1478 H 141.148 -6.69574 1.03328 0
M  V30 1479 H 142.091 -6.60408 2.55473 0
M  V30 1480 H 142.499 -5.5173 1.19392 0
M  V30 1481 N 141.898 -0.863906 -1.31812 0
M  V30 1482 C 143.128 -0.485406 -2.00817 0
M  V30 1483 C 143.536 0.925007 -1.65046 0
M  V30 1484 O 142.879 1.61653 -0.872574 0
M  V30 1485 C 142.941 -0.555589 -3.55181 0
M  V30 1486 C 142.605 -1.92654 -4.14407 0
M  V30 1487 C 143.602 -2.89324 -4.31958 0
M  V30 1488 C 141.287 -2.2262 -4.50273 0
M  V30 1489 C 143.281 -4.14108 -4.84555 0
M  V30 1490 C 140.968 -3.47654 -5.02573 0
M  V30 1491 C 141.966 -4.43214 -5.19664 0
M  V30 1492 O 141.654 -5.66033 -5.70843 0
M  V30 1493 H 141.386 -0.188224 -0.649267 0
M  V30 1494 H 143.94 -1.16514 -1.69156 0
M  V30 1495 H 142.17 0.181037 -3.86276 0
M  V30 1496 H 143.859 -0.19138 -4.05449 0
M  V30 1497 H 144.625 -2.6748 -4.04573 0
M  V30 1498 H 140.504 -1.4902 -4.3625 0
M  V30 1499 H 144.048 -4.88703 -4.9781 0
M  V30 1500 H 139.945 -3.69345 -5.29391 0
M  V30 1501 H 140.713 -5.6812 -5.89222 0
M  V30 1502 N 143.376 1.44774 -0.622745 0
M  V30 1503 C 144.625 2.01334 -0.121397 0
M  V30 1504 C 144.938 1.49505 1.26125 0
M  V30 1505 O 146.144 1.98139 1.85616 0
M  V30 1506 C 144.6 3.59516 -0.166298 0
M  V30 1507 C 144.208 4.20342 -1.54974 0
M  V30 1508 C 145.952 4.23582 0.279021 0
M  V30 1509 C 143.859 5.70721 -1.55021 0
M  V30 1510 H 142.789 0.752851 -0.0416172 0
M  V30 1511 H 145.44 1.66083 -0.780309 0
M  V30 1512 H 143.822 3.92027 0.559557 0
M  V30 1513 H 144.996 3.99381 -2.29851 0
M  V30 1514 H 143.311 3.68529 -1.93843 0
M  V30 1515 H 145.908 5.33868 0.298083 0
M  V30 1516 H 146.251 3.95327 1.30471 0
M  V30 1517 H 146.784 3.95843 -0.394063 0
M  V30 1518 H 143.523 6.03698 -2.55399 0
M  V30 1519 H 143.043 5.93829 -0.844245 0
M  V30 1520 H 144.722 6.34203 -1.28047 0
M  V30 1521 N 144.854 0.36279 1.53368 0
M  V30 1522 C 146.103 -0.22888 2.00397 0
M  V30 1523 C 146.416 -1.50096 1.25421 0
M  V30 1524 O 147.622 -2.17106 1.63025 0
M  V30 1525 C 146.078 -0.458417 3.56969 0
M  V30 1526 C 145.686 0.798877 4.4082 0
M  V30 1527 C 147.43 -1.00789 4.12361 0
M  V30 1528 C 145.337 0.539078 5.88938 0
M  V30 1529 H 144.267 -0.089305 0.748693 0
M  V30 1530 H 146.918 0.481099 1.77081 0
M  V30 1531 H 145.3 -1.22959 3.76427 0
M  V30 1532 H 146.474 1.57262 4.33134 0
M  V30 1533 H 144.789 1.27137 3.96516 0
M  V30 1534 H 147.386 -1.21754 5.20653 0
M  V30 1535 H 147.729 -1.9692 3.66781 0
M  V30 1536 H 148.262 -0.296961 3.9669 0
M  V30 1537 H 145.001 1.47064 6.3879 0
M  V30 1538 H 144.521 -0.196222 5.99479 0
M  V30 1539 H 146.2 0.163542 6.46793 0
M  V30 1540 N 146.332 -1.57332 0.0918853 0
M  V30 1541 C 147.295 -2.12708 -0.85369 0
M  V30 1542 C 148.295 -1.05561 -1.213 0
M  V30 1543 O 149.485 -1.31461 -1.14296 0
M  V30 1544 C 146.617 -2.64503 -2.15061 0
M  V30 1545 H 147.81 -2.97573 -0.3729 0
M  V30 1546 H 145.363 -1.55509 -0.157072 0
M  V30 1547 H 146.098 -1.83149 -2.67632 0
M  V30 1548 H 145.883 -3.4284 -1.90272 0
M  V30 1549 H 147.373 -3.07351 -2.82711 0
M  V30 1550 N 147.81 0.181792 -1.56548 0
M  V30 1551 C 148.742 1.24956 -1.92142 0
M  V30 1552 C 149.755 1.41022 -0.813422 0
M  V30 1553 O 150.944 1.41212 -1.09186 0
M  V30 1554 C 148.044 2.61981 -2.14987 0
M  V30 1555 C 147.217 2.6735 -3.46183 0
M  V30 1556 C 146.276 3.85664 -3.5798 0
M  V30 1557 O 145.302 3.72148 -4.30691 0
M  V30 1558 N 146.504 5.01683 -2.92053 0
M  V30 1559 H 149.269 0.947329 -2.84334 0
M  V30 1560 H 146.83 0.371629 -1.57577 0
M  V30 1561 H 148.822 3.3958 -2.20154 0
M  V30 1562 H 147.392 2.84637 -1.2923 0
M  V30 1563 H 146.612 1.75925 -3.52766 0
M  V30 1564 H 147.9 2.67939 -4.32534 0
M  V30 1565 H 147.298 5.15564 -2.32832 0
M  V30 1566 H 145.855 5.77181 -3.0283 0
M  V30 1567 N 149.288 1.51039 0.449983 0
M  V30 1568 C 150.528 1.64732 1.21007 0
M  V30 1569 C 150.892 0.349865 1.88785 0
M  V30 1570 O 152.093 0.362431 2.66345 0
M  V30 1571 C 150.364 2.80902 2.20973 0
M  V30 1572 S 151.923 3.14851 3.05638 0
M  V30 1573 H 148.741 0.5805 0.410538 0
M  V30 1574 H 151.343 1.88901 0.503634 0
M  V30 1575 H 150.047 3.73627 1.69796 0
M  V30 1576 H 149.578 2.58882 2.96215 0
M  V30 1577 H 151.593 2.60306 4.22439 0
M  V30 1578 N 150.766 -0.704594 1.40972 0
M  V30 1579 C 152.012 -1.46675 1.40051 0
M  V30 1580 C 152.345 -1.94199 0.00641102 0
M  V30 1581 O 151.62 -1.68916 -0.964235 0
M  V30 1582 C 151.903 -2.68505 2.39952 0
M  V30 1583 C 151.756 -2.26805 3.88432 0
M  V30 1584 C 153.075 -3.70686 2.37233 0
M  V30 1585 H 150.194 -0.532015 0.510028 0
M  V30 1586 H 152.836 -0.803255 1.72185 0
M  V30 1587 H 150.986 -3.25114 2.1268 0
M  V30 1588 H 152.658 -1.75592 4.26574 0
M  V30 1589 H 150.901 -1.58685 4.03734 0
M  V30 1590 H 151.572 -3.14181 4.53866 0
M  V30 1591 H 154.048 -3.23731 2.61415 0
M  V30 1592 H 152.924 -4.53553 3.09162 0
M  V30 1593 H 153.185 -4.19754 1.38777 0
M  V30 1594 N 152.244 -1.26651 -0.937939 0
M  V30 1595 C 153.492 -1.12165 -1.68118 0
M  V30 1596 C 153.813 0.334983 -1.92101 0
M  V30 1597 O 153.083 1.23583 -1.52 0
M  V30 1598 H 151.663 -0.412093 -0.623048 0
M  V30 1599 H 154.325 -1.59027 -1.12678 0
M  V30 1600 H 153.421 -1.64289 -2.6536 0
M  V30 1601 N 153.722 1.14298 -1.08507 0
M  V30 1602 C 154.685 2.17607 -0.719711 0
M  V30 1603 C 155.685 1.58907 0.245997 0
M  V30 1604 O 156.875 1.74181 0.0254081 0
M  V30 1605 C 154.007 3.40842 -0.0627695 0
M  V30 1606 H 155.2 2.51443 -1.63452 0
M  V30 1607 H 152.753 1.28963 -0.88307 0
M  V30 1608 H 153.488 3.12587 0.863716 0
M  V30 1609 H 153.273 3.84713 -0.757504 0
M  V30 1610 H 154.763 4.17221 0.177786 0
M  V30 1611 N 155.201 0.870884 1.31352 0
M  V30 1612 C 156.45 0.478408 1.95944 0
M  V30 1613 C 156.763 -0.974493 1.69597 0
M  V30 1614 O 157.969 -1.47316 2.28058 0
M  V30 1615 C 156.425 0.804609 3.50791 0
M  V30 1616 C 156.033 2.27433 3.85977 0
M  V30 1617 C 157.777 0.480648 4.2177 0
M  V30 1618 C 155.684 2.5429 5.33939 0
M  V30 1619 H 154.614 0.175175 0.733369 0
M  V30 1620 H 157.265 1.06391 1.4951 0
M  V30 1621 H 155.647 0.148347 3.95722 0
M  V30 1622 H 156.821 2.97373 3.52002 0
M  V30 1623 H 155.136 2.56442 3.28065 0
M  V30 1624 H 157.733 0.658519 5.30629 0
M  V30 1625 H 158.076 -0.578979 4.12254 0
M  V30 1626 H 158.609 1.09349 3.82476 0
M  V30 1627 H 155.348 3.58939 5.48491 0
M  V30 1628 H 154.868 1.88945 5.69263 0
M  V30 1629 H 156.547 2.39066 6.01212 0
M  V30 1630 N 156.679 -1.44442 0.630414 0
M  V30 1631 C 157.925 -2.02351 0.134816 0
M  V30 1632 C 158.258 -1.4947 -1.23986 0
M  V30 1633 O 157.533 -0.678475 -1.82283 0
M  V30 1634 C 157.816 -3.59898 0.120707 0
M  V30 1635 C 157.669 -4.23063 1.52767 0
M  V30 1636 C 158.988 -4.36585 -0.555127 0
M  V30 1637 H 156.107 -0.73527 0.0504646 0
M  V30 1638 H 158.749 -1.72022 0.806751 0
M  V30 1639 H 156.899 -3.85868 -0.451477 0
M  V30 1640 H 158.571 -4.08202 2.14869 0
M  V30 1641 H 156.814 -3.80586 2.08175 0
M  V30 1642 H 157.485 -5.32071 1.46984 0
M  V30 1643 H 159.961 -4.16044 -0.0685429 0
M  V30 1644 H 158.837 -5.46294 -0.534185 0
M  V30 1645 H 159.098 -4.11138 -1.62535 0
M  V30 1646 N 158.157 -0.370918 -1.53173 0
M  V30 1647 C 159.12 0.460778 -2.24521 0
M  V30 1648 C 160.12 1.00536 -1.25496 0
M  V30 1649 O 161.31 0.890266 -1.49733 0
M  V30 1650 C 158.442 1.64457 -2.98608 0
M  V30 1651 H 159.635 -0.163613 -2.99453 0
M  V30 1652 H 157.188 -0.122699 -1.55818 0
M  V30 1653 H 157.923 2.30691 -2.2793 0
M  V30 1654 H 157.708 1.26099 -3.7127 0
M  V30 1655 H 159.198 2.23384 -3.5283 0
M  V30 1656 N 159.635 1.57281 -0.100228 0
M  V30 1657 C 160.863 1.98879 0.570509 0
M  V30 1658 C 161.278 0.979476 1.61405 0
M  V30 1659 O 160.635 -0.0302288 1.82475 0
M  V30 1660 C 160.686 3.4052 1.2136 0
M  V30 1661 O 160.407 4.37588 0.211786 0
M  V30 1662 C 161.908 3.97149 1.96945 0
M  V30 1663 H 159.128 0.653428 0.152555 0
M  V30 1664 H 161.672 2.03697 -0.18103 0
M  V30 1665 H 159.827 3.367 1.91603 0
M  V30 1666 H 160.241 5.20118 0.676607 0
M  V30 1667 H 161.715 4.98393 2.37294 0
M  V30 1668 H 162.192 3.3525 2.83733 0
M  V30 1669 H 162.798 4.04458 1.31506 0
M  V30 1670 N 161.113 -0.173488 1.56642 0
M  V30 1671 C 162.076 -1.19859 1.95362 0
M  V30 1672 C 163.076 -1.37296 0.83704 0
M  V30 1673 O 164.266 -1.34739 1.10413 0
M  V30 1674 C 161.398 -2.56405 2.24654 0
M  V30 1675 H 162.591 -0.867062 2.87092 0
M  V30 1676 H 160.144 -0.415853 1.50666 0
M  V30 1677 H 160.879 -2.94576 1.35631 0
M  V30 1678 H 160.664 -2.45115 3.06041 0
M  V30 1679 H 162.154 -3.30287 2.5554 0
M  V30 1680 N 162.591 -1.51276 -0.441967 0
M  V30 1681 C 163.84 -1.6295 -1.18871 0
M  V30 1682 C 164.153 -0.349312 -1.92456 0
M  V30 1683 O 165.359 -0.345355 -2.69295 0
M  V30 1684 C 163.815 -2.87759 -2.16155 0
M  V30 1685 C 163.423 -4.22764 -1.48239 0
M  V30 1686 C 165.167 -3.08788 -2.91291 0
M  V30 1687 C 163.074 -5.38728 -2.4398 0
M  V30 1688 H 162.004 -0.606913 -0.447406 0
M  V30 1689 H 164.655 -1.77739 -0.456205 0
M  V30 1690 H 163.037 -2.66593 -2.92821 0
M  V30 1691 H 164.211 -4.54293 -0.771635 0
M  V30 1692 H 162.526 -4.07575 -0.852741 0
M  V30 1693 H 165.123 -3.92599 -3.63002 0
M  V30 1694 H 165.466 -2.21679 -3.5237 0
M  V30 1695 H 165.999 -3.30272 -2.21733 0
M  V30 1696 H 162.738 -6.28082 -1.87598 0
M  V30 1697 H 162.258 -5.1158 -3.13123 0
M  V30 1698 H 163.937 -5.70489 -3.05207 0
M  V30 1699 N 164.069 0.697108 -1.41344 0
M  V30 1700 C 164.999 1.82353 -1.45841 0
M  V30 1701 C 165.98 1.67115 -0.317247 0
M  V30 1702 O 167.165 1.86871 -0.528474 0
M  V30 1703 C 164.295 3.20476 -1.33838 0
M  V30 1704 C 163.249 3.50415 -2.4575 0
M  V30 1705 C 162.575 4.87878 -2.18813 0
M  V30 1706 C 163.875 3.49546 -3.88091 0
M  V30 1707 H 165.569 1.78846 -2.40113 0
M  V30 1708 H 163.115 0.859028 -1.15571 0
M  V30 1709 H 165.068 3.98988 -1.35596 0
M  V30 1710 H 163.792 3.24604 -0.360498 0
M  V30 1711 H 162.451 2.74253 -2.43271 0
M  V30 1712 H 162.099 4.8863 -1.19371 0
M  V30 1713 H 161.799 5.08875 -2.93803 0
M  V30 1714 H 163.323 5.68702 -2.22284 0
M  V30 1715 H 164.737 4.18066 -3.92293 0
M  V30 1716 H 163.134 3.82075 -4.62751 0
M  V30 1717 H 164.204 2.48552 -4.16353 0
M  V30 1718 N 165.547 1.27147 0.931209 0
M  V30 1719 C 166.772 1.16191 1.71797 0
M  V30 1720 C 167.197 -0.278004 1.86034 0
M  V30 1721 O 166.555 -1.20137 1.35782 0
M  V30 1722 C 166.603 1.84673 3.09723 0
M  V30 1723 O 165.707 1.14231 3.96264 0
M  V30 1724 H 165.048 0.404303 0.526721 0
M  V30 1725 H 167.578 1.68152 1.1656 0
M  V30 1726 H 167.588 1.91893 3.60057 0
M  V30 1727 H 166.263 2.89421 2.98677 0
M  V30 1728 H 164.84 1.15056 3.54706 0
M  V30 1729 N 167.025 -1.13721 1.09112 0
M  V30 1730 C 168.273 -1.84559 0.823562 0
M  V30 1731 C 168.594 -1.83754 -0.652658 0
M  V30 1732 O 167.864 -1.29102 -1.47342 0
M  V30 1733 H 166.444 -0.683376 0.301673 0
M  V30 1734 H 169.106 -1.37771 1.37859 0
M  V30 1735 H 168.202 -2.8917 1.17419 0
M  V30 1736 N 168.503 -0.877838 -1.30888 0
M  V30 1737 C 169.752 -0.488793 -1.95688 0
M  V30 1738 C 170.065 0.965485 -1.70111 0
M  V30 1739 O 171.271 1.46104 -2.28836 0
M  V30 1740 C 169.727 -0.823201 -3.50359 0
M  V30 1741 C 169.335 -2.29477 -3.84765 0
M  V30 1742 C 171.079 -0.503009 -4.21509 0
M  V30 1743 C 168.986 -2.57118 -5.32583 0
M  V30 1744 H 167.916 -0.179062 -0.732429 0
M  V30 1745 H 170.567 -1.07183 -1.48943 0
M  V30 1746 H 168.949 -0.169331 -3.95638 0
M  V30 1747 H 170.123 -2.99236 -3.5042 0
M  V30 1748 H 168.438 -2.58178 -3.267 0
M  V30 1749 H 171.035 -0.68665 -5.30273 0
M  V30 1750 H 171.378 0.557109 -4.12555 0
M  V30 1751 H 171.911 -1.11376 -3.8189 0
M  V30 1752 H 168.65 -3.61843 -5.4658 0
M  V30 1753 H 168.17 -1.91961 -5.68253 0
M  V30 1754 H 169.849 -2.42251 -5.99936 0
M  V30 1755 N 169.982 1.44106 -0.638065 0
M  V30 1756 C 171.21 2.06336 -0.152615 0
M  V30 1757 C 171.625 1.47731 1.17563 0
M  V30 1758 O 170.982 0.602806 1.72257 0
M  V30 1759 C 171.033 3.61479 -0.0391491 0
M  V30 1760 O 170.754 4.17903 -1.31487 0
M  V30 1761 C 172.255 4.40757 0.474176 0
M  V30 1762 H 169.475 0.665862 -0.0828776 0
M  V30 1763 H 172.019 1.84862 -0.87443 0
M  V30 1764 H 170.174 3.82191 0.633142 0
M  V30 1765 H 170.588 5.11416 -1.16421 0
M  V30 1766 H 172.062 5.49707 0.502562 0
M  V30 1767 H 172.539 4.12697 1.50258 0
M  V30 1768 H 173.145 4.24979 -0.165102 0
M  V30 1769 N 171.46 0.379036 1.52974 0
M  V30 1770 C 172.685 -0.209353 2.06341 0
M  V30 1771 C 173.11 -1.40583 1.24972 0
M  V30 1772 O 172.468 -1.79246 0.272155 0
M  V30 1773 C 172.516 -0.567786 3.56102 0
M  V30 1774 O 171.62 -1.66318 3.77375 0
M  V30 1775 H 170.961 -0.0272919 0.663439 0
M  V30 1776 H 173.491 0.543536 1.97248 0
M  V30 1777 H 173.501 -0.835003 3.99364 0
M  V30 1778 H 172.176 0.307013 4.14765 0
M  V30 1779 H 170.753 -1.39048 3.46006 0
M  V30 1780 N 172.938 -1.57226 0.108567 0
M  V30 1781 C 174.163 -1.99604 -0.563303 0
M  V30 1782 C 174.588 -0.987563 -1.6009 0
M  V30 1783 O 173.946 0.0421687 -1.81251 0
M  V30 1784 C 173.994 -3.40902 -1.17552 0
M  V30 1785 O 173.098 -3.42896 -2.2912 0
M  V30 1786 H 172.439 -0.648704 -0.1417 0
M  V30 1787 H 174.969 -2.03679 0.193961 0
M  V30 1788 H 174.979 -3.78886 -1.51357 0
M  V30 1789 H 173.654 -4.1382 -0.415445 0
M  V30 1790 H 172.231 -3.1672 -1.96832 0
M  V30 1791 N 174.416 0.165178 -1.56732 0
M  V30 1792 C 175.346 1.20651 -1.99914 0
M  V30 1793 C 176.327 1.45827 -0.875705 0
M  V30 1794 O 177.512 1.57057 -1.14223 0
M  V30 1795 C 174.642 2.54401 -2.36427 0
M  V30 1796 C 173.596 2.43782 -3.51787 0
M  V30 1797 C 172.922 3.82078 -3.7406 0
M  V30 1798 C 174.222 1.93732 -4.85041 0
M  V30 1799 H 175.916 0.847534 -2.87154 0
M  V30 1800 H 173.462 0.40625 -1.38151 0
M  V30 1801 H 175.415 3.27458 -2.65234 0
M  V30 1802 H 174.139 2.92098 -1.46103 0
M  V30 1803 H 172.798 1.73178 -3.23117 0
M  V30 1804 H 172.446 4.17179 -2.81017 0
M  V30 1805 H 172.146 3.7584 -4.51684 0
M  V30 1806 H 173.67 4.56712 -4.05274 0
M  V30 1807 H 175.084 2.56569 -5.12684 0
M  V30 1808 H 173.481 1.98428 -5.66345 0
M  V30 1809 H 174.551 0.891962 -4.76626 0
M  V30 1810 N 175.894 1.51508 0.433938 0
M  V30 1811 C 177.122 1.68157 1.20543 0
M  V30 1812 C 177.537 0.380362 1.84929 0
M  V30 1813 O 176.894 -0.641446 1.70856 0
M  V30 1814 C 176.945 2.79965 2.28696 0
M  V30 1815 O 176.666 4.05045 1.66943 0
M  V30 1816 C 178.167 3.07912 3.18912 0
M  V30 1817 H 175.387 0.56421 0.363191 0
M  V30 1818 H 177.931 1.97941 0.513754 0
M  V30 1819 H 176.086 2.5277 2.93574 0
M  V30 1820 H 176.5 4.67165 2.38448 0
M  V30 1821 H 177.974 3.89719 3.90926 0
M  V30 1822 H 178.451 2.20456 3.79863 0
M  V30 1823 H 179.057 3.36779 2.59731 0
M  V30 1824 N 177.372 -0.689602 1.41712 0
M  V30 1825 C 178.62 -1.4468 1.4111 0
M  V30 1826 C 178.941 -1.94986 0.0232196 0
M  V30 1827 O 178.211 -1.72097 -0.935913 0
M  V30 1828 H 176.791 -0.536847 0.519427 0
M  V30 1829 H 179.453 -0.815825 1.77004 0
M  V30 1830 H 178.549 -2.30706 2.10193 0
M  V30 1831 N 178.85 -1.27639 -0.924453 0
M  V30 1832 C 179.798 -1.10485 -2.04685 0
M  V30 1833 C 180.792 -0.0270421 -1.69378 0
M  V30 1834 O 181.998 -0.185008 -1.79047 0
M  V30 1835 H 178.373 -0.340546 -0.670472 0
M  V30 1836 H 180.344 -2.05566 -2.16298 0
M  V30 1837 C 179.093 -0.772229 -3.39016 0
M  V30 1838 H 178.416 -1.59351 -3.66671 0
M  V30 1839 H 179.856 -0.692097 -4.18313 0
M  V30 1840 C 178.315 0.523554 -3.32807 0
M  V30 1841 O 178.845 1.55702 -3.70297 0
M  V30 1842 N 177.051 0.520363 -2.85903 0
M  V30 1843 H 176.598 -0.32107 -2.55591 0
M  V30 1844 H 176.556 1.38742 -2.82131 0
M  V30 1845 N 180.328 1.1314 -1.09713 0
M  V30 1846 C 181.553 1.88862 -0.857081 0
M  V30 1847 C 181.978 1.78729 0.586304 0
M  V30 1848 O 181.336 1.13692 1.41222 0
M  V30 1849 C 181.384 3.36325 -1.30069 0
M  V30 1850 O 180.488 4.09815 -0.461007 0
M  V30 1851 H 179.829 0.587108 -0.310162 0
M  V30 1852 H 182.359 1.43129 -1.46203 0
M  V30 1853 H 182.369 3.87157 -1.28738 0
M  V30 1854 H 181.044 3.43017 -2.35185 0
M  V30 1855 H 179.621 3.68986 -0.538888 0
M  V30 1856 N 181.806 0.884767 1.30421 0
M  V30 1857 C 182.736 0.367574 2.30589 0
M  V30 1858 C 183.717 -0.549464 1.60981 0
M  V30 1859 O 184.902 -0.46336 1.88591 0
M  V30 1860 C 182.032 -0.418944 3.44764 0
M  V30 1861 C 180.986 0.406316 4.26067 0
M  V30 1862 C 180.312 -0.506793 5.32293 0
M  V30 1863 C 181.612 1.64832 4.95608 0
M  V30 1864 H 183.306 1.20462 2.74097 0
M  V30 1865 H 180.852 0.580695 1.31772 0
M  V30 1866 H 182.805 -0.791395 4.13902 0
M  V30 1867 H 181.529 -1.28964 3.0006 0
M  V30 1868 H 180.188 0.760903 3.58617 0
M  V30 1869 H 179.836 -1.37519 4.83836 0
M  V30 1870 H 179.536 0.0415828 5.87585 0
M  V30 1871 H 181.06 -0.875764 6.04287 0
M  V30 1872 H 182.474 1.34646 5.57264 0
M  V30 1873 H 180.871 2.13688 5.60765 0
M  V30 1874 H 181.941 2.39284 4.21748 0
M  V30 1875 N 183.284 -1.43765 0.645699 0
M  V30 1876 C 184.532 -2.01499 0.155731 0
M  V30 1877 C 184.853 -1.51151 -1.232 0
M  V30 1878 O 184.123 -0.721044 -1.82148 0
M  V30 1879 H 182.703 -0.745003 0.0545817 0
M  V30 1880 H 185.365 -1.76075 0.835677 0
M  V30 1881 H 184.461 -3.1181 0.134577 0
M  V30 1882 N 184.763 -0.387143 -1.52771 0
M  V30 1883 C 186.179 -0.037007 -1.59557 0
M  V30 1884 C 186.379 1.44801 -1.40124 0
M  V30 1885 O 185.435 2.21227 -1.21716 0
M  V30 1886 C 186.748 -0.512256 -2.96305 0
M  V30 1887 C 188.296 -0.468328 -3.09476 0
M  V30 1888 C 188.771 -0.919731 -4.4867 0
M  V30 1889 N 190.262 -0.875656 -4.54848 0
M  V30 1890 C 190.997 -1.19637 -5.6078 0
M  V30 1891 N 190.493 -1.58745 -6.74368 0
M  V30 1892 N 192.286 -1.11776 -5.50874 0
M  V30 1893 H 184.437 -1.35395 -1.63652 0
M  V30 1894 H 186.7 -0.554818 -0.768688 0
M  V30 1895 H 186.406 -1.54935 -3.15734 0
M  V30 1896 H 186.28 0.089805 -3.77093 0
M  V30 1897 H 188.667 0.559671 -2.89744 0
M  V30 1898 H 188.748 -1.10616 -2.30646 0
M  V30 1899 H 188.392 -1.94595 -4.69143 0
M  V30 1900 H 188.322 -0.258927 -5.25963 0
M  V30 1901 H 190.813 -0.587843 -3.733 0
M  V30 1902 H 191.126 -1.81586 -7.51163 0
M  V30 1903 H 189.471 -1.6263 -6.75705 0
M  V30 1904 H 192.662 -0.811264 -4.61016 0
M  V30 1905 H 192.835 -1.37103 -6.3333 0
M  V30 1906 N 186.241 1.57166 -0.116904 0
M  V30 1907 C 187.189 2.16457 0.851418 0
M  V30 1908 C 188.183 1.11323 1.27686 0
M  V30 1909 O 189.389 1.2963 1.24884 0
M  V30 1910 H 185.764 0.69271 0.292672 0
M  V30 1911 H 187.735 2.96605 0.32685 0
M  V30 1912 C 186.484 2.77689 2.09246 0
M  V30 1913 H 185.807 3.58285 1.77402 0
M  V30 1914 H 187.247 3.22716 2.7501 0
M  V30 1915 C 185.706 1.74667 2.88085 0
M  V30 1916 O 186.236 1.19877 3.83396 0
M  V30 1917 N 184.442 1.44656 2.52038 0
M  V30 1918 H 183.989 1.89402 1.74599 0
M  V30 1919 H 183.947 0.759675 3.05084 0
M  V30 1920 N 187.719 -0.156864 1.56817 0
M  V30 1921 C 188.996 -0.899244 1.73704 0
M  V30 1922 C 189.376 -1.99771 0.682254 0
M  V30 1923 O 188.724 -2.26515 -0.300522 0
M  V30 1924 C 188.934 -1.45075 3.17418 0
M  V30 1925 C 190.282 -1.91802 3.7881 0
M  V30 1926 O 191.306 -1.54838 3.20786 0
M  V30 1927 O 190.165 -2.5994 4.80722 0
M  V30 1928 H 187.259 -0.424267 0.709878 0
M  V30 1929 H 189.805 -0.143561 1.69092 0
M  V30 1930 H 188.577 -0.660846 3.85679 0
M  V30 1931 H 188.2 -2.27021 3.26416 0
M  V30 1932 N 189.197 -1.51736 -0.425897 0
M  V30 1933 C 190.127 -1.76827 -1.52494 0
M  V30 1934 C 191.108 -0.618524 -1.58456 0
M  V30 1935 O 192.293 -0.862416 -1.74 0
M  V30 1936 C 189.423 -1.90374 -2.90474 0
M  V30 1937 C 188.377 -3.0588 -2.99369 0
M  V30 1938 C 187.703 -3.04625 -4.3944 0
M  V30 1939 C 189.003 -4.45644 -2.72394 0
M  V30 1940 H 190.697 -2.68855 -1.31748 0
M  V30 1941 H 188.243 -1.29372 -0.632362 0
M  V30 1942 H 190.196 -2.0651 -3.6733 0
M  V30 1943 H 188.92 -0.95004 -3.12477 0
M  V30 1944 H 187.579 -2.89467 -2.24954 0
M  V30 1945 H 187.227 -2.0701 -4.58428 0
M  V30 1946 H 186.927 -3.82195 -4.46319 0
M  V30 1947 H 188.451 -3.22869 -5.18255 0
M  V30 1948 H 189.865 -4.62348 -3.38979 0
M  V30 1949 H 188.262 -5.25006 -2.9067 0
M  V30 1950 H 189.332 -4.54893 -1.67929 0
M  V30 1951 N 190.675 0.682077 -1.42076 0
M  V30 1952 C 191.638 1.77756 -1.44691 0
M  V30 1953 C 192.638 1.5726 -0.335535 0
M  V30 1954 O 193.828 1.63686 -0.596037 0
M  V30 1955 C 190.96 3.16301 -1.27146 0
M  V30 1956 H 192.153 1.76826 -2.42224 0
M  V30 1957 H 189.706 0.891012 -1.28416 0
M  V30 1958 H 190.441 3.22862 -0.305075 0
M  V30 1959 H 190.226 3.32581 -2.07683 0
M  V30 1960 H 191.716 3.96241 -1.31843 0
M  V30 1961 N 192.153 1.28127 0.917671 0
M  V30 1962 C 193.43 1.05761 1.64542 0
M  V30 1963 C 193.81 -0.404344 2.07191 0
M  V30 1964 O 193.158 -1.38963 1.81388 0
M  V30 1965 C 193.368 2.02857 2.83989 0
M  V30 1966 C 194.716 2.32786 3.551 0
M  V30 1967 O 195.74 2.0091 2.94132 0
M  V30 1968 O 194.599 2.87169 4.64969 0
M  V30 1969 H 191.693 0.403916 0.721652 0
M  V30 1970 H 194.239 1.39431 0.967322 0
M  V30 1971 H 193.011 3.01407 2.49538 0
M  V30 1972 H 192.634 1.69809 3.59514 0
M  V30 1973 N 193.631 -1.12557 1.10312 0
M  V30 1974 C 194.879 -1.83675 0.843091 0
M  V30 1975 C 195.2 -1.84435 -0.633131 0
M  V30 1976 O 194.47 -1.30657 -1.45964 0
M  V30 1977 H 193.05 -0.680138 0.308904 0
M  V30 1978 H 195.712 -1.36301 1.39313 0
M  V30 1979 H 194.808 -2.87908 1.2048 0
M  V30 1980 N 195.109 -0.891671 -1.2995 0
M  V30 1981 C 196.355 -0.514261 -1.96171 0
M  V30 1982 C 196.688 0.935506 -1.70182 0
M  V30 1983 O 195.963 1.66204 -1.01028 0
M  V30 1984 C 196.246 -0.797719 -3.51153 0
M  V30 1985 C 196.099 -2.2986 -3.86632 0
M  V30 1986 C 197.418 -0.278749 -4.39216 0
M  V30 1987 H 194.537 -0.188314 -0.712535 0
M  V30 1988 H 197.179 -1.11689 -1.53706 0
M  V30 1989 H 195.329 -0.284826 -3.87455 0
M  V30 1990 H 197.001 -2.88042 -3.60319 0
M  V30 1991 H 195.244 -2.76257 -3.34462 0
M  V30 1992 H 195.915 -2.44753 -4.94773 0
M  V30 1993 H 198.391 -0.717825 -4.09862 0
M  V30 1994 H 197.267 -0.506353 -5.46559 0
M  V30 1995 H 197.528 0.820266 -4.34424 0
M  V30 1996 N 196.587 1.43421 -0.653314 0
M  V30 1997 C 197.535 2.32546 0.0501531 0
M  V30 1998 C 198.529 1.48617 0.812985 0
M  V30 1999 O 199.735 1.64825 0.723375 0
M  V30 2000 H 196.11 0.751185 0.0350032 0
M  V30 2001 H 198.081 2.89602 -0.719261 0
M  V30 2002 C 196.83 3.32925 1.00279 0
M  V30 2003 H 196.153 3.97532 0.425236 0
M  V30 2004 H 197.593 3.9792 1.46409 0
M  V30 2005 C 196.052 2.63532 2.09886 0
M  V30 2006 O 196.582 2.45092 3.18265 0
M  V30 2007 N 194.788 2.22905 1.86445 0
M  V30 2008 H 194.335 2.38103 0.98309 0
M  V30 2009 H 194.293 1.76805 2.59976 0
M  V30 2010 N 198.065 0.39524 1.52563 0
M  V30 2011 C 199.29 -0.187456 2.06551 0
M  V30 2012 C 199.715 -1.39249 1.26457 0
M  V30 2013 O 199.073 -1.78947 0.291151 0
M  V30 2014 C 199.121 -0.529985 3.56684 0
M  V30 2015 O 198.225 -1.62307 3.79118 0
M  V30 2016 H 197.566 -0.0202537 0.663691 0
M  V30 2017 H 200.096 0.564426 1.96661 0
M  V30 2018 H 200.106 -0.792598 4.00227 0
M  V30 2019 H 198.781 0.350987 4.14416 0
M  V30 2020 H 197.358 -1.3537 3.47461 0
M  V30 2021 N 199.544 -1.57102 0.125237 0
M  V30 2022 C 200.792 -1.95021 -0.530198 0
M  V30 2023 C 201.113 -1.00982 -1.66816 0
M  V30 2024 O 200.383 -0.0672693 -1.95784 0
M  V30 2025 H 198.963 -0.720046 -0.198853 0
M  V30 2026 H 201.625 -1.93916 0.19564 0
M  V30 2027 H 200.721 -2.98211 -0.920681 0
M  V30 2028 N 201.022 0.148545 -1.56898 0
M  V30 2029 C 201.954 1.20852 -1.9475 0
M  V30 2030 C 202.967 1.39265 -0.843152 0
M  V30 2031 O 204.156 1.38864 -1.12156 0
M  V30 2032 C 201.256 2.57362 -2.20495 0
M  V30 2033 C 200.429 2.59947 -3.51776 0
M  V30 2034 C 199.488 3.77984 -3.6608 0
M  V30 2035 O 198.514 3.62929 -4.38487 0
M  V30 2036 N 199.716 4.95375 -3.02629 0
M  V30 2037 H 202.481 0.886804 -2.86279 0
M  V30 2038 H 200.042 0.338121 -1.5833 0
M  V30 2039 H 202.034 3.34833 -2.27307 0
M  V30 2040 H 200.604 2.81832 -1.35238 0
M  V30 2041 H 199.824 1.68403 -3.56419 0
M  V30 2042 H 201.112 2.58704 -4.38121 0
M  V30 2043 H 200.51 5.10509 -2.43715 0
M  V30 2044 H 199.067 5.70627 -3.15004 0
M  V30 2045 N 202.5 1.5196 0.417844 0
M  V30 2046 C 203.748 1.65263 1.16329 0
M  V30 2047 C 204.069 0.380634 1.91249 0
M  V30 2048 O 203.339 -0.604214 1.86349 0
M  V30 2049 H 201.919 0.60912 0.432414 0
M  V30 2050 H 204.581 1.88969 0.477162 0
M  V30 2051 H 203.677 2.4896 1.88217 0
M  V30 2052 N 203.978 -0.674533 1.42435 0
M  V30 2053 C 204.908 -1.80009 1.48724 0
M  V30 2054 C 205.889 -1.6659 0.343793 0
M  V30 2055 O 207.074 -1.86007 0.558137 0
M  V30 2056 C 204.204 -3.18306 1.38919 0
M  V30 2057 C 203.158 -3.46461 2.51294 0
M  V30 2058 C 202.484 -4.84335 2.26547 0
M  V30 2059 C 203.784 -3.43328 3.93603 0
M  V30 2060 H 205.478 -1.75004 2.42928 0
M  V30 2061 H 203.024 -0.840533 1.16923 0
M  V30 2062 H 204.977 -3.9678 1.41927 0
M  V30 2063 H 203.701 -3.2399 0.412094 0
M  V30 2064 H 202.36 -2.70348 2.47604 0
M  V30 2065 H 202.008 -4.86669 1.2713 0
M  V30 2066 H 201.708 -5.04136 3.01861 0
M  V30 2067 H 203.232 -5.65094 2.31304 0
M  V30 2068 H 204.646 -4.11772 3.98894 0
M  V30 2069 H 203.043 -3.74664 4.68771 0
M  V30 2070 H 204.113 -2.41897 4.20255 0
M  V30 2071 N 205.456 -1.28612 -0.910864 0
M  V30 2072 C 206.704 -1.15705 -1.65701 0
M  V30 2073 C 207.025 0.29416 -1.92769 0
M  V30 2074 O 206.295 1.20331 -1.54588 0
M  V30 2075 H 204.875 -0.425216 -0.614167 0
M  V30 2076 H 207.537 -1.61381 -1.0928 0
M  V30 2077 H 206.633 -1.6988 -2.61815 0
M  V30 2078 N 206.934 1.1197 -1.10907 0
M  V30 2079 C 208.183 1.82947 -0.849302 0
M  V30 2080 C 208.496 1.85275 0.627112 0
M  V30 2081 O 209.702 2.52296 1.00295 0
M  V30 2082 C 208.158 3.28529 -1.46959 0
M  V30 2083 C 207.766 3.34546 -2.97965 0
M  V30 2084 C 209.51 4.04443 -1.28942 0
M  V30 2085 C 207.417 4.74491 -3.53004 0
M  V30 2086 H 206.347 0.685477 -0.314065 0
M  V30 2087 H 208.998 1.2604 -1.33365 0
M  V30 2088 H 207.38 3.85333 -0.912917 0
M  V30 2089 H 208.554 2.87654 -3.59989 0
M  V30 2090 H 206.869 2.72108 -3.15192 0
M  V30 2091 H 209.466 5.07787 -1.67502 0
M  V30 2092 H 209.809 4.15656 -0.231456 0
M  V30 2093 H 210.342 3.5401 -1.81443 0
M  V30 2094 H 207.081 4.68474 -4.58489 0
M  V30 2095 H 206.601 5.21816 -2.9575 0
M  V30 2096 H 208.28 5.4344 -3.51115 0
M  V30 2097 N 208.412 0.89855 1.29475 0
M  V30 2098 C 209.322 0.379974 2.31502 0
M  V30 2099 C 210.338 -0.524695 1.659 0
M  V30 2100 O 211.514 -0.414551 1.97087 0
M  V30 2101 C 208.579 -0.385138 3.44554 0
M  V30 2102 C 207.64 0.550914 4.2575 0
M  V30 2103 C 206.873 -0.177778 5.33404 0
M  V30 2104 O 207.096 -1.40189 5.52904 0
M  V30 2105 O 206.03 0.479106 5.9999 0
M  V30 2106 H 209.856 1.22639 2.77837 0
M  V30 2107 H 207.441 0.662834 1.33891 0
M  V30 2108 H 209.323 -0.817841 4.13388 0
M  V30 2109 H 207.998 -1.20763 3.0033 0
M  V30 2110 H 206.905 1.03271 3.59564 0
M  V30 2111 H 208.238 1.33979 4.73614 0
M  V30 2112 N 209.89 -1.43072 0.660911 0
M  V30 2113 C 211.139 -2.00942 0.174735 0
M  V30 2114 C 211.452 -1.52797 -1.22117 0
M  V30 2115 O 212.658 -2.02991 -1.80297 0
M  V30 2116 C 211.114 -3.58948 0.261559 0
M  V30 2117 C 210.722 -4.16085 1.66064 0
M  V30 2118 C 212.466 -4.24173 -0.166617 0
M  V30 2119 C 210.373 -5.6641 1.70098 0
M  V30 2120 H 209.303 -0.751483 0.0615631 0
M  V30 2121 H 211.954 -1.63955 0.824069 0
M  V30 2122 H 210.336 -3.93372 -0.455421 0
M  V30 2123 H 211.51 -3.93147 2.40359 0
M  V30 2124 H 209.825 -3.6326 2.03546 0
M  V30 2125 H 212.422 -5.34471 -0.156433 0
M  V30 2126 H 212.765 -3.98647 -1.19943 0
M  V30 2127 H 213.298 -3.94659 0.498875 0
M  V30 2128 H 210.037 -5.96715 2.71315 0
M  V30 2129 H 209.557 -5.91382 1.00139 0
M  V30 2130 H 211.236 -6.30585 1.44816 0
M  V30 2131 N 211.368 -0.403325 -1.52352 0
M  V30 2132 C 212.617 0.175668 -2.00934 0
M  V30 2133 C 212.93 1.46718 -1.29356 0
M  V30 2134 O 214.136 2.12708 -1.68724 0
M  V30 2135 C 212.592 0.363612 -3.58058 0
M  V30 2136 C 212.2 -0.915472 -4.38547 0
M  V30 2137 C 213.944 0.89821 -4.14888 0
M  V30 2138 C 211.851 -0.695035 -5.87302 0
M  V30 2139 H 210.781 0.0694234 -0.750797 0
M  V30 2140 H 213.432 -0.527879 -1.75743 0
M  V30 2141 H 211.814 1.12935 -3.79555 0
M  V30 2142 H 212.988 -1.68691 -4.28812 0
M  V30 2143 H 211.303 -1.37606 -3.93006 0
M  V30 2144 H 213.9 1.07907 -5.23699 0
M  V30 2145 H 214.243 1.87126 -3.71873 0
M  V30 2146 H 214.776 0.191681 -3.97338 0
M  V30 2147 H 211.515 -1.63948 -6.34666 0
M  V30 2148 H 211.035 0.0372116 -5.99788 0
M  V30 2149 H 212.714 -0.33497 -6.46132 0
M  V30 2150 N 212.846 1.57033 -0.133567 0
M  V30 2151 C 214.094 1.953 0.519848 0
M  V30 2152 C 214.415 1.01866 1.66278 0
M  V30 2153 O 213.685 0.0776513 1.95746 0
M  V30 2154 H 212.265 0.721091 0.195032 0
M  V30 2155 H 214.927 1.93809 -0.205921 0
M  V30 2156 H 214.023 2.98695 0.904854 0
M  V30 2157 N 214.325 -0.140222 1.56975 0
M  V30 2158 C 215.553 -0.866437 1.87884 0
M  V30 2159 C 215.968 -1.74428 0.722517 0
M  V30 2160 O 215.325 -1.79891 -0.30749 0
M  V30 2161 C 215.376 -1.71753 3.18093 0
M  V30 2162 O 215.097 -0.875056 4.29272 0
M  V30 2163 C 216.598 -2.55074 3.62563 0
M  V30 2164 H 213.818 -0.25019 0.622612 0
M  V30 2165 H 216.362 -0.130977 2.0408 0
M  V30 2166 H 214.517 -2.40598 3.03631 0
M  V30 2167 H 214.931 -1.46002 5.03769 0
M  V30 2168 H 216.405 -3.10356 4.5649 0
M  V30 2169 H 216.882 -3.31434 2.88181 0
M  V30 2170 H 217.488 -1.91509 3.79743 0
M  V30 2171 N 215.803 -1.52179 -0.40978 0
M  V30 2172 C 216.733 -1.78435 -1.5061 0
M  V30 2173 C 217.714 -0.635295 -1.57791 0
M  V30 2174 O 218.899 -0.880823 -1.73076 0
M  V30 2175 C 216.029 -1.93444 -2.88439 0
M  V30 2176 C 214.983 -3.09038 -2.96108 0
M  V30 2177 C 214.309 -3.09268 -4.36185 0
M  V30 2178 C 215.609 -4.48508 -2.67652 0
M  V30 2179 H 217.303 -2.70237 -1.28889 0
M  V30 2180 H 214.849 -1.30036 -0.618605 0
M  V30 2181 H 216.802 -2.10394 -3.65119 0
M  V30 2182 H 215.526 -0.983129 -3.11452 0
M  V30 2183 H 214.185 -2.91837 -2.21872 0
M  V30 2184 H 213.833 -2.11861 -4.56206 0
M  V30 2185 H 213.533 -3.86907 -4.42241 0
M  V30 2186 H 215.057 -3.28348 -5.14801 0
M  V30 2187 H 216.471 -4.65918 -3.34056 0
M  V30 2188 H 214.868 -5.28059 -2.85085 0
M  V30 2189 H 215.938 -4.56649 -1.63095 0
M  V30 2190 N 217.281 0.66697 -1.42791 0
M  V30 2191 C 218.213 1.7925 -1.42836 0
M  V30 2192 C 219.226 1.59496 -0.326333 0
M  V30 2193 O 220.415 1.6847 -0.589916 0
M  V30 2194 C 217.515 3.16476 -1.21229 0
M  V30 2195 C 216.688 3.63011 -2.44013 0
M  V30 2196 C 215.747 4.78993 -2.17834 0
M  V30 2197 O 214.773 4.89137 -2.91091 0
M  V30 2198 N 215.975 5.68248 -1.18635 0
M  V30 2199 H 218.74 1.79695 -2.39854 0
M  V30 2200 H 216.301 0.850338 -1.37771 0
M  V30 2201 H 218.293 3.91734 -1.01621 0
M  V30 2202 H 216.863 3.10884 -0.32706 0
M  V30 2203 H 216.083 2.78346 -2.79137 0
M  V30 2204 H 217.371 3.90845 -3.25757 0
M  V30 2205 H 216.769 5.62712 -0.580615 0
M  V30 2206 H 215.326 6.43285 -1.05013 0
M  V30 2207 N 218.759 1.29093 0.90403 0
M  V30 2208 C 219.689 1.16401 2.02418 0
M  V30 2209 C 220.67 0.0593085 1.69997 0
M  V30 2210 O 221.855 0.238021 1.92736 0
M  V30 2211 C 218.985 0.835233 3.37107 0
M  V30 2212 C 217.939 1.89578 3.83724 0
M  V30 2213 C 217.265 1.42041 5.15489 0
M  V30 2214 C 218.565 3.30394 4.04521 0
M  V30 2215 H 220.259 2.10109 2.13295 0
M  V30 2216 H 217.805 1.01157 1.02486 0
M  V30 2217 H 219.758 0.733169 4.14973 0
M  V30 2218 H 218.482 -0.137543 3.2631 0
M  V30 2219 H 217.141 1.98715 3.08071 0
M  V30 2220 H 216.789 0.436426 5.01103 0
M  V30 2221 H 216.489 2.12964 5.4765 0
M  V30 2222 H 218.013 1.33176 5.959 0
M  V30 2223 H 219.427 3.24123 4.72882 0
M  V30 2224 H 217.824 3.99237 4.48029 0
M  V30 2225 H 218.894 3.73692 3.09002 0
M  V30 2226 N 220.237 -1.11381 1.11499 0
M  V30 2227 C 221.483 -1.83403 0.865512 0
M  V30 2228 C 221.816 -1.84459 -0.607329 0
M  V30 2229 O 221.091 -1.29811 -1.44842 0
M  V30 2230 C 221.374 -3.30552 1.42855 0
M  V30 2231 C 221.227 -3.37886 2.96906 0
M  V30 2232 C 222.546 -4.26643 1.08 0
M  V30 2233 H 219.665 -0.665879 0.31587 0
M  V30 2234 H 222.307 -1.30601 1.37998 0
M  V30 2235 H 220.457 -3.75648 0.990985 0
M  V30 2236 H 222.129 -3.01343 3.49271 0
M  V30 2237 H 220.372 -2.78088 3.32941 0
M  V30 2238 H 221.043 -4.41458 3.31389 0
M  V30 2239 H 223.519 -3.89729 1.45775 0
M  V30 2240 H 222.395 -5.27986 1.50072 0
M  V30 2241 H 222.656 -4.42099 -0.00915037 0
M  V30 2242 N 221.715 -0.905404 -1.28997 0
M  V30 2243 C 222.645 -0.404212 -2.29975 0
M  V30 2244 C 223.626 0.523784 -1.61835 0
M  V30 2245 O 224.811 0.433298 -1.89304 0
M  V30 2246 C 221.941 0.364042 -3.45387 0
M  V30 2247 C 220.895 -0.474048 -4.25367 0
M  V30 2248 C 220.221 0.422045 -5.33032 0
M  V30 2249 C 221.521 -1.72696 -4.92923 0
M  V30 2250 H 223.215 -1.24807 -2.72146 0
M  V30 2251 H 220.761 -0.601585 -1.30832 0
M  V30 2252 H 222.714 0.725447 -4.15109 0
M  V30 2253 H 221.438 1.24174 -3.02074 0
M  V30 2254 H 220.097 -0.81786 -3.57361 0
M  V30 2255 H 219.745 1.29804 -4.85963 0
M  V30 2256 H 219.445 -0.135057 -5.87445 0
M  V30 2257 H 220.969 0.779517 -6.05604 0
M  V30 2258 H 222.383 -1.43495 -5.55051 0
M  V30 2259 H 220.78 -2.22582 -5.57295 0
M  V30 2260 H 221.85 -2.45964 -4.17887 0
M  V30 2261 N 223.193 1.4272 -0.668489 0
M  V30 2262 C 224.433 2.03497 -0.19194 0
M  V30 2263 C 224.797 1.51684 1.17712 0
M  V30 2264 O 225.998 2.04205 1.74796 0
M  V30 2265 C 224.269 3.56734 -0.218032 0
M  V30 2266 S 225.828 4.38395 0.188438 0
M  V30 2267 H 222.646 0.706542 -0.0794959 0
M  V30 2268 H 225.248 1.74563 -0.880235 0
M  V30 2269 H 223.952 3.91943 -1.2169 0
M  V30 2270 H 223.483 3.90333 0.490303 0
M  V30 2271 H 225.498 4.75345 1.42345 0
M  V30 2272 N 224.671 0.411399 1.52136 0
M  V30 2273 C 225.917 -0.163888 2.02137 0
M  V30 2274 C 226.25 -1.44597 1.29636 0
M  V30 2275 O 225.525 -1.90272 0.403353 0
M  V30 2276 C 225.808 -0.40927 3.57767 0
M  V30 2277 C 225.661 0.889643 4.40914 0
M  V30 2278 C 226.98 -1.19042 4.23694 0
M  V30 2279 H 224.099 -0.0580896 0.734707 0
M  V30 2280 H 226.741 0.54531 1.82007 0
M  V30 2281 H 224.891 -1.0134 3.7505 0
M  V30 2282 H 226.563 1.52575 4.35337 0
M  V30 2283 H 224.806 1.50011 4.07037 0
M  V30 2284 H 225.477 0.672314 5.4789 0
M  V30 2285 H 227.953 -0.678942 4.10524 0
M  V30 2286 H 226.829 -1.33086 5.32522 0
M  V30 2287 H 227.09 -2.21166 3.82803 0
M  V30 2288 N 226.149 -1.5696 0.141893 0
M  V30 2289 C 227.079 -2.19516 -0.795936 0
M  V30 2290 C 228.06 -1.14187 -1.26077 0
M  V30 2291 O 229.245 -1.42511 -1.31925 0
M  V30 2292 C 226.375 -2.81272 -2.03723 0
M  V30 2293 C 225.329 -3.92384 -1.70936 0
M  V30 2294 C 224.655 -4.41052 -3.02287 0
M  V30 2295 C 225.955 -5.13403 -0.959954 0
M  V30 2296 H 227.649 -2.98138 -0.274596 0
M  V30 2297 H 225.195 -1.43406 -0.130636 0
M  V30 2298 H 227.148 -3.237 -2.69808 0
M  V30 2299 H 225.872 -1.99973 -2.58221 0
M  V30 2300 H 224.531 -3.50566 -1.07232 0
M  V30 2301 H 224.179 -3.56582 -3.54765 0
M  V30 2302 H 223.879 -5.15993 -2.81114 0
M  V30 2303 H 225.403 -4.86146 -3.69451 0
M  V30 2304 H 226.817 -5.52706 -1.52279 0
M  V30 2305 H 225.214 -5.94073 -0.848357 0
M  V30 2306 H 226.284 -4.84875 0.0492434 0
M  V30 2307 N 227.627 0.131896 -1.57047 0
M  V30 2308 C 228.59 1.14638 -1.98471 0
M  V30 2309 C 229.59 1.35029 -0.873148 0
M  V30 2310 O 230.78 1.31764 -1.13946 0
M  V30 2311 C 227.912 2.50358 -2.31373 0
M  V30 2312 H 229.105 0.79064 -2.8929 0
M  V30 2313 H 226.658 0.375761 -1.51716 0
M  V30 2314 H 227.393 2.90876 -1.43393 0
M  V30 2315 H 227.178 2.36915 -3.12432 0
M  V30 2316 H 228.668 3.23395 -2.64207 0
M  V30 2317 N 229.106 1.52395 0.401703 0
M  V30 2318 C 230.334 1.70676 1.16949 0
M  V30 2319 C 230.749 0.419503 1.8408 0
M  V30 2320 O 230.106 -0.605061 1.72178 0
M  V30 2321 C 230.157 2.84753 2.22706 0
M  V30 2322 O 229.878 4.08495 1.58314 0
M  V30 2323 C 231.379 3.14608 3.12309 0
M  V30 2324 H 228.599 0.571787 0.351142 0
M  V30 2325 H 231.143 1.98987 0.471652 0
M  V30 2326 H 229.298 2.58941 2.88147 0
M  V30 2327 H 229.712 4.72117 2.28485 0
M  V30 2328 H 231.186 3.97923 3.82572 0
M  V30 2329 H 231.663 2.28464 3.75101 0
M  V30 2330 H 232.269 3.42212 2.52529 0
M  V30 2331 N 230.584 -0.659388 1.43143 0
M  V30 2332 C 231.812 -1.44723 1.47861 0
M  V30 2333 C 232.227 -1.88563 0.0945886 0
M  V30 2334 O 231.584 -1.59108 -0.893915 0
M  V30 2335 C 231.635 -2.68627 2.41913 0
M  V30 2336 O 231.356 -2.26623 3.74932 0
M  V30 2337 C 232.857 -3.62045 2.55809 0
M  V30 2338 H 230.077 -0.444801 0.502387 0
M  V30 2339 H 232.621 -0.808916 1.87821 0
M  V30 2340 H 230.776 -3.28613 2.05164 0
M  V30 2341 H 231.19 -3.06745 4.2545 0
M  V30 2342 H 232.664 -4.45666 3.25708 0
M  V30 2343 H 233.141 -4.08981 1.60099 0
M  V30 2344 H 233.747 -3.07944 2.93344 0
M  V30 2345 N 232.062 -1.29571 -0.897171 0
M  V30 2346 C 233.339 -1.08365 -1.62839 0
M  V30 2347 C 233.719 0.371331 -2.07808 0
M  V30 2348 O 233.067 1.3606 -1.83576 0
M  V30 2349 C 233.277 -2.0735 -2.80726 0
M  V30 2350 C 234.625 -2.38406 -3.51351 0
M  V30 2351 O 235.649 -2.05564 -2.90898 0
M  V30 2352 O 234.508 -2.9453 -4.60341 0
M  V30 2353 H 231.602 -0.415345 -0.715134 0
M  V30 2354 H 234.148 -1.40952 -0.945018 0
M  V30 2355 H 232.92 -3.05339 -2.44711 0
M  V30 2356 H 232.543 -1.75507 -3.56767 0
M  V30 2357 N 233.54 1.10788 -1.12088 0
M  V30 2358 C 234.956 1.34691 -0.856186 0
M  V30 2359 C 235.156 1.94791 0.515615 0
M  V30 2360 O 234.212 2.18524 1.26505 0
M  V30 2361 C 235.525 2.27208 -1.9697 0
M  V30 2362 C 237.073 2.40755 -2.00016 0
M  V30 2363 C 237.548 3.36598 -3.1059 0
M  V30 2364 N 239.039 3.44164 -3.10008 0
M  V30 2365 C 239.774 4.18284 -3.92206 0
M  V30 2366 N 239.27 4.95322 -4.84384 0
M  V30 2367 N 241.063 4.13865 -3.80357 0
M  V30 2368 H 233.214 0.70144 -2.00483 0
M  V30 2369 H 235.477 0.371405 -0.872217 0
M  V30 2370 H 235.183 1.90251 -2.958 0
M  V30 2371 H 235.057 3.27485 -1.87172 0
M  V30 2372 H 237.444 2.76982 -1.01808 0
M  V30 2373 H 237.525 1.40305 -2.13888 0
M  V30 2374 H 237.169 3.01096 -4.09028 0
M  V30 2375 H 237.099 4.36918 -2.93956 0
M  V30 2376 H 239.59 2.8922 -2.43228 0
M  V30 2377 H 239.903 5.49267 -5.43623 0
M  V30 2378 H 238.248 4.94459 -4.884 0
M  V30 2379 H 241.439 3.52773 -3.07683 0
M  V30 2380 H 241.612 4.71372 -4.44649 0
M  V30 2381 N 235.018 0.912232 1.28515 0
M  V30 2382 C 236.434 0.610159 1.47476 0
M  V30 2383 C 236.634 -0.844955 1.82928 0
M  V30 2384 O 235.69 -1.62416 1.93332 0
M  V30 2385 C 237.003 1.54675 2.57868 0
M  V30 2386 C 238.551 1.55331 2.71738 0
M  V30 2387 C 239.026 2.47649 3.85272 0
M  V30 2388 N 240.517 2.45767 3.92623 0
M  V30 2389 C 241.252 3.13896 4.79851 0
M  V30 2390 N 240.748 3.9135 5.71679 0
M  V30 2391 N 242.541 3.02991 4.73448 0
M  V30 2392 H 234.692 1.85318 1.03783 0
M  V30 2393 H 236.955 0.794777 0.516753 0
M  V30 2394 H 236.661 2.5841 2.38574 0
M  V30 2395 H 236.535 1.27671 3.54937 0
M  V30 2396 H 238.922 0.52335 2.90422 0
M  V30 2397 H 239.003 1.86378 1.75205 0
M  V30 2398 H 238.647 3.50745 3.67342 0
M  V30 2399 H 238.577 2.13904 4.81199 0
M  V30 2400 H 241.068 1.89503 3.26951 0
M  V30 2401 H 241.381 4.40359 6.35062 0
M  V30 2402 H 239.726 3.95455 5.71524 0
M  V30 2403 H 242.917 2.41987 4.007 0
M  V30 2404 H 243.09 3.5636 5.41213 0
M  V30 2405 N 236.496 -1.42363 0.676048 0
M  V30 2406 C 237.912 -1.55811 0.345718 0
M  V30 2407 C 238.112 -1.65544 -1.14879 0
M  V30 2408 O 237.168 -1.62306 -1.93424 0
M  V30 2409 C 238.481 -2.80746 1.07713 0
M  V30 2410 C 240.029 -2.9452 1.05958 0
M  V30 2411 C 240.504 -4.22318 1.77233 0
M  V30 2412 N 241.995 -4.29233 1.74108 0
M  V30 2413 C 242.73 -5.26935 2.26113 0
M  V30 2414 N 242.226 -6.30783 2.86505 0
M  V30 2415 N 244.019 -5.18741 2.1648 0
M  V30 2416 H 236.17 -1.34289 1.6456 0
M  V30 2417 H 238.433 -0.646506 0.69335 0
M  V30 2418 H 238.139 -2.79696 2.13221 0
M  V30 2419 H 238.013 -3.71676 0.64316 0
M  V30 2420 H 240.4 -2.95097 0.0128255 0
M  V30 2421 H 240.481 -2.04817 1.53244 0
M  V30 2422 H 240.125 -4.22502 2.81877 0
M  V30 2423 H 240.055 -5.10958 1.27396 0
M  V30 2424 H 242.546 -3.54814 1.30059 0
M  V30 2425 H 242.859 -7.01691 3.23805 0
M  V30 2426 H 241.204 -6.31341 2.90575 0
M  V30 2427 H 244.395 -4.36533 1.68987 0
M  V30 2428 H 244.568 -5.94721 2.57316 0
M  V30 2429 N 237.974 -0.419461 -1.51915 0
M  V30 2430 C 239.39 -0.0708431 -1.59443 0
M  V30 2431 C 239.59 1.41796 -1.43164 0
M  V30 2432 O 238.646 2.18596 -1.26381 0
M  V30 2433 C 239.959 -0.574991 -2.95151 0
M  V30 2434 C 241.507 -0.533867 -3.08413 0
M  V30 2435 C 241.982 -1.01469 -4.46618 0
M  V30 2436 N 243.473 -0.971939 -4.52888 0
M  V30 2437 C 244.208 -1.31505 -5.58116 0
M  V30 2438 N 243.704 -1.73014 -6.70849 0
M  V30 2439 N 245.497 -1.23436 -5.48379 0
M  V30 2440 H 237.648 -1.38836 -1.60743 0
M  V30 2441 H 239.911 -0.570998 -0.756747 0
M  V30 2442 H 239.617 -1.61597 -3.12377 0
M  V30 2443 H 239.491 0.00979777 -3.77199 0
M  V30 2444 H 241.878 0.498086 -2.90866 0
M  V30 2445 H 241.959 -1.15484 -2.28248 0
M  V30 2446 H 241.603 -2.04502 -4.6491 0
M  V30 2447 H 241.533 -0.370433 -5.25295 0
M  V30 2448 H 244.024 -0.666893 -3.71969 0
M  V30 2449 H 244.337 -1.97479 -7.47143 0
M  V30 2450 H 242.682 -1.76926 -6.72103 0
M  V30 2451 H 245.873 -0.908869 -4.59192 0
M  V30 2452 H 246.046 -1.50506 -6.30279 0
M  V30 2453 N 239.452 1.56882 -0.150215 0
M  V30 2454 C 240.729 1.87844 0.545327 0
M  V30 2455 C 241.109 1.0567 1.82749 0
M  V30 2456 O 240.457 0.144442 2.28043 0
M  V30 2457 C 240.667 3.39526 0.80767 0
M  V30 2458 C 242.015 4.08814 1.14703 0
M  V30 2459 O 243.039 3.44723 0.896917 0
M  V30 2460 O 241.898 5.22004 1.61784 0
M  V30 2461 H 238.992 0.778677 0.278553 0
M  V30 2462 H 241.538 1.68666 -0.187068 0
M  V30 2463 H 240.31 3.91173 -0.0996096 0
M  V30 2464 H 239.933 3.64243 1.59413 0
M  V30 2465 N 240.93 -0.123565 1.57115 0
M  V30 2466 C 241.86 -1.15309 2.03042 0
M  V30 2467 C 242.841 -1.43454 0.914061 0
M  V30 2468 O 244.026 -1.53973 1.18347 0
M  V30 2469 C 241.156 -2.48043 2.43089 0
M  V30 2470 C 240.11 -2.3437 3.58127 0
M  V30 2471 C 239.436 -3.72026 3.84059 0
M  V30 2472 C 240.736 -1.80804 4.90007 0
M  V30 2473 H 242.43 -0.771102 2.893 0
M  V30 2474 H 239.976 -0.369479 1.39179 0
M  V30 2475 H 241.929 -3.20311 2.73823 0
M  V30 2476 H 240.653 -2.88122 1.53796 0
M  V30 2477 H 239.312 -1.64551 3.27595 0
M  V30 2478 H 238.96 -4.09582 2.91979 0
M  V30 2479 H 238.66 -3.63732 4.6149 0
M  V30 2480 H 240.184 -4.45806 4.1724 0
M  V30 2481 H 241.598 -2.42886 5.19307 0
M  V30 2482 H 239.995 -1.83343 5.71407 0
M  V30 2483 H 241.065 -0.76528 4.78823 0
M  V30 2484 N 242.408 -1.52605 -0.393616 0
M  V30 2485 C 243.656 -1.67093 -1.13685 0
M  V30 2486 C 243.977 -0.411011 -1.90619 0
M  V30 2487 O 243.247 0.574491 -1.87287 0
M  V30 2488 H 241.827 -0.615923 -0.422668 0
M  V30 2489 H 244.489 -1.89704 -0.447039 0
M  V30 2490 H 243.585 -2.51922 -1.84232 0
M  V30 2491 N 243.887 0.651787 -1.4349 0
M  V30 2492 C 245.135 1.40888 -1.44897 0
M  V30 2493 C 245.456 1.94856 -0.0749086 0
M  V30 2494 O 244.726 1.74518 0.889956 0
M  V30 2495 H 243.306 0.522887 -0.533478 0
M  V30 2496 H 245.968 0.768609 -1.79104 0
M  V30 2497 H 245.064 2.25052 -2.16236 0
M  V30 2498 N 245.365 1.30045 0.890287 0
M  V30 2499 C 246.59 1.21598 1.68014 0
M  V30 2500 C 247.015 -0.218678 1.86825 0
M  V30 2501 O 246.373 -1.15756 1.39536 0
M  V30 2502 C 246.421 1.94434 3.03691 0
M  V30 2503 O 245.525 1.2678 3.92429 0
M  V30 2504 H 244.866 0.420856 0.513592 0
M  V30 2505 H 247.396 1.71775 1.11151 0
M  V30 2506 H 247.406 2.03251 3.5377 0
M  V30 2507 H 246.081 2.98777 2.89318 0
M  V30 2508 H 244.658 1.26282 3.50866 0
M  V30 2509 N 246.843 -1.10192 1.12674 0
M  V30 2510 C 247.806 -2.14786 0.799979 0
M  V30 2511 C 248.806 -1.59711 -0.18685 0
M  V30 2512 O 249.996 -1.74156 0.0392558 0
M  V30 2513 C 247.128 -3.40374 0.189228 0
M  V30 2514 H 248.321 -2.45203 1.72671 0
M  V30 2515 H 245.874 -1.25597 0.930326 0
M  V30 2516 H 246.609 -3.15577 -0.747107 0
M  V30 2517 H 246.394 -3.81637 0.899766 0
M  V30 2518 H 247.884 -4.17594 -0.0228143 0
M  V30 2519 N 248.321 -0.919034 -1.28029 0
M  V30 2520 C 249.732 -0.600735 -1.76771 0
M  V30 2521 C 250.083 0.884024 -1.75156 0
M  V30 2522 O 249.208 1.69163 -1.34956 0
M  V30 2523 C 249.803 -1.08372 -3.21 0
M  V30 2524 C 248.362 -0.816248 -3.67443 0
M  V30 2525 C 247.509 -1.24742 -2.47658 0
M  V30 2526 H 250.46 -1.09974 -1.14418 0
M  V30 2527 H 250.481 -0.427512 -3.78091 0
M  V30 2528 H 249.993 -2.16437 -3.22144 0
M  V30 2529 H 248.094 0.250968 -3.71754 0
M  V30 2530 H 248.207 -1.4277 -4.57333 0
M  V30 2531 H 246.571 -0.666083 -2.45836 0
M  V30 2532 H 247.354 -2.33653 -2.51518 0
M  V30 2533 N 249.799 1.42003 -0.683588 0
M  V30 2534 C 250.729 2.33487 -0.024866 0
M  V30 2535 C 251.71 1.51163 0.779975 0
M  V30 2536 O 252.895 1.79739 0.735362 0
M  V30 2537 C 250.025 3.3487 0.920836 0
M  V30 2538 C 248.979 4.27414 0.223958 0
M  V30 2539 C 248.305 5.19074 1.2832 0
M  V30 2540 C 249.605 5.14445 -0.90242 0
M  V30 2541 H 251.299 2.88819 -0.788921 0
M  V30 2542 H 248.845 1.38873 -0.38083 0
M  V30 2543 H 250.798 3.97787 1.39081 0
M  V30 2544 H 249.522 2.77861 1.71642 0
M  V30 2545 H 248.181 3.65904 -0.225864 0
M  V30 2546 H 247.829 4.58387 2.071 0
M  V30 2547 H 247.529 5.81822 0.821995 0
M  V30 2548 H 249.053 5.84867 1.75392 0
M  V30 2549 H 250.467 5.70998 -0.513272 0
M  V30 2550 H 248.864 5.86072 -1.28997 0
M  V30 2551 H 249.934 4.52322 -1.74737 0
M  V30 2552 N 251.277 0.427512 1.51691 0
M  V30 2553 C 252.24 -0.377132 2.26076 0
M  V30 2554 C 253.24 -0.958089 1.29141 0
M  V30 2555 O 254.43 -0.83408 1.52934 0
M  V30 2556 C 251.562 -1.53262 3.04506 0
M  V30 2557 H 252.755 0.27464 2.9864 0
M  V30 2558 H 250.308 0.180445 1.55255 0
M  V30 2559 H 251.043 -2.22072 2.36335 0
M  V30 2560 H 250.828 -1.12232 3.75694 0
M  V30 2561 H 252.318 -2.10135 3.60878 0
M  V30 2562 N 252.755 -1.56801 0.158532 0
M  V30 2563 C 254.004 -1.95665 -0.489702 0
M  V30 2564 C 254.317 -1.04654 -1.65248 0
M  V30 2565 O 255.523 -1.33146 -2.3661 0
M  V30 2566 C 253.979 -3.47874 -0.922582 0
M  V30 2567 C 253.587 -4.47489 0.213893 0
M  V30 2568 C 255.331 -3.95583 -1.53996 0
M  V30 2569 C 253.238 -5.90921 -0.237903 0
M  V30 2570 H 252.168 -0.730516 -0.186716 0
M  V30 2571 H 254.819 -1.81861 0.244722 0
M  V30 2572 H 253.201 -3.57051 -1.71261 0
M  V30 2573 H 254.375 -4.50017 0.991036 0
M  V30 2574 H 252.69 -4.09764 0.740407 0
M  V30 2575 H 255.287 -5.0019 -1.8898 0
M  V30 2576 H 255.63 -3.37789 -2.43319 0
M  V30 2577 H 256.163 -3.8937 -0.814611 0
M  V30 2578 H 252.902 -6.52559 0.620236 0
M  V30 2579 H 252.422 -5.91729 -0.980676 0
M  V30 2580 H 254.101 -6.43352 -0.686067 0
M  V30 2581 N 254.233 0.115231 -1.57178 0
M  V30 2582 C 255.481 0.820727 -1.84685 0
M  V30 2583 C 255.802 1.80237 -0.744279 0
M  V30 2584 O 255.072 1.94529 0.231375 0
M  V30 2585 H 253.652 0.306084 -0.681411 0
M  V30 2586 H 256.314 0.101656 -1.94635 0
M  V30 2587 H 255.41 1.36366 -2.80733 0
M  V30 2588 N 255.711 1.52812 0.385517 0
M  V30 2589 C 256.641 1.80808 1.47752 0
M  V30 2590 C 257.622 0.660318 1.5676 0
M  V30 2591 O 258.807 0.908246 1.71652 0
M  V30 2592 C 255.937 1.98008 2.85324 0
M  V30 2593 C 254.891 3.13709 2.91154 0
M  V30 2594 C 254.217 3.16169 4.31209 0
M  V30 2595 C 255.517 4.52709 2.60483 0
M  V30 2596 H 257.211 2.72253 1.24573 0
M  V30 2597 H 254.757 1.31003 0.597839 0
M  V30 2598 H 256.71 2.16176 3.61726 0
M  V30 2599 H 255.434 1.03255 3.09848 0
M  V30 2600 H 254.093 2.95329 2.17201 0
M  V30 2601 H 253.741 2.19092 4.52778 0
M  V30 2602 H 253.441 3.93894 4.36029 0
M  V30 2603 H 254.965 3.36496 5.09512 0
M  V30 2604 H 256.379 4.71173 3.26602 0
M  V30 2605 H 254.776 5.32528 2.76648 0
M  V30 2606 H 255.846 4.59186 1.55809 0
M  V30 2607 N 257.189 -0.644168 1.43834 0
M  V30 2608 C 258.414 -1.43642 1.49605 0
M  V30 2609 C 258.839 -1.8773 0.117913 0
M  V30 2610 O 258.197 -1.57938 -0.890239 0
M  V30 2611 C 258.245 -2.6416 2.45463 0
M  V30 2612 O 257.349 -3.63538 1.94714 0
M  V30 2613 H 256.69 -0.430329 0.50568 0
M  V30 2614 H 259.22 -0.787448 1.8884 0
M  V30 2615 H 259.23 -3.11864 2.63068 0
M  V30 2616 H 257.905 -2.31414 3.45572 0
M  V30 2617 H 256.482 -3.2273 1.86814 0
M  V30 2618 N 258.668 -1.30515 -0.883378 0
M  V30 2619 C 259.914 -1.19607 -1.63774 0
M  V30 2620 C 260.247 0.248314 -1.92606 0
M  V30 2621 O 259.522 1.17742 -1.54813 0
M  V30 2622 C 259.805 -2.02669 -2.97653 0
M  V30 2623 C 259.658 -3.55335 -2.75784 0
M  V30 2624 C 260.977 -1.86573 -3.98596 0
M  V30 2625 H 258.096 -0.435856 -0.594305 0
M  V30 2626 H 260.738 -1.60165 -1.02212 0
M  V30 2627 H 258.888 -1.68208 -3.50197 0
M  V30 2628 H 260.56 -3.99863 -2.30016 0
M  V30 2629 H 258.803 -3.79438 -2.1026 0
M  V30 2630 H 259.474 -4.08745 -3.70988 0
M  V30 2631 H 261.95 -2.16703 -3.55217 0
M  V30 2632 H 260.826 -2.47014 -4.90179 0
M  V30 2633 H 261.087 -0.825321 -4.34328 0
M  V30 2634 N 260.146 1.09593 -1.13257 0
M  V30 2635 C 261.109 2.14359 -0.811358 0
M  V30 2636 C 262.109 1.59808 0.178377 0
M  V30 2637 O 263.299 1.74132 -0.0484911 0
M  V30 2638 C 260.431 3.40269 -0.207276 0
M  V30 2639 H 261.624 2.44284 -1.73969 0
M  V30 2640 H 259.177 1.25102 -0.936973 0
M  V30 2641 H 259.912 3.15969 0.73036 0
M  V30 2642 H 259.697 3.81154 -0.919992 0
M  V30 2643 H 261.187 4.176 0.000667944 0
M  V30 2644 N 261.624 0.925811 1.2754 0
M  V30 2645 C 262.554 0.440748 2.29303 0
M  V30 2646 C 263.535 -0.497971 1.62648 0
M  V30 2647 O 264.72 -0.403126 1.8997 0
M  V30 2648 C 261.85 -0.309048 3.45922 0
M  V30 2649 C 260.804 0.54166 4.24559 0
M  V30 2650 C 260.13 -0.337191 5.33636 0
M  V30 2651 C 261.43 1.80516 4.90114 0
M  V30 2652 H 263.124 1.29121 2.70126 0
M  V30 2653 H 260.67 0.622323 1.29858 0
M  V30 2654 H 262.623 -0.659315 4.1621 0
M  V30 2655 H 261.347 -1.19352 3.04011 0
M  V30 2656 H 260.006 0.874609 3.56014 0
M  V30 2657 H 259.654 -1.22056 4.87966 0
M  V30 2658 H 259.354 0.228497 5.87156 0
M  V30 2659 H 260.878 -0.683072 6.06767 0
M  V30 2660 H 262.292 1.52307 5.52698 0
M  V30 2661 H 260.689 2.3142 5.53683 0
M  V30 2662 H 261.759 2.52581 4.13921 0
M  V30 2663 N 263.102 -1.41638 0.69111 0
M  V30 2664 C 264.35 -2.00902 0.219758 0
M  V30 2665 C 264.671 -1.54994 -1.18329 0
M  V30 2666 O 263.941 -0.778628 -1.79762 0
M  V30 2667 H 262.521 -0.74289 0.0782558 0
M  V30 2668 H 265.183 -1.73327 0.891271 0
M  V30 2669 H 264.279 -3.11224 0.233708 0
M  V30 2670 N 264.58 -0.43555 -1.51462 0
M  V30 2671 C 265.53 0.394701 -2.24558 0
M  V30 2672 C 266.514 0.99157 -1.26715 0
M  V30 2673 O 267.706 0.910007 -1.51815 0
M  V30 2674 C 264.835 1.4963 -3.08975 0
M  V30 2675 C 263.921 0.908912 -4.14246 0
M  V30 2676 N 264.312 0.0505335 -5.05775 0
M  V30 2677 C 262.61 1.17668 -4.30198 0
M  V30 2678 C 263.311 -0.279161 -5.8103 0
M  V30 2679 N 262.287 0.336767 -5.42556 0
M  V30 2680 H 266.089 -0.267106 -2.92684 0
M  V30 2681 H 263.603 -0.247518 -1.60503 0
M  V30 2682 H 265.6 2.10394 -3.59917 0
M  V30 2683 H 264.26 2.16046 -2.42393 0
M  V30 2684 H 265.271 -0.31577 -5.16936 0
M  V30 2685 H 261.948 1.83847 -3.74842 0
M  V30 2686 H 263.338 -0.977553 -6.64751 0
M  V30 2687 N 266.058 1.56714 -0.166846 0
M  V30 2688 C 266.988 2.20754 0.760913 0
M  V30 2689 C 267.969 1.16178 1.24244 0
M  V30 2690 O 269.154 1.44592 1.29641 0
M  V30 2691 C 266.284 2.84478 1.99223 0
M  V30 2692 C 265.238 3.95053 1.64672 0
M  V30 2693 C 264.564 4.45805 2.95232 0
M  V30 2694 C 265.864 5.14865 0.878155 0
M  V30 2695 H 267.558 2.98537 0.22713 0
M  V30 2696 H 265.104 1.43596 0.107805 0
M  V30 2697 H 267.057 3.27951 2.64624 0
M  V30 2698 H 265.781 2.04056 2.55007 0
M  V30 2699 H 264.44 3.52228 1.01641 0
M  V30 2700 H 264.088 3.62181 3.49047 0
M  V30 2701 H 263.788 5.204 2.7287 0
M  V30 2702 H 265.312 4.91962 3.6167 0
M  V30 2703 H 266.726 5.55059 1.43466 0
M  V30 2704 H 265.123 5.95348 0.753738 0
M  V30 2705 H 266.193 4.84735 -0.126377 0
M  V30 2706 N 267.536 -0.106894 1.57237 0
M  V30 2707 C 268.466 -1.13148 2.04254 0
M  V30 2708 C 269.447 -1.42476 0.929224 0
M  V30 2709 O 270.632 -1.52709 1.19973 0
M  V30 2710 C 267.762 -2.4545 2.45706 0
M  V30 2711 C 266.716 -2.30558 3.60592 0
M  V30 2712 C 266.042 -3.67931 3.87983 0
M  V30 2713 C 267.342 -1.75597 4.91897 0
M  V30 2714 H 269.036 -0.740374 2.90101 0
M  V30 2715 H 266.582 -0.354696 1.39563 0
M  V30 2716 H 268.535 -3.17389 2.77205 0
M  V30 2717 H 267.259 -2.86475 1.56843 0
M  V30 2718 H 265.918 -1.61067 3.29322 0
M  V30 2719 H 265.566 -4.06462 2.96306 0
M  V30 2720 H 265.266 -3.58817 4.65322 0
M  V30 2721 H 266.79 -4.41356 4.21945 0
M  V30 2722 H 268.204 -2.37364 5.21854 0
M  V30 2723 H 266.601 -1.77272 5.73319 0
M  V30 2724 H 267.671 -0.714451 4.79608 0
M  V30 2725 N 269.014 -1.53014 -0.377408 0
M  V30 2726 C 269.977 -1.77957 -1.44444 0
M  V30 2727 C 270.977 -0.649763 -1.47087 0
M  V30 2728 O 272.167 -0.917897 -1.48055 0
M  V30 2729 C 269.299 -1.89089 -2.83651 0
M  V30 2730 H 270.492 -2.73243 -1.23606 0
M  V30 2731 H 268.045 -1.43912 -0.609844 0
M  V30 2732 H 268.78 -0.958293 -3.09818 0
M  V30 2733 H 268.565 -2.71254 -2.83132 0
M  V30 2734 H 270.055 -2.1002 -3.60945 0
M  V30 2735 N 270.492 0.636531 -1.44174 0
M  V30 2736 C 271.741 1.39213 -1.45954 0
M  V30 2737 C 272.054 1.95374 -0.0939119 0
M  V30 2738 O 273.26 2.71498 0.0107767 0
M  V30 2739 C 271.716 2.52025 -2.56927 0
M  V30 2740 C 271.324 2.024 -3.99673 0
M  V30 2741 C 273.068 3.29269 -2.67922 0
M  V30 2742 C 270.975 3.12521 -5.0208 0
M  V30 2743 H 269.905 0.523132 -0.542999 0
M  V30 2744 H 272.556 0.685349 -1.70221 0
M  V30 2745 H 270.938 3.25253 -2.25891 0
M  V30 2746 H 272.112 1.36073 -4.40251 0
M  V30 2747 H 270.427 1.37987 -3.92872 0
M  V30 2748 H 273.024 4.11352 -3.41605 0
M  V30 2749 H 273.367 3.78397 -1.73555 0
M  V30 2750 H 273.9 2.63129 -2.98342 0
M  V30 2751 H 270.639 2.68343 -5.98057 0
M  V30 2752 H 270.159 3.77507 -4.66099 0
M  V30 2753 H 271.838 3.77385 -5.25538 0
M  V30 2754 N 271.97 1.30982 0.876444 0
M  V30 2755 C 273.247 1.10942 1.61094 0
M  V30 2756 C 273.627 -0.338223 2.08373 0
M  V30 2757 O 272.975 -1.33122 1.85717 0
M  V30 2758 C 273.185 2.11789 2.77392 0
M  V30 2759 C 274.533 2.43965 3.47514 0
M  V30 2760 O 275.557 2.10166 2.87591 0
M  V30 2761 O 274.416 3.01817 4.55597 0
M  V30 2762 H 271.51 0.42667 0.708436 0
M  V30 2763 H 274.056 1.42438 0.922474 0
M  V30 2764 H 272.828 3.09194 2.39823 0
M  V30 2765 H 272.451 1.81161 3.5393 0
M  V30 2766 N 273.449 -1.08991 1.13837 0
M  V30 2767 C 274.679 -1.84743 0.924859 0
M  V30 2768 C 275.087 -1.81629 -0.529874 0
M  V30 2769 O 274.43 -1.21397 -1.37872 0
M  V30 2770 C 274.492 -3.33568 1.34061 0
M  V30 2771 C 274.156 -3.60425 2.80968 0
M  V30 2772 C 275.153 -3.55771 3.79108 0
M  V30 2773 C 272.838 -3.88627 3.18236 0
M  V30 2774 C 274.832 -3.78939 5.12527 0
M  V30 2775 C 272.519 -4.11449 4.51833 0
M  V30 2776 C 273.517 -4.06598 5.48787 0
M  V30 2777 O 273.205 -4.28826 6.79973 0
M  V30 2778 H 272.937 -0.590258 0.329502 0
M  V30 2779 H 275.491 -1.38598 1.51591 0
M  V30 2780 H 273.721 -3.80442 0.692853 0
M  V30 2781 H 275.41 -3.90743 1.09886 0
M  V30 2782 H 276.176 -3.34005 3.51661 0
M  V30 2783 H 272.055 -3.91526 2.43369 0
M  V30 2784 H 275.599 -3.75068 5.88192 0
M  V30 2785 H 271.496 -4.32698 4.79002 0
M  V30 2786 H 272.264 -4.46264 6.86142 0
M  V30 2787 N 274.927 -0.932562 -1.27047 0
M  V30 2788 C 276.155 -0.592031 -1.98249 0
M  V30 2789 C 276.57 0.831062 -1.69525 0
M  V30 2790 O 275.927 1.55299 -0.958561 0
M  V30 2791 C 275.978 -0.814279 -3.5221 0
M  V30 2792 O 275.699 -2.18139 -3.7993 0
M  V30 2793 C 277.2 -0.483121 -4.4066 0
M  V30 2794 H 274.42 -0.223896 -0.632544 0
M  V30 2795 H 276.964 -1.25091 -1.61779 0
M  V30 2796 H 275.119 -0.20213 -3.86872 0
M  V30 2797 H 275.533 -2.235 -4.74498 0
M  V30 2798 H 277.007 -0.689298 -5.47679 0
M  V30 2799 H 277.484 0.581546 -4.35333 0
M  V30 2800 H 278.09 -1.07362 -4.11526 0
M  V30 2801 N 276.405 1.4127 -0.698611 0
M  V30 2802 C 277.653 2.00782 -0.230409 0
M  V30 2803 C 277.974 1.5562 1.17505 0
M  V30 2804 O 277.244 0.78815 1.79346 0
M  V30 2805 H 275.824 0.742464 -0.0821944 0
M  V30 2806 H 278.486 1.72852 -0.90045 0
M  V30 2807 H 277.582 3.11095 -0.25021 0
M  V30 2808 N 277.883 0.443576 1.51229 0
M  V30 2809 C 279.123 -0.119889 2.04048 0
M  V30 2810 C 279.487 -1.39418 1.32009 0
M  V30 2811 O 280.688 -2.03829 1.75235 0
M  V30 2812 C 278.959 -0.327233 3.55899 0
M  V30 2813 S 280.518 -0.853208 4.30425 0
M  V30 2814 H 277.336 -0.028921 0.710412 0
M  V30 2815 H 279.938 0.604413 1.85922 0
M  V30 2816 H 278.642 0.606445 4.05895 0
M  V30 2817 H 278.173 -1.07844 3.7833 0
M  V30 2818 H 280.188 -2.13005 4.48155 0
M  V30 2819 N 279.361 -1.56624 0.175154 0
M  V30 2820 C 280.609 -1.96609 -0.467885 0
M  V30 2821 C 280.93 -1.06238 -1.63519 0
M  V30 2822 O 280.2 -0.129523 -1.95471 0
M  V30 2823 H 278.78 -0.726008 -0.175845 0
M  V30 2824 H 281.442 -1.93195 0.257234 0
M  V30 2825 H 280.538 -3.00989 -0.825342 0
M  V30 2826 N 280.839 0.0985539 -1.57292 0
M  V30 2827 C 282.088 0.801358 -1.85098 0
M  V30 2828 C 282.401 1.80066 -0.763902 0
M  V30 2829 O 283.607 2.55112 -0.928981 0
M  V30 2830 C 282.063 1.47599 -3.28242 0
M  V30 2831 C 281.671 0.516624 -4.45011 0
M  V30 2832 C 283.415 2.16272 -3.65276 0
M  V30 2833 C 281.322 1.19564 -5.79188 0
M  V30 2834 H 280.252 0.303022 -0.69043 0
M  V30 2835 H 282.903 0.0542623 -1.8342 0
M  V30 2836 H 281.285 2.27042 -3.2445 0
M  V30 2837 H 282.459 -0.246065 -4.60143 0
M  V30 2838 H 280.774 -0.064227 -4.1635 0
M  V30 2839 H 283.371 2.67802 -4.62803 0
M  V30 2840 H 283.714 2.95009 -2.93727 0
M  V30 2841 H 284.247 1.43693 -3.70941 0
M  V30 2842 H 280.986 0.449157 -6.53959 0
M  V30 2843 H 280.506 1.92984 -5.67906 0
M  V30 2844 H 282.185 1.7231 -6.23633 0
M  V30 2845 N 282.317 1.53212 0.369288 0
M  V30 2846 C 283.265 1.80054 1.47253 0
M  V30 2847 C 284.259 0.669456 1.55611 0
M  V30 2848 O 285.465 0.852328 1.58541 0
M  V30 2849 H 281.84 0.570034 0.490475 0
M  V30 2850 H 283.811 2.72403 1.21817 0
M  V30 2851 C 282.56 2.00403 2.84137 0
M  V30 2852 H 281.883 2.86876 2.78464 0
M  V30 2853 H 283.323 2.23164 3.60519 0
M  V30 2854 C 281.782 0.782081 3.27697 0
M  V30 2855 O 282.312 -0.0310205 4.01688 0
M  V30 2856 N 280.518 0.606573 2.84199 0
M  V30 2857 H 280.065 1.26939 2.24152 0
M  V30 2858 H 280.023 -0.20962 3.137 0
M  V30 2859 N 283.795 -0.628877 1.44509 0
M  V30 2860 C 285.206 -1.21054 1.42137 0
M  V30 2861 C 285.557 -1.95715 0.137881 0
M  V30 2862 O 284.682 -2.02554 -0.761645 0
M  V30 2863 C 285.277 -2.20189 2.57493 0
M  V30 2864 C 283.836 -2.73777 2.58308 0
M  V30 2865 C 282.983 -1.48813 2.33987 0
M  V30 2866 H 285.934 -0.41942 1.53057 0
M  V30 2867 H 285.955 -3.02833 2.30375 0
M  V30 2868 H 285.467 -1.6582 3.50892 0
M  V30 2869 H 283.568 -3.32142 1.68856 0
M  V30 2870 H 283.681 -3.19662 3.56865 0
M  V30 2871 H 282.045 -1.77024 1.83124 0
M  V30 2872 H 282.828 -0.963442 3.29504 0
M  V30 2873 N 285.273 -1.31445 -0.869486 0
M  V30 2874 C 286.236 -1.19094 -1.9583 0
M  V30 2875 C 287.236 -0.117906 -1.60367 0
M  V30 2876 O 288.426 -0.367208 -1.70286 0
M  V30 2877 C 285.558 -0.828165 -3.30688 0
M  V30 2878 H 286.751 -2.15842 -2.08212 0
M  V30 2879 H 284.304 -1.15063 -1.05784 0
M  V30 2880 H 285.039 0.138142 -3.24006 0
M  V30 2881 H 284.824 -1.6038 -3.578 0
M  V30 2882 H 286.314 -0.765658 -4.10521 0
M  V30 2883 N 286.751 1.08385 -1.14413 0
M  V30 2884 C 288.167 1.32844 -0.884563 0
M  V30 2885 C 288.367 1.95841 0.474181 0
M  V30 2886 O 287.423 2.21158 1.21842 0
M  V30 2887 C 288.736 2.22978 -2.01745 0
M  V30 2888 C 290.284 2.36458 -2.05077 0
M  V30 2889 C 290.759 3.29934 -3.1766 0
M  V30 2890 N 292.25 3.37511 -3.17239 0
M  V30 2891 C 292.985 4.09871 -4.0099 0
M  V30 2892 N 292.481 4.84936 -4.94781 0
M  V30 2893 N 294.274 4.05704 -3.89051 0
M  V30 2894 H 286.425 0.658756 -2.01926 0
M  V30 2895 H 288.688 0.352821 -0.879899 0
M  V30 2896 H 288.394 1.83934 -2.99769 0
M  V30 2897 H 288.268 3.23441 -1.94077 0
M  V30 2898 H 290.655 2.7476 -1.0766 0
M  V30 2899 H 290.736 1.35736 -2.16816 0
M  V30 2900 H 290.38 2.92352 -4.15322 0
M  V30 2901 H 290.31 4.30584 -3.03158 0
M  V30 2902 H 292.801 2.83996 -2.49308 0
M  V30 2903 H 293.114 5.37612 -5.55151 0
M  V30 2904 H 291.459 4.83988 -4.98779 0
M  V30 2905 H 294.65 3.46167 -3.15097 0
M  V30 2906 H 294.823 4.61834 -4.54547 0
M  V30 2907 N 288.23 0.939286 1.26551 0
M  V30 2908 C 289.455 0.602008 1.98471 0
M  V30 2909 C 289.88 -0.815624 1.69497 0
M  V30 2910 O 289.238 -1.54912 0.941905 0
M  V30 2911 C 289.286 0.848407 3.50477 0
M  V30 2912 O 288.39 -0.0804009 4.12322 0
M  V30 2913 H 287.731 0.23049 0.622712 0
M  V30 2914 H 290.261 1.2617 1.61066 0
M  V30 2915 H 290.271 0.768553 4.00696 0
M  V30 2916 H 288.946 1.88171 3.70897 0
M  V30 2917 H 287.523 0.0503508 3.72866 0
M  V30 2918 N 289.708 -1.40897 0.706093 0
M  V30 2919 C 290.955 -2.01054 0.241531 0
M  V30 2920 C 291.283 -1.55956 -1.16223 0
M  V30 2921 O 290.538 -0.766336 -1.80072 0
M  V30 2922 C 290.837 -3.5646 0.259099 0
M  V30 2923 C 290.503 -4.21106 1.61184 0
M  V30 2924 C 289.165 -4.38479 1.98216 0
M  V30 2925 C 291.517 -4.57256 2.50132 0
M  V30 2926 C 288.845 -4.89282 3.2376 0
M  V30 2927 C 291.197 -5.09454 3.7502 0
M  V30 2928 C 289.861 -5.25037 4.12181 0
M  V30 2929 H 289.131 -0.73571 0.0883825 0
M  V30 2930 H 291.778 -1.68645 0.907257 0
M  V30 2931 H 290.083 -3.88721 -0.490189 0
M  V30 2932 H 291.78 -4.00826 -0.11804 0
M  V30 2933 H 288.37 -4.07966 1.31384 0
M  V30 2934 H 292.554 -4.43479 2.228 0
M  V30 2935 H 287.81 -4.99531 3.52532 0
M  V30 2936 H 291.984 -5.36404 4.44121 0
M  V30 2937 H 289.611 -5.64164 5.09532 0
M  V30 2938 N 291.186 -0.45159 -1.50991 0
M  V30 2939 C 292.434 0.109857 -2.01801 0
M  V30 2940 C 292.755 1.41958 -1.3369 0
M  V30 2941 O 292.025 1.9003 -0.475951 0
M  V30 2942 H 290.605 0.0435884 -0.745727 0
M  V30 2943 H 293.267 -0.597557 -1.85514 0
M  V30 2944 H 292.363 0.275489 -3.10882 0
M  V30 2945 N 292.664 1.56529 -0.183458 0
M  V30 2946 C 293.889 2.02064 0.467428 0
M  V30 2947 C 294.314 1.06282 1.55196 0
M  V30 2948 O 293.672 0.0443565 1.81246 0
M  V30 2949 C 293.72 3.46122 1.01153 0
M  V30 2950 O 292.824 3.53437 2.12499 0
M  V30 2951 H 292.165 0.654726 0.110588 0
M  V30 2952 H 294.695 2.02521 -0.290917 0
M  V30 2953 H 294.705 3.85676 1.33108 0
M  V30 2954 H 293.38 4.15331 0.217533 0
M  V30 2955 H 291.957 3.2575 1.81497 0
M  V30 2956 N 294.142 -0.090211 1.57342 0
M  V30 2957 C 295.105 -1.09335 2.01441 0
M  V30 2958 C 296.105 -1.32666 0.908641 0
M  V30 2959 O 297.295 -1.28697 1.174 0
M  V30 2960 C 294.427 -2.44136 2.3793 0
M  V30 2961 H 295.62 -0.713662 2.91285 0
M  V30 2962 H 293.173 -0.335404 1.52659 0
M  V30 2963 H 293.908 -2.86972 1.51055 0
M  V30 2964 H 293.693 -2.28548 3.18603 0
M  V30 2965 H 295.183 -3.16277 2.72688 0
M  V30 2966 N 295.62 -1.53406 -0.361157 0
M  V30 2967 C 296.866 -1.70054 -1.10496 0
M  V30 2968 C 297.199 -0.453278 -1.88836 0
M  V30 2969 O 296.474 0.5495 -1.86576 0
M  V30 2970 C 296.757 -2.95317 -2.06058 0
M  V30 2971 C 296.61 -4.3021 -1.31298 0
M  V30 2972 C 297.929 -3.16193 -3.06121 0
M  V30 2973 H 295.048 -0.618799 -0.400321 0
M  V30 2974 H 297.69 -1.86052 -0.385318 0
M  V30 2975 H 295.84 -2.81809 -2.67425 0
M  V30 2976 H 297.512 -4.55538 -0.726807 0
M  V30 2977 H 295.755 -4.29421 -0.614853 0
M  V30 2978 H 296.426 -5.14 -2.01265 0
M  V30 2979 H 298.902 -3.28916 -2.5486 0
M  V30 2980 H 297.778 -4.05266 -3.70204 0
M  V30 2981 H 298.039 -2.31676 -3.76535 0
M  V30 2982 N 297.098 0.621204 -1.44841 0
M  V30 2983 C 298.347 1.37658 -1.47422 0
M  V30 2984 C 298.66 1.95264 -0.114629 0
M  V30 2985 O 299.866 2.71494 -0.0180199 0
M  V30 2986 C 298.322 2.49285 -2.59586 0
M  V30 2987 C 297.93 1.98149 -4.01797 0
M  V30 2988 C 299.674 3.26409 -2.71399 0
M  V30 2989 C 297.581 3.07178 -5.05367 0
M  V30 2990 H 296.511 0.517344 -0.548517 0
M  V30 2991 H 299.162 0.667257 -1.70938 0
M  V30 2992 H 297.544 3.22839 -2.29328 0
M  V30 2993 H 298.718 1.31395 -4.41669 0
M  V30 2994 H 297.033 1.33812 -3.94314 0
M  V30 2995 H 299.63 4.07706 -3.45948 0
M  V30 2996 H 299.973 3.76535 -1.77559 0
M  V30 2997 H 300.506 2.5995 -3.01116 0
M  V30 2998 H 297.245 2.61985 -6.00869 0
M  V30 2999 H 296.765 3.72542 -4.70077 0
M  V30 3000 H 298.444 3.71789 -5.29511 0
M  V30 3001 N 298.576 1.31904 0.862503 0
M  V30 3002 C 299.804 1.24998 1.64873 0
M  V30 3003 C 300.219 -0.183425 1.87907 0
M  V30 3004 O 299.576 -1.11794 1.44251 0
M  V30 3005 C 299.627 1.99829 3.01248 0
M  V30 3006 O 299.348 3.37575 2.79239 0
M  V30 3007 C 300.849 1.99852 3.95694 0
M  V30 3008 H 298.069 0.431599 0.513773 0
M  V30 3009 H 300.613 1.73901 1.07604 0
M  V30 3010 H 298.768 1.54668 3.55185 0
M  V30 3011 H 299.182 3.75776 3.65914 0
M  V30 3012 H 300.656 2.56709 4.88676 0
M  V30 3013 H 301.133 0.982852 4.28062 0
M  V30 3014 H 301.739 2.44926 3.47694 0
M  V30 3015 N 300.054 -1.07777 1.14986 0
M  V30 3016 C 301.004 -2.13082 0.811181 0
M  V30 3017 C 301.988 -1.59619 -0.202597 0
M  V30 3018 O 303.18 -1.77 -0.00398275 0
M  V30 3019 C 300.309 -3.42009 0.297439 0
M  V30 3020 C 299.395 -4.02337 1.34112 0
M  V30 3021 N 299.786 -4.36982 2.54716 0
M  V30 3022 C 298.084 -4.29752 1.19285 0
M  V30 3023 C 298.785 -4.84729 3.21578 0
M  V30 3024 N 297.761 -4.83233 2.48972 0
M  V30 3025 H 301.563 -2.37696 1.72853 0
M  V30 3026 H 299.077 -1.25173 1.03468 0
M  V30 3027 H 301.074 -4.16884 0.0364777 0
M  V30 3028 H 299.734 -3.18841 -0.614022 0
M  V30 3029 H 300.745 -4.27807 2.91894 0
M  V30 3030 H 297.422 -4.16106 0.340926 0
M  V30 3031 H 298.812 -5.20863 4.24442 0
M  V30 3032 N 301.532 -0.945985 -1.26051 0
M  V30 3033 C 302.48 -0.450259 -2.282 0
M  V30 3034 C 303.474 0.47497 -1.62605 0
M  V30 3035 O 304.68 0.352653 -1.76512 0
M  V30 3036 H 301.055 -0.127081 -0.741184 0
M  V30 3037 H 303.026 -1.32422 -2.67408 0
M  V30 3038 C 301.775 0.26467 -3.46691 0
M  V30 3039 H 301.098 -0.438123 -3.97392 0
M  V30 3040 H 302.538 0.575678 -4.20074 0
M  V30 3041 C 300.997 1.48416 -3.02447 0
M  V30 3042 O 301.527 2.58227 -3.07704 0
M  V30 3043 N 299.733 1.34243 -2.57735 0
M  V30 3044 H 299.28 0.448994 -2.53657 0
M  V30 3045 H 299.238 2.15957 -2.28495 0
M  V30 3046 N 303.011 1.40521 -0.713556 0
M  V30 3047 C 304.258 2.00923 -0.25219 0
M  V30 3048 C 304.586 1.56571 1.15395 0
M  V30 3049 O 303.841 0.775874 1.79663 0
M  V30 3050 C 304.14 3.56317 -0.278 0
M  V30 3051 C 303.806 4.20246 -1.63415 0
M  V30 3052 C 302.468 4.37422 -2.00538 0
M  V30 3053 C 304.82 4.55923 -2.52554 0
M  V30 3054 C 302.148 4.87558 -3.2635 0
M  V30 3055 C 304.5 5.07458 -3.77716 0
M  V30 3056 C 303.164 5.22843 -4.14959 0
M  V30 3057 H 302.434 0.735231 -0.0922829 0
M  V30 3058 H 305.081 1.68161 -0.916188 0
M  V30 3059 H 303.386 3.88976 0.469567 0
M  V30 3060 H 305.083 4.00883 0.0967819 0
M  V30 3061 H 301.673 4.07263 -1.33546 0
M  V30 3062 H 305.857 4.42291 -2.25149 0
M  V30 3063 H 301.113 4.97654 -3.55176 0
M  V30 3064 H 305.287 5.34041 -4.4696 0
M  V30 3065 H 302.914 5.61454 -5.12516 0
M  V30 3066 N 304.489 0.459591 1.5075 0
M  V30 3067 C 305.714 -0.0996819 2.0716 0
M  V30 3068 C 306.139 -1.33761 1.32249 0
M  V30 3069 O 305.497 -1.77551 0.366786 0
M  V30 3070 C 305.545 -0.378226 3.58611 0
M  V30 3071 O 304.649 -1.46081 3.85661 0
M  V30 3072 H 303.99 0.00791392 0.663953 0
M  V30 3073 H 306.52 0.647329 1.9409 0
M  V30 3074 H 306.53 -0.622135 4.03229 0
M  V30 3075 H 305.205 0.526439 4.12555 0
M  V30 3076 H 303.782 -1.20511 3.5289 0
M  V30 3077 N 305.967 -1.56429 0.191757 0
M  V30 3078 C 306.915 -2.20273 -0.747174 0
M  V30 3079 C 307.909 -1.17288 -1.22229 0
M  V30 3080 O 309.115 -1.35441 -1.18557 0
M  V30 3081 H 305.49 -0.705885 -0.259289 0
M  V30 3082 H 307.461 -2.97826 -0.184963 0
M  V30 3083 C 306.21 -2.87356 -1.95759 0
M  V30 3084 H 305.533 -3.66341 -1.60106 0
M  V30 3085 H 306.973 -3.3547 -2.59299 0
M  V30 3086 C 305.432 -1.88213 -2.79423 0
M  V30 3087 O 305.962 -1.38033 -3.7724 0
M  V30 3088 N 304.168 -1.56516 -2.44849 0
M  V30 3089 H 303.715 -1.97516 -1.65364 0
M  V30 3090 H 303.673 -0.904369 -3.01112 0
M  V30 3091 N 307.445 0.0818655 -1.57387 0
M  V30 3092 C 308.395 1.10501 -1.99433 0
M  V30 3093 C 309.379 1.35041 -0.874798 0
M  V30 3094 O 310.571 1.35511 -1.13868 0
M  V30 3095 C 307.7 2.42159 -2.43339 0
M  V30 3096 C 306.786 2.20937 -3.62005 0
M  V30 3097 N 307.177 1.69616 -4.76512 0
M  V30 3098 C 305.475 2.51451 -3.68359 0
M  V30 3099 C 306.176 1.62973 -5.58404 0
M  V30 3100 N 305.152 2.08664 -5.01956 0
M  V30 3101 H 308.954 0.701373 -2.85408 0
M  V30 3102 H 306.468 0.289096 -1.59806 0
M  V30 3103 H 308.465 3.16208 -2.71695 0
M  V30 3104 H 307.125 2.83249 -1.58746 0
M  V30 3105 H 308.136 1.38624 -4.99003 0
M  V30 3106 H 304.813 2.95975 -2.94457 0
M  V30 3107 H 306.203 1.24233 -6.60315 0
M  V30 3108 N 308.923 1.53595 0.353017 0
M  V30 3109 C 310.169 1.71581 1.09232 0
M  V30 3110 C 310.524 0.468328 1.86613 0
M  V30 3111 O 309.817 -0.538911 1.83865 0
M  V30 3112 C 310.011 2.91313 2.07054 0
M  V30 3113 C 309.84 4.27585 1.39287 0
M  V30 3114 C 308.61 4.92233 1.1417 0
M  V30 3115 C 310.808 5.07656 0.824005 0
M  V30 3116 N 308.79 6.124 0.428841 0
M  V30 3117 C 310.161 6.19531 0.241195 0
M  V30 3118 C 312.216 4.92609 0.723922 0
M  V30 3119 C 310.919 7.18002 -0.431952 0
M  V30 3120 C 312.945 5.91365 0.0645334 0
M  V30 3121 C 312.307 7.02571 -0.507347 0
M  V30 3122 H 308.406 0.680987 0.384422 0
M  V30 3123 H 310.99 1.91013 0.377096 0
M  V30 3124 H 309.161 2.73398 2.75877 0
M  V30 3125 H 310.893 2.98062 2.73753 0
M  V30 3126 H 307.648 4.51612 1.42631 0
M  V30 3127 H 308.072 6.76944 0.0874131 0
M  V30 3128 H 312.714 4.06808 1.15181 0
M  V30 3129 H 310.432 8.03384 -0.871758 0
M  V30 3130 H 314.018 5.81799 -0.0121469 0
M  V30 3131 H 312.898 7.77675 -1.0095 0
M  V30 3132 N 310.401 -0.613514 1.45168 0
M  V30 3133 C 311.65 -1.36874 1.4815 0
M  V30 3134 C 311.963 -1.952 0.124982 0
M  V30 3135 O 313.169 -2.71481 0.0324176 0
M  V30 3136 C 311.625 -2.47905 2.60904 0
M  V30 3137 C 311.233 -1.96016 4.02842 0
M  V30 3138 C 312.977 -3.24965 2.73126 0
M  V30 3139 C 310.884 -3.04494 5.06988 0
M  V30 3140 H 309.814 -0.514428 0.551253 0
M  V30 3141 H 312.465 -0.658182 1.7129 0
M  V30 3142 H 310.847 -3.21618 2.31037 0
M  V30 3143 H 312.021 -1.29051 4.4236 0
M  V30 3144 H 310.336 -1.31719 3.95018 0
M  V30 3145 H 312.933 -4.05865 3.48106 0
M  V30 3146 H 313.276 -3.75588 1.79553 0
M  V30 3147 H 313.809 -2.5835 3.0249 0
M  V30 3148 H 310.548 -2.58795 6.0225 0
M  V30 3149 H 310.068 -3.70044 4.72046 0
M  V30 3150 H 311.747 -3.68976 5.31475 0
M  V30 3151 N 311.879 -1.3236 -0.855495 0
M  V30 3152 C 313.126 -1.22872 -1.60962 0
M  V30 3153 C 313.454 0.209658 -1.93367 0
M  V30 3154 O 312.709 1.16243 -1.57436 0
M  V30 3155 C 313.008 -2.03275 -2.93963 0
M  V30 3156 C 312.674 -3.5264 -2.80991 0
M  V30 3157 C 311.336 -3.93364 -2.7716 0
M  V30 3158 C 313.688 -4.47626 -2.66983 0
M  V30 3159 C 311.016 -5.27319 -2.572 0
M  V30 3160 C 313.368 -5.81723 -2.48558 0
M  V30 3161 C 312.032 -6.2165 -2.4312 0
M  V30 3162 H 311.302 -0.44962 -0.589001 0
M  V30 3163 H 313.949 -1.63777 -0.992442 0
M  V30 3164 H 312.254 -1.55095 -3.59795 0
M  V30 3165 H 313.951 -1.93303 -3.51333 0
M  V30 3166 H 310.541 -3.20295 -2.84797 0
M  V30 3167 H 314.725 -4.17084 -2.68988 0
M  V30 3168 H 309.981 -5.57311 -2.51424 0
M  V30 3169 H 314.155 -6.5494 -2.36699 0
M  V30 3170 H 311.782 -7.25388 -2.27412 0
M  V30 3171 N 313.357 1.07166 -1.15556 0
M  V30 3172 C 314.603 1.80222 -0.942961 0
M  V30 3173 C 314.958 1.85121 0.524209 0
M  V30 3174 O 314.251 1.32531 1.38369 0
M  V30 3175 C 314.445 3.24707 -1.49332 0
M  V30 3176 C 314.274 3.33887 -3.01247 0
M  V30 3177 C 313.044 3.44337 -3.69811 0
M  V30 3178 C 315.242 3.24484 -3.99017 0
M  V30 3179 N 313.224 3.42439 -5.09518 0
M  V30 3180 C 314.595 3.29726 -5.25053 0
M  V30 3181 C 316.65 3.08307 -3.90962 0
M  V30 3182 C 315.353 3.20455 -6.43973 0
M  V30 3183 C 317.379 3.00371 -5.09442 0
M  V30 3184 C 316.741 3.06227 -6.34354 0
M  V30 3185 H 312.84 0.672709 -0.398731 0
M  V30 3186 H 315.424 1.27905 -1.46794 0
M  V30 3187 H 313.595 3.7544 -0.994946 0
M  V30 3188 H 315.327 3.85894 -1.21935 0
M  V30 3189 H 312.082 3.48762 -3.20409 0
M  V30 3190 H 312.506 3.45013 -5.8249 0
M  V30 3191 H 317.148 3.02633 -2.95251 0
M  V30 3192 H 314.866 3.24888 -7.39914 0
M  V30 3193 H 318.452 2.88955 -5.04971 0
M  V30 3194 H 317.332 3.00132 -7.24493 0
M  V30 3195 N 314.835 0.952656 1.25548 0
M  V30 3196 C 316.081 0.607272 1.93494 0
M  V30 3197 C 316.414 -0.853245 1.74452 0
M  V30 3198 O 315.689 -1.61194 1.08843 0
M  V30 3199 C 315.972 0.96435 3.46947 0
M  V30 3200 C 315.825 2.48045 3.75225 0
M  V30 3201 C 317.144 0.487987 4.37386 0
M  V30 3202 H 314.263 0.222096 0.702739 0
M  V30 3203 H 316.905 1.18895 1.48203 0
M  V30 3204 H 315.055 0.469361 3.85654 0
M  V30 3205 H 316.727 3.04905 3.46166 0
M  V30 3206 H 314.97 2.919 3.209 0
M  V30 3207 H 315.641 2.6808 4.82532 0
M  V30 3208 H 318.117 0.912558 4.0597 0
M  V30 3209 H 316.993 0.766547 5.43521 0
M  V30 3210 H 317.254 -0.612063 4.37843 0
M  V30 3211 N 316.313 -1.40141 0.720998 0
M  V30 3212 C 317.561 -2.0039 0.262323 0
M  V30 3213 C 317.882 -1.57469 -1.15015 0
M  V30 3214 O 317.152 -0.816582 -1.78069 0
M  V30 3215 H 315.732 -0.741063 0.093996 0
M  V30 3216 H 318.394 -1.71398 0.927835 0
M  V30 3217 H 317.49 -3.10658 0.299671 0
M  V30 3218 N 317.792 -0.46758 -1.50504 0
M  V30 3219 C 319.203 -0.0116166 -1.86696 0
M  V30 3220 C 319.554 1.39202 -1.38265 0
M  V30 3221 O 318.679 2.0313 -0.746132 0
M  V30 3222 C 319.274 -0.0143044 -3.38797 0
M  V30 3223 C 317.833 0.386175 -3.74414 0
M  V30 3224 C 316.98 -0.401287 -2.74381 0
M  V30 3225 H 319.931 -0.682022 -1.43297 0
M  V30 3226 H 319.952 0.788641 -3.72237 0
M  V30 3227 H 319.464 -1.03602 -3.74016 0
M  V30 3228 H 317.565 1.41237 -3.44794 0
M  V30 3229 H 317.678 0.0899596 -4.79016 0
M  V30 3230 H 316.042 0.144536 -2.5429 0
M  V30 3231 H 316.825 -1.42244 -3.12444 0
M  V30 3232 N 319.27 1.56325 -0.20005 0
M  V30 3233 C 320.517 1.97719 0.437411 0
M  V30 3234 C 320.845 1.08709 1.61284 0
M  V30 3235 O 320.1 0.127261 1.95286 0
M  V30 3236 C 320.399 3.4495 0.935103 0
M  V30 3237 C 320.065 4.5072 -0.12749 0
M  V30 3238 C 318.727 4.79368 -0.419451 0
M  V30 3239 C 321.079 5.14268 -0.847231 0
M  V30 3240 C 318.407 5.68854 -1.43604 0
M  V30 3241 C 320.759 6.04852 -1.85301 0
M  V30 3242 C 319.423 6.31855 -2.15211 0
M  V30 3243 H 318.693 0.723507 0.16006 0
M  V30 3244 H 321.34 1.89166 -0.298056 0
M  V30 3245 H 319.645 3.50599 1.74894 0
M  V30 3246 H 321.342 3.74337 1.43781 0
M  V30 3247 H 317.932 4.28458 0.11023 0
M  V30 3248 H 322.116 4.92222 -0.634901 0
M  V30 3249 H 317.372 5.88047 -1.67364 0
M  V30 3250 H 321.546 6.53152 -2.41591 0
M  V30 3251 H 319.173 7.00994 -2.94129 0
M  V30 3252 N 320.748 -0.0735177 1.57428 0
M  V30 3253 C 321.997 -0.771809 1.86349 0
M  V30 3254 C 322.31 -1.78828 0.792452 0
M  V30 3255 O 323.516 -2.53602 0.96945 0
M  V30 3256 C 321.972 -1.42358 3.30548 0
M  V30 3257 C 321.58 -0.445761 4.45777 0
M  V30 3258 C 323.324 -2.10434 3.6867 0
M  V30 3259 C 321.231 -1.10335 5.81016 0
M  V30 3260 H 320.161 -0.291999 0.695164 0
M  V30 3261 H 322.812 -0.0250749 1.83483 0
M  V30 3262 H 321.194 -2.21852 3.28021 0
M  V30 3263 H 322.368 0.319239 4.59693 0
M  V30 3264 H 320.683 0.130457 4.16196 0
M  V30 3265 H 323.28 -2.60405 4.67004 0
M  V30 3266 H 323.623 -2.90298 2.98383 0
M  V30 3267 H 324.156 -1.37773 3.7318 0
M  V30 3268 H 320.895 -0.345061 6.54591 0
M  V30 3269 H 320.415 -1.83925 5.70904 0
M  V30 3270 H 322.094 -1.62367 6.26295 0
M  V30 3271 N 322.226 -1.5378 -0.344866 0
M  V30 3272 C 323.474 -1.70625 -1.08311 0
M  V30 3273 C 323.795 -0.471447 -1.89215 0
M  V30 3274 O 323.065 0.514616 -1.8902 0
M  V30 3275 H 321.645 -0.629058 -0.402859 0
M  V30 3276 H 324.307 -1.9103 -0.386459 0
M  V30 3277 H 323.403 -2.57656 -1.76124 0
M  V30 3278 N 323.704 0.605807 -1.45491 0
M  V30 3279 C 324.952 1.36207 -1.49305 0
M  V30 3280 C 325.273 1.94519 -0.136863 0
M  V30 3281 O 324.543 1.77261 0.833983 0
M  V30 3282 H 323.123 0.50565 -0.549843 0
M  V30 3283 H 325.785 0.711239 -1.81459 0
M  V30 3284 H 324.881 2.18058 -2.23287 0
M  V30 3285 N 325.182 1.32811 0.848464 0
M  V30 3286 C 326.145 1.22194 1.9391 0
M  V30 3287 C 327.145 0.143404 1.60159 0
M  V30 3288 O 328.335 0.394253 1.6968 0
M  V30 3289 C 325.467 0.88067 3.29328 0
M  V30 3290 H 326.66 2.19127 2.04752 0
M  V30 3291 H 324.213 1.16731 1.0394 0
M  V30 3292 H 324.948 -0.0865776 3.24184 0
M  V30 3293 H 324.733 1.66052 3.55203 0
M  V30 3294 H 326.223 0.830871 4.09251 0
M  V30 3295 N 326.66 -1.06551 1.16123 0
M  V30 3296 C 327.59 -2.15935 0.88851 0
M  V30 3297 C 328.571 -1.69306 -0.164135 0
M  V30 3298 O 329.756 -1.94193 -0.0167857 0
M  V30 3299 C 326.886 -3.45149 0.385942 0
M  V30 3300 C 325.84 -4.05271 1.3762 0
M  V30 3301 C 325.166 -5.29664 0.732137 0
M  V30 3302 C 326.466 -4.44355 2.74493 0
M  V30 3303 H 328.16 -2.39006 1.80323 0
M  V30 3304 H 325.706 -1.14866 0.868435 0
M  V30 3305 H 327.659 -4.21004 0.182647 0
M  V30 3306 H 326.383 -3.21689 -0.564274 0
M  V30 3307 H 325.042 -3.3147 1.56599 0
M  V30 3308 H 324.69 -5.02499 -0.224483 0
M  V30 3309 H 324.39 -5.70848 1.39307 0
M  V30 3310 H 325.914 -6.08218 0.538802 0
M  V30 3311 H 327.328 -5.11303 2.59311 0
M  V30 3312 H 325.725 -4.96515 3.37035 0
M  V30 3313 H 326.795 -3.55339 3.29943 0
M  V30 3314 N 328.138 -0.959301 -1.25041 0
M  V30 3315 C 329.101 -0.487677 -2.23952 0
M  V30 3316 C 330.101 0.41119 -1.55454 0
M  V30 3317 O 331.291 0.207825 -1.72956 0
M  V30 3318 C 328.423 0.294807 -3.39623 0
M  V30 3319 H 329.616 -1.36198 -2.67189 0
M  V30 3320 H 327.169 -0.743042 -1.37508 0
M  V30 3321 H 327.904 1.18658 -3.01813 0
M  V30 3322 H 327.689 -0.35012 -3.90534 0
M  V30 3323 H 329.179 0.614089 -4.1306 0
M  V30 3324 N 329.616 1.39756 -0.72842 0
M  V30 3325 C 330.862 2.00942 -0.273892 0
M  V30 3326 C 331.195 1.57656 1.13394 0
M  V30 3327 O 330.47 0.802434 1.77176 0
M  V30 3328 C 330.753 3.58211 -0.368346 0
M  V30 3329 C 330.606 4.11534 -1.81548 0
M  V30 3330 C 331.925 4.39372 0.253054 0
M  V30 3331 H 329.044 0.730047 -0.100996 0
M  V30 3332 H 331.686 1.66056 -0.923337 0
M  V30 3333 H 329.836 3.88061 0.184588 0
M  V30 3334 H 331.508 3.92431 -2.42478 0
M  V30 3335 H 329.751 3.65341 -2.33898 0
M  V30 3336 H 330.422 5.20682 -1.83288 0
M  V30 3337 H 332.898 4.15527 -0.218224 0
M  V30 3338 H 331.774 5.48677 0.156585 0
M  V30 3339 H 332.035 4.21358 1.33826 0
M  V30 3340 N 331.094 0.475555 1.50254 0
M  V30 3341 C 332.024 -0.30611 2.31485 0
M  V30 3342 C 333.005 -0.986228 1.38591 0
M  V30 3343 O 334.19 -0.982541 1.67511 0
M  V30 3344 C 331.32 -1.38588 3.1845 0
M  V30 3345 C 330.274 -0.827115 4.19932 0
M  V30 3346 C 329.6 -2.00551 4.95665 0
M  V30 3347 C 330.9 0.16463 5.2204 0
M  V30 3348 H 332.594 0.371866 2.97082 0
M  V30 3349 H 330.14 0.180282 1.42867 0
M  V30 3350 H 332.093 -1.94023 3.74076 0
M  V30 3351 H 330.817 -2.09269 2.50747 0
M  V30 3352 H 329.476 -0.294702 3.65414 0
M  V30 3353 H 329.124 -2.6994 4.2443 0
M  V30 3354 H 328.824 -1.63784 5.64313 0
M  V30 3355 H 330.348 -2.56468 5.54127 0
M  V30 3356 H 331.762 -0.300699 5.72511 0
M  V30 3357 H 330.159 0.446813 5.98434 0
M  V30 3358 H 331.229 1.08905 4.72512 0
M  V30 3359 N 332.573 -1.56217 0.208337 0
M  V30 3360 C 333.822 -1.97124 -0.427204 0
M  V30 3361 C 334.135 -1.09859 -1.61835 0
M  V30 3362 O 335.341 -1.40606 -2.32255 0
M  V30 3363 C 333.797 -3.50633 -0.811442 0
M  V30 3364 C 333.405 -4.46582 0.35615 0
M  V30 3365 C 335.149 -4.00282 -1.41332 0
M  V30 3366 C 333.056 -5.91379 -0.0497852 0
M  V30 3367 H 331.986 -0.736086 -0.163381 0
M  V30 3368 H 334.637 -1.8099 0.302456 0
M  V30 3369 H 333.019 -3.62319 -1.59815 0
M  V30 3370 H 334.193 -4.46636 1.1337 0
M  V30 3371 H 332.508 -4.07202 0.870396 0
M  V30 3372 H 335.105 -5.0595 -1.72972 0
M  V30 3373 H 335.448 -3.45359 -2.32449 0
M  V30 3374 H 335.981 -3.91764 -0.690323 0
M  V30 3375 H 332.72 -6.50255 0.827529 0
M  V30 3376 H 332.24 -5.94549 -0.791926 0
M  V30 3377 H 333.919 -6.45209 -0.481042 0
M  V30 3378 N 334.051 0.0651679 -1.57465 0
M  V30 3379 C 335.281 0.774683 -1.91526 0
M  V30 3380 C 335.689 1.71305 -0.803196 0
M  V30 3381 O 335.032 1.82231 0.231881 0
M  V30 3382 C 335.094 1.61645 -3.21109 0
M  V30 3383 C 334.758 0.846753 -4.49087 0
M  V30 3384 C 335.755 0.163024 -5.19644 0
M  V30 3385 C 333.44 0.811966 -4.95694 0
M  V30 3386 C 335.434 -0.54519 -6.35064 0
M  V30 3387 C 333.121 0.0999836 -6.11018 0
M  V30 3388 C 334.119 -0.577388 -6.80555 0
M  V30 3389 O 333.807 -1.27789 -7.93678 0
M  V30 3390 H 333.539 0.225031 -0.637446 0
M  V30 3391 H 336.093 0.0377134 -2.05365 0
M  V30 3392 H 334.323 2.39638 -3.03497 0
M  V30 3393 H 336.012 2.20525 -3.40769 0
M  V30 3394 H 336.778 0.181163 -4.84662 0
M  V30 3395 H 332.657 1.32867 -4.41438 0
M  V30 3396 H 336.201 -1.07446 -6.89276 0
M  V30 3397 H 332.098 0.0797945 -6.45451 0
M  V30 3398 H 332.866 -1.18784 -8.09835 0
M  V30 3399 N 335.529 1.53961 0.336706 0
M  V30 3400 C 336.806 1.62171 1.09361 0
M  V30 3401 C 337.186 0.447263 2.06307 0
M  V30 3402 O 336.534 -0.559802 2.21537 0
M  V30 3403 C 336.744 2.98565 1.80721 0
M  V30 3404 C 338.092 3.54157 2.34218 0
M  V30 3405 O 339.116 3.00784 1.90807 0
M  V30 3406 O 337.975 4.47528 3.13657 0
M  V30 3407 H 335.069 0.6562 0.503319 0
M  V30 3408 H 337.615 1.66307 0.33765 0
M  V30 3409 H 336.387 3.75482 1.10132 0
M  V30 3410 H 336.01 2.9805 2.63158 0
M  V30 3411 N 337.007 -0.598083 1.45811 0
M  V30 3412 C 338.254 -1.35681 1.50323 0
M  V30 3413 C 338.582 -1.9393 0.148739 0
M  V30 3414 O 337.837 -1.76094 -0.853787 0
M  V30 3415 C 338.136 -2.51669 2.53766 0
M  V30 3416 C 337.802 -2.11508 3.98215 0
M  V30 3417 C 336.464 -2.0027 4.37545 0
M  V30 3418 C 338.816 -1.80308 4.89018 0
M  V30 3419 C 336.144 -1.56067 5.65562 0
M  V30 3420 C 338.496 -1.37589 6.17456 0
M  V30 3421 C 337.16 -1.24916 6.55708 0
M  V30 3422 H 336.43 -0.496492 0.550069 0
M  V30 3423 H 339.077 -0.675052 1.79207 0
M  V30 3424 H 337.382 -3.25225 2.18486 0
M  V30 3425 H 339.079 -3.09895 2.54492 0
M  V30 3426 H 335.669 -2.21185 3.67117 0
M  V30 3427 H 339.853 -1.87884 4.59362 0
M  V30 3428 H 335.109 -1.44886 5.93985 0
M  V30 3429 H 339.283 -1.12495 6.87254 0
M  V30 3430 H 336.91 -0.904386 7.54801 0
M  V30 3431 N 338.485 -1.33259 -0.841409 0
M  V30 3432 C 339.734 -1.23921 -1.59143 0
M  V30 3433 C 340.047 0.1941 -1.94635 0
M  V30 3434 O 341.253 0.409474 -2.68394 0
M  V30 3435 C 339.709 -2.17119 -2.87032 0
M  V30 3436 C 339.317 -3.65606 -2.58914 0
M  V30 3437 C 341.061 -2.16648 -3.65053 0
M  V30 3438 C 338.968 -4.50726 -3.82884 0
M  V30 3439 H 337.898 -0.460264 -0.597221 0
M  V30 3440 H 340.549 -1.58307 -0.927959 0
M  V30 3441 H 338.931 -1.75663 -3.54906 0
M  V30 3442 H 340.105 -4.15487 -1.99267 0
M  V30 3443 H 338.42 -3.68341 -1.942 0
M  V30 3444 H 341.017 -2.77474 -4.57069 0
M  V30 3445 H 341.36 -1.16088 -3.99787 0
M  V30 3446 H 341.893 -2.56453 -3.041 0
M  V30 3447 H 338.632 -5.52151 -3.53283 0
M  V30 3448 H 338.152 -4.0559 -4.41879 0
M  V30 3449 H 339.831 -4.64401 -4.50489 0
M  V30 3450 N 339.963 1.05934 -1.16686 0
M  V30 3451 C 340.893 2.1546 -0.899949 0
M  V30 3452 C 341.874 1.69391 0.155154 0
M  V30 3453 O 343.059 1.94199 0.00648693 0
M  V30 3454 C 340.189 3.44939 -0.404241 0
M  V30 3455 C 339.143 4.04536 -1.39767 0
M  V30 3456 C 338.469 5.29268 -0.760216 0
M  V30 3457 C 339.769 4.42893 -2.76845 0
M  V30 3458 H 341.463 2.38046 -1.81588 0
M  V30 3459 H 339.009 1.14404 -0.874514 0
M  V30 3460 H 340.962 4.20901 -0.204971 0
M  V30 3461 H 339.686 3.21983 0.547206 0
M  V30 3462 H 338.345 3.30635 -1.58355 0
M  V30 3463 H 337.993 5.02611 0.197831 0
M  V30 3464 H 337.693 5.70101 -1.42332 0
M  V30 3465 H 339.217 6.07924 -0.57105 0
M  V30 3466 H 340.631 5.09921 -2.62019 0
M  V30 3467 H 339.028 4.94721 -3.39663 0
M  V30 3468 H 340.098 3.53584 -3.31823 0
M  V30 3469 N 341.441 0.965919 1.2453 0
M  V30 3470 C 342.404 0.499547 2.2369 0
M  V30 3471 C 343.404 -0.40294 1.5567 0
M  V30 3472 O 344.594 -0.19865 1.73064 0
M  V30 3473 C 341.726 -0.276792 3.39774 0
M  V30 3474 H 342.919 1.37613 2.66463 0
M  V30 3475 H 340.472 0.750324 1.37112 0
M  V30 3476 H 341.207 -1.17055 3.02438 0
M  V30 3477 H 340.992 0.370826 3.90343 0
M  V30 3478 H 342.482 -0.592175 4.1338 0
M  V30 3479 N 342.919 -1.39368 0.735821 0
M  V30 3480 C 344.33 -1.83313 0.354015 0
M  V30 3481 C 344.681 -1.61461 -1.11466 0
M  V30 3482 O 343.806 -1.10621 -1.85989 0
M  V30 3483 C 344.401 -3.32781 0.635769 0
M  V30 3484 C 342.96 -3.75142 0.307448 0
M  V30 3485 C 342.107 -2.62358 0.897974 0
M  V30 3486 H 345.058 -1.28349 0.933398 0
M  V30 3487 H 345.079 -3.80388 -0.0921773 0
M  V30 3488 H 344.591 -3.48654 1.70476 0
M  V30 3489 H 342.692 -3.64857 -0.755674 0
M  V30 3490 H 342.805 -4.72532 0.790583 0
M  V30 3491 H 341.169 -2.52624 0.324551 0
M  V30 3492 H 341.952 -2.81036 1.97164 0
M  V30 3493 N 344.397 -0.483516 -1.5 0
M  V30 3494 C 345.813 -0.138404 -1.58999 0
M  V30 3495 C 346.013 1.35597 -1.4905 0
M  V30 3496 O 345.069 2.13039 -1.35539 0
M  V30 3497 C 346.382 -0.699658 -2.92447 0
M  V30 3498 C 347.93 -0.664195 -3.05872 0
M  V30 3499 C 348.405 -1.20321 -4.41913 0
M  V30 3500 N 349.896 -1.16315 -4.48358 0
M  V30 3501 C 350.631 -1.55058 -5.52037 0
M  V30 3502 N 350.127 -2.01311 -6.62907 0
M  V30 3503 N 351.92 -1.46584 -5.42651 0
M  V30 3504 H 344.071 -1.45529 -1.5471 0
M  V30 3505 H 346.334 -0.60258 -0.731848 0
M  V30 3506 H 346.04 -1.747 -3.05242 0
M  V30 3507 H 345.914 -0.150194 -3.76901 0
M  V30 3508 H 348.301 0.374272 -2.92717 0
M  V30 3509 H 348.382 -1.25061 -2.23144 0
M  V30 3510 H 348.026 -2.24037 -4.55818 0
M  V30 3511 H 347.956 -0.592896 -5.23252 0
M  V30 3512 H 350.447 -0.824058 -3.68806 0
M  V30 3513 H 350.76 -2.2899 -7.38095 0
M  V30 3514 H 349.105 -2.05273 -6.63994 0
M  V30 3515 H 352.296 -1.10281 -4.54924 0
M  V30 3516 H 352.469 -1.77103 -6.23329 0
M  V30 3517 N 345.875 1.56104 -0.216619 0
M  V30 3518 C 347.1 2.0301 0.424462 0
M  V30 3519 C 347.525 1.0955 1.52907 0
M  V30 3520 O 346.883 0.0827914 1.81111 0
M  V30 3521 C 346.931 3.4819 0.937883 0
M  V30 3522 O 346.035 3.57865 2.04955 0
M  V30 3523 H 345.376 0.656925 0.0966755 0
M  V30 3524 H 347.906 2.01859 -0.33381 0
M  V30 3525 H 347.916 3.88413 1.24897 0
M  V30 3526 H 346.591 4.15699 0.129387 0
M  V30 3527 H 345.168 3.29527 1.74546 0
M  V30 3528 N 347.353 -0.0568162 1.57498 0
M  V30 3529 C 348.578 -0.769402 1.92601 0
M  V30 3530 C 349.003 -1.69559 0.814336 0
M  V30 3531 O 348.361 -1.79811 -0.231903 0
M  V30 3532 C 348.409 -1.52634 3.26704 0
M  V30 3533 O 347.513 -2.63797 3.16994 0
M  V30 3534 H 346.854 -0.208909 0.63028 0
M  V30 3535 H 349.384 -0.0205798 2.0459 0
M  V30 3536 H 349.394 -1.90234 3.60936 0
M  V30 3537 H 348.069 -0.846875 4.07186 0
M  V30 3538 H 346.646 -2.28943 2.94346 0
M  V30 3539 N 348.832 -1.54138 -0.328536 0
M  V30 3540 C 350.109 -1.62749 -1.08499 0
M  V30 3541 C 350.489 -0.458198 -2.06067 0
M  V30 3542 O 349.837 0.548046 -2.2183 0
M  V30 3543 C 350.047 -2.99519 -1.79135 0
M  V30 3544 C 351.395 -3.55394 -2.32337 0
M  V30 3545 O 352.419 -3.01792 -1.89209 0
M  V30 3546 O 351.278 -4.49186 -3.11279 0
M  V30 3547 H 348.372 -0.65886 -0.499832 0
M  V30 3548 H 350.918 -1.66484 -0.328826 0
M  V30 3549 H 349.69 -3.76061 -1.08139 0
M  V30 3550 H 349.313 -2.99441 -2.61574 0
M  V30 3551 N 350.31 0.590341 -1.46126 0
M  V30 3552 C 351.24 1.71032 -1.58966 0
M  V30 3553 C 352.221 1.64302 -0.440335 0
M  V30 3554 O 353.406 1.82436 -0.665634 0
M  V30 3555 C 350.536 3.09665 -1.57241 0
M  V30 3556 C 349.49 3.31221 -2.71066 0
M  V30 3557 C 348.816 4.70303 -2.54399 0
M  V30 3558 C 350.116 3.19796 -4.1295 0
M  V30 3559 H 351.81 1.60543 -2.52718 0
M  V30 3560 H 349.356 0.770933 -1.21625 0
M  V30 3561 H 351.309 3.87831 -1.64819 0
M  V30 3562 H 350.033 3.21036 -0.600289 0
M  V30 3563 H 348.692 2.55452 -2.62944 0
M  V30 3564 H 348.34 4.78429 -1.55288 0
M  V30 3565 H 348.04 4.85679 -3.30741 0
M  V30 3566 H 349.564 5.50647 -2.63857 0
M  V30 3567 H 350.978 3.87815 -4.22223 0
M  V30 3568 H 349.375 3.46696 -4.89818 0
M  V30 3569 H 350.445 2.16983 -4.33643 0
M  V30 3570 N 351.788 1.33704 0.83433 0
M  V30 3571 C 353.016 1.28467 1.62185 0
M  V30 3572 C 353.431 -0.143526 1.88254 0
M  V30 3573 O 352.788 -1.08709 1.4659 0
M  V30 3574 C 352.839 2.06174 2.96942 0
M  V30 3575 O 352.56 3.43422 2.72016 0
M  V30 3576 C 354.061 2.08201 3.91366 0
M  V30 3577 H 351.281 0.4424 0.504503 0
M  V30 3578 H 353.825 1.76145 1.03891 0
M  V30 3579 H 351.98 1.62167 3.51825 0
M  V30 3580 H 352.394 3.83453 3.57861 0
M  V30 3581 H 353.868 2.67017 4.83121 0
M  V30 3582 H 354.345 1.07343 4.2588 0
M  V30 3583 H 354.951 2.52246 3.42421 0
M  V30 3584 N 353.266 -1.05314 1.17247 0
M  V30 3585 C 354.543 -1.75184 0.87005 0
M  V30 3586 C 354.923 -2.01481 -0.629965 0
M  V30 3587 O 354.271 -1.64988 -1.58086 0
M  V30 3588 C 354.481 -3.04594 1.70363 0
M  V30 3589 C 355.829 -3.78567 1.92281 0
M  V30 3590 O 356.853 -3.14461 1.67311 0
M  V30 3591 O 355.712 -4.93755 2.3424 0
M  V30 3592 H 352.806 -0.761729 0.322021 0
M  V30 3593 H 355.352 -1.11493 1.27935 0
M  V30 3594 H 354.124 -2.81201 2.72106 0
M  V30 3595 H 353.747 -3.76022 1.29202 0
M  V30 3596 N 354.744 -0.972509 -1.24016 0
M  V30 3597 C 356.16 -0.679827 -1.44397 0
M  V30 3598 C 356.36 0.756716 -1.86751 0
M  V30 3599 O 355.416 1.53007 -2.00861 0
M  V30 3600 C 356.729 -1.66803 -2.50195 0
M  V30 3601 C 358.277 -1.68119 -2.64017 0
M  V30 3602 C 358.752 -2.65748 -3.73017 0
M  V30 3603 N 360.243 -2.64219 -3.8045 0
M  V30 3604 C 360.978 -3.36433 -4.64328 0
M  V30 3605 N 360.474 -4.1818 -5.52356 0
M  V30 3606 N 362.267 -3.25235 -4.58453 0
M  V30 3607 H 354.418 -1.90059 -0.948228 0
M  V30 3608 H 356.681 -0.818527 -0.478245 0
M  V30 3609 H 356.387 -2.69498 -2.25973 0
M  V30 3610 H 356.261 -1.4446 -3.48441 0
M  V30 3611 H 358.648 -0.661319 -2.87594 0
M  V30 3612 H 358.729 -1.94525 -1.66113 0
M  V30 3613 H 358.373 -3.67872 -3.50189 0
M  V30 3614 H 358.303 -2.36619 -4.70446 0
M  V30 3615 H 360.794 -2.04887 -3.17537 0
M  V30 3616 H 361.107 -4.70157 -6.13329 0
M  V30 3617 H 359.452 -4.22273 -5.52006 0
M  V30 3618 H 362.643 -2.60829 -3.88698 0
M  V30 3619 H 362.816 -3.81776 -5.23594 0
M  V30 3620 N 356.222 1.38976 -0.743202 0
M  V30 3621 C 357.468 2.0064 -0.295189 0
M  V30 3622 C 357.801 1.5885 1.11716 0
M  V30 3623 O 357.076 0.821181 1.76315 0
M  V30 3624 C 357.359 3.578 -0.406318 0
M  V30 3625 C 357.212 4.09586 -1.85903 0
M  V30 3626 C 358.531 4.39616 0.206439 0
M  V30 3627 H 355.65 0.728935 -0.108733 0
M  V30 3628 H 358.292 1.65067 -0.940897 0
M  V30 3629 H 356.442 3.88235 0.143419 0
M  V30 3630 H 358.114 3.89837 -2.46627 0
M  V30 3631 H 356.357 3.6284 -2.3776 0
M  V30 3632 H 357.028 5.18708 -1.888 0
M  V30 3633 H 359.504 4.15273 -0.262283 0
M  V30 3634 H 358.38 5.48812 0.0983819 0
M  V30 3635 H 358.641 4.22754 1.2935 0
M  V30 3636 N 357.7 0.491464 1.49741 0
M  V30 3637 C 358.647 -0.292027 2.28945 0
M  V30 3638 C 359.617 -0.968973 1.34908 0
M  V30 3639 O 360.802 -0.97748 1.6386 0
M  V30 3640 C 357.942 -1.35617 3.17336 0
M  V30 3641 C 357.055 -0.691957 4.26422 0
M  V30 3642 C 356.19 -1.73572 5.02042 0
M  V30 3643 C 355.229 -1.05286 6.02977 0
M  V30 3644 N 354.366 -2.0404 6.71798 0
M  V30 3645 H 359.206 0.389654 2.95442 0
M  V30 3646 H 356.743 0.204003 1.45679 0
M  V30 3647 H 358.701 -1.98502 3.66951 0
M  V30 3648 H 357.331 -2.00674 2.52844 0
M  V30 3649 H 356.383 0.0499523 3.80367 0
M  V30 3650 H 357.695 -0.153946 4.98562 0
M  V30 3651 H 356.849 -2.43987 5.55478 0
M  V30 3652 H 355.588 -2.30757 4.29654 0
M  V30 3653 H 354.593 -0.334446 5.48782 0
M  V30 3654 H 355.818 -0.487636 6.77347 0
M  V30 3655 H 353.764 -2.60205 6.02187 0
M  V30 3656 H 353.681 -1.55279 7.39881 0
M  V30 3657 H 354.949 -2.73772 7.29842 0
M  V30 3658 N 359.178 -1.55987 0.224894 0
M  V30 3659 C 360.424 -1.98684 -0.406502 0
M  V30 3660 C 360.757 -1.11248 -1.59177 0
M  V30 3661 O 360.032 -0.170909 -1.93748 0
M  V30 3662 C 360.315 -3.50218 -0.837808 0
M  V30 3663 C 360.168 -4.48426 0.351332 0
M  V30 3664 C 361.487 -4.06243 -1.69278 0
M  V30 3665 H 358.606 -0.722337 -0.146283 0
M  V30 3666 H 361.248 -1.87255 0.321799 0
M  V30 3667 H 359.398 -3.60089 -1.45837 0
M  V30 3668 H 361.07 -4.50562 0.989526 0
M  V30 3669 H 359.313 -4.22159 0.998207 0
M  V30 3670 H 359.984 -5.52 0.00655905 0
M  V30 3671 H 362.46 -3.99337 -1.16914 0
M  V30 3672 H 361.336 -5.12581 -1.96346 0
M  V30 3673 H 361.597 -3.53332 -2.65723 0
M  V30 3674 N 360.656 0.0484629 -1.57525 0
M  V30 3675 C 361.902 0.738854 -1.89506 0
M  V30 3676 C 362.257 1.73989 -0.821319 0
M  V30 3677 O 361.55 1.90825 0.172129 0
M  V30 3678 C 361.744 1.46632 -3.25935 0
M  V30 3679 C 361.573 0.537254 -4.46479 0
M  V30 3680 C 360.343 0.165484 -5.05029 0
M  V30 3681 C 362.541 -0.176085 -5.13998 0
M  V30 3682 N 360.523 -0.766868 -6.09091 0
M  V30 3683 C 361.894 -0.96478 -6.12448 0
M  V30 3684 C 363.949 -0.24509 -4.97296 0
M  V30 3685 C 362.652 -1.8161 -6.95996 0
M  V30 3686 C 364.678 -1.08347 -5.81391 0
M  V30 3687 C 364.04 -1.86014 -6.79395 0
M  V30 3688 H 360.139 0.245067 -0.742608 0
M  V30 3689 H 362.723 -0.000476161 -1.947 0
M  V30 3690 H 360.894 2.17623 -3.21706 0
M  V30 3691 H 362.626 2.10757 -3.45491 0
M  V30 3692 H 359.381 0.523466 -4.70698 0
M  V30 3693 H 359.805 -1.22698 -6.65788 0
M  V30 3694 H 364.447 0.341063 -4.21422 0
M  V30 3695 H 362.165 -2.41313 -7.71229 0
M  V30 3696 H 365.751 -1.14014 -5.70519 0
M  V30 3697 H 364.631 -2.4984 -7.43337 0
M  V30 3698 N 362.134 1.5431 0.320358 0
M  V30 3699 C 363.362 1.76636 1.07738 0
M  V30 3700 C 363.777 0.51649 1.81598 0
M  V30 3701 O 363.134 -0.512942 1.75143 0
M  V30 3702 C 363.185 2.96158 2.07299 0
M  V30 3703 O 362.906 4.16313 1.36438 0
M  V30 3704 C 364.407 3.3072 2.95193 0
M  V30 3705 H 361.627 0.589597 0.320339 0
M  V30 3706 H 364.171 2.01207 0.36551 0
M  V30 3707 H 362.326 2.73851 2.74016 0
M  V30 3708 H 362.74 4.83565 2.03138 0
M  V30 3709 H 364.214 4.17643 3.60941 0
M  V30 3710 H 364.691 2.48026 3.62463 0
M  V30 3711 H 365.297 3.55117 2.34034 0
M  V30 3712 N 363.613 -0.582584 1.46437 0
M  V30 3713 C 364.838 -1.37168 1.55563 0
M  V30 3714 C 365.263 -1.87061 0.19743 0
M  V30 3715 O 364.621 -1.61572 -0.822451 0
M  V30 3716 C 364.669 -2.53511 2.56446 0
M  V30 3717 O 363.773 -3.54953 2.09958 0
M  V30 3718 H 363.114 -0.408494 0.523477 0
M  V30 3719 H 365.644 -0.706646 1.9201 0
M  V30 3720 H 365.654 -3.00426 2.76058 0
M  V30 3721 H 364.329 -2.16549 3.55076 0
M  V30 3722 H 362.906 -3.14516 2.00334 0
M  V30 3723 N 365.091 -1.34144 -0.827227 0
M  V30 3724 C 366.339 -1.26009 -1.58007 0
M  V30 3725 C 366.66 0.170971 -1.94249 0
M  V30 3726 O 365.93 1.10256 -1.61927 0
M  V30 3727 H 364.51 -0.463414 -0.585881 0
M  V30 3728 H 367.172 -1.68005 -0.987951 0
M  V30 3729 H 366.268 -1.86187 -2.50481 0
M  V30 3730 N 366.569 1.04691 -1.17803 0
M  V30 3731 C 367.501 2.12571 -0.857097 0
M  V30 3732 C 368.514 1.62174 0.142647 0
M  V30 3733 O 369.703 1.78301 -0.0843387 0
M  V30 3734 C 366.803 3.37915 -0.258216 0
M  V30 3735 C 365.976 4.1757 -1.30207 0
M  V30 3736 C 365.035 5.2125 -0.720029 0
M  V30 3737 O 364.061 5.51888 -1.39314 0
M  V30 3738 N 365.263 5.78466 0.485507 0
M  V30 3739 H 368.028 2.40698 -1.78562 0
M  V30 3740 H 365.589 1.20831 -1.07757 0
M  V30 3741 H 367.581 4.04442 0.144584 0
M  V30 3742 H 366.151 3.07281 0.574199 0
M  V30 3743 H 365.371 3.46458 -1.88043 0
M  V30 3744 H 366.659 4.67586 -2.00601 0
M  V30 3745 H 366.057 5.55866 1.05022 0
M  V30 3746 H 364.614 6.4649 0.830307 0
M  V30 3747 N 368.047 0.979072 1.23499 0
M  V30 3748 C 369.293 0.648178 1.92163 0
M  V30 3749 C 369.626 -0.816049 1.76222 0
M  V30 3750 O 368.901 -1.58849 1.12237 0
M  V30 3751 C 369.184 1.03773 3.44824 0
M  V30 3752 C 369.037 2.55948 3.69879 0
M  V30 3753 C 370.356 0.580653 4.36253 0
M  V30 3754 H 367.475 0.236952 0.69787 0
M  V30 3755 H 370.117 1.22012 1.45647 0
M  V30 3756 H 368.267 0.551058 3.84572 0
M  V30 3757 H 369.939 3.12179 3.3962 0
M  V30 3758 H 368.182 2.98641 3.14636 0
M  V30 3759 H 368.853 2.78255 4.76737 0
M  V30 3760 H 371.329 0.998465 4.03943 0
M  V30 3761 H 370.205 0.881663 5.41773 0
M  V30 3762 H 370.466 -0.519052 4.39042 0
M  V30 3763 N 369.525 -1.3858 0.750561 0
M  V30 3764 C 370.435 -2.34278 0.122825 0
M  V30 3765 C 371.451 -1.59116 -0.704131 0
M  V30 3766 O 372.627 -1.91326 -0.628987 0
M  V30 3767 C 369.692 -3.38221 -0.762086 0
M  V30 3768 C 368.753 -4.29227 0.078896 0
M  V30 3769 C 367.986 -5.28205 -0.763874 0
M  V30 3770 O 368.209 -5.34112 -2.00201 0
M  V30 3771 O 367.143 -6.01618 -0.18428 0
M  V30 3772 H 370.969 -2.89649 0.913088 0
M  V30 3773 H 368.554 -1.40374 0.511417 0
M  V30 3774 H 370.436 -4.01872 -1.26793 0
M  V30 3775 H 369.111 -2.85211 -1.5309 0
M  V30 3776 H 368.018 -3.68747 0.630621 0
M  V30 3777 H 369.351 -4.85484 0.810289 0
M  V30 3778 N 371.003 -0.499398 -1.49478 0
M  V30 3779 C 371.913 0.284489 -2.32869 0
M  V30 3780 C 372.929 0.968885 -1.44529 0
M  V30 3781 O 374.105 0.95062 -1.77553 0
M  V30 3782 C 371.17 1.33594 -3.19928 0
M  V30 3783 C 370.231 0.665149 -4.24116 0
M  V30 3784 C 369.464 1.6665 -5.07014 0
M  V30 3785 O 369.687 2.89618 -4.91404 0
M  V30 3786 O 368.621 1.22271 -5.8935 0
M  V30 3787 H 372.447 -0.39802 -3.01081 0
M  V30 3788 H 370.032 -0.260758 -1.47107 0
M  V30 3789 H 371.914 1.94431 -3.73864 0
M  V30 3790 H 370.589 2.0014 -2.54412 0
M  V30 3791 H 369.496 0.0170769 -3.74096 0
M  V30 3792 H 370.829 0.0421555 -4.92182 0
M  V30 3793 N 372.481 1.55866 -0.233164 0
M  V30 3794 C 373.711 2.02704 0.399325 0
M  V30 3795 C 374.119 1.11204 1.53069 0
M  V30 3796 O 373.462 0.116182 1.83332 0
M  V30 3797 C 373.524 3.45844 0.981429 0
M  V30 3798 C 373.188 4.56997 -0.0159561 0
M  V30 3799 C 374.185 5.13384 -0.820552 0
M  V30 3800 C 371.87 5.0211 -0.138072 0
M  V30 3801 C 373.864 6.13365 -1.73386 0
M  V30 3802 C 371.551 6.01926 -1.0549 0
M  V30 3803 C 372.549 6.57431 -1.85132 0
M  V30 3804 O 372.237 7.55302 -2.75272 0
M  V30 3805 H 371.969 0.668459 0.100692 0
M  V30 3806 H 374.523 2.02387 -0.35052 0
M  V30 3807 H 372.753 3.43267 1.78058 0
M  V30 3808 H 374.442 3.76262 1.52255 0
M  V30 3809 H 375.208 4.79372 -0.736721 0
M  V30 3810 H 371.087 4.5858 0.471737 0
M  V30 3811 H 374.631 6.56614 -2.35592 0
M  V30 3812 H 370.528 6.35359 -1.1397 0
M  V30 3813 H 371.296 7.72867 -2.69477 0
M  V30 3814 N 373.959 -0.0401083 1.57549 0
M  V30 3815 C 375.236 -0.767917 1.79896 0
M  V30 3816 C 375.616 -1.9416 0.82856 0
M  V30 3817 O 374.964 -2.2812 -0.131671 0
M  V30 3818 C 375.174 -1.2113 3.27305 0
M  V30 3819 C 376.522 -1.63175 3.91994 0
M  V30 3820 O 377.546 -1.30616 3.31388 0
M  V30 3821 O 376.405 -2.23565 4.98679 0
M  V30 3822 H 373.499 -0.370441 0.739393 0
M  V30 3823 H 376.045 -0.017737 1.69691 0
M  V30 3824 H 374.817 -0.372937 3.89519 0
M  V30 3825 H 374.44 -2.02183 3.42356 0
M  V30 3826 N 375.437 -1.54477 -0.31217 0
M  V30 3827 C 376.367 -1.87652 -1.38957 0
M  V30 3828 C 377.348 -0.734358 -1.53431 0
M  V30 3829 O 378.533 -0.98911 -1.67123 0
M  V30 3830 C 375.663 -2.11396 -2.75552 0
M  V30 3831 C 374.617 -3.27243 -2.75855 0
M  V30 3832 C 373.943 -3.36382 -4.15633 0
M  V30 3833 C 375.243 -4.64622 -2.38587 0
M  V30 3834 H 376.937 -2.77887 -1.11442 0
M  V30 3835 H 374.483 -1.33707 -0.534655 0
M  V30 3836 H 376.436 -2.33189 -3.51 0
M  V30 3837 H 375.16 -1.17921 -3.04569 0
M  V30 3838 H 373.819 -3.05356 -2.02863 0
M  V30 3839 H 373.467 -2.40445 -4.41809 0
M  V30 3840 H 373.167 -4.14249 -4.1674 0
M  V30 3841 H 374.691 -3.60422 -4.92877 0
M  V30 3842 H 376.105 -4.86219 -3.03749 0
M  V30 3843 H 374.502 -5.45121 -2.50925 0
M  V30 3844 H 375.572 -4.66097 -1.33723 0
M  V30 3845 N 376.915 0.57481 -1.46744 0
M  V30 3846 C 378.192 1.3352 -1.4294 0
M  V30 3847 C 378.572 2.10775 -0.117009 0
M  V30 3848 O 377.92 2.09966 0.901474 0
M  V30 3849 C 378.13 2.25456 -2.66403 0
M  V30 3850 C 379.478 2.87035 -3.12883 0
M  V30 3851 O 380.502 2.35766 -2.67007 0
M  V30 3852 O 379.361 3.80179 -3.92589 0
M  V30 3853 H 376.455 0.600318 -0.568812 0
M  V30 3854 H 379.001 0.595171 -1.58921 0
M  V30 3855 H 377.773 1.67851 -3.53471 0
M  V30 3856 H 377.396 3.06785 -2.52921 0
M  V30 3857 N 378.394 1.34581 0.820102 0
M  V30 3858 C 379.357 1.2628 1.91275 0
M  V30 3859 C 380.357 0.177344 1.59819 0
M  V30 3860 O 381.547 0.430156 1.68806 0
M  V30 3861 C 378.679 0.950327 3.27386 0
M  V30 3862 H 379.872 2.23421 2.00057 0
M  V30 3863 H 377.425 1.1891 1.0144 0
M  V30 3864 H 378.16 -0.0177938 3.24295 0
M  V30 3865 H 377.945 1.73549 3.51601 0
M  V30 3866 H 379.435 0.917492 4.07396 0
M  V30 3867 N 379.872 -1.04064 1.18357 0
M  V30 3868 C 381.149 -1.74252 0.888581 0
M  V30 3869 C 381.529 -2.02138 -0.60856 0
M  V30 3870 O 380.877 -1.66656 -1.56327 0
M  V30 3871 C 381.087 -3.0277 1.73584 0
M  V30 3872 C 382.435 -3.76506 1.96286 0
M  V30 3873 O 383.459 -3.12668 1.70637 0
M  V30 3874 O 382.318 -4.91243 2.39464 0
M  V30 3875 H 379.412 -0.758271 0.330082 0
M  V30 3876 H 381.958 -1.1013 1.2911 0
M  V30 3877 H 380.73 -2.78299 2.75073 0
M  V30 3878 H 380.353 -3.74631 1.33183 0
M  V30 3879 N 381.35 -0.985608 -1.22978 0
M  V30 3880 C 382.627 -0.573599 -1.87001 0
M  V30 3881 C 383.007 0.949213 -1.88555 0
M  V30 3882 O 382.355 1.82811 -1.37086 0
M  V30 3883 C 382.565 -1.18564 -3.28243 0
M  V30 3884 C 383.913 -1.28163 -4.04796 0
M  V30 3885 O 384.937 -1.13949 -3.37482 0
M  V30 3886 O 383.796 -1.50832 -5.25273 0
M  V30 3887 H 380.89 -0.193868 -0.803955 0
M  V30 3888 H 383.436 -1.08102 -1.30813 0
M  V30 3889 H 382.208 -2.22758 -3.21706 0
M  V30 3890 H 381.831 -0.663363 -3.92027 0
M  V30 3891 N 382.828 1.3818 -0.7579 0
M  V30 3892 C 384.077 1.99261 -0.312744 0
M  V30 3893 C 384.39 1.60846 1.11301 0
M  V30 3894 O 385.596 2.14929 1.65885 0
M  V30 3895 C 384.052 3.56294 -0.50821 0
M  V30 3896 C 383.66 4.03657 -1.94333 0
M  V30 3897 C 385.404 4.24313 -0.125982 0
M  V30 3898 C 383.311 5.53347 -2.08712 0
M  V30 3899 H 382.241 0.745456 -0.113185 0
M  V30 3900 H 384.892 1.57889 -0.935056 0
M  V30 3901 H 383.274 3.95575 0.183353 0
M  V30 3902 H 384.448 3.75655 -2.66871 0
M  V30 3903 H 382.763 3.48376 -2.28086 0
M  V30 3904 H 385.36 5.34279 -0.212125 0
M  V30 3905 H 385.703 4.05962 0.921964 0
M  V30 3906 H 386.236 3.90285 -0.769563 0
M  V30 3907 H 382.975 5.76607 -3.11777 0
M  V30 3908 H 382.495 5.83078 -1.4064 0
M  V30 3909 H 384.174 6.19111 -1.87912 0
M  V30 3910 N 384.306 0.507319 1.49211 0
M  V30 3911 C 385.254 -0.281364 2.30892 0
M  V30 3912 C 386.248 -0.95687 1.39787 0
M  V30 3913 O 387.454 -0.883838 1.56807 0
M  V30 3914 H 383.829 -0.109597 0.743971 0
M  V30 3915 H 385.8 0.42744 2.95323 0
M  V30 3916 C 384.549 -1.32918 3.21291 0
M  V30 3917 H 383.872 -0.818799 3.91326 0
M  V30 3918 H 385.312 -1.85288 3.81372 0
M  V30 3919 C 383.771 -2.35074 2.41333 0
M  V30 3920 O 384.301 -3.4108 2.12197 0
M  V30 3921 N 382.507 -2.07705 2.03241 0
M  V30 3922 H 382.054 -1.2152 2.27136 0
M  V30 3923 H 382.012 -2.76283 1.50051 0
M  V30 3924 N 385.784 -1.5574 0.241426 0
M  V30 3925 C 387.009 -2.0366 -0.392111 0
M  V30 3926 C 387.434 -1.11969 -1.51144 0
M  V30 3927 O 386.792 -0.111594 -1.80956 0
M  V30 3928 C 386.84 -3.49638 -0.882371 0
M  V30 3929 O 385.944 -3.6108 -1.99235 0
M  V30 3930 H 385.285 -0.658379 -0.0862122 0
M  V30 3931 H 387.815 -2.01302 0.365881 0
M  V30 3932 H 387.825 -3.90351 -1.18702 0
M  V30 3933 H 386.5 -4.15852 -0.0632361 0
M  V30 3934 H 385.077 -3.32262 -1.69282 0
M  V30 3935 N 387.262 0.0317525 -1.57568 0
M  V30 3936 C 388.678 0.38735 -1.54828 0
M  V30 3937 C 388.878 1.7677 -0.967187 0
M  V30 3938 O 387.934 2.45581 -0.587063 0
M  V30 3939 C 389.247 0.291667 -2.99282 0
M  V30 3940 C 390.795 0.368946 -3.10818 0
M  V30 3941 C 391.27 0.302741 -4.56998 0
M  V30 3942 N 392.761 0.361617 -4.61786 0
M  V30 3943 C 393.496 0.333238 -5.72431 0
M  V30 3944 N 392.992 0.257308 -6.92322 0
M  V30 3945 N 394.785 0.382769 -5.60795 0
M  V30 3946 H 386.936 -0.871609 -1.93692 0
M  V30 3947 H 389.199 -0.331161 -0.888277 0
M  V30 3948 H 388.905 -0.656794 -3.45513 0
M  V30 3949 H 388.779 1.08638 -3.61217 0
M  V30 3950 H 391.166 1.30784 -2.64536 0
M  V30 3951 H 391.247 -0.455066 -2.5172 0
M  V30 3952 H 390.891 -0.632473 -5.03947 0
M  V30 3953 H 390.821 1.14482 -5.14005 0
M  V30 3954 H 393.312 0.422923 -3.75526 0
M  V30 3955 H 393.625 0.24068 -7.72425 0
M  V30 3956 H 391.97 0.223396 -6.94641 0
M  V30 3957 H 395.161 0.44006 -4.66027 0
M  V30 3958 H 395.334 0.357184 -6.47015 0
M  V30 3959 N 388.74 1.54641 0.303973 0
M  V30 3960 C 389.986 1.74038 1.04109 0
M  V30 3961 C 390.319 0.523051 1.87024 0
M  V30 3962 O 389.594 -0.479874 1.88487 0
M  V30 3963 C 389.877 3.02761 1.94955 0
M  V30 3964 C 389.73 4.34787 1.1524 0
M  V30 3965 C 391.049 3.27336 2.94175 0
M  V30 3966 H 388.168 0.63323 0.377079 0
M  V30 3967 H 390.81 1.87354 0.316001 0
M  V30 3968 H 388.96 2.9154 2.56782 0
M  V30 3969 H 390.632 4.57922 0.557236 0
M  V30 3970 H 388.875 4.31407 0.455053 0
M  V30 3971 H 389.546 5.21116 1.8205 0
M  V30 3972 H 392.022 3.38148 2.42477 0
M  V30 3973 H 390.898 4.18726 3.54908 0
M  V30 3974 H 391.159 2.45491 3.67677 0
M  V30 3975 N 390.218 -0.567019 1.47046 0
M  V30 3976 C 391.128 -1.70247 1.6141 0
M  V30 3977 C 392.144 -1.66746 0.497157 0
M  V30 3978 O 393.32 -1.86371 0.763389 0
M  V30 3979 C 390.385 -3.06756 1.61561 0
M  V30 3980 C 389.446 -3.21399 2.84607 0
M  V30 3981 C 388.679 -4.51396 2.84741 0
M  V30 3982 O 388.902 -5.36255 1.94388 0
M  V30 3983 O 387.836 -4.69621 3.76483 0
M  V30 3984 H 391.662 -1.61073 2.57467 0
M  V30 3985 H 389.247 -0.735894 1.30019 0
M  V30 3986 H 391.129 -3.8801 1.64396 0
M  V30 3987 H 389.804 -3.16333 0.686684 0
M  V30 3988 H 388.711 -2.39579 2.8732 0
M  V30 3989 H 390.044 -3.16721 3.76761 0
M  V30 3990 N 391.696 -1.35014 -0.812953 0
M  V30 3991 C 392.629 -1.21761 -1.93001 0
M  V30 3992 C 393.607 -0.10694 -1.62248 0
M  V30 3993 O 394.791 -0.273891 -1.865 0
M  V30 3994 C 391.918 -0.873404 -3.27245 0
M  V30 3995 C 390.964 -1.99523 -3.76952 0
M  V30 3996 S 391.797 -3.61009 -3.95516 0
M  V30 3997 C 392.953 -3.28651 -5.32672 0
M  V30 3998 H 393.186 -2.16315 -2.03948 0
M  V30 3999 H 390.719 -1.20156 -0.969631 0
M  V30 4000 H 392.677 -0.68161 -4.04802 0
M  V30 4001 H 391.338 0.053971 -3.14054 0
M  V30 4002 H 390.531 -1.70838 -4.74163 0
M  V30 4003 H 390.133 -2.14503 -3.06373 0
M  V30 4004 H 392.425 -2.81085 -6.1644 0
M  V30 4005 H 393.368 -4.25039 -5.66346 0
M  V30 4006 H 393.776 -2.6458 -4.98656 0
M  V30 4007 N 393.175 1.03435 -1.18907 0
M  V30 4008 C 394.122 2.11591 -0.921837 0
M  V30 4009 C 395.092 1.65499 0.141226 0
M  V30 4010 O 396.277 1.908 0.000242829 0
M  V30 4011 C 393.417 3.42012 -0.460616 0
M  V30 4012 C 392.53 4.01682 -1.58982 0
M  V30 4013 C 391.665 5.20091 -1.08069 0
M  V30 4014 C 390.704 5.71805 -2.18416 0
M  V30 4015 N 389.841 6.81494 -1.68849 0
M  V30 4016 H 394.681 2.33787 -1.8479 0
M  V30 4017 H 392.218 1.1467 -0.921373 0
M  V30 4018 H 394.176 4.16834 -0.174642 0
M  V30 4019 H 392.806 3.19944 0.428467 0
M  V30 4020 H 391.858 3.24127 -1.99113 0
M  V30 4021 H 393.17 4.36084 -2.4214 0
M  V30 4022 H 392.324 6.02051 -0.749615 0
M  V30 4023 H 391.063 4.87209 -0.218771 0
M  V30 4024 H 390.068 4.88461 -2.5236 0
M  V30 4025 H 391.293 6.06728 -3.05054 0
M  V30 4026 H 389.239 6.50475 -0.849572 0
M  V30 4027 H 389.156 7.14994 -2.45601 0
M  V30 4028 H 390.424 7.67063 -1.38689 0
M  V30 4029 N 394.653 0.992116 1.22453 0
M  V30 4030 C 396.064 0.702776 1.72968 0
M  V30 4031 C 396.415 -0.780399 1.80012 0
M  V30 4032 O 395.54 -1.61007 1.44589 0
M  V30 4033 C 396.135 1.26903 3.14135 0
M  V30 4034 C 394.694 1.02909 3.62059 0
M  V30 4035 C 393.841 1.38969 2.39964 0
M  V30 4036 H 396.792 1.16457 1.07812 0
M  V30 4037 H 396.813 0.647223 3.74955 0
M  V30 4038 H 396.325 2.34851 3.08977 0
M  V30 4039 H 394.426 -0.0337979 3.72585 0
M  V30 4040 H 394.539 1.69191 4.48231 0
M  V30 4041 H 392.903 0.808279 2.41535 0
M  V30 4042 H 393.686 2.4792 2.37467 0
M  V30 4043 N 396.131 -1.37776 0.765217 0
M  V30 4044 C 397.078 -2.30342 0.145274 0
M  V30 4045 C 398.048 -1.5077 -0.696971 0
M  V30 4046 O 399.233 -1.79362 -0.650689 0
M  V30 4047 C 396.373 -3.37227 -0.732939 0
M  V30 4048 C 395.486 -4.31819 0.125199 0
M  V30 4049 C 394.621 -5.25777 -0.757107 0
M  V30 4050 C 393.66 -6.12012 0.103963 0
M  V30 4051 N 392.797 -6.98232 -0.735953 0
M  V30 4052 H 397.637 -2.8278 0.940195 0
M  V30 4053 H 395.174 -1.39211 0.475255 0
M  V30 4054 H 397.132 -3.97818 -1.25686 0
M  V30 4055 H 395.762 -2.86171 -1.49353 0
M  V30 4056 H 394.814 -3.7259 0.766865 0
M  V30 4057 H 396.126 -4.92509 0.789683 0
M  V30 4058 H 395.28 -5.91541 -1.34776 0
M  V30 4059 H 394.019 -4.65481 -1.45529 0
M  V30 4060 H 393.024 -5.45233 0.707197 0
M  V30 4061 H 394.249 -6.74379 0.799381 0
M  V30 4062 H 392.195 -6.40472 -1.41887 0
M  V30 4063 H 392.112 -7.55891 -0.128624 0
M  V30 4064 H 393.38 -7.68393 -1.31121 0
M  V30 4065 O 397.648 -0.656736 -1.47544 0
M  V30 4066 H 398.339 -0.183317 -1.92831 0
M  V30 END ATOM
M  V30 BEGIN BOND
M  V30 END BOND
M  V30 END CTAB
M  END
$$$$
