drugbank_target|P29965 CD40 ligand (DB06475)
 OpenBabel12092119453D

  0  0  0     0  0            999 V3000
M  V30 BEGIN CTAB
M  V30 COUNTS 4114 4152 0 0 0
M  V30 BEGIN ATOM
M  V30 1 H -0.908 1.98254 -0.117106 0
M  V30 2 N 0 1.576 0 0
M  V30 3 C 0.933 2.03868 1.02534 0
M  V30 4 C 1.911 0.928543 1.3348 0
M  V30 5 O 3.095 1.19667 1.45644 0
M  V30 6 C 0.222 2.43627 2.35294 0
M  V30 7 C -0.732 3.65373 2.2001 0
M  V30 8 S 0.101 5.13292 1.52614 0
M  V30 9 C 1.257 5.56322 2.86805 0
M  V30 10 H 1.49 2.90518 0.631377 0
M  V30 11 H -0.977 1.52953 0.210867 0
M  V30 12 H 0.981 2.67203 3.11629 0
M  V30 13 H -0.358 1.57376 2.7183 0
M  V30 14 H -1.165 3.90944 3.18086 0
M  V30 15 H -1.563 3.418 1.51819 0
M  V30 16 H 0.729 5.58782 3.83104 0
M  V30 17 H 1.672 6.56266 2.65933 0
M  V30 18 H 2.08 4.83886 2.90714 0
M  V30 19 N 1.4781 -0.272755 1.55222 0
M  V30 20 C 2.7271 -1.00211 1.75045 0
M  V30 21 C 3.0401 -1.87441 0.559046 0
M  V30 22 O 4.2461 -2.63856 0.639698 0
M  V30 23 C 2.7021 -1.83165 3.09804 0
M  V30 24 C 2.3101 -1.008 4.36513 0
M  V30 25 C 4.0541 -2.55529 3.38977 0
M  V30 26 C 1.9611 -1.83194 5.62311 0
M  V30 27 H 0.8911 -0.377878 0.652476 0
M  V30 28 H 3.5421 -0.257776 1.8168 0
M  V30 29 H 1.9241 -2.61694 2.97207 0
M  V30 30 H 3.0981 -0.266855 4.60027 0
M  V30 31 H 1.4131 -0.398897 4.14485 0
M  V30 32 H 4.0101 -3.17578 4.30172 0
M  V30 33 H 4.3531 -3.25825 2.59121 0
M  V30 34 H 4.8861 -1.84029 3.52673 0
M  V30 35 H 1.6251 -1.17318 6.44916 0
M  V30 36 H 1.1451 -2.54905 5.4294 0
M  V30 37 H 2.8241 -2.40552 6.00619 0
M  V30 38 N 2.9562 -1.48159 -0.537278 0
M  V30 39 C 3.8662 -1.64807 -1.6696 0
M  V30 40 C 4.8822 -0.530651 -1.65711 0
M  V30 41 O 6.0582 -0.800784 -1.84796 0
M  V30 42 C 3.1232 -1.67708 -3.03438 0
M  V30 43 C 2.1842 -2.91025 -3.156 0
M  V30 44 C 1.4172 -2.93778 -4.45567 0
M  V30 45 O 1.6402 -2.05153 -5.3223 0
M  V30 46 O 0.5742 -3.85868 -4.61941 0
M  V30 47 H 4.4002 -2.6066 -1.55853 0
M  V30 48 H 1.9852 -1.31475 -0.709549 0
M  V30 49 H 3.8672 -1.7218 -3.84619 0
M  V30 50 H 2.5422 -0.750278 -3.14885 0
M  V30 51 H 1.4492 -2.92089 -2.33741 0
M  V30 52 H 2.7822 -3.83065 -3.09066 0
M  V30 53 N 4.4343 0.785586 -1.36625 0
M  V30 54 C 5.6623 1.57448 -1.3423 0
M  V30 55 C 6.0773 1.88649 0.0755653 0
M  V30 56 O 5.4343 1.50414 1.03354 0
M  V30 57 C 5.4853 2.89316 -2.16745 0
M  V30 58 O 5.2063 2.59459 -3.53005 0
M  V30 59 C 6.7073 3.83606 -2.22174 0
M  V30 60 H 3.9273 0.488226 -0.4603 0
M  V30 61 H 6.4713 0.974733 -1.79775 0
M  V30 62 H 4.6263 3.4575 -1.74745 0
M  V30 63 H 5.0403 3.43804 -3.96105 0
M  V30 64 H 6.5143 4.73181 -2.8426 0
M  V30 65 H 6.9913 4.21734 -1.22627 0
M  V30 66 H 7.5973 3.33104 -2.64427 0
M  V30 67 N 5.9124 1.20967 1.01018 0
M  V30 68 C 7.1424 1.04803 1.78044 0
M  V30 69 C 7.5504 -0.405462 1.84804 0
M  V30 70 O 6.8934 -1.2932 1.30468 0
M  V30 71 C 6.9554 1.56377 3.23707 0
M  V30 72 C 6.6194 3.04767 3.40538 0
M  V30 73 C 7.6164 4.02366 3.29239 0
M  V30 74 C 5.3014 3.43862 3.66147 0
M  V30 75 C 7.2954 5.37049 3.43304 0
M  V30 76 C 4.9824 4.78699 3.79855 0
M  V30 77 C 5.9804 5.75101 3.68439 0
M  V30 78 O 5.6684 7.07493 3.81719 0
M  V30 79 H 5.4004 0.368778 0.56655 0
M  V30 80 H 7.9544 1.60642 1.27997 0
M  V30 81 H 6.1844 0.949297 3.74867 0
M  V30 82 H 7.8734 1.36136 3.8239 0
M  V30 83 H 8.6394 3.73506 3.09384 0
M  V30 84 H 4.5184 2.69364 3.74118 0
M  V30 85 H 8.0624 6.12277 3.34309 0
M  V30 86 H 3.9594 5.07247 3.99213 0
M  V30 87 H 4.7274 7.1483 3.98697 0
M  V30 88 N 7.3905 -1.2043 1.01659 0
M  V30 89 C 8.3385 -2.25249 0.580143 0
M  V30 90 C 9.3325 -1.65057 -0.381115 0
M  V30 91 O 10.5385 -1.78241 -0.251039 0
M  V30 92 H 6.9135 -0.732695 0.169299 0
M  V30 93 H 8.8845 -2.59389 1.47512 0
M  V30 94 C 7.6335 -3.47638 -0.065788 0
M  V30 95 H 6.9565 -3.94233 0.664874 0
M  V30 96 H 8.3965 -4.2268 -0.334282 0
M  V30 97 C 6.8555 -3.10447 -1.3086 0
M  V30 98 O 7.3855 -3.21981 -2.4019 0
M  V30 99 N 5.5915 -2.64996 -1.1927 0
M  V30 100 H 5.1385 -2.55811 -0.303064 0
M  V30 101 H 5.0965 -2.40482 -2.02523 0
M  V30 102 N 8.8686 -0.792821 -1.36206 0
M  V30 103 C 9.8006 -0.151469 -2.28699 0
M  V30 104 C 10.8136 0.641262 -1.49638 0
M  V30 105 O 12.0026 0.475885 -1.72039 0
M  V30 106 C 9.1026 0.808424 -3.29117 0
M  V30 107 C 8.2756 0.0650202 -4.37352 0
M  V30 108 C 7.3346 0.941358 -5.17711 0
M  V30 109 O 6.3606 0.397352 -5.67811 0
M  V30 110 N 7.5626 2.2652 -5.3448 0
M  V30 111 H 10.3276 -0.945982 -2.84379 0
M  V30 112 H 7.8886 -0.647032 -1.48409 0
M  V30 113 H 9.8806 1.3986 -3.79765 0
M  V30 114 H 8.4506 1.5038 -2.74052 0
M  V30 115 H 7.6706 -0.706255 -3.87822 0
M  V30 116 H 8.9586 -0.447847 -5.06825 0
M  V30 117 H 8.3566 2.73128 -4.95396 0
M  V30 118 H 6.9136 2.80493 -5.88359 0
M  V30 119 N 10.3467 1.47872 -0.545128 0
M  V30 120 C 11.5747 2.06889 -0.021084 0
M  V30 121 C 11.9897 1.39955 1.2672 0
M  V30 122 O 11.3467 0.492036 1.75742 0
M  V30 123 C 11.3977 3.60996 0.190817 0
M  V30 124 O 11.1187 4.25419 -1.04644 0
M  V30 125 C 12.6197 4.36849 0.753521 0
M  V30 126 H 9.8397 0.669785 -0.0403635 0
M  V30 127 H 12.3837 1.90049 -0.755095 0
M  V30 128 H 10.5387 3.77391 0.87492 0
M  V30 129 H 10.9527 5.17785 -0.836611 0
M  V30 130 H 12.4267 5.45399 0.851139 0
M  V30 131 H 12.9037 4.02306 1.762 0
M  V30 132 H 13.5097 4.25169 0.105503 0
M  V30 133 N 11.8248 0.280983 1.55075 0
M  V30 134 C 13.0498 -0.340154 2.04592 0
M  V30 135 C 13.4748 -1.48246 1.15779 0
M  V30 136 O 12.8328 -1.80614 0.15761 0
M  V30 137 C 12.8808 -0.793104 3.5177 0
M  V30 138 O 11.9848 -1.89981 3.66034 0
M  V30 139 H 11.3258 -0.0694289 0.66036 0
M  V30 140 H 13.8558 0.416993 2.00306 0
M  V30 141 H 13.8658 -1.08729 3.93245 0
M  V30 142 H 12.5408 0.0426163 4.15878 0
M  V30 143 H 11.1178 -1.60771 3.36463 0
M  V30 144 N 13.3029 -1.57598 0.00835791 0
M  V30 145 C 14.7139 -1.7892 -0.53333 0
M  V30 146 C 15.0649 -0.916609 -1.73473 0
M  V30 147 O 14.1899 -0.121336 -2.1606 0
M  V30 148 C 14.7849 -3.24488 -0.974313 0
M  V30 149 C 13.3439 -3.46878 -1.46125 0
M  V30 150 C 12.4909 -2.74157 -0.416302 0
M  V30 151 H 15.4419 -1.56958 0.234495 0
M  V30 152 H 15.4629 -3.3306 -1.83988 0
M  V30 153 H 14.9749 -3.87972 -0.099718 0
M  V30 154 H 13.0759 -2.8862 -2.35646 0
M  V30 155 H 13.1889 -4.55572 -1.48295 0
M  V30 156 H 11.5529 -2.39022 -0.87981 0
M  V30 157 H 12.3359 -3.40345 0.44947 0
M  V30 158 N 14.781 0.264519 -1.55364 0
M  V30 159 C 16.197 0.61215 -1.47394 0
M  V30 160 C 16.397 1.89134 -0.695018 0
M  V30 161 O 15.453 2.51563 -0.217275 0
M  V30 162 C 16.766 0.731235 -2.91674 0
M  V30 163 C 18.314 0.82473 -3.01939 0
M  V30 164 C 18.789 0.975522 -4.4749 0
M  V30 165 N 20.28 1.04083 -4.51354 0
M  V30 166 C 21.015 1.17646 -5.61201 0
M  V30 167 N 20.511 1.27874 -6.80896 0
M  V30 168 N 22.304 1.20823 -5.48961 0
M  V30 169 H 14.455 -0.575456 -2.04456 0
M  V30 170 H 16.718 -0.196099 -0.927496 0
M  V30 171 H 16.424 -0.138392 -3.51428 0
M  V30 172 H 16.298 1.60883 -3.41169 0
M  V30 173 H 18.685 1.68482 -2.42276 0
M  V30 174 H 18.766 -0.0776479 -2.55682 0
M  V30 175 H 18.41 0.120058 -5.07758 0
M  V30 176 H 18.34 1.89268 -4.91412 0
M  V30 177 H 20.831 0.973846 -3.65136 0
M  V30 178 H 21.144 1.38081 -7.60364 0
M  V30 179 H 19.489 1.24863 -6.83692 0
M  V30 180 H 22.68 1.12469 -4.54388 0
M  V30 181 H 22.853 1.31049 -6.3461 0
M  V30 182 N 16.2591 1.48442 0.529413 0
M  V30 183 C 17.4841 1.60406 1.31471 0
M  V30 184 C 17.9091 0.264738 1.86228 0
M  V30 185 O 17.2671 -0.763668 1.64432 0
M  V30 186 C 17.3151 2.65419 2.44101 0
M  V30 187 O 16.4191 2.22618 3.47153 0
M  V30 188 H 15.7601 0.537863 0.389357 0
M  V30 189 H 18.2901 1.94432 0.636965 0
M  V30 190 H 18.3001 2.86709 2.90279 0
M  V30 191 H 16.9751 3.62652 2.03608 0
M  V30 192 H 15.5521 2.11543 3.0709 0
M  V30 193 N 17.7372 -0.778329 1.37039 0
M  V30 194 C 18.7002 -1.87301 1.32102 0
M  V30 195 C 19.7002 -1.59198 0.226405 0
M  V30 196 O 20.8902 -1.67403 0.481861 0
M  V30 197 C 18.0222 -3.24309 1.05055 0
M  V30 198 H 19.2152 -1.93093 2.29467 0
M  V30 199 H 16.7682 -0.977358 1.21973 0
M  V30 200 H 17.5032 -3.24196 0.0819373 0
M  V30 201 H 17.2882 -3.46098 1.84279 0
M  V30 202 H 18.7782 -4.04382 1.04234 0
M  V30 203 N 19.2153 -1.21501 -1.00376 0
M  V30 204 C 20.1783 -0.976927 -2.07337 0
M  V30 205 C 21.1783 0.0525322 -1.60714 0
M  V30 206 O 22.3683 -0.184869 -1.73216 0
M  V30 207 C 19.5003 -0.473423 -3.37597 0
M  V30 208 H 20.6933 -1.92587 -2.29892 0
M  V30 209 H 18.2463 -1.03217 -1.17371 0
M  V30 210 H 18.9813 0.480379 -3.20722 0
M  V30 211 H 18.7663 -1.216 -3.72768 0
M  V30 212 H 20.2563 -0.32675 -4.1632 0
M  V30 213 N 20.6934 1.19889 -1.02296 0
M  V30 214 C 21.9214 1.9339 -0.735399 0
M  V30 215 C 22.3364 1.75148 0.704887 0
M  V30 216 O 21.6934 1.06954 1.47875 0
M  V30 217 C 21.7444 3.45313 -1.06962 0
M  V30 218 O 21.4654 3.62964 -2.45334 0
M  V30 219 C 22.9664 4.35948 -0.804021 0
M  V30 220 H 20.1864 0.61448 -0.269546 0
M  V30 221 H 22.7304 1.522 -1.36585 0
M  V30 222 H 20.8854 3.84359 -0.484455 0
M  V30 223 H 21.2994 4.56886 -2.57595 0
M  V30 224 H 22.7734 5.41174 -1.0879 0
M  V30 225 H 23.2504 4.3842 0.261691 0
M  V30 226 H 23.8564 4.02574 -1.37164 0
M  V30 227 N 22.1715 0.800033 1.35784 0
M  V30 228 C 23.4195 0.376597 1.9856 0
M  V30 229 C 23.7405 -1.05812 1.63795 0
M  V30 230 O 23.0105 -1.73103 0.917171 0
M  V30 231 H 21.5905 0.136261 0.734467 0
M  V30 232 H 24.2525 1.02442 1.65806 0
M  V30 233 H 23.3485 0.477002 3.08433 0
M  V30 234 N 23.6496 -1.47581 0.552962 0
M  V30 235 C 24.5796 -2.32762 -0.185451 0
M  V30 236 C 25.5606 -1.43527 -0.912905 0
M  V30 237 O 26.7456 -1.72388 -0.894201 0
M  V30 238 C 23.8756 -3.25219 -1.21859 0
M  V30 239 C 22.8296 -4.23661 -0.607864 0
M  V30 240 C 22.1556 -5.05413 -1.74533 0
M  V30 241 C 23.4556 -5.20481 0.435582 0
M  V30 242 H 25.1496 -2.94749 0.525684 0
M  V30 243 H 22.6956 -1.41738 0.254251 0
M  V30 244 H 24.6486 -3.8365 -1.7433 0
M  V30 245 H 23.3726 -2.61279 -1.95961 0
M  V30 246 H 22.0316 -3.66451 -0.104489 0
M  V30 247 H 21.6796 -4.3788 -2.47529 0
M  V30 248 H 21.3796 -5.72059 -1.34249 0
M  V30 249 H 22.9036 -5.66701 -2.27338 0
M  V30 250 H 24.3176 -5.733 -0.00290157 0
M  V30 251 H 22.7146 -5.95305 0.757067 0
M  V30 252 H 23.7846 -4.66217 1.33303 0
M  V30 253 N 25.1277 -0.289203 -1.54924 0
M  V30 254 C 26.5387 0.205791 -1.85562 0
M  V30 255 C 26.8897 1.54351 -1.2112 0
M  V30 256 O 26.0147 2.10435 -0.504601 0
M  V30 257 C 26.6097 0.380177 -3.3666 0
M  V30 258 C 25.1687 0.819395 -3.67373 0
M  V30 259 C 24.3157 -0.079159 -2.77187 0
M  V30 260 H 27.2667 -0.510577 -1.50262 0
M  V30 261 H 27.2877 1.21659 -3.60526 0
M  V30 262 H 26.7997 -0.593589 -3.83534 0
M  V30 263 H 24.9007 1.80413 -3.26009 0
M  V30 264 H 25.0137 0.646957 -4.74712 0
M  V30 265 H 23.3777 0.439565 -2.50878 0
M  V30 266 H 24.1607 -1.04906 -3.26878 0
M  V30 267 N 26.6058 1.57591 -0.0167156 0
M  V30 268 C 27.8548 1.90461 0.663877 0
M  V30 269 C 28.1678 0.893515 1.73999 0
M  V30 270 O 29.3738 1.11302 2.47637 0
M  V30 271 C 27.8298 3.38155 1.23204 0
M  V30 272 C 27.4378 4.47597 0.189866 0
M  V30 273 C 29.1818 3.80111 1.88986 0
M  V30 274 C 27.0888 5.86379 0.768964 0
M  V30 275 H 26.0188 0.710738 0.251729 0
M  V30 276 H 28.6698 1.83326 -0.0799926 0
M  V30 277 H 27.0518 3.40182 2.02712 0
M  V30 278 H 28.2258 4.57112 -0.581846 0
M  V30 279 H 26.5408 4.14766 -0.368475 0
M  V30 280 H 29.1378 4.81145 2.33247 0
M  V30 281 H 29.4808 3.14511 2.72743 0
M  V30 282 H 30.0138 3.80454 1.16187 0
M  V30 283 H 26.7528 6.55493 -0.0301957 0
M  V30 284 H 26.2728 5.80496 1.50945 0
M  V30 285 H 27.9518 6.34563 1.26251 0
M  V30 286 N 28.0839 -0.256276 1.55502 0
M  V30 287 C 29.3089 -1.00766 1.81276 0
M  V30 288 C 29.7339 -1.78524 0.59252 0
M  V30 289 O 29.0919 -1.75413 -0.45827 0
M  V30 290 C 29.1399 -1.92869 3.04687 0
M  V30 291 O 28.2439 -3.019 2.80945 0
M  V30 292 H 27.5849 -0.287224 0.598664 0
M  V30 293 H 30.1149 -0.280109 2.02674 0
M  V30 294 H 30.1249 -2.34511 3.33869 0
M  V30 295 H 28.7999 -1.35689 3.93143 0
M  V30 296 H 27.3769 -2.64454 2.62904 0
M  V30 297 N 29.562 -1.4872 -0.521534 0
M  V30 298 C 30.495 -1.58451 -1.64221 0
M  V30 299 C 31.473 -0.434513 -1.56687 0
M  V30 300 O 32.657 -0.647275 -1.77038 0
M  V30 301 C 29.784 -1.52037 -3.02659 0
M  V30 302 C 28.83 -2.71981 -3.28525 0
M  V30 303 S 29.663 -4.33869 -3.13876 0
M  V30 304 C 30.819 -4.30067 -4.54745 0
M  V30 305 H 31.052 -2.53256 -1.55719 0
M  V30 306 H 28.585 -1.37358 -0.705143 0
M  V30 307 H 30.543 -1.49023 -3.82495 0
M  V30 308 H 29.204 -0.585541 -3.08594 0
M  V30 309 H 28.397 -2.63656 -4.29536 0
M  V30 310 H 27.999 -2.72302 -2.56374 0
M  V30 311 H 30.291 -4.00521 -5.46433 0
M  V30 312 H 31.234 -5.31287 -4.68123 0
M  V30 313 H 31.642 -3.60419 -4.34463 0
M  V30 314 N 31.0401 0.771051 -1.3745 0
M  V30 315 C 31.9871 1.88435 -1.3327 0
M  V30 316 C 32.9571 1.64914 -0.198136 0
M  V30 317 O 34.1421 1.86821 -0.387606 0
M  V30 318 C 31.2821 3.25509 -1.14622 0
M  V30 319 C 30.3951 3.60979 -2.37314 0
M  V30 320 C 29.5301 4.87265 -2.11533 0
M  V30 321 C 28.5691 5.15469 -3.30088 0
M  V30 322 N 27.7061 6.32944 -3.03853 0
M  V30 323 H 32.5461 1.91344 -2.28455 0
M  V30 324 H 30.0831 0.935466 -1.13523 0
M  V30 325 H 32.0411 4.04582 -1.01831 0
M  V30 326 H 30.6711 3.21974 -0.230837 0
M  V30 327 H 29.7231 2.76885 -2.60842 0
M  V30 328 H 31.0351 3.77759 -3.25729 0
M  V30 329 H 30.1891 5.74244 -1.95777 0
M  V30 330 H 28.9281 4.7259 -1.20457 0
M  V30 331 H 27.9331 4.26966 -3.46382 0
M  V30 332 H 29.1581 5.32052 -4.22016 0
M  V30 333 H 27.1041 6.19625 -2.15407 0
M  V30 334 H 27.0211 6.50143 -3.85812 0
M  V30 335 H 28.2891 7.22857 -2.91716 0
M  V30 336 N 32.5182 1.22032 0.997298 0
M  V30 337 C 33.7672 1.03637 1.73038 0
M  V30 338 C 34.0802 -0.429475 1.90827 0
M  V30 339 O 35.2862 -0.732995 2.61418 0
M  V30 340 C 33.7422 1.80582 3.11317 0
M  V30 341 C 33.3502 3.31387 3.01474 0
M  V30 342 C 35.0942 1.70621 3.88701 0
M  V30 343 C 33.0012 4.00791 4.3488 0
M  V30 344 H 31.9312 0.384179 0.648785 0
M  V30 345 H 34.5822 1.4584 1.11368 0
M  V30 346 H 32.9642 1.31175 3.73643 0
M  V30 347 H 34.1382 3.88155 2.4834 0
M  V30 348 H 32.4532 3.41976 2.37575 0
M  V30 349 H 35.0502 2.19799 4.87434 0
M  V30 350 H 35.3932 0.665823 4.10941 0
M  V30 351 H 35.9262 2.17547 3.33044 0
M  V30 352 H 32.6652 5.05064 4.1784 0
M  V30 353 H 32.1852 3.48811 4.87945 0
M  V30 354 H 33.8642 4.06139 5.03647 0
M  V30 355 N 33.9963 -1.19345 1.0293 0
M  V30 356 C 35.2433 -1.89038 0.726008 0
M  V30 357 C 35.5713 -1.79649 -0.745427 0
M  V30 358 O 34.8263 -1.18354 -1.55855 0
M  V30 359 C 35.1253 -3.39292 1.12319 0
M  V30 360 C 34.7913 -3.68885 2.59297 0
M  V30 361 C 33.4533 -3.76671 2.99453 0
M  V30 362 C 35.8053 -3.82178 3.54386 0
M  V30 363 C 33.1333 -3.9522 4.33611 0
M  V30 364 C 35.4853 -4.0224 4.88248 0
M  V30 365 C 34.1493 -4.08259 5.28092 0
M  V30 366 H 33.4193 -0.691739 0.265665 0
M  V30 367 H 36.0663 -1.41328 1.29223 0
M  V30 368 H 34.3713 -3.88903 0.475584 0
M  V30 369 H 36.0683 -3.91536 0.866037 0
M  V30 370 H 32.6583 -3.63433 2.27189 0
M  V30 371 H 36.8423 -3.75505 3.24514 0
M  V30 372 H 32.0983 -3.98119 4.64016 0
M  V30 373 H 36.2723 -4.11468 5.61843 0
M  V30 374 H 33.8993 -4.22384 6.32057 0
M  V30 375 N 35.4744 -0.807222 -1.35358 0
M  V30 376 C 36.4074 -0.163572 -2.27613 0
M  V30 377 C 37.3854 0.670817 -1.48118 0
M  V30 378 O 38.5694 0.63796 -1.77376 0
M  V30 379 C 35.6964 0.773015 -3.29761 0
M  V30 380 C 34.7424 0.0181653 -4.26496 0
M  V30 381 S 35.5754 -1.31831 -5.19019 0
M  V30 382 C 36.7314 -0.38619 -6.24707 0
M  V30 383 H 36.9644 -0.945757 -2.81856 0
M  V30 384 H 34.4974 -0.602315 -1.42167 0
M  V30 385 H 36.4554 1.30788 -3.89108 0
M  V30 386 H 35.1164 1.52859 -2.74396 0
M  V30 387 H 34.3094 0.729534 -4.98692 0
M  V30 388 H 33.9114 -0.446761 -3.71322 0
M  V30 389 H 36.2034 0.428295 -6.76145 0
M  V30 390 H 37.1464 -1.07736 -6.99856 0
M  V30 391 H 37.5544 0.018398 -5.64497 0
M  V30 392 N 36.9525 1.47285 -0.560781 0
M  V30 393 C 38.1825 2.06555 -0.0429638 0
M  V30 394 C 38.5905 1.41339 1.25777 0
M  V30 395 O 37.9335 0.505182 1.76617 0
M  V30 396 C 37.9955 3.58827 0.219887 0
M  V30 397 C 37.6595 4.46105 -0.991944 0
M  V30 398 C 38.6565 4.84 -1.89843 0
M  V30 399 C 36.3415 4.87567 -1.20762 0
M  V30 400 C 38.3355 5.6216 -3.00425 0
M  V30 401 C 36.0225 5.65491 -2.31653 0
M  V30 402 C 37.0205 6.02699 -3.21315 0
M  V30 403 O 36.7085 6.79052 -4.30283 0
M  V30 404 H 36.4405 0.674537 -0.0444468 0
M  V30 405 H 38.9945 1.90225 -0.774818 0
M  V30 406 H 37.2245 3.73383 1.00609 0
M  V30 407 H 38.9135 4.00103 0.683522 0
M  V30 408 H 39.6795 4.52564 -1.74387 0
M  V30 409 H 35.5585 4.5807 -0.518893 0
M  V30 410 H 39.1025 5.9112 -3.70436 0
M  V30 411 H 34.9995 5.9634 -2.47081 0
M  V30 412 H 35.7675 6.9745 -4.28376 0
M  V30 413 N 38.4306 0.297415 1.54768 0
M  V30 414 C 39.3606 -0.573494 2.26348 0
M  V30 415 C 40.3416 -1.14085 1.26169 0
M  V30 416 O 41.5266 -1.17086 1.54934 0
M  V30 417 C 38.6566 -1.74716 3.00153 0
M  V30 418 C 37.6106 -1.31032 4.07449 0
M  V30 419 C 36.9366 -2.56887 4.68949 0
M  V30 420 C 38.2366 -0.444183 5.20408 0
M  V30 421 H 39.9306 0.0235131 2.99391 0
M  V30 422 H 37.4766 0.0127488 1.43994 0
M  V30 423 H 39.4296 -2.3625 3.48947 0
M  V30 424 H 38.1536 -2.37035 2.24682 0
M  V30 425 H 36.8126 -0.718066 3.59499 0
M  V30 426 H 36.4606 -3.17512 3.90122 0
M  V30 427 H 36.1606 -2.2836 5.41411 0
M  V30 428 H 37.6846 -3.19229 5.20505 0
M  V30 429 H 39.0986 -0.9651 5.65118 0
M  V30 430 H 37.4956 -0.252846 5.99567 0
M  V30 431 H 38.5656 0.531609 4.81977 0
M  V30 432 N 39.9087 -1.5758 0.0250728 0
M  V30 433 C 40.8387 -2.13007 -0.956575 0
M  V30 434 C 41.8197 -1.0452 -1.342 0
M  V30 435 O 43.0047 -1.32332 -1.42133 0
M  V30 436 C 40.1347 -2.65386 -2.24026 0
M  V30 437 C 39.0887 -3.78623 -1.99571 0
M  V30 438 C 38.4147 -4.17414 -3.3417 0
M  V30 439 C 39.7147 -5.04867 -1.33814 0
M  V30 440 H 41.4087 -2.9528 -0.494991 0
M  V30 441 H 38.9547 -1.42042 -0.236651 0
M  V30 442 H 40.9077 -3.02794 -2.93076 0
M  V30 443 H 39.6317 -1.80268 -2.72343 0
M  V30 444 H 38.2907 -3.41646 -1.32941 0
M  V30 445 H 37.9387 -3.29284 -3.80238 0
M  V30 446 H 37.6387 -4.93719 -3.18615 0
M  V30 447 H 39.1627 -4.57402 -4.04495 0
M  V30 448 H 40.5767 -5.39888 -1.92857 0
M  V30 449 H 38.9737 -5.86144 -1.28669 0
M  V30 450 H 40.0437 -4.83904 -0.310561 0
M  V30 451 N 41.3868 0.248026 -1.55636 0
M  V30 452 C 42.6148 0.993808 -1.81469 0
M  V30 453 C 43.0298 1.78991 -0.60064 0
M  V30 454 O 42.3868 1.77345 0.430682 0
M  V30 455 C 42.4378 1.93258 -3.05506 0
M  V30 456 O 42.1588 1.16869 -4.22224 0
M  V30 457 C 43.6598 2.79444 -3.4413 0
M  V30 458 H 40.8798 0.292486 -0.603898 0
M  V30 459 H 43.4238 0.271253 -2.02693 0
M  V30 460 H 41.5788 2.60943 -2.86335 0
M  V30 461 H 41.9928 1.80359 -4.92515 0
M  V30 462 H 43.4668 3.41066 -4.34026 0
M  V30 463 H 43.9438 3.50499 -2.64665 0
M  V30 464 H 44.5498 2.17214 -3.65648 0
M  V30 465 N 42.8649 1.48995 0.513639 0
M  V30 466 C 44.1109 1.58076 1.27042 0
M  V30 467 C 44.4439 0.261026 1.92438 0
M  V30 468 O 43.7189 -0.734393 1.80103 0
M  V30 469 C 44.0019 2.73091 2.34719 0
M  V30 470 C 43.8549 4.14821 1.73907 0
M  V30 471 C 45.1739 2.83796 3.36375 0
M  V30 472 H 42.2929 0.575391 0.460536 0
M  V30 473 H 44.9349 1.81232 0.570516 0
M  V30 474 H 43.0849 2.53479 2.94416 0
M  V30 475 H 44.7569 4.45917 1.18135 0
M  V30 476 H 42.9999 4.21058 1.0437 0
M  V30 477 H 43.6709 4.91147 2.51949 0
M  V30 478 H 46.1469 3.01611 2.86653 0
M  V30 479 H 45.0229 3.65971 4.09093 0
M  V30 480 H 45.2839 1.92624 3.9793 0
M  V30 481 N 44.343 -0.763751 1.37857 0
M  V30 482 C 45.59 -1.52257 1.33506 0
M  V30 483 C 45.918 -1.94343 -0.078022 0
M  V30 484 O 45.173 -1.64958 -1.05297 0
M  V30 485 C 45.472 -2.79499 2.22745 0
M  V30 486 C 45.138 -2.56426 3.70886 0
M  V30 487 C 43.8 -2.49842 4.11257 0
M  V30 488 C 46.152 -2.36008 4.64704 0
M  V30 489 C 43.48 -2.20841 5.43549 0
M  V30 490 C 45.832 -2.0853 5.97242 0
M  V30 491 C 44.496 -2.00396 6.36709 0
M  V30 492 H 43.766 -0.557149 0.488534 0
M  V30 493 H 46.413 -0.879073 1.70131 0
M  V30 494 H 44.718 -3.48447 1.79142 0
M  V30 495 H 46.415 -3.37413 2.16688 0
M  V30 496 H 43.005 -2.62416 3.38874 0
M  V30 497 H 47.189 -2.40079 4.34368 0
M  V30 498 H 42.445 -2.13045 5.73081 0
M  V30 499 H 46.619 -1.91732 6.69486 0
M  V30 500 H 44.246 -1.77688 7.39142 0
M  V30 501 N 45.8211 -1.22559 -0.990812 0
M  V30 502 C 46.7511 -1.0218 -2.09956 0
M  V30 503 C 47.7321 0.0579394 -1.70001 0
M  V30 504 O 48.9171 -0.104684 -1.93918 0
M  V30 505 C 46.0471 -0.601023 -3.4206 0
M  V30 506 C 45.0011 -1.62694 -3.95872 0
M  V30 507 C 44.3271 -1.06193 -5.24049 0
M  V30 508 C 45.6271 -3.01743 -4.2632 0
M  V30 509 H 47.3211 -1.94916 -2.27262 0
M  V30 510 H 44.8671 -0.938566 -1.09211 0
M  V30 511 H 46.8201 -0.445561 -4.19038 0
M  V30 512 H 45.5441 0.362005 -3.24588 0
M  V30 513 H 44.2031 -1.77021 -3.21028 0
M  V30 514 H 43.8511 -0.0901903 -5.02919 0
M  V30 515 H 43.5511 -1.74732 -5.61019 0
M  V30 516 H 45.0751 -0.918092 -6.03658 0
M  V30 517 H 46.4891 -2.90777 -4.94087 0
M  V30 518 H 44.8861 -3.67425 -4.74467 0
M  V30 519 H 45.9561 -3.51518 -3.34011 0
M  V30 520 N 47.2992 1.18797 -1.03562 0
M  V30 521 C 48.5482 1.87978 -0.731235 0
M  V30 522 C 48.8612 1.80911 0.743671 0
M  V30 523 O 50.0672 2.45407 1.16137 0
M  V30 524 C 48.5232 3.3721 -1.25768 0
M  V30 525 C 48.1312 3.52818 -2.76085 0
M  V30 526 C 49.8752 4.11825 -1.0296 0
M  V30 527 C 47.7822 4.9598 -3.22114 0
M  V30 528 H 46.7122 0.704063 -0.269835 0
M  V30 529 H 49.3632 1.34266 -1.25079 0
M  V30 530 H 47.7452 3.90359 -0.666011 0
M  V30 531 H 48.9192 3.09965 -3.40966 0
M  V30 532 H 47.2342 2.91602 -2.97249 0
M  V30 533 H 49.8312 5.17411 -1.34869 0
M  V30 534 H 50.1742 4.16287 0.0333546 0
M  V30 535 H 50.7072 3.64833 -1.58562 0
M  V30 536 H 47.4462 4.96684 -4.27768 0
M  V30 537 H 46.9662 5.39569 -2.61965 0
M  V30 538 H 48.6452 5.6467 -3.15844 0
M  V30 539 N 48.7773 0.814389 1.34928 0
M  V30 540 C 50.0053 0.411136 2.02774 0
M  V30 541 C 50.4203 -0.980316 1.61354 0
M  V30 542 O 49.7773 -1.63299 0.814847 0
M  V30 543 C 49.8283 0.493865 3.58111 0
M  V30 544 O 49.5493 1.83047 3.98027 0
M  V30 545 C 51.0503 0.0844174 4.4322 0
M  V30 546 H 48.2703 0.166037 0.650133 0
M  V30 547 H 50.8143 1.10018 1.72384 0
M  V30 548 H 48.9693 -0.147006 3.87121 0
M  V30 549 H 49.3833 1.79872 4.92693 0
M  V30 550 H 50.8573 0.193404 5.51661 0
M  V30 551 H 51.3343 -0.97113 4.28329 0
M  V30 552 H 51.9403 0.69875 4.19521 0
M  V30 553 N 50.2554 -1.46986 0.568584 0
M  V30 554 C 51.1874 -2.28233 -0.210337 0
M  V30 555 C 52.2004 -1.37682 -0.868767 0
M  V30 556 O 53.3894 -1.62406 -0.740705 0
M  V30 557 C 50.4894 -3.12293 -1.3163 0
M  V30 558 C 49.6624 -4.30878 -0.7525 0
M  V30 559 C 48.7214 -4.96445 -1.74439 0
M  V30 560 O 47.7474 -5.54482 -1.286 0
M  V30 561 N 48.9494 -4.92171 -3.07812 0
M  V30 562 H 51.7144 -2.95723 0.486648 0
M  V30 563 H 49.2754 -1.56742 0.405409 0
M  V30 564 H 51.2674 -3.53022 -1.97883 0
M  V30 565 H 49.8374 -2.46971 -1.91636 0
M  V30 566 H 49.0574 -3.94104 0.0871128 0
M  V30 567 H 50.3454 -5.07558 -0.35536 0
M  V30 568 H 49.7434 -4.46239 -3.47688 0
M  V30 569 H 48.3004 -5.36884 -3.69592 0
M  V30 570 N 51.7335 -0.305618 -1.54608 0
M  V30 571 C 52.6665 0.610536 -2.19881 0
M  V30 572 C 53.6445 1.1294 -1.16976 0
M  V30 573 O 54.8285 1.19673 -1.45638 0
M  V30 574 C 51.9555 1.83583 -2.84631 0
M  V30 575 C 51.0015 1.4498 -4.01102 0
M  V30 576 S 51.8345 0.501793 -5.33144 0
M  V30 577 C 52.9905 1.73478 -6.01379 0
M  V30 578 H 53.2235 0.0560177 -2.97247 0
M  V30 579 H 50.7565 -0.0897434 -1.54139 0
M  V30 580 H 52.7145 2.53898 -3.22562 0
M  V30 581 H 51.3755 2.36152 -2.07102 0
M  V30 582 H 50.5685 2.36236 -4.45206 0
M  V30 583 H 50.1705 0.826553 -3.64752 0
M  V30 584 H 52.4625 2.67473 -6.22467 0
M  V30 585 H 53.4055 1.33622 -6.95378 0
M  V30 586 H 53.8135 1.9136 -5.31076 0
M  V30 587 N 53.2116 1.57565 -0.0334293 0
M  V30 588 C 54.4606 1.91155 0.643639 0
M  V30 589 C 54.7736 0.91192 1.73042 0
M  V30 590 O 55.9796 1.13923 2.46442 0
M  V30 591 C 54.4356 3.39443 1.1961 0
M  V30 592 C 54.0436 4.47774 0.142381 0
M  V30 593 C 55.7876 3.82094 1.84944 0
M  V30 594 C 53.6946 5.87162 0.706727 0
M  V30 595 H 52.6246 0.713368 0.244176 0
M  V30 596 H 55.2756 1.8323 -0.0994323 0
M  V30 597 H 53.6576 3.42313 1.99092 0
M  V30 598 H 54.8316 4.56469 -0.630296 0
M  V30 599 H 53.1466 4.14352 -0.412446 0
M  V30 600 H 55.7436 4.83591 2.2813 0
M  V30 601 H 56.0866 3.17386 2.69392 0
M  V30 602 H 56.6196 3.81665 1.12145 0
M  V30 603 H 53.3586 6.55424 -0.0997178 0
M  V30 604 H 52.8786 5.82064 1.44779 0
M  V30 605 H 54.5576 6.35866 1.19514 0
M  V30 606 N 54.6897 -0.239769 1.55765 0
M  V30 607 C 55.9377 -0.964892 1.77579 0
M  V30 608 C 56.2587 -1.85582 0.598699 0
M  V30 609 O 55.5287 -1.92075 -0.385226 0
M  V30 610 H 54.1087 -0.359265 0.654933 0
M  V30 611 H 56.7707 -0.256001 1.93211 0
M  V30 612 H 55.8667 -1.58243 2.69009 0
M  V30 613 N 56.1678 -1.49265 -0.50573 0
M  V30 614 C 57.3928 -1.62478 -1.28902 0
M  V30 615 C 57.8178 -0.294332 -1.85783 0
M  V30 616 O 57.1758 0.737412 -1.65626 0
M  V30 617 C 57.2238 -2.69268 -2.39848 0
M  V30 618 O 56.3278 -2.28113 -3.43567 0
M  V30 619 H 55.6688 -0.54399 -0.380751 0
M  V30 620 H 58.1988 -1.95421 -0.605952 0
M  V30 621 H 58.2088 -2.91291 -2.85681 0
M  V30 622 H 56.8838 -3.65846 -1.97812 0
M  V30 623 H 55.4608 -2.16401 -3.03685 0
M  V30 624 N 57.6459 0.756429 -1.3826 0
M  V30 625 C 58.6089 1.85176 -1.35065 0
M  V30 626 C 59.6089 1.58818 -0.251703 0
M  V30 627 O 60.7989 1.66615 -0.508433 0
M  V30 628 C 57.9309 3.22596 -1.10201 0
M  V30 629 H 59.1239 1.89417 -2.3251 0
M  V30 630 H 56.6769 0.95783 -1.23512 0
M  V30 631 H 57.4119 3.24025 -0.133504 0
M  V30 632 H 57.1969 3.43122 -1.89762 0
M  V30 633 H 58.6869 4.02673 -1.10654 0
M  V30 634 N 59.124 1.23083 0.984299 0
M  V30 635 C 60.054 1.03292 2.09411 0
M  V30 636 C 61.035 -0.048923 1.7003 0
M  V30 637 O 62.22 0.114967 1.93859 0
M  V30 638 C 59.35 0.619155 3.41736 0
M  V30 639 C 58.304 1.64791 3.95004 0
M  V30 640 C 57.63 1.0897 5.23478 0
M  V30 641 C 58.93 3.03999 4.24714 0
M  V30 642 H 60.624 1.96119 2.26225 0
M  V30 643 H 58.17 0.944344 1.08711 0
M  V30 644 H 60.123 0.467777 4.18796 0
M  V30 645 H 58.847 -0.344786 3.24775 0
M  V30 646 H 57.506 1.78721 3.20085 0
M  V30 647 H 57.154 0.11686 5.02864 0
M  V30 648 H 56.854 1.77704 5.60085 0
M  V30 649 H 58.378 0.950093 6.03163 0
M  V30 650 H 59.792 2.93393 4.92538 0
M  V30 651 H 58.189 3.69936 4.72512 0
M  V30 652 H 59.259 3.53285 3.32142 0
M  V30 653 N 60.6021 -1.18246 1.0419 0
M  V30 654 C 61.8491 -1.88257 0.746017 0
M  V30 655 C 62.1771 -1.80429 -0.726331 0
M  V30 656 O 61.4321 -1.2 -1.54591 0
M  V30 657 C 61.7311 -3.38082 1.15911 0
M  V30 658 C 61.3971 -3.66114 2.63195 0
M  V30 659 C 60.0591 -3.73474 3.03432 0
M  V30 660 C 62.4111 -3.78398 3.5842 0
M  V30 661 C 59.7391 -3.90599 4.37778 0
M  V30 662 C 62.0911 -3.97039 4.92487 0
M  V30 663 C 60.7551 -4.02635 5.32392 0
M  V30 664 H 60.0251 -0.688883 0.272987 0
M  V30 665 H 62.6721 -1.3995 1.30715 0
M  V30 666 H 60.9771 -3.88377 0.516806 0
M  V30 667 H 62.6741 -3.90596 0.907516 0
M  V30 668 H 59.2641 -3.61003 2.3103 0
M  V30 669 H 63.4481 -3.72042 3.28479 0
M  V30 670 H 58.7041 -3.93175 4.68213 0
M  V30 671 H 62.8781 -4.05486 5.66175 0
M  V30 672 H 60.5051 -4.15657 6.36501 0
M  V30 673 N 62.0802 -0.821533 -1.34494 0
M  V30 674 C 63.0432 -0.247847 -2.27856 0
M  V30 675 C 64.0432 0.573453 -1.50227 0
M  V30 676 O 65.2332 0.389759 -1.69784 0
M  V30 677 C 62.3652 0.652698 -3.34593 0
M  V30 678 H 63.5582 -1.07146 -2.80107 0
M  V30 679 H 61.1112 -0.593291 -1.44602 0
M  V30 680 H 61.8462 1.49943 -2.87555 0
M  V30 681 H 61.6312 0.065292 -3.92046 0
M  V30 682 H 63.1212 1.04793 -4.04238 0
M  V30 683 N 63.5583 1.46682 -0.576371 0
M  V30 684 C 64.8043 2.02712 -0.0596221 0
M  V30 685 C 65.1373 1.44765 1.29448 0
M  V30 686 O 64.4123 0.610355 1.84675 0
M  V30 687 C 64.6953 3.60098 0.0129503 0
M  V30 688 C 64.5483 4.28441 -1.3696 0
M  V30 689 C 65.8673 4.34224 0.71678 0
M  V30 690 H 62.9863 0.736637 -0.0231407 0
M  V30 691 H 65.6283 1.74898 -0.742351 0
M  V30 692 H 63.7783 3.83926 0.594378 0
M  V30 693 H 65.4503 4.15896 -1.9957 0
M  V30 694 H 63.6933 3.8805 -1.93907 0
M  V30 695 H 64.3643 5.3716 -1.27135 0
M  V30 696 H 66.8403 4.15503 0.222908 0
M  V30 697 H 65.7163 5.43936 0.73657 0
M  V30 698 H 65.9773 4.04823 1.77682 0
M  V30 699 N 65.0364 0.313813 1.54444 0
M  V30 700 C 66.2664 -0.293491 2.04505 0
M  V30 701 C 66.6744 -1.47086 1.19005 0
M  V30 702 O 66.0174 -1.82481 0.211257 0
M  V30 703 C 66.0794 -0.800455 3.50475 0
M  V30 704 C 65.7434 0.253322 4.56297 0
M  V30 705 C 66.7404 1.08612 5.08428 0
M  V30 706 C 64.4254 0.398708 5.00715 0
M  V30 707 C 66.4194 2.05013 6.0353 0
M  V30 708 C 64.1064 1.36614 5.95634 0
M  V30 709 C 65.1044 2.19033 6.46926 0
M  V30 710 O 64.7924 3.14134 7.39983 0
M  V30 711 H 64.5244 -0.0658325 0.672787 0
M  V30 712 H 67.0784 0.455177 2.00293 0
M  V30 713 H 65.3084 -1.59987 3.52053 0
M  V30 714 H 66.9974 -1.32504 3.83663 0
M  V30 715 H 67.7634 0.984736 4.74898 0
M  V30 716 H 63.6424 -0.23289 4.60411 0
M  V30 717 H 67.1864 2.69382 6.4349 0
M  V30 718 H 63.0834 1.4682 6.28581 0
M  V30 719 H 63.8514 3.0926 7.57826 0
M  V30 720 N 66.5145 -1.57545 0.0417849 0
M  V30 721 C 67.4445 -2.14009 -0.933929 0
M  V30 722 C 68.4255 -1.05938 -1.33083 0
M  V30 723 O 69.6105 -1.33833 -1.40721 0
M  V30 724 C 66.7405 -2.67747 -2.21199 0
M  V30 725 C 65.6945 -3.80718 -1.95544 0
M  V30 726 C 65.0205 -4.20935 -3.29724 0
M  V30 727 C 66.3205 -5.06258 -1.28452 0
M  V30 728 H 68.0145 -2.95788 -0.463645 0
M  V30 729 H 65.5605 -1.42285 -0.221573 0
M  V30 730 H 67.5135 -3.05886 -2.89848 0
M  V30 731 H 66.2375 -1.83147 -2.70416 0
M  V30 732 H 64.8965 -3.43037 -1.2931 0
M  V30 733 H 64.5445 -3.33298 -3.76724 0
M  V30 734 H 64.2445 -4.9707 -3.13361 0
M  V30 735 H 65.7685 -4.61666 -3.9962 0
M  V30 736 H 67.1825 -5.41903 -1.8712 0
M  V30 737 H 65.5795 -5.87475 -1.22445 0
M  V30 738 H 66.6495 -4.84207 -0.259219 0
M  V30 739 N 67.9926 0.231505 -1.5589 0
M  V30 740 C 68.9426 1.29007 -1.87993 0
M  V30 741 C 69.9266 1.42764 -0.742102 0
M  V30 742 O 71.1186 1.45747 -1.00433 0
M  V30 743 C 68.2476 2.6425 -2.1915 0
M  V30 744 C 67.3336 2.54435 -3.39299 0
M  V30 745 N 67.7246 2.14262 -4.58176 0
M  V30 746 C 66.0226 2.85416 -3.42715 0
M  V30 747 C 66.7236 2.15455 -5.40328 0
M  V30 748 N 65.6996 2.55558 -4.79783 0
M  V30 749 H 69.5016 0.970213 -2.77424 0
M  V30 750 H 67.0156 0.440097 -1.56323 0
M  V30 751 H 69.0126 3.40665 -2.40319 0
M  V30 752 H 67.6726 2.9709 -1.31025 0
M  V30 753 H 68.6836 1.85554 -4.83518 0
M  V30 754 H 65.3606 3.22693 -2.64906 0
M  V30 755 H 66.7506 1.86605 -6.45467 0
M  V30 756 N 69.4707 1.49531 0.497807 0
M  V30 757 C 70.8867 1.36365 0.829266 0
M  V30 758 C 71.0867 0.399184 1.97506 0
M  V30 759 O 70.1427 -0.167977 2.51941 0
M  V30 760 C 71.4557 2.77153 1.16647 0
M  V30 761 C 73.0037 2.85877 1.27449 0
M  V30 762 C 73.4787 4.2744 1.64497 0
M  V30 763 N 74.9697 4.30265 1.7154 0
M  V30 764 C 75.7047 5.3677 2.01656 0
M  V30 765 N 75.2007 6.53516 2.29976 0
M  V30 766 N 76.9937 5.24189 2.02934 0
M  V30 767 H 69.1447 2.10831 -0.257703 0
M  V30 768 H 71.4077 0.946534 -0.0527091 0
M  V30 769 H 71.1137 3.49442 0.397872 0
M  V30 770 H 70.9877 3.12722 2.10915 0
M  V30 771 H 73.3747 2.13824 2.0338 0
M  V30 772 H 73.4557 2.53887 0.312244 0
M  V30 773 H 73.0997 5.00021 0.891151 0
M  V30 774 H 73.0297 4.56896 2.61827 0
M  V30 775 H 75.5207 3.4607 1.51802 0
M  V30 776 H 75.8337 7.30506 2.52153 0
M  V30 777 H 74.1787 6.56737 2.27425 0
M  V30 778 H 77.3697 4.31988 1.80289 0
M  V30 779 H 77.5427 6.07286 2.26071 0
M  V30 780 N 70.9488 -0.749086 1.3866 0
M  V30 781 C 72.3648 -1.05276 1.19955 0
M  V30 782 C 72.5648 -2.01435 0.05134 0
M  V30 783 O 71.6208 -2.45232 -0.60147 0
M  V30 784 C 72.9338 -1.62853 2.52783 0
M  V30 785 C 74.4818 -1.75002 2.59506 0
M  V30 786 C 74.9568 -2.35991 3.92521 0
M  V30 787 N 76.4478 -2.43416 3.94085 0
M  V30 788 C 77.1828 -2.91511 4.9377 0
M  V30 789 N 76.6788 -3.39608 6.03853 0
M  V30 790 N 78.4718 -2.90592 4.81157 0
M  V30 791 H 70.6228 -0.111066 2.12109 0
M  V30 792 H 72.8858 -0.111901 0.941373 0
M  V30 793 H 72.5918 -0.99664 3.37283 0
M  V30 794 H 72.4658 -2.61854 2.715 0
M  V30 795 H 74.8528 -2.37317 1.75398 0
M  V30 796 H 74.9338 -0.74693 2.44652 0
M  V30 797 H 74.5778 -1.74308 4.77053 0
M  V30 798 H 74.5078 -3.3695 4.04688 0
M  V30 799 H 76.9988 -2.09405 3.14576 0
M  V30 800 H 77.3118 -3.74775 6.75843 0
M  V30 801 H 75.6568 -3.37653 6.07466 0
M  V30 802 H 78.8478 -2.52332 3.94267 0
M  V30 803 H 79.0208 -3.27762 5.58996 0
M  V30 804 N 72.4269 -1.23603 -0.977757 0
M  V30 805 C 73.3569 -1.04401 -2.0886 0
M  V30 806 C 74.3379 0.0399052 -1.70053 0
M  V30 807 O 75.5229 -0.125246 -1.93796 0
M  V30 808 C 72.6529 -0.637269 -3.41403 0
M  V30 809 C 71.6069 -1.66883 -3.94124 0
M  V30 810 C 70.9329 -1.11745 -5.22893 0
M  V30 811 C 72.2329 -3.06247 -4.23096 0
M  V30 812 H 73.9269 -1.97316 -2.25182 0
M  V30 813 H 71.4729 -0.950096 -1.08209 0
M  V30 814 H 73.4259 -0.48998 -4.18542 0
M  V30 815 H 72.1499 0.327557 -3.24953 0
M  V30 816 H 70.8089 -1.80416 -3.19133 0
M  V30 817 H 70.4569 -0.143527 -5.02795 0
M  V30 818 H 70.1569 -1.80672 -5.59134 0
M  V30 819 H 71.6809 -0.982067 -6.02651 0
M  V30 820 H 73.0949 -2.96001 -4.90975 0
M  V30 821 H 71.4919 -3.72436 -4.70544 0
M  V30 822 H 72.5619 -3.55041 -3.30263 0
M  V30 823 N 73.905 1.17692 -1.04816 0
M  V30 824 C 75.182 1.83768 -0.669963 0
M  V30 825 C 75.562 1.93232 0.849986 0
M  V30 826 O 74.91 1.46397 1.75443 0
M  V30 827 C 75.12 3.21641 -1.35455 0
M  V30 828 C 76.468 3.97592 -1.49017 0
M  V30 829 O 77.492 3.31107 -1.31326 0
M  V30 830 O 76.351 5.16729 -1.77914 0
M  V30 831 H 73.445 0.792799 -0.235368 0
M  V30 832 H 75.991 1.25021 -1.14751 0
M  V30 833 H 74.763 3.097 -2.39168 0
M  V30 834 H 74.386 3.88052 -0.866107 0
M  V30 835 N 75.3831 0.828654 1.34056 0
M  V30 836 C 76.3301 0.252567 2.29414 0
M  V30 837 C 77.3001 -0.62588 1.53857 0
M  V30 838 O 78.4851 -0.566312 1.82202 0
M  V30 839 C 75.6251 -0.574831 3.40279 0
M  V30 840 C 74.7381 0.326499 4.30764 0
M  V30 841 C 73.8731 -0.511016 5.28736 0
M  V30 842 C 72.9121 0.389342 6.1086 0
M  V30 843 N 72.0491 -0.409439 7.00905 0
M  V30 844 H 76.8891 1.07108 2.78086 0
M  V30 845 H 74.4261 0.539677 1.36843 0
M  V30 846 H 76.3841 -1.06992 4.03248 0
M  V30 847 H 75.0141 -1.35841 2.92826 0
M  V30 848 H 74.0661 0.939837 3.68607 0
M  V30 849 H 75.3781 1.01857 4.88289 0
M  V30 850 H 74.5321 -1.07035 5.97184 0
M  V30 851 H 73.2711 -1.23657 4.71763 0
M  V30 852 H 72.2761 0.960769 5.4134 0
M  V30 853 H 73.5011 1.1131 6.69916 0
M  V30 854 H 71.4471 -1.11856 6.46393 0
M  V30 855 H 71.3641 0.224126 7.55668 0
M  V30 856 H 72.6321 -0.951336 7.73673 0
M  V30 857 N 76.8612 -1.46375 0.584142 0
M  V30 858 C 78.1102 -2.01585 0.0679741 0
M  V30 859 C 78.4232 -1.46109 -1.30045 0
M  V30 860 O 79.6292 -1.93148 -1.90804 0
M  V30 861 C 78.0852 -3.5983 0.0709207 0
M  V30 862 C 77.6932 -4.24303 1.43775 0
M  V30 863 C 79.4372 -4.22693 -0.391228 0
M  V30 864 C 77.3442 -5.74631 1.39834 0
M  V30 865 H 76.2742 -0.753689 0.0216421 0
M  V30 866 H 78.9252 -1.68093 0.736001 0
M  V30 867 H 77.3072 -3.90405 -0.663299 0
M  V30 868 H 78.4812 -4.05335 2.19181 0
M  V30 869 H 76.7962 -3.73539 1.84004 0
M  V30 870 H 79.3932 -5.3289 -0.439524 0
M  V30 871 H 79.7362 -3.91728 -1.40906 0
M  V30 872 H 80.2692 -3.96749 0.288974 0
M  V30 873 H 77.0082 -6.10258 2.39303 0
M  V30 874 H 76.5282 -5.95858 0.686505 0
M  V30 875 H 78.2072 -6.37375 1.11187 0
M  V30 876 N 78.3393 -0.321999 -1.54275 0
M  V30 877 C 79.2493 0.553631 -2.27974 0
M  V30 878 C 80.2653 1.13054 -1.32268 0
M  V30 879 O 81.4413 1.15084 -1.6528 0
M  V30 880 C 78.5063 1.69927 -3.02201 0
M  V30 881 C 77.5673 1.15433 -4.1349 0
M  V30 882 C 76.8003 2.24537 -4.84168 0
M  V30 883 O 77.0233 3.44852 -4.5435 0
M  V30 884 O 75.9573 1.90044 -5.7111 0
M  V30 885 H 79.7833 -0.0448345 -3.03667 0
M  V30 886 H 77.3683 -0.0877418 -1.49142 0
M  V30 887 H 79.2503 2.3663 -3.48689 0
M  V30 888 H 77.9253 2.28395 -2.29385 0
M  V30 889 H 76.8323 0.452436 -3.71354 0
M  V30 890 H 78.1653 0.614805 -4.88345 0
M  V30 891 N 79.8174 1.5752 -0.0501392 0
M  V30 892 C 81.0944 1.83996 0.663685 0
M  V30 893 C 81.4744 0.938339 1.89099 0
M  V30 894 O 80.8224 -0.00087759 2.285 0
M  V30 895 C 81.0324 3.33702 1.02196 0
M  V30 896 C 82.3804 4.00691 1.40469 0
M  V30 897 O 83.4044 3.38321 1.11433 0
M  V30 898 O 82.2634 5.10658 1.94654 0
M  V30 899 H 79.3574 0.759385 0.32751 0
M  V30 900 H 81.9034 1.69514 -0.0794238 0
M  V30 901 H 80.6754 3.91015 0.149364 0
M  V30 902 H 80.2984 3.53368 1.82255 0
M  V30 903 N 81.2955 -0.223234 1.56011 0
M  V30 904 C 82.2055 -1.29766 1.95443 0
M  V30 905 C 83.2215 -1.51373 0.858028 0
M  V30 906 O 84.3975 -1.64536 1.16146 0
M  V30 907 C 81.4625 -2.62772 2.26167 0
M  V30 908 C 80.5235 -2.49482 3.49367 0
M  V30 909 C 79.7565 -3.76145 3.78616 0
M  V30 910 O 79.9795 -4.79087 3.09568 0
M  V30 911 O 78.9135 -3.73358 4.72109 0
M  V30 912 H 82.7395 -0.99309 2.87004 0
M  V30 913 H 80.3245 -0.425958 1.43199 0
M  V30 914 H 82.2065 -3.41327 2.47131 0
M  V30 915 H 80.8815 -2.92913 1.37781 0
M  V30 916 H 79.7885 -1.69133 3.33684 0
M  V30 917 H 81.1215 -2.2428 4.38131 0
M  V30 918 N 82.7736 -1.49793 -0.48987 0
M  V30 919 C 84.1896 -1.36803 -0.822022 0
M  V30 920 C 84.3896 -0.409652 -1.97292 0
M  V30 921 O 83.4456 0.154614 -2.52026 0
M  V30 922 C 84.7586 -2.77768 -1.15175 0
M  V30 923 C 86.3066 -2.86549 -1.25931 0
M  V30 924 C 86.7816 -4.28306 -1.62228 0
M  V30 925 N 88.2726 -4.31169 -1.69256 0
M  V30 926 C 89.0076 -5.37832 -1.98807 0
M  V30 927 N 88.5036 -6.54726 -2.26507 0
M  V30 928 N 90.2966 -5.25258 -2.00152 0
M  V30 929 H 82.4476 -2.10691 0.268881 0
M  V30 930 H 84.7106 -0.946241 0.057728 0
M  V30 931 H 84.4166 -3.49648 -0.379335 0
M  V30 932 H 84.2906 -3.13836 -2.09253 0
M  V30 933 H 86.6776 -2.14899 -2.02243 0
M  V30 934 H 86.7586 -2.54049 -0.298776 0
M  V30 935 H 86.4026 -5.00486 -0.864622 0
M  V30 936 H 86.3326 -4.58279 -2.594 0
M  V30 937 H 88.8236 -3.4687 -1.49965 0
M  V30 938 H 89.1366 -7.31833 -2.48276 0
M  V30 939 H 87.4816 -6.57933 -2.23939 0
M  V30 940 H 90.6726 -4.32938 -1.77996 0
M  V30 941 H 90.8456 -6.08476 -2.22848 0
M  V30 942 N 84.2517 0.741722 -1.39055 0
M  V30 943 C 85.1997 1.87702 -1.3737 0
M  V30 944 C 86.1937 1.67427 -0.257812 0
M  V30 945 O 87.3997 1.7485 -0.427489 0
M  V30 946 H 83.7747 0.617757 -0.428812 0
M  V30 947 H 85.7457 1.86239 -2.33147 0
M  V30 948 C 84.4947 3.25315 -1.22741 0
M  V30 949 H 83.8177 3.41509 -2.07873 0
M  V30 950 H 85.2577 4.04964 -1.25618 0
M  V30 951 C 83.7167 3.36838 0.0647316 0
M  V30 952 O 84.2467 3.88073 1.03741 0
M  V30 953 N 82.4527 2.90329 0.125544 0
M  V30 954 H 81.9997 2.48823 -0.666682 0
M  V30 955 H 81.9577 2.98418 0.989639 0
M  V30 956 N 85.7298 1.2412 0.971189 0
M  V30 957 C 86.6598 1.05508 2.08304 0
M  V30 958 C 87.6408 -0.0308864 1.70072 0
M  V30 959 O 88.8258 0.135521 1.93727 0
M  V30 960 C 85.9558 0.655365 3.4106 0
M  V30 961 C 84.9098 1.68971 3.93234 0
M  V30 962 C 84.2358 1.14516 5.22293 0
M  V30 963 C 85.5358 3.08487 4.21465 0
M  V30 964 H 87.2298 1.98507 2.24132 0
M  V30 965 H 84.7758 0.955821 1.07704 0
M  V30 966 H 86.7288 0.51217 4.18276 0
M  V30 967 H 85.4528 -0.31032 3.25122 0
M  V30 968 H 84.1118 1.82106 3.18171 0
M  V30 969 H 83.7598 0.170189 5.02712 0
M  V30 970 H 83.4598 1.83635 5.58168 0
M  V30 971 H 84.9838 1.01401 6.02121 0
M  V30 972 H 86.3978 2.98601 4.89398 0
M  V30 973 H 84.7948 3.74926 4.68562 0
M  V30 974 H 85.8648 3.56787 3.28376 0
M  V30 975 N 87.2079 -1.17134 1.05439 0
M  V30 976 C 88.1579 -2.1919 0.627675 0
M  V30 977 C 89.1419 -1.57328 -0.337147 0
M  V30 978 O 90.3339 -1.76329 -0.153976 0
M  V30 979 C 87.4629 -3.43299 0.00651435 0
M  V30 980 C 86.5489 -4.12255 0.995312 0
M  V30 981 N 86.9399 -4.56997 2.16765 0
M  V30 982 C 85.2379 -4.38316 0.824336 0
M  V30 983 C 85.9389 -5.10239 2.7934 0
M  V30 984 N 84.9149 -5.02595 2.07122 0
M  V30 985 H 88.7169 -2.5149 1.52086 0
M  V30 986 H 86.2309 -1.33491 0.924868 0
M  V30 987 H 88.2279 -4.15693 -0.316965 0
M  V30 988 H 86.8879 -3.1249 -0.882033 0
M  V30 989 H 87.8989 -4.51006 2.54587 0
M  V30 990 H 84.5759 -4.17498 -0.0129526 0
M  V30 991 H 85.9659 -5.54961 3.78772 0
M  V30 992 N 88.686 -0.835752 -1.33615 0
M  V30 993 C 89.596 -0.269088 -2.33052 0
M  V30 994 C 90.612 0.603251 -1.63208 0
M  V30 995 O 91.788 0.508112 -1.94885 0
M  V30 996 C 88.853 0.549091 -3.42324 0
M  V30 997 C 87.914 -0.347156 -4.27894 0
M  V30 998 C 87.147 0.43207 -5.31948 0
M  V30 999 O 87.37 1.66409 -5.45586 0
M  V30 1000 O 86.304 -0.192298 -6.01593 0
M  V30 1001 H 90.13 -1.09243 -2.83372 0
M  V30 1002 H 87.715 -0.598198 -1.36901 0
M  V30 1003 H 89.597 1.01414 -4.09015 0
M  V30 1004 H 88.272 1.34955 -2.94226 0
M  V30 1005 H 87.179 -0.859979 -3.64081 0
M  V30 1006 H 88.512 -1.1123 -4.79467 0
M  V30 1007 N 90.1641 1.46063 -0.591896 0
M  V30 1008 C 91.4411 1.95595 -0.0137119 0
M  V30 1009 C 91.8211 1.5345 1.4497 0
M  V30 1010 O 91.1691 0.789543 2.14426 0
M  V30 1011 C 91.3791 3.48453 -0.195373 0
M  V30 1012 C 92.7271 4.24546 -0.0679765 0
M  V30 1013 O 93.7511 3.55982 -0.124681 0
M  V30 1014 O 92.6101 5.46467 0.0600579 0
M  V30 1015 H 89.7041 0.825795 0.0446279 0
M  V30 1016 H 92.2501 1.56303 -0.660859 0
M  V30 1017 H 91.0221 3.72045 -1.21235 0
M  V30 1018 H 90.6451 3.94597 0.487775 0
M  V30 1019 N 91.6422 0.330177 1.54103 0
M  V30 1020 C 92.8892 -0.270405 2.00686 0
M  V30 1021 C 93.2172 -1.51621 1.21825 0
M  V30 1022 O 92.4722 -1.93536 0.29025 0
M  V30 1023 C 92.7712 -0.643134 3.51566 0
M  V30 1024 C 92.4372 0.504251 4.48072 0
M  V30 1025 C 91.0992 0.819163 4.74176 0
M  V30 1026 C 93.4512 1.27465 5.05373 0
M  V30 1027 C 90.7792 1.90708 5.5484 0
M  V30 1028 C 93.1312 2.35271 5.87223 0
M  V30 1029 C 91.7952 2.67336 6.11627 0
M  V30 1030 H 91.0652 -0.0989482 0.734364 0
M  V30 1031 H 93.7122 0.455324 1.86008 0
M  V30 1032 H 92.0172 -1.44938 3.64006 0
M  V30 1033 H 93.7142 -1.11949 3.85056 0
M  V30 1034 H 90.3042 0.248733 4.27878 0
M  V30 1035 H 94.4882 1.04462 4.85182 0
M  V30 1036 H 89.7442 2.15991 5.71977 0
M  V30 1037 H 93.9182 2.95405 6.30641 0
M  V30 1038 H 91.5452 3.51763 6.73919 0
M  V30 1039 N 93.1203 -1.57491 0.0584922 0
M  V30 1040 C 94.3663 -1.93264 -0.614558 0
M  V30 1041 C 94.6993 -0.937717 -1.7006 0
M  V30 1042 O 93.9743 0.0351652 -1.94468 0
M  V30 1043 C 94.2573 -3.3938 -1.20386 0
M  V30 1044 C 94.1103 -4.49625 -0.125375 0
M  V30 1045 C 95.4293 -3.86039 -2.11334 0
M  V30 1046 H 92.5483 -0.702791 -0.221933 0
M  V30 1047 H 95.1903 -1.8961 0.12175 0
M  V30 1048 H 93.3403 -3.42626 -1.83139 0
M  V30 1049 H 95.0123 -4.58506 0.506971 0
M  V30 1050 H 93.2553 -4.30354 0.545672 0
M  V30 1051 H 93.9263 -5.48967 -0.577861 0
M  V30 1052 H 96.4023 -3.84716 -1.58534 0
M  V30 1053 H 95.2783 -4.88914 -2.49507 0
M  V30 1054 H 95.5393 -3.23215 -3.01636 0
M  V30 1055 N 94.5984 0.214957 -1.56127 0
M  V30 1056 C 95.8454 0.938372 -1.79446 0
M  V30 1057 C 96.1734 1.8407 -0.628378 0
M  V30 1058 O 95.4284 1.91837 0.386925 0
M  V30 1059 C 95.7274 1.80314 -3.0858 0
M  V30 1060 C 95.3934 1.05349 -4.3842 0
M  V30 1061 C 94.0554 0.846435 -4.73697 0
M  V30 1062 C 96.4074 0.524588 -5.18553 0
M  V30 1063 C 93.7354 0.098683 -5.86617 0
M  V30 1064 C 96.0874 -0.209853 -6.32252 0
M  V30 1065 C 94.7514 -0.428102 -6.66126 0
M  V30 1066 H 94.0214 0.343375 -0.656639 0
M  V30 1067 H 96.6684 0.206077 -1.90388 0
M  V30 1068 H 94.9734 2.6035 -2.92789 0
M  V30 1069 H 96.6704 2.36513 -3.23825 0
M  V30 1070 H 93.2604 1.22486 -4.10725 0
M  V30 1071 H 97.4444 0.672008 -4.91729 0
M  V30 1072 H 92.7004 -0.0805753 -6.11347 0
M  V30 1073 H 96.8744 -0.627157 -6.9357 0
M  V30 1074 H 94.5014 -1.00944 -7.53468 0
M  V30 1075 N 96.0765 1.50051 0.48192 0
M  V30 1076 C 97.0095 1.62749 1.59963 0
M  V30 1077 C 97.9875 0.475903 1.5548 0
M  V30 1078 O 99.1715 0.693986 1.7526 0
M  V30 1079 C 96.2985 1.60008 2.98522 0
M  V30 1080 C 95.3445 2.80596 3.21198 0
M  V30 1081 S 96.1775 4.42038 3.02262 0
M  V30 1082 C 97.3335 4.41973 4.43182 0
M  V30 1083 H 97.5665 2.57296 1.4895 0
M  V30 1084 H 95.0995 1.39179 0.668477 0
M  V30 1085 H 97.0575 1.59112 3.78409 0
M  V30 1086 H 95.7185 0.667153 3.06933 0
M  V30 1087 H 94.9115 2.74952 4.22395 0
M  V30 1088 H 94.5135 2.79003 2.49065 0
M  V30 1089 H 96.8055 4.14868 5.35622 0
M  V30 1090 H 97.7485 5.43512 4.53873 0
M  V30 1091 H 98.1565 3.71812 4.24755 0
M  V30 1092 N 97.5546 -0.734337 1.39446 0
M  V30 1093 C 98.5016 -1.84835 1.38219 0
M  V30 1094 C 99.4716 -1.64331 0.24179 0
M  V30 1095 O 100.657 -1.85728 0.437002 0
M  V30 1096 C 97.7966 -3.22355 1.23212 0
M  V30 1097 C 96.9096 -3.5456 2.46801 0
M  V30 1098 C 96.0446 -4.81485 2.24377 0
M  V30 1099 C 95.0836 -5.06536 3.43639 0
M  V30 1100 N 94.2206 -6.24665 3.20528 0
M  V30 1101 H 99.0606 -1.85219 2.33448 0
M  V30 1102 H 96.5976 -0.905039 1.15963 0
M  V30 1103 H 98.5556 -4.0174 1.12522 0
M  V30 1104 H 97.1856 -3.21248 0.316121 0
M  V30 1105 H 96.2376 -2.69872 2.68092 0
M  V30 1106 H 97.5496 -3.6899 3.3563 0
M  V30 1107 H 96.7036 -5.68852 2.10933 0
M  V30 1108 H 95.4426 -4.6923 1.32944 0
M  V30 1109 H 94.4476 -4.17632 3.5758 0
M  V30 1110 H 95.6726 -5.20676 4.35974 0
M  V30 1111 H 93.6186 -6.13696 2.3176 0
M  V30 1112 H 93.5356 -6.39685 4.02913 0
M  V30 1113 H 94.8036 -7.14868 3.10779 0
M  V30 1114 N 99.0327 -1.24633 -0.964593 0
M  V30 1115 C 100.261 -1.11501 -1.74285 0
M  V30 1116 C 100.676 0.332165 -1.85855 0
M  V30 1117 O 100.033 1.22903 -1.34911 0
M  V30 1118 C 100.084 -1.75258 -3.16175 0
M  V30 1119 O 99.8047 -3.14318 -3.05182 0
M  V30 1120 C 101.306 -1.67776 -4.10324 0
M  V30 1121 H 98.5257 -0.389407 -0.546446 0
M  V30 1122 H 101.07 -1.64801 -1.21083 0
M  V30 1123 H 99.2247 -1.25954 -3.66353 0
M  V30 1124 H 99.6387 -3.4551 -3.94618 0
M  V30 1125 H 101.113 -2.17064 -5.0753 0
M  V30 1126 H 101.59 -0.639584 -4.34518 0
M  V30 1127 H 102.196 -2.16522 -3.66058 0
M  V30 1128 N 100.511 1.16574 -1.06058 0
M  V30 1129 C 101.76 1.86385 -0.770944 0
M  V30 1130 C 102.073 1.82448 0.705129 0
M  V30 1131 O 103.279 2.47815 1.10905 0
M  V30 1132 C 101.735 3.34466 -1.32893 0
M  V30 1133 C 101.343 3.46883 -2.83507 0
M  V30 1134 C 103.087 4.09548 -1.11672 0
M  V30 1135 C 100.994 4.89036 -3.32562 0
M  V30 1136 H 99.9238 0.698181 -0.284709 0
M  V30 1137 H 102.575 1.31583 -1.27899 0
M  V30 1138 H 100.957 3.88859 -0.748662 0
M  V30 1139 H 102.131 3.02663 -3.47465 0
M  V30 1140 H 100.446 2.85232 -3.03368 0
M  V30 1141 H 103.043 5.14434 -1.45814 0
M  V30 1142 H 103.386 4.16264 -0.0549535 0
M  V30 1143 H 103.919 3.61387 -1.66265 0
M  V30 1144 H 100.658 4.87499 -4.38207 0
M  V30 1145 H 100.178 5.3389 -2.73351 0
M  V30 1146 H 101.857 5.57843 -3.2775 0
M  V30 1147 N 101.989 0.842826 1.3317 0
M  V30 1148 C 102.921 0.236245 2.27979 0
M  V30 1149 C 103.934 -0.585282 1.51915 0
M  V30 1150 O 105.123 -0.411705 1.73687 0
M  V30 1151 C 102.223 -0.685717 3.3189 0
M  V30 1152 C 101.396 0.0973448 4.37292 0
M  V30 1153 C 100.455 -0.748565 5.20848 0
M  V30 1154 O 99.4809 -0.186339 5.68895 0
M  V30 1155 N 100.683 -2.06527 5.42519 0
M  V30 1156 H 103.448 1.05088 2.80672 0
M  V30 1157 H 101.009 0.701667 1.45905 0
M  V30 1158 H 103.001 -1.25669 3.84694 0
M  V30 1159 H 101.571 -1.40105 2.79445 0
M  V30 1160 H 100.791 0.849706 3.84933 0
M  V30 1161 H 102.079 0.635643 5.04814 0
M  V30 1162 H 101.477 -2.54554 5.05192 0
M  V30 1163 H 100.034 -2.58464 5.98364 0
M  V30 1164 N 103.467 -1.45747 0.599634 0
M  V30 1165 C 104.883 -1.57424 0.26264 0
M  V30 1166 C 105.083 -1.59222 -1.23493 0
M  V30 1167 O 104.139 -1.51825 -2.01756 0
M  V30 1168 C 105.452 -2.86061 0.926795 0
M  V30 1169 C 107 -2.99722 0.901967 0
M  V30 1170 C 107.475 -4.31119 1.54598 0
M  V30 1171 N 108.966 -4.37858 1.5111 0
M  V30 1172 C 109.701 -5.3818 1.97863 0
M  V30 1173 N 109.197 -6.45083 2.52666 0
M  V30 1174 N 110.99 -5.29487 1.88679 0
M  V30 1175 H 103.141 -1.42823 1.57211 0
M  V30 1176 H 105.404 -0.68235 0.658105 0
M  V30 1177 H 105.11 -2.90605 1.98095 0
M  V30 1178 H 104.984 -3.74563 0.445238 0
M  V30 1179 H 107.371 -2.9475 -0.143617 0
M  V30 1180 H 107.452 -2.12652 1.42171 0
M  V30 1181 H 107.096 -4.36849 2.59085 0
M  V30 1182 H 107.026 -5.16992 1.00132 0
M  V30 1183 H 109.517 -3.61209 1.11068 0
M  V30 1184 H 109.83 -7.17869 2.86155 0
M  V30 1185 H 108.175 -6.45856 2.56701 0
M  V30 1186 H 111.366 -4.44877 1.4561 0
M  V30 1187 H 111.539 -6.07524 2.25429 0
M  V30 1188 N 104.945 -0.338344 -1.53925 0
M  V30 1189 C 106.185 0.260168 -2.02737 0
M  V30 1190 C 106.549 1.48181 -1.22092 0
M  V30 1191 O 107.75 2.15416 -1.60777 0
M  V30 1192 C 106.021 0.571627 -3.52799 0
M  V30 1193 S 107.58 1.14769 -4.23525 0
M  V30 1194 H 104.398 0.077791 -0.706732 0
M  V30 1195 H 107 -0.474899 -1.89644 0
M  V30 1196 H 105.704 -0.325392 -4.09108 0
M  V30 1197 H 105.235 1.3365 -3.70002 0
M  V30 1198 H 107.25 2.43372 -4.32417 0
M  V30 1199 N 106.423 1.57458 -0.0668435 0
M  V30 1200 C 107.371 2.13639 0.919851 0
M  V30 1201 C 108.365 1.07204 1.31163 0
M  V30 1202 O 109.571 1.25591 1.28945 0
M  V30 1203 H 105.946 0.683048 0.314562 0
M  V30 1204 H 107.917 2.95415 0.421047 0
M  V30 1205 C 106.666 2.70892 2.17975 0
M  V30 1206 H 105.989 3.5246 1.88711 0
M  V30 1207 H 107.429 3.13803 2.85138 0
M  V30 1208 C 105.888 1.65414 2.93496 0
M  V30 1209 O 106.418 1.07619 3.87015 0
M  V30 1210 N 104.624 1.36564 2.56512 0
M  V30 1211 H 104.171 1.83751 1.80536 0
M  V30 1212 H 104.129 0.66223 3.07347 0
M  V30 1213 N 107.901 -0.206675 1.56239 0
M  V30 1214 C 109.129 -0.945345 1.8404 0
M  V30 1215 C 109.544 -1.77336 0.647885 0
M  V30 1216 O 108.901 -1.78425 -0.383511 0
M  V30 1217 C 108.952 -1.8509 3.10522 0
M  V30 1218 O 108.673 -1.05634 4.25174 0
M  V30 1219 C 110.174 -2.70222 3.51418 0
M  V30 1220 H 107.394 -0.276372 0.61144 0
M  V30 1221 H 109.938 -0.217417 2.03341 0
M  V30 1222 H 108.093 -2.53259 2.93153 0
M  V30 1223 H 108.507 -1.67238 4.97124 0
M  V30 1224 H 109.981 -3.29438 4.42916 0
M  V30 1225 H 110.458 -3.43358 2.73864 0
M  V30 1226 H 111.064 -2.07443 3.71278 0
M  V30 1227 N 109.379 -1.50304 -0.473955 0
M  V30 1228 C 110.627 -1.60832 -1.22382 0
M  V30 1229 C 110.948 -0.30939 -1.9253 0
M  V30 1230 O 110.218 0.67296 -1.83978 0
M  V30 1231 H 108.798 -0.592652 -0.454723 0
M  V30 1232 H 111.46 -1.87068 -0.546968 0
M  V30 1233 H 110.556 -2.41803 -1.97327 0
M  V30 1234 N 110.857 0.726932 -1.39834 0
M  V30 1235 C 111.767 1.87131 -1.41489 0
M  V30 1236 C 112.783 1.71239 -0.308757 0
M  V30 1237 O 113.959 1.93701 -0.551529 0
M  V30 1238 C 111.024 3.22811 -1.26468 0
M  V30 1239 C 110.085 3.51039 -2.47124 0
M  V30 1240 C 109.318 4.80245 -2.3281 0
M  V30 1241 O 109.541 5.54537 -1.33585 0
M  V30 1242 O 108.475 5.08554 -3.21957 0
M  V30 1243 H 112.301 1.8869 -2.3797 0
M  V30 1244 H 109.886 0.875837 -1.21035 0
M  V30 1245 H 111.768 4.03877 -1.20255 0
M  V30 1246 H 110.443 3.22005 -0.330862 0
M  V30 1247 H 109.35 2.70027 -2.58914 0
M  V30 1248 H 110.683 3.56632 -3.39227 0
M  V30 1249 N 112.336 1.25143 0.95797 0
M  V30 1250 C 113.752 1.01892 1.22842 0
M  V30 1251 C 113.952 -0.266311 1.99732 0
M  V30 1252 O 113.008 -0.979913 2.3271 0
M  V30 1253 C 114.321 2.24004 2.00606 0
M  V30 1254 C 115.869 2.28731 2.13662 0
M  V30 1255 C 116.344 3.5049 2.94823 0
M  V30 1256 N 117.835 3.50866 3.02403 0
M  V30 1257 C 118.57 4.4174 3.65586 0
M  V30 1258 N 118.066 5.42882 4.30408 0
M  V30 1259 N 119.859 4.29429 3.62694 0
M  V30 1260 H 112.01 2.07718 0.443493 0
M  V30 1261 H 114.273 0.912031 0.258657 0
M  V30 1262 H 113.979 3.17395 1.51503 0
M  V30 1263 H 113.853 2.26907 3.01319 0
M  V30 1264 H 116.24 1.35865 2.61963 0
M  V30 1265 H 116.321 2.29848 1.12265 0
M  V30 1266 H 115.965 4.43676 2.47213 0
M  V30 1267 H 115.895 3.46617 3.96439 0
M  V30 1268 H 118.386 2.777 2.56302 0
M  V30 1269 H 118.699 6.0844 4.76467 0
M  V30 1270 H 117.044 5.46758 4.29047 0
M  V30 1271 H 120.235 3.49643 3.11236 0
M  V30 1272 H 120.408 5.00448 4.1165 0
M  V30 1273 N 113.814 -1.1601 1.06675 0
M  V30 1274 C 115.039 -1.91068 0.806706 0
M  V30 1275 C 115.464 -1.77112 -0.633485 0
M  V30 1276 O 114.822 -1.09908 -1.44187 0
M  V30 1277 C 114.87 -3.39655 1.21106 0
M  V30 1278 O 113.974 -4.10893 0.352189 0
M  V30 1279 H 113.315 -0.595125 0.294486 0
M  V30 1280 H 115.845 -1.46955 1.42356 0
M  V30 1281 H 115.855 -3.90434 1.18428 0
M  V30 1282 H 114.53 -3.49132 2.26008 0
M  V30 1283 H 113.107 -3.70285 0.440868 0
M  V30 1284 N 115.292 -0.849877 -1.32721 0
M  V30 1285 C 116.222 -0.306308 -2.31482 0
M  V30 1286 C 117.203 0.591952 -1.59468 0
M  V30 1287 O 118.388 0.513199 -1.87296 0
M  V30 1288 C 115.518 0.510204 -3.43532 0
M  V30 1289 C 114.472 -0.293209 -4.26994 0
M  V30 1290 C 113.798 0.647743 -5.30762 0
M  V30 1291 C 115.098 -1.51634 -4.99804 0
M  V30 1292 H 116.792 -1.13153 -2.77195 0
M  V30 1293 H 114.338 -0.545553 -1.33266 0
M  V30 1294 H 116.291 0.900856 -4.11658 0
M  V30 1295 H 115.015 1.36874 -2.96535 0
M  V30 1296 H 113.674 -0.665555 -3.60508 0
M  V30 1297 H 113.322 1.50299 -4.8002 0
M  V30 1298 H 113.022 0.11422 -5.87489 0
M  V30 1299 H 114.546 1.03567 -6.01753 0
M  V30 1300 H 115.96 -1.19824 -5.60638 0
M  V30 1301 H 114.357 -1.98745 -5.66234 0
M  V30 1302 H 115.427 -2.28018 -4.27943 0
M  V30 1303 N 116.77 1.45427 -0.607355 0
M  V30 1304 C 117.995 2.07124 -0.107006 0
M  V30 1305 C 118.42 1.44906 1.19933 0
M  V30 1306 O 117.778 0.541687 1.73019 0
M  V30 1307 C 117.826 3.60595 0.0194119 0
M  V30 1308 O 116.93 3.98285 1.0697 0
M  V30 1309 H 116.271 0.659868 -0.0739597 0
M  V30 1310 H 118.801 1.86683 -0.837297 0
M  V30 1311 H 118.811 4.07419 0.2177 0
M  V30 1312 H 117.486 4.05266 -0.934453 0
M  V30 1313 H 116.063 3.63133 0.847889 0
M  V30 1314 N 118.248 0.346503 1.53744 0
M  V30 1315 C 119.178 -0.501193 2.28058 0
M  V30 1316 C 120.159 -1.10014 1.29734 0
M  V30 1317 O 121.344 -1.12097 1.58581 0
M  V30 1318 C 118.474 -1.65078 3.05559 0
M  V30 1319 C 117.428 -1.18003 4.11411 0
M  V30 1320 C 116.754 -2.41837 4.76884 0
M  V30 1321 C 118.054 -0.278394 5.21558 0
M  V30 1322 H 119.748 0.11875 2.99164 0
M  V30 1323 H 117.294 0.0585531 1.43881 0
M  V30 1324 H 119.247 -2.25028 3.56287 0
M  V30 1325 H 117.971 -2.29767 2.32109 0
M  V30 1326 H 116.63 -0.603331 3.61601 0
M  V30 1327 H 116.278 -3.0494 4.00026 0
M  V30 1328 H 115.978 -2.1102 5.48402 0
M  V30 1329 H 117.502 -3.02508 5.30397 0
M  V30 1330 H 118.916 -0.784823 5.67903 0
M  V30 1331 H 117.313 -0.0619707 6.00068 0
M  V30 1332 H 118.383 0.684677 4.80042 0
M  V30 1333 N 119.726 -1.57421 0.075193 0
M  V30 1334 C 120.656 -2.15942 -0.888324 0
M  V30 1335 C 121.637 -1.08737 -1.30806 0
M  V30 1336 O 122.822 -1.36787 -1.37851 0
M  V30 1337 C 119.952 -2.72379 -2.1547 0
M  V30 1338 C 118.906 -3.8478 -1.87425 0
M  V30 1339 C 118.232 -4.27834 -3.20721 0
M  V30 1340 C 119.532 -5.08869 -1.17684 0
M  V30 1341 H 121.226 -2.96705 -0.400799 0
M  V30 1342 H 118.772 -1.42723 -0.191342 0
M  V30 1343 H 120.725 -3.11965 -2.83295 0
M  V30 1344 H 119.449 -1.88841 -2.6647 0
M  V30 1345 H 118.108 -3.45703 -1.22004 0
M  V30 1346 H 117.756 -3.41214 -3.6957 0
M  V30 1347 H 117.456 -5.03605 -3.02746 0
M  V30 1348 H 118.98 -4.70039 -3.89738 0
M  V30 1349 H 120.394 -5.4575 -1.75584 0
M  V30 1350 H 118.791 -5.8994 -1.09956 0
M  V30 1351 H 119.861 -4.84648 -0.156453 0
M  V30 1352 N 121.204 0.198386 -1.56346 0
M  V30 1353 C 122.152 1.26538 -1.95169 0
M  V30 1354 C 123.146 1.47295 -0.836685 0
M  V30 1355 O 124.352 1.48195 -1.02167 0
M  V30 1356 H 120.727 0.424744 -0.620561 0
M  V30 1357 H 122.698 0.910904 -2.84157 0
M  V30 1358 C 121.447 2.6035 -2.30463 0
M  V30 1359 H 120.77 2.45192 -3.15786 0
M  V30 1360 H 122.21 3.33762 -2.61494 0
M  V30 1361 C 120.669 3.17096 -1.13806 0
M  V30 1362 O 121.199 3.99588 -0.41135 0
M  V30 1363 N 119.405 2.75795 -0.915736 0
M  V30 1364 H 118.952 2.08816 -1.50843 0
M  V30 1365 H 118.91 3.14101 -0.136979 0
M  V30 1366 N 122.682 1.50554 0.465978 0
M  V30 1367 C 123.922 1.63439 1.22747 0
M  V30 1368 C 124.286 0.329822 1.89146 0
M  V30 1369 O 125.487 0.334161 2.66715 0
M  V30 1370 C 123.758 2.78542 2.2394 0
M  V30 1371 S 125.317 3.11591 3.0896 0
M  V30 1372 H 122.135 0.576113 0.416672 0
M  V30 1373 H 124.737 1.88357 0.523641 0
M  V30 1374 H 123.441 3.71805 1.7375 0
M  V30 1375 H 122.972 2.55726 2.98944 0
M  V30 1376 H 124.987 2.55811 4.25176 0
M  V30 1377 N 124.16 -0.719506 1.40217 0
M  V30 1378 C 125.07 -1.86378 1.42479 0
M  V30 1379 C 126.086 -1.71073 0.317834 0
M  V30 1380 O 127.262 -1.93406 0.561794 0
M  V30 1381 C 124.327 -3.22136 1.28178 0
M  V30 1382 C 123.388 -3.49723 2.48982 0
M  V30 1383 C 122.621 -4.79004 2.35353 0
M  V30 1384 O 122.844 -5.53821 1.36524 0
M  V30 1385 O 121.778 -5.06839 3.2465 0
M  V30 1386 H 125.604 -1.87425 2.38968 0
M  V30 1387 H 123.189 -0.869405 1.21498 0
M  V30 1388 H 125.071 -4.03234 1.22395 0
M  V30 1389 H 123.746 -3.21825 0.347934 0
M  V30 1390 H 122.653 -2.6865 2.60342 0
M  V30 1391 H 123.986 -3.54828 3.41113 0
M  V30 1392 N 125.638 -1.25649 -0.95132 0
M  V30 1393 C 126.548 -1.08073 -2.08224 0
M  V30 1394 C 127.564 -0.0169666 -1.73992 0
M  V30 1395 O 128.74 -0.218593 -2.0021 0
M  V30 1396 C 125.805 -0.704922 -3.39458 0
M  V30 1397 C 124.866 -1.84699 -3.87537 0
M  V30 1398 C 124.099 -1.48902 -5.12508 0
M  V30 1399 O 124.322 -0.386156 -5.69091 0
M  V30 1400 O 123.256 -2.32033 -5.55378 0
M  V30 1401 H 127.082 -2.02924 -2.25954 0
M  V30 1402 H 124.667 -1.04618 -1.06656 0
M  V30 1403 H 126.549 -0.507609 -4.18332 0
M  V30 1404 H 125.224 0.214291 -3.2299 0
M  V30 1405 H 124.131 -2.09919 -3.09653 0
M  V30 1406 H 125.464 -2.74557 -4.08509 0
M  V30 1407 N 127.117 1.15442 -1.07289 0
M  V30 1408 C 128.366 1.85557 -0.790669 0
M  V30 1409 C 128.679 1.83186 0.685739 0
M  V30 1410 O 129.885 2.48977 1.0827 0
M  V30 1411 C 128.341 3.33038 -1.36433 0
M  V30 1412 C 127.949 3.43856 -2.8717 0
M  V30 1413 C 129.693 4.0834 -1.1601 0
M  V30 1414 C 127.6 4.85482 -3.3773 0
M  V30 1415 H 126.53 0.695122 -0.292098 0
M  V30 1416 H 129.181 1.30219 -1.29287 0
M  V30 1417 H 127.563 3.88043 -0.789864 0
M  V30 1418 H 128.737 2.98961 -3.50655 0
M  V30 1419 H 127.052 2.81998 -3.06376 0
M  V30 1420 H 129.649 5.12859 -1.51262 0
M  V30 1421 H 129.992 4.16182 -0.0991007 0
M  V30 1422 H 130.525 3.59603 -1.70089 0
M  V30 1423 H 127.264 4.82823 -4.43353 0
M  V30 1424 H 126.784 5.30961 -2.78999 0
M  V30 1425 H 128.463 5.54335 -3.33648 0
M  V30 1426 N 128.595 0.856903 1.32268 0
M  V30 1427 C 129.542 0.301172 2.28827 0
M  V30 1428 C 130.512 -0.593104 1.5515 0
M  V30 1429 O 131.697 -0.527537 1.83362 0
M  V30 1430 C 128.837 -0.502523 3.41422 0
M  V30 1431 C 127.95 0.417797 4.29975 0
M  V30 1432 C 127.085 -0.398749 5.29701 0
M  V30 1433 C 126.124 0.518827 6.09897 0
M  V30 1434 N 125.261 -0.260674 7.01616 0
M  V30 1435 H 130.101 1.12983 2.75751 0
M  V30 1436 H 127.638 0.568582 1.35667 0
M  V30 1437 H 129.596 -0.984141 4.05426 0
M  V30 1438 H 128.226 -1.29599 2.95642 0
M  V30 1439 H 127.278 1.01781 3.66531 0
M  V30 1440 H 128.59 1.12191 4.86019 0
M  V30 1441 H 127.744 -0.943435 5.9932 0
M  V30 1442 H 126.483 -1.13622 4.7428 0
M  V30 1443 H 125.488 1.07538 5.39181 0
M  V30 1444 H 126.713 1.25495 6.67404 0
M  V30 1445 H 124.659 -0.981198 6.4862 0
M  V30 1446 H 124.576 0.384364 7.55022 0
M  V30 1447 H 125.844 -0.787014 7.75517 0
M  V30 1448 N 130.073 -1.45103 0.615059 0
M  V30 1449 C 131.298 -2.07064 0.117988 0
M  V30 1450 C 131.723 -1.4554 -1.19163 0
M  V30 1451 O 131.081 -0.550855 -1.72729 0
M  V30 1452 C 131.129 -3.606 -0.000288387 0
M  V30 1453 O 130.233 -3.98847 -1.04856 0
M  V30 1454 H 129.574 -0.659467 0.0774581 0
M  V30 1455 H 132.104 -1.86236 0.847186 0
M  V30 1456 H 132.114 -4.07529 -0.196091 0
M  V30 1457 H 130.789 -4.04765 0.955932 0
M  V30 1458 H 129.366 -3.63577 -0.828619 0
M  V30 1459 N 131.551 -0.354651 -1.53558 0
M  V30 1460 C 132.483 0.5315 -2.22952 0
M  V30 1461 C 133.496 1.05503 -1.23988 0
M  V30 1462 O 134.685 0.963279 -1.50277 0
M  V30 1463 C 131.785 1.74538 -2.90499 0
M  V30 1464 C 130.958 1.35524 -4.15875 0
M  V30 1465 C 130.017 2.42999 -4.66731 0
M  V30 1466 O 129.043 2.05844 -5.30676 0
M  V30 1467 N 130.245 3.74423 -4.43608 0
M  V30 1468 H 133.01 -0.0628615 -2.99634 0
M  V30 1469 H 130.571 -0.179302 -1.60904 0
M  V30 1470 H 132.563 2.45892 -3.21433 0
M  V30 1471 H 131.133 2.24686 -2.17336 0
M  V30 1472 H 130.353 0.471998 -3.91364 0
M  V30 1473 H 131.641 1.07071 -4.97406 0
M  V30 1474 H 131.039 4.07391 -3.92491 0
M  V30 1475 H 129.596 4.41913 -4.7912 0
M  V30 1476 N 133.029 1.57378 -0.0835403 0
M  V30 1477 C 134.276 1.9393 0.58287 0
M  V30 1478 C 134.604 0.964455 1.68904 0
M  V30 1479 O 133.859 -0.0179474 1.95692 0
M  V30 1480 C 134.158 3.37063 1.1884 0
M  V30 1481 C 133.824 4.50424 0.207194 0
M  V30 1482 C 132.486 4.81159 -0.0627115 0
M  V30 1483 C 134.838 5.19136 -0.463426 0
M  V30 1484 C 132.166 5.77939 -1.01012 0
M  V30 1485 C 134.518 6.16931 -1.39924 0
M  V30 1486 C 133.182 6.46078 -1.67749 0
M  V30 1487 H 132.452 0.70964 0.213287 0
M  V30 1488 H 135.099 1.90856 -0.156916 0
M  V30 1489 H 133.404 3.3666 2.00418 0
M  V30 1490 H 135.101 3.6264 1.71153 0
M  V30 1491 H 131.691 4.2646 0.427747 0
M  V30 1492 H 135.875 4.95576 -0.268034 0
M  V30 1493 H 131.131 5.98842 -1.23283 0
M  V30 1494 H 135.305 6.69273 -1.92476 0
M  V30 1495 H 132.932 7.2088 -2.41321 0
M  V30 1496 N 134.507 -0.190092 1.56449 0
M  V30 1497 C 135.417 -1.25591 1.98152 0
M  V30 1498 C 136.433 -1.49519 0.889944 0
M  V30 1499 O 137.609 -1.62036 1.19609 0
M  V30 1500 C 134.674 -2.57916 2.3169 0
M  V30 1501 C 133.735 -2.42015 3.5458 0
M  V30 1502 C 132.968 -3.6803 3.8651 0
M  V30 1503 O 133.191 -4.72413 3.1966 0
M  V30 1504 O 132.125 -3.6326 4.79923 0
M  V30 1505 H 135.951 -0.931988 2.89046 0
M  V30 1506 H 133.536 -0.395488 1.4407 0
M  V30 1507 H 135.418 -3.36008 2.54316 0
M  V30 1508 H 134.093 -2.89925 1.43963 0
M  V30 1509 H 133 -1.62017 3.37196 0
M  V30 1510 H 134.333 -2.14937 4.4279 0
M  V30 1511 N 135.985 -1.50799 -0.457987 0
M  V30 1512 C 137.233 -1.62121 -1.2067 0
M  V30 1513 C 137.554 -0.329793 -1.92191 0
M  V30 1514 O 136.824 0.653409 -1.84682 0
M  V30 1515 H 135.404 -0.597441 -0.448411 0
M  V30 1516 H 138.066 -1.87637 -0.527096 0
M  V30 1517 H 137.162 -2.43882 -1.94751 0
M  V30 1518 N 137.463 0.71206 -1.40597 0
M  V30 1519 C 138.71 1.47197 -1.39065 0
M  V30 1520 C 139.038 1.94499 0.00583891 0
M  V30 1521 O 138.293 1.68752 0.99102 0
M  V30 1522 C 138.592 2.71039 -2.32965 0
M  V30 1523 C 138.258 2.42484 -3.80148 0
M  V30 1524 C 136.92 2.34406 -4.20247 0
M  V30 1525 C 139.272 2.18598 -4.73143 0
M  V30 1526 C 136.6 2.00516 -5.51371 0
M  V30 1527 C 138.952 1.8622 -6.0457 0
M  V30 1528 C 137.616 1.76626 -6.43708 0
M  V30 1529 H 136.886 0.538634 -0.508876 0
M  V30 1530 H 139.533 0.815325 -1.73276 0
M  V30 1531 H 137.838 3.41558 -1.91951 0
M  V30 1532 H 139.535 3.29138 -2.29061 0
M  V30 1533 H 136.125 2.49659 -3.4838 0
M  V30 1534 H 140.309 2.23793 -4.42979 0
M  V30 1535 H 135.565 1.91628 -5.80593 0
M  V30 1536 H 139.739 1.66752 -6.76141 0
M  V30 1537 H 137.366 1.50133 -7.45228 0
M  V30 1538 N 138.941 1.26152 0.944643 0
M  V30 1539 C 140.187 1.11657 1.69294 0
M  V30 1540 C 140.52 -0.339926 1.91202 0
M  V30 1541 O 139.795 -1.24994 1.49019 0
M  V30 1542 C 140.078 1.88236 3.06984 0
M  V30 1543 C 139.931 3.41772 2.92424 0
M  V30 1544 C 141.25 1.67343 4.07043 0
M  V30 1545 H 138.369 0.407004 0.614424 0
M  V30 1546 H 141.011 1.55106 1.09737 0
M  V30 1547 H 139.161 1.51308 3.57824 0
M  V30 1548 H 140.833 3.88433 2.48832 0
M  V30 1549 H 139.076 3.68974 2.28124 0
M  V30 1550 H 139.747 3.90579 3.90067 0
M  V30 1551 H 142.223 1.99509 3.65151 0
M  V30 1552 H 141.099 2.23346 5.01406 0
M  V30 1553 H 141.36 0.617158 4.37771 0
M  V30 1554 N 140.419 -1.14872 1.07899 0
M  V30 1555 C 141.366 -2.19791 0.704319 0
M  V30 1556 C 142.336 -1.63238 -0.306987 0
M  V30 1557 O 143.521 -1.8983 -0.192171 0
M  V30 1558 C 140.661 -3.44911 0.114244 0
M  V30 1559 C 139.774 -4.15637 1.1777 0
M  V30 1560 C 138.909 -5.28324 0.552037 0
M  V30 1561 C 137.948 -5.90875 1.59789 0
M  V30 1562 N 137.085 -6.95022 0.994404 0
M  V30 1563 H 141.925 -2.5119 1.60336 0
M  V30 1564 H 139.462 -1.23356 0.801352 0
M  V30 1565 H 141.42 -4.16477 -0.245544 0
M  V30 1566 H 140.05 -3.14011 -0.74813 0
M  V30 1567 H 139.102 -3.42512 1.65499 0
M  V30 1568 H 140.414 -4.5823 1.97046 0
M  V30 1569 H 139.568 -6.06538 0.1402 0
M  V30 1570 H 138.307 -4.86939 -0.272431 0
M  V30 1571 H 137.312 -5.11369 2.01945 0
M  V30 1572 H 138.537 -6.34337 2.42474 0
M  V30 1573 H 136.483 -6.55722 0.190939 0
M  V30 1574 H 136.4 -7.36073 1.72432 0
M  V30 1575 H 137.668 -7.77123 0.608253 0
M  V30 1576 N 141.898 -0.863906 -1.31812 0
M  V30 1577 C 143.175 -0.39275 -1.91616 0
M  V30 1578 C 143.555 1.12461 -1.7865 0
M  V30 1579 O 142.903 1.95045 -1.19037 0
M  V30 1580 C 143.113 -0.867385 -3.38049 0
M  V30 1581 C 144.461 -0.889966 -4.15168 0
M  V30 1582 O 145.485 -0.812635 -3.46806 0
M  V30 1583 O 144.344 -1.00079 -5.37258 0
M  V30 1584 H 141.438 -0.116358 -0.818773 0
M  V30 1585 H 143.984 -0.951418 -1.40521 0
M  V30 1586 H 142.756 -1.91081 -3.41473 0
M  V30 1587 H 142.379 -0.286687 -3.96565 0
M  V30 1588 N 143.376 1.44774 -0.622745 0
M  V30 1589 C 144.625 2.01334 -0.121397 0
M  V30 1590 C 144.938 1.49505 1.26125 0
M  V30 1591 O 146.144 1.98139 1.85616 0
M  V30 1592 C 144.6 3.59516 -0.166298 0
M  V30 1593 C 144.208 4.20342 -1.54974 0
M  V30 1594 C 145.952 4.23582 0.279021 0
M  V30 1595 C 143.859 5.70721 -1.55021 0
M  V30 1596 H 142.789 0.752851 -0.0416172 0
M  V30 1597 H 145.44 1.66083 -0.780309 0
M  V30 1598 H 143.822 3.92027 0.559557 0
M  V30 1599 H 144.996 3.99381 -2.29851 0
M  V30 1600 H 143.311 3.68529 -1.93843 0
M  V30 1601 H 145.908 5.33868 0.298083 0
M  V30 1602 H 146.251 3.95327 1.30471 0
M  V30 1603 H 146.784 3.95843 -0.394063 0
M  V30 1604 H 143.523 6.03698 -2.55399 0
M  V30 1605 H 143.043 5.93829 -0.844245 0
M  V30 1606 H 144.722 6.34203 -1.28047 0
M  V30 1607 N 144.854 0.36279 1.53368 0
M  V30 1608 C 145.787 -0.528507 2.21996 0
M  V30 1609 C 146.765 -1.0852 1.21087 0
M  V30 1610 O 147.949 -1.14186 1.4998 0
M  V30 1611 C 145.076 -1.72893 2.91249 0
M  V30 1612 C 144.122 -1.29994 4.06207 0
M  V30 1613 S 144.955 -0.303575 5.34639 0
M  V30 1614 C 146.111 -1.51039 6.07403 0
M  V30 1615 H 146.344 0.0543423 2.9725 0
M  V30 1616 H 143.877 0.146889 1.537 0
M  V30 1617 H 145.835 -2.41751 3.31763 0
M  V30 1618 H 144.496 -2.28303 2.15724 0
M  V30 1619 H 143.689 -2.19549 4.53667 0
M  V30 1620 H 143.291 -0.690608 3.67569 0
M  V30 1621 H 145.583 -2.44186 6.31965 0
M  V30 1622 H 146.526 -1.07721 6.99858 0
M  V30 1623 H 146.934 -1.71518 5.37812 0
M  V30 1624 N 146.332 -1.57332 0.0918853 0
M  V30 1625 C 147.262 -2.16872 -0.865371 0
M  V30 1626 C 148.243 -1.10118 -1.29646 0
M  V30 1627 O 149.428 -1.38242 -1.36392 0
M  V30 1628 C 146.558 -2.74649 -2.12569 0
M  V30 1629 C 145.512 -3.86747 -1.83333 0
M  V30 1630 C 144.838 -4.31212 -3.16166 0
M  V30 1631 C 146.138 -5.10089 -1.1228 0
M  V30 1632 H 147.832 -2.97114 -0.369307 0
M  V30 1633 H 145.378 -1.42918 -0.176194 0
M  V30 1634 H 147.331 -3.14952 -2.7997 0
M  V30 1635 H 146.055 -1.91657 -2.64452 0
M  V30 1636 H 144.714 -3.46978 -1.18331 0
M  V30 1637 H 144.362 -3.45115 -3.6593 0
M  V30 1638 H 144.062 -5.06788 -2.97388 0
M  V30 1639 H 145.586 -4.74146 -3.84731 0
M  V30 1640 H 147 -5.47582 -1.69785 0
M  V30 1641 H 145.397 -5.91073 -1.03693 0
M  V30 1642 H 146.467 -4.84786 -0.105041 0
M  V30 1643 N 147.81 0.181792 -1.56548 0
M  V30 1644 C 148.758 1.24461 -1.965 0
M  V30 1645 C 149.752 1.464 -0.852261 0
M  V30 1646 O 150.958 1.47103 -1.03733 0
M  V30 1647 H 147.333 0.418138 -0.625031 0
M  V30 1648 H 149.304 0.880714 -2.85107 0
M  V30 1649 C 148.053 2.57891 -2.33212 0
M  V30 1650 H 147.376 2.41829 -3.18369 0
M  V30 1651 H 148.816 3.3097 -2.65019 0
M  V30 1652 C 147.275 3.15871 -1.17163 0
M  V30 1653 O 147.805 3.9913 -0.453708 0
M  V30 1654 N 146.011 2.74808 -0.944936 0
M  V30 1655 H 145.558 2.07205 -1.53049 0
M  V30 1656 H 145.516 3.13939 -0.170286 0
M  V30 1657 N 149.288 1.51039 0.449983 0
M  V30 1658 C 150.235 1.71439 1.54523 0
M  V30 1659 C 151.205 0.555871 1.56522 0
M  V30 1660 O 152.39 0.788871 1.73728 0
M  V30 1661 C 149.53 1.83384 2.92343 0
M  V30 1662 C 148.643 3.10873 2.9997 0
M  V30 1663 C 147.778 3.13488 4.28834 0
M  V30 1664 C 146.817 4.35343 4.30282 0
M  V30 1665 N 145.954 4.35579 5.5065 0
M  V30 1666 H 150.794 2.64934 1.36433 0
M  V30 1667 H 148.331 1.31312 0.662982 0
M  V30 1668 H 150.289 1.88291 3.72293 0
M  V30 1669 H 148.919 0.933086 3.0902 0
M  V30 1670 H 147.971 3.15336 2.12761 0
M  V30 1671 H 149.283 4.00814 2.96901 0
M  V30 1672 H 148.437 3.17241 5.17149 0
M  V30 1673 H 147.176 2.21414 4.34543 0
M  V30 1674 H 146.181 4.3178 3.40362 0
M  V30 1675 H 147.406 5.28668 4.26248 0
M  V30 1676 H 145.352 3.46369 5.57104 0
M  V30 1677 H 145.269 5.19313 5.49409 0
M  V30 1678 H 146.537 4.43507 6.41032 0
M  V30 1679 N 150.766 -0.704594 1.40972 0
M  V30 1680 C 151.676 -1.84856 1.44448 0
M  V30 1681 C 152.692 -1.70726 0.335961 0
M  V30 1682 O 153.868 -1.92799 0.582276 0
M  V30 1683 C 150.933 -3.20758 1.31587 0
M  V30 1684 C 149.994 -3.47063 2.52677 0
M  V30 1685 C 149.227 -4.76481 2.4042 0
M  V30 1686 O 149.45 -5.52341 1.42391 0
M  V30 1687 O 148.384 -5.03367 3.30007 0
M  V30 1688 H 152.21 -1.8488 2.40942 0
M  V30 1689 H 149.795 -0.85647 1.22413 0
M  V30 1690 H 151.677 -4.01913 1.26665 0
M  V30 1691 H 150.352 -3.21438 0.382049 0
M  V30 1692 H 149.259 -2.65873 2.63177 0
M  V30 1693 H 150.592 -3.5119 3.44858 0
M  V30 1694 N 152.244 -1.26651 -0.937939 0
M  V30 1695 C 153.154 -1.10276 -2.07066 0
M  V30 1696 C 154.17 -0.0354197 -1.73964 0
M  V30 1697 O 155.346 -0.239816 -1.99967 0
M  V30 1698 C 152.411 -0.740887 -3.38691 0
M  V30 1699 C 151.472 -1.88799 -3.85556 0
M  V30 1700 C 150.705 -1.54329 -5.10899 0
M  V30 1701 O 150.928 -0.446494 -5.6865 0
M  V30 1702 O 149.862 -2.37911 -5.52885 0
M  V30 1703 H 153.688 -2.05309 -2.23789 0
M  V30 1704 H 151.273 -1.05743 -1.0554 0
M  V30 1705 H 153.155 -0.55195 -4.1777 0
M  V30 1706 H 151.83 0.180022 -3.23199 0
M  V30 1707 H 150.737 -2.13191 -3.07409 0
M  V30 1708 H 152.07 -2.78874 -4.05574 0
M  V30 1709 N 153.722 1.14298 -1.08507 0
M  V30 1710 C 154.95 1.89219 -0.836876 0
M  V30 1711 C 155.365 1.78638 0.611054 0
M  V30 1712 O 154.722 1.14643 1.41998 0
M  V30 1713 C 154.773 3.39158 -1.25116 0
M  V30 1714 O 154.494 3.49449 -2.64229 0
M  V30 1715 C 155.995 4.31073 -1.03398 0
M  V30 1716 H 153.215 0.599328 -0.301739 0
M  V30 1717 H 155.759 1.44746 -1.44461 0
M  V30 1718 H 153.914 3.81251 -0.687514 0
M  V30 1719 H 154.328 4.42589 -2.81452 0
M  V30 1720 H 155.802 5.34646 -1.37323 0
M  V30 1721 H 156.279 4.3919 0.0289259 0
M  V30 1722 H 156.885 3.94738 -1.58311 0
M  V30 1723 N 155.201 0.870884 1.31352 0
M  V30 1724 C 156.148 0.325425 2.28494 0
M  V30 1725 C 157.118 -0.576615 1.5577 0
M  V30 1726 O 158.303 -0.508059 1.83911 0
M  V30 1727 C 155.443 -0.466283 3.41935 0
M  V30 1728 C 154.556 0.463378 4.29508 0
M  V30 1729 C 153.691 -0.342544 5.30094 0
M  V30 1730 C 152.73 0.583486 6.09313 0
M  V30 1731 N 151.867 -0.186244 7.01853 0
M  V30 1732 H 156.707 1.15901 2.74538 0
M  V30 1733 H 154.244 0.58294 1.35056 0
M  V30 1734 H 156.202 -0.941085 4.06447 0
M  V30 1735 H 154.832 -1.26456 2.97 0
M  V30 1736 H 153.884 1.05663 3.65431 0
M  V30 1737 H 155.196 1.1734 4.84802 0
M  V30 1738 H 154.35 -0.879816 6.00287 0
M  V30 1739 H 153.089 -1.08585 4.75458 0
M  V30 1740 H 152.094 1.13251 5.3801 0
M  V30 1741 H 153.319 1.32566 6.66035 0
M  V30 1742 H 151.265 -0.912348 6.49625 0
M  V30 1743 H 151.182 0.464422 7.54572 0
M  V30 1744 H 152.45 -0.704716 7.76308 0
M  V30 1745 N 156.679 -1.44442 0.630414 0
M  V30 1746 C 157.626 -2.30678 -0.0749355 0
M  V30 1747 C 158.596 -1.4344 -0.837502 0
M  V30 1748 O 159.781 -1.72343 -0.818684 0
M  V30 1749 C 156.921 -3.28706 -1.05103 0
M  V30 1750 C 156.034 -4.31046 -0.286954 0
M  V30 1751 C 155.169 -5.16167 -1.2548 0
M  V30 1752 C 154.208 -6.10216 -0.479843 0
M  V30 1753 N 153.345 -6.88039 -1.39811 0
M  V30 1754 H 158.185 -2.90454 0.666386 0
M  V30 1755 H 155.722 -1.43107 0.340404 0
M  V30 1756 H 157.68 -3.84027 -1.63031 0
M  V30 1757 H 156.31 -2.70632 -1.75949 0
M  V30 1758 H 155.362 -3.78203 0.408243 0
M  V30 1759 H 156.674 -4.97794 0.316657 0
M  V30 1760 H 155.828 -5.76002 -1.90544 0
M  V30 1761 H 154.567 -4.49491 -1.89233 0
M  V30 1762 H 153.572 -5.49491 0.184295 0
M  V30 1763 H 154.797 -6.78928 0.152965 0
M  V30 1764 H 152.743 -6.24032 -2.02287 0
M  V30 1765 H 152.66 -7.51223 -0.848508 0
M  V30 1766 H 153.928 -7.52397 -2.03762 0
M  V30 1767 N 158.157 -0.370918 -1.53173 0
M  V30 1768 C 159.067 0.480823 -2.2962 0
M  V30 1769 C 160.083 1.08789 -1.35798 0
M  V30 1770 O 161.259 1.09768 -1.68858 0
M  V30 1771 C 158.324 1.60227 -3.07454 0
M  V30 1772 C 157.385 1.0222 -4.16953 0
M  V30 1773 C 156.618 2.0902 -4.91066 0
M  V30 1774 O 156.841 3.30222 -4.65091 0
M  V30 1775 O 155.775 1.71778 -5.76867 0
M  V30 1776 H 159.601 -0.141421 -3.03371 0
M  V30 1777 H 157.186 -0.135146 -1.48787 0
M  V30 1778 H 159.068 2.25417 -3.56041 0
M  V30 1779 H 157.743 2.20982 -2.36535 0
M  V30 1780 H 156.65 0.334064 -3.72605 0
M  V30 1781 H 157.983 0.459131 -4.90054 0
M  V30 1782 N 159.635 1.57281 -0.100228 0
M  V30 1783 C 160.583 2.15542 0.874328 0
M  V30 1784 C 161.577 1.09962 1.28859 0
M  V30 1785 O 162.783 1.28298 1.26252 0
M  V30 1786 H 159.158 0.689567 0.300003 0
M  V30 1787 H 161.129 2.96241 0.35829 0
M  V30 1788 C 159.878 2.75454 2.1218 0
M  V30 1789 H 159.201 3.56384 1.81193 0
M  V30 1790 H 160.641 3.19781 2.78417 0
M  V30 1791 C 159.1 1.71602 2.89921 0
M  V30 1792 O 159.63 1.15804 3.84646 0
M  V30 1793 N 157.836 1.41975 2.53558 0
M  V30 1794 H 157.383 1.87539 1.76598 0
M  V30 1795 H 157.341 0.727274 3.05873 0
M  V30 1796 N 161.113 -0.173488 1.56642 0
M  V30 1797 C 162.338 -0.910149 1.86363 0
M  V30 1798 C 162.763 -1.75132 0.686318 0
M  V30 1799 O 162.121 -1.77595 -0.364643 0
M  V30 1800 C 162.169 -1.76447 3.14482 0
M  V30 1801 O 161.273 -2.86584 2.96553 0
M  V30 1802 H 160.614 -0.255086 0.613047 0
M  V30 1803 H 163.144 -0.172283 2.03873 0
M  V30 1804 H 163.154 -2.16483 3.45831 0
M  V30 1805 H 161.829 -1.14658 3.99783 0
M  V30 1806 H 160.406 -2.50146 2.76553 0
M  V30 1807 N 162.591 -1.51276 -0.441967 0
M  V30 1808 C 163.838 -1.63715 -1.19179 0
M  V30 1809 C 164.166 -0.351175 -1.91303 0
M  V30 1810 O 163.421 0.664524 -1.84072 0
M  V30 1811 C 163.72 -2.78746 -2.23686 0
M  V30 1812 C 163.386 -4.18189 -1.68607 0
M  V30 1813 C 162.048 -4.56125 -1.53308 0
M  V30 1814 C 164.4 -5.05222 -1.28062 0
M  V30 1815 C 161.728 -5.78804 -0.959317 0
M  V30 1816 C 164.08 -6.28476 -0.721162 0
M  V30 1817 C 162.744 -6.65188 -0.55504 0
M  V30 1818 H 162.014 -0.599076 -0.436106 0
M  V30 1819 H 164.661 -1.85296 -0.48351 0
M  V30 1820 H 162.966 -2.51369 -3.00535 0
M  V30 1821 H 164.663 -2.8557 -2.81515 0
M  V30 1822 H 161.253 -3.88277 -1.8149 0
M  V30 1823 H 165.437 -4.76524 -1.38704 0
M  V30 1824 H 160.693 -6.05899 -0.81833 0
M  V30 1825 H 164.867 -6.95259 -0.398458 0
M  V30 1826 H 162.494 -7.60123 -0.108311 0
M  V30 1827 N 164.069 0.697108 -1.41344 0
M  V30 1828 C 164.979 1.84088 -1.45427 0
M  V30 1829 C 165.995 1.70545 -0.34501 0
M  V30 1830 O 167.171 1.92488 -0.592492 0
M  V30 1831 C 164.236 3.20056 -1.33286 0
M  V30 1832 C 163.297 3.45718 -2.54514 0
M  V30 1833 C 162.53 4.75199 -2.42944 0
M  V30 1834 O 162.753 5.51579 -1.45318 0
M  V30 1835 O 161.687 5.0161 -3.32672 0
M  V30 1836 H 165.513 1.836 -2.41919 0
M  V30 1837 H 163.098 0.849966 -1.22866 0
M  V30 1838 H 164.98 4.01236 -1.28794 0
M  V30 1839 H 163.655 3.2123 -0.39909 0
M  V30 1840 H 162.562 2.64474 -2.64583 0
M  V30 1841 H 163.895 3.49356 -3.46715 0
M  V30 1842 N 165.547 1.27147 0.931209 0
M  V30 1843 C 166.48 1.0389 2.0318 0
M  V30 1844 C 167.458 -0.0395716 1.62552 0
M  V30 1845 O 168.642 0.104867 1.88208 0
M  V30 1846 C 165.769 0.575227 3.3378 0
M  V30 1847 C 164.815 1.64774 3.93385 0
M  V30 1848 S 165.648 3.23933 4.26413 0
M  V30 1849 C 166.804 2.79358 5.60098 0
M  V30 1850 H 167.037 1.97075 2.22596 0
M  V30 1851 H 164.57 1.10938 1.07387 0
M  V30 1852 H 166.528 0.314385 4.09294 0
M  V30 1853 H 165.189 -0.336505 3.12292 0
M  V30 1854 H 164.382 1.27454 4.87618 0
M  V30 1855 H 163.984 1.86048 3.24441 0
M  V30 1856 H 166.276 2.24443 6.39243 0
M  V30 1857 H 167.219 3.72322 6.02314 0
M  V30 1858 H 167.627 2.1861 5.20452 0
M  V30 1859 N 167.025 -1.13721 1.09112 0
M  V30 1860 C 167.957 -2.1871 0.685467 0
M  V30 1861 C 168.97 -1.60527 -0.271068 0
M  V30 1862 O 170.159 -1.78407 -0.0576148 0
M  V30 1863 C 167.259 -3.38898 -0.0111255 0
M  V30 1864 C 166.432 -4.26597 0.966131 0
M  V30 1865 C 165.491 -5.25324 0.303539 0
M  V30 1866 O 164.517 -5.61213 0.950177 0
M  V30 1867 N 165.719 -5.72779 -0.943651 0
M  V30 1868 H 168.484 -2.54126 1.58871 0
M  V30 1869 H 166.045 -1.29012 0.978143 0
M  V30 1870 H 168.037 -4.02014 -0.465517 0
M  V30 1871 H 166.607 -3.01747 -0.816565 0
M  V30 1872 H 165.827 -3.60306 1.59917 0
M  V30 1873 H 167.115 -4.82048 1.6281 0
M  V30 1874 H 166.513 -5.45762 -1.48862 0
M  V30 1875 H 165.07 -6.37847 -1.34142 0
M  V30 1876 N 168.503 -0.877838 -1.30888 0
M  V30 1877 C 169.45 -0.337538 -2.28318 0
M  V30 1878 C 170.42 0.568346 -1.56074 0
M  V30 1879 O 171.605 0.498298 -1.84178 0
M  V30 1880 C 168.745 0.448142 -3.42178 0
M  V30 1881 C 167.858 -0.48615 -4.29256 0
M  V30 1882 C 166.993 0.314427 -5.30269 0
M  V30 1883 C 166.032 -0.615791 -6.08995 0
M  V30 1884 N 165.169 0.14902 -7.01942 0
M  V30 1885 H 170.009 -1.17356 -2.73919 0
M  V30 1886 H 167.546 -0.590094 -1.34745 0
M  V30 1887 H 169.504 0.919517 -4.06941 0
M  V30 1888 H 168.134 1.24879 -2.97666 0
M  V30 1889 H 167.186 -1.076 -3.64865 0
M  V30 1890 H 168.498 -1.19909 -4.84173 0
M  V30 1891 H 167.652 0.847969 -6.00745 0
M  V30 1892 H 166.391 1.06062 -4.76027 0
M  V30 1893 H 165.396 -1.16102 -5.37401 0
M  V30 1894 H 166.621 -1.36097 -6.65323 0
M  V30 1895 H 164.567 0.877884 -6.50099 0
M  V30 1896 H 164.484 -0.504433 -7.54315 0
M  V30 1897 H 165.752 0.663537 -7.76671 0
M  V30 1898 N 169.982 1.44106 -0.638065 0
M  V30 1899 C 171.23 2.01579 -0.145043 0
M  V30 1900 C 171.551 1.50496 1.24 0
M  V30 1901 O 170.821 0.711374 1.82527 0
M  V30 1902 H 169.401 0.745282 -0.05063 0
M  V30 1903 H 172.063 1.76516 -0.826327 0
M  V30 1904 H 171.159 3.11877 -0.118039 0
M  V30 1905 N 171.46 0.379036 1.52974 0
M  V30 1906 C 172.737 -0.263479 1.93817 0
M  V30 1907 C 173.117 -1.65244 1.31368 0
M  V30 1908 O 172.465 -2.23448 0.477856 0
M  V30 1909 C 172.675 -0.300166 3.47707 0
M  V30 1910 C 174.023 -0.534061 4.21228 0
M  V30 1911 O 175.047 -0.38081 3.54159 0
M  V30 1912 O 173.906 -0.833501 5.40106 0
M  V30 1913 H 171 -0.161149 0.811147 0
M  V30 1914 H 173.546 0.432798 1.64088 0
M  V30 1915 H 172.318 0.673138 3.85467 0
M  V30 1916 H 171.941 -1.04179 3.83709 0
M  V30 1917 N 172.938 -1.57226 0.108567 0
M  V30 1918 C 173.87 -2.11809 -0.875752 0
M  V30 1919 C 174.883 -1.05839 -1.23701 0
M  V30 1920 O 176.072 -1.33245 -1.18778 0
M  V30 1921 C 173.172 -2.59411 -2.18081 0
M  V30 1922 C 172.345 -3.89364 -1.99284 0
M  V30 1923 C 171.404 -4.22672 -3.13424 0
M  V30 1924 O 170.43 -4.91668 -2.86795 0
M  V30 1925 N 171.632 -3.79154 -4.3957 0
M  V30 1926 H 174.397 -2.9689 -0.409477 0
M  V30 1927 H 171.958 -1.61721 -0.076158 0
M  V30 1928 H 173.95 -2.7873 -2.93414 0
M  V30 1929 H 172.52 -1.79268 -2.5609 0
M  V30 1930 H 171.74 -3.79059 -1.08203 0
M  V30 1931 H 173.028 -4.74358 -1.84017 0
M  V30 1932 H 172.426 -3.23486 -4.64083 0
M  V30 1933 H 170.983 -4.03602 -5.11809 0
M  V30 1934 N 174.416 0.165178 -1.56732 0
M  V30 1935 C 175.364 1.22369 -1.97809 0
M  V30 1936 C 176.358 1.45488 -0.867741 0
M  V30 1937 O 177.564 1.45995 -1.05288 0
M  V30 1938 H 173.939 0.411486 -0.629431 0
M  V30 1939 H 175.91 0.850425 -2.86025 0
M  V30 1940 C 174.659 2.55403 -2.35934 0
M  V30 1941 H 173.982 2.38438 -3.20916 0
M  V30 1942 H 175.422 3.2814 -2.68514 0
M  V30 1943 C 173.881 3.14611 -1.20506 0
M  V30 1944 O 174.411 3.98626 -0.496016 0
M  V30 1945 N 172.617 2.7379 -0.97403 0
M  V30 1946 H 172.164 2.0557 -1.55238 0
M  V30 1947 H 172.122 3.1374 -0.203573 0
M  V30 1948 N 175.894 1.51508 0.433938 0
M  V30 1949 C 177.305 1.56784 1.01369 0
M  V30 1950 C 177.656 0.393349 1.92217 0
M  V30 1951 O 176.781 -0.489441 2.10792 0
M  V30 1952 C 177.376 2.84144 1.8452 0
M  V30 1953 C 175.935 2.9198 2.37539 0
M  V30 1954 C 175.082 2.51482 1.16843 0
M  V30 1955 H 178.033 1.57236 0.215081 0
M  V30 1956 H 178.054 2.68098 2.70007 0
M  V30 1957 H 177.566 3.69607 1.18373 0
M  V30 1958 H 175.667 2.10955 3.0713 0
M  V30 1959 H 175.78 3.95704 2.70103 0
M  V30 1960 H 174.144 2.04758 1.51481 0
M  V30 1961 H 174.927 3.39293 0.523015 0
M  V30 1962 N 177.372 -0.689602 1.41712 0
M  V30 1963 C 178.304 -1.815 1.39966 0
M  V30 1964 C 179.317 -1.59995 0.300917 0
M  V30 1965 O 180.506 -1.69387 0.563039 0
M  V30 1966 C 177.606 -3.18364 1.16179 0
M  V30 1967 C 176.779 -3.66847 2.38206 0
M  V30 1968 C 175.838 -4.82398 2.10186 0
M  V30 1969 O 174.864 -4.93706 2.83272 0
M  V30 1970 N 176.066 -5.70064 1.0958 0
M  V30 1971 H 178.831 -1.83488 2.36965 0
M  V30 1972 H 176.392 -0.872149 1.36401 0
M  V30 1973 H 178.384 -3.93301 0.953756 0
M  V30 1974 H 176.954 -3.11365 0.27756 0
M  V30 1975 H 176.174 -2.82751 2.74673 0
M  V30 1976 H 177.462 -3.95978 3.19498 0
M  V30 1977 H 176.86 -5.63565 0.491019 0
M  V30 1978 H 175.417 -6.44874 0.947656 0
M  V30 1979 N 178.85 -1.27639 -0.924453 0
M  V30 1980 C 180.099 -1.13549 -1.66702 0
M  V30 1981 C 180.412 0.317487 -1.93006 0
M  V30 1982 O 181.618 0.579333 -2.65247 0
M  V30 1983 C 180.074 -1.98426 -3.00259 0
M  V30 1984 C 179.682 -3.484 -2.81641 0
M  V30 1985 C 181.426 -1.92993 -3.78092 0
M  V30 1986 C 179.333 -4.25464 -4.10773 0
M  V30 1987 H 178.263 -0.421351 -0.625283 0
M  V30 1988 H 180.914 -1.52085 -1.02676 0
M  V30 1989 H 179.296 -1.52736 -3.6536 0
M  V30 1990 H 180.47 -4.01973 -2.25287 0
M  V30 1991 H 178.785 -3.55245 -2.17232 0
M  V30 1992 H 181.382 -2.47844 -4.7379 0
M  V30 1993 H 181.725 -0.904281 -4.0636 0
M  V30 1994 H 182.258 -2.36595 -3.19793 0
M  V30 1995 H 178.997 -5.28566 -3.87683 0
M  V30 1996 H 178.517 -3.76667 -4.66779 0
M  V30 1997 H 180.196 -4.34812 -4.79111 0
M  V30 1998 N 180.328 1.1314 -1.09713 0
M  V30 1999 C 181.291 2.16831 -0.742751 0
M  V30 2000 C 182.291 1.59159 0.229129 0
M  V30 2001 O 183.481 1.74199 0.00693237 0
M  V30 2002 C 180.613 3.40756 -0.0989168 0
M  V30 2003 H 181.806 2.49695 -1.66109 0
M  V30 2004 H 179.359 1.2802 -0.896699 0
M  V30 2005 H 180.094 3.13485 0.830514 0
M  V30 2006 H 179.879 3.83888 -0.798265 0
M  V30 2007 H 181.369 4.17386 0.133524 0
M  V30 2008 N 181.806 0.884767 1.30421 0
M  V30 2009 C 182.769 0.356277 2.26414 0
M  V30 2010 C 183.769 -0.501124 1.52792 0
M  V30 2011 O 184.959 -0.30831 1.7145 0
M  V30 2012 C 182.091 -0.492316 3.37326 0
M  V30 2013 H 183.284 1.20389 2.74675 0
M  V30 2014 H 180.837 0.661607 1.41607 0
M  V30 2015 H 181.572 -1.36052 2.94381 0
M  V30 2016 H 181.357 0.121832 3.91911 0
M  V30 2017 H 182.847 -0.853871 4.08777 0
M  V30 2018 N 183.284 -1.43765 0.645699 0
M  V30 2019 C 184.234 -2.27884 -0.0726442 0
M  V30 2020 C 185.218 -1.39483 -0.802086 0
M  V30 2021 O 186.41 -1.63174 -0.685791 0
M  V30 2022 C 183.539 -3.27055 -1.04356 0
M  V30 2023 C 182.625 -4.22944 -0.312985 0
M  V30 2024 N 183.016 -5.01391 0.666386 0
M  V30 2025 C 181.314 -4.42528 -0.55546 0
M  V30 2026 C 182.015 -5.71217 1.09935 0
M  V30 2027 N 180.991 -5.41856 0.435137 0
M  V30 2028 H 184.793 -2.85949 0.678988 0
M  V30 2029 H 182.307 -1.55378 0.472368 0
M  V30 2030 H 184.304 -3.86089 -1.57292 0
M  V30 2031 H 182.964 -2.70551 -1.79534 0
M  V30 2032 H 183.975 -5.07252 1.04481 0
M  V30 2033 H 180.652 -3.97104 -1.28899 0
M  V30 2034 H 182.042 -6.44202 1.90929 0
M  V30 2035 N 184.763 -0.387143 -1.52771 0
M  V30 2036 C 186.009 0.196025 -2.0185 0
M  V30 2037 C 186.342 1.46641 -1.27319 0
M  V30 2038 O 185.617 1.90889 -0.373032 0
M  V30 2039 C 185.9 0.466136 -3.5707 0
M  V30 2040 C 185.753 -0.819385 -4.42274 0
M  V30 2041 C 187.072 1.25768 -4.21747 0
M  V30 2042 H 184.191 0.0697708 -0.73369 0
M  V30 2043 H 186.833 -0.516286 -1.82851 0
M  V30 2044 H 184.983 1.07293 -3.7339 0
M  V30 2045 H 186.655 -1.4563 -4.37709 0
M  V30 2046 H 184.898 -1.43517 -4.09372 0
M  V30 2047 H 185.569 -0.585065 -5.48891 0
M  V30 2048 H 188.045 0.744167 -4.09391 0
M  V30 2049 H 186.921 1.41541 -5.30337 0
M  V30 2050 H 187.182 2.27228 -3.79236 0
M  V30 2051 N 186.241 1.57166 -0.116904 0
M  V30 2052 C 187.49 1.94298 0.541407 0
M  V30 2053 C 187.803 1.00236 1.67964 0
M  V30 2054 O 189.009 1.26826 2.40057 0
M  V30 2055 C 187.465 3.45306 1.01449 0
M  V30 2056 C 187.073 4.47899 -0.0951738 0
M  V30 2057 C 188.817 3.91361 1.6443 0
M  V30 2058 C 186.724 5.90083 0.394491 0
M  V30 2059 H 185.654 0.725308 0.206019 0
M  V30 2060 H 188.305 1.82446 -0.196419 0
M  V30 2061 H 186.687 3.52385 1.80667 0
M  V30 2062 H 187.861 4.52486 -0.871374 0
M  V30 2063 H 186.176 4.11583 -0.631505 0
M  V30 2064 H 188.773 4.95004 2.02176 0
M  V30 2065 H 189.116 3.3122 2.52189 0
M  V30 2066 H 189.649 3.87073 0.917559 0
M  V30 2067 H 186.388 6.53974 -0.447004 0
M  V30 2068 H 185.908 5.88921 1.13722 0
M  V30 2069 H 187.587 6.41307 0.856399 0
M  V30 2070 N 187.719 -0.156864 1.56817 0
M  V30 2071 C 188.944 -0.890331 1.87318 0
M  V30 2072 C 189.369 -1.74394 0.704855 0
M  V30 2073 O 188.727 -1.77972 -0.345786 0
M  V30 2074 C 188.775 -1.73102 3.16336 0
M  V30 2075 O 187.879 -2.83422 2.99576 0
M  V30 2076 H 187.22 -0.24857 0.615718 0
M  V30 2077 H 189.75 -0.150649 2.04045 0
M  V30 2078 H 189.76 -2.12803 3.48107 0
M  V30 2079 H 188.435 -1.10412 4.00976 0
M  V30 2080 H 187.012 -2.47199 2.7919 0
M  V30 2081 N 189.197 -1.51736 -0.425897 0
M  V30 2082 C 190.107 -1.76738 -1.54275 0
M  V30 2083 C 191.123 -0.65211 -1.61318 0
M  V30 2084 O 192.299 -0.935654 -1.78346 0
M  V30 2085 C 189.364 -1.89755 -2.90162 0
M  V30 2086 C 188.425 -3.13633 -2.93143 0
M  V30 2087 C 187.658 -3.2602 -4.22548 0
M  V30 2088 O 187.881 -2.44067 -5.15546 0
M  V30 2089 O 186.815 -4.19071 -4.32046 0
M  V30 2090 H 190.641 -2.71502 -1.36089 0
M  V30 2091 H 188.226 -1.36376 -0.610069 0
M  V30 2092 H 190.108 -2.00236 -3.70788 0
M  V30 2093 H 188.783 -0.981785 -3.08452 0
M  V30 2094 H 187.69 -3.08622 -2.11431 0
M  V30 2095 H 189.023 -4.04936 -2.798 0
M  V30 2096 N 190.675 0.682077 -1.42076 0
M  V30 2097 C 191.638 1.77756 -1.44691 0
M  V30 2098 C 192.638 1.5726 -0.335535 0
M  V30 2099 O 193.828 1.63686 -0.596037 0
M  V30 2100 C 190.96 3.16301 -1.27146 0
M  V30 2101 H 192.153 1.76826 -2.42224 0
M  V30 2102 H 189.706 0.891012 -1.28416 0
M  V30 2103 H 190.441 3.22862 -0.305075 0
M  V30 2104 H 190.226 3.32581 -2.07683 0
M  V30 2105 H 191.716 3.96241 -1.31843 0
M  V30 2106 N 192.153 1.28127 0.917671 0
M  V30 2107 C 193.378 1.18007 1.70555 0
M  V30 2108 C 193.803 -0.258257 1.86319 0
M  V30 2109 O 193.161 -1.1869 1.37049 0
M  V30 2110 C 193.209 1.87948 3.07746 0
M  V30 2111 O 192.313 1.18427 3.9503 0
M  V30 2112 H 191.654 0.409867 0.522403 0
M  V30 2113 H 194.184 1.69379 1.1477 0
M  V30 2114 H 194.194 1.95701 3.58001 0
M  V30 2115 H 192.869 2.92573 2.95591 0
M  V30 2116 H 191.446 1.18811 3.53466 0
M  V30 2117 N 193.631 -1.12557 1.10312 0
M  V30 2118 C 194.856 -1.88405 0.867085 0
M  V30 2119 C 195.281 -1.79038 -0.576817 0
M  V30 2120 O 194.639 -1.14439 -1.40618 0
M  V30 2121 C 194.687 -3.3563 1.31851 0
M  V30 2122 O 193.791 -4.09565 0.482734 0
M  V30 2123 H 193.132 -0.585455 0.313271 0
M  V30 2124 H 195.662 -1.42352 1.4696 0
M  V30 2125 H 195.672 -3.86469 1.3079 0
M  V30 2126 H 194.347 -3.41765 2.37001 0
M  V30 2127 H 192.924 -3.68695 0.558448 0
M  V30 2128 N 195.109 -0.891671 -1.2995 0
M  V30 2129 C 196.056 -0.361736 -2.27948 0
M  V30 2130 C 197.026 0.551761 -1.56668 0
M  V30 2131 O 198.211 0.478736 -1.84696 0
M  V30 2132 C 195.351 0.411825 -3.42634 0
M  V30 2133 C 194.464 -0.531651 -4.28716 0
M  V30 2134 C 193.599 0.258167 -5.30572 0
M  V30 2135 C 192.638 -0.680349 -6.08307 0
M  V30 2136 N 191.775 0.0745613 -7.0206 0
M  V30 2137 H 196.615 -1.20254 -2.72659 0
M  V30 2138 H 194.152 -0.604352 -1.34112 0
M  V30 2139 H 196.11 0.876304 -4.07893 0
M  V30 2140 H 194.74 1.21715 -2.98974 0
M  V30 2141 H 193.792 -1.11463 -3.63703 0
M  V30 2142 H 195.104 -1.25038 -4.82874 0
M  V30 2143 H 194.258 0.784204 -6.0161 0
M  V30 2144 H 192.997 1.01008 -4.77126 0
M  V30 2145 H 192.002 -1.21796 -5.3614 0
M  V30 2146 H 193.227 -1.43145 -6.63842 0
M  V30 2147 H 191.173 0.808883 -6.50994 0
M  V30 2148 H 191.09 -0.584409 -7.53738 0
M  V30 2149 H 192.358 0.581123 -7.77331 0
M  V30 2150 N 196.587 1.43421 -0.653314 0
M  V30 2151 C 197.815 2.06163 -0.174491 0
M  V30 2152 C 198.23 1.48969 1.1599 0
M  V30 2153 O 197.587 0.621042 1.71608 0
M  V30 2154 C 197.638 3.61417 -0.0774865 0
M  V30 2155 O 197.359 4.16485 -1.35912 0
M  V30 2156 C 198.86 4.41235 0.427402 0
M  V30 2157 H 196.08 0.664946 -0.0899353 0
M  V30 2158 H 198.624 1.83924 -0.893988 0
M  V30 2159 H 196.779 3.82841 0.59257 0
M  V30 2160 H 197.193 5.10153 -1.21839 0
M  V30 2161 H 198.667 5.5021 0.44423 0
M  V30 2162 H 199.144 4.14268 1.45873 0
M  V30 2163 H 199.75 4.2478 -0.210167 0
M  V30 2164 N 198.065 0.39524 1.52563 0
M  V30 2165 C 199.293 -0.184943 2.06072 0
M  V30 2166 C 199.708 -1.40021 1.26647 0
M  V30 2167 O 199.065 -1.79767 0.314672 0
M  V30 2168 C 199.116 -0.549179 3.57304 0
M  V30 2169 O 198.837 0.617813 4.33722 0
M  V30 2170 C 200.338 -1.18459 4.2718 0
M  V30 2171 H 197.558 -0.0265025 0.670476 0
M  V30 2172 H 200.102 0.562184 1.96621 0
M  V30 2173 H 198.257 -1.2462 3.66809 0
M  V30 2174 H 198.671 0.317091 5.23541 0
M  V30 2175 H 200.145 -1.38976 5.34219 0
M  V30 2176 H 200.622 -2.15368 3.82771 0
M  V30 2177 H 201.228 -0.528163 4.22008 0
M  V30 2178 N 199.544 -1.57102 0.125237 0
M  V30 2179 C 200.769 -2.0019 -0.542101 0
M  V30 2180 C 201.194 -1.00449 -1.59034 0
M  V30 2181 O 200.552 0.0229423 -1.81285 0
M  V30 2182 C 200.6 -3.42129 -1.13929 0
M  V30 2183 O 199.704 -3.45307 -2.2547 0
M  V30 2184 H 199.045 -0.650171 -0.134812 0
M  V30 2185 H 201.575 -2.03461 0.215553 0
M  V30 2186 H 201.585 -3.80471 -1.4733 0
M  V30 2187 H 200.26 -4.14237 -0.371531 0
M  V30 2188 H 198.837 -3.1879 -1.93462 0
M  V30 2189 N 201.022 0.148545 -1.56898 0
M  V30 2190 C 202.268 0.862694 -1.83536 0
M  V30 2191 C 202.601 1.80889 -0.706604 0
M  V30 2192 O 201.876 1.92328 0.289885 0
M  V30 2193 C 202.159 1.63853 -3.20662 0
M  V30 2194 C 202.012 0.713925 -4.44098 0
M  V30 2195 C 203.331 2.60133 -3.54991 0
M  V30 2196 H 200.45 0.312179 -0.667618 0
M  V30 2197 H 203.092 0.127953 -1.89569 0
M  V30 2198 H 201.242 2.26489 -3.1565 0
M  V30 2199 H 202.914 0.098686 -4.61194 0
M  V30 2200 H 201.157 0.0234019 -4.33794 0
M  V30 2201 H 201.828 1.29278 -5.36648 0
M  V30 2202 H 204.304 2.07616 -3.60603 0
M  V30 2203 H 203.18 3.11468 -4.51972 0
M  V30 2204 H 203.441 3.41417 -2.80868 0
M  V30 2205 N 202.5 1.5196 0.417844 0
M  V30 2206 C 203.43 1.77634 1.51554 0
M  V30 2207 C 204.411 0.626918 1.58126 0
M  V30 2208 O 205.596 0.871632 1.7354 0
M  V30 2209 C 202.726 1.91911 2.8946 0
M  V30 2210 C 201.68 3.07463 2.97743 0
M  V30 2211 C 201.006 3.06951 4.37819 0
M  V30 2212 C 202.306 4.47082 2.70027 0
M  V30 2213 H 204 2.6955 1.3032 0
M  V30 2214 H 201.546 1.29706 0.625492 0
M  V30 2215 H 203.499 2.08455 3.6623 0
M  V30 2216 H 202.223 0.966598 3.11969 0
M  V30 2217 H 200.882 2.90656 2.23416 0
M  V30 2218 H 200.53 2.09438 4.57323 0
M  V30 2219 H 200.23 3.84556 4.44286 0
M  V30 2220 H 201.754 3.25613 5.16535 0
M  V30 2221 H 203.168 4.6414 3.36522 0
M  V30 2222 H 201.565 5.2654 2.87881 0
M  V30 2223 H 202.635 4.55777 1.65514 0
M  V30 2224 N 203.978 -0.674533 1.42435 0
M  V30 2225 C 204.91 -1.80005 1.41883 0
M  V30 2226 C 205.923 -1.59667 0.31787 0
M  V30 2227 O 207.112 -1.68781 0.580973 0
M  V30 2228 C 204.212 -3.17114 1.19549 0
M  V30 2229 C 203.385 -3.64299 2.42084 0
M  V30 2230 C 202.444 -4.80142 2.15291 0
M  V30 2231 O 201.47 -4.90673 2.88493 0
M  V30 2232 N 202.672 -5.68869 1.1562 0
M  V30 2233 H 205.437 -1.80964 2.38898 0
M  V30 2234 H 202.998 -0.857633 1.37318 0
M  V30 2235 H 204.99 -3.92267 0.995417 0
M  V30 2236 H 203.56 -3.11053 0.310569 0
M  V30 2237 H 202.78 -2.79822 2.77657 0
M  V30 2238 H 204.068 -3.92567 3.23679 0
M  V30 2239 H 203.466 -5.63012 0.550765 0
M  V30 2240 H 202.023 -6.43833 1.016 0
M  V30 2241 N 205.456 -1.28612 -0.910864 0
M  V30 2242 C 206.702 -1.17116 -1.66299 0
M  V30 2243 C 207.057 0.276917 -1.90397 0
M  V30 2244 O 206.35 1.19795 -1.49532 0
M  V30 2245 C 206.544 -1.90624 -3.0232 0
M  V30 2246 C 206.373 -3.42431 -2.91498 0
M  V30 2247 C 205.143 -4.11773 -2.92867 0
M  V30 2248 C 207.341 -4.38124 -2.69355 0
M  V30 2249 N 205.323 -5.50025 -2.72664 0
M  V30 2250 C 206.694 -5.63759 -2.58023 0
M  V30 2251 C 208.749 -4.28016 -2.54375 0
M  V30 2252 C 207.452 -6.80436 -2.33238 0
M  V30 2253 C 209.478 -5.44433 -2.30969 0
M  V30 2254 C 208.84 -6.69034 -2.20394 0
M  V30 2255 H 204.939 -0.483506 -0.61461 0
M  V30 2256 H 207.523 -1.62299 -1.0755 0
M  V30 2257 H 205.694 -1.4787 -3.5915 0
M  V30 2258 H 207.426 -1.71488 -3.66571 0
M  V30 2259 H 204.181 -3.63378 -3.03732 0
M  V30 2260 H 204.605 -6.22705 -2.65646 0
M  V30 2261 H 209.247 -3.32388 -2.613 0
M  V30 2262 H 206.965 -7.7613 -2.25051 0
M  V30 2263 H 210.551 -5.38504 -2.20238 0
M  V30 2264 H 209.431 -7.57595 -2.02531 0
M  V30 2265 N 206.934 1.1197 -1.10907 0
M  V30 2266 C 207.897 2.16031 -0.765707 0
M  V30 2267 C 208.897 1.59393 0.212235 0
M  V30 2268 O 210.087 1.74196 -0.0115441 0
M  V30 2269 C 207.219 3.40632 -0.135053 0
M  V30 2270 H 208.412 2.47919 -1.68748 0
M  V30 2271 H 205.965 1.27061 -0.910226 0
M  V30 2272 H 206.7 3.14348 0.797218 0
M  V30 2273 H 206.485 3.8302 -0.838937 0
M  V30 2274 H 207.975 4.17505 0.0892469 0
M  V30 2275 N 208.412 0.89855 1.29475 0
M  V30 2276 C 209.322 0.379974 2.31502 0
M  V30 2277 C 210.338 -0.524695 1.659 0
M  V30 2278 O 211.514 -0.414551 1.97087 0
M  V30 2279 C 208.579 -0.385138 3.44554 0
M  V30 2280 C 207.64 0.550914 4.2575 0
M  V30 2281 C 206.873 -0.177778 5.33404 0
M  V30 2282 O 207.096 -1.40189 5.52904 0
M  V30 2283 O 206.03 0.479106 5.9999 0
M  V30 2284 H 209.856 1.22639 2.77837 0
M  V30 2285 H 207.441 0.662834 1.33891 0
M  V30 2286 H 209.323 -0.817841 4.13388 0
M  V30 2287 H 207.998 -1.20763 3.0033 0
M  V30 2288 H 206.905 1.03271 3.59564 0
M  V30 2289 H 208.238 1.33979 4.73614 0
M  V30 2290 N 209.89 -1.43072 0.660911 0
M  V30 2291 C 210.837 -2.30785 -0.0259884 0
M  V30 2292 C 211.807 -1.45184 -0.806888 0
M  V30 2293 O 212.992 -1.74041 -0.781943 0
M  V30 2294 C 210.132 -3.30861 -0.981067 0
M  V30 2295 C 209.245 -4.31558 -0.195458 0
M  V30 2296 C 208.38 -5.18712 -1.14503 0
M  V30 2297 C 207.419 -6.11097 -0.350299 0
M  V30 2298 N 206.556 -6.90849 -1.25186 0
M  V30 2299 H 211.396 -2.88975 0.727846 0
M  V30 2300 H 208.933 -1.42353 0.370682 0
M  V30 2301 H 210.891 -3.87399 -1.54849 0
M  V30 2302 H 209.521 -2.74304 -1.70169 0
M  V30 2303 H 208.573 -3.77252 0.488374 0
M  V30 2304 H 209.885 -4.9701 0.422176 0
M  V30 2305 H 209.039 -5.79914 -1.78284 0
M  V30 2306 H 207.778 -4.53404 -1.79656 0
M  V30 2307 H 206.783 -5.48976 0.300808 0
M  V30 2308 H 208.008 -6.7845 0.296941 0
M  V30 2309 H 205.954 -6.28182 -1.89005 0
M  V30 2310 H 205.871 -7.52854 -0.688971 0
M  V30 2311 H 207.139 -7.5655 -1.87757 0
M  V30 2312 N 211.368 -0.403325 -1.52352 0
M  V30 2313 C 212.616 0.174003 -2.0135 0
M  V30 2314 C 212.937 1.46139 -1.29106 0
M  V30 2315 O 212.207 1.91448 -0.415253 0
M  V30 2316 H 210.787 0.0672911 -0.743963 0
M  V30 2317 H 213.449 -0.538235 -1.87321 0
M  V30 2318 H 212.545 0.374254 -3.09848 0
M  V30 2319 N 212.846 1.57033 -0.133567 0
M  V30 2320 C 214.076 1.99754 0.527429 0
M  V30 2321 C 214.484 1.01245 1.59832 0
M  V30 2322 O 213.827 -0.000645496 1.837 0
M  V30 2323 C 213.889 3.38903 1.19939 0
M  V30 2324 C 213.553 4.56174 0.274709 0
M  V30 2325 C 214.55 5.17563 -0.492398 0
M  V30 2326 C 212.235 5.01972 0.18153 0
M  V30 2327 C 214.229 6.2315 -1.34027 0
M  V30 2328 C 211.916 6.07416 -0.669958 0
M  V30 2329 C 212.914 6.67874 -1.42947 0
M  V30 2330 O 212.602 7.71279 -2.2668 0
M  V30 2331 H 212.334 0.660702 0.142999 0
M  V30 2332 H 214.888 2.04207 -0.221099 0
M  V30 2333 H 213.118 3.31248 1.99528 0
M  V30 2334 H 214.807 3.65818 1.75875 0
M  V30 2335 H 215.573 4.83087 -0.430367 0
M  V30 2336 H 211.452 4.54652 0.762422 0
M  V30 2337 H 214.996 6.70268 -1.93357 0
M  V30 2338 H 210.893 6.41321 -0.73333 0
M  V30 2339 H 211.661 7.88441 -2.1978 0
M  V30 2340 N 214.325 -0.140222 1.56975 0
M  V30 2341 C 215.555 -0.865181 1.87612 0
M  V30 2342 C 215.963 -1.74942 0.72055 0
M  V30 2343 O 215.306 -1.80917 -0.318561 0
M  V30 2344 C 215.368 -1.76782 3.13031 0
M  V30 2345 C 215.032 -1.06005 4.44536 0
M  V30 2346 C 216.029 -0.410768 5.18275 0
M  V30 2347 C 213.714 -1.04754 4.91255 0
M  V30 2348 C 215.708 0.241572 6.36942 0
M  V30 2349 C 213.395 -0.391394 6.09845 0
M  V30 2350 C 214.393 0.252029 6.82535 0
M  V30 2351 O 214.081 0.897757 7.98871 0
M  V30 2352 H 213.813 -0.255188 0.625983 0
M  V30 2353 H 216.367 -0.135653 2.04952 0
M  V30 2354 H 214.597 -2.53846 2.91718 0
M  V30 2355 H 216.286 -2.36533 3.29859 0
M  V30 2356 H 217.052 -0.412195 4.83245 0
M  V30 2357 H 212.931 -1.53777 4.34596 0
M  V30 2358 H 216.475 0.744375 6.93617 0
M  V30 2359 H 212.372 -0.387656 6.44335 0
M  V30 2360 H 213.14 0.800102 8.1458 0
M  V30 2361 N 215.803 -1.52179 -0.40978 0
M  V30 2362 C 217.031 -1.70054 -1.17853 0
M  V30 2363 C 217.446 -0.409735 -1.843 0
M  V30 2364 O 216.803 0.614183 -1.71855 0
M  V30 2365 C 216.854 -2.83568 -2.24213 0
M  V30 2366 O 216.575 -4.0765 -1.60478 0
M  V30 2367 C 218.076 -3.12947 -3.13973 0
M  V30 2368 H 215.296 -0.569917 -0.354169 0
M  V30 2369 H 217.84 -1.98734 -0.482198 0
M  V30 2370 H 215.995 -2.57409 -2.89516 0
M  V30 2371 H 216.409 -4.70899 -2.30986 0
M  V30 2372 H 217.883 -3.95889 -3.84677 0
M  V30 2373 H 218.36 -2.26472 -3.76307 0
M  V30 2374 H 218.966 -3.40868 -2.5434 0
M  V30 2375 N 217.281 0.66697 -1.42791 0
M  V30 2376 C 218.214 1.79177 -1.41318 0
M  V30 2377 C 219.192 1.60234 -0.276401 0
M  V30 2378 O 220.376 1.82602 -0.46785 0
M  V30 2379 C 217.503 3.16289 -1.21157 0
M  V30 2380 C 216.549 3.53964 -2.37932 0
M  V30 2381 S 217.382 3.55501 -4.00474 0
M  V30 2382 C 218.538 4.95292 -3.8267 0
M  V30 2383 H 218.771 1.80153 -2.365 0
M  V30 2384 H 216.304 0.838357 -1.29657 0
M  V30 2385 H 218.262 3.95428 -1.10212 0
M  V30 2386 H 216.923 3.1289 -0.275481 0
M  V30 2387 H 216.116 4.53646 -2.19594 0
M  V30 2388 H 215.718 2.82204 -2.45432 0
M  V30 2389 H 218.01 5.83584 -3.44145 0
M  V30 2390 H 218.953 5.18679 -4.82055 0
M  V30 2391 H 219.361 4.68179 -3.15386 0
M  V30 2392 N 218.759 1.29093 0.90403 0
M  V30 2393 C 219.984 1.19809 1.69294 0
M  V30 2394 C 220.409 -0.238481 1.86582 0
M  V30 2395 O 219.767 -1.1723 1.383 0
M  V30 2396 C 219.815 1.91202 3.05736 0
M  V30 2397 O 218.919 1.22611 3.93752 0
M  V30 2398 H 218.26 0.415385 0.518027 0
M  V30 2399 H 220.79 1.70586 1.12967 0
M  V30 2400 H 220.8 1.99487 3.55906 0
M  V30 2401 H 219.475 2.95692 2.92471 0
M  V30 2402 H 218.052 1.22554 3.52186 0
M  V30 2403 N 220.237 -1.11381 1.11499 0
M  V30 2404 C 221.185 -2.19522 0.768956 0
M  V30 2405 C 222.179 -1.67693 -0.239857 0
M  V30 2406 O 223.385 -1.79727 -0.0990755 0
M  V30 2407 H 219.76 -0.715711 0.230786 0
M  V30 2408 H 221.731 -2.45954 1.68964 0
M  V30 2409 C 220.48 -3.46945 0.229073 0
M  V30 2410 H 219.803 -3.8718 0.996596 0
M  V30 2411 H 221.243 -4.23993 0.0251441 0
M  V30 2412 C 219.702 -3.2042 -1.04079 0
M  V30 2413 O 220.232 -3.41178 -2.12038 0
M  V30 2414 N 218.438 -2.74151 -0.963823 0
M  V30 2415 H 217.985 -2.57459 -0.0851722 0
M  V30 2416 H 217.943 -2.56781 -1.81414 0
M  V30 2417 N 221.715 -0.905404 -1.28997 0
M  V30 2418 C 222.663 -0.377431 -2.29517 0
M  V30 2419 C 223.657 0.526461 -1.61012 0
M  V30 2420 O 224.863 0.40863 -1.753 0
M  V30 2421 H 221.238 -0.103437 -0.744852 0
M  V30 2422 H 223.209 -1.23848 -2.71485 0
M  V30 2423 C 221.958 0.374833 -3.45674 0
M  V30 2424 H 221.281 -0.311474 -3.98585 0
M  V30 2425 H 222.721 0.70903 -4.1803 0
M  V30 2426 C 221.18 1.57963 -2.97572 0
M  V30 2427 O 221.71 2.67886 -2.99333 0
M  V30 2428 N 219.916 1.42375 -2.53333 0
M  V30 2429 H 219.463 0.529466 -2.521 0
M  V30 2430 H 219.421 2.23117 -2.21509 0
M  V30 2431 N 223.193 1.4272 -0.668489 0
M  V30 2432 C 224.123 2.335 -0.000100175 0
M  V30 2433 C 225.104 1.50328 0.795964 0
M  V30 2434 O 226.289 1.78949 0.754385 0
M  V30 2435 C 223.419 3.33874 0.956302 0
M  V30 2436 C 222.373 4.27152 0.269278 0
M  V30 2437 C 221.699 5.17684 1.33818 0
M  V30 2438 C 222.999 5.15373 -0.847805 0
M  V30 2439 H 224.693 2.89639 -0.758244 0
M  V30 2440 H 222.239 1.39269 -0.366079 0
M  V30 2441 H 224.192 3.9629 1.43292 0
M  V30 2442 H 222.916 2.76025 1.74579 0
M  V30 2443 H 221.575 3.66123 -0.187042 0
M  V30 2444 H 221.223 4.56165 2.1195 0
M  V30 2445 H 220.923 5.80918 0.883659 0
M  V30 2446 H 222.447 5.82974 1.81586 0
M  V30 2447 H 223.861 5.7151 -0.452681 0
M  V30 2448 H 222.258 5.87407 -1.22773 0
M  V30 2449 H 223.328 4.5415 -1.69929 0
M  V30 2450 N 224.671 0.411399 1.52136 0
M  V30 2451 C 225.917 -0.163888 2.02137 0
M  V30 2452 C 226.25 -1.44597 1.29636 0
M  V30 2453 O 225.525 -1.90272 0.403353 0
M  V30 2454 C 225.808 -0.40927 3.57767 0
M  V30 2455 C 225.661 0.889643 4.40914 0
M  V30 2456 C 226.98 -1.19042 4.23694 0
M  V30 2457 H 224.099 -0.0580896 0.734707 0
M  V30 2458 H 226.741 0.54531 1.82007 0
M  V30 2459 H 224.891 -1.0134 3.7505 0
M  V30 2460 H 226.563 1.52575 4.35337 0
M  V30 2461 H 224.806 1.50011 4.07037 0
M  V30 2462 H 225.477 0.672314 5.4789 0
M  V30 2463 H 227.953 -0.678942 4.10524 0
M  V30 2464 H 226.829 -1.33086 5.32522 0
M  V30 2465 H 227.09 -2.21166 3.82803 0
M  V30 2466 N 226.149 -1.5696 0.141893 0
M  V30 2467 C 227.377 -2.00322 -0.517579 0
M  V30 2468 C 227.792 -1.02193 -1.58752 0
M  V30 2469 O 227.149 -0.0181619 -1.82491 0
M  V30 2470 C 227.2 -3.43618 -1.12289 0
M  V30 2471 O 226.921 -4.37995 -0.0956929 0
M  V30 2472 C 228.422 -4.02231 -1.86347 0
M  V30 2473 H 225.642 -0.657243 -0.135177 0
M  V30 2474 H 228.186 -2.03146 0.234973 0
M  V30 2475 H 226.341 -3.41662 -1.82609 0
M  V30 2476 H 226.755 -5.21729 -0.538469 0
M  V30 2477 H 228.229 -5.04509 -2.23997 0
M  V30 2478 H 228.706 -3.42655 -2.74744 0
M  V30 2479 H 229.312 -4.07802 -1.20737 0
M  V30 2480 N 227.627 0.131896 -1.57047 0
M  V30 2481 C 228.557 1.16384 -2.02428 0
M  V30 2482 C 229.538 1.43936 -0.90644 0
M  V30 2483 O 230.723 1.54599 -1.17528 0
M  V30 2484 C 227.853 2.49328 -2.4177 0
M  V30 2485 C 226.807 2.36266 -3.56879 0
M  V30 2486 C 226.133 3.74057 -3.8208 0
M  V30 2487 C 227.433 1.834 -4.89042 0
M  V30 2488 H 229.127 0.786433 -2.88887 0
M  V30 2489 H 226.673 0.376855 -1.38981 0
M  V30 2490 H 228.626 3.21759 -2.7212 0
M  V30 2491 H 227.35 2.88934 -1.52266 0
M  V30 2492 H 226.009 1.66286 -3.26718 0
M  V30 2493 H 225.657 4.11125 -2.89803 0
M  V30 2494 H 225.357 3.66174 -4.59554 0
M  V30 2495 H 226.881 4.48012 -4.1487 0
M  V30 2496 H 228.295 2.45636 -5.18011 0
M  V30 2497 H 226.692 1.8637 -5.70426 0
M  V30 2498 H 227.762 0.790662 -4.7841 0
M  V30 2499 N 229.106 1.52395 0.401703 0
M  V30 2500 C 230.016 1.7917 1.51444 0
M  V30 2501 C 231.032 0.677691 1.6026 0
M  V30 2502 O 232.208 0.963909 1.76835 0
M  V30 2503 C 229.273 1.94347 2.87107 0
M  V30 2504 C 228.334 3.18257 2.88116 0
M  V30 2505 C 227.567 3.32701 4.17308 0
M  V30 2506 O 227.79 2.52238 5.11598 0
M  V30 2507 O 226.724 4.25891 4.25324 0
M  V30 2508 H 230.55 2.73633 1.31752 0
M  V30 2509 H 228.135 1.3733 0.588296 0
M  V30 2510 H 230.017 2.06109 3.67555 0
M  V30 2511 H 228.692 1.03073 3.06851 0
M  V30 2512 H 227.599 3.11947 2.06494 0
M  V30 2513 H 228.932 4.09336 2.73322 0
M  V30 2514 N 230.584 -0.659388 1.43143 0
M  V30 2515 C 231.532 -1.79374 1.4808 0
M  V30 2516 C 232.526 -1.65639 0.354988 0
M  V30 2517 O 233.732 -1.7206 0.528704 0
M  V30 2518 H 230.107 -0.591705 0.4641 0
M  V30 2519 H 232.078 -1.72329 2.43609 0
M  V30 2520 C 230.827 -3.17606 1.41499 0
M  V30 2521 H 230.15 -3.28809 2.27431 0
M  V30 2522 H 231.59 -3.96951 1.49015 0
M  V30 2523 C 230.049 -3.36642 0.131765 0
M  V30 2524 O 230.579 -3.93461 -0.809386 0
M  V30 2525 N 228.785 -2.90567 0.0439396 0
M  V30 2526 H 228.332 -2.44513 0.810619 0
M  V30 2527 H 228.29 -3.03681 -0.813969 0
M  V30 2528 N 232.062 -1.29571 -0.897171 0
M  V30 2529 C 233.31 -1.17456 -1.64464 0
M  V30 2530 C 233.631 0.273698 -1.9307 0
M  V30 2531 O 232.901 1.18684 -1.55855 0
M  V30 2532 H 231.481 -0.431706 -0.609622 0
M  V30 2533 H 234.143 -1.62531 -1.07562 0
M  V30 2534 H 233.239 -1.72648 -2.59998 0
M  V30 2535 N 233.54 1.10788 -1.12088 0
M  V30 2536 C 234.487 2.17025 -0.785407 0
M  V30 2537 C 235.457 1.64265 0.246191 0
M  V30 2538 O 236.642 1.90412 0.121584 0
M  V30 2539 C 233.782 3.44249 -0.242177 0
M  V30 2540 C 232.895 4.1098 -1.33115 0
M  V30 2541 C 232.03 5.25911 -0.747741 0
M  V30 2542 C 231.069 5.84538 -1.81609 0
M  V30 2543 N 230.206 6.90853 -1.25167 0
M  V30 2544 H 235.046 2.45066 -1.69548 0
M  V30 2545 H 232.583 1.20297 -0.846582 0
M  V30 2546 H 234.541 4.17101 0.0908026 0
M  V30 2547 H 233.171 3.16571 0.631072 0
M  V30 2548 H 232.223 3.36133 -1.78097 0
M  V30 2549 H 233.535 4.50601 -2.13917 0
M  V30 2550 H 232.689 6.056 -0.365216 0
M  V30 2551 H 231.428 4.87614 0.0915188 0
M  V30 2552 H 230.433 5.03522 -2.20785 0
M  V30 2553 H 231.658 6.249 -2.6585 0
M  V30 2554 H 229.604 6.54562 -0.434174 0
M  V30 2555 H 229.521 7.29166 -1.99633 0
M  V30 2556 H 230.789 7.7433 -0.896259 0
M  V30 2557 N 235.018 0.912232 1.28515 0
M  V30 2558 C 235.95 0.35676 2.26406 0
M  V30 2559 C 236.963 -0.503933 1.54804 0
M  V30 2560 O 238.152 -0.319059 1.75625 0
M  V30 2561 C 235.252 -0.508825 3.35058 0
M  V30 2562 C 234.425 0.329007 4.36161 0
M  V30 2563 C 233.484 -0.471422 5.24084 0
M  V30 2564 O 232.51 0.115482 5.69083 0
M  V30 2565 N 233.712 -1.77479 5.52704 0
M  V30 2566 H 236.477 1.19818 2.74707 0
M  V30 2567 H 234.038 0.778022 1.4198 0
M  V30 2568 H 236.03 -1.051 3.90815 0
M  V30 2569 H 234.6 -1.25095 2.86478 0
M  V30 2570 H 233.82 1.05256 3.79888 0
M  V30 2571 H 235.108 0.90234 5.00735 0
M  V30 2572 H 234.506 -2.27417 5.17975 0
M  V30 2573 H 233.063 -2.26382 6.11224 0
M  V30 2574 N 236.496 -1.42363 0.676048 0
M  V30 2575 C 237.426 -2.33497 0.0124832 0
M  V30 2576 C 238.407 -1.50748 -0.787981 0
M  V30 2577 O 239.592 -1.79346 -0.744884 0
M  V30 2578 C 236.722 -3.34377 -0.938582 0
M  V30 2579 C 235.676 -4.27289 -0.246622 0
M  V30 2580 C 235.002 -5.18386 -1.31071 0
M  V30 2581 C 236.302 -5.14916 0.875125 0
M  V30 2582 H 237.996 -2.89233 0.773593 0
M  V30 2583 H 235.542 -1.39073 0.37346 0
M  V30 2584 H 237.495 -3.97044 -1.41188 0
M  V30 2585 H 236.219 -2.76947 -1.73113 0
M  V30 2586 H 234.878 -3.66018 0.206456 0
M  V30 2587 H 234.526 -4.57282 -2.09528 0
M  V30 2588 H 234.226 -5.81378 -0.852839 0
M  V30 2589 H 235.75 -5.83929 -1.78492 0
M  V30 2590 H 237.164 -5.71262 0.482983 0
M  V30 2591 H 235.561 -5.86747 1.25887 0
M  V30 2592 H 236.631 -4.53242 1.72335 0
M  V30 2593 N 237.974 -0.419461 -1.51915 0
M  V30 2594 C 239.202 0.152136 -2.0634 0
M  V30 2595 C 239.617 1.37988 -1.28859 0
M  V30 2596 O 238.974 1.79243 -0.343232 0
M  V30 2597 C 239.025 0.492266 -3.58133 0
M  V30 2598 O 238.746 -0.686736 -4.32684 0
M  V30 2599 C 240.247 1.11648 -4.2901 0
M  V30 2600 H 237.467 0.0158325 -0.670813 0
M  V30 2601 H 240.011 -0.593394 -1.95702 0
M  V30 2602 H 238.166 1.18769 -3.68745 0
M  V30 2603 H 238.58 -0.400341 -5.2297 0
M  V30 2604 H 240.054 1.3046 -5.36362 0
M  V30 2605 H 240.531 2.09251 -3.86148 0
M  V30 2606 H 241.137 0.460958 -4.22795 0
M  V30 2607 N 239.452 1.56882 -0.150215 0
M  V30 2608 C 240.698 1.96518 0.500834 0
M  V30 2609 C 241.031 1.03527 1.64304 0
M  V30 2610 O 240.306 0.0782751 1.94342 0
M  V30 2611 C 240.589 3.45822 1.00395 0
M  V30 2612 C 240.442 4.49591 -0.136983 0
M  V30 2613 C 241.761 3.97704 1.88467 0
M  V30 2614 H 238.88 0.714535 0.18058 0
M  V30 2615 H 241.522 1.88577 -0.232091 0
M  V30 2616 H 239.672 3.5272 1.62851 0
M  V30 2617 H 241.344 4.5477 -0.77343 0
M  V30 2618 H 239.587 4.26441 -0.795652 0
M  V30 2619 H 240.258 5.51402 0.256815 0
M  V30 2620 H 242.734 3.93304 1.35834 0
M  V30 2621 H 241.61 5.0263 2.20578 0
M  V30 2622 H 241.871 3.40252 2.82279 0
M  V30 2623 N 240.93 -0.123565 1.57115 0
M  V30 2624 C 241.877 -1.15177 2.00007 0
M  V30 2625 C 242.847 -1.41403 0.871454 0
M  V30 2626 O 244.032 -1.53346 1.13533 0
M  V30 2627 C 241.172 -2.47436 2.40561 0
M  V30 2628 C 240.285 -2.28184 3.66819 0
M  V30 2629 C 239.42 -3.53641 3.96373 0
M  V30 2630 C 238.459 -3.29528 5.15827 0
M  V30 2631 N 237.596 -4.47175 5.41275 0
M  V30 2632 H 242.436 -0.779008 2.87638 0
M  V30 2633 H 239.973 -0.373166 1.42288 0
M  V30 2634 H 241.931 -3.24584 2.62109 0
M  V30 2635 H 240.561 -2.82614 1.55978 0
M  V30 2636 H 239.613 -1.41976 3.52912 0
M  V30 2637 H 240.925 -2.0634 4.5412 0
M  V30 2638 H 240.079 -4.39209 4.18545 0
M  V30 2639 H 238.818 -3.78512 3.07538 0
M  V30 2640 H 237.823 -2.42349 4.93505 0
M  V30 2641 H 239.048 -3.06031 6.06236 0
M  V30 2642 H 236.994 -4.72175 4.55397 0
M  V30 2643 H 236.911 -4.28419 6.22891 0
M  V30 2644 H 238.179 -5.3389 5.67963 0
M  V30 2645 N 242.408 -1.52605 -0.393616 0
M  V30 2646 C 243.824 -1.41753 -0.733357 0
M  V30 2647 C 244.024 -0.534293 -1.94287 0
M  V30 2648 O 243.08 -0.0059787 -2.52499 0
M  V30 2649 C 244.393 -2.84531 -0.972772 0
M  V30 2650 C 245.941 -2.93978 -1.07453 0
M  V30 2651 C 246.416 -4.37756 -1.3466 0
M  V30 2652 N 247.907 -4.4106 -1.41492 0
M  V30 2653 C 248.642 -5.49387 -1.642 0
M  V30 2654 N 248.138 -6.67806 -1.8441 0
M  V30 2655 N 249.931 -5.36923 -1.66342 0
M  V30 2656 H 242.082 -2.08555 0.402328 0
M  V30 2657 H 244.345 -0.940654 0.117789 0
M  V30 2658 H 244.051 -3.51353 -0.156204 0
M  V30 2659 H 243.925 -3.26508 -1.88871 0
M  V30 2660 H 246.312 -2.27326 -1.88167 0
M  V30 2661 H 246.393 -2.55435 -0.136605 0
M  V30 2662 H 246.037 -5.04972 -0.544581 0
M  V30 2663 H 245.967 -4.73848 -2.2973 0
M  V30 2664 H 248.458 -3.55705 -1.27601 0
M  V30 2665 H 248.771 -7.46141 -2.01231 0
M  V30 2666 H 247.116 -6.70843 -1.81644 0
M  V30 2667 H 250.307 -4.43381 -1.50102 0
M  V30 2668 H 250.48 -6.21416 -1.837 0
M  V30 2669 N 243.887 0.651787 -1.4349 0
M  V30 2670 C 244.819 1.77725 -1.44729 0
M  V30 2671 C 245.832 1.59141 -0.343231 0
M  V30 2672 O 247.021 1.67835 -0.607751 0
M  V30 2673 C 244.121 3.15172 -1.24579 0
M  V30 2674 C 243.294 3.60402 -2.47849 0
M  V30 2675 C 242.353 4.76656 -2.22902 0
M  V30 2676 O 241.379 4.86022 -2.96263 0
M  V30 2677 N 242.581 5.66958 -1.24656 0
M  V30 2678 H 245.346 1.77141 -2.41746 0
M  V30 2679 H 242.907 0.835678 -1.38665 0
M  V30 2680 H 244.899 3.90634 -1.0577 0
M  V30 2681 H 243.469 3.1052 -0.360015 0
M  V30 2682 H 242.689 2.75369 -2.82073 0
M  V30 2683 H 243.977 3.87368 -3.29884 0
M  V30 2684 H 243.375 5.62065 -0.640265 0
M  V30 2685 H 241.932 6.42135 -1.1183 0
M  V30 2686 N 245.365 1.30045 0.890287 0
M  V30 2687 C 246.613 1.18327 1.63839 0
M  V30 2688 C 246.934 -0.263455 1.93212 0
M  V30 2689 O 246.204 -1.17856 1.56482 0
M  V30 2690 H 244.784 0.434933 0.607324 0
M  V30 2691 H 247.446 1.631 1.06698 0
M  V30 2692 H 246.542 1.74024 2.59079 0
M  V30 2693 N 246.843 -1.10192 1.12674 0
M  V30 2694 C 247.773 -2.18652 0.819362 0
M  V30 2695 C 248.754 -1.68698 -0.217915 0
M  V30 2696 O 249.939 -1.94041 -0.0785581 0
M  V30 2697 C 247.069 -3.46202 0.27594 0
M  V30 2698 C 246.023 -4.09444 1.24656 0
M  V30 2699 C 245.349 -5.31725 0.563258 0
M  V30 2700 C 246.649 -4.52863 2.60217 0
M  V30 2701 H 248.343 -2.44622 1.72628 0
M  V30 2702 H 245.889 -1.17571 0.831451 0
M  V30 2703 H 247.842 -4.21372 0.0486149 0
M  V30 2704 H 246.566 -3.1973 -0.666331 0
M  V30 2705 H 245.225 -3.36284 1.45974 0
M  V30 2706 H 244.873 -5.0153 -0.384235 0
M  V30 2707 H 244.573 -5.74991 1.21075 0
M  V30 2708 H 246.097 -6.09624 0.34503 0
M  V30 2709 H 247.511 -5.19294 2.42913 0
M  V30 2710 H 245.908 -5.06986 3.21068 0
M  V30 2711 H 246.978 -3.65656 3.18471 0
M  V30 2712 N 248.321 -0.919034 -1.28029 0
M  V30 2713 C 249.551 -0.570143 -1.98577 0
M  V30 2714 C 249.959 0.854172 -1.68821 0
M  V30 2715 O 249.302 1.57807 -0.940351 0
M  V30 2716 C 249.364 -0.705734 -3.52505 0
M  V30 2717 C 249.028 -2.10057 -4.05863 0
M  V30 2718 C 250.025 -3.07385 -4.19298 0
M  V30 2719 C 247.71 -2.41517 -4.40426 0
M  V30 2720 C 249.704 -4.34287 -4.66555 0
M  V30 2721 C 247.391 -3.68657 -4.87376 0
M  V30 2722 C 248.389 -4.64856 -5.00398 0
M  V30 2723 O 248.077 -5.89735 -5.46322 0
M  V30 2724 H 247.809 -0.215592 -0.6407 0
M  V30 2725 H 250.363 -1.23583 -1.64062 0
M  V30 2726 H 248.593 0.0170414 -3.86696 0
M  V30 2727 H 250.282 -0.363172 -4.04272 0
M  V30 2728 H 251.048 -2.84398 -3.92865 0
M  V30 2729 H 246.927 -1.67389 -4.29537 0
M  V30 2730 H 250.471 -5.09377 -4.76635 0
M  V30 2731 H 246.368 -3.91466 -5.13249 0
M  V30 2732 H 247.136 -5.92599 -5.64596 0
M  V30 2733 N 249.799 1.42003 -0.683588 0
M  V30 2734 C 251.029 2.05448 -0.217866 0
M  V30 2735 C 251.437 1.51491 1.13346 0
M  V30 2736 O 250.78 0.653048 1.717 0
M  V30 2737 C 250.842 3.59399 -0.0850118 0
M  V30 2738 C 250.506 4.36093 -1.36645 0
M  V30 2739 C 251.503 4.66169 -2.30179 0
M  V30 2740 C 249.188 4.75578 -1.61649 0
M  V30 2741 C 251.182 5.34676 -3.46988 0
M  V30 2742 C 248.869 5.43824 -2.78745 0
M  V30 2743 C 249.867 5.73299 -3.71238 0
M  V30 2744 O 249.555 6.40142 -4.86285 0
M  V30 2745 H 249.287 0.668344 -0.101454 0
M  V30 2746 H 251.841 1.82974 -0.933248 0
M  V30 2747 H 250.071 3.80566 0.686031 0
M  V30 2748 H 251.76 4.04457 0.341973 0
M  V30 2749 H 252.526 4.36156 -2.12115 0
M  V30 2750 H 248.405 4.52025 -0.905243 0
M  V30 2751 H 251.949 5.57599 -4.19201 0
M  V30 2752 H 247.846 5.73254 -2.96732 0
M  V30 2753 H 248.614 6.58636 -4.85944 0
M  V30 2754 N 251.277 0.427512 1.51691 0
M  V30 2755 C 252.526 -0.143679 2.01188 0
M  V30 2756 C 252.839 -1.44642 1.31674 0
M  V30 2757 O 254.045 -2.09997 1.72086 0
M  V30 2758 C 252.501 -0.306602 3.58592 0
M  V30 2759 C 252.109 0.985125 4.37035 0
M  V30 2760 C 253.853 -0.832091 4.16265 0
M  V30 2761 C 251.76 0.788382 5.86122 0
M  V30 2762 H 250.69 -0.0574701 0.751807 0
M  V30 2763 H 253.341 0.555772 1.74881 0
M  V30 2764 H 251.723 -1.06882 3.81303 0
M  V30 2765 H 252.897 1.75492 4.26074 0
M  V30 2766 H 251.212 1.4384 3.90767 0
M  V30 2767 H 253.809 -0.995617 5.25349 0
M  V30 2768 H 254.152 -1.81186 3.74803 0
M  V30 2769 H 254.685 -0.128444 3.97593 0
M  V30 2770 H 251.424 1.74025 6.31978 0
M  V30 2771 H 250.944 0.0582143 5.99772 0
M  V30 2772 H 252.623 0.437722 6.45518 0
M  V30 2773 N 252.755 -1.56801 0.158532 0
M  V30 2774 C 253.985 -2.00568 -0.495583 0
M  V30 2775 C 254.393 -1.03774 -1.58201 0
M  V30 2776 O 253.736 -0.0285797 -1.83678 0
M  V30 2777 C 253.798 -3.40768 -1.14532 0
M  V30 2778 C 253.462 -4.56553 -0.202101 0
M  V30 2779 C 254.459 -5.16714 0.574675 0
M  V30 2780 C 252.144 -5.02197 -0.101648 0
M  V30 2781 C 254.138 -6.20939 1.43924 0
M  V30 2782 C 251.825 -6.06274 0.766508 0
M  V30 2783 C 252.823 -6.65515 1.53555 0
M  V30 2784 O 252.511 -7.67575 2.38922 0
M  V30 2785 H 252.243 -0.662893 -0.13247 0
M  V30 2786 H 254.797 -2.03829 0.253559 0
M  V30 2787 H 253.027 -3.34381 -1.94233 0
M  V30 2788 H 254.716 -3.6857 -1.70033 0
M  V30 2789 H 255.482 -4.82341 0.507167 0
M  V30 2790 H 251.361 -4.55807 -0.689994 0
M  V30 2791 H 254.905 -6.67107 2.03996 0
M  V30 2792 H 250.802 -6.40073 0.835266 0
M  V30 2793 H 251.57 -7.84844 2.32296 0
M  V30 2794 N 254.233 0.115231 -1.57178 0
M  V30 2795 C 255.196 1.12526 -1.99676 0
M  V30 2796 C 256.196 1.34095 -0.88742 0
M  V30 2797 O 257.386 1.30548 -1.15337 0
M  V30 2798 C 254.518 2.4789 -2.34015 0
M  V30 2799 H 255.711 0.759912 -2.90113 0
M  V30 2800 H 253.264 0.359648 -1.52106 0
M  V30 2801 H 253.999 2.89339 -1.4647 0
M  V30 2802 H 253.784 2.33588 -3.14927 0
M  V30 2803 H 255.274 3.20575 -2.67622 0
M  V30 2804 N 255.711 1.52812 0.385517 0
M  V30 2805 C 256.643 1.74096 1.49074 0
M  V30 2806 C 257.656 0.621462 1.50472 0
M  V30 2807 O 258.845 0.897245 1.54311 0
M  V30 2808 C 255.945 1.78774 2.87911 0
M  V30 2809 C 255.118 3.08134 3.10439 0
M  V30 2810 C 254.177 3.04313 4.29278 0
M  V30 2811 O 253.203 3.78168 4.25415 0
M  V30 2812 N 254.405 2.23741 5.35649 0
M  V30 2813 H 257.17 2.69455 1.31202 0
M  V30 2814 H 254.731 1.51343 0.575065 0
M  V30 2815 H 256.723 1.73721 3.65518 0
M  V30 2816 H 255.293 0.907869 2.99126 0
M  V30 2817 H 254.513 3.26649 2.20667 0
M  V30 2818 H 255.801 3.93662 3.22347 0
M  V30 2819 H 255.199 1.63211 5.41645 0
M  V30 2820 H 253.756 2.24524 6.11909 0
M  V30 2821 N 257.189 -0.644168 1.43834 0
M  V30 2822 C 258.435 -1.40603 1.46146 0
M  V30 2823 C 258.768 -1.93997 0.0887717 0
M  V30 2824 O 258.043 -1.72854 -0.891724 0
M  V30 2825 C 258.326 -2.58086 2.51124 0
M  V30 2826 C 258.179 -2.10126 3.97702 0
M  V30 2827 C 259.498 -3.60291 2.52742 0
M  V30 2828 H 256.617 -0.509905 0.532134 0
M  V30 2829 H 259.259 -0.729502 1.75437 0
M  V30 2830 H 257.409 -3.15801 2.26278 0
M  V30 2831 H 259.081 -1.57342 4.33637 0
M  V30 2832 H 257.324 -1.41419 4.10101 0
M  V30 2833 H 257.995 -2.94649 4.66783 0
M  V30 2834 H 260.471 -3.12352 2.7491 0
M  V30 2835 H 259.347 -4.40032 3.28121 0
M  V30 2836 H 259.608 -4.1349 1.56455 0
M  V30 2837 N 258.668 -1.30515 -0.883378 0
M  V30 2838 C 259.896 -1.22359 -1.66841 0
M  V30 2839 C 260.311 0.213296 -1.87591 0
M  V30 2840 O 259.668 1.14075 -1.42454 0
M  V30 2841 C 259.719 -1.95011 -3.04389 0
M  V30 2842 O 259.44 -3.3309 -2.84575 0
M  V30 2843 C 260.941 -1.93532 -3.98824 0
M  V30 2844 H 258.161 -0.423371 -0.520575 0
M  V30 2845 H 260.705 -1.72167 -1.10357 0
M  V30 2846 H 258.86 -1.48997 -3.57601 0
M  V30 2847 H 259.274 -3.69907 -3.71846 0
M  V30 2848 H 260.748 -2.48902 -4.92699 0
M  V30 2849 H 261.225 -0.914627 -4.29571 0
M  V30 2850 H 261.831 -2.39364 -3.51547 0
M  V30 2851 N 260.146 1.09593 -1.13257 0
M  V30 2852 C 261.393 1.81734 -0.893257 0
M  V30 2853 C 261.721 1.8563 0.580656 0
M  V30 2854 O 260.976 1.31906 1.44566 0
M  V30 2855 C 261.275 3.27802 -1.42411 0
M  V30 2856 C 260.941 3.44041 -2.91456 0
M  V30 2857 C 259.603 3.48181 -3.3215 0
M  V30 2858 C 261.955 3.48719 -3.87356 0
M  V30 2859 C 259.283 3.54575 -4.67433 0
M  V30 2860 C 261.635 3.56648 -5.2248 0
M  V30 2861 C 260.299 3.59055 -5.62704 0
M  V30 2862 H 259.569 0.665011 -0.326866 0
M  V30 2863 H 262.216 1.2912 -1.41422 0
M  V30 2864 H 260.521 3.83042 -0.823795 0
M  V30 2865 H 262.218 3.82149 -1.21503 0
M  V30 2866 H 258.808 3.41502 -2.58987 0
M  V30 2867 H 262.992 3.44763 -3.57004 0
M  V30 2868 H 258.248 3.54725 -4.97976 0
M  V30 2869 H 262.422 3.59212 -5.96607 0
M  V30 2870 H 260.049 3.63763 -6.67518 0
M  V30 2871 N 261.624 0.925811 1.2754 0
M  V30 2872 C 262.864 0.572521 1.96218 0
M  V30 2873 C 263.228 -0.869719 1.71172 0
M  V30 2874 O 264.429 -1.33119 2.33523 0
M  V30 2875 C 262.7 0.887325 3.4621 0
M  V30 2876 S 264.259 0.642266 4.34074 0
M  V30 2877 H 261.077 0.211403 0.678845 0
M  V30 2878 H 263.679 1.19384 1.54815 0
M  V30 2879 H 262.383 1.93469 3.61936 0
M  V30 2880 H 261.914 0.255123 3.92572 0
M  V30 2881 H 263.929 -0.500822 4.93666 0
M  V30 2882 N 263.102 -1.41638 0.69111 0
M  V30 2883 C 264.327 -2.06148 0.227583 0
M  V30 2884 C 264.752 -1.51652 -1.11281 0
M  V30 2885 O 264.11 -0.64164 -1.69566 0
M  V30 2886 C 264.158 -3.60095 0.190858 0
M  V30 2887 O 263.262 -4.03845 -0.835664 0
M  V30 2888 H 262.603 -0.654434 0.112306 0
M  V30 2889 H 265.133 -1.81484 0.944714 0
M  V30 2890 H 265.143 -4.07995 0.020207 0
M  V30 2891 H 263.818 -3.99129 1.16915 0
M  V30 2892 H 262.395 -3.67458 -0.63473 0
M  V30 2893 N 264.58 -0.43555 -1.51462 0
M  V30 2894 C 265.528 0.391205 -2.29287 0
M  V30 2895 C 266.522 1.02247 -1.35062 0
M  V30 2896 O 267.728 0.957646 -1.52411 0
M  V30 2897 H 264.103 0.144968 -0.737895 0
M  V30 2898 H 266.074 -0.286051 -2.97026 0
M  V30 2899 C 264.823 1.48096 -3.14583 0
M  V30 2900 H 264.146 1.00457 -3.86973 0
M  V30 2901 H 265.586 2.03273 -3.72097 0
M  V30 2902 C 264.045 2.46321 -2.29843 0
M  V30 2903 O 264.575 3.50815 -1.95682 0
M  V30 2904 N 262.781 2.17166 -1.931 0
M  V30 2905 H 262.328 1.32218 -2.21079 0
M  V30 2906 H 262.286 2.83127 -1.36698 0
M  V30 2907 N 266.058 1.56714 -0.166846 0
M  V30 2908 C 267.474 1.58473 0.189372 0
M  V30 2909 C 267.674 1.18201 1.63189 0
M  V30 2910 O 266.73 0.891528 2.36237 0
M  V30 2911 C 268.043 3.00573 -0.0873872 0
M  V30 2912 C 269.591 3.1299 -0.0252443 0
M  V30 2913 C 270.066 4.57174 -0.274934 0
M  V30 2914 N 271.557 4.62665 -0.222553 0
M  V30 2915 C 272.292 5.72072 -0.389985 0
M  V30 2916 N 271.788 6.90054 -0.616229 0
M  V30 2917 N 273.581 5.61153 -0.326202 0
M  V30 2918 H 265.732 1.8118 -1.10849 0
M  V30 2919 H 267.995 0.839525 -0.440342 0
M  V30 2920 H 267.701 3.34497 -1.0865 0
M  V30 2921 H 267.575 3.72019 0.623037 0
M  V30 2922 H 269.962 2.78895 0.96444 0
M  V30 2923 H 270.043 2.43989 -0.768309 0
M  V30 2924 H 269.687 4.91976 -1.26181 0
M  V30 2925 H 269.617 5.24328 0.48869 0
M  V30 2926 H 272.108 3.77863 -0.0531512 0
M  V30 2927 H 272.421 7.69311 -0.733559 0
M  V30 2928 H 270.766 6.91927 -0.652791 0
M  V30 2929 H 273.957 4.67859 -0.150072 0
M  V30 2930 H 274.13 6.46364 -0.460116 0
M  V30 2931 N 267.536 -0.106894 1.57237 0
M  V30 2932 C 268.446 -1.14911 2.0453 0
M  V30 2933 C 269.462 -1.44592 0.96795 0
M  V30 2934 O 270.638 -1.55468 1.2803 0
M  V30 2935 C 267.703 -2.45272 2.45036 0
M  V30 2936 C 266.764 -2.22879 3.66911 0
M  V30 2937 C 265.997 -3.47024 4.05475 0
M  V30 2938 O 266.22 -4.54804 3.44252 0
M  V30 2939 O 265.154 -3.3731 4.98504 0
M  V30 2940 H 268.98 -0.777461 2.9358 0
M  V30 2941 H 266.565 -0.318563 1.45964 0
M  V30 2942 H 268.447 -3.22055 2.71769 0
M  V30 2943 H 267.122 -2.81886 1.59129 0
M  V30 2944 H 266.029 -1.43915 3.45311 0
M  V30 2945 H 267.362 -1.91163 4.53561 0
M  V30 2946 N 269.014 -1.53014 -0.377408 0
M  V30 2947 C 269.977 -1.77957 -1.44444 0
M  V30 2948 C 270.977 -0.649763 -1.47087 0
M  V30 2949 O 272.167 -0.917897 -1.48055 0
M  V30 2950 C 269.299 -1.89089 -2.83651 0
M  V30 2951 H 270.492 -2.73243 -1.23606 0
M  V30 2952 H 268.045 -1.43912 -0.609844 0
M  V30 2953 H 268.78 -0.958293 -3.09818 0
M  V30 2954 H 268.565 -2.71254 -2.83132 0
M  V30 2955 H 270.055 -2.1002 -3.60945 0
M  V30 2956 N 270.492 0.636531 -1.44174 0
M  V30 2957 C 271.717 1.42847 -1.50364 0
M  V30 2958 C 272.142 1.87665 -0.127867 0
M  V30 2959 O 271.5 1.58408 0.88185 0
M  V30 2960 C 271.548 2.62854 -2.4686 0
M  V30 2961 O 270.652 3.62501 -1.9664 0
M  V30 2962 H 269.993 0.427642 -0.507955 0
M  V30 2963 H 272.523 0.777422 -1.89255 0
M  V30 2964 H 272.533 3.10465 -2.64718 0
M  V30 2965 H 271.208 2.29578 -3.46795 0
M  V30 2966 H 269.785 3.21735 -1.88523 0
M  V30 2967 N 271.97 1.30982 0.876444 0
M  V30 2968 C 273.195 1.23373 1.66715 0
M  V30 2969 C 273.62 -0.19885 1.87046 0
M  V30 2970 O 272.978 -1.1427 1.40756 0
M  V30 2971 C 273.026 1.97644 3.01611 0
M  V30 2972 O 272.13 1.30935 3.91062 0
M  V30 2973 H 271.471 0.426279 0.509099 0
M  V30 2974 H 274.001 1.72944 1.09323 0
M  V30 2975 H 274.011 2.06992 3.51594 0
M  V30 2976 H 272.686 3.01829 2.86133 0
M  V30 2977 H 271.263 1.29996 3.49507 0
M  V30 2978 N 273.449 -1.08991 1.13837 0
M  V30 2979 C 274.381 -2.15606 0.777612 0
M  V30 2980 C 275.394 -1.61533 -0.202739 0
M  V30 2981 O 276.583 -1.78491 0.0181055 0
M  V30 2982 C 273.683 -3.3864 0.132623 0
M  V30 2983 C 272.856 -4.22115 1.1462 0
M  V30 2984 C 271.915 -5.23564 0.526074 0
M  V30 2985 O 270.941 -5.56678 1.18735 0
M  V30 2986 N 272.143 -5.76266 -0.699866 0
M  V30 2987 H 274.908 -2.47159 1.69506 0
M  V30 2988 H 272.469 -1.24747 1.03198 0
M  V30 2989 H 274.461 -4.03626 -0.29459 0
M  V30 2990 H 273.031 -3.04938 -0.687849 0
M  V30 2991 H 272.251 -3.53199 1.75055 0
M  V30 2992 H 273.539 -4.74709 1.83109 0
M  V30 2993 H 272.937 -5.51585 -1.25581 0
M  V30 2994 H 271.494 -6.42963 -1.06968 0
M  V30 2995 N 274.927 -0.932562 -1.27047 0
M  V30 2996 C 275.89 -0.440064 -2.24936 0
M  V30 2997 C 276.89 0.444071 -1.54547 0
M  V30 2998 O 278.08 0.244465 -1.72476 0
M  V30 2999 C 275.212 0.36678 -3.38921 0
M  V30 3000 H 276.405 -1.305 -2.70018 0
M  V30 3001 H 273.958 -0.713707 -1.39054 0
M  V30 3002 H 274.693 1.25033 -2.99228 0
M  V30 3003 H 274.478 -0.267204 -3.91188 0
M  V30 3004 H 275.968 0.701567 -4.11665 0
M  V30 3005 N 276.405 1.4127 -0.698611 0
M  V30 3006 C 277.816 1.84187 -0.305289 0
M  V30 3007 C 278.167 1.58449 1.15708 0
M  V30 3008 O 277.292 1.05651 1.88856 0
M  V30 3009 C 277.887 3.3435 -0.547314 0
M  V30 3010 C 276.446 3.75826 -0.207878 0
M  V30 3011 C 275.593 2.64647 -0.828099 0
M  V30 3012 H 278.544 1.30778 -0.89904 0
M  V30 3013 H 278.565 3.8001 0.192998 0
M  V30 3014 H 278.077 3.53051 -1.61172 0
M  V30 3015 H 276.178 3.62725 0.852143 0
M  V30 3016 H 276.291 4.74462 -0.665021 0
M  V30 3017 H 274.655 2.53395 -0.257458 0
M  V30 3018 H 275.438 2.86165 -1.89643 0
M  V30 3019 N 277.883 0.443576 1.51229 0
M  V30 3020 C 279.13 -0.120796 2.02139 0
M  V30 3021 C 279.458 -1.42166 1.32736 0
M  V30 3022 O 278.713 -1.90849 0.43301 0
M  V30 3023 C 279.012 -0.380579 3.55368 0
M  V30 3024 C 278.678 0.83523 4.43097 0
M  V30 3025 C 277.34 1.16864 4.66794 0
M  V30 3026 C 279.692 1.64601 4.94526 0
M  V30 3027 C 277.02 2.31339 5.39165 0
M  V30 3028 C 279.372 2.78181 5.68153 0
M  V30 3029 C 278.036 3.11969 5.90112 0
M  V30 3030 H 277.306 -0.0442023 0.73968 0
M  V30 3031 H 279.953 0.592046 1.82118 0
M  V30 3032 H 278.258 -1.17538 3.73754 0
M  V30 3033 H 279.955 -0.830777 3.923 0
M  V30 3034 H 276.545 0.565437 4.24854 0
M  V30 3035 H 280.729 1.40163 4.76097 0
M  V30 3036 H 275.985 2.57823 5.5438 0
M  V30 3037 H 280.159 3.41371 6.06992 0
M  V30 3038 H 277.786 4.00784 6.45969 0
M  V30 3039 N 279.361 -1.56624 0.175154 0
M  V30 3040 C 280.61 -1.96173 -0.468921 0
M  V30 3041 C 280.923 -1.06401 -1.64128 0
M  V30 3042 O 282.129 -1.35648 -2.35185 0
M  V30 3043 C 280.585 -3.48833 -0.885633 0
M  V30 3044 C 280.193 -4.47237 0.261343 0
M  V30 3045 C 281.937 -3.97194 -1.49791 0
M  V30 3046 C 279.844 -5.9114 -0.175214 0
M  V30 3047 H 278.774 -0.732455 -0.178958 0
M  V30 3048 H 281.425 -1.81591 0.263997 0
M  V30 3049 H 279.807 -3.58848 -1.67464 0
M  V30 3050 H 280.981 -4.4894 1.03871 0
M  V30 3051 H 279.296 -4.08956 0.783827 0
M  V30 3052 H 281.893 -5.02167 -1.83665 0
M  V30 3053 H 282.236 -3.40351 -2.39722 0
M  V30 3054 H 282.769 -3.90212 -0.773267 0
M  V30 3055 H 279.508 -6.51865 0.689414 0
M  V30 3056 H 279.028 -5.92735 -0.91786 0
M  V30 3057 H 280.707 -6.44044 -0.617792 0
M  V30 3058 N 280.839 0.0985539 -1.57292 0
M  V30 3059 C 281.802 1.10402 -2.00858 0
M  V30 3060 C 282.802 1.33146 -0.901593 0
M  V30 3061 O 283.992 1.29318 -1.16716 0
M  V30 3062 C 281.124 2.45394 -2.36632 0
M  V30 3063 H 282.317 0.729099 -2.90902 0
M  V30 3064 H 279.87 0.343495 -1.52479 0
M  V30 3065 H 280.605 2.87769 -1.49531 0
M  V30 3066 H 280.39 2.30235 -3.17387 0
M  V30 3067 H 281.88 3.17718 -2.71007 0
M  V30 3068 N 282.317 1.53212 0.369288 0
M  V30 3069 C 283.542 1.73423 1.1375 0
M  V30 3070 C 283.967 0.460404 1.82378 0
M  V30 3071 O 283.325 -0.585298 1.71592 0
M  V30 3072 C 283.373 2.89769 2.1463 0
M  V30 3073 O 282.477 2.58119 3.21634 0
M  V30 3074 H 281.818 0.576061 0.330227 0
M  V30 3075 H 284.348 2.00083 0.427547 0
M  V30 3076 H 284.358 3.15829 2.58294 0
M  V30 3077 H 283.033 3.8217 1.64071 0
M  V30 3078 H 281.61 2.42864 2.82969 0
M  V30 3079 N 283.795 -0.628877 1.44509 0
M  V30 3080 C 284.725 -1.75187 1.54376 0
M  V30 3081 C 285.706 -1.65411 0.396618 0
M  V30 3082 O 286.891 -1.84137 0.617031 0
M  V30 3083 C 284.021 -3.13725 1.48976 0
M  V30 3084 C 282.975 -3.38291 2.62189 0
M  V30 3085 C 282.301 -4.76883 2.41841 0
M  V30 3086 C 283.601 -3.30632 4.04326 0
M  V30 3087 H 285.295 -1.67187 2.48373 0
M  V30 3088 H 282.841 -0.802909 1.19538 0
M  V30 3089 H 284.794 -3.92064 1.54478 0
M  V30 3090 H 283.518 -3.22515 0.514961 0
M  V30 3091 H 282.177 -2.62334 2.56079 0
M  V30 3092 H 281.825 -4.82378 1.42548 0
M  V30 3093 H 281.525 -4.94278 3.17747 0
M  V30 3094 H 283.049 -5.57449 2.49165 0
M  V30 3095 H 284.463 -3.98873 4.11793 0
M  V30 3096 H 282.86 -3.59561 4.80454 0
M  V30 3097 H 283.93 -2.28404 4.27738 0
M  V30 3098 N 285.273 -1.31445 -0.869486 0
M  V30 3099 C 286.513 -1.22458 -1.63656 0
M  V30 3100 C 286.877 0.213846 -1.90805 0
M  V30 3101 O 288.078 0.427212 -2.65383 0
M  V30 3102 C 286.349 -2.04564 -2.93067 0
M  V30 3103 S 287.908 -2.12445 -3.83944 0
M  V30 3104 H 284.726 -0.436145 -0.561514 0
M  V30 3105 H 287.328 -1.66114 -1.03085 0
M  V30 3106 H 286.032 -3.0816 -2.71045 0
M  V30 3107 H 285.563 -1.6163 -3.58663 0
M  V30 3108 H 287.578 -1.26312 -4.79854 0
M  V30 3109 N 286.751 1.08385 -1.14413 0
M  V30 3110 C 287.681 2.17321 -0.854044 0
M  V30 3111 C 288.662 1.69024 0.191049 0
M  V30 3112 O 289.847 1.94141 0.0476779 0
M  V30 3113 C 286.977 3.45719 -0.330983 0
M  V30 3114 C 285.931 4.07409 -1.31155 0
M  V30 3115 C 285.257 5.30762 -0.64778 0
M  V30 3116 C 286.557 4.48665 -2.67388 0
M  V30 3117 H 288.251 2.41845 -1.76498 0
M  V30 3118 H 285.797 1.16233 -0.850051 0
M  V30 3119 H 287.75 4.21241 -0.115645 0
M  V30 3120 H 286.474 3.2075 0.615381 0
M  V30 3121 H 285.133 3.33919 -1.51306 0
M  V30 3122 H 284.781 5.02078 0.304398 0
M  V30 3123 H 284.481 5.72992 -1.30207 0
M  V30 3124 H 286.005 6.08998 -0.441972 0
M  V30 3125 H 287.419 5.15364 -2.51143 0
M  V30 3126 H 285.816 5.01814 -3.29093 0
M  V30 3127 H 286.886 3.60543 -3.24248 0
M  V30 3128 N 288.23 0.939286 1.26551 0
M  V30 3129 C 289.177 0.446088 2.26448 0
M  V30 3130 C 290.147 -0.493234 1.58608 0
M  V30 3131 O 291.332 -0.409857 1.86346 0
M  V30 3132 C 288.472 -0.284375 3.43926 0
M  V30 3133 C 287.585 0.690399 4.26448 0
M  V30 3134 C 286.72 -0.0610712 5.31165 0
M  V30 3135 C 285.759 0.905649 6.05363 0
M  V30 3136 N 284.896 0.186055 7.01853 0
M  V30 3137 H 289.736 1.30291 2.68008 0
M  V30 3138 H 287.273 0.65371 1.31776 0
M  V30 3139 H 289.231 -0.724313 4.10864 0
M  V30 3140 H 287.861 -1.10535 3.03285 0
M  V30 3141 H 286.913 1.24885 3.59316 0
M  V30 3142 H 288.225 1.42873 4.779 0
M  V30 3143 H 287.379 -0.56038 6.04106 0
M  V30 3144 H 286.118 -0.832297 4.80546 0
M  V30 3145 H 285.123 1.4161 5.3125 0
M  V30 3146 H 286.348 1.67685 6.58072 0
M  V30 3147 H 284.294 -0.566714 6.53548 0
M  V30 3148 H 284.211 0.863752 7.51049 0
M  V30 3149 H 285.479 -0.292221 7.78952 0
M  V30 3150 N 289.708 -1.40897 0.706093 0
M  V30 3151 C 290.933 -2.05895 0.249435 0
M  V30 3152 C 291.358 -1.52823 -1.09666 0
M  V30 3153 O 290.716 -0.659589 -1.68876 0
M  V30 3154 C 290.764 -3.59872 0.22904 0
M  V30 3155 O 289.868 -4.04708 -0.792784 0
M  V30 3156 H 289.209 -0.653206 0.119241 0
M  V30 3157 H 291.739 -1.80471 0.96391 0
M  V30 3158 H 291.749 -4.07951 0.0634791 0
M  V30 3159 H 290.424 -3.97866 1.21141 0
M  V30 3160 H 289.001 -3.68111 -0.59572 0
M  V30 3161 N 291.186 -0.45159 -1.50991 0
M  V30 3162 C 292.597 0.00818571 -1.86698 0
M  V30 3163 C 292.948 1.40661 -1.3678 0
M  V30 3164 O 292.073 2.0391 -0.724546 0
M  V30 3165 C 292.668 0.0216303 -3.38793 0
M  V30 3166 C 291.227 0.425865 -3.73983 0
M  V30 3167 C 290.374 -0.372163 -2.74791 0
M  V30 3168 H 293.325 -0.666785 -1.44013 0
M  V30 3169 H 293.346 0.828078 -3.7138 0
M  V30 3170 H 292.858 -0.996288 -3.75094 0
M  V30 3171 H 290.959 1.44886 -3.43277 0
M  V30 3172 H 291.072 0.140761 -4.78893 0
M  V30 3173 H 289.436 0.171498 -2.54122 0
M  V30 3174 H 290.219 -1.38922 -3.13935 0
M  V30 3175 N 292.664 1.56529 -0.183458 0
M  V30 3176 C 293.912 1.96855 0.457452 0
M  V30 3177 C 294.233 1.07104 1.62953 0
M  V30 3178 O 293.503 0.139887 1.954 0
M  V30 3179 H 292.083 0.72693 0.171992 0
M  V30 3180 H 294.745 1.93056 -0.267476 0
M  V30 3181 H 293.841 3.01423 0.809368 0
M  V30 3182 N 294.142 -0.090211 1.57342 0
M  V30 3183 C 295.558 -0.444547 1.53284 0
M  V30 3184 C 295.758 -1.80238 0.900914 0
M  V30 3185 O 294.814 -2.4759 0.495513 0
M  V30 3186 C 296.127 -0.402543 2.97993 0
M  V30 3187 C 297.675 -0.48405 3.09234 0
M  V30 3188 C 298.15 -0.472144 4.5556 0
M  V30 3189 N 299.641 -0.532757 4.60126 0
M  V30 3190 C 300.376 -0.545462 5.708 0
M  V30 3191 N 299.872 -0.514082 6.9089 0
M  V30 3192 N 301.665 -0.59064 5.58988 0
M  V30 3193 H 293.816 0.799121 1.96794 0
M  V30 3194 H 296.079 0.297965 0.899956 0
M  V30 3195 H 295.785 0.528106 3.47712 0
M  V30 3196 H 295.659 -1.21969 3.56936 0
M  V30 3197 H 298.046 -1.40512 2.595 0
M  V30 3198 H 298.127 0.361328 2.53235 0
M  V30 3199 H 297.771 0.445 5.05947 0
M  V30 3200 H 297.701 -1.3348 5.09402 0
M  V30 3201 H 300.192 -0.562006 3.73698 0
M  V30 3202 H 300.505 -0.527195 7.71 0
M  V30 3203 H 298.85 -0.481054 6.93333 0
M  V30 3204 H 302.041 -0.61272 4.64073 0
M  V30 3205 H 302.214 -0.597073 6.45243 0
M  V30 3206 N 295.62 -1.53406 -0.361157 0
M  V30 3207 C 296.867 -1.69802 -1.10333 0
M  V30 3208 C 297.195 -0.452087 -1.89173 0
M  V30 3209 O 296.45 0.566017 -1.87336 0
M  V30 3210 C 296.749 -2.90211 -2.08596 0
M  V30 3211 C 296.415 -4.26539 -1.46203 0
M  V30 3212 C 295.077 -4.6361 -1.28915 0
M  V30 3213 C 297.429 -5.113 -1.01101 0
M  V30 3214 C 294.757 -5.83075 -0.651157 0
M  V30 3215 C 297.109 -6.31415 -0.387007 0
M  V30 3216 C 295.773 -6.67195 -0.201657 0
M  V30 3217 H 295.043 -0.621351 -0.403737 0
M  V30 3218 H 297.69 -1.87598 -0.384609 0
M  V30 3219 H 295.995 -2.66946 -2.86788 0
M  V30 3220 H 297.692 -3.00091 -2.65982 0
M  V30 3221 H 294.282 -3.97352 -1.60653 0
M  V30 3222 H 298.466 -4.83206 -1.13249 0
M  V30 3223 H 293.722 -6.09385 -0.496006 0
M  V30 3224 H 297.896 -6.96394 -0.0293563 0
M  V30 3225 H 295.523 -7.59628 0.294766 0
M  V30 3226 N 297.098 0.621204 -1.44841 0
M  V30 3227 C 298.008 1.7612 -1.5498 0
M  V30 3228 C 299.024 1.68477 -0.434927 0
M  V30 3229 O 300.2 1.89076 -0.693693 0
M  V30 3230 C 297.265 3.1254 -1.50065 0
M  V30 3231 C 296.326 3.31741 -2.72482 0
M  V30 3232 C 295.559 4.61653 -2.67792 0
M  V30 3233 O 295.782 5.431 -1.74352 0
M  V30 3234 O 294.716 4.83271 -3.58794 0
M  V30 3235 H 298.542 1.70518 -2.51311 0
M  V30 3236 H 296.127 0.783643 -1.27198 0
M  V30 3237 H 298.009 3.93844 -1.49882 0
M  V30 3238 H 296.684 3.18663 -0.568806 0
M  V30 3239 H 295.591 2.50077 -2.7823 0
M  V30 3240 H 296.924 3.30486 -3.64746 0
M  V30 3241 N 298.576 1.31904 0.862503 0
M  V30 3242 C 299.992 1.10724 1.14945 0
M  V30 3243 C 300.192 -0.117421 2.01158 0
M  V30 3244 O 299.248 -0.804595 2.39338 0
M  V30 3245 C 300.561 2.38267 1.83437 0
M  V30 3246 C 302.109 2.43949 1.96106 0
M  V30 3247 C 302.584 3.71394 2.68013 0
M  V30 3248 N 304.075 3.72331 2.75543 0
M  V30 3249 C 304.81 4.67641 3.31812 0
M  V30 3250 N 304.306 5.73313 3.88953 0
M  V30 3251 N 306.099 4.5515 3.29841 0
M  V30 3252 H 298.25 2.10436 0.288191 0
M  V30 3253 H 300.513 0.928705 0.190292 0
M  V30 3254 H 300.219 3.27759 1.27542 0
M  V30 3255 H 300.093 2.48633 2.83657 0
M  V30 3256 H 302.48 1.54922 2.51164 0
M  V30 3257 H 302.561 2.37543 0.949059 0
M  V30 3258 H 302.205 4.60791 2.13621 0
M  V30 3259 H 302.135 3.75069 3.69636 0
M  V30 3260 H 304.626 2.95947 2.34997 0
M  V30 3261 H 304.939 6.42107 4.30022 0
M  V30 3262 H 303.284 5.77077 3.87308 0
M  V30 3263 H 306.475 3.71766 2.84443 0
M  V30 3264 H 306.648 5.29604 3.73394 0
M  V30 3265 N 300.054 -1.07777 1.14986 0
M  V30 3266 C 301.303 -1.79669 0.916617 0
M  V30 3267 C 301.616 -1.87474 -0.557917 0
M  V30 3268 O 302.822 -2.55845 -0.908617 0
M  V30 3269 C 301.278 -3.22848 1.59051 0
M  V30 3270 C 300.886 -3.23257 3.10176 0
M  V30 3271 C 302.63 -3.99379 1.43864 0
M  V30 3272 C 300.537 -4.61063 3.70372 0
M  V30 3273 H 299.467 -0.673349 0.33929 0
M  V30 3274 H 302.118 -1.21003 1.37951 0
M  V30 3275 H 300.5 -3.8168 1.0553 0
M  V30 3276 H 301.674 -2.74095 3.70417 0
M  V30 3277 H 299.989 -2.60222 3.25074 0
M  V30 3278 H 302.586 -5.0122 1.86232 0
M  V30 3279 H 302.929 -4.14511 0.385564 0
M  V30 3280 H 303.462 -3.47032 1.94457 0
M  V30 3281 H 300.201 -4.51135 4.7556 0
M  V30 3282 H 299.721 -5.1048 3.14913 0
M  V30 3283 H 301.4 -5.30034 3.71043 0
M  V30 3284 N 301.532 -0.945985 -1.26051 0
M  V30 3285 C 302.462 -0.477172 -2.28572 0
M  V30 3286 C 303.443 0.472032 -1.63419 0
M  V30 3287 O 304.628 0.372853 -1.90587 0
M  V30 3288 C 301.758 0.253975 -3.4637 0
M  V30 3289 C 300.712 -0.609135 -4.23643 0
M  V30 3290 C 300.038 0.252252 -5.34105 0
M  V30 3291 C 301.338 -1.8829 -4.8718 0
M  V30 3292 H 303.032 -1.33402 -2.68038 0
M  V30 3293 H 300.578 -0.642904 -1.28852 0
M  V30 3294 H 302.531 0.593016 -4.17207 0
M  V30 3295 H 301.255 1.145 -3.05871 0
M  V30 3296 H 299.914 -0.931138 -3.54578 0
M  V30 3297 H 299.562 1.14278 -4.89846 0
M  V30 3298 H 299.262 -0.32188 -5.86718 0
M  V30 3299 H 300.786 0.586454 -6.07777 0
M  V30 3300 H 302.2 -1.61081 -5.50205 0
M  V30 3301 H 300.597 -2.40199 -5.49931 0
M  V30 3302 H 301.667 -2.59134 -4.09851 0
M  V30 3303 N 303.011 1.40521 -0.713556 0
M  V30 3304 C 303.941 2.33381 -0.0743864 0
M  V30 3305 C 304.922 1.52784 0.747735 0
M  V30 3306 O 306.107 1.81258 0.697071 0
M  V30 3307 C 303.237 3.36748 0.849598 0
M  V30 3308 C 302.191 4.27793 0.133247 0
M  V30 3309 C 301.517 5.21679 1.17281 0
M  V30 3310 C 302.817 5.12415 -1.01134 0
M  V30 3311 H 304.511 2.87081 -0.850007 0
M  V30 3312 H 302.057 1.38034 -0.410201 0
M  V30 3313 H 304.01 4.00648 1.30612 0
M  V30 3314 H 302.734 2.81439 1.65709 0
M  V30 3315 H 301.393 3.65342 -0.303426 0
M  V30 3316 H 301.041 4.62677 1.9733 0
M  V30 3317 H 300.741 5.83435 0.698397 0
M  V30 3318 H 302.265 5.88456 1.62947 0
M  V30 3319 H 303.679 5.69781 -0.634274 0
M  V30 3320 H 302.076 5.83203 -1.41399 0
M  V30 3321 H 303.146 4.48514 -1.84292 0
M  V30 3322 N 304.489 0.459591 1.5075 0
M  V30 3323 C 305.905 0.113092 1.59199 0
M  V30 3324 C 306.105 -1.37951 1.46874 0
M  V30 3325 O 305.161 -2.15168 1.32132 0
M  V30 3326 C 306.474 0.653043 2.93523 0
M  V30 3327 C 308.022 0.615449 3.0689 0
M  V30 3328 C 308.497 1.13275 4.43771 0
M  V30 3329 N 309.988 1.09167 4.50152 0
M  V30 3330 C 310.723 1.46256 5.54434 0
M  V30 3331 N 310.219 1.90739 6.66026 0
M  V30 3332 N 312.012 1.37932 5.44914 0
M  V30 3333 H 304.163 1.43049 1.57005 0
M  V30 3334 H 306.426 0.590861 0.741341 0
M  V30 3335 H 306.132 1.69822 3.07983 0
M  V30 3336 H 306.006 0.0902132 3.77092 0
M  V30 3337 H 308.393 -0.420793 2.92084 0
M  V30 3338 H 308.474 1.21495 2.25106 0
M  V30 3339 H 308.118 2.16757 4.59324 0
M  V30 3340 H 308.048 0.509576 5.24129 0
M  V30 3341 H 310.539 0.76528 3.7007 0
M  V30 3342 H 310.852 2.17218 7.41644 0
M  V30 3343 H 309.197 1.94683 6.67176 0
M  V30 3344 H 312.388 1.0303 4.56621 0
M  V30 3345 H 312.561 1.67164 6.26067 0
M  V30 3346 N 305.967 -1.56429 0.191757 0
M  V30 3347 C 306.93 -2.17707 -0.716688 0
M  V30 3348 C 307.93 -1.13061 -1.14341 0
M  V30 3349 O 309.12 -1.38464 -1.05704 0
M  V30 3350 C 306.252 -2.77644 -1.97804 0
M  V30 3351 H 307.445 -2.99342 -0.1829 0
M  V30 3352 H 304.998 -1.56193 -0.0578566 0
M  V30 3353 H 305.733 -1.99799 -2.55443 0
M  V30 3354 H 305.518 -3.54246 -1.68083 0
M  V30 3355 H 307.008 -3.24708 -2.62592 0
M  V30 3356 N 307.445 0.0818655 -1.57387 0
M  V30 3357 C 308.408 1.08265 -2.02018 0
M  V30 3358 C 309.408 1.32183 -0.915664 0
M  V30 3359 O 310.598 1.28073 -1.18081 0
M  V30 3360 C 307.73 2.42871 -2.39221 0
M  V30 3361 H 308.923 0.698204 -2.91659 0
M  V30 3362 H 306.476 0.327303 -1.52835 0
M  V30 3363 H 307.211 2.86167 -1.52575 0
M  V30 3364 H 306.996 2.26855 -3.19811 0
M  V30 3365 H 308.486 3.14826 -2.74362 0
M  V30 3366 N 308.923 1.53595 0.353017 0
M  V30 3367 C 309.871 1.81605 1.45335 0
M  V30 3368 C 310.865 0.685923 1.54892 0
M  V30 3369 O 312.071 0.869095 1.57628 0
M  V30 3370 H 308.446 0.575204 0.484401 0
M  V30 3371 H 310.417 2.73679 1.18921 0
M  V30 3372 C 309.166 2.03406 2.81995 0
M  V30 3373 H 308.489 2.89814 2.75405 0
M  V30 3374 H 309.929 2.26975 3.58132 0
M  V30 3375 C 308.388 0.816794 3.26849 0
M  V30 3376 O 308.918 0.0115856 4.01698 0
M  V30 3377 N 307.124 0.636682 2.8354 0
M  V30 3378 H 306.671 1.2931 2.22793 0
M  V30 3379 H 306.629 -0.176336 3.13905 0
M  V30 3380 N 310.401 -0.613514 1.45168 0
M  V30 3381 C 311.629 -1.39946 1.5239 0
M  V30 3382 C 312.044 -1.88167 0.154531 0
M  V30 3383 O 311.401 -1.61872 -0.842843 0
M  V30 3384 C 311.452 -2.60795 2.50337 0
M  V30 3385 O 311.173 -2.1458 3.81952 0
M  V30 3386 C 312.674 -3.53723 2.67198 0
M  V30 3387 H 309.894 -0.428593 0.516284 0
M  V30 3388 H 312.438 -0.748753 1.903 0
M  V30 3389 H 310.593 -3.21919 2.15515 0
M  V30 3390 H 311.007 -2.93055 4.34993 0
M  V30 3391 H 312.481 -4.35079 3.39721 0
M  V30 3392 H 312.958 -4.0368 1.73029 0
M  V30 3393 H 313.564 -2.98456 3.02992 0
M  V30 3394 N 311.879 -1.3236 -0.855495 0
M  V30 3395 C 312.829 -1.17809 -1.95205 0
M  V30 3396 C 313.813 -0.0852319 -1.60674 0
M  V30 3397 O 315.005 -0.311651 -1.74235 0
M  V30 3398 C 312.134 -0.902437 -3.31226 0
M  V30 3399 C 311.22 -2.03695 -3.7198 0
M  V30 3400 N 311.611 -3.28544 -3.84568 0
M  V30 3401 C 309.909 -1.93993 -4.016 0
M  V30 3402 C 310.61 -4.02847 -4.19629 0
M  V30 3403 N 309.586 -3.31138 -4.31102 0
M  V30 3404 H 313.388 -2.12462 -2.0307 0
M  V30 3405 H 310.902 -1.24127 -1.0472 0
M  V30 3406 H 312.899 -0.77915 -4.09554 0
M  V30 3407 H 311.559 0.0357267 -3.2468 0
M  V30 3408 H 312.57 -3.6349 -3.68911 0
M  V30 3409 H 309.247 -1.07733 -4.03361 0
M  V30 3410 H 310.637 -5.10506 -4.36845 0
M  V30 3411 N 313.357 1.07166 -1.15556 0
M  V30 3412 C 314.582 1.84053 -0.955988 0
M  V30 3413 C 315.007 1.81586 0.490739 0
M  V30 3414 O 314.365 1.21018 1.34997 0
M  V30 3415 C 314.413 3.28957 -1.47714 0
M  V30 3416 O 313.517 4.06795 -0.677593 0
M  V30 3417 H 312.858 0.569842 -0.340847 0
M  V30 3418 H 315.388 1.35178 -1.53584 0
M  V30 3419 H 315.398 3.79788 -1.4908 0
M  V30 3420 H 314.073 3.30068 -2.53037 0
M  V30 3421 H 312.65 3.6561 -0.733721 0
M  V30 3422 N 314.835 0.952656 1.25548 0
M  V30 3423 C 316.06 0.623025 1.97821 0
M  V30 3424 C 316.485 -0.7976 1.70352 0
M  V30 3425 O 315.843 -1.53905 0.958283 0
M  V30 3426 C 315.891 0.885532 3.49558 0
M  V30 3427 O 314.995 -0.0366641 4.12384 0
M  V30 3428 H 314.336 0.237082 0.620232 0
M  V30 3429 H 316.866 1.27871 1.59719 0
M  V30 3430 H 316.876 0.811009 3.99858 0
M  V30 3431 H 315.551 1.92094 3.6888 0
M  V30 3432 H 314.128 0.0898954 3.72792 0
M  V30 3433 N 316.313 -1.40141 0.720998 0
M  V30 3434 C 317.276 -2.29058 0.0805834 0
M  V30 3435 C 318.276 -1.45632 -0.681758 0
M  V30 3436 O 319.466 -1.6648 -0.512856 0
M  V30 3437 C 316.598 -3.28925 -0.895593 0
M  V30 3438 H 317.791 -2.87191 0.863793 0
M  V30 3439 H 315.344 -1.48553 0.485975 0
M  V30 3440 H 316.079 -2.75822 -1.70566 0
M  V30 3441 H 315.864 -3.90519 -0.351766 0
M  V30 3442 H 317.354 -3.95494 -1.34069 0
M  V30 3443 N 317.792 -0.46758 -1.50504 0
M  V30 3444 C 318.739 0.328413 -2.28452 0
M  V30 3445 C 319.709 0.990313 -1.33349 0
M  V30 3446 O 320.894 1.00343 -1.62284 0
M  V30 3447 C 318.034 1.40648 -3.15138 0
M  V30 3448 C 317.147 0.759709 -4.25267 0
M  V30 3449 C 316.282 1.81537 -4.99217 0
M  V30 3450 C 315.321 1.14866 -6.01226 0
M  V30 3451 N 314.458 2.14702 -6.68467 0
M  V30 3452 H 319.298 -0.342603 -2.96024 0
M  V30 3453 H 316.835 -0.180801 -1.45985 0
M  V30 3454 H 318.793 2.04315 -3.63746 0
M  V30 3455 H 317.423 2.04671 -2.49619 0
M  V30 3456 H 316.475 0.0105671 -3.80399 0
M  V30 3457 H 317.787 0.233243 -4.98254 0
M  V30 3458 H 316.941 2.52793 -5.51526 0
M  V30 3459 H 315.68 2.37564 -4.25928 0
M  V30 3460 H 314.685 0.42171 -5.4818 0
M  V30 3461 H 315.91 0.595334 -6.76485 0
M  V30 3462 H 313.856 2.69752 -5.97972 0
M  V30 3463 H 313.773 1.6703 -7.37317 0
M  V30 3464 H 315.041 2.85348 -7.25394 0
M  V30 3465 N 319.27 1.56325 -0.20005 0
M  V30 3466 C 320.681 1.8408 0.31167 0
M  V30 3467 C 321.032 1.12087 1.61031 0
M  V30 3468 O 320.157 0.38332 2.12978 0
M  V30 3469 C 320.752 3.33932 0.57226 0
M  V30 3470 C 319.311 3.6208 1.02834 0
M  V30 3471 C 318.458 2.77186 0.079634 0
M  V30 3472 H 321.409 1.52939 -0.423729 0
M  V30 3473 H 321.43 3.52971 1.42096 0
M  V30 3474 H 320.942 3.86303 -0.37308 0
M  V30 3475 H 319.043 3.15147 1.98778 0
M  V30 3476 H 319.156 4.7023 0.917624 0
M  V30 3477 H 317.52 2.47951 0.582448 0
M  V30 3478 H 318.303 3.32347 -0.860238 0
M  V30 3479 N 320.748 -0.0735177 1.57428 0
M  V30 3480 C 321.988 -0.778363 1.89 0
M  V30 3481 C 322.352 -1.7483 0.793634 0
M  V30 3482 O 323.553 -2.49811 0.992367 0
M  V30 3483 C 321.824 -1.46929 3.25802 0
M  V30 3484 S 323.383 -2.20943 3.79117 0
M  V30 3485 H 320.201 -0.258874 0.662197 0
M  V30 3486 H 322.803 -0.0345338 1.95469 0
M  V30 3487 H 321.507 -0.749532 4.03497 0
M  V30 3488 H 321.038 -2.25258 3.22525 0
M  V30 3489 H 323.053 -3.47435 3.54265 0
M  V30 3490 N 322.226 -1.5378 -0.344866 0
M  V30 3491 C 323.474 -1.70625 -1.08311 0
M  V30 3492 C 323.795 -0.471447 -1.89215 0
M  V30 3493 O 323.065 0.514616 -1.8902 0
M  V30 3494 H 321.645 -0.629058 -0.402859 0
M  V30 3495 H 324.307 -1.9103 -0.386459 0
M  V30 3496 H 323.403 -2.57656 -1.76124 0
M  V30 3497 N 323.704 0.605807 -1.45491 0
M  V30 3498 C 324.636 1.73031 -1.5031 0
M  V30 3499 C 325.649 1.57968 -0.393687 0
M  V30 3500 O 326.838 1.65817 -0.660839 0
M  V30 3501 C 323.938 3.11049 -1.34543 0
M  V30 3502 C 323.111 3.52334 -2.59189 0
M  V30 3503 C 322.17 4.69323 -2.37954 0
M  V30 3504 O 321.196 4.7635 -3.11575 0
M  V30 3505 N 322.398 5.62705 -1.4263 0
M  V30 3506 H 325.163 1.6936 -2.4726 0
M  V30 3507 H 322.724 0.79114 -1.41254 0
M  V30 3508 H 324.716 3.87071 -1.18144 0
M  V30 3509 H 323.286 3.09217 -0.458623 0
M  V30 3510 H 322.506 2.66256 -2.90691 0
M  V30 3511 H 323.794 3.76677 -3.42041 0
M  V30 3512 H 323.192 5.59744 -0.818758 0
M  V30 3513 H 321.749 6.38252 -1.32202 0
M  V30 3514 N 325.182 1.32811 0.848464 0
M  V30 3515 C 326.114 1.18095 1.96433 0
M  V30 3516 C 327.127 0.114354 1.62398 0
M  V30 3517 O 328.316 0.363892 1.74751 0
M  V30 3518 C 325.416 0.786798 3.2964 0
M  V30 3519 C 324.589 1.943 3.91875 0
M  V30 3520 C 323.648 1.53138 5.03423 0
M  V30 3521 O 322.674 2.24432 5.23086 0
M  V30 3522 N 323.876 0.430915 5.78898 0
M  V30 3523 H 326.641 2.14218 2.09597 0
M  V30 3524 H 324.202 1.2543 1.02367 0
M  V30 3525 H 326.194 0.493715 4.01677 0
M  V30 3526 H 324.764 -0.0834541 3.12489 0
M  V30 3527 H 323.984 2.40224 3.12547 0
M  V30 3528 H 325.272 2.71689 4.30189 0
M  V30 3529 H 324.67 -0.162333 5.65467 0
M  V30 3530 H 323.227 0.197466 6.51501 0
M  V30 3531 N 326.66 -1.06551 1.16123 0
M  V30 3532 C 327.885 -1.83544 0.965735 0
M  V30 3533 C 328.31 -1.81843 -0.481102 0
M  V30 3534 O 327.668 -1.21732 -1.34354 0
M  V30 3535 C 327.716 -3.28169 1.49457 0
M  V30 3536 O 326.82 -4.0643 0.699157 0
M  V30 3537 H 326.161 -0.568026 0.343864 0
M  V30 3538 H 328.691 -1.34362 1.54299 0
M  V30 3539 H 328.701 -3.78992 1.51092 0
M  V30 3540 H 327.376 -3.28722 2.54784 0
M  V30 3541 H 325.953 -3.65216 0.7531 0
M  V30 3542 N 328.138 -0.959301 -1.25041 0
M  V30 3543 C 329.387 -0.612254 -1.92183 0
M  V30 3544 C 329.7 0.855347 -1.75907 0
M  V30 3545 O 330.906 1.31256 -2.37664 0
M  V30 3546 C 329.362 -1.04435 -3.44414 0
M  V30 3547 C 328.97 -2.53482 -3.69393 0
M  V30 3548 C 330.714 -0.770055 -4.17457 0
M  V30 3549 C 328.621 -2.90468 -5.15153 0
M  V30 3550 H 327.551 -0.225279 -0.719559 0
M  V30 3551 H 330.202 -1.16438 -1.41825 0
M  V30 3552 H 328.584 -0.4206 -3.9376 0
M  V30 3553 H 329.758 -3.20916 -3.30681 0
M  V30 3554 H 328.073 -2.78432 -3.0962 0
M  V30 3555 H 330.67 -1.02249 -5.24832 0
M  V30 3556 H 331.013 0.293611 -4.15263 0
M  V30 3557 H 331.546 -1.35437 -3.74034 0
M  V30 3558 H 328.285 -3.95871 -5.22462 0
M  V30 3559 H 327.805 -2.27711 -5.54894 0
M  V30 3560 H 329.484 -2.79914 -5.83315 0
M  V30 3561 N 329.616 1.39756 -0.72842 0
M  V30 3562 C 330.566 2.2792 -0.0603424 0
M  V30 3563 C 331.55 1.43922 0.719399 0
M  V30 3564 O 332.742 1.66895 0.589489 0
M  V30 3565 C 329.871 3.32582 0.851104 0
M  V30 3566 C 328.957 4.24049 0.0658641 0
M  V30 3567 N 329.348 4.96653 -0.957578 0
M  V30 3568 C 327.646 4.45013 0.296509 0
M  V30 3569 C 328.347 5.63836 -1.43052 0
M  V30 3570 N 327.323 5.38397 -0.750315 0
M  V30 3571 H 331.125 2.81504 -0.84455 0
M  V30 3572 H 328.639 1.5236 -0.562155 0
M  V30 3573 H 330.636 3.94603 1.34514 0
M  V30 3574 H 329.296 2.80558 1.63454 0
M  V30 3575 H 330.307 5.00297 -1.33877 0
M  V30 3576 H 326.984 4.03943 1.05527 0
M  V30 3577 H 328.374 6.31974 -2.28163 0
M  V30 3578 N 331.094 0.475555 1.50254 0
M  V30 3579 C 332.024 -0.30611 2.31485 0
M  V30 3580 C 333.005 -0.986228 1.38591 0
M  V30 3581 O 334.19 -0.982541 1.67511 0
M  V30 3582 C 331.32 -1.38588 3.1845 0
M  V30 3583 C 330.274 -0.827115 4.19932 0
M  V30 3584 C 329.6 -2.00551 4.95665 0
M  V30 3585 C 330.9 0.16463 5.2204 0
M  V30 3586 H 332.594 0.371866 2.97082 0
M  V30 3587 H 330.14 0.180282 1.42867 0
M  V30 3588 H 332.093 -1.94023 3.74076 0
M  V30 3589 H 330.817 -2.09269 2.50747 0
M  V30 3590 H 329.476 -0.294702 3.65414 0
M  V30 3591 H 329.124 -2.6994 4.2443 0
M  V30 3592 H 328.824 -1.63784 5.64313 0
M  V30 3593 H 330.348 -2.56468 5.54127 0
M  V30 3594 H 331.762 -0.300699 5.72511 0
M  V30 3595 H 330.159 0.446813 5.98434 0
M  V30 3596 H 331.229 1.08905 4.72512 0
M  V30 3597 N 332.573 -1.56217 0.208337 0
M  V30 3598 C 333.821 -1.97558 -0.426076 0
M  V30 3599 C 334.142 -1.09683 -1.61229 0
M  V30 3600 O 333.412 -0.170956 -1.95153 0
M  V30 3601 H 331.992 -0.729575 -0.160405 0
M  V30 3602 H 334.654 -1.92606 0.298155 0
M  V30 3603 H 333.75 -3.02672 -0.761312 0
M  V30 3604 N 334.051 0.0651679 -1.57465 0
M  V30 3605 C 335.299 0.761555 -1.87202 0
M  V30 3606 C 335.62 1.77778 -0.801243 0
M  V30 3607 O 334.89 1.95166 0.16937 0
M  V30 3608 H 333.47 0.284251 -0.690804 0
M  V30 3609 H 336.132 0.0396827 -1.9486 0
M  V30 3610 H 335.228 1.27365 -2.84929 0
M  V30 3611 N 335.529 1.53961 0.336706 0
M  V30 3612 C 336.775 1.7179 1.07777 0
M  V30 3613 C 337.108 0.483263 1.88091 0
M  V30 3614 O 336.383 -0.519747 1.87427 0
M  V30 3615 C 336.666 2.98558 2.01334 0
M  V30 3616 C 336.519 4.32245 1.24437 0
M  V30 3617 C 337.838 3.21023 3.01052 0
M  V30 3618 H 334.957 0.625089 0.390426 0
M  V30 3619 H 337.599 1.86641 0.35567 0
M  V30 3620 H 335.749 2.86028 2.62908 0
M  V30 3621 H 337.421 4.56637 0.654243 0
M  V30 3622 H 335.664 4.30344 0.546458 0
M  V30 3623 H 336.335 5.17137 1.93063 0
M  V30 3624 H 338.811 3.32929 2.49595 0
M  V30 3625 H 337.687 4.11104 3.6371 0
M  V30 3626 H 337.948 2.37637 3.72802 0
M  V30 3627 N 337.007 -0.598083 1.45811 0
M  V30 3628 C 338.254 -1.35681 1.50323 0
M  V30 3629 C 338.582 -1.9393 0.148739 0
M  V30 3630 O 337.837 -1.76094 -0.853787 0
M  V30 3631 C 338.136 -2.51669 2.53766 0
M  V30 3632 C 337.802 -2.11508 3.98215 0
M  V30 3633 C 336.464 -2.0027 4.37545 0
M  V30 3634 C 338.816 -1.80308 4.89018 0
M  V30 3635 C 336.144 -1.56067 5.65562 0
M  V30 3636 C 338.496 -1.37589 6.17456 0
M  V30 3637 C 337.16 -1.24916 6.55708 0
M  V30 3638 H 336.43 -0.496492 0.550069 0
M  V30 3639 H 339.077 -0.675052 1.79207 0
M  V30 3640 H 337.382 -3.25225 2.18486 0
M  V30 3641 H 339.079 -3.09895 2.54492 0
M  V30 3642 H 335.669 -2.21185 3.67117 0
M  V30 3643 H 339.853 -1.87884 4.59362 0
M  V30 3644 H 335.109 -1.44886 5.93985 0
M  V30 3645 H 339.283 -1.12495 6.87254 0
M  V30 3646 H 336.91 -0.904386 7.54801 0
M  V30 3647 N 338.485 -1.33259 -0.841409 0
M  V30 3648 C 339.395 -1.25332 -1.98316 0
M  V30 3649 C 340.411 -0.164364 -1.73222 0
M  V30 3650 O 341.587 -0.387486 -1.97637 0
M  V30 3651 C 338.652 -0.990078 -3.32262 0
M  V30 3652 C 337.713 -2.16879 -3.70489 0
M  V30 3653 C 336.946 -1.91801 -4.98044 0
M  V30 3654 O 337.169 -0.867075 -5.63771 0
M  V30 3655 O 336.103 -2.78267 -5.33714 0
M  V30 3656 H 339.929 -2.21344 -2.07944 0
M  V30 3657 H 337.514 -1.1328 -0.974058 0
M  V30 3658 H 339.396 -0.860321 -4.12524 0
M  V30 3659 H 338.071 -0.0602155 -3.23644 0
M  V30 3660 H 336.978 -2.35407 -2.90748 0
M  V30 3661 H 338.311 -3.0819 -3.8377 0
M  V30 3662 N 339.963 1.05934 -1.16686 0
M  V30 3663 C 340.893 2.1546 -0.899949 0
M  V30 3664 C 341.874 1.69391 0.155154 0
M  V30 3665 O 343.059 1.94199 0.00648693 0
M  V30 3666 C 340.189 3.44939 -0.404241 0
M  V30 3667 C 339.143 4.04536 -1.39767 0
M  V30 3668 C 338.469 5.29268 -0.760216 0
M  V30 3669 C 339.769 4.42893 -2.76845 0
M  V30 3670 H 341.463 2.38046 -1.81588 0
M  V30 3671 H 339.009 1.14404 -0.874514 0
M  V30 3672 H 340.962 4.20901 -0.204971 0
M  V30 3673 H 339.686 3.21983 0.547206 0
M  V30 3674 H 338.345 3.30635 -1.58355 0
M  V30 3675 H 337.993 5.02611 0.197831 0
M  V30 3676 H 337.693 5.70101 -1.42332 0
M  V30 3677 H 339.217 6.07924 -0.57105 0
M  V30 3678 H 340.631 5.09921 -2.62019 0
M  V30 3679 H 339.028 4.94721 -3.39663 0
M  V30 3680 H 340.098 3.53584 -3.31823 0
M  V30 3681 N 341.441 0.965919 1.2453 0
M  V30 3682 C 342.373 0.452465 2.2469 0
M  V30 3683 C 343.386 -0.437821 1.56802 0
M  V30 3684 O 344.575 -0.244283 1.76821 0
M  V30 3685 C 341.675 -0.366258 3.36915 0
M  V30 3686 C 340.848 0.513701 4.34373 0
M  V30 3687 C 339.907 -0.248716 5.25612 0
M  V30 3688 O 338.933 0.356745 5.68081 0
M  V30 3689 N 340.135 -1.53877 5.59734 0
M  V30 3690 H 342.9 1.31361 2.69378 0
M  V30 3691 H 340.461 0.837541 1.38553 0
M  V30 3692 H 342.453 -0.884297 3.94921 0
M  V30 3693 H 341.023 -1.12832 2.91526 0
M  V30 3694 H 340.243 1.21273 3.75082 0
M  V30 3695 H 341.531 1.11391 4.96457 0
M  V30 3696 H 340.929 -2.05243 5.27154 0
M  V30 3697 H 339.486 -2.00254 6.20275 0
M  V30 3698 N 342.919 -1.39368 0.735821 0
M  V30 3699 C 344.33 -1.83313 0.354015 0
M  V30 3700 C 344.681 -1.61461 -1.11466 0
M  V30 3701 O 343.806 -1.10621 -1.85989 0
M  V30 3702 C 344.401 -3.32781 0.635769 0
M  V30 3703 C 342.96 -3.75142 0.307448 0
M  V30 3704 C 342.107 -2.62358 0.897974 0
M  V30 3705 H 345.058 -1.28349 0.933398 0
M  V30 3706 H 345.079 -3.80388 -0.0921773 0
M  V30 3707 H 344.591 -3.48654 1.70476 0
M  V30 3708 H 342.692 -3.64857 -0.755674 0
M  V30 3709 H 342.805 -4.72532 0.790583 0
M  V30 3710 H 341.169 -2.52624 0.324551 0
M  V30 3711 H 341.952 -2.81036 1.97164 0
M  V30 3712 N 344.397 -0.483516 -1.5 0
M  V30 3713 C 345.645 0.067027 -2.01989 0
M  V30 3714 C 345.966 1.3909 -1.36671 0
M  V30 3715 O 345.236 1.88978 -0.516152 0
M  V30 3716 H 343.816 0.0277606 -0.746484 0
M  V30 3717 H 346.478 -0.636773 -1.84204 0
M  V30 3718 H 345.574 0.209484 -3.11396 0
M  V30 3719 N 345.875 1.56104 -0.216619 0
M  V30 3720 C 346.838 2.18819 0.681962 0
M  V30 3721 C 347.838 1.14866 1.12528 0
M  V30 3722 O 349.028 1.40128 1.03488 0
M  V30 3723 C 346.16 2.80756 1.93362 0
M  V30 3724 H 347.353 2.99595 0.135254 0
M  V30 3725 H 344.906 1.56265 0.0330003 0
M  V30 3726 H 345.641 2.03837 2.52232 0
M  V30 3727 H 345.426 3.56876 1.62426 0
M  V30 3728 H 346.916 3.28844 2.57393 0
M  V30 3729 N 347.353 -0.0568162 1.57498 0
M  V30 3730 C 348.578 -0.769402 1.92601 0
M  V30 3731 C 349.003 -1.69559 0.814336 0
M  V30 3732 O 348.361 -1.79811 -0.231903 0
M  V30 3733 C 348.409 -1.52634 3.26704 0
M  V30 3734 O 347.513 -2.63797 3.16994 0
M  V30 3735 H 346.854 -0.208909 0.63028 0
M  V30 3736 H 349.384 -0.0205798 2.0459 0
M  V30 3737 H 349.394 -1.90234 3.60936 0
M  V30 3738 H 348.069 -0.846875 4.07186 0
M  V30 3739 H 346.646 -2.28943 2.94346 0
M  V30 3740 N 348.832 -1.54138 -0.328536 0
M  V30 3741 C 350.078 -1.7236 -1.06865 0
M  V30 3742 C 350.411 -0.493231 -1.87832 0
M  V30 3743 O 349.686 0.5098 -1.877 0
M  V30 3744 C 349.969 -2.99621 -1.99747 0
M  V30 3745 C 349.822 -4.32899 -1.22143 0
M  V30 3746 C 351.141 -3.22615 -2.99345 0
M  V30 3747 H 348.26 -0.627151 -0.387105 0
M  V30 3748 H 350.902 -1.86827 -0.345767 0
M  V30 3749 H 349.052 -2.87418 -2.61387 0
M  V30 3750 H 350.724 -4.56978 -0.630017 0
M  V30 3751 H 348.967 -4.30628 -0.523628 0
M  V30 3752 H 349.638 -5.18154 -1.90318 0
M  V30 3753 H 352.114 -3.34248 -2.47826 0
M  V30 3754 H 350.99 -4.13027 -3.61524 0
M  V30 3755 H 351.251 -2.3961 -3.71536 0
M  V30 3756 N 350.31 0.590341 -1.46126 0
M  V30 3757 C 351.557 1.34882 -1.5104 0
M  V30 3758 C 351.885 1.93849 -0.159021 0
M  V30 3759 O 351.14 1.76544 0.844436 0
M  V30 3760 C 351.439 2.5032 -2.55097 0
M  V30 3761 C 351.105 2.09394 -3.99331 0
M  V30 3762 C 349.767 1.97947 -4.38601 0
M  V30 3763 C 352.119 1.77712 -4.89967 0
M  V30 3764 C 349.447 1.53065 -5.66381 0
M  V30 3765 C 351.799 1.34312 -6.18177 0
M  V30 3766 C 350.463 1.21436 -6.56361 0
M  V30 3767 H 349.733 0.493568 -0.552695 0
M  V30 3768 H 352.38 0.665539 -1.79563 0
M  V30 3769 H 350.685 3.24062 -2.20207 0
M  V30 3770 H 352.382 3.08541 -2.56132 0
M  V30 3771 H 348.972 2.19235 -3.68285 0
M  V30 3772 H 353.156 1.85445 -4.60352 0
M  V30 3773 H 348.412 1.41733 -5.94745 0
M  V30 3774 H 352.586 1.08849 -6.87841 0
M  V30 3775 H 350.213 0.864345 -7.5527 0
M  V30 3776 N 351.788 1.33704 0.83433 0
M  V30 3777 C 353.034 1.25603 1.59222 0
M  V30 3778 C 353.367 -0.176659 1.93395 0
M  V30 3779 O 352.642 -1.11915 1.59076 0
M  V30 3780 C 352.925 2.13576 2.89926 0
M  V30 3781 C 352.778 3.65326 2.62406 0
M  V30 3782 C 354.097 2.01238 3.91397 0
M  V30 3783 H 351.216 0.457613 0.577719 0
M  V30 3784 H 353.858 1.63848 0.961972 0
M  V30 3785 H 352.008 1.8109 3.43713 0
M  V30 3786 H 353.68 4.08124 2.15017 0
M  V30 3787 H 351.923 3.8698 1.96033 0
M  V30 3788 H 352.594 4.22232 3.55562 0
M  V30 3789 H 355.07 2.29738 3.46929 0
M  V30 3790 H 353.946 2.65036 4.80673 0
M  V30 3791 H 354.207 0.985951 4.30966 0
M  V30 3792 N 353.266 -1.05314 1.17247 0
M  V30 3793 C 354.214 -2.15137 0.884238 0
M  V30 3794 C 355.208 -1.68729 -0.15063 0
M  V30 3795 O 356.414 -1.8 -0.00366673 0
M  V30 3796 H 352.789 -0.702471 0.2684 0
M  V30 3797 H 354.76 -2.36652 1.81764 0
M  V30 3798 C 353.509 -3.45243 0.412659 0
M  V30 3799 H 352.832 -3.81352 1.20043 0
M  V30 3800 H 354.272 -4.23263 0.249858 0
M  V30 3801 C 352.731 -3.25487 -0.86948 0
M  V30 3802 O 353.261 -3.51938 -1.93655 0
M  V30 3803 N 351.467 -2.78875 -0.817147 0
M  V30 3804 H 351.014 -2.57549 0.0514211 0
M  V30 3805 H 350.972 -2.66036 -1.67547 0
M  V30 3806 N 354.744 -0.972509 -1.24016 0
M  V30 3807 C 355.99 -0.637978 -1.92504 0
M  V30 3808 C 356.323 0.825383 -1.75787 0
M  V30 3809 O 355.598 1.59442 -1.11393 0
M  V30 3810 C 355.881 -1.01942 -3.45369 0
M  V30 3811 C 355.734 -2.53983 -3.71231 0
M  V30 3812 C 357.053 -0.55751 -4.36555 0
M  V30 3813 H 354.172 -0.233248 -0.699117 0
M  V30 3814 H 356.814 -1.21238 -1.46292 0
M  V30 3815 H 354.964 -0.530656 -3.84859 0
M  V30 3816 H 356.636 -3.10374 -3.41271 0
M  V30 3817 H 354.879 -2.96968 -3.16216 0
M  V30 3818 H 355.55 -2.75723 -4.78206 0
M  V30 3819 H 358.026 -0.977029 -4.04467 0
M  V30 3820 H 356.902 -0.85292 -5.42233 0
M  V30 3821 H 357.163 0.542328 -4.38761 0
M  V30 3822 N 356.222 1.38976 -0.743202 0
M  V30 3823 C 357.45 2.04636 -0.30525 0
M  V30 3824 C 357.865 1.56044 1.06281 0
M  V30 3825 O 357.222 0.728921 1.67311 0
M  V30 3826 C 357.273 3.60193 -0.307177 0
M  V30 3827 O 356.994 4.06998 -1.62124 0
M  V30 3828 C 358.495 4.4306 0.145928 0
M  V30 3829 H 355.715 0.65788 -0.132041 0
M  V30 3830 H 358.259 1.77866 -1.00915 0
M  V30 3831 H 356.414 3.85835 0.347898 0
M  V30 3832 H 356.828 5.01371 -1.54036 0
M  V30 3833 H 358.302 5.51921 0.0934183 0
M  V30 3834 H 358.779 4.22706 1.19231 0
M  V30 3835 H 359.385 4.22584 -0.479886 0
M  V30 3836 N 357.7 0.491464 1.49741 0
M  V30 3837 C 358.977 -0.118984 1.95238 0
M  V30 3838 C 359.357 -1.55044 1.43264 0
M  V30 3839 O 358.705 -2.19287 0.642287 0
M  V30 3840 C 358.915 -0.0414187 3.48975 0
M  V30 3841 C 360.263 -0.220133 4.24029 0
M  V30 3842 O 361.287 -0.117055 3.56008 0
M  V30 3843 O 360.146 -0.430567 5.44801 0
M  V30 3844 H 357.24 -0.100536 0.820866 0
M  V30 3845 H 359.786 0.553322 1.60426 0
M  V30 3846 H 358.558 0.957214 3.79412 0
M  V30 3847 H 358.181 -0.754292 3.9038 0
M  V30 3848 N 359.178 -1.55987 0.224894 0
M  V30 3849 C 360.589 -1.84553 -0.282345 0
M  V30 3850 C 360.94 -1.14634 -1.59227 0
M  V30 3851 O 360.065 -0.417155 -2.12341 0
M  V30 3852 C 360.66 -3.348 -0.519062 0
M  V30 3853 C 359.219 -3.63671 -0.970604 0
M  V30 3854 C 358.366 -2.77277 -0.0355261 0
M  V30 3855 H 361.317 -1.52245 0.448006 0
M  V30 3856 H 361.338 -3.55187 -1.36463 0
M  V30 3857 H 360.85 -3.8566 0.43449 0
M  V30 3858 H 358.951 -3.1827 -1.9374 0
M  V30 3859 H 359.064 -4.71631 -0.842698 0
M  V30 3860 H 357.428 -2.48846 -0.542927 0
M  V30 3861 H 358.211 -3.30937 0.913003 0
M  V30 3862 N 360.656 0.0484629 -1.57525 0
M  V30 3863 C 361.881 0.759177 -1.93006 0
M  V30 3864 C 362.306 1.69125 -0.823317 0
M  V30 3865 O 361.664 1.79931 0.222364 0
M  V30 3866 C 361.712 1.50899 -3.27509 0
M  V30 3867 O 360.816 2.62112 -3.18388 0
M  V30 3868 H 360.157 0.205564 -0.631379 0
M  V30 3869 H 362.687 0.00972959 -2.04598 0
M  V30 3870 H 362.697 1.88317 -3.6194 0
M  V30 3871 H 361.372 0.825269 -4.0763 0
M  V30 3872 H 359.949 2.27379 -2.95556 0
M  V30 3873 N 362.134 1.5431 0.320358 0
M  V30 3874 C 363.066 1.80262 1.41556 0
M  V30 3875 C 364.079 0.684723 1.477 0
M  V30 3876 O 365.268 0.961886 1.50366 0
M  V30 3877 C 362.368 1.90825 2.8007 0
M  V30 3878 C 361.541 3.21023 2.97091 0
M  V30 3879 C 360.6 3.22247 4.15985 0
M  V30 3880 O 359.626 3.95871 4.08992 0
M  V30 3881 N 360.828 2.46258 5.25678 0
M  V30 3882 H 363.593 2.74778 1.19655 0
M  V30 3883 H 361.154 1.53646 0.510358 0
M  V30 3884 H 363.146 1.89067 3.57821 0
M  V30 3885 H 361.716 1.03392 2.95006 0
M  V30 3886 H 360.936 3.35715 2.06614 0
M  V30 3887 H 362.224 4.0698 3.05361 0
M  V30 3888 H 361.622 1.86037 5.34235 0
M  V30 3889 H 360.179 2.50275 6.01835 0
M  V30 3890 N 363.613 -0.582584 1.46437 0
M  V30 3891 C 364.859 -1.34278 1.51978 0
M  V30 3892 C 365.192 -1.93446 0.170973 0
M  V30 3893 O 364.467 -1.76481 -0.817608 0
M  V30 3894 C 364.75 -2.47203 2.61845 0
M  V30 3895 C 364.603 -1.93069 4.06257 0
M  V30 3896 C 365.922 -3.49247 2.67795 0
M  V30 3897 H 363.041 -0.486876 0.553282 0
M  V30 3898 H 365.683 -0.654437 1.78374 0
M  V30 3899 H 363.833 -3.0592 2.39469 0
M  V30 3900 H 365.505 -1.38808 4.3992 0
M  V30 3901 H 363.748 -1.23898 4.1573 0
M  V30 3902 H 364.419 -2.74586 4.7886 0
M  V30 3903 H 366.895 -3.00411 2.8791 0
M  V30 3904 H 365.771 -4.25719 3.46489 0
M  V30 3905 H 366.032 -4.06482 1.73852 0
M  V30 3906 N 365.091 -1.34144 -0.827227 0
M  V30 3907 C 366.316 -1.29476 -1.62021 0
M  V30 3908 C 366.741 0.129292 -1.87655 0
M  V30 3909 O 366.099 1.08967 -1.449 0
M  V30 3910 C 366.147 -2.08702 -2.94068 0
M  V30 3911 O 365.251 -1.45359 -3.85933 0
M  V30 3912 H 364.592 -0.444881 -0.492927 0
M  V30 3913 H 367.122 -1.76882 -1.02829 0
M  V30 3914 H 367.132 -2.19898 -3.43669 0
M  V30 3915 H 365.807 -3.12241 -2.74734 0
M  V30 3916 H 364.384 -1.42879 -3.44442 0
M  V30 3917 N 366.569 1.04691 -1.17803 0
M  V30 3918 C 367.519 2.10856 -0.867391 0
M  V30 3919 C 368.503 1.601 0.160206 0
M  V30 3920 O 369.695 1.76948 -0.042947 0
M  V30 3921 C 366.824 3.411 -0.388012 0
M  V30 3922 C 365.91 3.9864 -1.44732 0
M  V30 3923 N 366.301 4.30075 -2.66212 0
M  V30 3924 C 364.599 4.26439 -1.30637 0
M  V30 3925 C 365.3 4.76033 -3.34317 0
M  V30 3926 N 364.276 4.76462 -2.61696 0
M  V30 3927 H 368.078 2.33029 -1.79094 0
M  V30 3928 H 365.592 1.22386 -1.0675 0
M  V30 3929 H 367.589 4.16641 -0.146994 0
M  V30 3930 H 366.249 3.20357 0.529271 0
M  V30 3931 H 367.26 4.19917 -3.03134 0
M  V30 3932 H 363.937 4.15056 -0.451129 0
M  V30 3933 H 365.327 5.09427 -4.38103 0
M  V30 3934 N 368.047 0.979072 1.23499 0
M  V30 3935 C 369.295 0.645941 1.91499 0
M  V30 3936 C 369.616 -0.822948 1.76784 0
M  V30 3937 O 368.886 -1.58854 1.14639 0
M  V30 3938 H 367.466 0.235919 0.708767 0
M  V30 3939 H 370.128 1.2426 1.50152 0
M  V30 3940 H 369.224 0.896411 2.9895 0
M  V30 3941 N 369.525 -1.3858 0.750561 0
M  V30 3942 C 370.753 -2.04471 0.316098 0
M  V30 3943 C 371.168 -1.56606 -1.05452 0
M  V30 3944 O 370.525 -0.737784 -1.66922 0
M  V30 3945 C 370.576 -3.60025 0.326275 0
M  V30 3946 O 370.297 -4.06133 1.6428 0
M  V30 3947 C 371.798 -4.43131 -0.122429 0
M  V30 3948 H 369.018 -0.65717 0.135528 0
M  V30 3949 H 371.562 -1.77329 1.01857 0
M  V30 3950 H 369.717 -3.86014 -0.327431 0
M  V30 3951 H 370.131 -5.00547 1.56693 0
M  V30 3952 H 371.605 -5.51963 -0.0641473 0
M  V30 3953 H 372.082 -4.23333 -1.16988 0
M  V30 3954 H 372.688 -4.22323 0.50229 0
M  V30 3955 N 371.003 -0.499398 -1.49478 0
M  V30 3956 C 372.251 0.0455996 -2.02049 0
M  V30 3957 C 372.572 1.37633 -1.38138 0
M  V30 3958 O 371.842 1.8842 -0.536166 0
M  V30 3959 H 370.422 0.0198416 -0.746736 0
M  V30 3960 H 373.084 -0.656274 -1.83519 0
M  V30 3961 H 372.18 0.176445 -3.11601 0
M  V30 3962 N 372.481 1.55866 -0.233164 0
M  V30 3963 C 373.728 1.98603 0.395374 0
M  V30 3964 C 374.056 1.12105 1.58942 0
M  V30 3965 O 373.311 0.168656 1.94972 0
M  V30 3966 C 373.61 3.46856 0.861724 0
M  V30 3967 C 373.276 4.50348 -0.223066 0
M  V30 3968 C 371.938 4.78371 -0.521038 0
M  V30 3969 C 374.29 5.12355 -0.956124 0
M  V30 3970 C 371.618 5.6568 -1.55638 0
M  V30 3971 C 373.97 6.00786 -1.98089 0
M  V30 3972 C 372.634 6.27148 -2.28565 0
M  V30 3973 H 371.904 0.726739 0.144677 0
M  V30 3974 H 374.551 1.88491 -0.338114 0
M  V30 3975 H 372.856 3.5423 1.67418 0
M  V30 3976 H 374.553 3.77302 1.35809 0
M  V30 3977 H 371.143 4.28596 0.0193234 0
M  V30 3978 H 375.327 4.90765 -0.739166 0
M  V30 3979 H 370.583 5.84365 -1.798 0
M  V30 3980 H 374.757 6.4788 -2.55391 0
M  V30 3981 H 372.384 6.94597 -3.08932 0
M  V30 3982 N 373.959 -0.0401083 1.57549 0
M  V30 3983 C 375.187 -0.745196 1.93014 0
M  V30 3984 C 375.602 -1.6948 0.831984 0
M  V30 3985 O 374.959 -1.81482 -0.192463 0
M  V30 3986 C 375.01 -1.51176 3.28372 0
M  V30 3987 O 374.731 -0.600284 4.33968 0
M  V30 3988 C 376.232 -2.315 3.78051 0
M  V30 3989 H 373.452 -0.210088 0.637263 0
M  V30 3990 H 375.996 -0.000924689 2.045 0
M  V30 3991 H 374.151 -2.20801 3.18317 0
M  V30 3992 H 374.565 -1.13669 5.12035 0
M  V30 3993 H 376.039 -2.80697 4.75303 0
M  V30 3994 H 376.516 -3.12436 3.08675 0
M  V30 3995 H 377.122 -1.66971 3.91153 0
M  V30 3996 N 375.437 -1.54477 -0.31217 0
M  V30 3997 C 376.662 -1.77526 -1.07235 0
M  V30 3998 C 377.087 -0.527775 -1.80544 0
M  V30 3999 O 376.445 0.52121 -1.73646 0
M  V30 4000 C 376.493 -2.97535 -2.03728 0
M  V30 4001 O 375.597 -2.69878 -3.11833 0
M  V30 4002 H 374.938 -0.58792 -0.30862 0
M  V30 4003 H 377.468 -2.01532 -0.352993 0
M  V30 4004 H 377.478 -3.25198 -2.46395 0
M  V30 4005 H 376.153 -3.87996 -1.49774 0
M  V30 4006 H 374.73 -2.53199 -2.7376 0
M  V30 4007 N 376.915 0.57481 -1.46744 0
M  V30 4008 C 378.162 1.33272 -1.52462 0
M  V30 4009 C 378.49 1.93669 -0.179572 0
M  V30 4010 O 377.745 1.7743 0.825664 0
M  V30 4011 C 378.044 2.476 -2.57738 0
M  V30 4012 C 377.71 2.05146 -4.01529 0
M  V30 4013 C 376.372 1.93284 -4.40676 0
M  V30 4014 C 378.724 1.72506 -4.91824 0
M  V30 4015 C 376.052 1.47049 -5.67973 0
M  V30 4016 C 378.404 1.27748 -6.19567 0
M  V30 4017 C 377.068 1.14468 -6.57612 0
M  V30 4018 H 376.338 0.487678 -0.557899 0
M  V30 4019 H 378.985 0.646456 -1.80259 0
M  V30 4020 H 377.29 3.21708 -2.23632 0
M  V30 4021 H 378.987 3.05807 -2.5939 0
M  V30 4022 H 375.577 2.15316 -3.7059 0
M  V30 4023 H 379.761 1.80552 -4.62293 0
M  V30 4024 H 375.017 1.35417 -5.96215 0
M  V30 4025 H 379.191 1.01547 -6.88957 0
M  V30 4026 H 376.818 0.78419 -7.56145 0
M  V30 4027 N 378.394 1.34581 0.820102 0
M  V30 4028 C 379.642 1.26845 1.57336 0
M  V30 4029 C 379.963 -0.160667 1.94337 0
M  V30 4030 O 379.233 -1.09396 1.6251 0
M  V30 4031 H 377.813 0.466514 0.583415 0
M  V30 4032 H 380.475 1.68526 0.979027 0
M  V30 4033 H 379.571 1.87513 2.4949 0
M  V30 4034 N 379.872 -1.04064 1.18357 0
M  V30 4035 C 380.802 -2.14001 0.934113 0
M  V30 4036 C 381.783 -1.69616 -0.128186 0
M  V30 4037 O 382.968 -1.94185 0.0244093 0
M  V30 4038 C 380.098 -3.44253 0.459066 0
M  V30 4039 C 379.052 -4.02261 1.46185 0
M  V30 4040 C 378.378 -5.27992 0.844322 0
M  V30 4041 C 379.678 -4.38432 2.83856 0
M  V30 4042 H 381.372 -2.35127 1.85352 0
M  V30 4043 H 378.918 -1.12998 0.892604 0
M  V30 4044 H 380.871 -4.20522 0.271907 0
M  V30 4045 H 379.595 -3.22813 -0.495912 0
M  V30 4046 H 378.254 -3.28074 1.63595 0
M  V30 4047 H 377.902 -5.02862 -0.117845 0
M  V30 4048 H 377.602 -5.67765 1.51384 0
M  V30 4049 H 379.126 -6.06938 0.667693 0
M  V30 4050 H 380.54 -5.05688 2.70098 0
M  V30 4051 H 378.937 -4.89254 3.47491 0
M  V30 4052 H 380.007 -3.4826 3.37406 0
M  V30 4053 N 381.35 -0.985608 -1.22978 0
M  V30 4054 C 382.28 -0.549649 -2.26939 0
M  V30 4055 C 383.261 0.419803 -1.64838 0
M  V30 4056 O 384.446 0.31203 -1.91677 0
M  V30 4057 C 381.576 0.143652 -3.47003 0
M  V30 4058 C 380.53 -0.743606 -4.21491 0
M  V30 4059 C 379.856 0.0822027 -5.34637 0
M  V30 4060 C 381.156 -2.03694 -4.80943 0
M  V30 4061 H 382.85 -1.41862 -2.63658 0
M  V30 4062 H 380.396 -0.683571 -1.26741 0
M  V30 4063 H 382.349 0.459985 -4.18882 0
M  V30 4064 H 381.073 1.04711 -3.09359 0
M  V30 4065 H 379.732 -1.04347 -3.51436 0
M  V30 4066 H 379.38 0.986359 -4.93234 0
M  V30 4067 H 379.08 -0.508377 -5.85397 0
M  V30 4068 H 380.604 0.392797 -6.09335 0
M  V30 4069 H 382.018 -1.78504 -5.44802 0
M  V30 4070 H 380.415 -2.57573 -5.42011 0
M  V30 4071 H 381.485 -2.72042 -4.01399 0
M  V30 4072 N 382.828 1.3818 -0.7579 0
M  V30 4073 C 383.775 2.30416 -0.133057 0
M  V30 4074 C 384.745 1.50398 0.704957 0
M  V30 4075 O 385.93 1.79014 0.660192 0
M  V30 4076 C 383.07 3.36834 0.750813 0
M  V30 4077 C 382.183 4.31879 -0.102297 0
M  V30 4078 C 381.318 5.25368 0.784979 0
M  V30 4079 C 380.357 6.12058 -0.0715046 0
M  V30 4080 N 379.494 6.97832 0.772972 0
M  V30 4081 H 384.334 2.83274 -0.925186 0
M  V30 4082 H 381.871 1.39461 -0.467866 0
M  V30 4083 H 383.829 3.97145 1.27794 0
M  V30 4084 H 382.459 2.85374 1.50868 0
M  V30 4085 H 381.511 3.72991 -0.747095 0
M  V30 4086 H 382.823 4.92921 -0.763552 0
M  V30 4087 H 381.977 5.90818 1.37911 0
M  V30 4088 H 380.716 4.64703 1.47996 0
M  V30 4089 H 379.721 5.456 -0.678272 0
M  V30 4090 H 380.946 6.74793 -0.763606 0
M  V30 4091 H 378.892 6.3971 1.45282 0
M  V30 4092 H 378.809 7.55812 0.168709 0
M  V30 4093 H 380.077 7.67687 1.35194 0
M  V30 4094 N 384.306 0.507319 1.49211 0
M  V30 4095 C 385.236 -0.256939 2.32082 0
M  V30 4096 C 386.217 -0.956609 1.40652 0
M  V30 4097 O 387.402 -0.946788 1.69557 0
M  V30 4098 C 384.532 -1.31802 3.21318 0
M  V30 4099 C 383.486 -0.737855 4.21592 0
M  V30 4100 C 382.812 -1.89992 4.99807 0
M  V30 4101 C 384.112 0.275325 5.21574 0
M  V30 4102 H 385.806 0.434798 2.96226 0
M  V30 4103 H 383.352 0.210546 1.42452 0
M  V30 4104 H 385.305 -1.86045 3.78107 0
M  V30 4105 H 384.029 -2.03903 2.5513 0
M  V30 4106 H 382.688 -0.217126 3.65956 0
M  V30 4107 H 382.336 -2.60877 4.30061 0
M  V30 4108 H 382.036 -1.51777 5.6766 0
M  V30 4109 H 383.56 -2.44657 5.59442 0
M  V30 4110 H 384.974 -0.179193 5.7302 0
M  V30 4111 H 383.371 0.573649 5.97352 0
M  V30 4112 H 384.441 1.18903 4.70096 0
M  V30 4113 O 385.823 -1.56889 0.38316 0
M  V30 4114 H 386.514 -1.93009 -0.163415 0
M  V30 END ATOM
M  V30 BEGIN BOND
M  V30 END BOND
M  V30 END CTAB
M  END
$$$$
