drugbank_target|P29973 cGMP-gated cation channel alpha-1 (DB04209)
 OpenBabel12092121023D

  0  0  0     0  0            999 V3000
M  V30 BEGIN CTAB
M  V30 COUNTS 11268 11375 0 0 0
M  V30 BEGIN ATOM
M  V30 1 H -0.908 1.98254 -0.117106 0
M  V30 2 N 0 1.576 0 0
M  V30 3 C 0.933 2.03868 1.02534 0
M  V30 4 C 1.911 0.928543 1.3348 0
M  V30 5 O 3.095 1.19667 1.45644 0
M  V30 6 C 0.222 2.43627 2.35294 0
M  V30 7 C -0.732 3.65373 2.2001 0
M  V30 8 S 0.101 5.13292 1.52614 0
M  V30 9 C 1.257 5.56322 2.86805 0
M  V30 10 H 1.49 2.90518 0.631377 0
M  V30 11 H -0.977 1.52953 0.210867 0
M  V30 12 H 0.981 2.67203 3.11629 0
M  V30 13 H -0.358 1.57376 2.7183 0
M  V30 14 H -1.165 3.90944 3.18086 0
M  V30 15 H -1.563 3.418 1.51819 0
M  V30 16 H 0.729 5.58782 3.83104 0
M  V30 17 H 1.672 6.56266 2.65933 0
M  V30 18 H 2.08 4.83886 2.90714 0
M  V30 19 N 1.4781 -0.272755 1.55222 0
M  V30 20 C 2.4251 -1.33716 1.88119 0
M  V30 21 C 3.3951 -1.49066 0.73271 0
M  V30 22 O 4.5801 -1.63469 0.984002 0
M  V30 23 C 1.7201 -2.69238 2.15882 0
M  V30 24 C 0.8331 -2.62108 3.43399 0
M  V30 25 C -0.0319 -3.89811 3.60861 0
M  V30 26 C -0.9929 -3.77193 4.8207 0
M  V30 27 N -1.8559 -4.9673 4.96189 0
M  V30 28 H 2.9841 -1.04962 2.78903 0
M  V30 29 H 0.5211 -0.507088 1.38083 0
M  V30 30 H 2.4791 -3.48089 2.29978 0
M  V30 31 H 1.1091 -2.96194 1.28331 0
M  V30 32 H 0.1611 -1.74967 3.37773 0
M  V30 33 H 1.4731 -2.48685 4.32386 0
M  V30 34 H 0.6271 -4.77103 3.74777 0
M  V30 35 H -0.6339 -4.06102 2.7006 0
M  V30 36 H -1.6289 -2.88284 4.68159 0
M  V30 37 H -0.4039 -3.62421 5.74307 0
M  V30 38 H -2.4579 -5.13431 4.08319 0
M  V30 39 H -2.5409 -4.85839 5.79221 0
M  V30 40 H -1.2729 -5.85594 5.1449 0
M  V30 41 N 2.9562 -1.48159 -0.537278 0
M  V30 42 C 3.8862 -1.65029 -1.6519 0
M  V30 43 C 4.8672 -0.499281 -1.62607 0
M  V30 44 O 6.0522 -0.730972 -1.79918 0
M  V30 45 C 3.1822 -1.68303 -3.03795 0
M  V30 46 C 2.1362 -2.8283 -3.21234 0
M  V30 47 C 1.4622 -2.71189 -4.60826 0
M  V30 48 C 2.7622 -4.24211 -3.04701 0
M  V30 49 H 4.4562 -2.58341 -1.51328 0
M  V30 50 H 2.0022 -1.24325 -0.726585 0
M  V30 51 H 3.9552 -1.78693 -3.81637 0
M  V30 52 H 2.6792 -0.715635 -3.18663 0
M  V30 53 H 1.3382 -2.71983 -2.45807 0
M  V30 54 H 0.9862 -1.72435 -4.7252 0
M  V30 55 H 0.6862 -3.48035 -4.7344 0
M  V30 56 H 2.2102 -2.83537 -5.40777 0
M  V30 57 H 3.6242 -4.3593 -3.72341 0
M  V30 58 H 2.0212 -5.01998 -3.28813 0
M  V30 59 H 3.0912 -4.41184 -2.01209 0
M  V30 60 N 4.4343 0.785586 -1.36625 0
M  V30 61 C 5.6593 1.57963 -1.34397 0
M  V30 62 C 6.0843 1.87964 0.071526 0
M  V30 63 O 5.4423 1.48182 1.0446 0
M  V30 64 C 5.4903 2.87511 -2.17646 0
M  V30 65 O 4.5943 3.81281 -1.57158 0
M  V30 66 H 3.9353 0.479014 -0.459828 0
M  V30 67 H 6.4653 0.973411 -1.79961 0
M  V30 68 H 6.4753 3.36745 -2.30362 0
M  V30 69 H 5.1503 2.65002 -3.20541 0
M  V30 70 H 3.7273 3.39885 -1.53403 0
M  V30 71 N 5.9124 1.20967 1.01018 0
M  V30 72 C 6.8454 0.907578 2.09376 0
M  V30 73 C 7.8234 -0.142868 1.61971 0
M  V30 74 O 9.0074 -0.0150391 1.88494 0
M  V30 75 C 6.1344 0.361791 3.36762 0
M  V30 76 C 5.1804 1.39423 4.03068 0
M  V30 77 S 6.0134 2.96159 4.4615 0
M  V30 78 C 7.1694 2.43173 5.7673 0
M  V30 79 H 7.4024 1.82519 2.34678 0
M  V30 80 H 4.9354 1.03884 1.14225 0
M  V30 81 H 6.8934 0.0534523 4.10465 0
M  V30 82 H 5.5544 -0.53443 3.0952 0
M  V30 83 H 4.7474 0.961853 4.94737 0
M  V30 84 H 4.3494 1.65038 3.35617 0
M  V30 85 H 6.6414 1.83335 6.52223 0
M  V30 86 H 7.5844 3.33264 6.24773 0
M  V30 87 H 7.9924 1.85069 5.33301 0
M  V30 88 N 7.3905 -1.2043 1.01659 0
M  V30 89 C 8.3375 -2.23215 0.586822 0
M  V30 90 C 9.3075 -1.61382 -0.393085 0
M  V30 91 O 10.4925 -1.88544 -0.292525 0
M  V30 92 C 7.6325 -3.45032 -0.0687464 0
M  V30 93 C 6.7455 -4.21296 0.955724 0
M  V30 94 C 5.8805 -5.30507 0.271208 0
M  V30 95 C 4.9195 -5.98515 1.28244 0
M  V30 96 N 4.0565 -6.99316 0.62459 0
M  V30 97 H 8.8965 -2.59336 1.46796 0
M  V30 98 H 6.4335 -1.27431 0.734836 0
M  V30 99 H 8.3915 -4.1459 -0.465965 0
M  V30 100 H 7.0215 -3.09604 -0.913529 0
M  V30 101 H 6.0735 -3.50803 1.4711 0
M  V30 102 H 7.3855 -4.6803 1.72479 0
M  V30 103 H 6.5395 -6.06428 -0.18151 0
M  V30 104 H 5.2785 -4.8481 -0.530163 0
M  V30 105 H 4.2835 -5.21355 1.74554 0
M  V30 106 H 5.5085 -6.46298 2.08509 0
M  V30 107 H 3.4545 -6.55812 -0.156914 0
M  V30 108 H 3.3715 -7.44178 1.33172 0
M  V30 109 H 4.6395 -7.79255 0.195462 0
M  V30 110 N 8.8686 -0.792821 -1.36206 0
M  V30 111 C 9.8166 -0.181555 -2.3189 0
M  V30 112 C 10.8106 0.661025 -1.55971 0
M  V30 113 O 12.0166 0.555728 -1.71206 0
M  V30 114 H 8.3916 -0.0399382 -0.750939 0
M  V30 115 H 10.3626 -1.00394 -2.81005 0
M  V30 116 C 9.1116 0.666444 -3.41253 0
M  V30 117 H 8.4346 0.0274489 -3.99791 0
M  V30 118 H 9.8746 1.06076 -4.10517 0
M  V30 119 C 8.3336 1.82614 -2.83114 0
M  V30 120 O 8.8636 2.9229 -2.75553 0
M  V30 121 N 7.0696 1.63333 -2.40356 0
M  V30 122 H 6.6166 0.741217 -2.46706 0
M  V30 123 H 6.5746 2.41087 -2.01803 0
M  V30 124 N 10.3467 1.47872 -0.545128 0
M  V30 125 C 11.2947 2.31533 0.222512 0
M  V30 126 C 12.2887 1.42177 0.920985 0
M  V30 127 O 13.4947 1.59005 0.843645 0
M  V30 128 H 9.8697 0.746519 0.0906278 0
M  V30 129 H 11.8407 2.94139 -0.50246 0
M  V30 130 C 10.5897 3.2457 1.24699 0
M  V30 131 H 9.9127 3.93283 0.718944 0
M  V30 132 H 11.3527 3.85963 1.75523 0
M  V30 133 C 9.8117 2.47237 2.28856 0
M  V30 134 O 10.3417 2.20808 3.35569 0
M  V30 135 N 8.5477 2.08461 2.02466 0
M  V30 136 H 8.0947 2.30155 1.157 0
M  V30 137 H 8.0527 1.57033 2.72375 0
M  V30 138 N 11.8248 0.280983 1.55075 0
M  V30 139 C 13.0738 -0.334784 1.98902 0
M  V30 140 C 13.3868 -1.56534 1.17288 0
M  V30 141 O 14.5928 -2.25443 1.51287 0
M  V30 142 C 13.0488 -0.646994 3.54037 0
M  V30 143 C 12.6568 0.564085 4.44435 0
M  V30 144 C 14.4008 -1.22506 4.06439 0
M  V30 145 C 12.3078 0.226137 5.90967 0
M  V30 146 H 11.2378 -0.128866 0.742906 0
M  V30 147 H 13.8888 0.386556 1.79382 0
M  V30 148 H 12.2708 -1.42739 3.6938 0
M  V30 149 H 13.4448 1.34082 4.40861 0
M  V30 150 H 11.7598 1.0594 4.02698 0
M  V30 151 H 14.3568 -1.49182 5.13468 0
M  V30 152 H 14.6998 -2.16085 3.55827 0
M  V30 153 H 15.2328 -0.50682 3.94558 0
M  V30 154 H 11.9718 1.12996 6.45687 0
M  V30 155 H 11.4918 -0.513717 5.97596 0
M  V30 156 H 13.1708 -0.179539 6.46751 0
M  V30 157 N 13.3029 -1.57598 0.00835791 0
M  V30 158 C 14.5519 -1.90107 -0.673968 0
M  V30 159 C 14.8649 -0.884275 -1.7447 0
M  V30 160 O 16.0709 -1.09987 -2.48224 0
M  V30 161 C 14.5269 -3.37497 -1.24995 0
M  V30 162 C 14.1349 -4.47491 -0.2136 0
M  V30 163 C 15.8789 -3.79104 -1.90999 0
M  V30 164 C 13.7859 -5.85963 -0.80005 0
M  V30 165 H 12.7159 -0.709393 -0.255495 0
M  V30 166 H 15.3669 -1.83365 0.0702693 0
M  V30 167 H 13.7489 -3.39102 -2.04513 0
M  V30 168 H 14.9229 -4.57414 0.557596 0
M  V30 169 H 13.2379 -4.14956 0.346474 0
M  V30 170 H 15.8349 -4.79901 -2.35795 0
M  V30 171 H 16.1779 -3.1306 -2.74407 0
M  V30 172 H 16.7109 -3.79833 -1.18203 0
M  V30 173 H 13.4499 -6.555 -0.00456708 0
M  V30 174 H 12.9699 -5.79687 -1.54021 0
M  V30 175 H 14.6489 -6.33884 -1.29615 0
M  V30 176 N 14.781 0.264519 -1.55364 0
M  V30 177 C 15.729 1.34702 -1.89626 0
M  V30 178 C 16.723 1.50712 -0.773459 0
M  V30 179 O 17.929 1.52395 -0.957897 0
M  V30 180 H 14.304 0.450682 -0.601988 0
M  V30 181 H 16.275 1.0306 -2.80038 0
M  V30 182 C 15.024 2.6989 -2.19214 0
M  V30 183 H 14.347 2.58365 -3.05103 0
M  V30 184 H 15.787 3.44553 -2.47102 0
M  V30 185 C 14.246 3.21637 -1.00254 0
M  V30 186 O 14.776 4.00973 -0.241501 0
M  V30 187 N 12.982 2.7943 -0.797938 0
M  V30 188 H 12.529 2.15026 -1.4185 0
M  V30 189 H 12.487 3.144 -0.00363422 0
M  V30 190 N 16.2591 1.48442 0.529413 0
M  V30 191 C 17.4871 1.60151 1.30994 0
M  V30 192 C 17.9021 0.261985 1.86973 0
M  V30 193 O 17.2591 -0.748805 1.66431 0
M  V30 194 C 17.3101 2.64854 2.46038 0
M  V30 195 O 17.0311 3.93608 1.92365 0
M  V30 196 C 18.5321 2.87007 3.37849 0
M  V30 197 H 15.7521 0.539971 0.398338 0
M  V30 198 H 18.2961 1.94273 0.638597 0
M  V30 199 H 16.4511 2.33589 3.09055 0
M  V30 200 H 16.8651 4.51055 2.67675 0
M  V30 201 H 18.3391 3.64068 4.14919 0
M  V30 202 H 18.8161 1.95852 3.93114 0
M  V30 203 H 19.4221 3.19579 2.80623 0
M  V30 204 N 17.7372 -0.778329 1.37039 0
M  V30 205 C 18.6692 -1.90034 1.2814 0
M  V30 206 C 19.6822 -1.61585 0.198558 0
M  V30 207 O 20.8712 -1.72625 0.454175 0
M  V30 208 C 17.9712 -3.25108 0.956968 0
M  V30 209 C 17.1442 -3.81253 2.14394 0
M  V30 210 C 16.2032 -4.94789 1.79082 0
M  V30 211 O 15.2292 -5.10721 2.51301 0
M  V30 212 N 16.4312 -5.75878 0.731043 0
M  V30 213 H 19.1962 -1.98186 2.24816 0
M  V30 214 H 16.7572 -0.957129 1.30578 0
M  V30 215 H 18.7492 -3.9857 0.701701 0
M  V30 216 H 17.3192 -3.125 0.0789812 0
M  V30 217 H 16.5392 -2.99647 2.56135 0
M  V30 218 H 17.8272 -4.15495 2.93668 0
M  V30 219 H 17.2252 -5.65547 0.131618 0
M  V30 220 H 15.7822 -6.49596 0.535622 0
M  V30 221 N 19.2153 -1.21501 -1.00376 0
M  V30 222 C 20.1473 -0.933174 -2.09343 0
M  V30 223 C 21.1603 0.0840896 -1.62583 0
M  V30 224 O 22.3493 -0.148563 -1.77881 0
M  V30 225 C 19.4493 -0.379869 -3.36764 0
M  V30 226 C 18.6223 -1.45176 -4.12605 0
M  V30 227 C 17.6813 -0.907476 -5.18316 0
M  V30 228 O 16.7073 -1.5912 -5.46507 0
M  V30 229 N 17.9093 0.276649 -5.7984 0
M  V30 230 H 20.6743 -1.87124 -2.34104 0
M  V30 231 H 18.2353 -1.12043 -1.16867 0
M  V30 232 H 20.2273 -0.00131488 -4.047 0
M  V30 233 H 18.7973 0.463048 -3.09151 0
M  V30 234 H 18.0173 -2.00411 -3.39454 0
M  V30 235 H 19.3053 -2.17328 -4.6005 0
M  V30 236 H 18.7033 0.849147 -5.59291 0
M  V30 237 H 17.2603 0.596702 -6.49063 0
M  V30 238 N 20.6934 1.19889 -1.02296 0
M  V30 239 C 21.9184 1.9393 -0.735237 0
M  V30 240 C 22.3434 1.74639 0.698782 0
M  V30 241 O 21.7014 1.04481 1.48167 0
M  V30 242 C 21.7494 3.43916 -1.08417 0
M  V30 243 O 20.8534 4.11917 -0.199446 0
M  V30 244 H 20.1944 0.605645 -0.272196 0
M  V30 245 H 22.7244 1.52137 -1.36804 0
M  V30 246 H 22.7344 3.9456 -1.03856 0
M  V30 247 H 21.4094 3.5728 -2.12894 0
M  V30 248 H 19.9864 3.71666 -0.303136 0
M  V30 249 N 22.1715 0.800033 1.35784 0
M  V30 250 C 23.4185 0.377342 1.98953 0
M  V30 251 C 23.7465 -1.05378 1.6348 0
M  V30 252 O 23.0015 -1.74459 0.886707 0
M  V30 253 C 23.3005 0.500276 3.53881 0
M  V30 254 C 22.9665 1.89375 4.09204 0
M  V30 255 C 21.6285 2.27499 4.24025 0
M  V30 256 C 23.9805 2.8057 4.39238 0
M  V30 257 C 21.3085 3.562 4.66195 0
M  V30 258 C 23.6605 4.0871 4.82844 0
M  V30 259 C 22.3245 4.46843 4.95871 0
M  V30 260 H 21.5945 0.138079 0.728021 0
M  V30 261 H 24.2415 1.01955 1.62103 0
M  V30 262 H 22.5465 -0.225405 3.91151 0
M  V30 263 H 24.2435 0.154097 4.00704 0
M  V30 264 H 20.8335 1.58753 3.98115 0
M  V30 265 H 25.0175 2.52367 4.27346 0
M  V30 266 H 20.2735 3.85602 4.74469 0
M  V30 267 H 24.4475 4.79481 5.05046 0
M  V30 268 H 22.0745 5.46623 5.28306 0
M  V30 269 N 23.6496 -1.47581 0.552962 0
M  V30 270 C 24.8956 -2.02782 0.0273648 0
M  V30 271 C 25.2286 -1.42687 -1.31734 0
M  V30 272 O 24.5036 -0.580897 -1.85623 0
M  V30 273 C 24.7866 -3.60031 -0.0702371 0
M  V30 274 C 24.6396 -4.30566 1.30126 0
M  V30 275 C 25.9586 -4.33028 -0.785771 0
M  V30 276 H 23.0776 -0.736912 0.0114185 0
M  V30 277 H 25.7196 -1.76056 0.714432 0
M  V30 278 H 23.8696 -3.82932 -0.655382 0
M  V30 279 H 25.5416 -4.19018 1.92929 0
M  V30 280 H 23.7846 -3.91086 1.87709 0
M  V30 281 H 24.4556 -5.39114 1.18573 0
M  V30 282 H 26.9316 -4.15095 -0.288982 0
M  V30 283 H 25.8076 -5.42695 -0.823013 0
M  V30 284 H 26.0686 -4.01945 -1.841 0
M  V30 285 N 25.1277 -0.289203 -1.54924 0
M  V30 286 C 26.3557 0.326463 -2.04308 0
M  V30 287 C 26.7707 1.48413 -1.16701 0
M  V30 288 O 26.1277 1.81507 -0.190087 0
M  V30 289 C 26.1787 0.794014 -3.52672 0
M  V30 290 O 25.8997 -0.317564 -4.36948 0
M  V30 291 C 27.4007 1.47605 -4.18004 0
M  V30 292 H 24.6207 0.0726272 -0.667058 0
M  V30 293 H 27.1647 -0.425401 -2.00026 0
M  V30 294 H 25.3197 1.49593 -3.57352 0
M  V30 295 H 25.7337 0.0443186 -5.24481 0
M  V30 296 H 27.2077 1.75447 -5.23376 0
M  V30 297 H 27.6847 2.41224 -3.67025 0
M  V30 298 H 28.2907 0.81762 -4.17367 0
M  V30 299 N 26.6058 1.57591 -0.0167156 0
M  V30 300 C 27.5388 2.04944 1.00366 0
M  V30 301 C 28.5168 0.942648 1.32487 0
M  V30 302 O 29.7008 1.21205 1.44367 0
M  V30 303 C 26.8278 2.46109 2.32697 0
M  V30 304 C 25.8738 3.67686 2.16123 0
M  V30 305 S 26.7068 5.14882 1.47161 0
M  V30 306 C 27.8628 5.59332 2.80888 0
M  V30 307 H 28.0958 2.91172 0.600528 0
M  V30 308 H 25.6288 1.53168 0.194632 0
M  V30 309 H 27.5868 2.70493 3.08778 0
M  V30 310 H 26.2478 1.6025 2.70146 0
M  V30 311 H 25.4408 3.94296 3.13922 0
M  V30 312 H 25.0428 3.43391 1.48185 0
M  V30 313 H 27.3348 5.62814 3.77156 0
M  V30 314 H 28.2778 6.5905 2.58958 0
M  V30 315 H 28.6858 4.86942 2.85565 0
M  V30 316 N 28.0839 -0.256276 1.55502 0
M  V30 317 C 29.4949 -0.826068 1.67431 0
M  V30 318 C 29.8459 -1.86396 0.612446 0
M  V30 319 O 28.9709 -2.15031 -0.243025 0
M  V30 320 C 29.5659 -1.50512 3.03532 0
M  V30 321 C 28.1249 -2.02273 3.17431 0
M  V30 322 C 27.2719 -0.870548 2.63281 0
M  V30 323 H 30.2229 -0.0322728 1.58667 0
M  V30 324 H 30.2439 -2.37279 2.97454 0
M  V30 325 H 29.7559 -0.749484 3.80794 0
M  V30 326 H 27.8569 -2.80746 2.44974 0
M  V30 327 H 27.9699 -2.22655 4.24219 0
M  V30 328 H 26.3339 -1.26851 2.20864 0
M  V30 329 H 27.1169 -0.128149 3.43061 0
M  V30 330 N 29.562 -1.4872 -0.521534 0
M  V30 331 C 30.51 -1.64328 -1.64618 0
M  V30 332 C 31.504 -0.50953 -1.61555 0
M  V30 333 O 32.71 -0.688525 -1.66311 0
M  V30 334 H 29.085 -0.517805 -0.545328 0
M  V30 335 H 31.056 -2.58767 -1.48601 0
M  V30 336 C 29.805 -1.70805 -3.02855 0
M  V30 337 H 29.128 -2.5741 -3.05909 0
M  V30 338 H 30.568 -1.85766 -3.81139 0
M  V30 339 C 29.027 -0.448479 -3.33902 0
M  V30 340 O 29.557 0.434928 -3.99339 0
M  V30 341 N 27.763 -0.317616 -2.88859 0
M  V30 342 H 27.31 -1.03748 -2.35784 0
M  V30 343 H 27.268 0.524113 -3.10001 0
M  V30 344 N 31.0401 0.771051 -1.3745 0
M  V30 345 C 32.2861 1.5319 -1.32894 0
M  V30 346 C 32.6191 1.94008 0.0862511 0
M  V30 347 O 31.8941 1.64124 1.04373 0
M  V30 348 C 32.1771 2.79648 -2.26868 0
M  V30 349 C 32.0301 2.45079 -3.77169 0
M  V30 350 C 33.3491 3.81583 -2.19277 0
M  V30 351 H 30.4681 0.555744 -0.484064 0
M  V30 352 H 33.1101 0.884492 -1.68157 0
M  V30 353 H 31.2601 3.34891 -1.96926 0
M  V30 354 H 32.9321 1.95745 -4.1771 0
M  V30 355 H 31.1751 1.77767 -3.95704 0
M  V30 356 H 31.8461 3.35478 -4.38359 0
M  V30 357 H 34.3221 3.35835 -2.45671 0
M  V30 358 H 33.1981 4.67787 -2.87171 0
M  V30 359 H 33.4591 4.25897 -1.18592 0
M  V30 360 N 32.5182 1.22032 0.997298 0
M  V30 361 C 33.7672 1.03637 1.73038 0
M  V30 362 C 34.0802 -0.429475 1.90827 0
M  V30 363 O 35.2862 -0.732995 2.61418 0
M  V30 364 C 33.7422 1.80582 3.11317 0
M  V30 365 C 33.3502 3.31387 3.01474 0
M  V30 366 C 35.0942 1.70621 3.88701 0
M  V30 367 C 33.0012 4.00791 4.3488 0
M  V30 368 H 31.9312 0.384179 0.648785 0
M  V30 369 H 34.5822 1.4584 1.11368 0
M  V30 370 H 32.9642 1.31175 3.73643 0
M  V30 371 H 34.1382 3.88155 2.4834 0
M  V30 372 H 32.4532 3.41976 2.37575 0
M  V30 373 H 35.0502 2.19799 4.87434 0
M  V30 374 H 35.3932 0.665823 4.10941 0
M  V30 375 H 35.9262 2.17547 3.33044 0
M  V30 376 H 32.6652 5.05064 4.1784 0
M  V30 377 H 32.1852 3.48811 4.87945 0
M  V30 378 H 33.8642 4.06139 5.03647 0
M  V30 379 N 33.9963 -1.19345 1.0293 0
M  V30 380 C 35.2423 -1.89318 0.727083 0
M  V30 381 C 35.5753 -1.79446 -0.742483 0
M  V30 382 O 34.8503 -1.1871 -1.54072 0
M  V30 383 C 35.1333 -3.40238 1.17942 0
M  V30 384 C 34.9863 -3.58979 2.71024 0
M  V30 385 C 36.3053 -4.33479 0.760548 0
M  V30 386 H 33.4243 -0.687475 0.265606 0
M  V30 387 H 36.0663 -1.40477 1.2793 0
M  V30 388 H 34.2163 -3.81964 0.709608 0
M  V30 389 H 35.8883 -3.26421 3.25955 0
M  V30 390 H 34.1313 -3.02018 3.11396 0
M  V30 391 H 34.8023 -4.64823 2.9773 0
M  V30 392 H 37.2783 -3.99469 1.16464 0
M  V30 393 H 36.1543 -5.37664 1.10493 0
M  V30 394 H 36.4153 -4.40813 -0.337063 0
M  V30 395 N 35.4744 -0.807222 -1.35358 0
M  V30 396 C 36.8854 -0.44876 -1.81226 0
M  V30 397 C 37.2364 1.02929 -1.67033 0
M  V30 398 O 36.3614 1.79991 -1.20133 0
M  V30 399 C 36.9564 -0.807774 -3.2903 0
M  V30 400 C 35.5154 -0.501901 -3.73039 0
M  V30 401 C 34.6624 -1.03304 -2.57339 0
M  V30 402 H 37.6134 -0.998808 -1.23327 0
M  V30 403 H 37.6344 -0.10554 -3.80354 0
M  V30 404 H 37.1464 -1.88357 -3.39328 0
M  V30 405 H 35.2474 0.565128 -3.68289 0
M  V30 406 H 35.3604 -1.03497 -4.67787 0
M  V30 407 H 33.7244 -0.455339 -2.50597 0
M  V30 408 H 34.5074 -2.11496 -2.70415 0
M  V30 409 N 36.9525 1.47285 -0.560781 0
M  V30 410 C 38.2295 1.9558 0.0277798 0
M  V30 411 C 38.6095 1.5034 1.48192 0
M  V30 412 O 37.9575 0.743882 2.16052 0
M  V30 413 C 38.1675 3.48789 -0.121418 0
M  V30 414 C 39.5155 4.24594 0.0220912 0
M  V30 415 O 40.5395 3.56166 -0.0491439 0
M  V30 416 O 39.3985 5.46217 0.175958 0
M  V30 417 H 36.4925 0.824663 0.0621342 0
M  V30 418 H 39.0385 1.5767 -0.627556 0
M  V30 419 H 37.8105 3.74533 -1.13316 0
M  V30 420 H 37.4335 3.93473 0.571366 0
M  V30 421 N 38.4306 0.297415 1.54768 0
M  V30 422 C 39.6796 -0.313669 1.99246 0
M  V30 423 C 39.9926 -1.55281 1.18942 0
M  V30 424 O 41.1986 -2.23825 1.5367 0
M  V30 425 C 39.6546 -0.609407 3.54703 0
M  V30 426 C 39.2626 0.611192 4.43811 0
M  V30 427 C 41.0066 -1.18188 4.07715 0
M  V30 428 C 38.9136 0.288805 5.90694 0
M  V30 429 H 37.8436 -0.120979 0.744231 0
M  V30 430 H 40.4946 0.40556 1.78962 0
M  V30 431 H 38.8766 -1.38813 3.70873 0
M  V30 432 H 40.0506 1.3875 4.39414 0
M  V30 433 H 38.3656 1.10205 4.01552 0
M  V30 434 H 40.9626 -1.43727 5.15021 0
M  V30 435 H 41.3056 -2.12299 3.58099 0
M  V30 436 H 41.8386 -0.464944 3.95074 0
M  V30 437 H 38.5776 1.19838 6.44453 0
M  V30 438 H 38.0976 -0.450305 5.98107 0
M  V30 439 H 39.7766 -0.110933 6.46905 0
M  V30 440 N 39.9087 -1.5758 0.0250728 0
M  V30 441 C 40.8187 -2.1343 -0.973905 0
M  V30 442 C 41.8347 -1.08556 -1.35984 0
M  V30 443 O 43.0107 -1.40592 -1.44207 0
M  V30 444 C 40.0757 -2.64703 -2.23904 0
M  V30 445 C 39.1367 -3.84276 -1.91391 0
M  V30 446 C 38.3697 -4.33095 -3.11873 0
M  V30 447 O 38.5927 -3.81107 -4.24398 0
M  V30 448 O 37.5267 -5.24984 -2.94406 0
M  V30 449 H 41.3527 -2.99057 -0.529036 0
M  V30 450 H 38.9377 -1.48118 -0.195288 0
M  V30 451 H 40.8197 -2.97769 -2.98181 0
M  V30 452 H 39.4947 -1.82161 -2.6758 0
M  V30 453 H 38.4017 -3.56143 -1.14511 0
M  V30 454 H 39.7347 -4.67968 -1.52534 0
M  V30 455 N 41.3868 0.248026 -1.55636 0
M  V30 456 C 42.3338 1.30707 -1.90222 0
M  V30 457 C 43.3038 1.47881 -0.756332 0
M  V30 458 O 44.4888 1.61883 -1.00988 0
M  V30 459 C 41.6288 2.65769 -2.20138 0
M  V30 460 C 40.7418 2.56612 -3.47526 0
M  V30 461 C 39.8768 3.8402 -3.67017 0
M  V30 462 C 38.9158 3.69476 -4.8801 0
M  V30 463 N 38.0528 4.88774 -5.04029 0
M  V30 464 H 42.8928 1.00512 -2.80538 0
M  V30 465 H 40.4298 0.485055 -1.38873 0
M  V30 466 H 42.3878 3.44386 -2.35487 0
M  V30 467 H 41.0178 2.94115 -1.33027 0
M  V30 468 H 40.0698 1.69571 -3.40514 0
M  V30 469 H 41.3818 2.41774 -4.36287 0
M  V30 470 H 40.5358 4.7108 -3.8232 0
M  V30 471 H 39.2748 4.01754 -2.76487 0
M  V30 472 H 38.2798 2.80799 -4.72686 0
M  V30 473 H 39.5048 3.53238 -5.8 0
M  V30 474 H 37.4508 5.0687 -4.16435 0
M  V30 475 H 37.3678 4.76562 -5.86877 0
M  V30 476 H 38.6358 5.77335 -5.23741 0
M  V30 477 N 42.8649 1.48995 0.513639 0
M  V30 478 C 43.7749 1.67443 1.64317 0
M  V30 479 C 44.7909 0.556947 1.64846 0
M  V30 480 O 45.9669 0.830082 1.83498 0
M  V30 481 C 43.0319 1.72515 3.00732 0
M  V30 482 C 42.0929 2.96009 3.1093 0
M  V30 483 C 41.3259 3.00829 4.40837 0
M  V30 484 O 41.5489 2.13594 5.28898 0
M  V30 485 O 40.4829 3.93168 4.55744 0
M  V30 486 H 44.3089 2.63106 1.51687 0
M  V30 487 H 41.8939 1.32588 0.688543 0
M  V30 488 H 43.7759 1.78277 3.81831 0
M  V30 489 H 42.4509 0.800278 3.13651 0
M  V30 490 H 41.3579 2.9577 2.29065 0
M  V30 491 H 42.6909 3.87934 3.02933 0
M  V30 492 N 44.343 -0.763751 1.37857 0
M  V30 493 C 45.592 -1.51789 1.32827 0
M  V30 494 C 45.905 -1.95426 -0.0823719 0
M  V30 495 O 47.111 -2.70298 -0.255172 0
M  V30 496 C 45.567 -2.74133 2.33193 0
M  V30 497 C 45.175 -2.37562 3.79827 0
M  V30 498 C 46.919 -3.52054 2.37188 0
M  V30 499 C 44.826 -3.56456 4.71904 0
M  V30 500 H 43.756 -0.569896 0.493695 0
M  V30 501 H 46.407 -0.835822 1.63359 0
M  V30 502 H 44.789 -3.4427 1.9569 0
M  V30 503 H 45.963 -1.75157 4.26212 0
M  V30 504 H 44.278 -1.72798 3.78853 0
M  V30 505 H 46.875 -4.40437 3.03182 0
M  V30 506 H 47.218 -3.92486 1.38782 0
M  V30 507 H 47.751 -2.88921 2.7344 0
M  V30 508 H 44.49 -3.21099 5.71468 0
M  V30 509 H 44.01 -4.17938 4.30218 0
M  V30 510 H 45.689 -4.23168 4.89426 0
M  V30 511 N 45.8211 -1.22559 -0.990812 0
M  V30 512 C 47.2371 -0.985996 -1.255 0
M  V30 513 C 47.4371 0.319173 -1.98956 0
M  V30 514 O 46.4931 1.04127 -2.3003 0
M  V30 515 C 47.8061 -2.18607 -2.06474 0
M  V30 516 C 49.3541 -2.22985 -2.19651 0
M  V30 517 C 49.8291 -3.4255 -3.04012 0
M  V30 518 N 51.3201 -3.42725 -3.11599 0
M  V30 519 C 52.0551 -4.31892 -3.7717 0
M  V30 520 N 51.5511 -5.31279 -4.44651 0
M  V30 521 N 53.3441 -4.19662 -3.73952 0
M  V30 522 H 45.4951 -2.06469 -0.49841 0
M  V30 523 H 47.7581 -0.904853 -0.282747 0
M  V30 524 H 47.4641 -3.13267 -1.59865 0
M  V30 525 H 47.3381 -2.18838 -3.07229 0
M  V30 526 H 49.7251 -1.28871 -2.65474 0
M  V30 527 H 49.8061 -2.26791 -1.18319 0
M  V30 528 H 49.4501 -4.36965 -2.58889 0
M  V30 529 H 49.3801 -3.35984 -4.0549 0
M  V30 530 H 51.8711 -2.70807 -2.63575 0
M  V30 531 H 52.1841 -5.95593 -4.92431 0
M  V30 532 H 50.5291 -5.3519 -4.43392 0
M  V30 533 H 53.7201 -3.41268 -3.20396 0
M  V30 534 H 53.8931 -4.89358 -4.24774 0
M  V30 535 N 47.2992 1.18797 -1.03562 0
M  V30 536 C 48.7152 1.40671 -0.753917 0
M  V30 537 C 48.9152 1.9043 0.658686 0
M  V30 538 O 47.9712 2.08538 1.42366 0
M  V30 539 C 49.2842 2.41192 -1.79574 0
M  V30 540 C 50.8322 2.54928 -1.81606 0
M  V30 541 C 51.3072 3.58709 -2.84766 0
M  V30 542 N 52.7982 3.66212 -2.83625 0
M  V30 543 C 53.5332 4.46225 -3.60098 0
M  V30 544 N 53.0292 5.29888 -4.46308 0
M  V30 545 N 54.8222 4.40939 -3.4861 0
M  V30 546 H 46.9732 0.848221 -1.94728 0
M  V30 547 H 49.2362 0.435081 -0.842264 0
M  V30 548 H 48.9422 2.11669 -2.80872 0
M  V30 549 H 48.8162 3.40467 -1.62365 0
M  V30 550 H 51.2032 2.83771 -0.809817 0
M  V30 551 H 51.2842 1.55784 -2.02891 0
M  V30 552 H 50.9282 3.30607 -3.85566 0
M  V30 553 H 50.8582 4.57519 -2.60737 0
M  V30 554 H 53.3492 3.06466 -2.21105 0
M  V30 555 H 53.6622 5.88078 -5.01382 0
M  V30 556 H 52.0072 5.29326 -4.50377 0
M  V30 557 H 55.1982 3.74624 -2.80668 0
M  V30 558 H 55.3712 5.03056 -4.08459 0
M  V30 559 N 48.7773 0.814389 1.34928 0
M  V30 560 C 49.7103 0.175641 2.27523 0
M  V30 561 C 50.6883 -0.662953 1.48471 0
M  V30 562 O 51.8723 -0.628545 1.77712 0
M  V30 563 C 48.9993 -0.755516 3.30166 0
M  V30 564 C 48.0453 0.00445305 4.265 0
M  V30 565 S 48.8783 1.34582 5.18313 0
M  V30 566 C 50.0343 0.419315 6.24494 0
M  V30 567 H 50.2673 0.960691 2.8135 0
M  V30 568 H 47.8003 0.609846 1.41846 0
M  V30 569 H 49.7583 -1.28723 3.89796 0
M  V30 570 H 48.4193 -1.51402 2.75202 0
M  V30 571 H 47.6123 -0.703077 4.99072 0
M  V30 572 H 47.2143 0.466447 3.7108 0
M  V30 573 H 49.5063 -0.392432 6.76362 0
M  V30 574 H 50.4493 1.11446 6.99275 0
M  V30 575 H 50.8573 0.0115389 5.64499 0
M  V30 576 N 50.2554 -1.46986 0.568584 0
M  V30 577 C 51.1654 -2.33942 -0.17555 0
M  V30 578 C 52.1814 -1.48891 -0.90041 0
M  V30 579 O 53.3574 -1.81794 -0.86676 0
M  V30 580 C 50.4224 -3.25811 -1.18524 0
M  V30 581 C 49.4834 -4.26757 -0.466582 0
M  V30 582 C 48.7164 -5.14236 -1.42817 0
M  V30 583 O 48.9394 -5.04379 -2.66379 0
M  V30 584 O 47.8734 -5.94412 -0.946453 0
M  V30 585 H 51.6994 -2.98896 0.538036 0
M  V30 586 H 49.2844 -1.4573 0.329097 0
M  V30 587 H 51.1664 -3.82527 -1.76779 0
M  V30 588 H 49.8414 -2.63471 -1.88055 0
M  V30 589 H 48.7484 -3.73769 0.157451 0
M  V30 590 H 50.0814 -4.91843 0.187485 0
M  V30 591 N 51.7335 -0.305618 -1.54608 0
M  V30 592 C 52.6815 0.584119 -2.25146 0
M  V30 593 C 53.6755 1.13326 -1.25911 0
M  V30 594 O 54.8815 1.08337 -1.43747 0
M  V30 595 H 51.2565 0.206983 -0.722954 0
M  V30 596 H 53.2275 -0.033291 -2.98381 0
M  V30 597 C 51.9765 1.74225 -3.009 0
M  V30 598 H 51.2995 1.32892 -3.77067 0
M  V30 599 H 52.7395 2.34077 -3.53531 0
M  V30 600 C 51.1985 2.64914 -2.0814 0
M  V30 601 O 51.7285 3.66137 -1.65246 0
M  V30 602 N 49.9345 2.3275 -1.74 0
M  V30 603 H 49.4815 1.50479 -2.09078 0
M  V30 604 H 49.4395 2.93694 -1.12211 0
M  V30 605 N 53.2116 1.57565 -0.0334293 0
M  V30 606 C 54.4596 1.91598 0.642999 0
M  V30 607 C 54.7806 0.910847 1.7242 0
M  V30 608 O 54.0506 -0.0469931 1.95844 0
M  V30 609 H 52.6306 0.707228 0.240496 0
M  V30 610 H 55.2926 1.94726 -0.0822488 0
M  V30 611 H 54.3886 2.92336 1.09298 0
M  V30 612 N 54.6897 -0.239769 1.55765 0
M  V30 613 C 55.6527 -1.28038 1.90103 0
M  V30 614 C 56.6527 -1.40723 0.778055 0
M  V30 615 O 57.8427 -1.39301 1.04599 0
M  V30 616 C 54.9747 -2.65702 2.13577 0
M  V30 617 H 56.1677 -0.988048 2.83157 0
M  V30 618 H 53.7207 -0.479382 1.48767 0
M  V30 619 H 54.4557 -3.00063 1.23015 0
M  V30 620 H 54.2407 -2.57875 2.95369 0
M  V30 621 H 55.7307 -3.40828 2.41301 0
M  V30 622 N 56.1678 -1.49265 -0.50573 0
M  V30 623 C 57.4078 -1.60128 -1.27038 0
M  V30 624 C 57.7718 -0.279557 -1.89954 0
M  V30 625 O 58.9728 -0.263329 -2.67507 0
M  V30 626 C 57.2438 -2.72507 -2.31246 0
M  V30 627 S 58.8028 -3.0329 -3.17113 0
M  V30 628 H 55.6208 -0.564863 -0.4318 0
M  V30 629 H 58.2228 -1.86902 -0.573397 0
M  V30 630 H 56.9268 -3.67068 -1.83546 0
M  V30 631 H 56.4578 -2.4771 -3.05619 0
M  V30 632 H 58.4728 -2.44448 -4.31809 0
M  V30 633 N 57.6459 0.756429 -1.3826 0
M  V30 634 C 58.8709 1.55077 -1.37717 0
M  V30 635 C 59.2959 1.88073 0.03164 0
M  V30 636 O 58.6539 1.50364 1.01293 0
M  V30 637 C 58.7019 2.8283 -2.23695 0
M  V30 638 O 57.8059 3.77862 -1.6521 0
M  V30 639 H 57.1469 0.469152 -0.469885 0
M  V30 640 H 59.6769 0.935019 -1.81985 0
M  V30 641 H 59.6869 3.31783 -2.37453 0
M  V30 642 H 58.3619 2.58144 -3.2609 0
M  V30 643 H 56.9389 3.36555 -1.60578 0
M  V30 644 N 59.124 1.23083 0.984299 0
M  V30 645 C 60.349 1.088 1.76571 0
M  V30 646 C 60.774 -0.356657 1.84688 0
M  V30 647 O 60.132 -1.25788 1.30565 0
M  V30 648 C 60.18 1.71371 3.17277 0
M  V30 649 O 59.284 0.973213 4.00752 0
M  V30 650 H 58.625 0.381599 0.543395 0
M  V30 651 H 61.155 1.63057 1.23587 0
M  V30 652 H 61.165 1.76449 3.67872 0
M  V30 653 H 59.84 2.76493 3.10684 0
M  V30 654 H 58.417 0.999078 3.59267 0
M  V30 655 N 60.6021 -1.18246 1.0419 0
M  V30 656 C 61.8491 -1.88257 0.746017 0
M  V30 657 C 62.1771 -1.80429 -0.726331 0
M  V30 658 O 61.4321 -1.2 -1.54591 0
M  V30 659 C 61.7311 -3.38082 1.15911 0
M  V30 660 C 61.3971 -3.66114 2.63195 0
M  V30 661 C 60.0591 -3.73474 3.03432 0
M  V30 662 C 62.4111 -3.78398 3.5842 0
M  V30 663 C 59.7391 -3.90599 4.37778 0
M  V30 664 C 62.0911 -3.97039 4.92487 0
M  V30 665 C 60.7551 -4.02635 5.32392 0
M  V30 666 H 60.0251 -0.688883 0.272987 0
M  V30 667 H 62.6721 -1.3995 1.30715 0
M  V30 668 H 60.9771 -3.88377 0.516806 0
M  V30 669 H 62.6741 -3.90596 0.907516 0
M  V30 670 H 59.2641 -3.61003 2.3103 0
M  V30 671 H 63.4481 -3.72042 3.28479 0
M  V30 672 H 58.7041 -3.93175 4.68213 0
M  V30 673 H 62.8781 -4.05486 5.66175 0
M  V30 674 H 60.5051 -4.15657 6.36501 0
M  V30 675 N 62.0802 -0.821533 -1.34494 0
M  V30 676 C 63.3052 -0.420873 -2.03085 0
M  V30 677 C 63.7302 0.964915 -1.61465 0
M  V30 678 O 63.0882 1.62763 -0.798607 0
M  V30 679 C 63.1362 -0.529414 -3.56693 0
M  V30 680 O 62.2402 0.451302 -4.09923 0
M  V30 681 H 61.5812 -0.173489 -0.640935 0
M  V30 682 H 64.1112 -1.11157 -1.71771 0
M  V30 683 H 64.1212 -0.404671 -4.05988 0
M  V30 684 H 62.7962 -1.54014 -3.86332 0
M  V30 685 H 61.3732 0.285558 -3.71805 0
M  V30 686 N 63.5583 1.46682 -0.576371 0
M  V30 687 C 64.4683 2.34032 0.163141 0
M  V30 688 C 65.4843 1.49367 0.892501 0
M  V30 689 O 66.6603 1.82252 0.857106 0
M  V30 690 C 63.7253 3.26435 1.16795 0
M  V30 691 C 62.7863 4.26998 0.443944 0
M  V30 692 C 62.0193 5.14986 1.40088 0
M  V30 693 O 62.2423 5.05785 2.637 0
M  V30 694 O 61.1763 5.94906 0.914917 0
M  V30 695 H 65.0023 2.98607 -0.55388 0
M  V30 696 H 62.5873 1.45554 -0.336821 0
M  V30 697 H 64.4693 3.83459 1.74748 0
M  V30 698 H 63.1443 2.64465 1.86655 0
M  V30 699 H 62.0513 3.7368 -0.177271 0
M  V30 700 H 63.3843 4.91736 -0.213566 0
M  V30 701 N 65.0364 0.313813 1.54444 0
M  V30 702 C 66.3134 -0.345447 1.92525 0
M  V30 703 C 66.6934 -1.70667 1.24242 0
M  V30 704 O 66.0414 -2.25273 0.382654 0
M  V30 705 C 66.2514 -0.44737 3.46121 0
M  V30 706 C 67.5994 -0.712238 4.18584 0
M  V30 707 O 68.6234 -0.530678 3.52225 0
M  V30 708 O 67.4824 -1.06183 5.36085 0
M  V30 709 H 64.5764 -0.195407 0.803583 0
M  V30 710 H 67.1224 0.362813 1.65776 0
M  V30 711 H 65.8944 0.509043 3.87975 0
M  V30 712 H 65.5174 -1.20359 3.78945 0
M  V30 713 N 66.5145 -1.57545 0.0417849 0
M  V30 714 C 67.7915 -1.83642 -0.673433 0
M  V30 715 C 68.1715 -0.928298 -1.89594 0
M  V30 716 O 67.5195 0.0129955 -2.28496 0
M  V30 717 C 67.7295 -3.33155 -1.03964 0
M  V30 718 C 69.0775 -3.99941 -1.42592 0
M  V30 719 O 70.1015 -3.37725 -1.13226 0
M  V30 720 O 68.9605 -5.09619 -1.9736 0
M  V30 721 H 66.0545 -0.757638 -0.331533 0
M  V30 722 H 68.6005 -1.69554 0.070433 0
M  V30 723 H 67.3725 -3.9093 -0.170098 0
M  V30 724 H 66.9955 -3.52396 -1.84126 0
M  V30 725 N 67.9926 0.231505 -1.5589 0
M  V30 726 C 69.2696 0.981096 -1.69215 0
M  V30 727 C 69.6496 2.02799 -0.586164 0
M  V30 728 O 68.9976 2.24823 0.408253 0
M  V30 729 C 69.2076 1.60054 -3.10135 0
M  V30 730 C 70.5556 2.09658 -3.69227 0
M  V30 731 O 71.5796 1.69967 -3.13033 0
M  V30 732 O 70.4386 2.8258 -4.67772 0
M  V30 733 H 67.5326 0.457653 -0.688827 0
M  V30 734 H 70.0786 0.224073 -1.68214 0
M  V30 735 H 68.8506 0.844105 -3.82087 0
M  V30 736 H 68.4736 2.42336 -3.15212 0
M  V30 737 N 69.4707 1.49531 0.497807 0
M  V30 738 C 70.6957 1.63159 1.28039 0
M  V30 739 C 71.1207 0.30418 1.85624 0
M  V30 740 O 70.4787 -0.728618 1.66015 0
M  V30 741 C 70.5267 2.70537 2.38416 0
M  V30 742 O 69.6307 2.29931 3.42353 0
M  V30 743 H 68.9717 0.546001 0.377861 0
M  V30 744 H 71.5017 1.9574 0.59558 0
M  V30 745 H 71.5117 2.92802 2.84132 0
M  V30 746 H 70.1867 3.6689 1.95869 0
M  V30 747 H 68.7637 2.18009 3.02533 0
M  V30 748 N 70.9488 -0.749086 1.3866 0
M  V30 749 C 71.9118 -1.84457 1.36045 0
M  V30 750 C 72.9118 -1.58682 0.260122 0
M  V30 751 O 74.1018 -1.66343 0.517261 0
M  V30 752 C 71.2338 -3.22008 1.11911 0
M  V30 753 H 72.4268 -1.88182 2.33512 0
M  V30 754 H 69.9798 -0.951266 1.24019 0
M  V30 755 H 70.7148 -3.2395 0.150686 0
M  V30 756 H 70.4998 -3.42111 1.91579 0
M  V30 757 H 71.9898 -4.0208 1.12788 0
M  V30 758 N 72.4269 -1.23603 -0.977757 0
M  V30 759 C 73.6519 -1.09735 -1.75991 0
M  V30 760 C 74.0769 0.346858 -1.84874 0
M  V30 761 O 73.4349 1.25093 -1.3123 0
M  V30 762 C 73.4829 -1.73051 -3.16363 0
M  V30 763 O 72.5869 -0.994452 -4.0023 0
M  V30 764 H 71.9279 -0.384476 -0.541364 0
M  V30 765 H 74.4579 -1.6371 -1.2272 0
M  V30 766 H 74.4679 -1.78398 -3.66931 0
M  V30 767 H 73.1429 -2.78137 -3.09213 0
M  V30 768 H 71.7199 -1.01812 -3.58732 0
M  V30 769 N 73.905 1.17692 -1.04816 0
M  V30 770 C 75.133 1.91786 -0.776254 0
M  V30 771 C 75.548 1.76604 0.667577 0
M  V30 772 O 74.905 1.10067 1.45573 0
M  V30 773 C 74.956 3.42967 -1.14263 0
M  V30 774 O 74.677 3.57678 -2.52978 0
M  V30 775 C 76.178 4.34144 -0.896311 0
M  V30 776 H 73.398 0.608624 -0.282519 0
M  V30 777 H 75.942 1.49268 -1.39783 0
M  V30 778 H 74.097 3.83245 -0.565874 0
M  V30 779 H 74.511 4.51319 -2.67229 0
M  V30 780 H 75.985 5.38744 -1.20244 0
M  V30 781 H 76.462 4.38876 0.168636 0
M  V30 782 H 77.068 3.99574 -1.45672 0
M  V30 783 N 75.3831 0.828654 1.34056 0
M  V30 784 C 76.6081 0.431637 2.02859 0
M  V30 785 C 77.0331 -0.956339 1.61975 0
M  V30 786 O 76.3911 -1.62338 0.807228 0
M  V30 787 C 76.4391 0.548323 3.56407 0
M  V30 788 O 75.5431 -0.429556 4.10157 0
M  V30 789 H 74.8841 0.176886 0.640006 0
M  V30 790 H 77.4141 1.12066 1.71179 0
M  V30 791 H 77.4241 0.426196 4.05768 0
M  V30 792 H 76.0991 1.5606 3.8551 0
M  V30 793 H 74.6761 -0.265836 3.71951 0
M  V30 794 N 76.8612 -1.46375 0.584142 0
M  V30 795 C 77.7712 -2.34115 -0.150728 0
M  V30 796 C 78.7872 -1.49838 -0.884567 0
M  V30 797 O 79.9632 -1.82704 -0.847429 0
M  V30 798 C 77.0282 -3.2705 -1.15062 0
M  V30 799 C 76.0892 -4.27228 -0.421293 0
M  V30 800 C 75.3222 -5.15722 -1.37355 0
M  V30 801 O 75.5452 -5.07176 -2.61014 0
M  V30 802 O 74.4792 -5.95383 -0.883355 0
M  V30 803 H 78.3052 -2.98309 0.569708 0
M  V30 804 H 75.8902 -1.45373 0.344535 0
M  V30 805 H 77.7722 -3.84381 -1.72712 0
M  V30 806 H 76.4472 -2.65451 -1.8525 0
M  V30 807 H 75.3542 -3.7358 0.197085 0
M  V30 808 H 76.6872 -4.91616 0.239641 0
M  V30 809 N 78.3393 -0.321999 -1.54275 0
M  V30 810 C 79.2493 0.553631 -2.27974 0
M  V30 811 C 80.2653 1.13054 -1.32268 0
M  V30 812 O 81.4413 1.15084 -1.6528 0
M  V30 813 C 78.5063 1.69927 -3.02201 0
M  V30 814 C 77.5673 1.15433 -4.1349 0
M  V30 815 C 76.8003 2.24537 -4.84168 0
M  V30 816 O 77.0233 3.44852 -4.5435 0
M  V30 817 O 75.9573 1.90044 -5.7111 0
M  V30 818 H 79.7833 -0.0448345 -3.03667 0
M  V30 819 H 77.3683 -0.0877418 -1.49142 0
M  V30 820 H 79.2503 2.3663 -3.48689 0
M  V30 821 H 77.9253 2.28395 -2.29385 0
M  V30 822 H 76.8323 0.452436 -3.71354 0
M  V30 823 H 78.1653 0.614805 -4.88345 0
M  V30 824 N 79.8174 1.5752 -0.0501392 0
M  V30 825 C 81.0424 1.97376 0.636997 0
M  V30 826 C 81.4674 0.927466 1.63645 0
M  V30 827 O 80.8254 -0.10941 1.8097 0
M  V30 828 C 80.8734 3.36304 1.30123 0
M  V30 829 O 79.9774 3.34156 2.41689 0
M  V30 830 H 79.3184 0.642998 0.165679 0
M  V30 831 H 81.8484 2.04258 -0.118233 0
M  V30 832 H 81.8584 3.73008 1.65315 0
M  V30 833 H 80.5334 4.11993 0.568746 0
M  V30 834 H 79.1104 3.09196 2.08451 0
M  V30 835 N 81.2955 -0.223234 1.56011 0
M  V30 836 C 82.2055 -1.29766 1.95443 0
M  V30 837 C 83.2215 -1.51373 0.858028 0
M  V30 838 O 84.3975 -1.64536 1.16146 0
M  V30 839 C 81.4625 -2.62772 2.26167 0
M  V30 840 C 80.5235 -2.49482 3.49367 0
M  V30 841 C 79.7565 -3.76145 3.78616 0
M  V30 842 O 79.9795 -4.79087 3.09568 0
M  V30 843 O 78.9135 -3.73358 4.72109 0
M  V30 844 H 82.7395 -0.99309 2.87004 0
M  V30 845 H 80.3245 -0.425958 1.43199 0
M  V30 846 H 82.2065 -3.41327 2.47131 0
M  V30 847 H 80.8815 -2.92913 1.37781 0
M  V30 848 H 79.7885 -1.69133 3.33684 0
M  V30 849 H 81.1215 -2.2428 4.38131 0
M  V30 850 N 82.7736 -1.49793 -0.48987 0
M  V30 851 C 83.7216 -1.67783 -1.61095 0
M  V30 852 C 84.7156 -0.543683 -1.60438 0
M  V30 853 O 85.9216 -0.723647 -1.64813 0
M  V30 854 H 82.2966 -0.529255 -0.534222 0
M  V30 855 H 84.2676 -2.61861 -1.43078 0
M  V30 856 C 83.0166 -1.77191 -2.99164 0
M  V30 857 H 82.3396 -2.63841 -3.0038 0
M  V30 858 H 83.7796 -1.93809 -3.77113 0
M  V30 859 C 82.2386 -0.519203 -3.32875 0
M  V30 860 O 82.7686 0.350124 -4.00171 0
M  V30 861 N 80.9746 -0.378816 -2.8812 0
M  V30 862 H 80.5216 -1.08725 -2.33531 0
M  V30 863 H 80.4796 0.458239 -3.11043 0
M  V30 864 N 84.2517 0.741722 -1.39055 0
M  V30 865 C 85.1617 1.88621 -1.39496 0
M  V30 866 C 86.1777 1.71557 -0.290578 0
M  V30 867 O 87.3537 1.94275 -0.530954 0
M  V30 868 C 84.4187 3.24134 -1.23037 0
M  V30 869 C 83.4797 3.5364 -2.43387 0
M  V30 870 C 82.7127 4.82687 -2.27703 0
M  V30 871 O 82.9357 5.55922 -1.27696 0
M  V30 872 O 81.8697 5.1194 -3.16545 0
M  V30 873 H 85.6957 1.91203 -2.35956 0
M  V30 874 H 83.2807 0.888625 -1.20099 0
M  V30 875 H 85.1627 4.0513 -1.15964 0
M  V30 876 H 83.8377 3.22337 -0.296691 0
M  V30 877 H 82.7447 2.72758 -2.56035 0
M  V30 878 H 84.0777 3.60209 -3.35425 0
M  V30 879 N 85.7298 1.2412 0.971189 0
M  V30 880 C 86.6778 1.02812 2.08644 0
M  V30 881 C 87.6718 -0.0358403 1.69362 0
M  V30 882 O 88.8778 0.118429 1.7961 0
M  V30 883 H 85.2528 0.315428 0.682649 0
M  V30 884 H 87.2238 1.97397 2.23779 0
M  V30 885 C 85.9728 0.645874 3.41649 0
M  V30 886 H 85.2958 1.45632 3.72332 0
M  V30 887 H 86.7358 0.536366 4.20594 0
M  V30 888 C 85.1948 -0.646713 3.30635 0
M  V30 889 O 85.7248 -1.69338 3.64263 0
M  V30 890 N 83.9308 -0.626115 2.83775 0
M  V30 891 H 83.4778 0.225988 2.56607 0
M  V30 892 H 83.4358 -1.49117 2.76788 0
M  V30 893 N 87.2079 -1.17134 1.05439 0
M  V30 894 C 88.6189 -1.69084 0.791676 0
M  V30 895 C 88.9699 -1.83822 -0.685839 0
M  V30 896 O 88.0949 -1.52757 -1.53278 0
M  V30 897 C 88.6899 -3.07119 1.4305 0
M  V30 898 C 87.2489 -3.56225 1.21577 0
M  V30 899 C 86.3959 -2.32421 1.51247 0
M  V30 900 H 89.3469 -1.01617 1.219 0
M  V30 901 H 89.3679 -3.71087 0.84112 0
M  V30 902 H 88.8799 -2.9636 2.50584 0
M  V30 903 H 86.9809 -3.72257 0.159787 0
M  V30 904 H 87.0939 -4.38837 1.92246 0
M  V30 905 H 85.4579 -2.3701 0.932653 0
M  V30 906 H 86.2409 -2.24268 2.5992 0
M  V30 907 N 88.686 -0.835752 -1.33615 0
M  V30 908 C 89.636 -0.238856 -2.26745 0
M  V30 909 C 90.62 0.604343 -1.49119 0
M  V30 910 O 91.812 0.456822 -1.71003 0
M  V30 911 C 88.941 0.587725 -3.38232 0
M  V30 912 C 88.027 -0.266811 -4.2326 0
M  V30 913 N 88.418 -1.34403 -4.87616 0
M  V30 914 C 86.716 -0.0533131 -4.45968 0
M  V30 915 C 87.417 -1.86819 -5.50884 0
M  V30 916 N 86.393 -1.17013 -5.30857 0
M  V30 917 H 90.195 -1.06266 -2.74016 0
M  V30 918 H 87.709 -0.679881 -1.47483 0
M  V30 919 H 89.706 1.03161 -4.03935 0
M  V30 920 H 88.366 1.40954 -2.9251 0
M  V30 921 H 89.377 -1.7269 -4.88261 0
M  V30 922 H 86.054 0.735312 -4.10974 0
M  V30 923 H 87.444 -2.7701 -6.1214 0
M  V30 924 N 90.1641 1.46063 -0.591896 0
M  V30 925 C 91.1271 2.28854 0.125973 0
M  V30 926 C 92.1271 1.38903 0.810107 0
M  V30 927 O 93.3171 1.61186 0.66066 0
M  V30 928 C 90.4491 3.19526 1.1881 0
M  V30 929 H 91.6421 2.93802 -0.601717 0
M  V30 930 H 89.1951 1.52325 -0.350254 0
M  V30 931 H 89.9301 2.59345 1.94707 0
M  V30 932 H 89.7151 3.85766 0.701936 0
M  V30 933 H 91.2051 3.81817 1.69132 0
M  V30 934 N 91.6422 0.330177 1.54103 0
M  V30 935 C 93.0582 -0.0222371 1.59585 0
M  V30 936 C 93.2582 -1.49902 1.34654 0
M  V30 937 O 92.3142 -2.25592 1.13421 0
M  V30 938 C 93.6272 0.401932 2.98002 0
M  V30 939 C 95.1752 0.353145 3.11001 0
M  V30 940 C 95.6502 0.752576 4.51775 0
M  V30 941 N 97.1412 0.706239 4.57784 0
M  V30 942 C 97.8762 0.987417 5.64834 0
M  V30 943 N 97.3722 1.33607 6.79795 0
M  V30 944 N 99.1652 0.91254 5.54643 0
M  V30 945 H 91.3162 1.29228 1.68564 0
M  V30 946 H 93.5792 0.525906 0.78875 0
M  V30 947 H 93.2852 1.4311 3.21267 0
M  V30 948 H 93.1592 -0.229699 3.765 0
M  V30 949 H 95.5462 -0.666822 2.87467 0
M  V30 950 H 95.6272 1.0198 2.34593 0
M  V30 951 H 95.2712 1.77049 4.76042 0
M  V30 952 H 95.2012 0.0635409 5.26562 0
M  V30 953 H 97.6922 0.44889 3.75224 0
M  V30 954 H 98.0052 1.53582 7.57385 0
M  V30 955 H 96.3502 1.37439 6.81275 0
M  V30 956 H 99.5412 0.639601 4.6371 0
M  V30 957 H 99.7142 1.13503 6.37982 0
M  V30 958 N 93.1203 -1.57491 0.0584922 0
M  V30 959 C 94.3683 -1.92597 -0.612436 0
M  V30 960 C 94.6893 -0.938162 -1.70949 0
M  V30 961 O 93.9593 0.0158301 -1.95894 0
M  V30 962 H 92.5393 -0.710964 -0.229214 0
M  V30 963 H 95.2013 -1.94571 0.113218 0
M  V30 964 H 94.2973 -2.94038 -1.04633 0
M  V30 965 N 94.5984 0.214957 -1.56127 0
M  V30 966 C 95.8234 0.95924 -1.83884 0
M  V30 967 C 96.2484 1.7689 -0.639644 0
M  V30 968 O 95.6064 1.76566 0.411601 0
M  V30 969 C 95.6544 1.84723 -3.09693 0
M  V30 970 O 94.7584 2.94346 -2.8885 0
M  V30 971 H 94.0994 0.27125 -0.606069 0
M  V30 972 H 96.6294 0.226276 -2.03345 0
M  V30 973 H 96.6394 2.25576 -3.39969 0
M  V30 974 H 95.3144 1.25218 -3.96602 0
M  V30 975 H 93.8914 2.57391 -2.69823 0
M  V30 976 N 96.0765 1.50051 0.48192 0
M  V30 977 C 97.3235 1.60498 1.23477 0
M  V30 978 C 97.6515 0.300331 1.92167 0
M  V30 979 O 96.9065 -0.713094 1.82246 0
M  V30 980 C 97.2055 2.72717 2.30998 0
M  V30 981 C 96.8715 4.13572 1.79636 0
M  V30 982 C 95.5335 4.519 1.65348 0
M  V30 983 C 97.8855 5.01649 1.41412 0
M  V30 984 C 95.2135 5.76057 1.11244 0
M  V30 985 C 97.5655 6.26343 0.887538 0
M  V30 986 C 96.2295 6.63483 0.731207 0
M  V30 987 H 95.4995 0.587303 0.451836 0
M  V30 988 H 98.1465 1.83948 0.532468 0
M  V30 989 H 96.4515 2.43312 3.07094 0
M  V30 990 H 98.1485 2.78006 2.88988 0
M  V30 991 H 94.7385 3.83329 1.91721 0
M  V30 992 H 98.9225 4.72679 1.51289 0
M  V30 993 H 94.1785 6.03516 0.978686 0
M  V30 994 H 98.3525 6.93958 0.582654 0
M  V30 995 H 95.9795 7.59568 0.309806 0
M  V30 996 N 97.5546 -0.734337 1.39446 0
M  V30 997 C 98.7796 -1.52866 1.40167 0
M  V30 998 C 99.2046 -1.881 -0.00171513 0
M  V30 999 O 98.5626 -1.51957 -0.988879 0
M  V30 1000 C 98.6106 -2.79235 2.28167 0
M  V30 1001 O 97.7146 -3.75185 1.71201 0
M  V30 1002 H 97.0556 -0.461618 0.477289 0
M  V30 1003 H 99.5856 -0.905949 1.8345 0
M  V30 1004 H 99.5956 -3.27963 2.42702 0
M  V30 1005 H 98.2706 -2.52923 3.30156 0
M  V30 1006 H 96.8476 -3.33958 1.65912 0
M  V30 1007 N 99.0327 -1.24633 -0.964593 0
M  V30 1008 C 100.263 -1.11339 -1.74032 0
M  V30 1009 C 100.671 0.336593 -1.86182 0
M  V30 1010 O 100.014 1.24389 -1.35178 0
M  V30 1011 C 100.076 -1.68284 -3.1768 0
M  V30 1012 C 99.7397 -3.17196 -3.28992 0
M  V30 1013 C 100.737 -4.14308 -3.14078 0
M  V30 1014 C 98.4217 -3.57215 -3.53133 0
M  V30 1015 C 100.416 -5.4942 -3.23135 0
M  V30 1016 C 98.1027 -4.92468 -3.61827 0
M  V30 1017 C 99.1007 -5.8838 -3.46841 0
M  V30 1018 O 98.7887 -7.21173 -3.55197 0
M  V30 1019 H 98.5207 -0.389551 -0.552472 0
M  V30 1020 H 101.075 -1.65282 -1.21946 0
M  V30 1021 H 99.3047 -1.08777 -3.71085 0
M  V30 1022 H 100.994 -1.50234 -3.77074 0
M  V30 1023 H 101.76 -3.84731 -2.95308 0
M  V30 1024 H 97.6387 -2.83063 -3.63863 0
M  V30 1025 H 101.183 -6.24263 -3.11355 0
M  V30 1026 H 97.0797 -5.21714 -3.80111 0
M  V30 1027 H 97.8477 -7.29135 -3.71892 0
M  V30 1028 N 100.511 1.16574 -1.06058 0
M  V30 1029 C 101.458 2.20883 -0.669263 0
M  V30 1030 C 102.428 1.62729 0.332918 0
M  V30 1031 O 103.613 1.895 0.222346 0
M  V30 1032 C 100.753 3.45049 -0.0593572 0
M  V30 1033 C 99.8658 4.17458 -1.11143 0
M  V30 1034 C 99.0008 5.29135 -0.467916 0
M  V30 1035 C 98.0398 5.93343 -1.50369 0
M  V30 1036 N 97.1768 6.96516 -0.883706 0
M  V30 1037 H 102.017 2.53709 -1.5632 0
M  V30 1038 H 99.5538 1.24616 -0.781625 0
M  V30 1039 H 101.512 4.16033 0.311771 0
M  V30 1040 H 100.142 3.12781 0.797992 0
M  V30 1041 H 99.1938 3.45101 -1.60029 0
M  V30 1042 H 100.506 4.61307 -1.89731 0
M  V30 1043 H 99.6598 6.06684 -0.0436871 0
M  V30 1044 H 98.3988 4.86443 0.349864 0
M  V30 1045 H 97.4038 5.14517 -1.93784 0
M  V30 1046 H 98.6288 6.38114 -2.32352 0
M  V30 1047 H 96.5748 6.55943 -0.086595 0
M  V30 1048 H 96.4918 7.38723 -1.607 0
M  V30 1049 H 97.7598 7.77993 -0.484543 0
M  V30 1050 N 101.989 0.842826 1.3317 0
M  V30 1051 C 103.214 0.453129 2.02389 0
M  V30 1052 C 103.639 -0.939105 1.6298 0
M  V30 1053 O 102.997 -1.61472 0.8244 0
M  V30 1054 C 103.045 0.586094 3.55805 0
M  V30 1055 O 102.149 -0.386029 4.10589 0
M  V30 1056 H 101.49 0.183664 0.638094 0
M  V30 1057 H 104.02 1.13875 1.69981 0
M  V30 1058 H 104.03 0.469209 4.05293 0
M  V30 1059 H 102.705 1.6014 3.83833 0
M  V30 1060 H 101.282 -0.226371 3.72212 0
M  V30 1061 N 103.467 -1.45747 0.599634 0
M  V30 1062 C 104.397 -2.33235 -0.111306 0
M  V30 1063 C 105.378 -1.46359 -0.866781 0
M  V30 1064 O 106.563 -1.75146 -0.838904 0
M  V30 1065 C 103.693 -3.28932 -1.11451 0
M  V30 1066 C 102.647 -4.25381 -0.472772 0
M  V30 1067 C 101.973 -5.1071 -1.58365 0
M  V30 1068 C 103.273 -5.18831 0.600948 0
M  V30 1069 H 104.967 -2.92927 0.61919 0
M  V30 1070 H 102.513 -1.40857 0.299215 0
M  V30 1071 H 104.466 -3.89002 -1.62036 0
M  V30 1072 H 103.19 -2.67381 -1.8755 0
M  V30 1073 H 101.849 -3.66598 0.0121472 0
M  V30 1074 H 101.497 -4.45533 -2.33473 0
M  V30 1075 H 101.197 -5.7604 -1.15982 0
M  V30 1076 H 102.721 -5.73647 -2.09194 0
M  V30 1077 H 104.135 -5.73019 0.179491 0
M  V30 1078 H 102.532 -5.92595 0.946076 0
M  V30 1079 H 103.602 -4.6174 1.48068 0
M  V30 1080 N 104.945 -0.338344 -1.53925 0
M  V30 1081 C 106.361 0.0137736 -1.59594 0
M  V30 1082 C 106.561 1.49186 -1.35447 0
M  V30 1083 O 105.617 2.24987 -1.14616 0
M  V30 1084 C 106.93 -0.41773 -2.97784 0
M  V30 1085 C 108.478 -0.369633 -3.1081 0
M  V30 1086 C 108.953 -0.776524 -4.51369 0
M  V30 1087 N 110.444 -0.730506 -4.57403 0
M  V30 1088 C 111.179 -1.01736 -5.64303 0
M  V30 1089 N 110.675 -1.3721 -6.79077 0
M  V30 1090 N 112.468 -0.941942 -5.54151 0
M  V30 1091 H 104.619 -1.3012 -1.67876 0
M  V30 1092 H 106.882 -0.530082 -0.78595 0
M  V30 1093 H 106.588 -1.44811 -3.20504 0
M  V30 1094 H 106.462 0.209729 -3.76616 0
M  V30 1095 H 108.849 0.651568 -2.87817 0
M  V30 1096 H 108.93 -1.03223 -2.34049 0
M  V30 1097 H 108.574 -1.79571 -4.75096 0
M  V30 1098 H 108.504 -0.0914649 -5.26521 0
M  V30 1099 H 110.995 -0.468783 -3.74981 0
M  V30 1100 H 111.308 -1.57597 -7.5656 0
M  V30 1101 H 109.653 -1.4105 -6.80536 0
M  V30 1102 H 112.844 -0.664184 -4.63364 0
M  V30 1103 H 113.017 -1.16884 -6.37371 0
M  V30 1104 N 106.423 1.57458 -0.0668435 0
M  V30 1105 C 107.37 2.12439 0.902122 0
M  V30 1106 C 108.34 1.03565 1.2986 0
M  V30 1107 O 109.525 1.312 1.38532 0
M  V30 1108 C 106.665 2.6865 2.16614 0
M  V30 1109 C 105.778 3.91663 1.82274 0
M  V30 1110 C 104.913 4.36134 3.0325 0
M  V30 1111 C 103.952 5.51808 2.64904 0
M  V30 1112 N 103.089 5.9126 3.78624 0
M  V30 1113 H 107.929 2.94934 0.426382 0
M  V30 1114 H 105.466 1.4575 0.198819 0
M  V30 1115 H 107.424 2.99346 2.90599 0
M  V30 1116 H 106.054 1.88928 2.61737 0
M  V30 1117 H 105.106 3.6746 0.983719 0
M  V30 1118 H 106.418 4.75693 1.50059 0
M  V30 1119 H 105.572 4.68465 3.85519 0
M  V30 1120 H 104.311 3.50948 3.38655 0
M  V30 1121 H 103.316 5.19133 1.81055 0
M  V30 1122 H 104.541 6.38722 2.30675 0
M  V30 1123 H 102.487 5.09024 4.138 0
M  V30 1124 H 102.404 6.70018 3.5016 0
M  V30 1125 H 103.672 6.28212 4.61486 0
M  V30 1126 N 107.901 -0.206675 1.56239 0
M  V30 1127 C 109.149 -0.927007 1.79586 0
M  V30 1128 C 109.47 -1.8427 0.637929 0
M  V30 1129 O 108.74 -1.92849 -0.344398 0
M  V30 1130 H 107.32 -0.345292 0.662407 0
M  V30 1131 H 109.982 -0.21496 1.93711 0
M  V30 1132 H 109.078 -1.52501 2.72305 0
M  V30 1133 N 109.379 -1.50304 -0.473955 0
M  V30 1134 C 110.627 -1.60832 -1.22382 0
M  V30 1135 C 110.948 -0.30939 -1.9253 0
M  V30 1136 O 110.218 0.67296 -1.83978 0
M  V30 1137 H 108.798 -0.592652 -0.454723 0
M  V30 1138 H 111.46 -1.87068 -0.546968 0
M  V30 1139 H 110.556 -2.41803 -1.97327 0
M  V30 1140 N 110.857 0.726932 -1.39834 0
M  V30 1141 C 112.268 1.30558 -1.3346 0
M  V30 1142 C 112.619 1.962 -0.00273003 0
M  V30 1143 O 111.744 1.96826 0.899371 0
M  V30 1144 C 112.339 2.37404 -2.41713 0
M  V30 1145 C 110.898 2.90921 -2.38835 0
M  V30 1146 C 110.045 1.64578 -2.2318 0
M  V30 1147 H 112.996 0.523862 -1.49804 0
M  V30 1148 H 113.017 3.17984 -2.08966 0
M  V30 1149 H 112.529 1.89599 -3.38635 0
M  V30 1150 H 110.63 3.42985 -1.45575 0
M  V30 1151 H 110.743 3.43487 -3.33997 0
M  V30 1152 H 109.107 1.89219 -1.70494 0
M  V30 1153 H 109.89 1.18814 -3.22084 0
M  V30 1154 N 112.336 1.25143 0.95797 0
M  V30 1155 C 113.561 1.12521 1.74223 0
M  V30 1156 C 113.986 -0.317402 1.85403 0
M  V30 1157 O 113.344 -1.2299 1.33204 0
M  V30 1158 C 113.392 1.78062 3.1357 0
M  V30 1159 O 112.496 1.058 3.98598 0
M  V30 1160 H 111.837 0.39304 0.535178 0
M  V30 1161 H 114.367 1.65641 1.201 0
M  V30 1162 H 114.377 1.84213 3.64046 0
M  V30 1163 H 113.052 2.83021 3.04749 0
M  V30 1164 H 111.629 1.07506 3.57067 0
M  V30 1165 N 113.814 -1.1601 1.06675 0
M  V30 1166 C 114.746 -2.20115 0.638921 0
M  V30 1167 C 115.759 -1.59916 -0.305057 0
M  V30 1168 O 116.948 -1.78245 -0.0954446 0
M  V30 1169 C 114.048 -3.38798 -0.0830083 0
M  V30 1170 C 113.221 -4.2855 0.875426 0
M  V30 1171 C 112.28 -5.25849 0.192042 0
M  V30 1172 O 111.306 -5.63102 0.830921 0
M  V30 1173 N 112.508 -5.70648 -1.06493 0
M  V30 1174 H 115.273 -2.57439 1.53444 0
M  V30 1175 H 112.834 -1.31057 0.950557 0
M  V30 1176 H 114.826 -4.00936 -0.550685 0
M  V30 1177 H 113.396 -2.99947 -0.880386 0
M  V30 1178 H 112.616 -3.63617 1.52238 0
M  V30 1179 H 113.904 -4.85393 1.52548 0
M  V30 1180 H 113.302 -5.42482 -1.60405 0
M  V30 1181 H 111.859 -6.34859 -1.47641 0
M  V30 1182 N 115.292 -0.849877 -1.32721 0
M  V30 1183 C 116.708 -0.539102 -1.50219 0
M  V30 1184 C 116.908 0.931271 -1.78689 0
M  V30 1185 O 115.964 1.71455 -1.85363 0
M  V30 1186 C 117.277 -1.42196 -2.64954 0
M  V30 1187 C 118.825 -1.42189 -2.78839 0
M  V30 1188 C 119.3 -2.28985 -3.96648 0
M  V30 1189 N 120.791 -2.26754 -4.03902 0
M  V30 1190 C 121.526 -2.90644 -4.94281 0
M  V30 1191 N 121.022 -3.63629 -5.897 0
M  V30 1192 N 122.815 -2.80057 -4.87365 0
M  V30 1193 H 114.966 -1.80156 -1.12506 0
M  V30 1194 H 117.229 -0.769217 -0.554085 0
M  V30 1195 H 116.935 -2.46733 -2.50631 0
M  V30 1196 H 116.809 -1.10591 -3.60624 0
M  V30 1197 H 119.196 -0.38419 -2.92588 0
M  V30 1198 H 119.277 -1.77807 -1.83898 0
M  V30 1199 H 118.921 -3.32819 -3.83658 0
M  V30 1200 H 118.851 -1.90702 -4.90857 0
M  V30 1201 H 121.342 -1.73688 -3.3562 0
M  V30 1202 H 121.655 -4.09558 -6.55349 0
M  V30 1203 H 120 -3.67737 -5.89741 0
M  V30 1204 H 123.191 -2.22593 -4.11789 0
M  V30 1205 H 123.364 -3.30132 -5.57599 0
M  V30 1206 N 116.77 1.45427 -0.607355 0
M  V30 1207 C 117.68 2.34325 0.113463 0
M  V30 1208 C 118.696 1.51226 0.860617 0
M  V30 1209 O 119.872 1.84029 0.818255 0
M  V30 1210 C 116.937 3.28839 1.09844 0
M  V30 1211 C 115.998 4.27844 0.353271 0
M  V30 1212 C 115.231 5.17842 1.29133 0
M  V30 1213 O 115.454 5.11264 2.52913 0
M  V30 1214 O 114.388 5.96713 0.788523 0
M  V30 1215 H 118.214 2.97364 -0.617094 0
M  V30 1216 H 115.799 1.44807 -0.367619 0
M  V30 1217 H 117.681 3.8708 1.66575 0
M  V30 1218 H 116.356 2.68365 1.81003 0
M  V30 1219 H 115.263 3.7322 -0.256494 0
M  V30 1220 H 116.596 4.91173 -0.317822 0
M  V30 1221 N 118.248 0.346503 1.53744 0
M  V30 1222 C 119.18 -0.543316 2.22667 0
M  V30 1223 C 120.193 -1.06159 1.23427 0
M  V30 1224 O 121.382 -0.971235 1.49764 0
M  V30 1225 C 118.482 -1.76076 2.89569 0
M  V30 1226 C 117.655 -1.37727 4.15151 0
M  V30 1227 C 116.714 -2.45471 4.65436 0
M  V30 1228 O 115.74 -2.08655 5.29577 0
M  V30 1229 N 116.942 -3.7677 4.41616 0
M  V30 1230 H 119.707 0.0469703 2.99663 0
M  V30 1231 H 117.268 0.170766 1.60997 0
M  V30 1232 H 119.26 -2.47593 3.20125 0
M  V30 1233 H 117.83 -2.25835 2.16142 0
M  V30 1234 H 117.05 -0.492746 3.91108 0
M  V30 1235 H 118.338 -1.09708 4.96832 0
M  V30 1236 H 117.736 -4.09467 3.90325 0
M  V30 1237 H 116.293 -4.44448 4.7677 0
M  V30 1238 N 119.726 -1.57421 0.075193 0
M  V30 1239 C 120.956 -1.97659 -0.601203 0
M  V30 1240 C 121.364 -0.952427 -1.63479 0
M  V30 1241 O 120.707 0.0688241 -1.83571 0
M  V30 1242 C 120.769 -3.34218 -1.32434 0
M  V30 1243 C 120.433 -4.5484 -0.443826 0
M  V30 1244 C 121.43 -5.19034 0.299969 0
M  V30 1245 C 119.115 -5.00952 -0.367709 0
M  V30 1246 C 121.109 -6.27695 1.10807 0
M  V30 1247 C 118.796 -6.09484 0.444058 0
M  V30 1248 C 119.794 -6.72719 1.18061 0
M  V30 1249 O 119.482 -7.79161 1.97898 0
M  V30 1250 H 119.214 -0.65494 -0.167422 0
M  V30 1251 H 121.768 -2.04886 0.145157 0
M  V30 1252 H 119.998 -3.23615 -2.11685 0
M  V30 1253 H 121.687 -3.59038 -1.89331 0
M  V30 1254 H 122.453 -4.84351 0.250776 0
M  V30 1255 H 118.332 -4.51509 -0.930638 0
M  V30 1256 H 121.876 -6.76982 1.68347 0
M  V30 1257 H 117.773 -6.43601 0.494803 0
M  V30 1258 H 118.541 -7.96055 1.90367 0
M  V30 1259 N 121.204 0.198386 -1.56346 0
M  V30 1260 C 122.134 1.24865 -1.9731 0
M  V30 1261 C 123.115 1.47651 -0.844576 0
M  V30 1262 O 124.3 1.59444 -1.10866 0
M  V30 1263 C 121.43 2.59358 -2.30977 0
M  V30 1264 C 120.384 2.5119 -3.46537 0
M  V30 1265 C 119.71 3.89926 -3.65871 0
M  V30 1266 C 121.01 2.03977 -4.80823 0
M  V30 1267 H 122.704 0.908252 -2.85291 0
M  V30 1268 H 120.25 0.435462 -1.37258 0
M  V30 1269 H 122.203 3.33011 -2.58228 0
M  V30 1270 H 120.927 2.95132 -1.39874 0
M  V30 1271 H 119.586 1.79993 -3.19371 0
M  V30 1272 H 119.234 4.23046 -2.72105 0
M  V30 1273 H 118.934 3.85336 -4.4361 0
M  V30 1274 H 120.458 4.65205 -3.95495 0
M  V30 1275 H 121.872 2.67386 -5.07127 0
M  V30 1276 H 120.269 2.10397 -5.62008 0
M  V30 1277 H 121.339 0.992861 -4.74626 0
M  V30 1278 N 122.682 1.50554 0.465978 0
M  V30 1279 C 124.093 1.54599 1.04671 0
M  V30 1280 C 124.444 0.352488 1.93008 0
M  V30 1281 O 123.569 -0.534044 2.09707 0
M  V30 1282 C 124.164 2.80166 1.90505 0
M  V30 1283 C 122.723 2.86876 2.43678 0
M  V30 1284 C 121.87 2.48947 1.22151 0
M  V30 1285 H 124.821 1.56744 0.248384 0
M  V30 1286 H 124.842 2.62311 2.75633 0
M  V30 1287 H 124.354 3.67013 1.26186 0
M  V30 1288 H 122.455 2.04393 3.11536 0
M  V30 1289 H 122.568 3.89885 2.78436 0
M  V30 1290 H 120.932 2.01498 1.5579 0
M  V30 1291 H 121.715 3.38107 0.594866 0
M  V30 1292 N 124.16 -0.719506 1.40217 0
M  V30 1293 C 125.408 -1.47641 1.3801 0
M  V30 1294 C 125.729 -1.94992 -0.018145 0
M  V30 1295 O 124.999 -1.70073 -0.972207 0
M  V30 1296 H 123.579 -0.547744 0.507923 0
M  V30 1297 H 126.241 -0.853187 1.75233 0
M  V30 1298 H 125.337 -2.35112 2.05253 0
M  V30 1299 N 125.638 -1.25649 -0.95132 0
M  V30 1300 C 126.601 -1.06399 -2.03007 0
M  V30 1301 C 127.601 -0.0156794 -1.60792 0
M  V30 1302 O 128.791 -0.25817 -1.72276 0
M  V30 1303 C 125.923 -0.616184 -3.35285 0
M  V30 1304 H 127.116 -2.02164 -2.21517 0
M  V30 1305 H 124.669 -1.08103 -1.12887 0
M  V30 1306 H 125.404 0.343917 -3.22471 0
M  V30 1307 H 125.189 -1.37301 -3.67275 0
M  V30 1308 H 126.679 -0.503032 -4.14559 0
M  V30 1309 N 127.117 1.15442 -1.07289 0
M  V30 1310 C 128.366 1.85557 -0.790669 0
M  V30 1311 C 128.679 1.83186 0.685739 0
M  V30 1312 O 129.885 2.48977 1.0827 0
M  V30 1313 C 128.341 3.33038 -1.36433 0
M  V30 1314 C 127.949 3.43856 -2.8717 0
M  V30 1315 C 129.693 4.0834 -1.1601 0
M  V30 1316 C 127.6 4.85482 -3.3773 0
M  V30 1317 H 126.53 0.695122 -0.292098 0
M  V30 1318 H 129.181 1.30219 -1.29287 0
M  V30 1319 H 127.563 3.88043 -0.789864 0
M  V30 1320 H 128.737 2.98961 -3.50655 0
M  V30 1321 H 127.052 2.81998 -3.06376 0
M  V30 1322 H 129.649 5.12859 -1.51262 0
M  V30 1323 H 129.992 4.16182 -0.0991007 0
M  V30 1324 H 130.525 3.59603 -1.70089 0
M  V30 1325 H 127.264 4.82823 -4.43353 0
M  V30 1326 H 126.784 5.30961 -2.78999 0
M  V30 1327 H 128.463 5.54335 -3.33648 0
M  V30 1328 N 128.595 0.856903 1.32268 0
M  V30 1329 C 129.558 0.308171 2.27119 0
M  V30 1330 C 130.558 -0.533421 1.51695 0
M  V30 1331 O 131.748 -0.344607 1.70757 0
M  V30 1332 C 128.88 -0.563757 3.36206 0
M  V30 1333 H 130.073 1.14535 2.77167 0
M  V30 1334 H 127.626 0.631421 1.42978 0
M  V30 1335 H 128.361 -1.42266 2.91429 0
M  V30 1336 H 128.146 0.0386749 3.92081 0
M  V30 1337 H 129.636 -0.940386 4.06874 0
M  V30 1338 N 130.073 -1.45103 0.615059 0
M  V30 1339 C 131.003 -2.33339 -0.0865619 0
M  V30 1340 C 131.984 -1.4727 -0.851209 0
M  V30 1341 O 133.169 -1.76026 -0.820281 0
M  V30 1342 C 130.299 -3.30095 -1.07956 0
M  V30 1343 C 129.253 -4.25858 -0.427628 0
M  V30 1344 C 128.579 -5.12361 -1.5294 0
M  V30 1345 C 129.879 -5.18165 0.655944 0
M  V30 1346 H 131.573 -2.92254 0.650224 0
M  V30 1347 H 129.119 -1.40532 0.314138 0
M  V30 1348 H 131.072 -3.90698 -1.57901 0
M  V30 1349 H 129.796 -2.69355 -1.84703 0
M  V30 1350 H 128.455 -3.66564 0.0510292 0
M  V30 1351 H 128.103 -4.47984 -2.28734 0
M  V30 1352 H 127.803 -5.77238 -1.09865 0
M  V30 1353 H 129.327 -5.75833 -2.03098 0
M  V30 1354 H 130.741 -5.72796 0.240257 0
M  V30 1355 H 129.138 -5.91559 1.00888 0
M  V30 1356 H 130.208 -4.60144 1.52957 0
M  V30 1357 N 131.551 -0.354651 -1.53558 0
M  V30 1358 C 132.798 0.238443 -2.01091 0
M  V30 1359 C 133.126 1.49663 -1.24222 0
M  V30 1360 O 132.381 1.93049 -0.321003 0
M  V30 1361 C 132.68 0.587121 -3.52545 0
M  V30 1362 C 132.346 -0.575472 -4.47213 0
M  V30 1363 C 131.008 -0.894497 -4.72813 0
M  V30 1364 C 133.36 -1.35489 -5.03281 0
M  V30 1365 C 130.688 -1.99511 -5.51736 0
M  V30 1366 C 133.04 -2.44583 -5.83405 0
M  V30 1367 C 131.704 -2.77033 -6.07296 0
M  V30 1368 H 130.974 0.0872526 -0.735845 0
M  V30 1369 H 133.621 -0.484859 -1.8526 0
M  V30 1370 H 131.926 1.39129 -3.66265 0
M  V30 1371 H 133.623 1.05809 -3.86789 0
M  V30 1372 H 130.213 -0.316774 -4.27428 0
M  V30 1373 H 134.397 -1.12167 -4.83459 0
M  V30 1374 H 129.653 -2.25063 -5.68469 0
M  V30 1375 H 133.827 -3.05401 -6.25862 0
M  V30 1376 H 131.454 -3.6244 -6.68237 0
M  V30 1377 N 133.029 1.57378 -0.0835403 0
M  V30 1378 C 133.977 2.14602 0.89714 0
M  V30 1379 C 134.971 1.08589 1.30018 0
M  V30 1380 O 136.177 1.26952 1.27606 0
M  V30 1381 H 132.552 0.686346 0.3073 0
M  V30 1382 H 134.523 2.95845 0.38969 0
M  V30 1383 C 133.272 2.73188 2.15089 0
M  V30 1384 H 132.595 3.54442 1.84962 0
M  V30 1385 H 134.035 3.1681 2.81793 0
M  V30 1386 C 132.494 1.68517 2.91725 0
M  V30 1387 O 133.024 1.11718 3.85852 0
M  V30 1388 N 131.23 1.39277 2.55049 0
M  V30 1389 H 130.777 1.85655 1.78577 0
M  V30 1390 H 130.735 0.694791 3.06627 0
M  V30 1391 N 134.507 -0.190092 1.56449 0
M  V30 1392 C 135.753 -0.911052 1.81184 0
M  V30 1393 C 136.086 -1.82699 0.658396 0
M  V30 1394 O 135.361 -1.91491 -0.340775 0
M  V30 1395 C 135.644 -1.72297 3.16205 0
M  V30 1396 C 135.497 -0.831419 4.42049 0
M  V30 1397 C 136.816 -2.69454 3.47969 0
M  V30 1398 H 133.935 -0.32977 0.659106 0
M  V30 1399 H 136.577 -0.178169 1.89163 0
M  V30 1400 H 134.727 -2.34778 3.09534 0
M  V30 1401 H 136.399 -0.220929 4.60771 0
M  V30 1402 H 134.642 -0.138406 4.33579 0
M  V30 1403 H 135.313 -1.43461 5.33032 0
M  V30 1404 H 137.789 -2.17104 3.54972 0
M  V30 1405 H 136.665 -3.23342 4.43555 0
M  V30 1406 H 136.926 -3.48744 2.71717 0
M  V30 1407 N 135.985 -1.50799 -0.457987 0
M  V30 1408 C 136.933 -1.71162 -1.575 0
M  V30 1409 C 137.927 -0.577592 -1.59249 0
M  V30 1410 O 139.133 -0.758443 -1.63241 0
M  V30 1411 H 135.508 -0.540468 -0.522875 0
M  V30 1412 H 137.479 -2.64837 -1.37492 0
M  V30 1413 C 136.228 -1.83496 -2.95338 0
M  V30 1414 H 135.551 -2.70153 -2.94716 0
M  V30 1415 H 136.991 -2.01765 -3.72917 0
M  V30 1416 C 135.45 -0.589694 -3.31699 0
M  V30 1417 O 135.98 0.265163 -4.00824 0
M  V30 1418 N 134.186 -0.439845 -2.87252 0
M  V30 1419 H 133.733 -1.13655 -2.31172 0
M  V30 1420 H 133.691 0.392159 -3.11945 0
M  V30 1421 N 137.463 0.71206 -1.40597 0
M  V30 1422 C 138.411 1.84746 -1.41321 0
M  V30 1423 C 139.405 1.66842 -0.293268 0
M  V30 1424 O 140.611 1.73904 -0.464481 0
M  V30 1425 H 136.986 0.608522 -0.441819 0
M  V30 1426 H 138.957 1.81252 -2.37045 0
M  V30 1427 C 137.706 3.22638 -1.29614 0
M  V30 1428 H 137.029 3.37023 -2.15071 0
M  V30 1429 H 138.469 4.02209 -1.3418 0
M  V30 1430 C 136.928 3.36899 -0.00673121 0
M  V30 1431 O 137.458 3.90186 0.954859 0
M  V30 1432 N 135.664 2.9053 0.0639327 0
M  V30 1433 H 135.211 2.47353 -0.719311 0
M  V30 1434 H 135.169 3.0045 0.926118 0
M  V30 1435 N 138.941 1.26152 0.944643 0
M  V30 1436 C 140.166 1.14363 1.7302 0
M  V30 1437 C 140.591 -0.29772 1.85729 0
M  V30 1438 O 139.949 -1.2157 1.34501 0
M  V30 1439 C 139.997 1.81378 3.11664 0
M  V30 1440 O 139.101 1.10022 3.97453 0
M  V30 1441 H 138.442 0.398694 0.53098 0
M  V30 1442 H 140.972 1.66906 1.18337 0
M  V30 1443 H 140.982 1.88064 3.62072 0
M  V30 1444 H 139.657 2.86237 3.0173 0
M  V30 1445 H 138.234 1.11287 3.55907 0
M  V30 1446 N 140.419 -1.14872 1.07899 0
M  V30 1447 C 141.644 -1.90202 0.826926 0
M  V30 1448 C 142.069 -1.77774 -0.614664 0
M  V30 1449 O 141.427 -1.11431 -1.43013 0
M  V30 1450 C 141.475 -3.38352 1.24702 0
M  V30 1451 O 140.579 -4.10497 0.39575 0
M  V30 1452 H 139.92 -0.591968 0.300782 0
M  V30 1453 H 142.45 -1.45437 1.43907 0
M  V30 1454 H 142.46 -3.89156 1.22563 0
M  V30 1455 H 141.135 -3.46715 2.29698 0
M  V30 1456 H 139.712 -3.69796 0.480117 0
M  V30 1457 N 141.898 -0.863906 -1.31812 0
M  V30 1458 C 142.846 -0.30422 -2.30602 0
M  V30 1459 C 143.84 0.577419 -1.59255 0
M  V30 1460 O 145.046 0.464194 -1.73912 0
M  V30 1461 H 141.421 -0.0796877 -0.747766 0
M  V30 1462 H 143.392 -1.15148 -2.75288 0
M  V30 1463 C 142.141 0.484617 -3.44306 0
M  V30 1464 H 141.464 -0.18451 -3.99374 0
M  V30 1465 H 142.904 0.841664 -4.15562 0
M  V30 1466 C 141.363 1.6735 -2.92396 0
M  V30 1467 O 141.893 2.77273 -2.90659 0
M  V30 1468 N 140.099 1.50362 -2.48676 0
M  V30 1469 H 139.646 0.609402 -2.50288 0
M  V30 1470 H 139.604 2.30051 -2.14299 0
M  V30 1471 N 143.376 1.44774 -0.622745 0
M  V30 1472 C 144.323 2.30635 0.0871679 0
M  V30 1473 C 145.293 1.42994 0.845097 0
M  V30 1474 O 146.478 1.71907 0.827812 0
M  V30 1475 C 143.618 3.28144 1.06844 0
M  V30 1476 C 142.731 4.30888 0.309809 0
M  V30 1477 C 141.866 5.15494 1.28215 0
M  V30 1478 C 140.905 6.09953 0.512198 0
M  V30 1479 N 140.042 6.87287 1.43458 0
M  V30 1480 H 144.882 2.90803 -0.650974 0
M  V30 1481 H 142.419 1.43286 -0.33281 0
M  V30 1482 H 144.377 3.83157 1.65066 0
M  V30 1483 H 143.007 2.69695 1.77382 0
M  V30 1484 H 142.059 3.78414 -0.388181 0
M  V30 1485 H 143.371 4.97955 -0.290254 0
M  V30 1486 H 142.525 5.74983 1.93596 0
M  V30 1487 H 141.264 4.48481 1.91614 0
M  V30 1488 H 140.269 5.49581 -0.155151 0
M  V30 1489 H 141.494 6.78999 -0.116958 0
M  V30 1490 H 139.44 6.2295 2.05594 0
M  V30 1491 H 139.357 7.50763 0.888335 0
M  V30 1492 H 140.625 7.51306 2.07749 0
M  V30 1493 N 144.854 0.36279 1.53368 0
M  V30 1494 C 146.131 -0.284021 1.93527 0
M  V30 1495 C 146.511 -1.66628 1.29608 0
M  V30 1496 O 145.859 -2.23942 0.45413 0
M  V30 1497 C 146.069 -0.337028 3.47369 0
M  V30 1498 C 147.417 -0.578708 4.20638 0
M  V30 1499 O 148.441 -0.418352 3.53735 0
M  V30 1500 O 147.3 -0.89074 5.39192 0
M  V30 1501 H 144.394 -0.169743 0.809393 0
M  V30 1502 H 146.94 0.41537 1.64538 0
M  V30 1503 H 145.712 0.632217 3.86159 0
M  V30 1504 H 145.335 -1.08243 3.82582 0
M  V30 1505 N 146.332 -1.57332 0.0918853 0
M  V30 1506 C 147.264 -2.10869 -0.898168 0
M  V30 1507 C 148.277 -1.04521 -1.24817 0
M  V30 1508 O 149.466 -1.31977 -1.20184 0
M  V30 1509 C 146.566 -2.57083 -2.2082 0
M  V30 1510 C 145.739 -3.87229 -2.03402 0
M  V30 1511 C 144.798 -4.19324 -3.17889 0
M  V30 1512 O 143.824 -4.88598 -2.91994 0
M  V30 1513 N 145.026 -3.74471 -4.43567 0
M  V30 1514 H 147.791 -2.96439 -0.440943 0
M  V30 1515 H 145.352 -1.61631 -0.0933064 0
M  V30 1516 H 147.344 -2.75602 -2.96354 0
M  V30 1517 H 145.914 -1.76541 -2.57977 0
M  V30 1518 H 145.134 -3.7789 -1.12218 0
M  V30 1519 H 146.422 -4.72379 -1.89038 0
M  V30 1520 H 145.82 -3.18546 -4.67488 0
M  V30 1521 H 144.377 -3.98151 -5.16061 0
M  V30 1522 N 147.81 0.181792 -1.56548 0
M  V30 1523 C 148.72 1.24538 -1.98815 0
M  V30 1524 C 149.736 1.49045 -0.897861 0
M  V30 1525 O 150.912 1.61399 -1.20467 0
M  V30 1526 C 147.977 2.56683 -2.33055 0
M  V30 1527 C 147.038 2.40131 -3.55859 0
M  V30 1528 C 146.271 3.65975 -3.88456 0
M  V30 1529 O 146.494 4.70711 -3.22161 0
M  V30 1530 O 145.428 3.6071 -4.81842 0
M  V30 1531 H 149.254 0.916647 -2.89536 0
M  V30 1532 H 146.839 0.387842 -1.44278 0
M  V30 1533 H 148.721 3.34655 -2.56094 0
M  V30 1534 H 147.396 2.89157 -1.45498 0
M  V30 1535 H 146.303 1.60226 -3.38051 0
M  V30 1536 H 147.636 2.12585 -4.43924 0
M  V30 1537 N 149.288 1.51039 0.449983 0
M  V30 1538 C 150.699 1.557 1.03026 0
M  V30 1539 C 151.05 0.372939 1.92623 0
M  V30 1540 O 150.175 -0.511771 2.10261 0
M  V30 1541 C 150.77 2.82171 1.87523 0
M  V30 1542 C 149.329 2.89444 2.40622 0
M  V30 1543 C 148.476 2.50228 1.19504 0
M  V30 1544 H 151.427 1.56999 0.231745 0
M  V30 1545 H 151.448 2.65219 2.72835 0
M  V30 1546 H 150.96 3.68331 1.22286 0
M  V30 1547 H 149.061 2.07685 3.0935 0
M  V30 1548 H 149.174 3.92816 2.74285 0
M  V30 1549 H 147.538 2.03139 1.53644 0
M  V30 1550 H 148.321 3.38719 0.558972 0
M  V30 1551 N 150.766 -0.704594 1.40972 0
M  V30 1552 C 151.676 -1.84856 1.44448 0
M  V30 1553 C 152.692 -1.70726 0.335961 0
M  V30 1554 O 153.868 -1.92799 0.582276 0
M  V30 1555 C 150.933 -3.20758 1.31587 0
M  V30 1556 C 149.994 -3.47063 2.52677 0
M  V30 1557 C 149.227 -4.76481 2.4042 0
M  V30 1558 O 149.45 -5.52341 1.42391 0
M  V30 1559 O 148.384 -5.03367 3.30007 0
M  V30 1560 H 152.21 -1.8488 2.40942 0
M  V30 1561 H 149.795 -0.85647 1.22413 0
M  V30 1562 H 151.677 -4.01913 1.26665 0
M  V30 1563 H 150.352 -3.21438 0.382049 0
M  V30 1564 H 149.259 -2.65873 2.63177 0
M  V30 1565 H 150.592 -3.5119 3.44858 0
M  V30 1566 N 152.244 -1.26651 -0.937939 0
M  V30 1567 C 153.154 -1.10276 -2.07066 0
M  V30 1568 C 154.17 -0.0354197 -1.73964 0
M  V30 1569 O 155.346 -0.239816 -1.99967 0
M  V30 1570 C 152.411 -0.740887 -3.38691 0
M  V30 1571 C 151.472 -1.88799 -3.85556 0
M  V30 1572 C 150.705 -1.54329 -5.10899 0
M  V30 1573 O 150.928 -0.446494 -5.6865 0
M  V30 1574 O 149.862 -2.37911 -5.52885 0
M  V30 1575 H 153.688 -2.05309 -2.23789 0
M  V30 1576 H 151.273 -1.05743 -1.0554 0
M  V30 1577 H 153.155 -0.55195 -4.1777 0
M  V30 1578 H 151.83 0.180022 -3.23199 0
M  V30 1579 H 150.737 -2.13191 -3.07409 0
M  V30 1580 H 152.07 -2.78874 -4.05574 0
M  V30 1581 N 153.722 1.14298 -1.08507 0
M  V30 1582 C 154.669 2.19414 -0.715965 0
M  V30 1583 C 155.639 1.63399 0.298326 0
M  V30 1584 O 156.824 1.89929 0.182101 0
M  V30 1585 C 153.964 3.44845 -0.132534 0
M  V30 1586 C 153.077 4.15007 -1.19973 0
M  V30 1587 C 152.212 5.28024 -0.580048 0
M  V30 1588 C 151.251 5.9002 -1.62921 0
M  V30 1589 N 150.388 6.94485 -1.03125 0
M  V30 1590 H 155.228 2.50336 -1.61666 0
M  V30 1591 H 152.765 1.2293 -0.807882 0
M  V30 1592 H 154.723 4.16601 0.223454 0
M  V30 1593 H 153.353 3.14403 0.731467 0
M  V30 1594 H 152.405 3.41629 -1.67313 0
M  V30 1595 H 153.717 4.57178 -1.99473 0
M  V30 1596 H 152.871 6.06455 -0.172364 0
M  V30 1597 H 151.61 4.87076 0.246603 0
M  V30 1598 H 150.615 5.10291 -2.04654 0
M  V30 1599 H 151.84 6.33042 -2.45835 0
M  V30 1600 H 149.786 6.55612 -0.225711 0
M  V30 1601 H 149.703 7.35148 -1.76334 0
M  V30 1602 H 150.971 7.7679 -0.649458 0
M  V30 1603 N 155.201 0.870884 1.31352 0
M  V30 1604 C 156.148 0.325425 2.28494 0
M  V30 1605 C 157.118 -0.576615 1.5577 0
M  V30 1606 O 158.303 -0.508059 1.83911 0
M  V30 1607 C 155.443 -0.466283 3.41935 0
M  V30 1608 C 154.556 0.463378 4.29508 0
M  V30 1609 C 153.691 -0.342544 5.30094 0
M  V30 1610 C 152.73 0.583486 6.09313 0
M  V30 1611 N 151.867 -0.186244 7.01853 0
M  V30 1612 H 156.707 1.15901 2.74538 0
M  V30 1613 H 154.244 0.58294 1.35056 0
M  V30 1614 H 156.202 -0.941085 4.06447 0
M  V30 1615 H 154.832 -1.26456 2.97 0
M  V30 1616 H 153.884 1.05663 3.65431 0
M  V30 1617 H 155.196 1.1734 4.84802 0
M  V30 1618 H 154.35 -0.879816 6.00287 0
M  V30 1619 H 153.089 -1.08585 4.75458 0
M  V30 1620 H 152.094 1.13251 5.3801 0
M  V30 1621 H 153.319 1.32566 6.66035 0
M  V30 1622 H 151.265 -0.912348 6.49625 0
M  V30 1623 H 151.182 0.464422 7.54572 0
M  V30 1624 H 152.45 -0.704716 7.76308 0
M  V30 1625 N 156.679 -1.44442 0.630414 0
M  V30 1626 C 157.626 -2.30678 -0.0749355 0
M  V30 1627 C 158.596 -1.4344 -0.837502 0
M  V30 1628 O 159.781 -1.72343 -0.818684 0
M  V30 1629 C 156.921 -3.28706 -1.05103 0
M  V30 1630 C 156.034 -4.31046 -0.286954 0
M  V30 1631 C 155.169 -5.16167 -1.2548 0
M  V30 1632 C 154.208 -6.10216 -0.479843 0
M  V30 1633 N 153.345 -6.88039 -1.39811 0
M  V30 1634 H 158.185 -2.90454 0.666386 0
M  V30 1635 H 155.722 -1.43107 0.340404 0
M  V30 1636 H 157.68 -3.84027 -1.63031 0
M  V30 1637 H 156.31 -2.70632 -1.75949 0
M  V30 1638 H 155.362 -3.78203 0.408243 0
M  V30 1639 H 156.674 -4.97794 0.316657 0
M  V30 1640 H 155.828 -5.76002 -1.90544 0
M  V30 1641 H 154.567 -4.49491 -1.89233 0
M  V30 1642 H 153.572 -5.49491 0.184295 0
M  V30 1643 H 154.797 -6.78928 0.152965 0
M  V30 1644 H 152.743 -6.24032 -2.02287 0
M  V30 1645 H 152.66 -7.51223 -0.848508 0
M  V30 1646 H 153.928 -7.52397 -2.03762 0
M  V30 1647 N 158.157 -0.370918 -1.53173 0
M  V30 1648 C 159.104 0.473035 -2.259 0
M  V30 1649 C 160.074 1.07311 -1.26781 0
M  V30 1650 O 161.259 1.1046 -1.55574 0
M  V30 1651 C 158.399 1.60405 -3.05556 0
M  V30 1652 C 157.512 1.02863 -4.19575 0
M  V30 1653 C 156.647 2.12918 -4.86661 0
M  V30 1654 C 155.686 1.52869 -5.92704 0
M  V30 1655 N 154.823 2.56779 -6.53459 0
M  V30 1656 H 159.663 -0.153649 -2.97604 0
M  V30 1657 H 157.2 -0.0875946 -1.46839 0
M  V30 1658 H 159.158 2.27034 -3.50016 0
M  V30 1659 H 157.788 2.20131 -2.36097 0
M  V30 1660 H 156.84 0.252465 -3.79561 0
M  V30 1661 H 158.152 0.549642 -4.95762 0
M  V30 1662 H 157.306 2.87356 -5.34333 0
M  V30 1663 H 156.045 2.6417 -4.09958 0
M  V30 1664 H 155.05 0.769479 -5.44389 0
M  V30 1665 H 156.275 1.02435 -6.7133 0
M  V30 1666 H 154.221 3.07235 -5.79606 0
M  V30 1667 H 154.138 2.13583 -7.25202 0
M  V30 1668 H 155.406 3.30903 -7.05779 0
M  V30 1669 N 159.635 1.57281 -0.100228 0
M  V30 1670 C 160.582 2.14305 0.856858 0
M  V30 1671 C 161.552 1.06296 1.27634 0
M  V30 1672 O 162.737 1.34109 1.35718 0
M  V30 1673 C 159.877 2.73184 2.10866 0
M  V30 1674 C 158.99 3.95442 1.73925 0
M  V30 1675 C 158.125 4.42468 2.93931 0
M  V30 1676 C 157.164 5.57303 2.5314 0
M  V30 1677 N 156.301 5.99158 3.65997 0
M  V30 1678 H 161.141 2.95772 0.363726 0
M  V30 1679 H 158.678 1.46139 0.167858 0
M  V30 1680 H 160.636 3.05442 2.84185 0
M  V30 1681 H 159.266 1.94437 2.57671 0
M  V30 1682 H 158.318 3.69464 0.905554 0
M  V30 1683 H 159.63 4.78769 1.39935 0
M  V30 1684 H 158.784 4.76537 3.75496 0
M  V30 1685 H 157.523 3.58052 3.31134 0
M  V30 1686 H 156.528 5.22857 1.70003 0
M  V30 1687 H 157.753 6.43471 2.17075 0
M  V30 1688 H 155.699 5.17687 4.02909 0
M  V30 1689 H 155.616 6.77295 3.35869 0
M  V30 1690 H 156.884 6.3786 4.48057 0
M  V30 1691 N 161.113 -0.173488 1.56642 0
M  V30 1692 C 162.06 -1.21482 1.96242 0
M  V30 1693 C 163.03 -1.44104 0.826027 0
M  V30 1694 O 164.215 -1.5688 1.08597 0
M  V30 1695 C 161.355 -2.54964 2.32567 0
M  V30 1696 C 160.468 -2.39739 3.59373 0
M  V30 1697 C 159.603 -3.66072 3.84921 0
M  V30 1698 C 158.642 -3.45771 5.05083 0
M  V30 1699 N 157.779 -4.64169 5.26775 0
M  V30 1700 H 162.619 -0.870123 2.85014 0
M  V30 1701 H 160.156 -0.418245 1.41029 0
M  V30 1702 H 162.114 -3.32758 2.5165 0
M  V30 1703 H 160.744 -2.87433 1.46908 0
M  V30 1704 H 159.796 -1.53131 3.48217 0
M  V30 1705 H 161.108 -2.20683 4.47326 0
M  V30 1706 H 160.262 -4.52303 4.0436 0
M  V30 1707 H 159.001 -3.88105 2.9534 0
M  V30 1708 H 158.006 -2.57927 4.85545 0
M  V30 1709 H 159.231 -3.25163 5.96193 0
M  V30 1710 H 157.177 -4.86425 4.40144 0
M  V30 1711 H 157.094 -4.48019 6.08946 0
M  V30 1712 H 158.362 -5.51689 5.5069 0
M  V30 1713 N 162.591 -1.51276 -0.441967 0
M  V30 1714 C 163.501 -1.75092 -1.56141 0
M  V30 1715 C 164.517 -0.634963 -1.62001 0
M  V30 1716 O 165.693 -0.916686 -1.79329 0
M  V30 1717 C 162.758 -1.86666 -2.92158 0
M  V30 1718 C 161.819 -3.10506 -2.96453 0
M  V30 1719 C 161.052 -3.21519 -4.25982 0
M  V30 1720 O 161.275 -2.38586 -5.18105 0
M  V30 1721 O 160.209 -4.14465 -4.36466 0
M  V30 1722 H 164.035 -2.70044 -1.38961 0
M  V30 1723 H 161.62 -1.35722 -0.624499 0
M  V30 1724 H 163.502 -1.96292 -3.72891 0
M  V30 1725 H 162.177 -0.949014 -3.09476 0
M  V30 1726 H 161.084 -3.06363 -2.14692 0
M  V30 1727 H 162.417 -4.01945 -2.84079 0
M  V30 1728 N 164.069 0.697108 -1.41344 0
M  V30 1729 C 165.016 1.81106 -1.43071 0
M  V30 1730 C 165.986 1.63632 -0.285275 0
M  V30 1731 O 167.171 1.84504 -0.486091 0
M  V30 1732 C 164.311 3.18975 -1.31715 0
M  V30 1733 C 163.424 3.47892 -2.56115 0
M  V30 1734 C 162.559 4.75367 -2.37064 0
M  V30 1735 C 161.598 4.97247 -3.56948 0
M  V30 1736 N 160.735 6.15947 -3.36977 0
M  V30 1737 H 165.575 1.78965 -2.38276 0
M  V30 1738 H 163.112 0.873975 -1.18322 0
M  V30 1739 H 165.07 3.98615 -1.23133 0
M  V30 1740 H 163.7 3.20297 -0.401183 0
M  V30 1741 H 162.752 2.62669 -2.75153 0
M  V30 1742 H 164.064 3.59962 -3.45295 0
M  V30 1743 H 163.218 5.63059 -2.25941 0
M  V30 1744 H 161.957 4.65541 -1.45338 0
M  V30 1745 H 160.962 4.08004 -3.68527 0
M  V30 1746 H 162.187 5.08934 -4.49626 0
M  V30 1747 H 160.133 6.07336 -2.47949 0
M  V30 1748 H 160.05 6.28777 -4.19732 0
M  V30 1749 H 161.318 7.06377 -3.29623 0
M  V30 1750 N 165.547 1.27147 0.931209 0
M  V30 1751 C 166.494 1.09568 2.03134 0
M  V30 1752 C 167.464 -0.00222433 1.661 0
M  V30 1753 O 168.649 0.159439 1.90133 0
M  V30 1754 C 165.789 0.745231 3.36957 0
M  V30 1755 C 164.902 1.92041 3.86968 0
M  V30 1756 C 164.037 1.51216 5.09222 0
M  V30 1757 C 163.076 2.65504 5.5152 0
M  V30 1758 N 162.213 2.25291 6.64972 0
M  V30 1759 H 167.053 2.03708 2.17502 0
M  V30 1760 H 164.59 1.01411 1.06556 0
M  V30 1761 H 166.548 0.522878 4.1391 0
M  V30 1762 H 165.178 -0.159202 3.22407 0
M  V30 1763 H 164.23 2.25541 3.06326 0
M  V30 1764 H 165.542 2.77787 4.1429 0
M  V30 1765 H 164.696 1.25084 5.93666 0
M  V30 1766 H 163.435 0.625749 4.83669 0
M  V30 1767 H 162.44 2.92354 4.65628 0
M  V30 1768 H 163.665 3.54761 5.7907 0
M  V30 1769 H 161.611 1.39098 6.41083 0
M  V30 1770 H 161.528 3.04577 6.91931 0
M  V30 1771 H 162.796 2.02398 7.52765 0
M  V30 1772 N 167.025 -1.13721 1.09112 0
M  V30 1773 C 168.25 -1.89314 0.847053 0
M  V30 1774 C 168.675 -1.78416 -0.595774 0
M  V30 1775 O 168.033 -1.12942 -1.41823 0
M  V30 1776 C 168.081 -3.3701 1.28284 0
M  V30 1777 O 167.185 -4.10054 0.439267 0
M  V30 1778 H 166.526 -0.588745 0.307044 0
M  V30 1779 H 169.056 -1.43902 1.45442 0
M  V30 1780 H 169.066 -3.87834 1.26683 0
M  V30 1781 H 167.741 -3.4426 2.33363 0
M  V30 1782 H 166.318 -3.69266 0.519312 0
M  V30 1783 N 168.503 -0.877838 -1.30888 0
M  V30 1784 C 169.45 -0.337538 -2.28318 0
M  V30 1785 C 170.42 0.568346 -1.56074 0
M  V30 1786 O 171.605 0.498298 -1.84178 0
M  V30 1787 C 168.745 0.448142 -3.42178 0
M  V30 1788 C 167.858 -0.48615 -4.29256 0
M  V30 1789 C 166.993 0.314427 -5.30269 0
M  V30 1790 C 166.032 -0.615791 -6.08995 0
M  V30 1791 N 165.169 0.14902 -7.01942 0
M  V30 1792 H 170.009 -1.17356 -2.73919 0
M  V30 1793 H 167.546 -0.590094 -1.34745 0
M  V30 1794 H 169.504 0.919517 -4.06941 0
M  V30 1795 H 168.134 1.24879 -2.97666 0
M  V30 1796 H 167.186 -1.076 -3.64865 0
M  V30 1797 H 168.498 -1.19909 -4.84173 0
M  V30 1798 H 167.652 0.847969 -6.00745 0
M  V30 1799 H 166.391 1.06062 -4.76027 0
M  V30 1800 H 165.396 -1.16102 -5.37401 0
M  V30 1801 H 166.621 -1.36097 -6.65323 0
M  V30 1802 H 164.567 0.877884 -6.50099 0
M  V30 1803 H 164.484 -0.504433 -7.54315 0
M  V30 1804 H 165.752 0.663537 -7.76671 0
M  V30 1805 N 169.982 1.44106 -0.638065 0
M  V30 1806 C 171.207 2.0685 -0.150916 0
M  V30 1807 C 171.632 1.47417 1.16833 0
M  V30 1808 O 170.99 0.578264 1.71831 0
M  V30 1809 C 171.038 3.60555 -0.05708 0
M  V30 1810 O 170.142 4.00465 0.984972 0
M  V30 1811 H 169.483 0.658151 -0.0879399 0
M  V30 1812 H 172.013 1.84865 -0.876707 0
M  V30 1813 H 172.023 4.07789 0.131232 0
M  V30 1814 H 170.698 4.03193 -1.02021 0
M  V30 1815 H 169.275 3.64849 0.770672 0
M  V30 1816 N 171.46 0.379036 1.52974 0
M  V30 1817 C 172.737 -0.263479 1.93817 0
M  V30 1818 C 173.117 -1.65244 1.31368 0
M  V30 1819 O 172.465 -2.23448 0.477856 0
M  V30 1820 C 172.675 -0.300166 3.47707 0
M  V30 1821 C 174.023 -0.534061 4.21228 0
M  V30 1822 O 175.047 -0.38081 3.54159 0
M  V30 1823 O 173.906 -0.833501 5.40106 0
M  V30 1824 H 171 -0.161149 0.811147 0
M  V30 1825 H 173.546 0.432798 1.64088 0
M  V30 1826 H 172.318 0.673138 3.85467 0
M  V30 1827 H 171.941 -1.04179 3.83709 0
M  V30 1828 N 172.938 -1.57226 0.108567 0
M  V30 1829 C 174.215 -1.86333 -0.594939 0
M  V30 1830 C 174.595 -1.00788 -1.85486 0
M  V30 1831 O 173.943 -0.0839293 -2.28346 0
M  V30 1832 C 174.153 -3.37265 -0.897405 0
M  V30 1833 C 175.501 -4.05629 -1.25501 0
M  V30 1834 O 176.525 -3.42224 -0.987998 0
M  V30 1835 O 175.384 -5.17531 -1.75567 0
M  V30 1836 H 172.478 -0.771018 -0.2991 0
M  V30 1837 H 175.024 -1.69102 0.142283 0
M  V30 1838 H 173.796 -3.913 -0.00413806 0
M  V30 1839 H 173.419 -3.59889 -1.69014 0
M  V30 1840 N 174.416 0.165178 -1.56732 0
M  V30 1841 C 175.363 1.2044 -1.96883 0
M  V30 1842 C 176.333 1.43664 -0.833657 0
M  V30 1843 O 177.518 1.56302 -1.09427 0
M  V30 1844 C 174.658 2.53727 -2.33916 0
M  V30 1845 C 173.771 2.3783 -3.6064 0
M  V30 1846 C 172.906 3.64026 -3.86857 0
M  V30 1847 C 171.945 3.43088 -5.06909 0
M  V30 1848 N 171.082 4.61369 -5.29229 0
M  V30 1849 H 175.922 0.854996 -2.85471 0
M  V30 1850 H 173.459 0.41076 -1.41249 0
M  V30 1851 H 175.417 3.31419 -2.53411 0
M  V30 1852 H 174.047 2.8665 -1.48431 0
M  V30 1853 H 173.099 1.51282 -3.49024 0
M  V30 1854 H 174.411 2.18308 -4.4849 0
M  V30 1855 H 173.565 4.50152 -4.06753 0
M  V30 1856 H 172.304 3.86533 -2.97394 0
M  V30 1857 H 171.309 2.55349 -4.86906 0
M  V30 1858 H 172.534 3.21997 -5.97909 0
M  V30 1859 H 170.48 4.84084 -4.42718 0
M  V30 1860 H 170.397 4.44783 -6.11313 0
M  V30 1861 H 171.665 5.48761 -5.53608 0
M  V30 1862 N 175.894 1.51508 0.433938 0
M  V30 1863 C 176.842 1.73646 1.54757 0
M  V30 1864 C 177.836 0.602854 1.5831 0
M  V30 1865 O 179.042 0.784318 1.62014 0
M  V30 1866 H 175.417 0.548718 0.51421 0
M  V30 1867 H 177.388 2.66991 1.33261 0
M  V30 1868 C 176.137 1.88172 2.92381 0
M  V30 1869 H 175.46 2.74808 2.90381 0
M  V30 1870 H 176.9 2.07672 3.6966 0
M  V30 1871 C 175.359 0.64239 3.30719 0
M  V30 1872 O 175.889 -0.201362 4.01195 0
M  V30 1873 N 174.095 0.485489 2.86516 0
M  V30 1874 H 173.642 1.17318 2.29334 0
M  V30 1875 H 173.6 -0.342482 3.12529 0
M  V30 1876 N 177.372 -0.689602 1.41712 0
M  V30 1877 C 178.282 -1.83314 1.46401 0
M  V30 1878 C 179.298 -1.7036 0.35405 0
M  V30 1879 O 180.474 -1.92171 0.602692 0
M  V30 1880 C 177.539 -3.19344 1.34982 0
M  V30 1881 C 176.6 -3.44363 2.56344 0
M  V30 1882 C 175.833 -4.73904 2.45461 0
M  V30 1883 O 176.056 -5.508 1.48241 0
M  V30 1884 O 174.99 -4.99839 3.35328 0
M  V30 1885 H 178.816 -1.82314 2.42889 0
M  V30 1886 H 176.401 -0.843438 1.23315 0
M  V30 1887 H 178.283 -4.00547 1.3092 0
M  V30 1888 H 176.958 -3.21014 0.41612 0
M  V30 1889 H 175.865 -2.63067 2.65982 0
M  V30 1890 H 177.198 -3.47512 3.48563 0
M  V30 1891 N 178.85 -1.27639 -0.924453 0
M  V30 1892 C 179.798 -1.10485 -2.04685 0
M  V30 1893 C 180.792 -0.0270421 -1.69378 0
M  V30 1894 O 181.998 -0.185008 -1.79047 0
M  V30 1895 H 178.373 -0.340546 -0.670472 0
M  V30 1896 H 180.344 -2.05566 -2.16298 0
M  V30 1897 C 179.093 -0.772229 -3.39016 0
M  V30 1898 H 178.416 -1.59351 -3.66671 0
M  V30 1899 H 179.856 -0.692097 -4.18313 0
M  V30 1900 C 178.315 0.523554 -3.32807 0
M  V30 1901 O 178.845 1.55702 -3.70297 0
M  V30 1902 N 177.051 0.520363 -2.85903 0
M  V30 1903 H 176.598 -0.32107 -2.55591 0
M  V30 1904 H 176.556 1.38742 -2.82131 0
M  V30 1905 N 180.328 1.1314 -1.09713 0
M  V30 1906 C 181.275 2.18642 -0.739196 0
M  V30 1907 C 182.245 1.63706 0.280978 0
M  V30 1908 O 183.43 1.90111 0.161946 0
M  V30 1909 C 180.57 3.44685 -0.169102 0
M  V30 1910 C 179.683 4.13711 -1.24367 0
M  V30 1911 C 178.818 5.27379 -0.636019 0
M  V30 1912 C 177.857 5.88259 -1.69169 0
M  V30 1913 N 176.994 6.93352 -1.10485 0
M  V30 1914 H 181.834 2.48607 -1.64312 0
M  V30 1915 H 179.371 1.22066 -0.820875 0
M  V30 1916 H 181.329 4.16815 0.179256 0
M  V30 1917 H 179.959 3.15161 0.698079 0
M  V30 1918 H 179.011 3.39835 -1.70927 0
M  V30 1919 H 180.323 4.55037 -2.04311 0
M  V30 1920 H 179.477 6.06238 -0.236677 0
M  V30 1921 H 178.216 4.8731 0.194928 0
M  V30 1922 H 177.221 5.08092 -2.10055 0
M  V30 1923 H 178.446 6.30399 -2.52536 0
M  V30 1924 H 176.392 6.55335 -0.295234 0
M  V30 1925 H 176.309 7.33236 -1.84121 0
M  V30 1926 H 177.577 7.76057 -0.73181 0
M  V30 1927 N 181.806 0.884767 1.30421 0
M  V30 1928 C 182.754 0.340869 2.30089 0
M  V30 1929 C 183.748 -0.55201 1.60154 0
M  V30 1930 O 184.954 -0.436467 1.74628 0
M  V30 1931 H 181.329 0.0915739 0.746404 0
M  V30 1932 H 183.3 1.19513 2.73421 0
M  V30 1933 C 182.049 -0.429779 3.45034 0
M  V30 1934 H 181.372 0.248024 3.9903 0
M  V30 1935 H 182.812 -0.775445 4.16849 0
M  V30 1936 C 181.271 -1.62677 2.95022 0
M  V30 1937 O 181.801 -2.72614 2.95033 0
M  V30 1938 N 180.007 -1.46387 2.51036 0
M  V30 1939 H 179.554 -0.569506 2.51226 0
M  V30 1940 H 179.512 -2.26612 2.17932 0
M  V30 1941 N 183.284 -1.43765 0.645699 0
M  V30 1942 C 184.561 -1.9541 0.0862963 0
M  V30 1943 C 184.941 -1.58725 -1.39175 0
M  V30 1944 O 184.289 -0.868581 -2.11348 0
M  V30 1945 C 184.499 -3.47488 0.324565 0
M  V30 1946 C 185.847 -4.24001 0.225497 0
M  V30 1947 O 186.871 -3.55274 0.256715 0
M  V30 1948 O 185.73 -5.46313 0.142801 0
M  V30 1949 H 182.824 -0.826882 -0.0139483 0
M  V30 1950 H 185.37 -1.53743 0.718415 0
M  V30 1951 H 184.142 -3.67289 1.3496 0
M  V30 1952 H 183.765 -3.96135 -0.340987 0
M  V30 1953 N 184.763 -0.387143 -1.52771 0
M  V30 1954 C 186.174 0.0873634 -1.86495 0
M  V30 1955 C 186.525 1.46336 -1.30691 0
M  V30 1956 O 185.65 2.068 -0.637409 0
M  V30 1957 C 186.245 0.165305 -3.38396 0
M  V30 1958 C 184.804 0.584101 -3.7184 0
M  V30 1959 C 183.951 -0.255279 -2.76122 0
M  V30 1960 H 186.902 -0.605104 -1.46711 0
M  V30 1961 H 186.923 0.984848 -3.67534 0
M  V30 1962 H 186.435 -0.836301 -3.78982 0
M  V30 1963 H 184.536 1.59315 -3.36823 0
M  V30 1964 H 184.649 0.343749 -4.77865 0
M  V30 1965 H 183.013 0.279126 -2.53166 0
M  V30 1966 H 183.796 -1.25482 -3.19545 0
M  V30 1967 N 186.241 1.57166 -0.116904 0
M  V30 1968 C 187.151 2.18745 0.847812 0
M  V30 1969 C 188.167 1.163 1.29423 0
M  V30 1970 O 189.343 1.48761 1.35765 0
M  V30 1971 C 186.408 2.77307 2.0809 0
M  V30 1972 C 185.469 3.94781 1.68661 0
M  V30 1973 C 184.702 4.50541 2.86091 0
M  V30 1974 O 184.925 4.05202 4.01456 0
M  V30 1975 O 183.859 5.41256 2.63298 0
M  V30 1976 H 187.685 3.01632 0.353778 0
M  V30 1977 H 185.27 1.49005 0.108599 0
M  V30 1978 H 187.152 3.14647 2.80313 0
M  V30 1979 H 185.827 1.97452 2.56504 0
M  V30 1980 H 184.734 3.62214 0.935518 0
M  V30 1981 H 186.067 4.76065 1.24991 0
M  V30 1982 N 187.719 -0.156864 1.56817 0
M  V30 1983 C 188.666 -1.19394 1.97519 0
M  V30 1984 C 189.636 -1.4322 0.841265 0
M  V30 1985 O 190.821 -1.55719 1.10255 0
M  V30 1986 C 187.961 -2.52483 2.35258 0
M  V30 1987 C 187.074 -2.35914 3.61896 0
M  V30 1988 C 186.209 -3.61969 3.88782 0
M  V30 1989 C 185.248 -3.40395 5.08722 0
M  V30 1990 N 184.385 -4.58556 5.31668 0
M  V30 1991 H 189.225 -0.839845 2.85921 0
M  V30 1992 H 186.762 -0.403264 1.41464 0
M  V30 1993 H 188.72 -3.30071 2.55165 0
M  V30 1994 H 187.35 -2.85859 1.49949 0
M  V30 1995 H 186.402 -1.49429 3.49821 0
M  V30 1996 H 187.714 -2.15926 4.49641 0
M  V30 1997 H 186.868 -4.47989 4.09135 0
M  V30 1998 H 185.607 -3.84951 2.9944 0
M  V30 1999 H 184.612 -2.52763 4.88253 0
M  V30 2000 H 185.837 -3.18822 5.99608 0
M  V30 2001 H 183.783 -4.81729 4.45279 0
M  V30 2002 H 183.7 -4.41535 6.13664 0
M  V30 2003 H 184.968 -5.45817 5.5651 0
M  V30 2004 N 189.197 -1.51736 -0.425897 0
M  V30 2005 C 190.144 -1.73875 -1.51776 0
M  V30 2006 C 191.114 -0.580702 -1.55618 0
M  V30 2007 O 192.299 -0.81641 -1.72451 0
M  V30 2008 C 189.439 -1.88012 -2.89388 0
M  V30 2009 C 188.552 -3.15606 -2.94986 0
M  V30 2010 C 187.687 -3.20271 -4.23793 0
M  V30 2011 C 186.726 -4.42134 -4.23302 0
M  V30 2012 N 185.863 -4.44284 -5.43651 0
M  V30 2013 H 190.703 -2.67071 -1.32201 0
M  V30 2014 H 188.24 -1.32351 -0.642008 0
M  V30 2015 H 190.198 -1.9419 -3.69251 0
M  V30 2016 H 188.828 -0.98213 -3.07496 0
M  V30 2017 H 187.88 -3.18681 -2.07717 0
M  V30 2018 H 189.192 -4.05486 -2.90486 0
M  V30 2019 H 188.346 -3.25428 -5.12036 0
M  V30 2020 H 187.085 -2.28299 -4.30965 0
M  V30 2021 H 186.09 -4.3714 -3.3345 0
M  V30 2022 H 187.315 -5.35382 -4.17783 0
M  V30 2023 H 185.261 -3.55188 -5.51523 0
M  V30 2024 H 185.178 -5.27988 -5.41078 0
M  V30 2025 H 186.446 -4.53649 -6.33895 0
M  V30 2026 N 190.675 0.682077 -1.42076 0
M  V30 2027 C 191.622 1.79578 -1.44984 0
M  V30 2028 C 192.592 1.6332 -0.302614 0
M  V30 2029 O 193.777 1.83978 -0.505633 0
M  V30 2030 C 190.917 3.1756 -1.35091 0
M  V30 2031 C 190.03 3.45156 -2.59791 0
M  V30 2032 C 189.165 4.72826 -2.42093 0
M  V30 2033 C 188.204 4.93433 -3.62202 0
M  V30 2034 N 187.341 6.12338 -3.43491 0
M  V30 2035 H 192.181 1.76427 -2.40161 0
M  V30 2036 H 189.718 0.861376 -1.19242 0
M  V30 2037 H 191.676 3.97287 -1.27354 0
M  V30 2038 H 190.306 3.19854 -0.435133 0
M  V30 2039 H 189.358 2.59736 -2.77923 0
M  V30 2040 H 190.67 3.5628 -3.49094 0
M  V30 2041 H 189.824 5.60631 -2.319 0
M  V30 2042 H 188.563 4.63973 -1.50268 0
M  V30 2043 H 187.568 4.04073 -3.72834 0
M  V30 2044 H 188.793 5.04136 -4.54998 0
M  V30 2045 H 186.739 6.04672 -2.54377 0
M  V30 2046 H 186.656 6.2429 -4.26377 0
M  V30 2047 H 187.924 7.02841 -3.37097 0
M  V30 2048 N 192.153 1.28127 0.917671 0
M  V30 2049 C 193.1 1.11717 2.0196 0
M  V30 2050 C 194.07 0.0153929 1.66093 0
M  V30 2051 O 195.255 0.179596 1.89953 0
M  V30 2052 C 192.395 0.780927 3.36148 0
M  V30 2053 C 191.508 1.96135 3.84909 0
M  V30 2054 C 190.643 1.56609 5.0759 0
M  V30 2055 C 189.682 2.71339 5.48673 0
M  V30 2056 N 188.819 2.32332 6.62545 0
M  V30 2057 H 193.659 2.06003 2.15329 0
M  V30 2058 H 191.196 1.02535 1.05475 0
M  V30 2059 H 193.154 0.56675 4.13333 0
M  V30 2060 H 191.784 -0.124998 3.22558 0
M  V30 2061 H 190.836 2.28777 3.03916 0
M  V30 2062 H 192.148 2.82165 4.1132 0
M  V30 2063 H 191.302 1.31374 5.92305 0
M  V30 2064 H 190.041 0.677014 4.82978 0
M  V30 2065 H 189.046 2.97276 4.62501 0
M  V30 2066 H 190.271 3.60882 5.75274 0
M  V30 2067 H 188.217 1.45889 6.39572 0
M  V30 2068 H 188.134 3.11899 6.88662 0
M  V30 2069 H 189.402 2.10371 7.50576 0
M  V30 2070 N 193.631 -1.12557 1.10312 0
M  V30 2071 C 194.578 -2.18247 0.750781 0
M  V30 2072 C 195.548 -1.63853 -0.272293 0
M  V30 2073 O 196.733 -1.90195 -0.151862 0
M  V30 2074 C 193.873 -3.44591 0.187379 0
M  V30 2075 C 192.986 -4.13046 1.2656 0
M  V30 2076 C 192.121 -5.27034 0.663978 0
M  V30 2077 C 191.16 -5.87353 1.72287 0
M  V30 2078 N 190.297 -6.92757 1.1416 0
M  V30 2079 H 195.137 -2.47732 1.65628 0
M  V30 2080 H 192.674 -1.21629 0.827337 0
M  V30 2081 H 194.632 -4.16904 -0.157148 0
M  V30 2082 H 193.262 -3.15527 -0.681355 0
M  V30 2083 H 192.314 -3.38924 1.72727 0
M  V30 2084 H 193.626 -4.53947 2.06721 0
M  V30 2085 H 192.78 -6.06104 0.268824 0
M  V30 2086 H 191.519 -4.87407 -0.169082 0
M  V30 2087 H 190.524 -5.06971 2.12746 0
M  V30 2088 H 191.749 -6.29051 2.55875 0
M  V30 2089 H 189.695 -6.5517 0.329984 0
M  V30 2090 H 189.612 -7.3225 1.88007 0
M  V30 2091 H 190.88 -7.75658 0.772956 0
M  V30 2092 N 195.109 -0.891671 -1.2995 0
M  V30 2093 C 196.056 -0.361736 -2.27948 0
M  V30 2094 C 197.026 0.551761 -1.56668 0
M  V30 2095 O 198.211 0.478736 -1.84696 0
M  V30 2096 C 195.351 0.411825 -3.42634 0
M  V30 2097 C 194.464 -0.531651 -4.28716 0
M  V30 2098 C 193.599 0.258167 -5.30572 0
M  V30 2099 C 192.638 -0.680349 -6.08307 0
M  V30 2100 N 191.775 0.0745613 -7.0206 0
M  V30 2101 H 196.615 -1.20254 -2.72659 0
M  V30 2102 H 194.152 -0.604352 -1.34112 0
M  V30 2103 H 196.11 0.876304 -4.07893 0
M  V30 2104 H 194.74 1.21715 -2.98974 0
M  V30 2105 H 193.792 -1.11463 -3.63703 0
M  V30 2106 H 195.104 -1.25038 -4.82874 0
M  V30 2107 H 194.258 0.784204 -6.0161 0
M  V30 2108 H 192.997 1.01008 -4.77126 0
M  V30 2109 H 192.002 -1.21796 -5.3614 0
M  V30 2110 H 193.227 -1.43145 -6.63842 0
M  V30 2111 H 191.173 0.808883 -6.50994 0
M  V30 2112 H 191.09 -0.584409 -7.53738 0
M  V30 2113 H 192.358 0.581123 -7.77331 0
M  V30 2114 N 196.587 1.43421 -0.653314 0
M  V30 2115 C 197.864 1.95361 -0.0966581 0
M  V30 2116 C 198.244 1.59461 1.38331 0
M  V30 2117 O 197.592 0.879777 2.10884 0
M  V30 2118 C 197.802 3.47311 -0.342988 0
M  V30 2119 C 199.15 4.23875 -0.24798 0
M  V30 2120 O 200.174 3.55133 -0.275553 0
M  V30 2121 O 199.033 5.4623 -0.171771 0
M  V30 2122 H 196.127 0.826945 0.00956291 0
M  V30 2123 H 198.673 1.5336 -0.726558 0
M  V30 2124 H 197.445 3.66569 -1.36906 0
M  V30 2125 H 197.068 3.9631 0.319975 0
M  V30 2126 N 198.065 0.39524 1.52563 0
M  V30 2127 C 199.012 -0.437036 2.26624 0
M  V30 2128 C 199.982 -1.05281 1.28472 0
M  V30 2129 O 201.167 -1.07971 1.57311 0
M  V30 2130 C 198.307 -1.55524 3.08069 0
M  V30 2131 C 197.42 -0.961745 4.21158 0
M  V30 2132 C 196.555 -2.05149 4.89987 0
M  V30 2133 C 195.594 -1.4342 5.95061 0
M  V30 2134 N 194.731 -2.46351 6.57462 0
M  V30 2135 H 199.571 0.200976 2.97322 0
M  V30 2136 H 197.108 0.110944 1.46681 0
M  V30 2137 H 199.066 -2.21437 3.53584 0
M  V30 2138 H 197.696 -2.16348 2.3957 0
M  V30 2139 H 196.748 -0.192048 3.79915 0
M  V30 2140 H 198.06 -0.470701 4.96574 0
M  V30 2141 H 197.214 -2.78819 5.38837 0
M  V30 2142 H 195.953 -2.57615 4.14109 0
M  V30 2143 H 194.958 -0.682774 5.45544 0
M  V30 2144 H 196.183 -0.917416 6.72875 0
M  V30 2145 H 194.129 -2.97975 5.8442 0
M  V30 2146 H 194.046 -2.02019 7.28508 0
M  V30 2147 H 195.314 -3.19633 7.10954 0
M  V30 2148 N 199.544 -1.57102 0.125237 0
M  V30 2149 C 200.454 -2.19191 -0.8362 0
M  V30 2150 C 201.47 -1.16985 -1.28805 0
M  V30 2151 O 202.646 -1.49479 -1.34974 0
M  V30 2152 C 199.711 -2.78407 -2.06617 0
M  V30 2153 C 198.772 -3.9567 -1.66565 0
M  V30 2154 C 198.005 -4.52052 -2.83698 0
M  V30 2155 O 198.228 -4.07326 -3.99302 0
M  V30 2156 O 197.162 -5.42645 -2.60423 0
M  V30 2157 H 200.988 -3.01816 -0.337776 0
M  V30 2158 H 198.573 -1.4906 -0.100695 0
M  V30 2159 H 200.455 -3.16129 -2.7864 0
M  V30 2160 H 199.13 -1.9881 -2.55453 0
M  V30 2161 H 198.037 -3.62705 -0.916296 0
M  V30 2162 H 199.37 -4.76722 -1.22464 0
M  V30 2163 N 201.022 0.148545 -1.56898 0
M  V30 2164 C 201.969 1.18345 -1.98149 0
M  V30 2165 C 202.939 1.42772 -0.848848 0
M  V30 2166 O 204.124 1.55132 -1.11079 0
M  V30 2167 C 201.264 2.51231 -2.36594 0
M  V30 2168 C 200.377 2.33991 -3.63142 0
M  V30 2169 C 199.512 3.59902 -3.90697 0
M  V30 2170 C 198.551 3.37692 -5.1052 0
M  V30 2171 N 197.688 4.5573 -5.34092 0
M  V30 2172 H 202.528 0.82467 -2.86362 0
M  V30 2173 H 200.065 0.395756 -1.41676 0
M  V30 2174 H 202.023 3.28713 -2.56912 0
M  V30 2175 H 200.653 2.85059 -1.51463 0
M  V30 2176 H 199.705 1.47572 -3.50609 0
M  V30 2177 H 201.017 2.13539 -4.5078 0
M  V30 2178 H 200.171 4.45813 -4.11505 0
M  V30 2179 H 198.91 3.83357 -3.01477 0
M  V30 2180 H 197.915 2.5017 -4.89587 0
M  V30 2181 H 199.14 3.15637 -6.0129 0
M  V30 2182 H 197.086 4.79361 -4.47827 0
M  V30 2183 H 197.003 4.38274 -6.15996 0
M  V30 2184 H 198.271 5.42858 -5.59397 0
M  V30 2185 N 202.5 1.5196 0.417844 0
M  V30 2186 C 203.447 1.74678 1.50852 0
M  V30 2187 C 204.417 0.588947 1.55308 0
M  V30 2188 O 205.602 0.825544 1.72016 0
M  V30 2189 C 202.742 1.89544 2.88387 0
M  V30 2190 C 201.855 3.17166 2.93309 0
M  V30 2191 C 200.99 3.22513 4.22088 0
M  V30 2192 C 200.029 4.44372 4.20951 0
M  V30 2193 N 199.166 4.47161 5.41287 0
M  V30 2194 H 204.006 2.67768 1.30783 0
M  V30 2195 H 201.543 1.32689 0.63498 0
M  V30 2196 H 203.501 1.96146 3.68216 0
M  V30 2197 H 202.131 0.998424 3.06971 0
M  V30 2198 H 201.183 3.19778 2.06024 0
M  V30 2199 H 202.495 4.07021 2.88332 0
M  V30 2200 H 201.649 3.28139 5.10303 0
M  V30 2201 H 200.388 2.30581 4.29748 0
M  V30 2202 H 199.393 4.38902 3.31127 0
M  V30 2203 H 200.618 5.3759 4.14938 0
M  V30 2204 H 198.564 3.58108 5.49632 0
M  V30 2205 H 198.481 5.3085 5.3827 0
M  V30 2206 H 199.749 4.57005 6.3148 0
M  V30 2207 N 203.978 -0.674533 1.42435 0
M  V30 2208 C 204.925 -1.78807 1.45934 0
M  V30 2209 C 205.895 -1.63157 0.311271 0
M  V30 2210 O 207.08 -1.83707 0.515383 0
M  V30 2211 C 204.22 -3.16839 1.36773 0
M  V30 2212 C 203.333 -3.43774 2.61617 0
M  V30 2213 C 202.468 -4.71536 2.44597 0
M  V30 2214 C 201.507 -4.91505 3.64814 0
M  V30 2215 N 200.644 -6.10508 3.46734 0
M  V30 2216 H 205.484 -1.75151 2.41093 0
M  V30 2217 H 203.021 -0.85504 1.19697 0
M  V30 2218 H 204.979 -3.96606 1.29459 0
M  V30 2219 H 203.609 -3.19619 0.452089 0
M  V30 2220 H 202.661 -2.58259 2.79297 0
M  V30 2221 H 203.973 -3.54423 3.50978 0
M  V30 2222 H 203.127 -5.59393 2.3487 0
M  V30 2223 H 201.866 -4.6317 1.52726 0
M  V30 2224 H 200.871 -4.0209 3.74972 0
M  V30 2225 H 202.096 -5.01716 4.57665 0
M  V30 2226 H 200.042 -6.03315 2.5758 0
M  V30 2227 H 199.959 -6.2202 4.29682 0
M  V30 2228 H 201.227 -7.01044 3.40819 0
M  V30 2229 N 205.456 -1.28612 -0.910864 0
M  V30 2230 C 206.403 -1.12786 -2.01365 0
M  V30 2231 C 207.373 -0.024201 -1.66082 0
M  V30 2232 O 208.558 -0.189667 -1.89855 0
M  V30 2233 C 205.698 -0.798743 -3.35729 0
M  V30 2234 C 204.811 -1.98173 -3.83864 0
M  V30 2235 C 203.946 -1.59298 -5.06752 0
M  V30 2236 C 202.985 -2.74245 -5.47226 0
M  V30 2237 N 202.122 -2.35842 -6.61304 0
M  V30 2238 H 206.962 -2.07142 -2.14234 0
M  V30 2239 H 204.499 -1.03093 -1.0493 0
M  V30 2240 H 206.457 -0.588662 -4.13026 0
M  V30 2241 H 205.087 0.10789 -3.2262 0
M  V30 2242 H 204.139 -2.30386 -3.02699 0
M  V30 2243 H 205.451 -2.84343 -4.09818 0
M  V30 2244 H 204.605 -1.34513 -5.916 0
M  V30 2245 H 203.344 -0.702618 -4.82612 0
M  V30 2246 H 202.349 -2.99725 -4.60918 0
M  V30 2247 H 203.574 -3.63928 -5.73353 0
M  V30 2248 H 201.52 -1.49279 -6.38789 0
M  V30 2249 H 201.437 -3.15546 -6.86998 0
M  V30 2250 H 202.705 -2.14348 -7.4945 0
M  V30 2251 N 206.934 1.1197 -1.10907 0
M  V30 2252 C 207.844 2.21433 -0.774896 0
M  V30 2253 C 208.86 1.72478 0.229657 0
M  V30 2254 O 210.036 2.01288 0.0672008 0
M  V30 2255 C 207.101 3.4602 -0.216986 0
M  V30 2256 C 206.162 4.09791 -1.27944 0
M  V30 2257 C 205.395 5.28431 -0.748055 0
M  V30 2258 O 205.618 5.68823 0.423833 0
M  V30 2259 O 204.552 5.82644 -1.51027 0
M  V30 2260 H 208.378 2.5242 -1.68873 0
M  V30 2261 H 205.963 1.20399 -0.884555 0
M  V30 2262 H 207.845 4.21304 0.090059 0
M  V30 2263 H 206.52 3.16698 0.669633 0
M  V30 2264 H 205.427 3.36265 -1.63941 0
M  V30 2265 H 206.76 4.4328 -2.13925 0
M  V30 2266 N 208.412 0.89855 1.29475 0
M  V30 2267 C 209.322 0.379974 2.31502 0
M  V30 2268 C 210.338 -0.524695 1.659 0
M  V30 2269 O 211.514 -0.414551 1.97087 0
M  V30 2270 C 208.579 -0.385138 3.44554 0
M  V30 2271 C 207.64 0.550914 4.2575 0
M  V30 2272 C 206.873 -0.177778 5.33404 0
M  V30 2273 O 207.096 -1.40189 5.52904 0
M  V30 2274 O 206.03 0.479106 5.9999 0
M  V30 2275 H 209.856 1.22639 2.77837 0
M  V30 2276 H 207.441 0.662834 1.33891 0
M  V30 2277 H 209.323 -0.817841 4.13388 0
M  V30 2278 H 207.998 -1.20763 3.0033 0
M  V30 2279 H 206.905 1.03271 3.59564 0
M  V30 2280 H 208.238 1.33979 4.73614 0
M  V30 2281 N 209.89 -1.43072 0.660911 0
M  V30 2282 C 210.837 -2.30785 -0.0259884 0
M  V30 2283 C 211.807 -1.45184 -0.806888 0
M  V30 2284 O 212.992 -1.74041 -0.781943 0
M  V30 2285 C 210.132 -3.30861 -0.981067 0
M  V30 2286 C 209.245 -4.31558 -0.195458 0
M  V30 2287 C 208.38 -5.18712 -1.14503 0
M  V30 2288 C 207.419 -6.11097 -0.350299 0
M  V30 2289 N 206.556 -6.90849 -1.25186 0
M  V30 2290 H 211.396 -2.88975 0.727846 0
M  V30 2291 H 208.933 -1.42353 0.370682 0
M  V30 2292 H 210.891 -3.87399 -1.54849 0
M  V30 2293 H 209.521 -2.74304 -1.70169 0
M  V30 2294 H 208.573 -3.77252 0.488374 0
M  V30 2295 H 209.885 -4.9701 0.422176 0
M  V30 2296 H 209.039 -5.79914 -1.78284 0
M  V30 2297 H 207.778 -4.53404 -1.79656 0
M  V30 2298 H 206.783 -5.48976 0.300808 0
M  V30 2299 H 208.008 -6.7845 0.296941 0
M  V30 2300 H 205.954 -6.28182 -1.89005 0
M  V30 2301 H 205.871 -7.52854 -0.688971 0
M  V30 2302 H 207.139 -7.5655 -1.87757 0
M  V30 2303 N 211.368 -0.403325 -1.52352 0
M  V30 2304 C 212.593 0.176499 -2.06648 0
M  V30 2305 C 213.018 1.38577 -1.27193 0
M  V30 2306 O 212.376 1.7879 -0.300637 0
M  V30 2307 C 212.424 0.511061 -3.5696 0
M  V30 2308 O 211.528 1.60294 -3.79973 0
M  V30 2309 H 210.869 0.0167337 -0.663789 0
M  V30 2310 H 213.399 -0.574848 -1.96359 0
M  V30 2311 H 213.409 0.771362 -4.00642 0
M  V30 2312 H 212.084 -0.37296 -4.14224 0
M  V30 2313 H 210.661 1.33526 -3.48174 0
M  V30 2314 N 212.846 1.57033 -0.133567 0
M  V30 2315 C 213.793 2.16074 0.811208 0
M  V30 2316 C 214.763 1.08979 1.2535 0
M  V30 2317 O 215.948 1.36958 1.32843 0
M  V30 2318 C 213.088 2.77595 2.05024 0
M  V30 2319 C 212.201 3.99042 1.65498 0
M  V30 2320 C 211.336 4.48603 2.84479 0
M  V30 2321 C 210.375 5.62547 2.41262 0
M  V30 2322 N 209.512 6.06787 3.53206 0
M  V30 2323 H 214.352 2.96477 0.300906 0
M  V30 2324 H 211.889 1.46462 0.136822 0
M  V30 2325 H 213.847 3.11402 2.77642 0
M  V30 2326 H 212.477 1.99859 2.53488 0
M  V30 2327 H 211.529 3.71302 0.826981 0
M  V30 2328 H 212.841 4.81629 1.29748 0
M  V30 2329 H 211.995 4.84395 3.65303 0
M  V30 2330 H 210.734 3.64995 3.23465 0
M  V30 2331 H 209.739 5.26345 1.58874 0
M  V30 2332 H 210.964 6.47931 2.03377 0
M  V30 2333 H 208.91 5.26117 3.91838 0
M  V30 2334 H 208.827 6.84266 3.21427 0
M  V30 2335 H 210.095 6.4722 4.34427 0
M  V30 2336 N 214.325 -0.140222 1.56975 0
M  V30 2337 C 215.602 -0.880769 1.74648 0
M  V30 2338 C 215.982 -1.99036 0.703404 0
M  V30 2339 O 215.33 -2.26821 -0.27648 0
M  V30 2340 C 215.54 -1.417 3.18939 0
M  V30 2341 C 216.888 -1.87774 3.80823 0
M  V30 2342 O 217.912 -1.51427 3.2241 0
M  V30 2343 O 216.771 -2.54827 4.83452 0
M  V30 2344 H 213.865 -0.416713 0.714338 0
M  V30 2345 H 216.411 -0.125618 1.69234 0
M  V30 2346 H 215.183 -0.619902 3.86359 0
M  V30 2347 H 214.806 -2.23546 3.28805 0
M  V30 2348 N 215.803 -1.52179 -0.40978 0
M  V30 2349 C 216.75 -1.75475 -1.49924 0
M  V30 2350 C 217.72 -0.597175 -1.54994 0
M  V30 2351 O 218.905 -0.834655 -1.71575 0
M  V30 2352 C 216.045 -1.9107 -2.87378 0
M  V30 2353 C 215.158 -3.18717 -2.91622 0
M  V30 2354 C 214.293 -3.24747 -4.20372 0
M  V30 2355 C 213.332 -4.46598 -4.18588 0
M  V30 2356 N 212.469 -4.50025 -5.38908 0
M  V30 2357 H 217.309 -2.68458 -1.29361 0
M  V30 2358 H 214.846 -1.33024 -0.627934 0
M  V30 2359 H 216.804 -1.98096 -3.6717 0
M  V30 2360 H 215.434 -1.01469 -3.06437 0
M  V30 2361 H 214.486 -3.20866 -2.04326 0
M  V30 2362 H 215.798 -4.08544 -2.86169 0
M  V30 2363 H 214.952 -3.30841 -5.08556 0
M  V30 2364 H 213.691 -2.32857 -4.28519 0
M  V30 2365 H 212.696 -4.40652 -3.28794 0
M  V30 2366 H 213.921 -5.39783 -4.12081 0
M  V30 2367 H 211.867 -3.61017 -5.47725 0
M  V30 2368 H 211.784 -5.33697 -5.35447 0
M  V30 2369 H 213.052 -4.60347 -6.29048 0
M  V30 2370 N 217.281 0.66697 -1.42791 0
M  V30 2371 C 218.228 1.7803 -1.4688 0
M  V30 2372 C 219.198 1.6299 -0.319919 0
M  V30 2373 O 220.383 1.83432 -0.525118 0
M  V30 2374 C 217.523 3.1611 -1.38451 0
M  V30 2375 C 216.636 3.42381 -2.63437 0
M  V30 2376 C 215.771 4.70232 -2.47094 0
M  V30 2377 C 214.81 4.89564 -3.67415 0
M  V30 2378 N 213.947 6.08661 -3.49966 0
M  V30 2379 H 218.787 1.7387 -2.42019 0
M  V30 2380 H 216.324 0.84868 -1.20149 0
M  V30 2381 H 218.282 3.95914 -1.31561 0
M  V30 2382 H 216.912 3.19374 -0.469033 0
M  V30 2383 H 215.964 2.56774 -2.80662 0
M  V30 2384 H 217.276 3.52557 -3.52853 0
M  V30 2385 H 216.43 5.5814 -2.37834 0
M  V30 2386 H 215.169 4.62353 -1.5518 0
M  V30 2387 H 214.174 4.00096 -3.77099 0
M  V30 2388 H 215.399 4.99282 -4.6032 0
M  V30 2389 H 213.345 6.0194 -2.60776 0
M  V30 2390 H 213.262 6.19733 -4.32975 0
M  V30 2391 H 214.53 6.99226 -3.44532 0
M  V30 2392 N 218.759 1.29093 0.90403 0
M  V30 2393 C 219.669 1.15727 2.0407 0
M  V30 2394 C 220.685 0.0815308 1.73809 0
M  V30 2395 O 221.861 0.292749 1.99261 0
M  V30 2396 C 218.926 0.830424 3.36608 0
M  V30 2397 C 217.987 1.98955 3.80415 0
M  V30 2398 C 217.22 1.6782 5.06628 0
M  V30 2399 O 217.443 0.597105 5.67266 0
M  V30 2400 O 216.377 2.52486 5.46383 0
M  V30 2401 H 220.203 2.11171 2.18267 0
M  V30 2402 H 217.788 1.08504 1.027 0
M  V30 2403 H 219.67 0.662521 4.16159 0
M  V30 2404 H 218.345 -0.0942678 3.23563 0
M  V30 2405 H 217.252 2.21267 3.01648 0
M  V30 2406 H 218.585 2.89529 3.98037 0
M  V30 2407 N 220.237 -1.11381 1.11499 0
M  V30 2408 C 221.147 -2.21019 0.786628 0
M  V30 2409 C 222.163 -1.72597 -0.220507 0
M  V30 2410 O 223.339 -2.01321 -0.0565251 0
M  V30 2411 C 220.404 -3.459 0.235333 0
M  V30 2412 C 219.465 -4.09107 1.30115 0
M  V30 2413 C 218.698 -5.28027 0.776068 0
M  V30 2414 O 218.921 -5.6904 -0.393661 0
M  V30 2415 O 217.855 -5.81835 1.54114 0
M  V30 2416 H 221.681 -2.51521 1.70209 0
M  V30 2417 H 219.266 -1.19928 0.890928 0
M  V30 2418 H 221.148 -4.21346 -0.067715 0
M  V30 2419 H 219.823 -3.17049 -0.652828 0
M  V30 2420 H 218.73 -3.35391 1.65722 0
M  V30 2421 H 220.063 -4.42139 2.16273 0
M  V30 2422 N 221.715 -0.905404 -1.28997 0
M  V30 2423 C 222.625 -0.392246 -2.31298 0
M  V30 2424 C 223.641 0.515889 -1.66176 0
M  V30 2425 O 224.817 0.404093 -1.97304 0
M  V30 2426 C 221.882 0.36686 -3.44754 0
M  V30 2427 C 220.943 -0.573485 -4.25452 0
M  V30 2428 C 220.176 0.149488 -5.33491 0
M  V30 2429 O 220.399 1.37255 -5.5364 0
M  V30 2430 O 219.333 -0.510919 -5.99728 0
M  V30 2431 H 223.159 -1.2411 -2.77183 0
M  V30 2432 H 220.744 -0.669926 -1.33538 0
M  V30 2433 H 222.626 0.795907 -4.13816 0
M  V30 2434 H 221.301 1.19169 -3.00966 0
M  V30 2435 H 220.208 -1.05176 -3.59011 0
M  V30 2436 H 221.541 -1.36489 -4.72897 0
M  V30 2437 N 223.193 1.4272 -0.668489 0
M  V30 2438 C 224.14 2.30796 0.0137489 0
M  V30 2439 C 225.11 1.4561 0.799177 0
M  V30 2440 O 226.295 1.74453 0.772702 0
M  V30 2441 C 223.435 3.31377 0.963507 0
M  V30 2442 C 222.548 4.31655 0.172569 0
M  V30 2443 C 221.683 5.19312 1.1175 0
M  V30 2444 C 220.722 6.11274 0.317886 0
M  V30 2445 N 219.859 6.91504 1.2152 0
M  V30 2446 H 224.699 2.88585 -0.743161 0
M  V30 2447 H 222.236 1.42154 -0.378226 0
M  V30 2448 H 224.194 3.88214 1.52792 0
M  V30 2449 H 222.824 2.75202 1.68712 0
M  V30 2450 H 221.876 3.76988 -0.508374 0
M  V30 2451 H 223.188 4.96779 -0.448527 0
M  V30 2452 H 222.342 5.80851 1.75206 0
M  V30 2453 H 221.081 4.5435 1.77249 0
M  V30 2454 H 220.086 5.48809 -0.329918 0
M  V30 2455 H 221.311 6.78283 -0.332917 0
M  V30 2456 H 219.257 6.29176 1.85671 0
M  V30 2457 H 219.174 7.53209 0.649036 0
M  V30 2458 H 220.442 7.57535 1.83742 0
M  V30 2459 N 224.671 0.411399 1.52136 0
M  V30 2460 C 225.618 -0.412975 2.27075 0
M  V30 2461 C 226.588 -1.03912 1.29582 0
M  V30 2462 O 227.773 -1.06296 1.58448 0
M  V30 2463 C 224.913 -1.52247 3.09701 0
M  V30 2464 C 224.026 -0.917021 4.22155 0
M  V30 2465 C 223.161 -1.9994 4.92135 0
M  V30 2466 C 222.2 -1.37101 5.96548 0
M  V30 2467 N 221.337 -2.39364 6.60038 0
M  V30 2468 H 226.177 0.232499 2.97092 0
M  V30 2469 H 223.714 0.126496 1.46555 0
M  V30 2470 H 225.672 -2.17674 3.55913 0
M  V30 2471 H 224.302 -2.13794 2.41851 0
M  V30 2472 H 223.354 -0.151742 3.80097 0
M  V30 2473 H 224.666 -0.418006 4.97045 0
M  V30 2474 H 223.82 -2.73088 5.41763 0
M  V30 2475 H 222.559 -2.53208 4.16818 0
M  V30 2476 H 221.564 -0.624873 5.46237 0
M  V30 2477 H 222.789 -0.845998 6.7381 0
M  V30 2478 H 220.735 -2.91759 5.87548 0
M  V30 2479 H 220.652 -1.9428 7.3061 0
M  V30 2480 H 221.92 -3.12074 7.14304 0
M  V30 2481 N 226.149 -1.5696 0.141893 0
M  V30 2482 C 227.059 -2.20066 -0.812905 0
M  V30 2483 C 228.075 -1.18344 -1.27557 0
M  V30 2484 O 229.251 -1.50902 -1.33381 0
M  V30 2485 C 226.316 -2.80583 -2.03652 0
M  V30 2486 C 225.377 -3.97414 -1.62359 0
M  V30 2487 C 224.61 -4.55036 -2.78887 0
M  V30 2488 O 224.833 -4.11538 -3.94959 0
M  V30 2489 O 223.767 -5.45376 -2.54653 0
M  V30 2490 H 227.593 -3.02157 -0.305746 0
M  V30 2491 H 225.178 -1.49159 -0.0848799 0
M  V30 2492 H 227.06 -3.19067 -2.75272 0
M  V30 2493 H 225.735 -2.01508 -2.5333 0
M  V30 2494 H 224.642 -3.63656 -0.877775 0
M  V30 2495 H 225.975 -4.77994 -1.17401 0
M  V30 2496 N 227.627 0.131896 -1.57047 0
M  V30 2497 C 228.873 0.843179 -1.84441 0
M  V30 2498 C 229.206 1.80129 -0.725749 0
M  V30 2499 O 228.481 1.92624 0.269469 0
M  V30 2500 C 228.764 1.60442 -3.22382 0
M  V30 2501 C 228.617 0.666782 -4.4483 0
M  V30 2502 C 229.936 2.56354 -3.5773 0
M  V30 2503 H 227.055 0.305081 -0.670891 0
M  V30 2504 H 229.697 0.107839 -1.89694 0
M  V30 2505 H 227.847 2.23128 -3.18035 0
M  V30 2506 H 229.519 0.0497646 -4.61273 0
M  V30 2507 H 227.762 -0.022609 -4.33794 0
M  V30 2508 H 228.433 1.23579 -5.37989 0
M  V30 2509 H 230.909 2.0378 -3.62785 0
M  V30 2510 H 229.785 3.06657 -4.5525 0
M  V30 2511 H 230.046 3.38419 -2.84473 0
M  V30 2512 N 229.106 1.52395 0.401703 0
M  V30 2513 C 230.352 1.67065 1.14966 0
M  V30 2514 C 230.685 0.403052 1.89971 0
M  V30 2515 O 229.96 -0.598774 1.85054 0
M  V30 2516 C 230.243 2.8975 2.13815 0
M  V30 2517 C 230.096 4.26578 1.42658 0
M  V30 2518 C 231.415 3.07965 3.14397 0
M  V30 2519 H 228.534 0.607968 0.416587 0
M  V30 2520 H 231.176 1.84965 0.434511 0
M  V30 2521 H 229.326 2.74619 2.74803 0
M  V30 2522 H 230.998 4.53451 0.847329 0
M  V30 2523 H 229.241 4.27639 0.72849 0
M  V30 2524 H 229.912 5.08483 2.14823 0
M  V30 2525 H 232.388 3.22043 2.63491 0
M  V30 2526 H 231.264 3.95308 3.80819 0
M  V30 2527 H 231.525 2.21611 3.82545 0
M  V30 2528 N 230.584 -0.659388 1.43143 0
M  V30 2529 C 231.83 -1.42145 1.44647 0
M  V30 2530 C 232.163 -1.9408 0.0681907 0
M  V30 2531 O 231.438 -1.71899 -0.910007 0
M  V30 2532 C 231.721 -2.60735 2.48373 0
M  V30 2533 C 231.574 -2.14332 3.95451 0
M  V30 2534 C 232.893 -3.62951 2.48906 0
M  V30 2535 H 230.012 -0.51552 0.526696 0
M  V30 2536 H 232.654 -0.748069 1.74654 0
M  V30 2537 H 230.804 -3.18184 2.22916 0
M  V30 2538 H 232.476 -1.61932 4.31944 0
M  V30 2539 H 230.719 -1.4576 4.08578 0
M  V30 2540 H 231.39 -2.99583 4.63631 0
M  V30 2541 H 233.866 -3.1525 2.71582 0
M  V30 2542 H 232.742 -4.43487 3.23435 0
M  V30 2543 H 233.003 -4.15126 1.52061 0
M  V30 2544 N 232.062 -1.29571 -0.897171 0
M  V30 2545 C 233.311 -1.1706 -1.64256 0
M  V30 2546 C 233.624 0.276476 -1.93636 0
M  V30 2547 O 234.83 0.52294 -2.66416 0
M  V30 2548 C 233.286 -2.0475 -2.95982 0
M  V30 2549 C 232.894 -3.54295 -2.74187 0
M  V30 2550 C 234.638 -2.0097 -3.73914 0
M  V30 2551 C 232.545 -4.34081 -4.01656 0
M  V30 2552 H 231.475 -0.43452 -0.616205 0
M  V30 2553 H 234.126 -1.54229 -0.994268 0
M  V30 2554 H 232.508 -1.60452 -3.62038 0
M  V30 2555 H 233.682 -4.06662 -2.1671 0
M  V30 2556 H 231.997 -3.59773 -2.09648 0
M  V30 2557 H 234.594 -2.57838 -4.68427 0
M  V30 2558 H 234.937 -0.990273 -4.0435 0
M  V30 2559 H 235.47 -2.43325 -3.14703 0
M  V30 2560 H 232.209 -5.36671 -3.76384 0
M  V30 2561 H 231.729 -3.86483 -4.58684 0
M  V30 2562 H 233.408 -4.44877 -4.69781 0
M  V30 2563 N 233.54 1.10788 -1.12088 0
M  V30 2564 C 234.817 1.79136 -0.785476 0
M  V30 2565 C 235.197 1.98246 0.725377 0
M  V30 2566 O 234.545 1.57258 1.65778 0
M  V30 2567 C 234.755 3.12375 -1.55636 0
M  V30 2568 C 236.103 3.8731 -1.74001 0
M  V30 2569 O 237.127 3.22085 -1.52117 0
M  V30 2570 O 235.986 5.04369 -2.10415 0
M  V30 2571 H 233.08 0.776226 -0.285311 0
M  V30 2572 H 235.626 1.1747 -1.2247 0
M  V30 2573 H 234.398 2.93863 -2.5838 0
M  V30 2574 H 234.021 3.81758 -1.11114 0
M  V30 2575 N 235.018 0.912232 1.28515 0
M  V30 2576 C 236.429 0.591352 1.77087 0
M  V30 2577 C 236.78 -0.8933 1.74684 0
M  V30 2578 O 235.905 -1.69876 1.34056 0
M  V30 2579 C 236.5 1.06668 3.2157 0
M  V30 2580 C 235.059 0.79675 3.67871 0
M  V30 2581 C 234.206 1.23427 2.48316 0
M  V30 2582 H 237.157 1.09365 1.15 0
M  V30 2583 H 237.178 0.407455 3.78312 0
M  V30 2584 H 236.69 2.14726 3.23287 0
M  V30 2585 H 234.791 -0.270679 3.71616 0
M  V30 2586 H 234.904 1.40343 4.58084 0
M  V30 2587 H 233.268 0.653036 2.46186 0
M  V30 2588 H 234.051 2.32316 2.52753 0
M  V30 2589 N 236.496 -1.42363 0.676048 0
M  V30 2590 C 237.721 -2.06377 0.205705 0
M  V30 2591 C 238.146 -1.50463 -1.12883 0
M  V30 2592 O 237.504 -0.623619 -1.70237 0
M  V30 2593 C 237.552 -3.60277 0.152655 0
M  V30 2594 O 236.656 -4.02935 -0.87845 0
M  V30 2595 H 235.997 -0.655588 0.105359 0
M  V30 2596 H 238.527 -1.82475 0.925412 0
M  V30 2597 H 238.537 -4.07993 -0.0230675 0
M  V30 2598 H 237.212 -4.00346 1.12675 0
M  V30 2599 H 235.789 -3.66764 -0.673668 0
M  V30 2600 N 237.974 -0.419461 -1.51915 0
M  V30 2601 C 239.222 0.152637 -2.01523 0
M  V30 2602 C 239.543 1.44762 -1.30649 0
M  V30 2603 O 238.813 1.90997 -0.435535 0
M  V30 2604 H 237.393 0.0593966 -0.744635 0
M  V30 2605 H 240.055 -0.558073 -1.86739 0
M  V30 2606 H 239.151 0.341369 -3.10227 0
M  V30 2607 N 239.452 1.56882 -0.150215 0
M  V30 2608 C 240.4 2.18214 0.805313 0
M  V30 2609 C 241.394 1.14006 1.25296 0
M  V30 2610 O 242.6 1.3225 1.22107 0
M  V30 2611 H 238.975 0.698762 0.277913 0
M  V30 2612 H 240.946 2.97231 0.263862 0
M  V30 2613 C 239.695 2.82065 2.03309 0
M  V30 2614 H 239.018 3.61968 1.69763 0
M  V30 2615 H 240.458 3.28477 2.68103 0
M  V30 2616 C 238.917 1.80739 2.84315 0
M  V30 2617 O 239.447 1.27983 3.80767 0
M  V30 2618 N 237.653 1.4997 2.48913 0
M  V30 2619 H 237.2 1.93062 1.70542 0
M  V30 2620 H 237.158 0.824217 3.03404 0
M  V30 2621 N 240.93 -0.123565 1.57115 0
M  V30 2622 C 242.158 -0.846461 1.88793 0
M  V30 2623 C 242.573 -1.73652 0.740976 0
M  V30 2624 O 241.93 -1.80207 -0.288393 0
M  V30 2625 C 241.981 -1.6837 3.19897 0
M  V30 2626 O 241.702 -0.829477 4.30176 0
M  V30 2627 C 243.203 -2.51214 3.65248 0
M  V30 2628 H 240.423 -0.243573 0.625231 0
M  V30 2629 H 242.967 -0.109324 2.04208 0
M  V30 2630 H 241.122 -2.37364 3.06165 0
M  V30 2631 H 241.536 -1.40651 5.0529 0
M  V30 2632 H 243.01 -3.05497 4.59756 0
M  V30 2633 H 243.487 -3.28359 2.9168 0
M  V30 2634 H 244.093 -1.8747 3.81752 0
M  V30 2635 N 242.408 -1.52605 -0.393616 0
M  V30 2636 C 243.638 -1.71046 -1.15874 0
M  V30 2637 C 244.046 -0.426483 -1.84331 0
M  V30 2638 O 243.389 0.608513 -1.73329 0
M  V30 2639 C 243.451 -2.80118 -2.25332 0
M  V30 2640 C 243.115 -4.21381 -1.76881 0
M  V30 2641 C 244.112 -5.04697 -1.24808 0
M  V30 2642 C 241.797 -4.67683 -1.83244 0
M  V30 2643 C 243.791 -6.32393 -0.797387 0
M  V30 2644 C 241.478 -5.95364 -1.37787 0
M  V30 2645 C 242.476 -6.77549 -0.861208 0
M  V30 2646 O 242.164 -8.02837 -0.413252 0
M  V30 2647 H 241.896 -0.576155 -0.353583 0
M  V30 2648 H 244.45 -2.00018 -0.467123 0
M  V30 2649 H 242.68 -2.46557 -2.97904 0
M  V30 2650 H 244.369 -2.87006 -2.87023 0
M  V30 2651 H 245.135 -4.70111 -1.19252 0
M  V30 2652 H 241.014 -4.03805 -2.22401 0
M  V30 2653 H 244.558 -6.9649 -0.393437 0
M  V30 2654 H 240.455 -6.29455 -1.43026 0
M  V30 2655 H 241.223 -8.16749 -0.53515 0
M  V30 2656 N 243.887 0.651787 -1.4349 0
M  V30 2657 C 245.117 1.43728 -1.48411 0
M  V30 2658 C 245.525 1.8893 -0.10103 0
M  V30 2659 O 244.868 1.60182 0.899307 0
M  V30 2660 C 244.93 2.70411 -2.36893 0
M  V30 2661 C 244.594 2.4714 -3.8441 0
M  V30 2662 C 245.591 2.10271 -4.75481 0
M  V30 2663 C 243.276 2.6142 -4.28912 0
M  V30 2664 C 245.27 1.87982 -6.0905 0
M  V30 2665 C 242.957 2.38746 -5.62533 0
M  V30 2666 C 243.955 2.02083 -6.5242 0
M  V30 2667 O 243.643 1.79647 -7.8357 0
M  V30 2668 H 243.375 0.447962 -0.506267 0
M  V30 2669 H 245.929 0.80624 -1.88915 0
M  V30 2670 H 244.159 3.36079 -1.91278 0
M  V30 2671 H 245.848 3.32364 -2.33 0
M  V30 2672 H 246.614 1.98814 -4.42378 0
M  V30 2673 H 242.493 2.88931 -3.59222 0
M  V30 2674 H 246.037 1.5929 -6.7917 0
M  V30 2675 H 241.934 2.49806 -5.95203 0
M  V30 2676 H 242.702 1.9406 -7.95162 0
M  V30 2677 N 245.365 1.30045 0.890287 0
M  V30 2678 C 246.313 1.15873 2.01683 0
M  V30 2679 C 247.307 0.0719403 1.69247 0
M  V30 2680 O 248.513 0.232414 1.78493 0
M  V30 2681 H 244.888 0.358203 0.661207 0
M  V30 2682 H 246.859 2.11229 2.10772 0
M  V30 2683 C 245.608 0.861842 3.36849 0
M  V30 2684 H 244.931 1.69016 3.62317 0
M  V30 2685 H 246.371 0.802762 4.16331 0
M  V30 2686 C 244.83 -0.435132 3.34078 0
M  V30 2687 O 245.36 -1.4583 3.74295 0
M  V30 2688 N 243.566 -0.444377 2.87182 0
M  V30 2689 H 243.113 0.388723 2.5465 0
M  V30 2690 H 243.071 -1.31213 2.85711 0
M  V30 2691 N 246.843 -1.10192 1.12674 0
M  V30 2692 C 248.089 -1.82658 0.894847 0
M  V30 2693 C 248.444 -1.83666 -0.573107 0
M  V30 2694 O 247.737 -1.28816 -1.41835 0
M  V30 2695 C 247.931 -3.28552 1.4067 0
M  V30 2696 C 247.76 -3.41756 2.92289 0
M  V30 2697 C 246.53 -3.54021 3.60551 0
M  V30 2698 C 248.728 -3.34949 3.90274 0
M  V30 2699 N 246.71 -3.55827 5.0026 0
M  V30 2700 C 248.081 -3.43531 5.16127 0
M  V30 2701 C 250.136 -3.18565 3.8265 0
M  V30 2702 C 248.839 -3.37416 6.3525 0
M  V30 2703 C 250.865 -3.13772 5.01299 0
M  V30 2704 C 250.227 -3.22938 6.26012 0
M  V30 2705 H 246.326 -0.683044 0.380756 0
M  V30 2706 H 248.91 -1.31752 1.43351 0
M  V30 2707 H 247.081 -3.77946 0.895055 0
M  V30 2708 H 248.813 -3.88991 1.11661 0
M  V30 2709 H 245.568 -3.57135 3.1105 0
M  V30 2710 H 245.992 -3.60335 5.73138 0
M  V30 2711 H 250.634 -3.10354 2.87124 0
M  V30 2712 H 248.352 -3.44391 7.3104 0
M  V30 2713 H 251.938 -3.02242 4.97133 0
M  V30 2714 H 250.818 -3.19235 7.16281 0
M  V30 2715 N 248.321 -0.919034 -1.28029 0
M  V30 2716 C 249.251 -0.428581 -2.29533 0
M  V30 2717 C 250.232 0.50659 -1.62381 0
M  V30 2718 O 251.417 0.413195 -1.89753 0
M  V30 2719 C 248.547 0.327388 -3.45753 0
M  V30 2720 C 247.501 -0.519137 -4.2484 0
M  V30 2721 C 246.827 0.365486 -5.33449 0
M  V30 2722 C 248.127 -1.77914 -4.91064 0
M  V30 2723 H 249.821 -1.27687 -2.70807 0
M  V30 2724 H 247.367 -0.615428 -1.30186 0
M  V30 2725 H 249.32 0.681378 -4.15855 0
M  V30 2726 H 248.044 1.20963 -3.03374 0
M  V30 2727 H 246.703 -0.855717 -3.56473 0
M  V30 2728 H 246.351 1.24642 -4.87312 0
M  V30 2729 H 246.051 -0.197356 -5.87268 0
M  V30 2730 H 247.575 0.715241 -6.06396 0
M  V30 2731 H 248.989 -1.49374 -5.53498 0
M  V30 2732 H 247.386 -2.2848 -5.54903 0
M  V30 2733 H 248.456 -2.50382 -4.15255 0
M  V30 2734 N 249.799 1.42003 -0.683588 0
M  V30 2735 C 251.046 2.01413 -0.209514 0
M  V30 2736 C 251.374 1.54088 1.1869 0
M  V30 2737 O 250.629 0.737591 1.81268 0
M  V30 2738 C 250.928 3.56827 -0.202357 0
M  V30 2739 C 250.594 4.23617 -1.54464 0
M  V30 2740 C 249.256 4.41577 -1.91215 0
M  V30 2741 C 251.608 4.61178 -2.42826 0
M  V30 2742 C 248.936 4.9437 -3.15935 0
M  V30 2743 C 251.288 5.15355 -3.66867 0
M  V30 2744 C 249.952 5.31528 -4.03776 0
M  V30 2745 H 249.222 0.737023 -0.0766668 0
M  V30 2746 H 251.869 1.70067 -0.880312 0
M  V30 2747 H 250.174 3.87892 0.551969 0
M  V30 2748 H 251.871 4.00588 0.181793 0
M  V30 2749 H 248.461 4.10004 -1.24877 0
M  V30 2750 H 252.645 4.46968 -2.15717 0
M  V30 2751 H 247.901 5.05076 -3.44541 0
M  V30 2752 H 252.075 5.43402 -4.35531 0
M  V30 2753 H 249.702 5.72199 -5.00492 0
M  V30 2754 N 251.277 0.427512 1.51691 0
M  V30 2755 C 252.517 -0.141524 2.03909 0
M  V30 2756 C 252.881 -1.40811 1.30523 0
M  V30 2757 O 254.082 -2.05676 1.73063 0
M  V30 2758 C 252.353 -0.364962 3.55532 0
M  V30 2759 S 253.912 -0.898812 4.29496 0
M  V30 2760 H 250.73 -0.0364542 0.710065 0
M  V30 2761 H 253.332 0.584659 1.86553 0
M  V30 2762 H 252.036 0.56336 4.06515 0
M  V30 2763 H 251.567 -1.1185 3.77164 0
M  V30 2764 H 253.582 -2.17747 4.45871 0
M  V30 2765 N 252.755 -1.56801 0.158532 0
M  V30 2766 C 254.004 -1.95665 -0.489702 0
M  V30 2767 C 254.317 -1.04654 -1.65248 0
M  V30 2768 O 255.523 -1.33146 -2.3661 0
M  V30 2769 C 253.979 -3.47874 -0.922582 0
M  V30 2770 C 253.587 -4.47489 0.213893 0
M  V30 2771 C 255.331 -3.95583 -1.53996 0
M  V30 2772 C 253.238 -5.90921 -0.237903 0
M  V30 2773 H 252.168 -0.730516 -0.186716 0
M  V30 2774 H 254.819 -1.81861 0.244722 0
M  V30 2775 H 253.201 -3.57051 -1.71261 0
M  V30 2776 H 254.375 -4.50017 0.991036 0
M  V30 2777 H 252.69 -4.09764 0.740407 0
M  V30 2778 H 255.287 -5.0019 -1.8898 0
M  V30 2779 H 255.63 -3.37789 -2.43319 0
M  V30 2780 H 256.163 -3.8937 -0.814611 0
M  V30 2781 H 252.902 -6.52559 0.620236 0
M  V30 2782 H 252.422 -5.91729 -0.980676 0
M  V30 2783 H 254.101 -6.43352 -0.686067 0
M  V30 2784 N 254.233 0.115231 -1.57178 0
M  V30 2785 C 255.461 0.836437 -1.89239 0
M  V30 2786 C 255.876 1.73256 -0.750175 0
M  V30 2787 O 255.233 1.80357 0.278832 0
M  V30 2788 C 255.284 1.66671 -3.20785 0
M  V30 2789 O 255.005 0.806652 -4.3061 0
M  V30 2790 C 256.506 2.49274 -3.66575 0
M  V30 2791 H 253.726 0.240253 -0.626514 0
M  V30 2792 H 256.27 0.0984932 -2.04263 0
M  V30 2793 H 254.425 2.35737 -3.0742 0
M  V30 2794 H 254.839 1.37969 -5.06028 0
M  V30 2795 H 256.313 3.03055 -4.6137 0
M  V30 2796 H 256.79 3.26807 -2.93417 0
M  V30 2797 H 257.396 1.85443 -3.82741 0
M  V30 2798 N 255.711 1.52812 0.385517 0
M  V30 2799 C 256.641 1.80808 1.47752 0
M  V30 2800 C 257.622 0.660318 1.5676 0
M  V30 2801 O 258.807 0.908246 1.71652 0
M  V30 2802 C 255.937 1.98008 2.85324 0
M  V30 2803 C 254.891 3.13709 2.91154 0
M  V30 2804 C 254.217 3.16169 4.31209 0
M  V30 2805 C 255.517 4.52709 2.60483 0
M  V30 2806 H 257.211 2.72253 1.24573 0
M  V30 2807 H 254.757 1.31003 0.597839 0
M  V30 2808 H 256.71 2.16176 3.61726 0
M  V30 2809 H 255.434 1.03255 3.09848 0
M  V30 2810 H 254.093 2.95329 2.17201 0
M  V30 2811 H 253.741 2.19092 4.52778 0
M  V30 2812 H 253.441 3.93894 4.36029 0
M  V30 2813 H 254.965 3.36496 5.09512 0
M  V30 2814 H 256.379 4.71173 3.26602 0
M  V30 2815 H 254.776 5.32528 2.76648 0
M  V30 2816 H 255.846 4.59186 1.55809 0
M  V30 2817 N 257.189 -0.644168 1.43834 0
M  V30 2818 C 258.6 -1.22554 1.40845 0
M  V30 2819 C 258.951 -1.9585 0.117115 0
M  V30 2820 O 258.076 -2.01734 -0.783086 0
M  V30 2821 C 258.671 -2.22907 2.55143 0
M  V30 2822 C 257.23 -2.76501 2.5539 0
M  V30 2823 C 256.377 -1.51287 2.32396 0
M  V30 2824 H 259.328 -0.43563 1.52604 0
M  V30 2825 H 259.349 -3.05259 2.2715 0
M  V30 2826 H 258.861 -1.69533 3.49114 0
M  V30 2827 H 256.962 -3.33914 1.65324 0
M  V30 2828 H 257.075 -3.23429 3.53455 0
M  V30 2829 H 255.439 -1.78957 1.81236 0
M  V30 2830 H 256.222 -0.998336 3.28463 0
M  V30 2831 N 258.668 -1.30515 -0.883378 0
M  V30 2832 C 259.914 -1.19607 -1.63774 0
M  V30 2833 C 260.247 0.248314 -1.92606 0
M  V30 2834 O 259.522 1.17742 -1.54813 0
M  V30 2835 C 259.805 -2.02669 -2.97653 0
M  V30 2836 C 259.658 -3.55335 -2.75784 0
M  V30 2837 C 260.977 -1.86573 -3.98596 0
M  V30 2838 H 258.096 -0.435856 -0.594305 0
M  V30 2839 H 260.738 -1.60165 -1.02212 0
M  V30 2840 H 258.888 -1.68208 -3.50197 0
M  V30 2841 H 260.56 -3.99863 -2.30016 0
M  V30 2842 H 258.803 -3.79438 -2.1026 0
M  V30 2843 H 259.474 -4.08745 -3.70988 0
M  V30 2844 H 261.95 -2.16703 -3.55217 0
M  V30 2845 H 260.826 -2.47014 -4.90179 0
M  V30 2846 H 261.087 -0.825321 -4.34328 0
M  V30 2847 N 260.146 1.09593 -1.13257 0
M  V30 2848 C 261.079 2.15451 -0.752061 0
M  V30 2849 C 262.057 1.60493 0.260913 0
M  V30 2850 O 263.241 1.8788 0.152819 0
M  V30 2851 C 260.368 3.38506 -0.114594 0
M  V30 2852 C 259.414 4.12183 -1.09579 0
M  V30 2853 S 260.247 4.6661 -2.62745 0
M  V30 2854 C 261.403 5.92966 -2.00354 0
M  V30 2855 H 261.636 2.47395 -1.64872 0
M  V30 2856 H 259.169 1.21515 -0.952545 0
M  V30 2857 H 261.127 4.09757 0.246808 0
M  V30 2858 H 259.788 3.04784 0.759309 0
M  V30 2859 H 258.981 5.00445 -0.597545 0
M  V30 2860 H 258.583 3.46785 -1.40057 0
M  V30 2861 H 260.875 6.63882 -1.35156 0
M  V30 2862 H 261.818 6.47467 -2.86691 0
M  V30 2863 H 262.226 5.45405 -1.4558 0
M  V30 2864 N 261.624 0.925811 1.2754 0
M  V30 2865 C 262.854 0.580666 1.98272 0
M  V30 2866 C 263.262 -0.845207 1.69272 0
M  V30 2867 O 262.605 -1.57306 0.948707 0
M  V30 2868 C 262.667 0.724418 3.52126 0
M  V30 2869 C 262.331 2.12206 4.04744 0
M  V30 2870 C 263.328 3.09604 4.17662 0
M  V30 2871 C 261.013 2.4385 4.39138 0
M  V30 2872 C 263.007 4.36755 4.64246 0
M  V30 2873 C 260.694 3.71237 4.85414 0
M  V30 2874 C 261.692 4.67503 4.97926 0
M  V30 2875 O 261.38 5.92624 5.43187 0
M  V30 2876 H 261.112 0.218987 0.639547 0
M  V30 2877 H 263.666 1.24452 1.63404 0
M  V30 2878 H 261.896 0.0034663 3.867 0
M  V30 2879 H 263.585 0.384607 4.04074 0
M  V30 2880 H 264.351 2.86478 3.91351 0
M  V30 2881 H 260.23 1.69665 4.28643 0
M  V30 2882 H 263.774 5.11898 4.73927 0
M  V30 2883 H 259.671 3.94182 5.11166 0
M  V30 2884 H 260.439 5.95585 5.61445 0
M  V30 2885 N 263.102 -1.41638 0.69111 0
M  V30 2886 C 264.05 -2.32597 0.0115199 0
M  V30 2887 C 265.044 -1.5072 -0.773296 0
M  V30 2888 O 266.25 -1.66685 -0.67942 0
M  V30 2889 H 262.625 -0.751849 -0.0150746 0
M  V30 2890 H 264.596 -2.87593 0.795791 0
M  V30 2891 C 263.345 -3.35467 -0.914172 0
M  V30 2892 H 262.668 -3.9852 -0.319687 0
M  V30 2893 H 264.108 -4.01662 -1.35808 0
M  V30 2894 C 262.567 -2.69004 -2.02826 0
M  V30 2895 O 263.097 -2.53444 -3.11655 0
M  V30 2896 N 261.303 -2.2777 -1.80469 0
M  V30 2897 H 260.85 -2.40626 -0.919615 0
M  V30 2898 H 260.808 -1.83635 -2.55197 0
M  V30 2899 N 264.58 -0.43555 -1.51462 0
M  V30 2900 C 265.826 0.123979 -2.03022 0
M  V30 2901 C 266.181 1.4054 -1.31401 0
M  V30 2902 O 265.474 1.86948 -0.419634 0
M  V30 2903 C 265.668 0.39942 -3.55161 0
M  V30 2904 C 265.497 -0.853754 -4.41521 0
M  V30 2905 C 264.267 -1.38675 -4.85898 0
M  V30 2906 C 266.465 -1.73939 -4.83994 0
M  V30 2907 N 264.447 -2.59265 -5.56466 0
M  V30 2908 C 265.818 -2.79135 -5.5361 0
M  V30 2909 C 267.873 -1.75402 -4.65981 0
M  V30 2910 C 266.576 -3.85737 -6.07124 0
M  V30 2911 C 268.602 -2.80938 -5.20411 0
M  V30 2912 C 267.964 -3.84854 -5.89972 0
M  V30 2913 H 264.063 0.00624887 -0.781975 0
M  V30 2914 H 266.647 -0.59582 -1.85359 0
M  V30 2915 H 264.818 1.08825 -3.72843 0
M  V30 2916 H 266.55 0.95015 -3.93388 0
M  V30 2917 H 263.305 -0.94094 -4.64159 0
M  V30 2918 H 263.729 -3.2041 -5.96378 0
M  V30 2919 H 268.371 -0.963926 -4.11665 0
M  V30 2920 H 266.089 -4.65586 -6.60496 0
M  V30 2921 H 269.675 -2.8301 -5.08327 0
M  V30 2922 H 268.555 -4.65176 -6.31333 0
M  V30 2923 N 266.058 1.56714 -0.166846 0
M  V30 2924 C 267.286 2.0112 0.485644 0
M  V30 2925 C 267.701 1.04705 1.57106 0
M  V30 2926 O 267.058 0.0471923 1.82439 0
M  V30 2927 C 267.109 3.45361 1.06808 0
M  V30 2928 O 266.83 4.38092 0.0259995 0
M  V30 2929 C 268.331 4.05145 1.79924 0
M  V30 2930 H 265.551 0.65931 0.124704 0
M  V30 2931 H 268.095 2.02746 -0.267262 0
M  V30 2932 H 266.25 3.44524 1.7715 0
M  V30 2933 H 266.664 5.22519 0.455398 0
M  V30 2934 H 268.138 5.08009 2.15942 0
M  V30 2935 H 268.615 3.46982 2.69258 0
M  V30 2936 H 269.221 4.09672 1.14234 0
M  V30 2937 N 267.536 -0.106894 1.57237 0
M  V30 2938 C 268.469 -1.16125 1.96444 0
M  V30 2939 C 269.447 -1.3947 0.835871 0
M  V30 2940 O 270.631 -1.53425 1.09513 0
M  V30 2941 C 267.758 -2.51277 2.27107 0
M  V30 2942 C 266.804 -2.44285 3.4961 0
M  V30 2943 S 267.637 -1.87077 5.01759 0
M  V30 2944 C 268.793 -3.23877 5.35588 0
M  V30 2945 H 269.026 -0.826971 2.85567 0
M  V30 2946 H 266.559 -0.314124 1.51171 0
M  V30 2947 H 268.517 -3.29035 2.45451 0
M  V30 2948 H 267.178 -2.81879 1.38576 0
M  V30 2949 H 266.371 -3.4387 3.68469 0
M  V30 2950 H 265.973 -1.74652 3.30715 0
M  V30 2951 H 268.265 -4.20122 5.31511 0
M  V30 2952 H 269.208 -3.09833 6.36717 0
M  V30 2953 H 269.616 -3.22864 4.63054 0
M  V30 2954 N 269.014 -1.53014 -0.377408 0
M  V30 2955 C 270.26 -1.68872 -1.12294 0
M  V30 2956 C 270.593 -0.433224 -1.89306 0
M  V30 2957 O 269.868 0.569258 -1.85983 0
M  V30 2958 C 270.151 -2.93115 -2.09179 0
M  V30 2959 C 270.004 -4.28794 -1.35853 0
M  V30 2960 C 271.323 -3.12928 -3.09458 0
M  V30 2961 H 268.442 -0.614518 -0.406862 0
M  V30 2962 H 271.084 -1.85633 -0.40503 0
M  V30 2963 H 269.234 -2.78956 -2.70399 0
M  V30 2964 H 270.906 -4.54742 -0.775082 0
M  V30 2965 H 269.149 -4.28744 -0.660364 0
M  V30 2966 H 269.82 -5.11837 -2.06706 0
M  V30 2967 H 272.296 -3.26194 -2.58334 0
M  V30 2968 H 271.172 -4.01316 -3.74482 0
M  V30 2969 H 271.433 -2.27669 -3.78971 0
M  V30 2970 N 270.492 0.636531 -1.44174 0
M  V30 2971 C 271.741 1.39213 -1.45954 0
M  V30 2972 C 272.054 1.95374 -0.0939119 0
M  V30 2973 O 273.26 2.71498 0.0107767 0
M  V30 2974 C 271.716 2.52025 -2.56927 0
M  V30 2975 C 271.324 2.024 -3.99673 0
M  V30 2976 C 273.068 3.29269 -2.67922 0
M  V30 2977 C 270.975 3.12521 -5.0208 0
M  V30 2978 H 269.905 0.523132 -0.542999 0
M  V30 2979 H 272.556 0.685349 -1.70221 0
M  V30 2980 H 270.938 3.25253 -2.25891 0
M  V30 2981 H 272.112 1.36073 -4.40251 0
M  V30 2982 H 270.427 1.37987 -3.92872 0
M  V30 2983 H 273.024 4.11352 -3.41605 0
M  V30 2984 H 273.367 3.78397 -1.73555 0
M  V30 2985 H 273.9 2.63129 -2.98342 0
M  V30 2986 H 270.639 2.68343 -5.98057 0
M  V30 2987 H 270.159 3.77507 -4.66099 0
M  V30 2988 H 271.838 3.77385 -5.25538 0
M  V30 2989 N 271.97 1.30982 0.876444 0
M  V30 2990 C 272.933 1.18054 1.96459 0
M  V30 2991 C 273.933 0.109399 1.60427 0
M  V30 2992 O 275.123 0.358173 1.70478 0
M  V30 2993 C 272.255 0.810616 3.31122 0
M  V30 2994 H 273.448 2.14735 2.09354 0
M  V30 2995 H 271.001 1.145 1.06392 0
M  V30 2996 H 271.736 -0.155322 3.23928 0
M  V30 2997 H 271.521 1.58481 3.58645 0
M  V30 2998 H 273.011 0.743876 4.10921 0
M  V30 2999 N 273.449 -1.08991 1.13837 0
M  V30 3000 C 274.865 -1.33312 0.877506 0
M  V30 3001 C 275.065 -1.95587 -0.48456 0
M  V30 3002 O 274.121 -2.20509 -1.23013 0
M  V30 3003 C 275.434 -2.24045 2.0056 0
M  V30 3004 C 276.982 -2.37542 2.03821 0
M  V30 3005 C 277.457 -3.31614 3.15905 0
M  V30 3006 N 278.948 -3.39189 3.15445 0
M  V30 3007 C 279.683 -4.11992 3.98811 0
M  V30 3008 N 279.179 -4.87553 4.92203 0
M  V30 3009 N 280.972 -4.07762 3.86894 0
M  V30 3010 H 273.123 -0.669456 2.01574 0
M  V30 3011 H 275.386 -0.357482 0.878015 0
M  V30 3012 H 275.092 -1.85521 2.98789 0
M  V30 3013 H 274.966 -3.24466 1.92359 0
M  V30 3014 H 277.353 -2.75327 1.06202 0
M  V30 3015 H 277.434 -1.36884 2.16093 0
M  V30 3016 H 277.078 -2.94551 4.13766 0
M  V30 3017 H 277.008 -4.32186 3.0087 0
M  V30 3018 H 279.499 -2.85314 2.47799 0
M  V30 3019 H 279.812 -5.40549 5.52292 0
M  V30 3020 H 278.157 -4.86627 4.96205 0
M  V30 3021 H 281.348 -3.47833 3.13257 0
M  V30 3022 H 281.521 -4.64238 4.52092 0
M  V30 3023 N 274.927 -0.932562 -1.27047 0
M  V30 3024 C 275.89 -0.440064 -2.24936 0
M  V30 3025 C 276.89 0.444071 -1.54547 0
M  V30 3026 O 278.08 0.244465 -1.72476 0
M  V30 3027 C 275.212 0.36678 -3.38921 0
M  V30 3028 H 276.405 -1.305 -2.70018 0
M  V30 3029 H 273.958 -0.713707 -1.39054 0
M  V30 3030 H 274.693 1.25033 -2.99228 0
M  V30 3031 H 274.478 -0.267204 -3.91188 0
M  V30 3032 H 275.968 0.701567 -4.11665 0
M  V30 3033 N 276.405 1.4127 -0.698611 0
M  V30 3034 C 277.645 2.03044 -0.235062 0
M  V30 3035 C 278.009 1.54146 1.14468 0
M  V30 3036 O 279.21 2.07867 1.70425 0
M  V30 3037 C 277.481 3.56192 -0.293651 0
M  V30 3038 S 279.04 4.38696 0.0954053 0
M  V30 3039 H 275.858 0.704697 -0.0944648 0
M  V30 3040 H 278.46 1.72656 -0.917064 0
M  V30 3041 H 277.164 3.89274 -1.29977 0
M  V30 3042 H 276.695 3.91285 0.407397 0
M  V30 3043 H 278.71 4.78257 1.3223 0
M  V30 3044 N 277.883 0.443576 1.51229 0
M  V30 3045 C 279.13 -0.120796 2.02139 0
M  V30 3046 C 279.458 -1.42166 1.32736 0
M  V30 3047 O 278.713 -1.90849 0.43301 0
M  V30 3048 C 279.012 -0.380579 3.55368 0
M  V30 3049 C 278.678 0.83523 4.43097 0
M  V30 3050 C 277.34 1.16864 4.66794 0
M  V30 3051 C 279.692 1.64601 4.94526 0
M  V30 3052 C 277.02 2.31339 5.39165 0
M  V30 3053 C 279.372 2.78181 5.68153 0
M  V30 3054 C 278.036 3.11969 5.90112 0
M  V30 3055 H 277.306 -0.0442023 0.73968 0
M  V30 3056 H 279.953 0.592046 1.82118 0
M  V30 3057 H 278.258 -1.17538 3.73754 0
M  V30 3058 H 279.955 -0.830777 3.923 0
M  V30 3059 H 276.545 0.565437 4.24854 0
M  V30 3060 H 280.729 1.40163 4.76097 0
M  V30 3061 H 275.985 2.57823 5.5438 0
M  V30 3062 H 280.159 3.41371 6.06992 0
M  V30 3063 H 277.786 4.00784 6.45969 0
M  V30 3064 N 279.361 -1.56624 0.175154 0
M  V30 3065 C 280.638 -1.88688 -0.515373 0
M  V30 3066 C 281.018 -1.08564 -1.81044 0
M  V30 3067 O 280.366 -0.180703 -2.27784 0
M  V30 3068 C 280.576 -3.40768 -0.753552 0
M  V30 3069 C 281.924 -4.10587 -1.08184 0
M  V30 3070 O 282.948 -3.46106 -0.841961 0
M  V30 3071 O 281.807 -5.24512 -1.53459 0
M  V30 3072 H 278.901 -0.78301 -0.26613 0
M  V30 3073 H 281.447 -1.68347 0.213877 0
M  V30 3074 H 280.219 -3.90965 0.161829 0
M  V30 3075 H 279.842 -3.66733 -1.53598 0
M  V30 3076 N 280.839 0.0985539 -1.57292 0
M  V30 3077 C 281.749 1.13824 -2.05137 0
M  V30 3078 C 282.765 1.44076 -0.975604 0
M  V30 3079 O 283.941 1.54786 -1.28853 0
M  V30 3080 C 281.006 2.43969 -2.46333 0
M  V30 3081 C 280.067 2.2093 -3.68087 0
M  V30 3082 C 279.3 3.44869 -4.0731 0
M  V30 3083 O 279.523 4.52972 -3.46659 0
M  V30 3084 O 278.457 3.34661 -5.00285 0
M  V30 3085 H 282.283 0.761881 -2.93988 0
M  V30 3086 H 279.868 0.310818 -1.46131 0
M  V30 3087 H 281.75 3.20609 -2.73473 0
M  V30 3088 H 280.425 2.81038 -1.60621 0
M  V30 3089 H 279.332 1.42081 -3.46069 0
M  V30 3090 H 280.665 1.88755 -4.54568 0
M  V30 3091 N 282.317 1.53212 0.369288 0
M  V30 3092 C 283.247 1.82365 1.45826 0
M  V30 3093 C 284.228 0.676907 1.56051 0
M  V30 3094 O 285.413 0.926401 1.70679 0
M  V30 3095 C 282.543 2.01023 2.83208 0
M  V30 3096 C 281.497 3.1678 2.8781 0
M  V30 3097 C 280.823 3.20724 4.27832 0
M  V30 3098 C 282.123 4.55447 2.55667 0
M  V30 3099 H 283.817 2.73559 1.21678 0
M  V30 3100 H 281.363 1.3163 0.583911 0
M  V30 3101 H 283.316 2.20001 3.59413 0
M  V30 3102 H 282.04 1.06536 3.08736 0
M  V30 3103 H 280.699 2.97616 2.14056 0
M  V30 3104 H 280.347 2.23882 4.50429 0
M  V30 3105 H 280.047 3.98496 4.31827 0
M  V30 3106 H 281.571 3.41881 5.05915 0
M  V30 3107 H 282.985 4.74611 3.21586 0
M  V30 3108 H 281.382 5.35432 2.70984 0
M  V30 3109 H 282.452 4.60812 1.5093 0
M  V30 3110 N 283.795 -0.628877 1.44509 0
M  V30 3111 C 284.727 -1.754 1.47538 0
M  V30 3112 C 285.74 -1.58575 0.368506 0
M  V30 3113 O 286.929 -1.66847 0.634376 0
M  V30 3114 C 284.029 -3.1315 1.29577 0
M  V30 3115 C 283.202 -3.56413 2.53551 0
M  V30 3116 C 282.261 -4.7305 2.30457 0
M  V30 3117 O 281.287 -4.81247 3.03957 0
M  V30 3118 N 282.489 -5.64903 1.3366 0
M  V30 3119 H 285.254 -1.73272 2.44534 0
M  V30 3120 H 282.815 -0.813512 1.39977 0
M  V30 3121 H 284.807 -3.88902 1.11971 0
M  V30 3122 H 283.377 -3.09908 0.409371 0
M  V30 3123 H 282.597 -2.70847 2.86419 0
M  V30 3124 H 283.885 -3.82071 3.36005 0
M  V30 3125 H 283.283 -5.60975 0.729604 0
M  V30 3126 H 281.84 -6.40275 1.22032 0
M  V30 3127 N 285.273 -1.31445 -0.869486 0
M  V30 3128 C 286.498 -1.24256 -1.66058 0
M  V30 3129 C 286.923 0.188928 -1.87149 0
M  V30 3130 O 286.281 1.13522 -1.4136 0
M  V30 3131 C 286.329 -1.9924 -3.00559 0
M  V30 3132 O 285.433 -1.33007 -3.90362 0
M  V30 3133 H 284.774 -0.428973 -0.506831 0
M  V30 3134 H 287.304 -1.73521 -1.08404 0
M  V30 3135 H 287.314 -2.08854 -3.50491 0
M  V30 3136 H 285.989 -3.03342 -2.84528 0
M  V30 3137 H 284.566 -1.31848 -3.48813 0
M  V30 3138 N 286.751 1.08385 -1.14413 0
M  V30 3139 C 288.028 1.77429 -0.823297 0
M  V30 3140 C 288.408 1.9974 0.683163 0
M  V30 3141 O 287.756 1.60739 1.62405 0
M  V30 3142 C 287.966 3.09004 -1.62227 0
M  V30 3143 C 289.314 3.83532 -1.82177 0
M  V30 3144 O 290.338 3.18786 -1.58915 0
M  V30 3145 O 289.197 4.99792 -2.21067 0
M  V30 3146 H 286.291 0.769999 -0.301712 0
M  V30 3147 H 288.837 1.14846 -1.24934 0
M  V30 3148 H 287.609 2.88316 -2.64555 0
M  V30 3149 H 287.232 3.79316 -1.19187 0
M  V30 3150 N 288.23 0.939286 1.26551 0
M  V30 3151 C 289.46 0.601663 1.97645 0
M  V30 3152 C 289.868 -0.827206 1.70159 0
M  V30 3153 O 289.211 -1.56291 0.965338 0
M  V30 3154 C 289.273 0.761725 3.51337 0
M  V30 3155 C 288.937 2.16487 4.0247 0
M  V30 3156 C 289.934 3.14016 4.14355 0
M  V30 3157 C 287.619 2.48494 4.36527 0
M  V30 3158 C 289.613 4.41654 4.59587 0
M  V30 3159 C 287.3 3.76364 4.81449 0
M  V30 3160 C 288.298 4.72758 4.92939 0
M  V30 3161 O 287.986 5.98352 5.36871 0
M  V30 3162 H 287.718 0.225758 0.637189 0
M  V30 3163 H 290.272 1.26178 1.62075 0
M  V30 3164 H 288.502 0.0444808 3.86674 0
M  V30 3165 H 290.191 0.427442 4.03643 0
M  V30 3166 H 290.957 2.90613 3.8829 0
M  V30 3167 H 286.836 1.74202 4.26819 0
M  V30 3168 H 290.38 5.16896 4.68471 0
M  V30 3169 H 286.277 3.99582 5.06956 0
M  V30 3170 H 287.045 6.01507 5.55096 0
M  V30 3171 N 289.708 -1.40897 0.706093 0
M  V30 3172 C 290.638 -2.33418 0.0620085 0
M  V30 3173 C 291.619 -1.52385 -0.755827 0
M  V30 3174 O 292.804 -1.80886 -0.706674 0
M  V30 3175 C 289.934 -3.36293 -0.867445 0
M  V30 3176 C 288.888 -4.27716 -0.155932 0
M  V30 3177 C 288.214 -5.2105 -1.20046 0
M  V30 3178 C 289.514 -5.12944 0.984149 0
M  V30 3179 H 291.208 -2.87527 0.83477 0
M  V30 3180 H 288.754 -1.38249 0.402875 0
M  V30 3181 H 290.707 -3.99949 -1.32735 0
M  V30 3182 H 289.431 -2.80556 -1.67199 0
M  V30 3183 H 288.09 -3.65498 0.284047 0
M  V30 3184 H 287.738 -4.61624 -1.99781 0
M  V30 3185 H 287.438 -5.83056 -0.729328 0
M  V30 3186 H 288.962 -5.87584 -1.66066 0
M  V30 3187 H 290.376 -5.70109 0.604048 0
M  V30 3188 H 288.773 -5.83945 1.38304 0
M  V30 3189 H 289.843 -4.49485 1.81911 0
M  V30 3190 N 291.186 -0.45159 -1.50991 0
M  V30 3191 C 292.096 0.358431 -2.31846 0
M  V30 3192 C 293.112 1.01438 -1.41373 0
M  V30 3193 O 294.288 1.00663 -1.74439 0
M  V30 3194 C 291.353 1.43704 -3.15515 0
M  V30 3195 C 290.414 0.799742 -4.21785 0
M  V30 3196 C 289.647 1.82696 -5.01456 0
M  V30 3197 O 289.87 3.05105 -4.81941 0
M  V30 3198 O 288.804 1.40958 -5.85162 0
M  V30 3199 H 292.63 -0.302032 -3.02194 0
M  V30 3200 H 290.215 -0.213825 -1.47862 0
M  V30 3201 H 292.097 2.06227 -3.67489 0
M  V30 3202 H 290.772 2.08133 -2.47916 0
M  V30 3203 H 289.679 0.136084 -3.73852 0
M  V30 3204 H 291.012 0.198718 -4.91799 0
M  V30 3205 N 292.664 1.56529 -0.183458 0
M  V30 3206 C 293.894 2.01331 0.463612 0
M  V30 3207 C 294.302 1.06278 1.5653 0
M  V30 3208 O 293.645 0.0577976 1.83609 0
M  V30 3209 C 293.707 3.42547 1.09096 0
M  V30 3210 C 293.371 4.56817 0.129442 0
M  V30 3211 C 294.368 5.15734 -0.656807 0
M  V30 3212 C 292.053 5.02295 0.02174 0
M  V30 3213 C 294.047 6.1857 -1.53784 0
M  V30 3214 C 291.734 6.04978 -0.862864 0
M  V30 3215 C 292.732 6.62988 -1.64123 0
M  V30 3216 O 292.42 7.63677 -2.51103 0
M  V30 3217 H 292.152 0.664917 0.121907 0
M  V30 3218 H 294.706 2.034 -0.285954 0
M  V30 3219 H 292.936 3.37428 1.88889 0
M  V30 3220 H 294.625 3.71228 1.64148 0
M  V30 3221 H 295.391 4.81473 -0.583839 0
M  V30 3222 H 291.27 4.56847 0.617392 0
M  V30 3223 H 294.814 6.63777 -2.14583 0
M  V30 3224 H 290.711 6.38663 -0.93699 0
M  V30 3225 H 291.479 7.81049 -2.44753 0
M  V30 3226 N 294.142 -0.090211 1.57342 0
M  V30 3227 C 295.388 -0.788838 1.8748 0
M  V30 3228 C 295.743 -1.76105 0.7749 0
M  V30 3229 O 295.036 -1.90302 -0.222663 0
M  V30 3230 C 295.23 -1.55222 3.21933 0
M  V30 3231 C 295.059 -0.655441 4.44898 0
M  V30 3232 C 293.829 -0.299325 5.04413 0
M  V30 3233 C 296.027 0.0397458 5.14285 0
M  V30 3234 N 294.009 0.605108 6.10911 0
M  V30 3235 C 295.38 0.802061 6.1479 0
M  V30 3236 C 297.435 0.113154 4.97771 0
M  V30 3237 C 296.138 1.63093 7.00566 0
M  V30 3238 C 298.164 0.928942 5.84059 0
M  V30 3239 C 297.526 1.67936 6.84088 0
M  V30 3240 H 293.625 -0.26467 0.735849 0
M  V30 3241 H 296.209 -0.0511453 1.94633 0
M  V30 3242 H 294.38 -2.26076 3.15823 0
M  V30 3243 H 296.112 -2.19843 3.39781 0
M  V30 3244 H 292.867 -0.648079 4.69145 0
M  V30 3245 H 293.291 1.05002 6.68808 0
M  V30 3246 H 297.933 -0.452676 4.2037 0
M  V30 3247 H 295.651 2.20781 7.77355 0
M  V30 3248 H 299.237 0.988478 5.73341 0
M  V30 3249 H 298.117 2.30044 7.49699 0
M  V30 3250 N 295.62 -1.53406 -0.361157 0
M  V30 3251 C 296.55 -1.83136 -1.44857 0
M  V30 3252 C 297.531 -0.685174 -1.5569 0
M  V30 3253 O 298.716 -0.93544 -1.70186 0
M  V30 3254 C 295.846 -2.02522 -2.82138 0
M  V30 3255 C 294.8 -3.18302 -2.86126 0
M  V30 3256 C 294.126 -3.22989 -4.26125 0
M  V30 3257 C 295.426 -4.56796 -2.53248 0
M  V30 3258 H 297.12 -2.74201 -1.20226 0
M  V30 3259 H 294.666 -1.31938 -0.576922 0
M  V30 3260 H 296.619 -2.21904 -3.58241 0
M  V30 3261 H 295.343 -1.08172 -3.08166 0
M  V30 3262 H 294.002 -2.98747 -2.12475 0
M  V30 3263 H 293.65 -2.26267 -4.49235 0
M  V30 3264 H 293.35 -4.00781 -4.29708 0
M  V30 3265 H 294.874 -3.44559 -5.04094 0
M  V30 3266 H 296.288 -4.7631 -3.19064 0
M  V30 3267 H 294.685 -5.36862 -2.68141 0
M  V30 3268 H 295.755 -4.61606 -1.48484 0
M  V30 3269 N 297.098 0.621204 -1.44841 0
M  V30 3270 C 298.347 1.37658 -1.47422 0
M  V30 3271 C 298.66 1.95264 -0.114629 0
M  V30 3272 O 299.866 2.71494 -0.0180199 0
M  V30 3273 C 298.322 2.49285 -2.59586 0
M  V30 3274 C 297.93 1.98149 -4.01797 0
M  V30 3275 C 299.674 3.26409 -2.71399 0
M  V30 3276 C 297.581 3.07178 -5.05367 0
M  V30 3277 H 296.511 0.517344 -0.548517 0
M  V30 3278 H 299.162 0.667257 -1.70938 0
M  V30 3279 H 297.544 3.22839 -2.29328 0
M  V30 3280 H 298.718 1.31395 -4.41669 0
M  V30 3281 H 297.033 1.33812 -3.94314 0
M  V30 3282 H 299.63 4.07706 -3.45948 0
M  V30 3283 H 299.973 3.76535 -1.77559 0
M  V30 3284 H 300.506 2.5995 -3.01116 0
M  V30 3285 H 297.245 2.61985 -6.00869 0
M  V30 3286 H 296.765 3.72542 -4.70077 0
M  V30 3287 H 298.444 3.71789 -5.29511 0
M  V30 3288 N 298.576 1.31904 0.862503 0
M  V30 3289 C 299.506 1.22782 1.98612 0
M  V30 3290 C 300.487 0.113362 1.69722 0
M  V30 3291 O 301.672 0.299218 1.91881 0
M  V30 3292 C 298.802 0.942058 3.34279 0
M  V30 3293 C 297.756 2.0169 3.77499 0
M  V30 3294 C 297.082 1.58369 5.10709 0
M  V30 3295 C 298.382 3.43096 3.93805 0
M  V30 3296 H 300.076 2.16788 2.06502 0
M  V30 3297 H 297.622 1.04366 0.992154 0
M  V30 3298 H 299.575 0.864818 4.1243 0
M  V30 3299 H 298.299 -0.0336603 3.26583 0
M  V30 3300 H 296.958 2.08416 3.01593 0
M  V30 3301 H 296.606 0.595628 4.99461 0
M  V30 3302 H 296.306 2.30279 5.40597 0
M  V30 3303 H 297.83 1.52067 5.91361 0
M  V30 3304 H 299.244 3.39003 4.62331 0
M  V30 3305 H 297.641 4.13288 4.35101 0
M  V30 3306 H 298.711 3.83334 2.96957 0
M  V30 3307 N 300.054 -1.07777 1.14986 0
M  V30 3308 C 301.331 -1.7699 0.832695 0
M  V30 3309 C 301.711 -2.001 -0.672561 0
M  V30 3310 O 301.059 -1.61598 -1.6155 0
M  V30 3311 C 301.269 -3.08139 1.63863 0
M  V30 3312 C 302.617 -3.8256 1.84208 0
M  V30 3313 O 303.641 -3.17939 1.60603 0
M  V30 3314 O 302.5 -4.98612 2.23714 0
M  V30 3315 H 299.594 -0.768389 0.305791 0
M  V30 3316 H 302.14 -1.14182 1.25541 0
M  V30 3317 H 300.912 -2.86909 2.6608 0
M  V30 3318 H 300.535 -3.78678 1.21197 0
M  V30 3319 N 301.532 -0.945985 -1.26051 0
M  V30 3320 C 302.762 -0.612136 -1.97323 0
M  V30 3321 C 303.17 0.818171 -1.70595 0
M  V30 3322 O 302.513 1.55777 -0.973613 0
M  V30 3323 C 302.575 -0.780347 -3.50929 0
M  V30 3324 C 302.239 -2.18619 -4.01317 0
M  V30 3325 C 303.236 -3.16209 -4.12683 0
M  V30 3326 C 300.921 -2.50805 -4.35203 0
M  V30 3327 C 302.915 -4.44085 -4.57238 0
M  V30 3328 C 300.602 -3.78912 -4.79446 0
M  V30 3329 C 301.6 -4.75365 -4.90425 0
M  V30 3330 O 301.288 -6.01191 -5.3369 0
M  V30 3331 H 301.02 -0.229134 -0.635982 0
M  V30 3332 H 303.574 -1.27036 -1.61404 0
M  V30 3333 H 301.804 -0.0649864 -3.86645 0
M  V30 3334 H 303.493 -0.448842 -4.03411 0
M  V30 3335 H 304.259 -2.92668 -3.86744 0
M  V30 3336 H 300.138 -1.76463 -4.2589 0
M  V30 3337 H 303.682 -5.19373 -4.65723 0
M  V30 3338 H 299.579 -4.02265 -5.0483 0
M  V30 3339 H 300.347 -6.04442 -5.51899 0
M  V30 3340 N 303.011 1.40521 -0.713556 0
M  V30 3341 C 304.257 2.01221 -0.252564 0
M  V30 3342 C 304.59 1.56444 1.1506 0
M  V30 3343 O 303.865 0.783597 1.78017 0
M  V30 3344 C 304.148 3.58582 -0.330332 0
M  V30 3345 C 304.001 4.13437 -1.77173 0
M  V30 3346 C 305.32 4.39079 0.299641 0
M  V30 3347 H 302.439 0.731077 -0.0932471 0
M  V30 3348 H 305.081 1.67026 -0.905673 0
M  V30 3349 H 303.231 3.87844 0.225737 0
M  V30 3350 H 304.903 3.9498 -2.38303 0
M  V30 3351 H 303.146 3.67801 -2.3001 0
M  V30 3352 H 303.817 5.22597 -1.77755 0
M  V30 3353 H 306.293 4.15735 -0.174139 0
M  V30 3354 H 305.169 5.4848 0.214771 0
M  V30 3355 H 305.43 4.19915 1.38288 0
M  V30 3356 N 304.489 0.459591 1.5075 0
M  V30 3357 C 305.714 -0.0996819 2.0716 0
M  V30 3358 C 306.139 -1.33761 1.32249 0
M  V30 3359 O 305.497 -1.77551 0.366786 0
M  V30 3360 C 305.545 -0.378226 3.58611 0
M  V30 3361 O 304.649 -1.46081 3.85661 0
M  V30 3362 H 303.99 0.00791392 0.663953 0
M  V30 3363 H 306.52 0.647329 1.9409 0
M  V30 3364 H 306.53 -0.622135 4.03229 0
M  V30 3365 H 305.205 0.526439 4.12555 0
M  V30 3366 H 303.782 -1.20511 3.5289 0
M  V30 3367 N 305.967 -1.56429 0.191757 0
M  V30 3368 C 307.244 -1.89224 -0.495332 0
M  V30 3369 C 307.624 -1.10478 -1.79883 0
M  V30 3370 O 306.972 -0.204852 -2.2758 0
M  V30 3371 C 307.182 -3.41548 -0.717367 0
M  V30 3372 C 308.53 -4.11711 -1.03823 0
M  V30 3373 O 309.554 -3.4698 -0.805204 0
M  V30 3374 O 308.413 -5.2611 -1.47887 0
M  V30 3375 H 305.507 -0.785788 -0.25781 0
M  V30 3376 H 308.053 -1.68111 0.231721 0
M  V30 3377 H 306.825 -3.90772 0.203287 0
M  V30 3378 H 306.448 -3.68342 -1.497 0
M  V30 3379 N 307.445 0.0818655 -1.57387 0
M  V30 3380 C 308.694 0.781681 -1.85937 0
M  V30 3381 C 309.007 1.79246 -0.782957 0
M  V30 3382 O 310.213 2.54112 -0.955987 0
M  V30 3383 C 308.669 1.44109 -3.29789 0
M  V30 3384 C 308.277 0.469396 -4.45534 0
M  V30 3385 C 310.021 2.12386 -3.67549 0
M  V30 3386 C 307.928 1.13415 -5.80423 0
M  V30 3387 H 306.858 0.295682 -0.693605 0
M  V30 3388 H 309.509 0.0348051 -1.83467 0
M  V30 3389 H 307.891 2.23588 -3.2684 0
M  V30 3390 H 309.065 -0.294856 -4.59856 0
M  V30 3391 H 307.38 -0.108383 -4.16259 0
M  V30 3392 H 309.977 2.62878 -4.65617 0
M  V30 3393 H 310.32 2.91877 -2.96839 0
M  V30 3394 H 310.853 1.39751 -3.72444 0
M  V30 3395 H 307.592 0.379771 -6.54399 0
M  V30 3396 H 307.112 1.8695 -5.69921 0
M  V30 3397 H 308.791 1.65686 -6.25426 0
M  V30 3398 N 308.923 1.53595 0.353017 0
M  V30 3399 C 310.169 1.70638 1.09593 0
M  V30 3400 C 310.502 0.463286 1.88593 0
M  V30 3401 O 309.777 -0.539597 1.86865 0
M  V30 3402 C 310.06 2.96406 2.04489 0
M  V30 3403 C 309.913 4.30901 1.29014 0
M  V30 3404 C 311.232 3.17812 3.0444 0
M  V30 3405 H 308.351 0.620913 0.397034 0
M  V30 3406 H 310.993 1.86254 0.375446 0
M  V30 3407 H 309.143 2.83223 2.65927 0
M  V30 3408 H 310.815 4.55917 0.702638 0
M  V30 3409 H 309.058 4.29741 0.592071 0
M  V30 3410 H 309.729 5.1506 1.98537 0
M  V30 3411 H 312.205 3.30263 2.53112 0
M  V30 3412 H 311.081 4.07223 3.6805 0
M  V30 3413 H 311.342 2.33669 3.75301 0
M  V30 3414 N 310.401 -0.613514 1.45168 0
M  V30 3415 C 311.631 -1.39743 1.52169 0
M  V30 3416 C 312.039 -1.88596 0.151086 0
M  V30 3417 O 311.382 -1.6251 -0.856521 0
M  V30 3418 C 311.444 -2.64035 2.43979 0
M  V30 3419 C 311.108 -2.36861 3.90827 0
M  V30 3420 C 312.105 -1.97591 4.80889 0
M  V30 3421 C 309.79 -2.49956 4.35692 0
M  V30 3422 C 311.784 -1.71768 6.1382 0
M  V30 3423 C 309.471 -2.23747 5.68665 0
M  V30 3424 C 310.469 -1.84714 6.57548 0
M  V30 3425 O 310.157 -1.58809 7.88058 0
M  V30 3426 H 309.889 -0.434382 0.517966 0
M  V30 3427 H 312.443 -0.75587 1.90986 0
M  V30 3428 H 310.673 -3.3089 2.00122 0
M  V30 3429 H 312.362 -3.26069 2.41731 0
M  V30 3430 H 313.128 -1.87015 4.47493 0
M  V30 3431 H 309.007 -2.79305 3.66756 0
M  V30 3432 H 312.551 -1.41227 6.83155 0
M  V30 3433 H 308.448 -2.33938 6.01617 0
M  V30 3434 H 309.216 -1.7291 8.00028 0
M  V30 3435 N 311.879 -1.3236 -0.855495 0
M  V30 3436 C 312.809 -1.23833 -1.97958 0
M  V30 3437 C 313.79 -0.122361 -1.69659 0
M  V30 3438 O 314.975 -0.30939 -1.9172 0
M  V30 3439 C 312.105 -0.959772 -3.33775 0
M  V30 3440 C 311.059 -2.03689 -3.76424 0
M  V30 3441 C 310.385 -1.61075 -5.09862 0
M  V30 3442 C 311.685 -3.4518 -3.9198 0
M  V30 3443 H 313.379 -2.1788 -2.0535 0
M  V30 3444 H 310.925 -1.04891 -0.986605 0
M  V30 3445 H 312.878 -0.886678 -4.11966 0
M  V30 3446 H 311.602 0.0163404 -3.26596 0
M  V30 3447 H 310.261 -2.10012 -3.00484 0
M  V30 3448 H 309.909 -0.622107 -4.99138 0
M  V30 3449 H 309.609 -2.33143 -5.39368 0
M  V30 3450 H 311.133 -1.55201 -5.90546 0
M  V30 3451 H 312.547 -3.4145 -4.60526 0
M  V30 3452 H 310.944 -4.1559 -4.32903 0
M  V30 3453 H 312.014 -3.84903 -2.94919 0
M  V30 3454 N 313.357 1.07166 -1.15556 0
M  V30 3455 C 314.606 1.79181 -0.926132 0
M  V30 3456 C 314.919 1.87768 0.547967 0
M  V30 3457 O 316.125 2.56323 0.895036 0
M  V30 3458 C 314.581 3.22 -1.60761 0
M  V30 3459 C 314.189 3.21607 -3.11886 0
M  V30 3460 C 315.933 3.9861 -1.4598 0
M  V30 3461 C 313.84 4.59092 -3.72812 0
M  V30 3462 H 312.77 0.67154 -0.342856 0
M  V30 3463 H 315.421 1.2027 -1.3859 0
M  V30 3464 H 313.803 3.81115 -1.07553 0
M  V30 3465 H 314.977 2.72127 -3.71865 0
M  V30 3466 H 313.292 2.58495 -3.2645 0
M  V30 3467 H 315.889 5.00225 -1.88888 0
M  V30 3468 H 316.232 4.143 -0.407541 0
M  V30 3469 H 316.765 3.45996 -1.96295 0
M  V30 3470 H 313.504 4.48606 -4.77946 0
M  V30 3471 H 313.024 5.08803 -3.17616 0
M  V30 3472 H 314.703 5.28059 -3.73848 0
M  V30 3473 N 314.835 0.952656 1.25548 0
M  V30 3474 C 316.112 0.523818 1.88456 0
M  V30 3475 C 316.492 -0.998871 1.85973 0
M  V30 3476 O 315.84 -1.86381 1.3219 0
M  V30 3477 C 316.05 1.0982 3.31271 0
M  V30 3478 C 317.398 1.17385 4.08051 0
M  V30 3479 O 318.422 1.04961 3.40384 0
M  V30 3480 O 317.281 1.36852 5.29088 0
M  V30 3481 H 314.375 0.172485 0.808813 0
M  V30 3482 H 316.921 1.04596 1.33633 0
M  V30 3483 H 315.693 2.1415 3.27499 0
M  V30 3484 H 315.316 0.559191 3.93648 0
M  V30 3485 N 316.313 -1.40141 0.720998 0
M  V30 3486 C 317.246 -2.2819 0.020916 0
M  V30 3487 C 318.224 -1.43633 -0.762129 0
M  V30 3488 O 319.408 -1.7304 -0.747633 0
M  V30 3489 C 316.535 -3.24281 -0.977715 0
M  V30 3490 C 315.581 -4.25548 -0.284836 0
M  V30 3491 S 316.414 -5.26247 0.991169 0
M  V30 3492 C 317.57 -6.259 -0.0052214 0
M  V30 3493 H 317.803 -2.87218 0.767649 0
M  V30 3494 H 315.336 -1.45656 0.512233 0
M  V30 3495 H 317.294 -3.80167 -1.54865 0
M  V30 3496 H 315.955 -2.643 -1.69719 0
M  V30 3497 H 315.148 -4.93154 -1.03996 0
M  V30 3498 H 314.75 -3.73389 0.213684 0
M  V30 3499 H 317.042 -6.72143 -0.850279 0
M  V30 3500 H 317.985 -7.05224 0.637599 0
M  V30 3501 H 318.393 -5.63277 -0.371366 0
M  V30 3502 N 317.792 -0.46758 -1.50504 0
M  V30 3503 C 319.039 0.0886219 -2.02306 0
M  V30 3504 C 319.367 1.40037 -1.34981 0
M  V30 3505 O 318.622 1.90136 -0.463318 0
M  V30 3506 C 318.921 0.323995 -3.55928 0
M  V30 3507 C 318.587 -0.905618 -4.41712 0
M  V30 3508 C 317.249 -1.24275 -4.64875 0
M  V30 3509 C 319.601 -1.72448 -4.91845 0
M  V30 3510 C 316.929 -2.39888 -5.35417 0
M  V30 3511 C 319.281 -2.87185 -5.63656 0
M  V30 3512 C 317.945 -3.21317 -5.85074 0
M  V30 3513 H 317.215 0.0324291 -0.74029 0
M  V30 3514 H 319.862 -0.620945 -1.81153 0
M  V30 3515 H 318.167 1.11577 -3.75577 0
M  V30 3516 H 319.864 0.76826 -3.93572 0
M  V30 3517 H 316.454 -0.632956 -4.239 0
M  V30 3518 H 320.638 -1.4772 -4.73806 0
M  V30 3519 H 315.894 -2.66611 -5.50208 0
M  V30 3520 H 320.068 -3.50985 -6.01484 0
M  V30 3521 H 317.695 -4.1101 -6.39511 0
M  V30 3522 N 319.27 1.56325 -0.20005 0
M  V30 3523 C 320.516 1.98012 0.438059 0
M  V30 3524 C 320.849 1.08702 1.60927 0
M  V30 3525 O 320.124 0.140064 1.93995 0
M  V30 3526 C 320.407 3.48841 0.893419 0
M  V30 3527 C 320.26 4.48928 -0.279947 0
M  V30 3528 C 321.579 4.03498 1.75719 0
M  V30 3529 H 318.698 0.719918 0.157757 0
M  V30 3530 H 321.34 1.87743 -0.291968 0
M  V30 3531 H 319.49 3.57723 1.51547 0
M  V30 3532 H 321.162 4.52079 -0.91772 0
M  V30 3533 H 319.405 4.23694 -0.930919 0
M  V30 3534 H 320.076 5.5194 0.0812601 0
M  V30 3535 H 322.552 3.97427 1.23253 0
M  V30 3536 H 321.428 5.09393 2.04476 0
M  V30 3537 H 321.689 3.4906 2.71311 0
M  V30 3538 N 320.748 -0.0735177 1.57428 0
M  V30 3539 C 322.164 -0.428264 1.53747 0
M  V30 3540 C 322.364 -1.79272 0.91998 0
M  V30 3541 O 321.42 -2.47051 0.521745 0
M  V30 3542 C 322.733 -0.370914 2.98404 0
M  V30 3543 C 324.281 -0.451224 3.0973 0
M  V30 3544 C 324.756 -0.4238 4.56035 0
M  V30 3545 N 326.247 -0.483925 4.60665 0
M  V30 3546 C 326.982 -0.484891 5.71346 0
M  V30 3547 N 326.478 -0.440775 6.91396 0
M  V30 3548 N 328.271 -0.531319 5.59583 0
M  V30 3549 H 320.422 0.819949 1.95935 0
M  V30 3550 H 322.685 0.307493 0.896745 0
M  V30 3551 H 322.391 0.564956 3.47133 0
M  V30 3552 H 322.265 -1.18176 3.5821 0
M  V30 3553 H 324.652 -1.37752 2.60976 0
M  V30 3554 H 324.733 0.388167 2.52838 0
M  V30 3555 H 324.377 0.498638 5.05446 0
M  V30 3556 H 324.307 -1.2807 5.10789 0
M  V30 3557 H 326.798 -0.522338 3.74273 0
M  V30 3558 H 327.111 -0.44539 7.71515 0
M  V30 3559 H 325.456 -0.40749 6.93804 0
M  V30 3560 H 328.647 -0.563464 4.64696 0
M  V30 3561 H 328.82 -0.528603 6.4584 0
M  V30 3562 N 322.226 -1.5378 -0.344866 0
M  V30 3563 C 323.454 -1.74899 -1.10534 0
M  V30 3564 C 323.869 -0.487534 -1.82397 0
M  V30 3565 O 323.226 0.540741 -1.74305 0
M  V30 3566 C 323.277 -2.92822 -2.11984 0
M  V30 3567 O 322.998 -4.14089 -1.43044 0
M  V30 3568 C 324.499 -3.25982 -3.00417 0
M  V30 3569 H 321.719 -0.584426 -0.329678 0
M  V30 3570 H 324.263 -2.006 -0.397474 0
M  V30 3571 H 322.418 -2.69457 -2.78338 0
M  V30 3572 H 322.832 -4.80272 -2.10805 0
M  V30 3573 H 324.306 -4.11848 -3.67539 0
M  V30 3574 H 324.783 -2.42228 -3.66363 0
M  V30 3575 H 325.389 -3.51349 -2.39654 0
M  V30 3576 N 323.704 0.605807 -1.45491 0
M  V30 3577 C 325.12 0.926751 -1.29936 0
M  V30 3578 C 325.32 1.99896 -0.253706 0
M  V30 3579 O 324.376 2.50038 0.351737 0
M  V30 3580 C 325.689 1.36599 -2.67883 0
M  V30 3581 C 327.237 1.4801 -2.75793 0
M  V30 3582 C 327.712 1.95309 -4.14268 0
M  V30 3583 N 329.203 2.0254 -4.16571 0
M  V30 3584 C 329.938 2.40363 -5.20589 0
M  V30 3585 N 329.434 2.77143 -6.34952 0
M  V30 3586 N 331.227 2.40718 -5.07948 0
M  V30 3587 H 323.378 -0.102862 -2.12151 0
M  V30 3588 H 325.641 0.016639 -0.947854 0
M  V30 3589 H 325.347 0.652306 -3.45598 0
M  V30 3590 H 325.221 2.33215 -2.96463 0
M  V30 3591 H 327.608 2.1847 -1.98381 0
M  V30 3592 H 327.689 0.497041 -2.50925 0
M  V30 3593 H 327.333 1.25436 -4.92167 0
M  V30 3594 H 327.263 2.94532 -4.3653 0
M  V30 3595 H 329.754 1.76699 -3.34045 0
M  V30 3596 H 330.067 3.0489 -7.10114 0
M  V30 3597 H 328.412 2.74834 -6.3835 0
M  V30 3598 H 331.603 2.11392 -4.1765 0
M  V30 3599 H 331.776 2.69869 -5.89131 0
M  V30 3600 N 325.182 1.32811 0.848464 0
M  V30 3601 C 326.41 1.26739 1.63538 0
M  V30 3602 C 326.825 -0.163484 1.88091 0
M  V30 3603 O 326.182 -1.10258 1.45429 0
M  V30 3604 C 326.233 2.03013 2.99112 0
M  V30 3605 O 325.954 3.40518 2.75643 0
M  V30 3606 C 327.455 2.04038 3.93552 0
M  V30 3607 H 324.675 0.437024 0.509167 0
M  V30 3608 H 327.219 1.75033 1.05753 0
M  V30 3609 H 325.374 1.58426 3.53525 0
M  V30 3610 H 325.788 3.79635 3.61908 0
M  V30 3611 H 327.262 2.61877 4.85926 0
M  V30 3612 H 327.739 1.0282 4.26995 0
M  V30 3613 H 328.345 2.486 3.45077 0
M  V30 3614 N 326.66 -1.06551 1.16123 0
M  V30 3615 C 327.908 -1.78947 0.939267 0
M  V30 3616 C 328.229 -1.87532 -0.534476 0
M  V30 3617 O 327.499 -1.38211 -1.38833 0
M  V30 3618 H 326.079 -0.662807 0.344523 0
M  V30 3619 H 328.741 -1.28725 1.46342 0
M  V30 3620 H 327.837 -2.81117 1.35572 0
M  V30 3621 N 328.138 -0.959301 -1.25041 0
M  V30 3622 C 329.368 -0.63303 -1.96663 0
M  V30 3623 C 329.776 0.800031 -1.71453 0
M  V30 3624 O 329.119 1.54736 -0.99008 0
M  V30 3625 C 329.181 -0.817523 -3.50081 0
M  V30 3626 C 328.845 -2.22863 -3.98975 0
M  V30 3627 C 329.842 -3.20569 -4.09306 0
M  V30 3628 C 327.527 -2.55407 -4.32519 0
M  V30 3629 C 329.521 -4.4891 -4.52503 0
M  V30 3630 C 327.208 -3.83976 -4.754 0
M  V30 3631 C 328.206 -4.8054 -4.85356 0
M  V30 3632 O 327.894 -6.06817 -5.27284 0
M  V30 3633 H 327.626 -0.235866 -0.633516 0
M  V30 3634 H 330.18 -1.2874 -1.60047 0
M  V30 3635 H 328.41 -0.105992 -3.86555 0
M  V30 3636 H 330.099 -0.491604 -4.02912 0
M  V30 3637 H 330.865 -2.96753 -3.83618 0
M  V30 3638 H 326.744 -1.8097 -4.23994 0
M  V30 3639 H 330.288 -5.24283 -4.60188 0
M  V30 3640 H 326.185 -4.07596 -5.00535 0
M  V30 3641 H 326.953 -6.10262 -5.45457 0
M  V30 3642 N 329.616 1.39756 -0.72842 0
M  V30 3643 C 330.546 2.33289 -0.0991354 0
M  V30 3644 C 331.527 1.53568 0.731489 0
M  V30 3645 O 332.712 1.81987 0.677807 0
M  V30 3646 C 329.842 3.3763 0.813834 0
M  V30 3647 C 328.796 4.2791 0.0878663 0
M  V30 3648 C 328.122 5.22894 1.11741 0
M  V30 3649 C 329.422 5.11314 -1.06563 0
M  V30 3650 H 331.116 2.86163 -0.880408 0
M  V30 3651 H 328.662 1.37591 -0.424819 0
M  V30 3652 H 330.615 4.0201 1.26355 0
M  V30 3653 H 329.339 2.83181 1.62715 0
M  V30 3654 H 327.998 3.65 -0.342159 0
M  V30 3655 H 327.646 4.64744 1.92412 0
M  V30 3656 H 327.346 5.84143 0.636477 0
M  V30 3657 H 328.87 5.90151 1.56697 0
M  V30 3658 H 330.284 5.69076 -0.694671 0
M  V30 3659 H 328.681 5.81671 -1.47577 0
M  V30 3660 H 329.751 4.46534 -1.89038 0
M  V30 3661 N 331.094 0.475555 1.50254 0
M  V30 3662 C 332.004 -0.321501 2.32387 0
M  V30 3663 C 333.02 -0.991755 1.42969 0
M  V30 3664 O 334.196 -0.978747 1.76018 0
M  V30 3665 C 331.261 -1.38667 3.17762 0
M  V30 3666 C 330.322 -0.732538 4.23004 0
M  V30 3667 C 329.555 -1.74695 5.04299 0
M  V30 3668 O 329.778 -2.97399 4.86734 0
M  V30 3669 O 328.712 -1.31631 5.8733 0
M  V30 3670 H 332.538 0.350071 3.01676 0
M  V30 3671 H 330.123 0.237321 1.47503 0
M  V30 3672 H 332.005 -2.00354 3.70724 0
M  V30 3673 H 330.68 -2.04163 2.51196 0
M  V30 3674 H 329.587 -0.0765902 3.74022 0
M  V30 3675 H 330.92 -0.120452 4.92053 0
M  V30 3676 N 332.573 -1.56217 0.208337 0
M  V30 3677 C 333.505 -2.1695 -0.739276 0
M  V30 3678 C 334.518 -1.13492 -1.1672 0
M  V30 3679 O 335.707 -1.40529 -1.10063 0
M  V30 3680 C 332.807 -2.72755 -2.01142 0
M  V30 3681 C 331.98 -4.0125 -1.74118 0
M  V30 3682 C 331.039 -4.41749 -2.85909 0
M  V30 3683 O 330.065 -5.08912 -2.54946 0
M  V30 3684 N 331.267 -4.06342 -4.14568 0
M  V30 3685 H 334.032 -2.98893 -0.219837 0
M  V30 3686 H 331.593 -1.61878 0.0268445 0
M  V30 3687 H 333.585 -2.96826 -2.75094 0
M  V30 3688 H 332.155 -1.95191 -2.4417 0
M  V30 3689 H 331.375 -3.85173 -0.838775 0
M  V30 3690 H 332.663 -4.851 -1.53477 0
M  V30 3691 H 332.061 -3.52345 -4.42571 0
M  V30 3692 H 330.618 -4.35335 -4.85105 0
M  V30 3693 N 334.051 0.0651679 -1.57465 0
M  V30 3694 C 335.299 0.761555 -1.87202 0
M  V30 3695 C 335.62 1.77778 -0.801243 0
M  V30 3696 O 334.89 1.95166 0.16937 0
M  V30 3697 H 333.47 0.284251 -0.690804 0
M  V30 3698 H 336.132 0.0396827 -1.9486 0
M  V30 3699 H 335.228 1.27365 -2.84929 0
M  V30 3700 N 335.529 1.53961 0.336706 0
M  V30 3701 C 336.459 1.85417 1.41925 0
M  V30 3702 C 337.44 0.709856 1.5458 0
M  V30 3703 O 338.625 0.962396 1.68676 0
M  V30 3704 C 335.755 2.06985 2.78881 0
M  V30 3705 C 334.709 3.22813 2.81026 0
M  V30 3706 C 334.035 3.29727 4.20932 0
M  V30 3707 C 335.335 4.60767 2.45949 0
M  V30 3708 H 337.029 2.76079 1.15848 0
M  V30 3709 H 334.575 1.32839 0.555859 0
M  V30 3710 H 336.528 2.27575 3.54665 0
M  V30 3711 H 335.252 1.13061 3.06406 0
M  V30 3712 H 333.911 3.0209 2.07695 0
M  V30 3713 H 333.559 2.33385 4.45579 0
M  V30 3714 H 333.259 4.07566 4.23277 0
M  V30 3715 H 334.783 3.52536 4.98549 0
M  V30 3716 H 336.197 4.81325 3.11446 0
M  V30 3717 H 334.594 5.4106 2.59566 0
M  V30 3718 H 335.664 4.6391 1.41122 0
M  V30 3719 N 337.007 -0.598083 1.45811 0
M  V30 3720 C 337.937 -1.71873 1.58057 0
M  V30 3721 C 338.918 -1.64533 0.431615 0
M  V30 3722 O 340.103 -1.82787 0.65595 0
M  V30 3723 C 337.233 -3.10495 1.55597 0
M  V30 3724 C 336.187 -3.32654 2.69305 0
M  V30 3725 C 335.513 -4.71646 2.51902 0
M  V30 3726 C 336.813 -3.21981 4.11248 0
M  V30 3727 H 338.507 -1.61881 2.51863 0
M  V30 3728 H 336.053 -0.777372 1.21214 0
M  V30 3729 H 338.006 -3.88699 1.6276 0
M  V30 3730 H 336.73 -3.2135 0.583255 0
M  V30 3731 H 335.389 -2.56843 2.61586 0
M  V30 3732 H 335.037 -4.79246 1.52748 0
M  V30 3733 H 334.737 -4.87426 3.2816 0
M  V30 3734 H 336.261 -5.52038 2.60933 0
M  V30 3735 H 337.675 -3.90049 4.20161 0
M  V30 3736 H 336.072 -3.49289 4.87972 0
M  V30 3737 H 337.142 -2.1928 4.32486 0
M  V30 3738 N 338.485 -1.33259 -0.841409 0
M  V30 3739 C 339.731 -1.24757 -1.59886 0
M  V30 3740 C 340.064 0.186913 -1.93298 0
M  V30 3741 O 339.339 1.12757 -1.5848 0
M  V30 3742 C 339.622 -2.12036 -2.91055 0
M  V30 3743 C 339.475 -3.63929 -2.6434 0
M  V30 3744 C 340.794 -1.9916 -3.92458 0
M  V30 3745 H 337.913 -0.454542 -0.580138 0
M  V30 3746 H 340.555 -1.63335 -0.970647 0
M  V30 3747 H 338.705 -1.79265 -3.44669 0
M  V30 3748 H 340.377 -4.06978 -2.17178 0
M  V30 3749 H 338.62 -3.85935 -1.98082 0
M  V30 3750 H 339.291 -4.20341 -3.57796 0
M  V30 3751 H 341.767 -2.27895 -3.48143 0
M  V30 3752 H 340.643 -2.62484 -4.82072 0
M  V30 3753 H 340.904 -0.963082 -4.31482 0
M  V30 3754 N 339.963 1.05934 -1.16686 0
M  V30 3755 C 340.91 2.13499 -0.876748 0
M  V30 3756 C 341.88 1.65162 0.176299 0
M  V30 3757 O 343.065 1.90757 0.0407143 0
M  V30 3758 C 340.205 3.42912 -0.387967 0
M  V30 3759 C 339.318 4.04964 -1.50426 0
M  V30 3760 C 338.453 5.22266 -0.970125 0
M  V30 3761 C 337.492 5.76309 -2.06238 0
M  V30 3762 N 336.629 6.84922 -1.54356 0
M  V30 3763 H 341.469 2.37654 -1.7979 0
M  V30 3764 H 339.006 1.16598 -0.896843 0
M  V30 3765 H 340.964 4.17111 -0.086186 0
M  V30 3766 H 339.594 3.18963 0.496235 0
M  V30 3767 H 338.646 3.28277 -1.92193 0
M  V30 3768 H 339.958 4.41122 -2.32836 0
M  V30 3769 H 339.112 6.03506 -0.621743 0
M  V30 3770 H 337.851 4.87564 -0.115377 0
M  V30 3771 H 336.856 4.93704 -2.41942 0
M  V30 3772 H 338.081 6.13062 -2.92115 0
M  V30 3773 H 336.027 6.52131 -0.711406 0
M  V30 3774 H 335.944 7.20043 -2.30379 0
M  V30 3775 H 337.212 7.69832 -1.22387 0
M  V30 3776 N 341.441 0.965919 1.2453 0
M  V30 3777 C 342.351 0.502154 2.29163 0
M  V30 3778 C 343.367 -0.436017 1.68448 0
M  V30 3779 O 344.543 -0.309497 1.99008 0
M  V30 3780 C 341.608 -0.201956 3.46111 0
M  V30 3781 C 340.669 0.775821 4.22232 0
M  V30 3782 C 339.902 0.105217 5.33596 0
M  V30 3783 O 340.125 -1.10683 5.59558 0
M  V30 3784 O 339.059 0.796475 5.96607 0
M  V30 3785 H 342.885 1.37194 2.70946 0
M  V30 3786 H 340.47 0.732875 1.30189 0
M  V30 3787 H 342.352 -0.597564 4.17142 0
M  V30 3788 H 341.027 -1.04673 3.06309 0
M  V30 3789 H 339.934 1.22185 3.53584 0
M  V30 3790 H 341.267 1.58896 4.65846 0
M  V30 3791 N 342.919 -1.39368 0.735821 0
M  V30 3792 C 343.829 -2.34395 0.0979693 0
M  V30 3793 C 344.845 -1.58361 -0.720968 0
M  V30 3794 O 346.021 -1.90648 -0.649245 0
M  V30 3795 C 343.086 -3.37393 -0.797916 0
M  V30 3796 C 342.147 -4.29287 0.0333662 0
M  V30 3797 C 341.38 -5.27365 -0.819854 0
M  V30 3798 O 341.603 -5.31959 -2.05855 0
M  V30 3799 O 340.537 -6.01389 -0.248079 0
M  V30 3800 H 344.363 -2.90601 0.882315 0
M  V30 3801 H 341.948 -1.40909 0.4965 0
M  V30 3802 H 343.83 -4.00505 -1.31048 0
M  V30 3803 H 342.505 -2.83571 -1.56106 0
M  V30 3804 H 341.412 -3.69395 0.591475 0
M  V30 3805 H 342.745 -4.86317 0.758752 0
M  V30 3806 N 344.397 -0.483516 -1.5 0
M  V30 3807 C 345.327 0.293829 -2.31644 0
M  V30 3808 C 346.308 0.978864 -1.39112 0
M  V30 3809 O 347.493 0.973644 -1.68029 0
M  V30 3810 C 344.623 1.36897 -3.19181 0
M  V30 3811 C 343.577 0.804833 -4.20365 0
M  V30 3812 C 342.903 1.9792 -4.96721 0
M  V30 3813 C 344.203 -0.192313 -5.21946 0
M  V30 3814 H 345.897 -0.387616 -2.9688 0
M  V30 3815 H 343.443 -0.187856 -1.42769 0
M  V30 3816 H 345.396 1.92037 -3.751 0
M  V30 3817 H 344.12 2.07936 -2.51853 0
M  V30 3818 H 342.779 0.275319 -3.65565 0
M  V30 3819 H 342.427 2.67686 -4.25856 0
M  V30 3820 H 342.127 1.60789 -5.65173 0
M  V30 3821 H 343.651 2.53526 -5.55479 0
M  V30 3822 H 345.065 0.270333 -5.72662 0
M  V30 3823 H 343.462 -0.478543 -5.98189 0
M  V30 3824 H 344.532 -1.11409 -4.71928 0
M  V30 3825 N 345.875 1.56104 -0.216619 0
M  V30 3826 C 346.822 2.2007 0.695531 0
M  V30 3827 C 347.792 1.15471 1.19397 0
M  V30 3828 O 348.977 1.43807 1.25396 0
M  V30 3829 C 346.117 2.88073 1.90021 0
M  V30 3830 C 345.23 4.07253 1.44113 0
M  V30 3831 C 344.365 4.63052 2.603 0
M  V30 3832 C 343.404 5.74545 2.11103 0
M  V30 3833 N 342.541 6.24656 3.20545 0
M  V30 3834 H 347.381 2.97655 0.143327 0
M  V30 3835 H 344.918 1.46982 0.0589934 0
M  V30 3836 H 346.876 3.25681 2.60745 0
M  V30 3837 H 345.506 2.13015 2.42538 0
M  V30 3838 H 344.558 3.75164 0.628999 0
M  V30 3839 H 345.87 4.8783 1.04036 0
M  V30 3840 H 345.024 5.03078 3.39113 0
M  V30 3841 H 343.763 3.81628 3.03663 0
M  V30 3842 H 342.768 5.34027 1.3075 0
M  V30 3843 H 343.993 6.57801 1.68746 0
M  V30 3844 H 341.939 5.46148 3.63399 0
M  V30 3845 H 341.856 7.00343 2.84704 0
M  V30 3846 H 343.124 6.69338 3.99508 0
M  V30 3847 N 347.353 -0.0568162 1.57498 0
M  V30 3848 C 348.283 -1.06593 2.0775 0
M  V30 3849 C 349.264 -1.39448 0.974082 0
M  V30 3850 O 350.449 -1.48815 1.24771 0
M  V30 3851 C 347.579 -2.37509 2.5339 0
M  V30 3852 C 346.533 -2.1897 3.67745 0
M  V30 3853 C 345.859 -3.55402 3.99492 0
M  V30 3854 C 347.159 -1.59859 4.97235 0
M  V30 3855 H 348.853 -0.647706 2.9231 0
M  V30 3856 H 346.399 -0.310116 1.40621 0
M  V30 3857 H 348.352 -3.08409 2.87162 0
M  V30 3858 H 347.076 -2.8134 1.65878 0
M  V30 3859 H 345.735 -1.50508 3.3428 0
M  V30 3860 H 345.383 -3.9683 3.09088 0
M  V30 3861 H 345.083 -3.43831 4.76502 0
M  V30 3862 H 346.607 -4.27708 4.35773 0
M  V30 3863 H 348.021 -2.20642 5.29141 0
M  V30 3864 H 346.418 -1.58942 5.78669 0
M  V30 3865 H 347.488 -0.561506 4.81638 0
M  V30 3866 N 348.832 -1.54138 -0.328536 0
M  V30 3867 C 350.081 -1.71318 -1.06456 0
M  V30 3868 C 350.394 -0.491109 -1.89334 0
M  V30 3869 O 351.6 -0.54416 -2.65991 0
M  V30 3870 C 350.056 -3.03 -1.94214 0
M  V30 3871 C 349.664 -4.32595 -1.16471 0
M  V30 3872 C 351.408 -3.29544 -2.67583 0
M  V30 3873 C 349.315 -5.55341 -2.03347 0
M  V30 3874 H 348.245 -0.638429 -0.401155 0
M  V30 3875 H 350.896 -1.80633 -0.323106 0
M  V30 3876 H 349.278 -2.87579 -2.72239 0
M  V30 3877 H 350.452 -4.58766 -0.432525 0
M  V30 3878 H 348.767 -4.12777 -0.548063 0
M  V30 3879 H 351.364 -4.18444 -3.3288 0
M  V30 3880 H 351.707 -2.47206 -3.34955 0
M  V30 3881 H 352.24 -3.45809 -1.96623 0
M  V30 3882 H 348.979 -6.40268 -1.40491 0
M  V30 3883 H 348.499 -5.33397 -2.74313 0
M  V30 3884 H 350.178 -5.91557 -2.62049 0
M  V30 3885 N 350.31 0.590341 -1.46126 0
M  V30 3886 C 351.258 1.72105 -1.5647 0
M  V30 3887 C 352.252 1.63756 -0.433612 0
M  V30 3888 O 353.458 1.69342 -0.610194 0
M  V30 3889 H 349.833 0.568889 -0.491802 0
M  V30 3890 H 351.804 1.6051 -2.51553 0
M  V30 3891 C 350.553 3.10493 -1.56491 0
M  V30 3892 H 349.876 3.17583 -2.4286 0
M  V30 3893 H 351.316 3.8939 -1.67785 0
M  V30 3894 C 349.775 3.3563 -0.292231 0
M  V30 3895 O 350.305 3.96875 0.620739 0
M  V30 3896 N 348.511 2.90026 -0.182523 0
M  V30 3897 H 348.058 2.40367 -0.926356 0
M  V30 3898 H 348.016 3.07218 0.668152 0
M  V30 3899 N 351.788 1.33704 0.83433 0
M  V30 3900 C 352.735 1.24335 1.94447 0
M  V30 3901 C 353.705 0.120991 1.65659 0
M  V30 3902 O 354.89 0.300035 1.88426 0
M  V30 3903 C 352.03 0.993124 3.30501 0
M  V30 3904 C 351.143 2.20217 3.71657 0
M  V30 3905 C 350.278 1.88572 4.96602 0
M  V30 3906 C 349.317 3.05683 5.30306 0
M  V30 3907 N 348.454 2.73997 6.46429 0
M  V30 3908 H 353.294 2.1928 2.01792 0
M  V30 3909 H 350.831 1.09035 0.987404 0
M  V30 3910 H 352.789 0.828467 4.08892 0
M  V30 3911 H 351.419 0.0803902 3.227 0
M  V30 3912 H 350.471 2.47642 2.88752 0
M  V30 3913 H 351.783 3.07752 3.92543 0
M  V30 3914 H 350.937 1.68776 5.82752 0
M  V30 3915 H 349.676 0.982799 4.77695 0
M  V30 3916 H 348.681 3.26088 4.42659 0
M  V30 3917 H 349.906 3.96737 5.51159 0
M  V30 3918 H 347.852 1.86268 6.28999 0
M  V30 3919 H 347.769 3.55064 6.67432 0
M  V30 3920 H 349.037 2.57679 7.35678 0
M  V30 3921 N 353.266 -1.05314 1.17247 0
M  V30 3922 C 354.496 -1.81707 0.983166 0
M  V30 3923 C 354.904 -1.83222 -0.471822 0
M  V30 3924 O 354.247 -1.25721 -1.3394 0
M  V30 3925 C 354.309 -3.29134 1.44606 0
M  V30 3926 C 353.973 -3.51304 2.92292 0
M  V30 3927 C 354.97 -3.4353 3.90235 0
M  V30 3928 C 352.655 -3.78306 3.30439 0
M  V30 3929 C 354.649 -3.62442 5.24323 0
M  V30 3930 C 352.336 -3.96866 4.64694 0
M  V30 3931 C 353.334 -3.88933 5.61445 0
M  V30 3932 O 353.022 -4.06976 6.93272 0
M  V30 3933 H 352.754 -0.579476 0.348114 0
M  V30 3934 H 355.308 -1.33705 1.55924 0
M  V30 3935 H 353.538 -3.78046 0.813537 0
M  V30 3936 H 355.227 -3.87049 1.22262 0
M  V30 3937 H 355.993 -3.22648 3.62109 0
M  V30 3938 H 351.872 -3.83585 2.55702 0
M  V30 3939 H 355.416 -3.56165 5.99827 0
M  V30 3940 H 351.313 -4.1724 4.92525 0
M  V30 3941 H 352.081 -4.24209 6.99992 0
M  V30 3942 N 354.744 -0.972509 -1.24016 0
M  V30 3943 C 355.691 -0.505969 -2.25186 0
M  V30 3944 C 356.661 0.451009 -1.5986 0
M  V30 3945 O 357.846 0.360307 -1.87367 0
M  V30 3946 C 354.986 0.193089 -3.44559 0
M  V30 3947 C 354.099 -0.803222 -4.24467 0
M  V30 3948 C 353.234 -0.0797793 -5.3114 0
M  V30 3949 C 352.273 -1.06583 -6.02749 0
M  V30 3950 N 351.41 -0.372074 -7.01113 0
M  V30 3951 H 356.25 -1.37351 -2.64459 0
M  V30 3952 H 353.787 -0.688419 -1.29997 0
M  V30 3953 H 355.745 0.615125 -4.1264 0
M  V30 3954 H 354.375 1.02455 -3.06109 0
M  V30 3955 H 353.427 -1.34368 -3.55878 0
M  V30 3956 H 354.739 -1.55494 -4.73944 0
M  V30 3957 H 353.893 0.400015 -6.0538 0
M  V30 3958 H 352.632 0.704597 -4.82583 0
M  V30 3959 H 351.637 -1.55645 -5.27309 0
M  V30 3960 H 352.862 -1.85074 -6.53395 0
M  V30 3961 H 350.808 0.393238 -6.5482 0
M  V30 3962 H 350.725 -1.06258 -7.48495 0
M  V30 3963 H 351.993 0.0855932 -7.79453 0
M  V30 3964 N 356.222 1.38976 -0.743202 0
M  V30 3965 C 357.447 2.05161 -0.303936 0
M  V30 3966 C 357.872 1.55677 1.05576 0
M  V30 3967 O 357.23 0.704131 1.67068 0
M  V30 3968 C 357.278 3.59138 -0.324373 0
M  V30 3969 O 356.382 4.06668 0.685204 0
M  V30 3970 H 355.723 0.649815 -0.136518 0
M  V30 3971 H 358.253 1.77852 -1.01142 0
M  V30 3972 H 358.263 4.07639 -0.171618 0
M  V30 3973 H 356.938 3.94515 -1.31647 0
M  V30 3974 H 355.515 3.69561 0.497913 0
M  V30 3975 N 357.7 0.491464 1.49741 0
M  V30 3976 C 358.648 -0.305837 2.30581 0
M  V30 3977 C 359.642 -0.971642 1.38764 0
M  V30 3978 O 360.848 -0.90042 1.5586 0
M  V30 3979 H 357.223 -0.117482 0.742767 0
M  V30 3980 H 359.194 0.396093 2.95759 0
M  V30 3981 C 357.943 -1.36319 3.19863 0
M  V30 3982 H 357.266 -0.860258 3.90435 0
M  V30 3983 H 358.706 -1.89323 3.79385 0
M  V30 3984 C 357.165 -2.37621 2.38826 0
M  V30 3985 O 357.695 -3.43311 2.08567 0
M  V30 3986 N 355.901 -2.09849 2.01026 0
M  V30 3987 H 355.448 -1.23922 2.25834 0
M  V30 3988 H 355.406 -2.77859 1.47112 0
M  V30 3989 N 359.178 -1.55987 0.224894 0
M  V30 3990 C 360.108 -2.23426 -0.678457 0
M  V30 3991 C 361.089 -1.20709 -1.19847 0
M  V30 3992 O 362.274 -1.49304 -1.24186 0
M  V30 3993 C 359.404 -2.91676 -1.88527 0
M  V30 3994 C 358.358 -4.00893 -1.49896 0
M  V30 3995 C 357.684 -4.56455 -2.78483 0
M  V30 3996 C 358.984 -5.17769 -0.686461 0
M  V30 3997 H 360.678 -2.99175 -0.116173 0
M  V30 3998 H 358.224 -1.43897 -0.054436 0
M  V30 3999 H 360.177 -3.37547 -2.5227 0
M  V30 4000 H 358.901 -2.1338 -2.47258 0
M  V30 4001 H 357.56 -3.55758 -0.884985 0
M  V30 4002 H 357.208 -3.74886 -3.35365 0
M  V30 4003 H 356.908 -5.30169 -2.53368 0
M  V30 4004 H 358.432 -5.05047 -3.43162 0
M  V30 4005 H 359.846 -5.60001 -1.22767 0
M  V30 4006 H 358.243 -5.97735 -0.532259 0
M  V30 4007 H 359.313 -4.83932 0.306196 0
M  V30 4008 N 360.656 0.0484629 -1.57525 0
M  V30 4009 C 361.588 1.08222 -2.02041 0
M  V30 4010 C 362.601 1.33621 -0.930012 0
M  V30 4011 O 363.79 1.3145 -1.20761 0
M  V30 4012 C 360.89 2.42818 -2.36416 0
M  V30 4013 C 360.063 2.37049 -3.67596 0
M  V30 4014 C 359.122 3.53937 -3.89378 0
M  V30 4015 O 358.148 3.34308 -4.60681 0
M  V30 4016 N 359.35 4.75126 -3.3352 0
M  V30 4017 H 362.115 0.702946 -2.9134 0
M  V30 4018 H 359.676 0.236745 -1.6016 0
M  V30 4019 H 361.668 3.197 -2.48141 0
M  V30 4020 H 360.238 2.72661 -1.52888 0
M  V30 4021 H 359.458 1.45395 -3.66407 0
M  V30 4022 H 360.746 2.30318 -4.53686 0
M  V30 4023 H 360.144 4.93976 -2.75688 0
M  V30 4024 H 358.701 5.49439 -3.50656 0
M  V30 4025 N 362.134 1.5431 0.320358 0
M  V30 4026 C 363.381 1.72668 1.05792 0
M  V30 4027 C 363.709 0.502084 1.87908 0
M  V30 4028 O 362.964 -0.516149 1.88771 0
M  V30 4029 C 363.263 2.95639 2.00828 0
M  V30 4030 C 362.929 4.30265 1.34843 0
M  V30 4031 C 361.591 4.66865 1.16578 0
M  V30 4032 C 363.943 5.13801 0.875095 0
M  V30 4033 C 361.271 5.84597 0.496336 0
M  V30 4034 C 363.623 6.32219 0.219463 0
M  V30 4035 C 362.287 6.67495 0.0246915 0
M  V30 4036 H 361.557 0.631837 0.387121 0
M  V30 4037 H 364.204 1.88552 0.334735 0
M  V30 4038 H 362.509 2.74456 2.79609 0
M  V30 4039 H 364.206 3.07038 2.57932 0
M  V30 4040 H 360.796 4.01472 1.50061 0
M  V30 4041 H 364.98 4.86039 1.00398 0
M  V30 4042 H 360.236 6.10486 0.334264 0
M  V30 4043 H 364.41 6.96227 -0.155291 0
M  V30 4044 H 362.037 7.5858 -0.496065 0
M  V30 4045 N 363.613 -0.582584 1.46437 0
M  V30 4046 C 364.56 -1.69164 1.5701 0
M  V30 4047 C 365.53 -1.60847 0.414403 0
M  V30 4048 O 366.715 -1.80058 0.631171 0
M  V30 4049 C 363.855 -3.075 1.56646 0
M  V30 4050 C 362.968 -3.2644 2.82951 0
M  V30 4051 C 362.103 -4.55026 2.7409 0
M  V30 4052 C 361.142 -4.6731 3.95333 0
M  V30 4053 N 360.279 -5.87221 3.84858 0
M  V30 4054 H 365.119 -1.59464 2.51744 0
M  V30 4055 H 362.656 -0.777186 1.24893 0
M  V30 4056 H 364.614 -3.8757 1.5442 0
M  V30 4057 H 363.244 -3.16096 0.654439 0
M  V30 4058 H 362.296 -2.39974 2.95155 0
M  V30 4059 H 363.608 -3.31385 3.72808 0
M  V30 4060 H 362.762 -5.43324 2.6997 0
M  V30 4061 H 361.501 -4.52519 1.81873 0
M  V30 4062 H 360.506 -3.77429 3.99784 0
M  V30 4063 H 361.731 -4.71595 4.88646 0
M  V30 4064 H 359.677 -5.85712 2.95427 0
M  V30 4065 H 359.594 -5.93435 4.6837 0
M  V30 4066 H 360.862 -6.7795 3.84713 0
M  V30 4067 N 365.091 -1.34144 -0.827227 0
M  V30 4068 C 366.021 -1.28005 -1.95287 0
M  V30 4069 C 367.002 -0.158321 -1.69362 0
M  V30 4070 O 368.187 -0.349987 -1.9102 0
M  V30 4071 C 365.317 -1.03036 -3.31664 0
M  V30 4072 C 364.271 -2.11628 -3.72019 0
M  V30 4073 C 363.597 -1.71854 -5.0633 0
M  V30 4074 C 364.897 -3.53417 -3.8457 0
M  V30 4075 H 366.591 -2.22187 -2.00682 0
M  V30 4076 H 364.137 -1.0696 -0.964135 0
M  V30 4077 H 366.09 -0.973863 -4.09993 0
M  V30 4078 H 364.814 -0.0529391 -3.26557 0
M  V30 4079 H 363.473 -2.16339 -2.95961 0
M  V30 4080 H 363.121 -0.727841 -4.97706 0
M  V30 4081 H 362.821 -2.44531 -5.34302 0
M  V30 4082 H 364.345 -1.67692 -5.87122 0
M  V30 4083 H 365.759 -3.51142 -4.5318 0
M  V30 4084 H 364.156 -4.24679 -4.2399 0
M  V30 4085 H 365.226 -3.91072 -2.86689 0
M  V30 4086 N 366.569 1.04691 -1.17803 0
M  V30 4087 C 367.846 1.7472 -0.879328 0
M  V30 4088 C 368.226 2.01812 0.619271 0
M  V30 4089 O 367.574 1.65824 1.57209 0
M  V30 4090 C 367.784 3.03686 -1.71976 0
M  V30 4091 C 369.132 3.77542 -1.94286 0
M  V30 4092 O 370.156 3.13569 -1.68976 0
M  V30 4093 O 369.015 4.92506 -2.36855 0
M  V30 4094 H 366.109 0.760011 -0.326056 0
M  V30 4095 H 368.655 1.10813 -1.28525 0
M  V30 4096 H 367.427 2.79754 -2.73594 0
M  V30 4097 H 367.05 3.75332 -1.31194 0
M  V30 4098 N 368.047 0.979072 1.23499 0
M  V30 4099 C 369.293 0.648178 1.92163 0
M  V30 4100 C 369.626 -0.816049 1.76222 0
M  V30 4101 O 368.901 -1.58849 1.12237 0
M  V30 4102 C 369.184 1.03773 3.44824 0
M  V30 4103 C 369.037 2.55948 3.69879 0
M  V30 4104 C 370.356 0.580653 4.36253 0
M  V30 4105 H 367.475 0.236952 0.69787 0
M  V30 4106 H 370.117 1.22012 1.45647 0
M  V30 4107 H 368.267 0.551058 3.84572 0
M  V30 4108 H 369.939 3.12179 3.3962 0
M  V30 4109 H 368.182 2.98641 3.14636 0
M  V30 4110 H 368.853 2.78255 4.76737 0
M  V30 4111 H 371.329 0.998465 4.03943 0
M  V30 4112 H 370.205 0.881663 5.41773 0
M  V30 4113 H 370.466 -0.519052 4.39042 0
M  V30 4114 N 369.525 -1.3858 0.750561 0
M  V30 4115 C 370.455 -2.33102 0.136237 0
M  V30 4116 C 371.436 -1.54713 -0.706965 0
M  V30 4117 O 372.621 -1.83043 -0.648769 0
M  V30 4118 C 369.751 -3.38882 -0.760017 0
M  V30 4119 C 368.705 -4.27995 -0.0197785 0
M  V30 4120 C 368.031 -5.24605 -1.03408 0
M  V30 4121 C 369.331 -5.09554 1.14684 0
M  V30 4122 H 371.025 -2.84726 0.925822 0
M  V30 4123 H 368.571 -1.36898 0.446654 0
M  V30 4124 H 370.524 -4.0397 -1.19943 0
M  V30 4125 H 369.248 -2.85734 -1.58189 0
M  V30 4126 H 367.907 -3.64409 0.400184 0
M  V30 4127 H 367.555 -4.67746 -1.84994 0
M  V30 4128 H 367.255 -5.85081 -0.543464 0
M  V30 4129 H 368.779 -5.9257 -1.47288 0
M  V30 4130 H 370.193 -5.67899 0.785118 0
M  V30 4131 H 368.59 -5.7925 1.56812 0
M  V30 4132 H 369.66 -4.4347 1.96118 0
M  V30 4133 N 371.003 -0.499398 -1.49478 0
M  V30 4134 C 372.228 0.044722 -2.07352 0
M  V30 4135 C 372.653 1.30207 -1.35749 0
M  V30 4136 O 372.011 1.76516 -0.413732 0
M  V30 4137 C 372.059 0.283013 -3.59488 0
M  V30 4138 O 371.163 1.35804 -3.89398 0
M  V30 4139 H 370.504 -0.0255147 -0.66351 0
M  V30 4140 H 373.034 -0.698561 -1.92305 0
M  V30 4141 H 373.044 0.515007 -4.04737 0
M  V30 4142 H 371.719 -0.635636 -4.11014 0
M  V30 4143 H 370.296 1.11113 -3.55961 0
M  V30 4144 N 372.481 1.55866 -0.233164 0
M  V30 4145 C 373.411 2.23783 0.666599 0
M  V30 4146 C 374.392 1.21343 1.19205 0
M  V30 4147 O 375.577 1.4996 1.23392 0
M  V30 4148 C 372.707 2.92671 1.86978 0
M  V30 4149 C 371.661 4.01682 1.47768 0
M  V30 4150 C 370.987 4.57926 2.76058 0
M  V30 4151 C 372.287 5.18126 0.658993 0
M  V30 4152 H 373.981 2.99232 0.100306 0
M  V30 4153 H 371.527 1.43924 0.046804 0
M  V30 4154 H 373.48 3.3888 2.50476 0
M  V30 4155 H 372.204 2.14688 2.46123 0
M  V30 4156 H 370.863 3.56222 0.866106 0
M  V30 4157 H 370.511 3.76659 3.33372 0
M  V30 4158 H 370.211 5.31505 2.50552 0
M  V30 4159 H 371.735 5.06859 3.40479 0
M  V30 4160 H 373.149 5.60644 1.19795 0
M  V30 4161 H 371.546 5.98009 0.500552 0
M  V30 4162 H 372.616 4.83763 -0.331856 0
M  V30 4163 N 373.959 -0.0401083 1.57549 0
M  V30 4164 C 375.208 -0.732108 1.87944 0
M  V30 4165 C 375.521 -1.77107 0.830206 0
M  V30 4166 O 376.727 -2.51488 1.02302 0
M  V30 4167 C 375.183 -1.35315 3.33494 0
M  V30 4168 C 374.791 -0.351105 4.46622 0
M  V30 4169 C 376.535 -2.02566 3.73051 0
M  V30 4170 C 374.442 -0.979859 5.83226 0
M  V30 4171 H 373.372 -0.277188 0.701201 0
M  V30 4172 H 376.023 0.0138501 1.83495 0
M  V30 4173 H 374.405 -2.14844 3.32653 0
M  V30 4174 H 375.579 0.416674 4.58912 0
M  V30 4175 H 373.894 0.218708 4.15825 0
M  V30 4176 H 376.491 -2.50441 4.72423 0
M  V30 4177 H 376.834 -2.83904 3.04474 0
M  V30 4178 H 377.367 -1.29827 3.76018 0
M  V30 4179 H 374.106 -0.206135 6.55176 0
M  V30 4180 H 373.626 -1.71774 5.74677 0
M  V30 4181 H 375.305 -1.49046 6.29599 0
M  V30 4182 N 375.437 -1.54477 -0.31217 0
M  V30 4183 C 376.848 -1.64344 -0.885891 0
M  V30 4184 C 377.199 -0.54485 -1.88483 0
M  V30 4185 O 376.324 0.320387 -2.14015 0
M  V30 4186 C 376.919 -2.97908 -1.61357 0
M  V30 4187 C 375.478 -3.09933 -2.13585 0
M  V30 4188 C 374.625 -2.59971 -0.964897 0
M  V30 4189 H 377.576 -1.58448 -0.0894528 0
M  V30 4190 H 377.597 -2.88706 -2.47848 0
M  V30 4191 H 377.109 -3.77845 -0.886277 0
M  V30 4192 H 375.21 -2.34694 -2.89395 0
M  V30 4193 H 375.323 -4.15916 -2.37804 0
M  V30 4194 H 373.687 -2.16147 -1.34731 0
M  V30 4195 H 374.47 -3.42376 -0.251742 0
M  V30 4196 N 376.915 0.57481 -1.46744 0
M  V30 4197 C 378.143 1.35856 -1.56047 0
M  V30 4198 C 378.558 1.87691 -0.204365 0
M  V30 4199 O 377.915 1.64049 0.79963 0
M  V30 4200 C 377.966 2.54066 -2.57163 0
M  V30 4201 O 377.687 2.04377 -3.87507 0
M  V30 4202 C 379.188 3.46514 -2.76483 0
M  V30 4203 H 376.408 0.414754 -0.527466 0
M  V30 4204 H 378.952 0.698035 -1.92218 0
M  V30 4205 H 377.107 3.16092 -2.23974 0
M  V30 4206 H 377.521 2.81419 -4.4261 0
M  V30 4207 H 378.995 4.25919 -3.51137 0
M  V30 4208 H 379.472 3.98951 -1.83671 0
M  V30 4209 H 380.078 2.90318 -3.10799 0
M  V30 4210 N 378.394 1.34581 0.820102 0
M  V30 4211 C 379.671 1.17675 1.56244 0
M  V30 4212 C 380.051 -0.249541 2.0962 0
M  V30 4213 O 379.399 -1.25125 1.91196 0
M  V30 4214 C 379.609 2.23364 2.6816 0
M  V30 4215 C 380.957 2.58485 3.36854 0
M  V30 4216 O 381.981 2.22175 2.78418 0
M  V30 4217 O 380.84 3.20868 4.42386 0
M  V30 4218 H 377.934 0.456333 0.689702 0
M  V30 4219 H 380.48 1.46222 0.861231 0
M  V30 4220 H 379.252 3.19087 2.26493 0
M  V30 4221 H 378.875 1.96009 3.45928 0
M  V30 4222 N 379.872 -1.04064 1.18357 0
M  V30 4223 C 380.802 -2.14001 0.934113 0
M  V30 4224 C 381.783 -1.69616 -0.128186 0
M  V30 4225 O 382.968 -1.94185 0.0244093 0
M  V30 4226 C 380.098 -3.44253 0.459066 0
M  V30 4227 C 379.052 -4.02261 1.46185 0
M  V30 4228 C 378.378 -5.27992 0.844322 0
M  V30 4229 C 379.678 -4.38432 2.83856 0
M  V30 4230 H 381.372 -2.35127 1.85352 0
M  V30 4231 H 378.918 -1.12998 0.892604 0
M  V30 4232 H 380.871 -4.20522 0.271907 0
M  V30 4233 H 379.595 -3.22813 -0.495912 0
M  V30 4234 H 378.254 -3.28074 1.63595 0
M  V30 4235 H 377.902 -5.02862 -0.117845 0
M  V30 4236 H 377.602 -5.67765 1.51384 0
M  V30 4237 H 379.126 -6.06938 0.667693 0
M  V30 4238 H 380.54 -5.05688 2.70098 0
M  V30 4239 H 378.937 -4.89254 3.47491 0
M  V30 4240 H 380.007 -3.4826 3.37406 0
M  V30 4241 N 381.35 -0.985608 -1.22978 0
M  V30 4242 C 382.28 -0.549649 -2.26939 0
M  V30 4243 C 383.261 0.419803 -1.64838 0
M  V30 4244 O 384.446 0.31203 -1.91677 0
M  V30 4245 C 381.576 0.143652 -3.47003 0
M  V30 4246 C 380.53 -0.743606 -4.21491 0
M  V30 4247 C 379.856 0.0822027 -5.34637 0
M  V30 4248 C 381.156 -2.03694 -4.80943 0
M  V30 4249 H 382.85 -1.41862 -2.63658 0
M  V30 4250 H 380.396 -0.683571 -1.26741 0
M  V30 4251 H 382.349 0.459985 -4.18882 0
M  V30 4252 H 381.073 1.04711 -3.09359 0
M  V30 4253 H 379.732 -1.04347 -3.51436 0
M  V30 4254 H 379.38 0.986359 -4.93234 0
M  V30 4255 H 379.08 -0.508377 -5.85397 0
M  V30 4256 H 380.604 0.392797 -6.09335 0
M  V30 4257 H 382.018 -1.78504 -5.44802 0
M  V30 4258 H 380.415 -2.57573 -5.42011 0
M  V30 4259 H 381.485 -2.72042 -4.01399 0
M  V30 4260 N 382.828 1.3818 -0.7579 0
M  V30 4261 C 384.058 2.04004 -0.326463 0
M  V30 4262 C 384.466 1.57286 1.05156 0
M  V30 4263 O 383.809 0.743144 1.67997 0
M  V30 4264 C 383.871 3.58444 -0.275402 0
M  V30 4265 C 383.535 4.28237 -1.59569 0
M  V30 4266 C 384.532 4.53312 -2.54566 0
M  V30 4267 C 382.217 4.66341 -1.86631 0
M  V30 4268 C 384.211 5.15531 -3.74842 0
M  V30 4269 C 381.898 5.28283 -3.0718 0
M  V30 4270 C 382.896 5.52814 -4.01106 0
M  V30 4271 O 382.584 6.13465 -5.19534 0
M  V30 4272 H 382.316 0.662026 -0.136739 0
M  V30 4273 H 384.87 1.7777 -1.02893 0
M  V30 4274 H 383.1 3.83667 0.483337 0
M  V30 4275 H 384.789 4.05701 0.127099 0
M  V30 4276 H 385.555 4.24299 -2.34936 0
M  V30 4277 H 381.434 4.46591 -1.14358 0
M  V30 4278 H 384.978 5.34594 -4.48168 0
M  V30 4279 H 380.875 5.56719 -3.26702 0
M  V30 4280 H 381.643 6.31951 -5.20173 0
M  V30 4281 N 384.306 0.507319 1.49211 0
M  V30 4282 C 385.553 -0.0349529 2.0247 0
M  V30 4283 C 385.881 -1.36409 1.38647 0
M  V30 4284 O 385.136 -1.88841 0.513566 0
M  V30 4285 C 385.435 -0.229513 3.56662 0
M  V30 4286 C 385.101 1.02241 4.39156 0
M  V30 4287 C 383.763 1.36557 4.61417 0
M  V30 4288 C 386.115 1.85428 4.871 0
M  V30 4289 C 383.443 2.53999 5.28868 0
M  V30 4290 C 385.795 3.02028 5.55843 0
M  V30 4291 C 384.459 3.36717 5.76349 0
M  V30 4292 H 383.729 -0.0127902 0.74089 0
M  V30 4293 H 386.376 0.668756 1.79443 0
M  V30 4294 H 384.681 -1.0158 3.78403 0
M  V30 4295 H 386.378 -0.663641 3.9547 0
M  V30 4296 H 382.968 0.745124 4.22073 0
M  V30 4297 H 387.152 1.6023 4.69723 0
M  V30 4298 H 382.408 2.81105 5.42946 0
M  V30 4299 H 386.582 3.66808 5.91967 0
M  V30 4300 H 384.209 4.27821 6.28389 0
M  V30 4301 N 385.784 -1.5574 0.241426 0
M  V30 4302 C 386.731 -2.21149 -0.660432 0
M  V30 4303 C 387.701 -1.17356 -1.17545 0
M  V30 4304 O 388.886 -1.45784 -1.23093 0
M  V30 4305 C 386.026 -2.91059 -1.85414 0
M  V30 4306 C 385.139 -4.09495 -1.37616 0
M  V30 4307 C 384.274 -4.67135 -2.529 0
M  V30 4308 C 383.313 -5.77831 -2.01936 0
M  V30 4309 N 382.45 -6.29677 -3.10566 0
M  V30 4310 H 387.29 -2.97845 -0.095955 0
M  V30 4311 H 384.827 -1.47057 -0.0356024 0
M  V30 4312 H 386.785 -3.29788 -2.5553 0
M  V30 4313 H 385.415 -2.16846 -2.39118 0
M  V30 4314 H 384.467 -3.76117 -0.569235 0
M  V30 4315 H 385.779 -4.89423 -0.962618 0
M  V30 4316 H 384.933 -5.08409 -3.31067 0
M  V30 4317 H 383.672 -3.86411 -2.97553 0
M  V30 4318 H 382.677 -5.36039 -1.22238 0
M  V30 4319 H 383.902 -6.60402 -1.58259 0
M  V30 4320 H 381.848 -5.5186 -3.54664 0
M  V30 4321 H 381.765 -7.04783 -2.73526 0
M  V30 4322 H 383.033 -6.75609 -3.88809 0
M  V30 4323 N 387.262 0.0317525 -1.57568 0
M  V30 4324 C 388.192 1.03274 -2.0942 0
M  V30 4325 C 389.173 1.3788 -0.996143 0
M  V30 4326 O 390.358 1.46811 -1.27122 0
M  V30 4327 C 387.488 2.33448 -2.57137 0
M  V30 4328 C 386.442 2.13091 -3.71182 0
M  V30 4329 C 385.768 3.49001 -4.05095 0
M  V30 4330 C 387.068 1.51928 -4.99715 0
M  V30 4331 H 388.762 0.60112 -2.93303 0
M  V30 4332 H 386.308 0.287705 -1.41097 0
M  V30 4333 H 388.261 3.03802 -2.92032 0
M  V30 4334 H 386.985 2.78665 -1.70333 0
M  V30 4335 H 385.644 1.45171 -3.36632 0
M  V30 4336 H 385.292 3.91862 -3.15362 0
M  V30 4337 H 384.992 3.36207 -4.81911 0
M  V30 4338 H 386.516 4.20721 -4.42522 0
M  V30 4339 H 387.93 2.12196 -5.32584 0
M  V30 4340 H 386.327 1.49716 -5.81124 0
M  V30 4341 H 387.397 0.484811 -4.8247 0
M  V30 4342 N 388.74 1.54641 0.303973 0
M  V30 4343 C 389.988 1.73437 1.0375 0
M  V30 4344 C 390.309 0.521449 1.87899 0
M  V30 4345 O 389.579 -0.46432 1.90318 0
M  V30 4346 H 388.159 0.639518 0.386039 0
M  V30 4347 H 390.821 1.91988 0.335675 0
M  V30 4348 H 389.917 2.62235 1.69231 0
M  V30 4349 N 390.218 -0.567019 1.47046 0
M  V30 4350 C 391.464 -1.32434 1.54379 0
M  V30 4351 C 391.819 -1.91365 0.199276 0
M  V30 4352 O 391.112 -1.74378 -0.793915 0
M  V30 4353 C 391.306 -2.4623 2.59047 0
M  V30 4354 C 391.135 -1.98448 4.03545 0
M  V30 4355 C 389.905 -1.82741 4.71098 0
M  V30 4356 C 392.103 -1.53477 4.90866 0
M  V30 4357 N 390.085 -1.29196 6.00151 0
M  V30 4358 C 391.456 -1.1163 6.09868 0
M  V30 4359 C 393.511 -1.41438 4.77388 0
M  V30 4360 C 392.214 -0.589425 7.16881 0
M  V30 4361 C 394.24 -0.901528 5.84488 0
M  V30 4362 C 393.602 -0.492932 7.02673 0
M  V30 4363 H 389.701 -0.477005 0.61967 0
M  V30 4364 H 392.285 -0.643856 1.83746 0
M  V30 4365 H 390.456 -3.11821 2.31564 0
M  V30 4366 H 392.188 -3.13213 2.56281 0
M  V30 4367 H 388.943 -2.05162 4.26855 0
M  V30 4368 H 389.367 -1.0454 6.6888 0
M  V30 4369 H 394.009 -1.71643 3.86392 0
M  V30 4370 H 391.727 -0.274994 8.07632 0
M  V30 4371 H 395.313 -0.812071 5.76105 0
M  V30 4372 H 394.193 -0.102227 7.84133 0
M  V30 4373 N 391.696 -1.35014 -0.812953 0
M  V30 4374 C 392.644 -1.27435 -1.94585 0
M  V30 4375 C 393.638 -0.170494 -1.6854 0
M  V30 4376 O 394.844 -0.336085 -1.76835 0
M  V30 4377 H 391.219 -0.396144 -0.639198 0
M  V30 4378 H 393.19 -2.23158 -1.98098 0
M  V30 4379 C 391.939 -1.05677 -3.31252 0
M  V30 4380 H 391.262 -1.89853 -3.51846 0
M  V30 4381 H 392.702 -1.04413 -4.10943 0
M  V30 4382 C 391.161 0.239615 -3.36047 0
M  V30 4383 O 391.691 1.23759 -3.8216 0
M  V30 4384 N 389.897 0.276186 -2.89285 0
M  V30 4385 H 389.444 -0.53653 -2.51951 0
M  V30 4386 H 389.402 1.14332 -2.92875 0
M  V30 4387 N 393.175 1.03435 -1.18907 0
M  V30 4388 C 394.405 1.8012 -1.01195 0
M  V30 4389 C 394.813 1.8395 0.442613 0
M  V30 4390 O 394.156 1.27836 1.31923 0
M  V30 4391 C 394.218 3.26792 -1.49823 0
M  V30 4392 C 393.882 3.46609 -2.97844 0
M  V30 4393 C 394.879 3.37278 -3.95651 0
M  V30 4394 C 392.564 3.73001 -3.36416 0
M  V30 4395 C 394.558 3.54054 -5.30023 0
M  V30 4396 C 392.245 3.89423 -4.70949 0
M  V30 4397 C 393.243 3.79951 -5.67562 0
M  V30 4398 O 392.931 3.95895 -6.99659 0
M  V30 4399 H 392.663 0.573865 -0.357289 0
M  V30 4400 H 395.217 1.31207 -1.58031 0
M  V30 4401 H 393.447 3.76703 -0.873578 0
M  V30 4402 H 395.136 3.85055 -1.28404 0
M  V30 4403 H 395.902 3.16846 -3.67197 0
M  V30 4404 H 391.781 3.79469 -2.61772 0
M  V30 4405 H 395.325 3.46577 -6.05417 0
M  V30 4406 H 391.222 4.09351 -4.99101 0
M  V30 4407 H 391.99 4.13019 -7.06653 0
M  V30 4408 N 394.653 0.992116 1.22453 0
M  V30 4409 C 396.064 0.702776 1.72968 0
M  V30 4410 C 396.415 -0.780399 1.80012 0
M  V30 4411 O 395.54 -1.61007 1.44589 0
M  V30 4412 C 396.135 1.26903 3.14135 0
M  V30 4413 C 394.694 1.02909 3.62059 0
M  V30 4414 C 393.841 1.38969 2.39964 0
M  V30 4415 H 396.792 1.16457 1.07812 0
M  V30 4416 H 396.813 0.647223 3.74955 0
M  V30 4417 H 396.325 2.34851 3.08977 0
M  V30 4418 H 394.426 -0.0337979 3.72585 0
M  V30 4419 H 394.539 1.69191 4.48231 0
M  V30 4420 H 392.903 0.808279 2.41535 0
M  V30 4421 H 393.686 2.4792 2.37467 0
M  V30 4422 N 396.131 -1.37776 0.765217 0
M  V30 4423 C 397.041 -2.34135 0.147666 0
M  V30 4424 C 398.057 -1.59854 -0.687215 0
M  V30 4425 O 399.233 -1.91983 -0.608659 0
M  V30 4426 C 396.298 -3.3901 -0.72617 0
M  V30 4427 C 395.359 -4.2912 0.124417 0
M  V30 4428 C 394.592 -5.28986 -0.707807 0
M  V30 4429 O 394.815 -5.36205 -1.94525 0
M  V30 4430 O 393.749 -6.01779 -0.12046 0
M  V30 4431 H 397.575 -2.88664 0.943758 0
M  V30 4432 H 395.16 -1.39824 0.526277 0
M  V30 4433 H 397.042 -4.03195 -1.22524 0
M  V30 4434 H 395.717 -2.86819 -1.50056 0
M  V30 4435 H 394.624 -3.68057 0.669696 0
M  V30 4436 H 395.957 -4.84598 0.861736 0
M  V30 4437 N 397.609 -0.515225 -1.4894 0
M  V30 4438 C 398.858 0.0261361 -2.01683 0
M  V30 4439 C 399.171 1.36719 -1.39883 0
M  V30 4440 O 400.377 1.99606 -1.84037 0
M  V30 4441 C 398.833 0.0970111 -3.59769 0
M  V30 4442 C 398.441 -1.23825 -4.30548 0
M  V30 4443 C 400.185 0.587981 -4.20408 0
M  V30 4444 C 398.092 -1.12877 -5.80528 0
M  V30 4445 H 397.022 0.0135398 -0.753878 0
M  V30 4446 H 399.673 -0.656787 -1.71343 0
M  V30 4447 H 398.055 0.844694 -3.86886 0
M  V30 4448 H 399.229 -2.00034 -4.15118 0
M  V30 4449 H 397.544 -1.66379 -3.81716 0
M  V30 4450 H 400.141 0.68763 -5.3026 0
M  V30 4451 H 400.484 1.59026 -3.84729 0
M  V30 4452 H 401.017 -0.103582 -3.97665 0
M  V30 4453 H 397.756 -2.10575 -6.20756 0
M  V30 4454 H 397.276 -0.407799 -5.98412 0
M  V30 4455 H 398.955 -0.813332 -6.41868 0
M  V30 4456 N 399.087 1.5561 -0.249682 0
M  V30 4457 C 400.503 1.59254 0.105103 0
M  V30 4458 C 400.703 1.26685 1.56694 0
M  V30 4459 O 399.759 1.0155 2.31179 0
M  V30 4460 C 401.072 2.99687 -0.246592 0
M  V30 4461 C 402.62 3.12416 -0.191118 0
M  V30 4462 C 403.095 4.55074 -0.516885 0
M  V30 4463 N 404.586 4.60835 -0.467489 0
M  V30 4464 C 405.321 5.69201 -0.69268 0
M  V30 4465 N 404.817 6.85817 -0.981146 0
M  V30 4466 N 406.61 5.58635 -0.623198 0
M  V30 4467 H 398.761 1.75049 -1.20298 0
M  V30 4468 H 401.024 0.815003 -0.484225 0
M  V30 4469 H 400.73 3.28267 -1.26228 0
M  V30 4470 H 400.604 3.74798 0.424962 0
M  V30 4471 H 402.991 2.83615 0.815247 0
M  V30 4472 H 403.072 2.39573 -0.896563 0
M  V30 4473 H 402.716 4.84596 -1.52082 0
M  V30 4474 H 402.646 5.26181 0.210068 0
M  V30 4475 H 405.137 3.7705 -0.253373 0
M  V30 4476 H 405.45 7.64341 -1.14032 0
M  V30 4477 H 403.795 6.87494 -1.01865 0
M  V30 4478 H 406.986 4.66406 -0.397863 0
M  V30 4479 H 407.159 6.43017 -0.802093 0
M  V30 4480 N 400.565 -0.0233959 1.57583 0
M  V30 4481 C 401.495 -1.02162 2.09965 0
M  V30 4482 C 402.476 -1.3735 1.00344 0
M  V30 4483 O 403.661 -1.46135 1.27899 0
M  V30 4484 C 400.791 -2.32081 2.58371 0
M  V30 4485 C 399.745 -2.1112 3.72307 0
M  V30 4486 C 399.071 -3.46848 4.06941 0
M  V30 4487 C 400.371 -1.49276 5.00514 0
M  V30 4488 H 402.065 -0.585557 2.93618 0
M  V30 4489 H 399.611 -0.280218 1.41247 0
M  V30 4490 H 401.564 -3.02249 2.93639 0
M  V30 4491 H 400.288 -2.77758 1.71808 0
M  V30 4492 H 398.947 -1.43384 3.37397 0
M  V30 4493 H 398.595 -3.90184 3.17436 0
M  V30 4494 H 398.295 -3.33646 4.83688 0
M  V30 4495 H 399.819 -4.18369 4.44747 0
M  V30 4496 H 401.233 -2.09368 5.33702 0
M  V30 4497 H 399.63 -1.46632 5.8191 0
M  V30 4498 H 400.7 -0.459217 4.82721 0
M  V30 4499 N 402.043 -1.548 -0.295768 0
M  V30 4500 C 402.991 -1.86874 -1.38495 0
M  V30 4501 C 403.985 -0.742938 -1.52239 0
M  V30 4502 O 405.191 -0.926999 -1.54294 0
M  V30 4503 H 401.566 -0.592786 -0.462719 0
M  V30 4504 H 403.537 -2.77904 -1.08682 0
M  V30 4505 C 402.286 -2.13732 -2.74252 0
M  V30 4506 H 401.609 -2.99835 -2.64459 0
M  V30 4507 H 403.049 -2.4011 -3.49461 0
M  V30 4508 C 401.508 -0.937539 -3.23592 0
M  V30 4509 O 402.038 -0.160665 -4.01379 0
M  V30 4510 N 400.244 -0.741478 -2.80981 0
M  V30 4511 H 399.791 -1.37489 -2.1784 0
M  V30 4512 H 399.749 0.0597103 -3.14343 0
M  V30 4513 N 403.521 0.559213 -1.47345 0
M  V30 4514 C 404.937 0.884943 -1.32819 0
M  V30 4515 C 405.137 1.98988 -0.317173 0
M  V30 4516 O 404.193 2.51031 0.272011 0
M  V30 4517 C 405.506 1.28007 -2.72093 0
M  V30 4518 C 407.054 1.39161 -2.80363 0
M  V30 4519 C 407.529 1.82031 -4.20272 0
M  V30 4520 N 409.02 1.89185 -4.22804 0
M  V30 4521 C 409.755 2.2368 -5.27973 0
M  V30 4522 N 409.251 2.56802 -6.43447 0
M  V30 4523 N 411.044 2.24436 -5.15349 0
M  V30 4524 H 403.195 -0.170304 -2.11716 0
M  V30 4525 H 405.458 -0.0135247 -0.947904 0
M  V30 4526 H 405.164 0.542027 -3.47498 0
M  V30 4527 H 405.038 2.23665 -3.03733 0
M  V30 4528 H 407.425 2.12048 -2.05231 0
M  V30 4529 H 407.506 0.41696 -2.52379 0
M  V30 4530 H 407.15 1.09715 -4.95908 0
M  V30 4531 H 407.08 2.80495 -4.45679 0
M  V30 4532 H 409.571 1.65982 -3.39497 0
M  V30 4533 H 409.884 2.82144 -7.19454 0
M  V30 4534 H 408.229 2.54387 -6.46771 0
M  V30 4535 H 411.42 1.97998 -4.24163 0
M  V30 4536 H 411.593 2.50989 -5.97418 0
M  V30 4537 N 404.999 1.35443 0.805782 0
M  V30 4538 C 405.929 1.31095 1.93226 0
M  V30 4539 C 406.91 0.185244 1.69088 0
M  V30 4540 O 408.095 0.380332 1.90439 0
M  V30 4541 C 405.225 1.08299 3.29983 0
M  V30 4542 C 404.179 2.17519 3.68605 0
M  V30 4543 C 403.505 1.79887 5.03532 0
M  V30 4544 C 404.805 3.5949 3.78898 0
M  V30 4545 H 406.499 2.25352 1.97122 0
M  V30 4546 H 404.045 1.0848 0.946996 0
M  V30 4547 H 405.998 1.03897 4.08391 0
M  V30 4548 H 404.722 0.104885 3.26432 0
M  V30 4549 H 403.381 2.2102 2.92482 0
M  V30 4550 H 403.029 0.80693 4.96485 0
M  V30 4551 H 402.729 2.53001 5.30344 0
M  V30 4552 H 404.253 1.77011 5.84379 0
M  V30 4553 H 405.667 3.58307 4.47536 0
M  V30 4554 H 404.064 4.31371 4.1718 0
M  V30 4555 H 405.134 3.95584 2.80431 0
M  V30 4556 N 406.477 -1.02803 1.19454 0
M  V30 4557 C 407.407 -2.12999 0.956758 0
M  V30 4558 C 408.388 -1.69743 -0.110188 0
M  V30 4559 O 409.573 -1.94148 0.0450038 0
M  V30 4560 C 406.703 -3.43746 0.495553 0
M  V30 4561 C 405.657 -4.00688 1.50443 0
M  V30 4562 C 404.983 -5.27067 0.900275 0
M  V30 4563 C 406.283 -4.35397 2.8849 0
M  V30 4564 H 407.977 -2.33148 1.87836 0
M  V30 4565 H 405.523 -1.12045 0.904539 0
M  V30 4566 H 407.476 -4.2021 0.316493 0
M  V30 4567 H 406.2 -3.23321 -0.461646 0
M  V30 4568 H 404.859 -3.2632 1.67065 0
M  V30 4569 H 404.507 -5.02959 -0.064503 0
M  V30 4570 H 404.207 -5.66127 1.57397 0
M  V30 4571 H 405.731 -6.06196 0.73203 0
M  V30 4572 H 407.145 -5.02795 2.75446 0
M  V30 4573 H 405.542 -4.85541 3.52661 0
M  V30 4574 H 406.612 -3.44662 3.41081 0
M  V30 4575 N 407.956 -0.998596 -1.21925 0
M  V30 4576 C 409.372 -0.710303 -1.42923 0
M  V30 4577 C 409.572 0.716933 -1.88314 0
M  V30 4578 O 408.628 1.48712 -2.04062 0
M  V30 4579 C 409.941 -1.72072 -2.466 0
M  V30 4580 C 411.489 -1.73681 -2.60392 0
M  V30 4581 C 411.964 -2.73601 -3.67296 0
M  V30 4582 N 413.455 -2.7223 -3.7476 0
M  V30 4583 C 414.19 -3.46206 -4.57087 0
M  V30 4584 N 413.686 -4.29802 -5.43362 0
M  V30 4585 N 415.479 -3.34886 -4.51451 0
M  V30 4586 H 407.63 -1.92028 -0.9077 0
M  V30 4587 H 409.893 -0.828487 -0.460775 0
M  V30 4588 H 409.599 -2.74231 -2.20206 0
M  V30 4589 H 409.473 -1.51818 -3.45299 0
M  V30 4590 H 411.86 -0.722173 -2.86127 0
M  V30 4591 H 411.941 -1.98005 -1.61949 0
M  V30 4592 H 411.585 -3.75217 -3.42307 0
M  V30 4593 H 411.515 -2.46545 -4.65321 0
M  V30 4594 H 414.006 -2.11576 -3.1312 0
M  V30 4595 H 414.319 -4.83061 -6.03218 0
M  V30 4596 H 412.664 -4.33887 -5.42925 0
M  V30 4597 H 415.855 -2.69015 -3.83078 0
M  V30 4598 H 416.028 -3.92796 -5.15379 0
M  V30 4599 N 409.434 1.37368 -0.772513 0
M  V30 4600 C 410.681 1.99673 -0.337182 0
M  V30 4601 C 411.009 1.61324 1.0865 0
M  V30 4602 O 410.264 0.851377 1.7621 0
M  V30 4603 C 410.563 3.54817 -0.428876 0
M  V30 4604 C 410.229 4.12936 -1.81092 0
M  V30 4605 C 408.891 4.28523 -2.1891 0
M  V30 4606 C 411.243 4.44801 -2.71664 0
M  V30 4607 C 408.571 4.73277 -3.46735 0
M  V30 4608 C 410.923 4.90981 -3.98899 0
M  V30 4609 C 409.587 5.04773 -4.36761 0
M  V30 4610 H 408.857 0.730656 -0.123384 0
M  V30 4611 H 411.504 1.64124 -0.986686 0
M  V30 4612 H 409.809 3.90618 0.304167 0
M  V30 4613 H 411.506 4.00933 -0.0733334 0
M  V30 4614 H 408.096 4.01233 -1.50699 0
M  V30 4615 H 412.28 4.32344 -2.43706 0
M  V30 4616 H 407.536 4.82142 -3.75964 0
M  V30 4617 H 411.71 5.14603 -4.69208 0
M  V30 4618 H 409.337 5.39211 -5.35868 0
M  V30 4619 N 410.912 0.523116 1.48665 0
M  V30 4620 C 412.137 -0.0117284 2.07397 0
M  V30 4621 C 412.562 -1.28031 1.37803 0
M  V30 4622 O 411.92 -1.75836 0.441762 0
M  V30 4623 C 411.968 -0.225786 3.59892 0
M  V30 4624 O 411.072 -1.29592 3.91509 0
M  V30 4625 H 410.413 0.0360673 0.66302 0
M  V30 4626 H 412.943 0.729066 1.9117 0
M  V30 4627 H 412.953 -0.450552 4.05505 0
M  V30 4628 H 411.628 0.700944 4.09951 0
M  V30 4629 H 410.205 -1.05436 3.57684 0
M  V30 4630 N 412.39 -1.55475 0.257931 0
M  V30 4631 C 413.806 -1.59307 -0.0966563 0
M  V30 4632 C 414.006 -1.27514 -1.5602 0
M  V30 4633 O 413.062 -1.02774 -2.30637 0
M  V30 4634 C 414.375 -2.99552 0.262481 0
M  V30 4635 C 415.923 -3.1231 0.207683 0
M  V30 4636 C 416.398 -4.54793 0.541012 0
M  V30 4637 N 417.889 -4.6058 0.491921 0
M  V30 4638 C 418.624 -5.68825 0.722857 0
M  V30 4639 N 418.12 -6.85287 1.0175 0
M  V30 4640 N 419.913 -5.58296 0.652815 0
M  V30 4641 H 412.064 -1.74409 1.21224 0
M  V30 4642 H 414.327 -0.812424 0.48854 0
M  V30 4643 H 414.033 -3.27593 1.27967 0
M  V30 4644 H 413.907 -3.75019 -0.40508 0
M  V30 4645 H 416.294 -2.84044 -0.800195 0
M  V30 4646 H 416.375 -2.39095 0.909255 0
M  V30 4647 H 416.019 -4.83783 1.5465 0
M  V30 4648 H 415.949 -5.26285 -0.18216 0
M  V30 4649 H 418.44 -3.7691 0.273366 0
M  V30 4650 H 418.753 -7.63725 1.18084 0
M  V30 4651 H 417.098 -6.86945 1.05509 0
M  V30 4652 H 420.289 -4.66189 0.422592 0
M  V30 4653 H 420.462 -6.42582 0.836182 0
M  V30 4654 N 413.868 0.0150385 -1.57593 0
M  V30 4655 C 414.801 1.04475 -2.0288 0
M  V30 4656 C 415.779 1.3436 -0.915764 0
M  V30 4657 O 416.963 1.46779 -1.18271 0
M  V30 4658 C 414.09 2.37608 -2.41371 0
M  V30 4659 C 413.136 2.23487 -3.63257 0
M  V30 4660 S 413.969 1.57505 -5.11813 0
M  V30 4661 C 415.125 2.921 -5.5356 0
M  V30 4662 H 415.358 0.65907 -2.89903 0
M  V30 4663 H 412.891 0.225452 -1.52745 0
M  V30 4664 H 414.849 3.14165 -2.64217 0
M  V30 4665 H 413.51 2.7332 -1.54775 0
M  V30 4666 H 412.703 3.21802 -3.87891 0
M  V30 4667 H 412.305 1.55074 -3.40335 0
M  V30 4668 H 414.597 3.88419 -5.55101 0
M  V30 4669 H 415.54 2.72184 -6.53698 0
M  V30 4670 H 415.948 2.95318 -4.8109 0
M  V30 4671 N 415.346 1.54954 0.287554 0
M  V30 4672 C 416.593 1.74873 1.02106 0
M  V30 4673 C 416.921 0.541829 1.86801 0
M  V30 4674 O 416.176 -0.475992 1.89823 0
M  V30 4675 C 416.475 2.99833 1.94512 0
M  V30 4676 C 416.141 4.33029 1.25686 0
M  V30 4677 C 414.803 4.69233 1.06649 0
M  V30 4678 C 417.155 5.15542 0.765913 0
M  V30 4679 C 414.483 5.85518 0.372222 0
M  V30 4680 C 416.835 6.32542 0.0853101 0
M  V30 4681 C 415.499 6.67398 -0.1169 0
M  V30 4682 H 414.769 0.639906 0.373632 0
M  V30 4683 H 417.416 1.89219 0.294665 0
M  V30 4684 H 415.721 2.80325 2.73725 0
M  V30 4685 H 417.418 3.1244 2.51361 0
M  V30 4686 H 414.008 4.04564 1.41512 0
M  V30 4687 H 418.192 4.88059 0.90066 0
M  V30 4688 H 413.448 6.11057 0.204695 0
M  V30 4689 H 417.622 6.95741 -0.302936 0
M  V30 4690 H 415.249 7.57357 -0.656859 0
M  V30 4691 N 416.824 -0.551391 1.4764 0
M  V30 4692 C 417.734 -1.68525 1.63207 0
M  V30 4693 C 418.75 -1.6621 0.514815 0
M  V30 4694 O 419.926 -1.85551 0.783113 0
M  V30 4695 C 416.991 -3.05025 1.64805 0
M  V30 4696 C 416.052 -3.18362 2.88 0
M  V30 4697 C 415.285 -4.4835 2.89513 0
M  V30 4698 O 415.508 -5.34163 2.00065 0
M  V30 4699 O 414.442 -4.65602 3.81443 0
M  V30 4700 H 418.268 -1.58333 2.59161 0
M  V30 4701 H 415.853 -0.722063 1.30792 0
M  V30 4702 H 417.735 -3.86245 1.68502 0
M  V30 4703 H 416.41 -3.15587 0.720197 0
M  V30 4704 H 415.317 -2.36518 2.89845 0
M  V30 4705 H 416.65 -3.12707 3.80099 0
M  V30 4706 N 418.302 -1.35869 -0.798587 0
M  V30 4707 C 419.549 -1.29588 -1.55606 0
M  V30 4708 C 419.877 0.127456 -1.94082 0
M  V30 4709 O 419.132 1.09461 -1.62225 0
M  V30 4710 C 419.431 -2.1556 -2.85077 0
M  V30 4711 C 419.097 -3.6424 -2.65781 0
M  V30 4712 C 417.759 -4.04766 -2.60227 0
M  V30 4713 C 420.111 -4.58547 -2.47758 0
M  V30 4714 C 417.439 -5.37753 -2.34603 0
M  V30 4715 C 419.791 -5.91742 -2.23662 0
M  V30 4716 C 418.455 -6.31402 -2.16534 0
M  V30 4717 H 417.725 -0.474197 -0.569402 0
M  V30 4718 H 420.372 -1.67839 -0.922086 0
M  V30 4719 H 418.677 -1.70216 -3.52893 0
M  V30 4720 H 420.374 -2.08031 -3.42818 0
M  V30 4721 H 416.964 -3.32086 -2.70956 0
M  V30 4722 H 421.148 -4.28117 -2.51056 0
M  V30 4723 H 416.404 -5.67474 -2.2756 0
M  V30 4724 H 420.578 -6.6439 -2.08708 0
M  V30 4725 H 418.205 -7.34381 -1.96441 0
M  V30 4726 N 419.78 1.02168 -1.19998 0
M  V30 4727 C 421.027 1.75685 -1.00702 0
M  V30 4728 C 421.355 1.88947 0.461426 0
M  V30 4729 O 420.61 1.40832 1.35885 0
M  V30 4730 C 420.909 3.18081 -1.62969 0
M  V30 4731 C 420.575 3.24809 -3.12746 0
M  V30 4732 C 419.237 3.26352 -3.53621 0
M  V30 4733 C 421.589 3.23379 -4.08749 0
M  V30 4734 C 418.917 3.2413 -4.89036 0
M  V30 4735 C 421.269 3.22698 -5.44104 0
M  V30 4736 C 419.933 3.22542 -5.84399 0
M  V30 4737 H 419.203 0.642877 -0.368496 0
M  V30 4738 H 421.85 1.19865 -1.49348 0
M  V30 4739 H 420.155 3.77027 -1.06573 0
M  V30 4740 H 421.852 3.73648 -1.45561 0
M  V30 4741 H 418.442 3.2434 -2.80181 0
M  V30 4742 H 422.626 3.21361 -3.78207 0
M  V30 4743 H 417.882 3.22338 -5.19527 0
M  V30 4744 H 422.056 3.20543 -6.18244 0
M  V30 4745 H 419.683 3.20575 -6.89301 0
M  V30 4746 N 421.258 1.00505 1.21394 0
M  V30 4747 C 422.19 0.52372 2.23136 0
M  V30 4748 C 423.203 -0.387714 1.58116 0
M  V30 4749 O 424.392 -0.187905 1.77508 0
M  V30 4750 C 421.492 -0.258885 3.3791 0
M  V30 4751 C 420.665 0.651634 4.32519 0
M  V30 4752 C 419.724 -0.0813705 5.26137 0
M  V30 4753 O 418.75 0.537295 5.66658 0
M  V30 4754 N 419.952 -1.35992 5.64346 0
M  V30 4755 H 422.717 1.39865 2.65062 0
M  V30 4756 H 420.278 0.881196 1.35818 0
M  V30 4757 H 422.27 -0.758208 3.97534 0
M  V30 4758 H 420.84 -1.035 2.94968 0
M  V30 4759 H 420.06 1.33145 3.71034 0
M  V30 4760 H 421.348 1.27129 4.92662 0
M  V30 4761 H 420.746 -1.88368 5.33417 0
M  V30 4762 H 419.303 -1.8042 6.26332 0
M  V30 4763 N 422.737 -1.36956 0.779787 0
M  V30 4764 C 424.153 -1.52817 0.460342 0
M  V30 4765 C 424.353 -1.7361 -1.02283 0
M  V30 4766 O 423.409 -1.76207 -1.80852 0
M  V30 4767 C 424.722 -2.71983 1.28241 0
M  V30 4768 C 426.27 -2.85849 1.27512 0
M  V30 4769 C 426.745 -4.08008 2.08072 0
M  V30 4770 N 428.236 -4.15135 2.05467 0
M  V30 4771 C 428.971 -5.08711 2.64577 0
M  V30 4772 N 428.467 -6.07792 3.32506 0
M  V30 4773 N 430.26 -5.01254 2.54363 0
M  V30 4774 H 422.411 -1.21713 1.74068 0
M  V30 4775 H 424.674 -0.593294 0.739396 0
M  V30 4776 H 424.38 -2.63109 2.33381 0
M  V30 4777 H 424.254 -3.65882 0.917088 0
M  V30 4778 H 426.641 -2.94189 0.231686 0
M  V30 4779 H 426.722 -1.92886 1.68014 0
M  V30 4780 H 426.366 -4.00429 3.12441 0
M  V30 4781 H 426.296 -5.001 1.64947 0
M  V30 4782 H 428.787 -3.44189 1.5602 0
M  V30 4783 H 429.1 -6.75739 3.74963 0
M  V30 4784 H 427.445 -6.08047 3.36606 0
M  V30 4785 H 430.636 -4.22795 2.00902 0
M  V30 4786 H 430.809 -5.73995 3.00722 0
M  V30 4787 N 424.215 -0.530993 -1.48385 0
M  V30 4788 C 425.443 -0.00134122 -2.069 0
M  V30 4789 C 425.858 1.2805 -1.3874 0
M  V30 4790 O 425.215 1.76204 -0.475244 0
M  V30 4791 C 425.266 0.225256 -3.60798 0
M  V30 4792 O 424.987 -1.0058 -4.26398 0
M  V30 4793 C 426.488 0.795172 -4.3611 0
M  V30 4794 H 423.708 -0.0339704 -0.67014 0
M  V30 4795 H 426.252 -0.736926 -1.90761 0
M  V30 4796 H 424.407 0.910891 -3.76539 0
M  V30 4797 H 424.821 -0.787165 -5.1856 0
M  V30 4798 H 426.295 0.903143 -5.44562 0
M  V30 4799 H 426.772 1.80031 -4.00606 0
M  V30 4800 H 427.378 0.146069 -4.25049 0
M  V30 4801 N 425.693 1.55336 -0.266172 0
M  V30 4802 C 426.603 2.2583 0.635458 0
M  V30 4803 C 427.619 1.28106 1.17749 0
M  V30 4804 O 428.795 1.61024 1.20968 0
M  V30 4805 C 425.86 2.95879 1.80712 0
M  V30 4806 C 424.921 4.09059 1.30265 0
M  V30 4807 C 424.154 4.75759 2.41846 0
M  V30 4808 O 424.377 4.41622 3.61007 0
M  V30 4809 O 423.311 5.63888 2.1051 0
M  V30 4810 H 427.137 3.03631 0.0646693 0
M  V30 4811 H 424.722 1.49361 -0.0339177 0
M  V30 4812 H 426.604 3.39932 2.49047 0
M  V30 4813 H 425.279 2.21002 2.36516 0
M  V30 4814 H 424.186 3.69482 0.586019 0
M  V30 4815 H 425.519 4.85811 0.790458 0
M  V30 4816 N 427.171 -0.0066808 1.57599 0
M  V30 4817 C 428.399 -0.704087 1.94551 0
M  V30 4818 C 428.814 -1.67677 0.867746 0
M  V30 4819 O 428.171 -1.8185 -0.153925 0
M  V30 4820 C 428.222 -1.44177 3.31505 0
M  V30 4821 O 427.943 -0.508097 4.35144 0
M  V30 4822 C 429.444 -2.23429 3.82876 0
M  V30 4823 H 426.664 -0.196523 0.641576 0
M  V30 4824 H 429.208 0.042453 2.04456 0
M  V30 4825 H 427.363 -2.13999 3.22929 0
M  V30 4826 H 427.777 -1.02782 5.14331 0
M  V30 4827 H 429.251 -2.70552 4.8115 0
M  V30 4828 H 429.728 -3.05818 3.15233 0
M  V30 4829 H 430.334 -1.58636 3.94607 0
M  V30 4830 N 428.649 -1.55105 -0.279332 0
M  V30 4831 C 430.065 -1.46803 -0.626187 0
M  V30 4832 C 430.265 -0.676939 -1.89789 0
M  V30 4833 O 429.321 -0.19326 -2.51759 0
M  V30 4834 C 430.634 -2.90962 -0.759034 0
M  V30 4835 C 432.182 -3.01138 -0.853504 0
M  V30 4836 C 432.657 -4.46539 -1.01818 0
M  V30 4837 N 434.148 -4.50341 -1.08386 0
M  V30 4838 C 434.883 -5.60053 -1.22996 0
M  V30 4839 N 434.379 -6.79645 -1.34366 0
M  V30 4840 N 436.172 -5.47783 -1.26056 0
M  V30 4841 H 428.323 -2.04996 0.555921 0
M  V30 4842 H 430.586 -0.929325 0.187239 0
M  V30 4843 H 430.292 -3.51544 0.104852 0
M  V30 4844 H 430.166 -3.39619 -1.64131 0
M  V30 4845 H 432.553 -2.40658 -1.70786 0
M  V30 4846 H 432.634 -2.55745 0.0532466 0
M  V30 4847 H 432.278 -5.0762 -0.168504 0
M  V30 4848 H 432.208 -4.89583 -1.93948 0
M  V30 4849 H 434.699 -3.64191 -1.00864 0
M  V30 4850 H 435.012 -7.59012 -1.4533 0
M  V30 4851 H 433.357 -6.82469 -1.31382 0
M  V30 4852 H 436.548 -4.53294 -1.168 0
M  V30 4853 H 436.721 -6.33331 -1.37098 0
M  V30 4854 N 430.127 0.543554 -1.4793 0
M  V30 4855 C 431.355 1.32516 -1.58894 0
M  V30 4856 C 431.77 1.87215 -0.244131 0
M  V30 4857 O 431.127 1.65709 0.764652 0
M  V30 4858 C 431.178 2.48554 -2.62494 0
M  V30 4859 O 430.899 1.96112 -3.91755 0
M  V30 4860 C 432.4 3.40572 -2.8377 0
M  V30 4861 H 429.62 0.403472 -0.536145 0
M  V30 4862 H 432.164 0.657106 -1.93655 0
M  V30 4863 H 430.319 3.1127 -2.30629 0
M  V30 4864 H 430.733 2.71967 -4.4848 0
M  V30 4865 H 432.207 4.18375 -3.60093 0
M  V30 4866 H 432.684 3.94965 -1.92092 0
M  V30 4867 H 433.29 2.8366 -3.16887 0
M  V30 4868 N 431.605 1.3629 0.791371 0
M  V30 4869 C 432.553 1.30514 1.92533 0
M  V30 4870 C 433.547 0.197285 1.68247 0
M  V30 4871 O 434.753 0.364176 1.76278 0
M  V30 4872 H 431.128 0.406263 0.632815 0
M  V30 4873 H 433.099 2.26282 1.94523 0
M  V30 4874 C 431.848 1.10933 3.29529 0
M  V30 4875 H 431.171 1.95427 3.48781 0
M  V30 4876 H 432.611 1.10937 4.0923 0
M  V30 4877 C 431.07 -0.186123 3.36385 0
M  V30 4878 O 431.6 -1.17664 3.84081 0
M  V30 4879 N 429.806 -0.230128 2.89687 0
M  V30 4880 H 429.353 0.576545 2.51065 0
M  V30 4881 H 429.311 -1.09658 2.94657 0
M  V30 4882 N 433.083 -1.0153 1.20538 0
M  V30 4883 C 434.313 -1.78487 1.04048 0
M  V30 4884 C 434.721 -1.84631 -0.413292 0
M  V30 4885 O 434.064 -1.29919 -1.29872 0
M  V30 4886 C 434.126 -3.24367 1.55003 0
M  V30 4887 C 433.79 -3.41827 3.0332 0
M  V30 4888 C 434.787 -3.30941 4.00966 0
M  V30 4889 C 432.472 -3.67602 3.42307 0
M  V30 4890 C 434.466 -3.45577 5.35589 0
M  V30 4891 C 432.153 -3.81881 4.77085 0
M  V30 4892 C 433.151 -3.70874 5.73534 0
M  V30 4893 O 432.839 -3.84714 7.05868 0
M  V30 4894 H 432.571 -0.568108 0.366373 0
M  V30 4895 H 435.125 -1.28677 1.60098 0
M  V30 4896 H 433.355 -3.75266 0.933397 0
M  V30 4897 H 435.044 -3.82963 1.34514 0
M  V30 4898 H 435.81 -3.10964 3.72191 0
M  V30 4899 H 431.689 -3.75256 2.67776 0
M  V30 4900 H 435.233 -3.36902 6.10854 0
M  V30 4901 H 431.13 -4.01359 5.0555 0
M  V30 4902 H 431.898 -4.01724 7.13134 0
M  V30 4903 N 434.561 -1.01147 -1.20859 0
M  V30 4904 C 435.972 -0.730205 -1.71828 0
M  V30 4905 C 436.323 0.751662 -1.8123 0
M  V30 4906 O 435.448 1.58686 -1.47132 0
M  V30 4907 C 436.043 -1.31885 -3.12077 0
M  V30 4908 C 434.602 -1.08656 -3.60376 0
M  V30 4909 C 433.749 -1.42769 -2.37723 0
M  V30 4910 H 436.7 -1.18158 -1.05945 0
M  V30 4911 H 436.721 -0.706793 -3.73878 0
M  V30 4912 H 436.233 -2.39737 -3.05201 0
M  V30 4913 H 434.334 -0.0254814 -3.72591 0
M  V30 4914 H 434.447 -1.76301 -4.45483 0
M  V30 4915 H 432.811 -0.846603 -2.40218 0
M  V30 4916 H 433.594 -2.51666 -2.33493 0
M  V30 4917 N 436.039 1.36541 -0.78704 0
M  V30 4918 C 436.987 2.31965 -0.171724 0
M  V30 4919 C 437.981 1.55689 0.667631 0
M  V30 4920 O 439.187 1.70969 0.562981 0
M  V30 4921 H 435.562 0.751101 -0.0367545 0
M  V30 4922 H 437.533 2.81428 -0.992017 0
M  V30 4923 C 436.282 3.40968 0.680904 0
M  V30 4924 H 435.605 3.99775 0.0443961 0
M  V30 4925 H 437.045 4.10063 1.07815 0
M  V30 4926 C 435.504 2.82338 1.83813 0
M  V30 4927 O 436.034 2.74311 2.93456 0
M  V30 4928 N 434.24 2.39661 1.6435 0
M  V30 4929 H 433.787 2.46389 0.751668 0
M  V30 4930 H 433.745 2.00779 2.4194 0
M  V30 4931 N 437.518 0.538854 1.48102 0
M  V30 4932 C 438.767 0.0059532 2.01699 0
M  V30 4933 C 439.08 -1.34476 1.42041 0
M  V30 4934 O 440.286 -1.96653 1.87189 0
M  V30 4935 C 438.742 -0.0397627 3.59878 0
M  V30 4936 C 438.35 1.30659 4.28523 0
M  V30 4937 C 440.094 -0.521024 4.2129 0
M  V30 4938 C 438.001 1.22098 5.78659 0
M  V30 4939 H 436.931 -0.00154456 0.753998 0
M  V30 4940 H 439.582 0.683963 1.70277 0
M  V30 4941 H 437.964 -0.783037 3.88181 0
M  V30 4942 H 439.138 2.06613 4.11883 0
M  V30 4943 H 437.453 1.7243 3.79021 0
M  V30 4944 H 440.05 -0.603184 5.31287 0
M  V30 4945 H 440.393 -1.52885 3.8721 0
M  V30 4946 H 440.926 0.166834 3.9745 0
M  V30 4947 H 437.665 2.20424 6.17328 0
M  V30 4948 H 437.185 0.50295 5.97688 0
M  V30 4949 H 438.864 0.915345 6.40492 0
M  V30 4950 N 438.996 -1.55193 0.274407 0
M  V30 4951 C 440.243 -1.99581 -0.342579 0
M  V30 4952 C 440.571 -1.1628 -1.55914 0
M  V30 4953 O 439.826 -0.22029 -1.94456 0
M  V30 4954 C 440.125 -3.49019 -0.769458 0
M  V30 4955 C 439.791 -4.49598 0.342389 0
M  V30 4956 C 438.453 -4.76821 0.647686 0
M  V30 4957 C 440.805 -5.0964 1.09163 0
M  V30 4958 C 438.133 -5.61354 1.70581 0
M  V30 4959 C 440.485 -5.95323 2.13948 0
M  V30 4960 C 439.149 -6.20867 2.45113 0
M  V30 4961 H 438.419 -0.730319 -0.125358 0
M  V30 4962 H 441.066 -1.87529 0.387971 0
M  V30 4963 H 439.371 -3.58544 -1.57967 0
M  V30 4964 H 441.068 -3.8077 -1.25757 0
M  V30 4965 H 437.658 -4.28496 0.094318 0
M  V30 4966 H 441.842 -4.88632 0.869024 0
M  V30 4967 H 437.098 -5.79392 1.9523 0
M  V30 4968 H 441.272 -6.40881 2.72478 0
M  V30 4969 H 438.899 -6.86162 3.27239 0
M  V30 4970 N 440.474 -0.00167713 -1.576 0
M  V30 4971 C 441.89 0.354422 -1.55615 0
M  V30 4972 C 442.09 1.74679 -1.00447 0
M  V30 4973 O 441.146 2.4428 -0.639022 0
M  V30 4974 C 442.459 0.22812 -2.99833 0
M  V30 4975 C 444.007 0.302934 -3.11531 0
M  V30 4976 C 444.482 0.205737 -4.57538 0
M  V30 4977 N 445.973 0.263584 -4.62449 0
M  V30 4978 C 446.708 0.211742 -5.73009 0
M  V30 4979 N 446.204 0.110399 -6.92712 0
M  V30 4980 N 447.997 0.263729 -5.61481 0
M  V30 4981 H 440.148 -0.912498 -1.918 0
M  V30 4982 H 442.411 -0.349928 -0.881053 0
M  V30 4983 H 442.117 -0.729934 -3.44042 0
M  V30 4984 H 441.991 1.00951 -3.6344 0
M  V30 4985 H 444.378 1.25143 -2.67251 0
M  V30 4986 H 444.459 -0.508357 -2.50698 0
M  V30 4987 H 444.103 -0.739225 -5.02492 0
M  V30 4988 H 444.033 1.03554 -5.16318 0
M  V30 4989 H 446.524 0.343173 -3.76339 0
M  V30 4990 H 446.837 0.0767828 -7.72762 0
M  V30 4991 H 445.182 0.0760025 -6.94958 0
M  V30 4992 H 448.373 0.34111 -4.66855 0
M  V30 4993 H 448.546 0.219862 -6.47627 0
M  V30 4994 N 441.952 1.55251 0.271103 0
M  V30 4995 C 443.201 1.75151 1.00025 0
M  V30 4996 C 443.514 0.561041 1.87381 0
M  V30 4997 O 444.72 0.642506 2.63788 0
M  V30 4998 C 443.176 3.09999 1.82835 0
M  V30 4999 C 442.784 4.3662 1.00336 0
M  V30 5000 C 444.528 3.39249 2.55168 0
M  V30 5001 C 442.435 5.62506 1.82595 0
M  V30 5002 H 441.365 0.652877 0.377183 0
M  V30 5003 H 444.016 1.81708 0.255843 0
M  V30 5004 H 442.398 2.97485 2.61378 0
M  V30 5005 H 443.572 4.60055 0.261959 0
M  V30 5006 H 441.887 4.14527 0.394486 0
M  V30 5007 H 444.484 4.3051 3.1712 0
M  V30 5008 H 444.827 2.59467 3.2555 0
M  V30 5009 H 445.36 3.52869 1.83653 0
M  V30 5010 H 442.099 6.45041 1.16631 0
M  V30 5011 H 441.619 5.43211 2.54327 0
M  V30 5012 H 443.298 6.00875 2.39913 0
M  V30 5013 N 443.43 -0.535701 1.48216 0
M  V30 5014 C 444.655 -1.32149 1.59848 0
M  V30 5015 C 445.08 -1.86338 0.256842 0
M  V30 5016 O 444.438 -1.64107 -0.770632 0
M  V30 5017 C 444.486 -2.45224 2.64381 0
M  V30 5018 O 443.59 -3.48093 2.21144 0
M  V30 5019 H 442.931 -0.391634 0.536208 0
M  V30 5020 H 445.461 -0.645202 1.94161 0
M  V30 5021 H 445.471 -2.91491 2.85476 0
M  V30 5022 H 444.146 -2.05143 3.61786 0
M  V30 5023 H 442.723 -3.07984 2.10239 0
M  V30 5024 N 444.908 -1.36708 -0.784132 0
M  V30 5025 C 445.856 -1.31533 -1.91838 0
M  V30 5026 C 446.85 -0.206205 -1.6814 0
M  V30 5027 O 448.056 -0.373519 -1.76082 0
M  V30 5028 H 444.431 -0.409613 -0.630651 0
M  V30 5029 H 446.402 -2.2731 -1.9332 0
M  V30 5030 C 445.151 -1.12679 -3.28936 0
M  V30 5031 H 444.474 -1.97274 -3.4774 0
M  V30 5032 H 445.914 -1.13106 -4.08636 0
M  V30 5033 C 444.373 0.168281 -3.36479 0
M  V30 5034 O 444.903 1.15625 -3.84699 0
M  V30 5035 N 443.109 0.214762 -2.89805 0
M  V30 5036 H 442.656 -0.589852 -2.50756 0
M  V30 5037 H 442.614 1.08094 -2.95234 0
M  V30 5038 N 446.386 1.0089 -1.21074 0
M  V30 5039 C 447.316 2.1145 -0.990523 0
M  V30 5040 C 448.297 1.69897 0.0831699 0
M  V30 5041 O 449.482 1.94052 -0.0758853 0
M  V30 5042 C 446.612 3.42914 -0.550177 0
M  V30 5043 C 445.566 3.98244 -1.56799 0
M  V30 5044 C 444.892 5.25568 -0.984013 0
M  V30 5045 C 446.192 4.30752 -2.95381 0
M  V30 5046 H 447.886 2.3013 -1.91521 0
M  V30 5047 H 445.432 1.10592 -0.92225 0
M  V30 5048 H 447.385 4.19653 -0.383305 0
M  V30 5049 H 446.109 3.24014 0.41015 0
M  V30 5050 H 444.768 3.23621 -1.72236 0
M  V30 5051 H 444.416 5.02998 -0.0155216 0
M  V30 5052 H 444.116 5.63551 -1.66384 0
M  V30 5053 H 445.64 6.04955 -0.828378 0
M  V30 5054 H 447.054 4.98349 -2.8341 0
M  V30 5055 H 445.451 4.79869 -3.60341 0
M  V30 5056 H 446.521 3.39192 -3.46521 0
M  V30 5057 N 447.864 1.01787 1.20321 0
M  V30 5058 C 449.11 0.708985 1.90003 0
M  V30 5059 C 449.443 -0.759572 1.78729 0
M  V30 5060 O 448.718 -1.55198 1.17234 0
M  V30 5061 C 449.001 1.1469 3.41348 0
M  V30 5062 C 448.854 2.67586 3.61549 0
M  V30 5063 C 450.173 0.71915 4.34185 0
M  V30 5064 H 447.292 0.259034 0.689978 0
M  V30 5065 H 449.934 1.26584 1.41692 0
M  V30 5066 H 448.084 0.673128 3.82624 0
M  V30 5067 H 449.756 3.22826 3.29517 0
M  V30 5068 H 447.999 3.085 3.04976 0
M  V30 5069 H 448.67 2.93281 4.67643 0
M  V30 5070 H 451.146 1.12647 4.00562 0
M  V30 5071 H 450.022 1.05358 5.38694 0
M  V30 5072 H 450.283 -0.379111 4.40472 0
M  V30 5073 N 449.342 -1.36122 0.79427 0
M  V30 5074 C 450.275 -2.27759 0.141845 0
M  V30 5075 C 451.253 -1.47471 -0.684921 0
M  V30 5076 O 452.437 -1.76759 -0.654857 0
M  V30 5077 C 449.564 -3.29008 -0.804446 0
M  V30 5078 C 448.61 -4.26459 -0.0588617 0
M  V30 5079 S 449.443 -5.20253 1.26873 0
M  V30 5080 C 450.599 -6.25048 0.326562 0
M  V30 5081 H 450.832 -2.82746 0.918818 0
M  V30 5082 H 448.365 -1.42736 0.588722 0
M  V30 5083 H 450.323 -3.87842 -1.34495 0
M  V30 5084 H 448.984 -2.72924 -1.5547 0
M  V30 5085 H 448.177 -4.97973 -0.777087 0
M  V30 5086 H 447.779 -3.71731 0.411309 0
M  V30 5087 H 450.071 -6.75705 -0.492795 0
M  V30 5088 H 451.014 -7.00852 1.01053 0
M  V30 5089 H 451.422 -5.64454 -0.0722627 0
M  V30 5090 N 450.82 -0.546701 -1.47814 0
M  V30 5091 C 452.05 -0.0232519 -2.06587 0
M  V30 5092 C 452.458 1.2712 -1.40133 0
M  V30 5093 O 451.801 1.77091 -0.488305 0
M  V30 5094 C 451.863 0.254117 -3.58601 0
M  V30 5095 C 451.527 -0.949331 -4.47031 0
M  V30 5096 C 452.524 -1.85216 -4.85789 0
M  V30 5097 C 450.209 -1.16104 -4.88697 0
M  V30 5098 C 452.203 -2.95047 -5.65001 0
M  V30 5099 C 449.89 -2.26247 -5.67676 0
M  V30 5100 C 450.888 -3.1555 -6.05737 0
M  V30 5101 O 450.576 -4.23784 -6.83127 0
M  V30 5102 H 450.308 -0.0380082 -0.674931 0
M  V30 5103 H 452.862 -0.756631 -1.90956 0
M  V30 5104 H 451.092 1.04168 -3.72406 0
M  V30 5105 H 452.781 0.72167 -3.99433 0
M  V30 5106 H 453.547 -1.70061 -4.54207 0
M  V30 5107 H 449.426 -0.475159 -4.58545 0
M  V30 5108 H 452.97 -3.64778 -5.94628 0
M  V30 5109 H 448.867 -2.41379 -5.98671 0
M  V30 5110 H 449.635 -4.21701 -7.01506 0
M  V30 5111 N 452.299 1.55045 -0.282633 0
M  V30 5112 C 453.548 1.98938 0.332667 0
M  V30 5113 C 453.861 1.17455 1.56409 0
M  V30 5114 O 455.067 1.51527 2.25282 0
M  V30 5115 C 453.523 3.54105 0.643226 0
M  V30 5116 C 453.131 4.44374 -0.568814 0
M  V30 5117 C 454.875 4.06569 1.22074 0
M  V30 5118 C 452.782 5.90943 -0.232426 0
M  V30 5119 H 451.712 0.743043 0.128075 0
M  V30 5120 H 454.363 1.79341 -0.388464 0
M  V30 5121 H 452.745 3.69532 1.42346 0
M  V30 5122 H 453.919 4.40718 -1.34551 0
M  V30 5123 H 452.234 4.02585 -1.06369 0
M  V30 5124 H 454.831 5.13626 1.48635 0
M  V30 5125 H 455.174 3.56057 2.15707 0
M  V30 5126 H 455.707 3.94612 0.502621 0
M  V30 5127 H 452.446 6.45567 -1.13683 0
M  V30 5128 H 451.966 5.9765 0.507357 0
M  V30 5129 H 453.645 6.4677 0.172657 0
M  V30 5130 N 453.777 0.010035 1.57597 0
M  V30 5131 C 455.023 -0.673697 1.91283 0
M  V30 5132 C 455.356 -1.72863 0.884979 0
M  V30 5133 O 454.631 -1.94268 -0.0949487 0
M  V30 5134 C 454.914 -1.30766 3.35518 0
M  V30 5135 C 454.767 -0.263578 4.49027 0
M  V30 5136 C 456.086 -2.23105 3.79358 0
M  V30 5137 H 453.205 -0.243439 0.695634 0
M  V30 5138 H 455.847 0.0633864 1.89894 0
M  V30 5139 H 453.997 -1.93588 3.36832 0
M  V30 5140 H 455.669 0.365738 4.59848 0
M  V30 5141 H 453.912 0.413077 4.31829 0
M  V30 5142 H 454.583 -0.746398 5.4693 0
M  V30 5143 H 457.059 -1.70289 3.79659 0
M  V30 5144 H 455.935 -2.64424 4.81011 0
M  V30 5145 H 456.196 -3.11433 3.13787 0
M  V30 5146 N 455.255 -1.55392 -0.262866 0
M  V30 5147 C 456.504 -1.75679 -0.990943 0
M  V30 5148 C 456.817 -0.57097 -1.87081 0
M  V30 5149 O 458.023 -0.656486 -2.63444 0
M  V30 5150 C 456.479 -3.10964 -1.81188 0
M  V30 5151 C 456.087 -4.37146 -0.980188 0
M  V30 5152 C 457.831 -3.40597 -2.53365 0
M  V30 5153 C 455.738 -5.63466 -1.7961 0
M  V30 5154 H 454.668 -0.654868 -0.373716 0
M  V30 5155 H 457.319 -1.81841 -0.246203 0
M  V30 5156 H 455.701 -2.98867 -2.59797 0
M  V30 5157 H 456.875 -4.60187 -0.237558 0
M  V30 5158 H 455.19 -4.14731 -0.372497 0
M  V30 5159 H 457.787 -4.32186 -3.14833 0
M  V30 5160 H 458.13 -2.6119 -3.24169 0
M  V30 5161 H 458.663 -3.53838 -1.81779 0
M  V30 5162 H 455.402 -6.4565 -1.13209 0
M  V30 5163 H 454.922 -5.44552 -2.51443 0
M  V30 5164 H 456.601 -6.02139 -2.36723 0
M  V30 5165 N 456.733 0.527833 -1.48498 0
M  V30 5166 C 457.982 1.28003 -1.55878 0
M  V30 5167 C 458.295 1.9414 -0.238577 0
M  V30 5168 O 459.501 2.7083 -0.190643 0
M  V30 5169 C 457.957 2.32272 -2.74914 0
M  V30 5170 C 457.565 1.72196 -4.13585 0
M  V30 5171 C 459.309 3.08488 -2.91608 0
M  V30 5172 C 457.216 2.74417 -5.23879 0
M  V30 5173 H 456.146 0.481413 -0.580308 0
M  V30 5174 H 458.797 0.557195 -1.74836 0
M  V30 5175 H 457.179 3.07601 -2.49395 0
M  V30 5176 H 458.353 1.03041 -4.49132 0
M  V30 5177 H 456.668 1.08464 -4.02025 0
M  V30 5178 H 459.265 3.84879 -3.71177 0
M  V30 5179 H 459.608 3.64481 -2.01145 0
M  V30 5180 H 460.141 2.40274 -3.17038 0
M  V30 5181 H 456.88 2.23242 -6.16314 0
M  V30 5182 H 456.4 3.41893 -4.92818 0
M  V30 5183 H 458.079 3.37362 -5.52083 0
M  V30 5184 N 458.211 1.37122 0.776871 0
M  V30 5185 C 459.46 1.31373 1.53049 0
M  V30 5186 C 459.773 -0.101016 1.95339 0
M  V30 5187 O 460.979 -0.280953 2.70042 0
M  V30 5188 C 459.435 2.30567 2.76346 0
M  V30 5189 C 459.043 3.77543 2.41175 0
M  V30 5190 C 460.787 2.33818 3.54301 0
M  V30 5191 C 458.694 4.68481 3.60943 0
M  V30 5192 H 457.624 0.488234 0.574581 0
M  V30 5193 H 460.275 1.62554 0.851372 0
M  V30 5194 H 458.657 1.92396 3.46121 0
M  V30 5195 H 459.831 4.24521 1.79216 0
M  V30 5196 H 458.146 3.77187 1.76405 0
M  V30 5197 H 460.743 2.98965 4.4331 0
M  V30 5198 H 461.086 1.3503 3.93793 0
M  V30 5199 H 461.619 2.7067 2.91518 0
M  V30 5200 H 458.358 5.68378 3.26537 0
M  V30 5201 H 457.878 4.2621 4.22025 0
M  V30 5202 H 459.557 4.85366 4.27819 0
M  V30 5203 N 459.689 -1.00246 1.21608 0
M  V30 5204 C 460.639 -2.07492 0.945051 0
M  V30 5205 C 461.623 -1.60585 -0.100675 0
M  V30 5206 O 462.815 -1.76667 0.10859 0
M  V30 5207 C 459.944 -3.39425 0.514342 0
M  V30 5208 C 459.03 -3.92993 1.59428 0
M  V30 5209 N 459.421 -4.19898 2.81991 0
M  V30 5210 C 457.719 -4.21297 1.46374 0
M  V30 5211 C 458.42 -4.63297 3.51754 0
M  V30 5212 N 457.396 -4.66421 2.79199 0
M  V30 5213 H 461.198 -2.26222 1.87619 0
M  V30 5214 H 458.712 -1.18339 1.11219 0
M  V30 5215 H 460.709 -4.15808 0.301527 0
M  V30 5216 H 459.369 -3.22101 -0.410008 0
M  V30 5217 H 460.38 -4.08377 3.1851 0
M  V30 5218 H 457.057 -4.13095 0.604863 0
M  V30 5219 H 458.447 -4.92816 4.56708 0
M  V30 5220 N 461.167 -1.02423 -1.1978 0
M  V30 5221 C 462.413 -0.72878 -1.89896 0
M  V30 5222 C 462.768 0.734248 -1.77839 0
M  V30 5223 O 462.061 1.52733 -1.15685 0
M  V30 5224 C 462.255 -1.1088 -3.39765 0
M  V30 5225 C 462.084 -2.60722 -3.66407 0
M  V30 5226 C 460.854 -3.27623 -3.84696 0
M  V30 5227 C 463.052 -3.58924 -3.68345 0
M  V30 5228 N 461.034 -4.66617 -3.98926 0
M  V30 5229 C 462.405 -4.83514 -3.8809 0
M  V30 5230 C 464.46 -3.52788 -3.51347 0
M  V30 5231 C 463.163 -6.0271 -3.92598 0
M  V30 5232 C 465.189 -4.71394 -3.5713 0
M  V30 5233 C 464.551 -5.94796 -3.77356 0
M  V30 5234 H 460.65 -0.318473 -0.714212 0
M  V30 5235 H 463.234 -1.3106 -1.43984 0
M  V30 5236 H 461.405 -0.555233 -3.84411 0
M  V30 5237 H 463.137 -0.766082 -3.97383 0
M  V30 5238 H 459.892 -2.7804 -3.83393 0
M  V30 5239 H 460.316 -5.38805 -4.099 0
M  V30 5240 H 464.958 -2.58372 -3.3467 0
M  V30 5241 H 462.676 -6.97499 -4.08069 0
M  V30 5242 H 466.262 -4.6827 -3.45275 0
M  V30 5243 H 465.142 -6.85037 -3.81699 0
M  V30 5244 N 462.645 1.35699 -0.801477 0
M  V30 5245 C 463.593 2.3177 -0.196317 0
M  V30 5246 C 464.587 1.56388 0.651081 0
M  V30 5247 O 465.793 1.71557 0.544815 0
M  V30 5248 H 462.168 0.750669 -0.0447189 0
M  V30 5249 H 464.139 2.8036 -1.02181 0
M  V30 5250 C 462.888 3.41671 0.644702 0
M  V30 5251 H 462.211 3.998 0.0019921 0
M  V30 5252 H 463.651 4.11184 1.0346 0
M  V30 5253 C 462.11 2.84271 1.80808 0
M  V30 5254 O 462.64 2.77408 2.9053 0
M  V30 5255 N 460.846 2.41391 1.61799 0
M  V30 5256 H 460.393 2.47173 0.725493 0
M  V30 5257 H 460.351 2.03334 2.39797 0
M  V30 5258 N 464.123 0.554532 1.47522 0
M  V30 5259 C 465.086 -0.184174 2.28459 0
M  V30 5260 C 466.086 -0.845195 1.36796 0
M  V30 5261 O 467.276 -0.701467 1.59452 0
M  V30 5262 C 464.408 -1.26903 3.16399 0
M  V30 5263 H 465.601 0.526751 2.95238 0
M  V30 5264 H 463.154 0.311375 1.53167 0
M  V30 5265 H 463.889 -2.01244 2.54306 0
M  V30 5266 H 463.674 -0.799883 3.83854 0
M  V30 5267 H 465.164 -1.78794 3.77389 0
M  V30 5268 N 465.601 -1.54893 0.290851 0
M  V30 5269 C 466.841 -2.01842 -0.322388 0
M  V30 5270 C 467.205 -1.17477 -1.51865 0
M  V30 5271 O 468.406 -1.54077 -2.20258 0
M  V30 5272 C 466.677 -3.50874 -0.679844 0
M  V30 5273 S 468.236 -4.19796 -1.27739 0
M  V30 5274 H 465.054 -0.704005 -0.0994866 0
M  V30 5275 H 467.656 -1.91015 0.416358 0
M  V30 5276 H 466.36 -4.09915 0.199435 0
M  V30 5277 H 465.891 -3.65717 -1.44964 0
M  V30 5278 H 467.906 -4.24729 -2.56554 0
M  V30 5279 N 467.08 -0.0183926 -1.57589 0
M  V30 5280 C 468.326 0.663543 -1.91638 0
M  V30 5281 C 468.659 1.72392 -0.894134 0
M  V30 5282 O 467.934 1.94316 0.0846449 0
M  V30 5283 C 468.217 1.28984 -3.36207 0
M  V30 5284 C 468.07 0.239761 -4.49161 0
M  V30 5285 C 469.389 2.2109 -3.80536 0
M  V30 5286 H 466.508 0.239746 -0.696915 0
M  V30 5287 H 469.15 -0.073456 -1.89858 0
M  V30 5288 H 467.3 1.91799 -3.37854 0
M  V30 5289 H 468.972 -0.390119 -4.59647 0
M  V30 5290 H 467.215 -0.435972 -4.31604 0
M  V30 5291 H 467.886 0.717383 -5.47319 0
M  V30 5292 H 470.362 1.68273 -3.80557 0
M  V30 5293 H 469.238 2.61869 -4.82406 0
M  V30 5294 H 469.499 3.09764 -3.15434 0
M  V30 5295 N 468.558 1.5553 0.254621 0
M  V30 5296 C 469.805 1.77 0.983736 0
M  V30 5297 C 470.133 0.58133 1.85609 0
M  V30 5298 O 469.388 -0.435621 1.9079 0
M  V30 5299 C 469.687 3.03891 1.88109 0
M  V30 5300 C 469.353 4.35597 1.16472 0
M  V30 5301 C 468.015 4.7139 0.966714 0
M  V30 5302 C 470.367 5.1705 0.656387 0
M  V30 5303 C 467.695 5.86176 0.247942 0
M  V30 5304 C 470.047 6.32581 -0.0488807 0
M  V30 5305 C 468.711 6.67 -0.258438 0
M  V30 5306 H 467.981 0.647688 0.359974 0
M  V30 5307 H 470.628 1.89802 0.254463 0
M  V30 5308 H 468.933 2.86068 2.67717 0
M  V30 5309 H 470.63 3.17701 2.44677 0
M  V30 5310 H 467.22 4.07475 1.32899 0
M  V30 5311 H 471.404 4.8986 0.796933 0
M  V30 5312 H 466.66 6.11354 0.075035 0
M  V30 5313 H 470.834 6.94942 -0.450444 0
M  V30 5314 H 468.461 7.55793 -0.817358 0
M  V30 5315 N 470.036 -0.519951 1.48776 0
M  V30 5316 C 471.266 -1.29783 1.60748 0
M  V30 5317 C 471.674 -1.87253 0.27072 0
M  V30 5318 O 471.017 -1.67628 -0.751438 0
M  V30 5319 C 471.079 -2.47984 2.60277 0
M  V30 5320 C 470.743 -2.11526 4.051 0
M  V30 5321 C 471.74 -1.66608 4.92481 0
M  V30 5322 C 469.425 -2.21742 4.50706 0
M  V30 5323 C 471.419 -1.32384 6.23501 0
M  V30 5324 C 469.106 -1.87129 5.81744 0
M  V30 5325 C 470.104 -1.42523 6.67964 0
M  V30 5326 O 469.792 -1.0837 7.96562 0
M  V30 5327 H 469.524 -0.400562 0.544542 0
M  V30 5328 H 472.078 -0.632879 1.95407 0
M  V30 5329 H 470.308 -3.17493 2.2076 0
M  V30 5330 H 471.997 -3.10036 2.61978 0
M  V30 5331 H 472.763 -1.58178 4.58481 0
M  V30 5332 H 468.642 -2.55415 3.83776 0
M  V30 5333 H 472.186 -0.974949 6.90754 0
M  V30 5334 H 468.083 -1.95204 6.15277 0
M  V30 5335 H 468.851 -1.21681 8.09405 0
M  V30 5336 N 471.514 -1.37532 -0.769588 0
M  V30 5337 C 472.739 -1.36231 -1.56384 0
M  V30 5338 C 473.164 0.0495849 -1.88035 0
M  V30 5339 O 472.522 1.02723 -1.49391 0
M  V30 5340 C 472.57 -2.20986 -2.84952 0
M  V30 5341 O 471.674 -1.61597 -3.79421 0
M  V30 5342 H 471.015 -0.465387 -0.473615 0
M  V30 5343 H 473.545 -1.81085 -0.952342 0
M  V30 5344 H 473.555 -2.34277 -3.34034 0
M  V30 5345 H 472.23 -3.23612 -2.61243 0
M  V30 5346 H 470.807 -1.57359 -3.38072 0
M  V30 5347 N 472.992 0.995999 -1.22138 0
M  V30 5348 C 474.241 1.72928 -1.03821 0
M  V30 5349 C 474.554 1.90872 0.427444 0
M  V30 5350 O 475.76 2.61496 0.730212 0
M  V30 5351 C 474.216 3.11124 -1.80913 0
M  V30 5352 C 473.824 3.01122 -3.31707 0
M  V30 5353 C 475.568 3.8852 -1.71035 0
M  V30 5354 C 473.475 4.34453 -4.01253 0
M  V30 5355 H 472.405 0.648376 -0.384869 0
M  V30 5356 H 475.056 1.11213 -1.45959 0
M  V30 5357 H 473.438 3.73503 -1.31573 0
M  V30 5358 H 474.612 2.47926 -3.88419 0
M  V30 5359 H 472.927 2.3721 -3.42228 0
M  V30 5360 H 475.524 4.872 -2.20318 0
M  V30 5361 H 475.867 4.1087 -0.670196 0
M  V30 5362 H 476.4 3.32812 -2.17902 0
M  V30 5363 H 473.139 4.17303 -5.05508 0
M  V30 5364 H 472.659 4.87574 -3.49331 0
M  V30 5365 H 474.338 5.03215 -4.06674 0
M  V30 5366 N 474.47 1.03057 1.19235 0
M  V30 5367 C 475.695 0.74757 1.93458 0
M  V30 5368 C 476.12 -0.687648 1.7508 0
M  V30 5369 O 475.478 -1.47499 1.05422 0
M  V30 5370 C 475.526 1.10604 3.43219 0
M  V30 5371 O 474.63 0.225671 4.11782 0
M  V30 5372 H 473.971 0.276047 0.603899 0
M  V30 5373 H 476.501 1.3777 1.51263 0
M  V30 5374 H 476.511 1.06366 3.93891 0
M  V30 5375 H 475.186 2.15165 3.55917 0
M  V30 5376 H 473.763 0.326795 3.71465 0
M  V30 5377 N 475.948 -1.35272 0.808662 0
M  V30 5378 C 476.895 -2.29764 0.218482 0
M  V30 5379 C 477.865 -1.52911 -0.648652 0
M  V30 5380 O 479.05 -1.81341 -0.593297 0
M  V30 5381 C 476.19 -3.39388 -0.625282 0
M  V30 5382 C 475.303 -4.31202 0.262516 0
M  V30 5383 C 474.438 -5.27919 -0.589451 0
M  V30 5384 C 473.477 -6.11371 0.298617 0
M  V30 5385 N 472.614 -7.0022 -0.513443 0
M  V30 5386 H 477.454 -2.79645 1.02968 0
M  V30 5387 H 474.991 -1.37629 0.519303 0
M  V30 5388 H 476.949 -4.01615 -1.12966 0
M  V30 5389 H 475.579 -2.90777 -1.40173 0
M  V30 5390 H 474.631 -3.69962 0.885013 0
M  V30 5391 H 475.943 -4.89748 0.945971 0
M  V30 5392 H 475.097 -5.95529 -1.15888 0
M  V30 5393 H 473.836 -4.69875 -1.30647 0
M  V30 5394 H 472.841 -5.42707 0.880301 0
M  V30 5395 H 474.066 -6.71494 1.01352 0
M  V30 5396 H 472.012 -6.44662 -1.21439 0
M  V30 5397 H 471.929 -7.55917 0.111922 0
M  V30 5398 H 473.197 -7.72175 -1.06608 0
M  V30 5399 N 477.426 -0.562348 -1.47226 0
M  V30 5400 C 478.389 0.172056 -2.28553 0
M  V30 5401 C 479.389 0.837928 -1.37242 0
M  V30 5402 O 480.579 0.693001 -1.59822 0
M  V30 5403 C 477.711 1.25223 -3.17068 0
M  V30 5404 H 478.904 -0.542401 -2.94954 0
M  V30 5405 H 476.457 -0.319493 -1.53 0
M  V30 5406 H 477.192 1.99892 -2.55369 0
M  V30 5407 H 476.977 0.779515 -3.84273 0
M  V30 5408 H 478.467 1.76791 -3.78332 0
M  V30 5409 N 478.904 1.54736 -0.299062 0
M  V30 5410 C 480.153 1.99279 0.311549 0
M  V30 5411 C 480.466 1.19107 1.55154 0
M  V30 5412 O 481.672 1.53908 2.23662 0
M  V30 5413 C 480.128 3.54768 0.605632 0
M  V30 5414 C 479.736 4.43746 -0.615914 0
M  V30 5415 C 481.48 4.07841 1.17754 0
M  V30 5416 C 479.387 5.90663 -0.29509 0
M  V30 5417 H 478.317 0.744359 0.120187 0
M  V30 5418 H 480.968 1.78919 -0.407464 0
M  V30 5419 H 479.35 3.71021 1.38419 0
M  V30 5420 H 480.524 4.39267 -1.39218 0
M  V30 5421 H 478.839 4.01434 -1.10633 0
M  V30 5422 H 481.436 5.15174 1.43179 0
M  V30 5423 H 481.779 3.58324 2.11918 0
M  V30 5424 H 482.312 3.95123 0.460739 0
M  V30 5425 H 479.051 6.44325 -1.20524 0
M  V30 5426 H 478.571 5.98155 0.44394 0
M  V30 5427 H 480.25 6.46916 0.104048 0
M  V30 5428 N 480.382 0.0267497 1.57577 0
M  V30 5429 C 481.63 -0.651116 1.91324 0
M  V30 5430 C 481.951 -1.72804 0.90353 0
M  V30 5431 O 481.221 -1.95822 -0.0552946 0
M  V30 5432 H 479.801 -0.243491 0.706202 0
M  V30 5433 H 482.463 0.0739935 1.94759 0
M  V30 5434 H 481.559 -1.10536 2.9187 0
M  V30 5435 N 481.861 -1.55662 -0.24637 0
M  V30 5436 C 483.108 -1.77519 -0.974335 0
M  V30 5437 C 483.436 -0.591165 -1.85298 0
M  V30 5438 O 482.691 0.425497 -1.91018 0
M  V30 5439 C 482.99 -3.04885 -1.86494 0
M  V30 5440 C 482.656 -4.36209 -1.14161 0
M  V30 5441 C 481.318 -4.71896 -0.941701 0
M  V30 5442 C 483.67 -5.17391 -0.628957 0
M  V30 5443 C 480.998 -5.86299 -0.216852 0
M  V30 5444 C 483.35 -6.32546 0.0824273 0
M  V30 5445 C 482.014 -6.66853 0.293807 0
M  V30 5446 H 481.284 -0.649588 -0.356535 0
M  V30 5447 H 483.931 -1.89934 -0.244394 0
M  V30 5448 H 482.236 -2.87484 -2.66196 0
M  V30 5449 H 483.933 -3.18994 -2.42989 0
M  V30 5450 H 480.523 -4.08174 -1.30736 0
M  V30 5451 H 484.707 -4.90276 -0.770943 0
M  V30 5452 H 479.963 -6.11385 -0.0426124 0
M  V30 5453 H 484.137 -6.94693 0.487292 0
M  V30 5454 H 481.764 -7.55349 0.857428 0
M  V30 5455 N 483.339 0.512053 -1.4905 0
M  V30 5456 C 484.587 1.26436 -1.57665 0
M  V30 5457 C 484.908 1.93255 -0.260293 0
M  V30 5458 O 484.178 1.82206 0.719564 0
M  V30 5459 H 482.758 0.469658 -0.580888 0
M  V30 5460 H 485.42 0.594398 -1.85615 0
M  V30 5461 H 484.516 2.03417 -2.36702 0
M  V30 5462 N 484.817 1.37938 0.762283 0
M  V30 5463 C 485.765 1.34569 1.89721 0
M  V30 5464 C 486.759 0.232929 1.67791 0
M  V30 5465 O 487.965 0.401485 1.75465 0
M  V30 5466 H 484.34 0.419594 0.624055 0
M  V30 5467 H 486.311 2.30357 1.8968 0
M  V30 5468 C 485.06 1.17898 3.27101 0
M  V30 5469 H 484.383 2.02781 3.44558 0
M  V30 5470 H 485.823 1.19593 4.06784 0
M  V30 5471 C 484.282 -0.114728 3.36705 0
M  V30 5472 O 484.812 -1.0949 3.8649 0
M  V30 5473 N 483.018 -0.16863 2.9011 0
M  V30 5474 H 482.565 0.62967 2.49786 0
M  V30 5475 H 482.523 -1.03383 2.96916 0
M  V30 5476 N 486.295 -0.989507 1.22664 0
M  V30 5477 C 487.572 -1.70326 0.961688 0
M  V30 5478 C 487.952 -2.04537 -0.522279 0
M  V30 5479 O 487.3 -1.73136 -1.49118 0
M  V30 5480 C 487.51 -2.95135 1.86269 0
M  V30 5481 C 488.858 -3.67842 2.12078 0
M  V30 5482 O 489.882 -3.0515 1.83745 0
M  V30 5483 O 488.741 -4.80644 2.60083 0
M  V30 5484 H 485.835 -0.743589 0.361946 0
M  V30 5485 H 488.381 -1.04555 1.33665 0
M  V30 5486 H 487.153 -2.66382 2.8663 0
M  V30 5487 H 486.776 -3.68645 1.48952 0
M  V30 5488 N 487.773 -1.03688 -1.18687 0
M  V30 5489 C 489.001 -0.757918 -1.92518 0
M  V30 5490 C 489.416 0.684398 -1.75959 0
M  V30 5491 O 488.773 1.46617 -1.08673 0
M  V30 5492 C 488.824 -1.10985 -3.44042 0
M  V30 5493 O 488.545 -2.49554 -3.60076 0
M  V30 5494 C 490.046 -0.854844 -4.3498 0
M  V30 5495 H 487.266 -0.276699 -0.611293 0
M  V30 5496 H 489.81 -1.38352 -1.50595 0
M  V30 5497 H 487.965 -0.529279 -3.83767 0
M  V30 5498 H 488.379 -2.6291 -4.53849 0
M  V30 5499 H 489.853 -1.15098 -5.39867 0
M  V30 5500 H 490.33 0.210507 -4.38695 0
M  V30 5501 H 490.936 -1.41853 -4.00946 0
M  V30 5502 N 489.251 1.34841 -0.815825 0
M  V30 5503 C 490.497 1.99219 -0.410288 0
M  V30 5504 C 490.852 1.63532 1.01366 0
M  V30 5505 O 490.145 0.893093 1.69512 0
M  V30 5506 C 490.339 3.53273 -0.541541 0
M  V30 5507 C 490.168 4.03927 -1.9767 0
M  V30 5508 C 488.938 4.32852 -2.60706 0
M  V30 5509 C 491.136 4.21808 -2.9425 0
M  V30 5510 N 489.118 4.69494 -3.95536 0
M  V30 5511 C 490.489 4.6155 -4.13971 0
M  V30 5512 C 492.544 4.04038 -2.9096 0
M  V30 5513 C 491.247 4.85381 -5.30847 0
M  V30 5514 C 493.273 4.29031 -4.07046 0
M  V30 5515 C 492.635 4.69054 -5.25517 0
M  V30 5516 H 488.734 0.756494 -0.198094 0
M  V30 5517 H 491.318 1.63379 -1.05902 0
M  V30 5518 H 489.489 3.88323 0.0772544 0
M  V30 5519 H 491.221 4.04551 -0.109694 0
M  V30 5520 H 487.976 4.23503 -2.11995 0
M  V30 5521 H 488.4 4.92061 -4.64979 0
M  V30 5522 H 493.042 3.7223 -2.00512 0
M  V30 5523 H 490.76 5.16059 -6.21859 0
M  V30 5524 H 494.346 4.16826 -4.05891 0
M  V30 5525 H 493.226 4.88014 -6.1385 0
M  V30 5526 N 490.729 0.570148 1.46925 0
M  V30 5527 C 491.975 0.0510284 2.02736 0
M  V30 5528 C 492.308 -1.3006 1.44215 0
M  V30 5529 O 491.583 -1.84932 0.602521 0
M  V30 5530 C 491.866 -0.028215 3.60089 0
M  V30 5531 C 491.719 1.35142 4.29018 0
M  V30 5532 C 493.038 -0.735181 4.33916 0
M  V30 5533 H 490.157 0.0200178 0.736728 0
M  V30 5534 H 492.799 0.73493 1.75211 0
M  V30 5535 H 490.949 -0.610648 3.83671 0
M  V30 5536 H 492.621 1.97806 4.16738 0
M  V30 5537 H 490.864 1.9226 3.88868 0
M  V30 5538 H 491.535 1.24857 5.37694 0
M  V30 5539 H 494.011 -0.240519 4.15404 0
M  V30 5540 H 492.887 -0.759622 5.43618 0
M  V30 5541 H 493.148 -1.79397 4.04066 0
M  V30 5542 N 492.207 -1.54576 0.307264 0
M  V30 5543 C 493.437 -2.04378 -0.302158 0
M  V30 5544 C 493.845 -1.18381 -1.47589 0
M  V30 5545 O 493.188 -0.20352 -1.82569 0
M  V30 5546 C 493.25 -3.50133 -0.815305 0
M  V30 5547 C 492.914 -4.56401 0.233977 0
M  V30 5548 C 493.911 -5.08884 1.06456 0
M  V30 5549 C 491.596 -5.0088 0.377478 0
M  V30 5550 C 493.59 -6.04394 2.02452 0
M  V30 5551 C 491.277 -5.96208 1.34088 0
M  V30 5552 C 492.275 -6.47849 2.16288 0
M  V30 5553 O 491.963 -7.41308 3.10994 0
M  V30 5554 H 491.695 -0.672502 -0.0686839 0
M  V30 5555 H 494.249 -2.00484 0.446682 0
M  V30 5556 H 492.479 -3.51371 -1.61478 0
M  V30 5557 H 494.168 -3.83098 -1.34129 0
M  V30 5558 H 494.934 -4.75311 0.964596 0
M  V30 5559 H 490.813 -4.60309 -0.252405 0
M  V30 5560 H 494.357 -6.44626 2.66652 0
M  V30 5561 H 490.254 -6.29198 1.44154 0
M  V30 5562 H 491.022 -7.5913 3.06045 0
M  V30 5563 N 493.685 -0.035106 -1.57561 0
M  V30 5564 C 495.096 0.502885 -1.798 0
M  V30 5565 C 495.447 1.71892 -0.945921 0
M  V30 5566 O 494.572 2.15822 -0.157991 0
M  V30 5567 C 495.167 0.919097 -3.26095 0
M  V30 5568 C 493.726 1.40216 -3.49308 0
M  V30 5569 C 492.873 0.369709 -2.74824 0
M  V30 5570 H 495.824 -0.261102 -1.56537 0
M  V30 5571 H 495.845 1.78308 -3.36135 0
M  V30 5572 H 495.357 0.0338526 -3.88085 0
M  V30 5573 H 493.458 2.30714 -2.92578 0
M  V30 5574 H 493.571 1.40541 -4.58023 0
M  V30 5575 H 491.935 0.839113 -2.40481 0
M  V30 5576 H 492.718 -0.507173 -3.39533 0
M  V30 5577 N 495.163 1.55791 0.238111 0
M  V30 5578 C 496.44 1.68798 0.98826 0
M  V30 5579 C 496.82 0.577562 2.03045 0
M  V30 5580 O 496.168 -0.41778 2.24648 0
M  V30 5581 C 496.378 3.09454 1.61367 0
M  V30 5582 C 497.726 3.68335 2.11221 0
M  V30 5583 O 498.75 3.1231 1.71292 0
M  V30 5584 O 497.609 4.6657 2.84561 0
M  V30 5585 H 494.703 0.686881 0.460568 0
M  V30 5586 H 497.249 1.68118 0.231202 0
M  V30 5587 H 496.021 3.81726 0.860295 0
M  V30 5588 H 495.644 3.14182 2.4367 0
M  V30 5589 N 496.642 -0.504142 1.49319 0
M  V30 5590 C 497.891 -1.25507 1.57895 0
M  V30 5591 C 498.204 -1.93735 0.269433 0
M  V30 5592 O 499.41 -2.70492 0.233706 0
M  V30 5593 C 497.866 -2.27869 2.78574 0
M  V30 5594 C 497.474 -1.65594 4.16272 0
M  V30 5595 C 499.218 -3.0381 2.96479 0
M  V30 5596 C 497.125 -2.66048 5.28178 0
M  V30 5597 H 496.055 -0.47212 0.587894 0
M  V30 5598 H 498.706 -0.52931 1.757 0
M  V30 5599 H 497.088 -3.03594 2.54257 0
M  V30 5600 H 498.262 -0.958826 4.50714 0
M  V30 5601 H 496.577 -1.02055 4.037 0
M  V30 5602 H 499.174 -3.78925 3.77253 0
M  V30 5603 H 499.517 -3.61235 2.06918 0
M  V30 5604 H 500.05 -2.352 3.20821 0
M  V30 5605 H 496.789 -2.13408 6.19788 0
M  V30 5606 H 496.309 -3.34009 4.98195 0
M  V30 5607 H 497.988 -3.28536 5.57381 0
M  V30 5608 N 498.12 -1.38341 -0.754957 0
M  V30 5609 C 499.068 -1.35573 -1.89005 0
M  V30 5610 C 500.062 -0.241824 -1.67665 0
M  V30 5611 O 501.268 -0.410785 -1.7525 0
M  V30 5612 H 497.643 -0.422898 -0.621821 0
M  V30 5613 H 499.614 -2.31359 -1.88455 0
M  V30 5614 C 498.363 -1.19631 -3.26471 0
M  V30 5615 H 497.686 -2.04605 -3.43477 0
M  V30 5616 H 499.126 -1.21748 -4.06144 0
M  V30 5617 C 497.585 0.0968705 -3.36761 0
M  V30 5618 O 498.115 1.07439 -3.87066 0
M  V30 5619 N 496.321 0.153242 -2.90196 0
M  V30 5620 H 495.868 -0.642908 -2.49448 0
M  V30 5621 H 495.826 1.01807 -2.9746 0
M  V30 5622 N 499.598 0.982988 -1.23187 0
M  V30 5623 C 500.875 1.69814 -0.970707 0
M  V30 5624 C 501.255 2.04811 0.511424 0
M  V30 5625 O 500.603 1.73924 1.48198 0
M  V30 5626 C 500.813 2.94143 -1.87831 0
M  V30 5627 C 502.161 3.66712 -2.14026 0
M  V30 5628 O 503.185 3.04171 -1.8536 0
M  V30 5629 O 502.044 4.79258 -2.62629 0
M  V30 5630 H 499.138 0.741659 -0.365884 0
M  V30 5631 H 501.684 1.03844 -1.34218 0
M  V30 5632 H 500.456 2.64858 -2.88038 0
M  V30 5633 H 500.079 3.6785 -1.50905 0
M  V30 5634 N 501.076 1.04316 1.18135 0
M  V30 5635 C 502.487 0.775505 1.69832 0
M  V30 5636 C 502.838 -0.703348 1.8316 0
M  V30 5637 O 501.963 -1.54729 1.51287 0
M  V30 5638 C 502.558 1.40112 3.0847 0
M  V30 5639 C 501.117 1.18172 3.57368 0
M  V30 5640 C 500.264 1.49022 2.33854 0
M  V30 5641 H 503.215 1.20925 1.02775 0
M  V30 5642 H 503.236 0.805672 3.71873 0
M  V30 5643 H 502.748 2.47744 2.98738 0
M  V30 5644 H 500.849 0.124258 3.72393 0
M  V30 5645 H 500.962 1.8805 4.40652 0
M  V30 5646 H 499.326 0.909995 2.37889 0
M  V30 5647 H 500.109 2.57768 2.26738 0
M  V30 5648 N 502.554 -1.34406 0.822964 0
M  V30 5649 C 503.464 -2.33298 0.246838 0
M  V30 5650 C 504.48 -1.62625 -0.618797 0
M  V30 5651 O 505.656 -1.94391 -0.526685 0
M  V30 5652 C 502.721 -3.41785 -0.581731 0
M  V30 5653 C 501.782 -4.28206 0.306309 0
M  V30 5654 C 501.015 -5.31512 -0.48281 0
M  V30 5655 O 501.238 -5.43973 -1.71607 0
M  V30 5656 O 500.172 -6.01749 0.134884 0
M  V30 5657 H 503.998 -2.84401 1.06534 0
M  V30 5658 H 501.583 -1.37466 0.585108 0
M  V30 5659 H 503.465 -4.08028 -1.05313 0
M  V30 5660 H 502.14 -2.92925 -1.37756 0
M  V30 5661 H 501.047 -3.64885 0.825199 0
M  V30 5662 H 502.38 -4.80507 1.06649 0
M  V30 5663 N 504.032 -0.577932 -1.46621 0
M  V30 5664 C 505.279 -0.0616879 -2.02406 0
M  V30 5665 C 505.607 1.29638 -1.44997 0
M  V30 5666 O 504.862 1.86176 -0.60308 0
M  V30 5667 C 505.161 0.0590832 -3.57351 0
M  V30 5668 C 504.827 -1.23077 -4.33777 0
M  V30 5669 C 503.489 -1.58416 -4.54376 0
M  V30 5670 C 505.841 -2.08457 -4.77698 0
M  V30 5671 C 503.169 -2.78943 -5.16147 0
M  V30 5672 C 505.521 -3.28204 -5.408 0
M  V30 5673 C 504.185 -3.63832 -5.59627 0
M  V30 5674 H 503.455 -0.0225732 -0.740656 0
M  V30 5675 H 506.102 -0.753609 -1.76048 0
M  V30 5676 H 504.407 0.834104 -3.82818 0
M  V30 5677 H 506.104 0.474202 -3.98186 0
M  V30 5678 H 502.694 -0.945652 -4.18038 0
M  V30 5679 H 506.878 -1.82459 -4.61544 0
M  V30 5680 H 502.134 -3.06689 -5.28916 0
M  V30 5681 H 506.308 -3.94634 -5.73792 0
M  V30 5682 H 503.935 -4.57315 -6.07262 0
M  V30 5683 N 505.51 1.54411 -0.315457 0
M  V30 5684 C 506.758 2.00023 0.288971 0
M  V30 5685 C 507.079 1.20529 1.5329 0
M  V30 5686 O 506.349 0.304986 1.93511 0
M  V30 5687 H 504.929 0.738891 0.109766 0
M  V30 5688 H 507.591 1.90094 -0.430129 0
M  V30 5689 H 506.687 3.07198 0.550999 0
M  V30 5690 N 506.988 0.0434614 1.5754 0
M  V30 5691 C 508.404 -0.313039 1.565 0
M  V30 5692 C 508.604 -1.71954 1.05043 0
M  V30 5693 O 507.66 -2.425 0.703564 0
M  V30 5694 C 508.973 -0.148544 3.00333 0
M  V30 5695 C 510.521 -0.220231 3.12224 0
M  V30 5696 C 510.996 -0.0843565 4.57922 0
M  V30 5697 N 512.487 -0.140881 4.62986 0
M  V30 5698 C 513.222 -0.0597443 5.73369 0
M  V30 5699 N 512.718 0.0733004 6.92761 0
M  V30 5700 N 514.511 -0.11477 5.61983 0
M  V30 5701 H 506.662 0.96303 1.89313 0
M  V30 5702 H 508.925 0.373164 0.871466 0
M  V30 5703 H 508.631 0.820894 3.41986 0
M  V30 5704 H 508.505 -0.912798 3.65989 0
M  V30 5705 H 510.892 -1.18014 2.70475 0
M  V30 5706 H 510.973 0.574646 2.49262 0
M  V30 5707 H 510.617 0.872192 5.00355 0
M  V30 5708 H 510.547 -0.898281 5.18882 0
M  V30 5709 H 513.038 -0.243273 3.77116 0
M  V30 5710 H 513.351 0.128128 7.72694 0
M  V30 5711 H 511.696 0.10828 6.94916 0
M  V30 5712 H 514.887 -0.217212 4.67596 0
M  V30 5713 H 515.06 -0.0480779 6.47982 0
M  V30 5714 N 508.466 -1.55915 -0.229846 0
M  V30 5715 C 509.396 -1.94754 -1.28815 0
M  V30 5716 C 510.377 -0.814657 -1.49323 0
M  V30 5717 O 511.562 -1.07631 -1.61645 0
M  V30 5718 C 508.692 -2.25705 -2.63959 0
M  V30 5719 C 507.646 -3.41406 -2.5812 0
M  V30 5720 C 506.972 -3.57941 -3.97218 0
M  V30 5721 C 508.272 -4.76616 -2.13623 0
M  V30 5722 H 509.966 -2.83404 -0.965547 0
M  V30 5723 H 507.512 -1.36353 -0.463028 0
M  V30 5724 H 509.465 -2.51467 -3.38146 0
M  V30 5725 H 508.189 -1.339 -2.9789 0
M  V30 5726 H 506.848 -3.1568 -1.86391 0
M  V30 5727 H 506.496 -2.63526 -4.28443 0
M  V30 5728 H 506.196 -4.35757 -3.94195 0
M  V30 5729 H 507.72 -3.86042 -4.73079 0
M  V30 5730 H 509.134 -5.01637 -2.77549 0
M  V30 5731 H 507.531 -5.57655 -2.21677 0
M  V30 5732 H 508.601 -4.7253 -1.08829 0
M  V30 5733 N 509.944 0.496216 -1.49584 0
M  V30 5734 C 510.907 1.57952 -1.66084 0
M  V30 5735 C 511.907 1.51729 -0.53244 0
M  V30 5736 O 513.097 1.54796 -0.79899 0
M  V30 5737 C 510.229 2.97604 -1.66268 0
M  V30 5738 H 511.422 1.44649 -2.6271 0
M  V30 5739 H 508.975 0.7208 -1.38687 0
M  V30 5740 H 509.71 3.16378 -0.712432 0
M  V30 5741 H 509.495 3.03528 -2.4822 0
M  V30 5742 H 510.985 3.76301 -1.81073 0
M  V30 5743 N 511.423 1.38739 0.74761 0
M  V30 5744 C 512.839 1.20067 1.05148 0
M  V30 5745 C 513.039 0.0534835 2.01429 0
M  V30 5746 O 512.095 -0.59886 2.45296 0
M  V30 5747 C 513.408 2.52957 1.62584 0
M  V30 5748 C 514.956 2.59692 1.74726 0
M  V30 5749 C 515.431 3.92772 2.35573 0
M  V30 5750 N 516.922 3.94343 2.42997 0
M  V30 5751 C 517.657 4.9408 2.90985 0
M  V30 5752 N 517.153 6.04214 3.38965 0
M  V30 5753 N 518.946 4.81466 2.9008 0
M  V30 5754 H 511.097 2.12121 0.108808 0
M  V30 5755 H 513.36 0.941491 0.110899 0
M  V30 5756 H 513.066 3.37389 0.993051 0
M  V30 5757 H 512.94 2.71779 2.61565 0
M  V30 5758 H 515.327 1.75651 2.3713 0
M  V30 5759 H 515.408 2.44731 0.744326 0
M  V30 5760 H 515.052 4.77238 1.738 0
M  V30 5761 H 514.982 4.05046 3.36519 0
M  V30 5762 H 517.473 3.14799 2.0907 0
M  V30 5763 H 517.786 6.76241 3.74056 0
M  V30 5764 H 516.131 6.07825 3.37007 0
M  V30 5765 H 519.322 3.94535 2.51912 0
M  V30 5766 H 519.495 5.59344 3.27166 0
M  V30 5767 N 512.901 -0.976442 1.23707 0
M  V30 5768 C 513.848 -2.06952 1.02174 0
M  V30 5769 C 514.818 -1.65984 -0.0621034 0
M  V30 5770 O 516.003 -1.90584 0.0907906 0
M  V30 5771 C 513.143 -3.39425 0.62327 0
M  V30 5772 C 512.256 -3.9364 1.77966 0
M  V30 5773 C 511.391 -5.14343 1.3276 0
M  V30 5774 C 510.43 -5.60733 2.45449 0
M  V30 5775 N 509.567 -6.72662 2.01172 0
M  V30 5776 H 514.407 -2.24704 1.95734 0
M  V30 5777 H 511.944 -1.10143 0.975034 0
M  V30 5778 H 513.902 -4.15526 0.37332 0
M  V30 5779 H 512.532 -3.21624 -0.275329 0
M  V30 5780 H 511.584 -3.14258 2.14351 0
M  V30 5781 H 512.896 -4.24035 2.62671 0
M  V30 5782 H 512.05 -5.97789 1.03601 0
M  V30 5783 H 510.789 -4.8561 0.450975 0
M  V30 5784 H 509.794 -4.75865 2.75378 0
M  V30 5785 H 511.019 -5.91483 3.33654 0
M  V30 5786 H 508.965 -6.45681 1.15895 0
M  V30 5787 H 508.882 -7.02462 2.79434 0
M  V30 5788 H 510.15 -7.59572 1.75129 0
M  V30 5789 N 514.379 -1.04941 -1.1758 0
M  V30 5790 C 515.609 -0.777166 -1.91425 0
M  V30 5791 C 516.017 0.670647 -1.76915 0
M  V30 5792 O 515.36 1.46965 -1.10213 0
M  V30 5793 C 515.422 -1.07495 -3.43052 0
M  V30 5794 C 515.086 -2.51844 -3.81345 0
M  V30 5795 C 516.083 -3.50047 -3.844 0
M  V30 5796 C 513.768 -2.86787 -4.12382 0
M  V30 5797 C 515.762 -4.81239 -4.17957 0
M  V30 5798 C 513.449 -4.18182 -4.45608 0
M  V30 5799 C 514.447 -5.15219 -4.48373 0
M  V30 5800 O 514.135 -6.44258 -4.80819 0
M  V30 5801 H 513.867 -0.282209 -0.614275 0
M  V30 5802 H 516.421 -1.40258 -1.50056 0
M  V30 5803 H 514.651 -0.392437 -3.84704 0
M  V30 5804 H 516.34 -0.78912 -3.98155 0
M  V30 5805 H 517.106 -3.24391 -3.60548 0
M  V30 5806 H 512.985 -2.11922 -4.09402 0
M  V30 5807 H 516.529 -5.56974 -4.2003 0
M  V30 5808 H 512.426 -4.43602 -4.68922 0
M  V30 5809 H 513.194 -6.49041 -4.98686 0
M  V30 5810 N 515.857 1.33968 -0.830081 0
M  V30 5811 C 517.103 1.98357 -0.422191 0
M  V30 5812 C 517.436 1.65633 1.01387 0
M  V30 5813 O 516.711 0.931648 1.70735 0
M  V30 5814 C 516.994 3.54492 -0.633043 0
M  V30 5815 C 516.847 3.96934 -2.11574 0
M  V30 5816 C 518.166 4.40039 -0.0735584 0
M  V30 5817 H 515.285 0.720544 -0.154871 0
M  V30 5818 H 517.927 1.58749 -1.04397 0
M  V30 5819 H 516.077 3.88361 -0.103775 0
M  V30 5820 H 517.749 3.73363 -2.7092 0
M  V30 5821 H 515.992 3.46984 -2.60354 0
M  V30 5822 H 516.663 5.05651 -2.21406 0
M  V30 5823 H 519.139 4.12764 -0.52585 0
M  V30 5824 H 518.015 5.48327 -0.250841 0
M  V30 5825 H 518.276 4.30124 1.02202 0
M  V30 5826 N 517.335 0.585699 1.46312 0
M  V30 5827 C 518.565 0.0780166 2.06453 0
M  V30 5828 C 518.973 -1.2336 1.43454 0
M  V30 5829 O 518.316 -1.75734 0.535086 0
M  V30 5830 C 518.378 -0.158951 3.59148 0
M  V30 5831 C 518.042 1.06752 4.44357 0
M  V30 5832 C 519.039 1.98031 4.80708 0
M  V30 5833 C 516.724 1.2902 4.85447 0
M  V30 5834 C 518.718 3.09924 5.5698 0
M  V30 5835 C 516.405 2.41218 5.61478 0
M  V30 5836 C 517.403 3.31499 5.97158 0
M  V30 5837 O 517.091 4.41747 6.71651 0
M  V30 5838 H 516.823 0.0558894 0.673686 0
M  V30 5839 H 519.377 0.806994 1.88883 0
M  V30 5840 H 517.607 -0.942575 3.75037 0
M  V30 5841 H 519.296 -0.615513 4.01206 0
M  V30 5842 H 520.062 1.82043 4.49539 0
M  V30 5843 H 515.941 0.596567 4.57124 0
M  V30 5844 H 519.485 3.80415 5.84748 0
M  V30 5845 H 515.382 2.57167 5.9206 0
M  V30 5846 H 516.15 4.40152 6.90079 0
M  V30 5847 N 518.813 -1.54241 0.323641 0
M  V30 5848 C 520.038 -2.05452 -0.283605 0
M  V30 5849 C 520.463 -1.19823 -1.44997 0
M  V30 5850 O 519.821 -0.207358 -1.8011 0
M  V30 5851 C 519.869 -3.53823 -0.695795 0
M  V30 5852 O 518.973 -3.71134 -1.79815 0
M  V30 5853 H 518.314 -0.662024 -0.0511917 0
M  V30 5854 H 520.844 -1.99079 0.472073 0
M  V30 5855 H 520.854 -3.96094 -0.978434 0
M  V30 5856 H 519.529 -4.15602 0.157287 0
M  V30 5857 H 518.106 -3.40768 -1.51431 0
M  V30 5858 N 520.291 -0.0518155 -1.57515 0
M  V30 5859 C 521.221 0.920283 -2.146 0
M  V30 5860 C 522.202 1.32406 -1.06783 0
M  V30 5861 O 523.387 1.39866 -1.34726 0
M  V30 5862 C 520.517 2.1949 -2.6915 0
M  V30 5863 C 519.471 1.93116 -3.81956 0
M  V30 5864 C 518.797 3.27037 -4.23026 0
M  V30 5865 C 520.097 1.25225 -5.07066 0
M  V30 5866 H 521.791 0.444801 -2.96077 0
M  V30 5867 H 519.337 0.212508 -1.42423 0
M  V30 5868 H 521.29 2.87894 -3.07725 0
M  V30 5869 H 520.014 2.69244 -1.84865 0
M  V30 5870 H 518.673 1.27123 -3.43854 0
M  V30 5871 H 518.321 3.74595 -3.3569 0
M  V30 5872 H 518.021 3.10189 -4.99056 0
M  V30 5873 H 519.545 3.96673 -4.64202 0
M  V30 5874 H 520.959 1.83666 -5.43083 0
M  V30 5875 H 519.356 1.18702 -5.88243 0
M  V30 5876 H 520.426 0.228382 -4.84362 0
M  V30 5877 N 521.769 1.56035 0.221574 0
M  V30 5878 C 522.999 1.82864 0.961468 0
M  V30 5879 C 523.407 0.628703 1.78449 0
M  V30 5880 O 522.75 -0.412109 1.79018 0
M  V30 5881 C 522.812 3.03425 1.92804 0
M  V30 5882 C 522.476 4.38429 1.28954 0
M  V30 5883 C 523.473 5.15441 0.679431 0
M  V30 5884 C 521.158 4.85151 1.30131 0
M  V30 5885 C 523.152 6.37337 0.0896148 0
M  V30 5886 C 520.839 6.06989 0.707651 0
M  V30 5887 C 521.837 6.82923 0.102855 0
M  V30 5888 O 521.525 8.02456 -0.48157 0
M  V30 5889 H 521.257 0.611883 0.28736 0
M  V30 5890 H 523.811 2.0397 0.241932 0
M  V30 5891 H 522.041 2.78138 2.68656 0
M  V30 5892 H 523.73 3.17127 2.53348 0
M  V30 5893 H 524.496 4.80452 0.662661 0
M  V30 5894 H 520.375 4.26021 1.76145 0
M  V30 5895 H 523.919 6.96547 -0.383069 0
M  V30 5896 H 519.816 6.41451 0.721834 0
M  V30 5897 H 520.584 8.17636 -0.375887 0
M  V30 5898 N 523.247 -0.488276 1.49845 0
M  V30 5899 C 524.493 -1.24065 1.61182 0
M  V30 5900 C 524.848 -1.9004 0.300435 0
M  V30 5901 O 524.141 -1.78341 -0.700365 0
M  V30 5902 C 524.335 -2.32152 2.71735 0
M  V30 5903 C 524.164 -1.76778 4.13497 0
M  V30 5904 C 522.934 -1.57513 4.80123 0
M  V30 5905 C 525.132 -1.27242 4.98311 0
M  V30 5906 N 523.114 -0.972015 6.06156 0
M  V30 5907 C 524.485 -0.791457 6.14928 0
M  V30 5908 C 526.54 -1.15934 4.84214 0
M  V30 5909 C 525.243 -0.208593 7.18997 0
M  V30 5910 C 527.269 -0.590436 5.88445 0
M  V30 5911 C 526.631 -0.119767 7.04298 0
M  V30 5912 H 522.73 -0.443487 0.644083 0
M  V30 5913 H 525.314 -0.545551 1.86901 0
M  V30 5914 H 523.485 -2.99108 2.47768 0
M  V30 5915 H 525.217 -2.99187 2.72523 0
M  V30 5916 H 521.972 -1.82247 4.37131 0
M  V30 5917 H 522.396 -0.689367 6.73481 0
M  V30 5918 H 527.038 -1.5092 3.94947 0
M  V30 5919 H 524.756 0.153501 8.07954 0
M  V30 5920 H 528.342 -0.505548 5.79599 0
M  V30 5921 H 527.222 0.313568 7.83573 0
M  V30 5922 N 524.725 -1.39134 -0.740242 0
M  V30 5923 C 525.95 -1.39518 -1.53459 0
M  V30 5924 C 526.375 0.00968883 -1.88098 0
M  V30 5925 O 525.733 0.995312 -1.51536 0
M  V30 5926 C 525.781 -2.26981 -2.802 0
M  V30 5927 O 524.885 -1.69609 -3.75908 0
M  V30 5928 H 524.226 -0.475328 -0.463637 0
M  V30 5929 H 526.756 -1.83064 -0.913717 0
M  V30 5930 H 526.766 -2.41309 -3.28989 0
M  V30 5931 H 525.441 -3.29081 -2.5432 0
M  V30 5932 H 524.018 -1.64495 -3.34658 0
M  V30 5933 N 526.204 0.969867 -1.24223 0
M  V30 5934 C 527.432 1.74756 -1.10761 0
M  V30 5935 C 527.847 1.85713 0.340041 0
M  V30 5936 O 527.204 1.34389 1.23474 0
M  V30 5937 C 527.255 3.16915 -1.73917 0
M  V30 5938 O 526.976 3.06511 -3.13021 0
M  V30 5939 C 528.477 4.11032 -1.66036 0
M  V30 5940 H 525.697 0.548092 -0.387087 0
M  V30 5941 H 528.241 1.2178 -1.64286 0
M  V30 5942 H 526.396 3.66884 -1.244 0
M  V30 5943 H 526.81 3.96079 -3.43834 0
M  V30 5944 H 528.284 5.08446 -2.14911 0
M  V30 5945 H 528.761 4.34785 -0.621159 0
M  V30 5946 H 529.367 3.66972 -2.14969 0
M  V30 5947 N 527.682 1.05563 1.17022 0
M  V30 5948 C 528.612 0.681026 2.23348 0
M  V30 5949 C 529.593 -0.322983 1.67005 0
M  V30 5950 O 530.778 -0.199746 1.9317 0
M  V30 5951 C 527.908 0.0589053 3.4725 0
M  V30 5952 C 526.862 0.988082 4.16438 0
M  V30 5953 C 526.188 0.229646 5.34207 0
M  V30 5954 C 527.488 2.31388 4.68249 0
M  V30 5955 H 529.182 1.56993 2.54938 0
M  V30 5956 H 526.728 0.756302 1.2254 0
M  V30 5957 H 528.681 -0.214982 4.20851 0
M  V30 5958 H 527.405 -0.864968 3.14938 0
M  V30 5959 H 526.064 1.24659 3.44754 0
M  V30 5960 H 525.712 -0.697111 4.98146 0
M  V30 5961 H 525.412 0.848815 5.81437 0
M  V30 5962 H 526.936 -0.0368694 6.10589 0
M  V30 5963 H 528.35 2.09964 5.33468 0
M  V30 5964 H 526.747 2.88736 5.26072 0
M  V30 5965 H 527.817 2.94982 3.84855 0
M  V30 5966 N 529.16 -1.33526 0.837174 0
M  V30 5967 C 530.388 -2.02047 0.445494 0
M  V30 5968 C 530.803 -1.62995 -0.952788 0
M  V30 5969 O 530.16 -0.842447 -1.61892 0
M  V30 5970 C 530.211 -3.57221 0.554577 0
M  V30 5971 O 529.932 -3.94863 1.89776 0
M  V30 5972 C 531.433 -4.43012 0.159634 0
M  V30 5973 H 528.653 -0.647221 0.177048 0
M  V30 5974 H 531.197 -1.70492 1.12928 0
M  V30 5975 H 529.352 -3.87315 -0.0812781 0
M  V30 5976 H 529.766 -4.89569 1.88208 0
M  V30 5977 H 531.24 -5.51253 0.28701 0
M  V30 5978 H 531.717 -4.29916 -0.898289 0
M  V30 5979 H 532.323 -4.18274 0.769855 0
M  V30 5980 N 530.638 -0.59345 -1.46 0
M  V30 5981 C 531.568 0.121192 -2.33185 0
M  V30 5982 C 532.549 0.872977 -1.4599 0
M  V30 5983 O 533.734 0.846321 -1.74789 0
M  V30 5984 C 530.864 1.12844 -3.28456 0
M  V30 5985 C 529.818 0.4908 -4.25177 0
M  V30 5986 C 529.144 1.60529 -5.10034 0
M  V30 5987 C 530.444 -0.578949 -5.19081 0
M  V30 5988 H 532.138 -0.606767 -2.93187 0
M  V30 5989 H 529.684 -0.293242 -1.40983 0
M  V30 5990 H 531.637 1.63684 -3.88311 0
M  V30 5991 H 530.361 1.88681 -2.66584 0
M  V30 5992 H 529.02 0.00339328 -3.666 0
M  V30 5993 H 528.668 2.35359 -4.44539 0
M  V30 5994 H 528.368 1.18422 -5.75543 0
M  V30 5995 H 529.892 2.11623 -5.72755 0
M  V30 5996 H 531.306 -0.155199 -5.7309 0
M  V30 5997 H 529.703 -0.920947 -5.92991 0
M  V30 5998 H 530.773 -1.46109 -4.62364 0
M  V30 5999 N 532.116 1.54067 -0.331816 0
M  V30 6000 C 533.344 2.05131 0.269996 0
M  V30 6001 C 533.759 1.20749 1.45138 0
M  V30 6002 O 533.116 0.240069 1.80914 0
M  V30 6003 C 533.167 3.54728 0.696456 0
M  V30 6004 O 532.888 4.35906 -0.43794 0
M  V30 6005 C 534.389 4.21916 1.36021 0
M  V30 6006 H 531.609 0.668807 0.0542042 0
M  V30 6007 H 534.153 1.98777 -0.4804 0
M  V30 6008 H 532.308 3.61342 1.39681 0
M  V30 6009 H 532.722 5.24404 -0.100334 0
M  V30 6010 H 534.196 5.28015 1.60947 0
M  V30 6011 H 534.673 3.73538 2.31011 0
M  V30 6012 H 535.279 4.19463 0.702212 0
M  V30 6013 N 533.594 0.0601682 1.57485 0
M  V30 6014 C 534.822 -0.620937 1.97363 0
M  V30 6015 C 535.237 -1.63846 0.938082 0
M  V30 6016 O 534.594 -1.82339 -0.0766578 0
M  V30 6017 C 534.645 -1.29987 3.37321 0
M  V30 6018 O 534.366 -0.323081 4.36907 0
M  V30 6019 C 535.867 -2.06989 3.92008 0
M  V30 6020 H 533.087 -0.169135 0.649334 0
M  V30 6021 H 535.631 0.129132 2.04092 0
M  V30 6022 H 533.786 -2.0011 3.31715 0
M  V30 6023 H 534.2 -0.808754 5.18227 0
M  V30 6024 H 535.674 -2.49901 4.92192 0
M  V30 6025 H 536.151 -2.92173 3.2792 0
M  V30 6026 H 536.757 -1.41757 4.0098 0
M  V30 6027 N 535.072 -1.5615 -0.213296 0
M  V30 6028 C 536.321 -1.78743 -0.93455 0
M  V30 6029 C 536.634 -0.630199 -1.8517 0
M  V30 6030 O 537.84 -0.739966 -2.61222 0
M  V30 6031 C 536.296 -3.16571 -1.71203 0
M  V30 6032 C 535.904 -4.40043 -0.840617 0
M  V30 6033 C 537.648 -3.48485 -2.42401 0
M  V30 6034 C 535.555 -5.68895 -1.61592 0
M  V30 6035 H 534.485 -0.666426 -0.352692 0
M  V30 6036 H 537.136 -1.82532 -0.188227 0
M  V30 6037 H 535.518 -3.06981 -2.50157 0
M  V30 6038 H 536.692 -4.6071 -0.0910326 0
M  V30 6039 H 535.007 -4.15706 -0.240365 0
M  V30 6040 H 537.604 -4.41983 -3.00924 0
M  V30 6041 H 537.947 -2.71371 -3.15695 0
M  V30 6042 H 538.48 -3.59442 -1.7043 0
M  V30 6043 H 535.219 -6.48925 -0.926106 0
M  V30 6044 H 534.739 -5.52275 -2.33991 0
M  V30 6045 H 536.418 -6.09365 -2.17447 0
M  V30 6046 N 536.55 0.480323 -1.50102 0
M  V30 6047 C 537.798 1.23063 -1.60312 0
M  V30 6048 C 538.119 1.92659 -0.301226 0
M  V30 6049 O 537.389 1.83691 0.680753 0
M  V30 6050 H 535.969 0.457231 -0.590719 0
M  V30 6051 H 538.631 0.554893 -1.86834 0
M  V30 6052 H 537.727 1.9835 -2.40964 0
M  V30 6053 N 538.028 1.39524 0.732853 0
M  V30 6054 C 538.938 1.40695 1.87729 0
M  V30 6055 C 539.954 0.301496 1.71368 0
M  V30 6056 O 541.13 0.543313 1.93933 0
M  V30 6057 C 538.195 1.25098 3.23344 0
M  V30 6058 C 537.256 2.45634 3.52083 0
M  V30 6059 C 536.489 2.30772 4.81228 0
M  V30 6060 O 536.712 1.31233 5.55098 0
M  V30 6061 O 535.646 3.19799 5.09914 0
M  V30 6062 H 539.472 2.37168 1.89697 0
M  V30 6063 H 537.057 1.20663 0.880959 0
M  V30 6064 H 538.939 1.18541 4.04383 0
M  V30 6065 H 537.614 0.317209 3.22142 0
M  V30 6066 H 536.521 2.57767 2.71122 0
M  V30 6067 H 537.854 3.37712 3.58066 0
M  V30 6068 N 539.506 -0.963266 1.24736 0
M  V30 6069 C 540.734 -1.74166 1.11686 0
M  V30 6070 C 541.149 -1.8589 -0.330187 0
M  V30 6071 O 540.506 -1.35042 -1.2276 0
M  V30 6072 C 540.557 -3.15989 1.75595 0
M  V30 6073 O 540.278 -3.04847 3.14642 0
M  V30 6074 C 541.779 -4.10145 1.68213 0
M  V30 6075 H 538.999 -0.546031 0.389989 0
M  V30 6076 H 541.543 -1.20907 1.64929 0
M  V30 6077 H 539.698 -3.66219 1.26343 0
M  V30 6078 H 540.112 -3.9425 3.4593 0
M  V30 6079 H 541.586 -5.07299 2.17604 0
M  V30 6080 H 542.063 -4.3445 0.644208 0
M  V30 6081 H 542.669 -3.65827 2.16912 0
M  V30 6082 N 540.985 -1.06182 -1.16461 0
M  V30 6083 C 542.396 -0.802426 -1.68576 0
M  V30 6084 C 542.747 0.67412 -1.84255 0
M  V30 6085 O 541.872 1.52303 -1.5373 0
M  V30 6086 C 542.467 -1.45002 -3.06202 0
M  V30 6087 C 541.026 -1.23843 -3.55443 0
M  V30 6088 C 540.173 -1.52724 -2.31454 0
M  V30 6089 H 543.124 -1.22545 -1.00839 0
M  V30 6090 H 543.145 -0.864731 -3.70544 0
M  V30 6091 H 542.657 -2.52466 -2.94759 0
M  V30 6092 H 540.758 -0.183487 -3.72148 0
M  V30 6093 H 540.871 -1.95036 -4.37604 0
M  V30 6094 H 539.235 -0.947726 -2.36411 0
M  V30 6095 H 540.018 -2.61343 -2.22609 0
M  V30 6096 N 542.463 1.3308 -0.844243 0
M  V30 6097 C 543.874 1.7992 -0.498566 0
M  V30 6098 C 544.225 1.69808 0.982834 0
M  V30 6099 O 543.35 1.25051 1.7661 0
M  V30 6100 C 543.945 3.26677 -0.898204 0
M  V30 6101 C 542.504 3.71513 -0.604583 0
M  V30 6102 C 541.651 2.54393 -1.10362 0
M  V30 6103 H 544.602 1.20526 -1.03244 0
M  V30 6104 H 544.623 3.79918 -0.21039 0
M  V30 6105 H 544.135 3.34004 -1.97643 0
M  V30 6106 H 542.236 3.69708 0.46335 0
M  V30 6107 H 542.349 4.64755 -1.16358 0
M  V30 6108 H 540.713 2.49246 -0.524273 0
M  V30 6109 H 541.496 2.6448 -2.18873 0
M  V30 6110 N 543.941 0.601185 1.45683 0
M  V30 6111 C 545.352 0.179659 1.85834 0
M  V30 6112 C 545.703 -1.26189 1.50236 0
M  V30 6113 O 544.828 -1.95587 0.925987 0
M  V30 6114 C 545.423 0.319277 3.37292 0
M  V30 6115 C 543.982 -0.0475092 3.7637 0
M  V30 6116 C 543.129 0.646692 2.69654 0
M  V30 6117 H 546.08 0.808268 1.36575 0
M  V30 6118 H 546.101 -0.4503 3.77826 0
M  V30 6119 H 545.613 1.36855 3.6317 0
M  V30 6120 H 543.714 -1.0962 3.5611 0
M  V30 6121 H 543.827 0.34168 4.7788 0
M  V30 6122 H 542.191 0.0849971 2.54558 0
M  V30 6123 H 542.974 1.69797 2.98369 0
M  V30 6124 N 545.419 -1.53889 0.339982 0
M  V30 6125 C 546.665 -2.01152 -0.258003 0
M  V30 6126 C 546.998 -1.22749 -1.50487 0
M  V30 6127 O 546.273 -0.314156 -1.91946 0
M  V30 6128 C 546.556 -3.55468 -0.575717 0
M  V30 6129 C 546.409 -4.44584 0.682996 0
M  V30 6130 C 547.728 -4.1768 -1.38677 0
M  V30 6131 H 544.847 -0.731198 -0.0922992 0
M  V30 6132 H 547.489 -1.84352 0.459814 0
M  V30 6133 H 545.639 -3.69914 -1.18725 0
M  V30 6134 H 547.311 -4.41981 1.32102 0
M  V30 6135 H 545.554 -4.13592 1.3086 0
M  V30 6136 H 546.225 -5.5043 0.416001 0
M  V30 6137 H 548.701 -4.0691 -0.869705 0
M  V30 6138 H 547.577 -5.25734 -1.57783 0
M  V30 6139 H 547.838 -3.72069 -2.38782 0
M  V30 6140 N 546.897 -0.0685191 -1.57451 0
M  V30 6141 C 548.313 0.288101 -1.56978 0
M  V30 6142 C 548.513 1.70262 -1.07765 0
M  V30 6143 O 547.569 2.4135 -0.742054 0
M  V30 6144 C 548.882 0.100745 -3.00531 0
M  V30 6145 C 550.43 0.170531 -3.12535 0
M  V30 6146 C 550.905 0.0114944 -4.57999 0
M  V30 6147 N 552.396 0.0672065 -4.63151 0
M  V30 6148 C 553.131 -0.0314813 -5.73391 0
M  V30 6149 N 552.627 -0.183503 -6.92557 0
M  V30 6150 N 554.42 0.0253489 -5.62094 0
M  V30 6151 H 546.571 -0.993026 -1.87757 0
M  V30 6152 H 548.834 -0.386981 -0.865419 0
M  V30 6153 H 548.54 -0.875197 -3.40636 0
M  V30 6154 H 548.414 0.854457 -3.67395 0
M  V30 6155 H 550.801 1.13696 -2.72318 0
M  V30 6156 H 550.882 -0.614229 -2.48316 0
M  V30 6157 H 550.526 -0.951684 -4.98904 0
M  V30 6158 H 550.456 0.815617 -5.20245 0
M  V30 6159 H 552.947 0.183246 -3.77455 0
M  V30 6160 H 553.26 -0.251041 -7.72392 0
M  V30 6161 H 551.605 -0.218822 -6.94655 0
M  V30 6162 H 554.796 0.142794 -4.67882 0
M  V30 6163 H 554.969 -0.0550166 -6.47977 0
M  V30 6164 N 548.375 1.56261 0.205012 0
M  V30 6165 C 549.652 1.70856 0.952233 0
M  V30 6166 C 550.032 0.620501 2.01775 0
M  V30 6167 O 549.38 -0.370035 2.25484 0
M  V30 6168 C 549.59 3.12807 1.54767 0
M  V30 6169 C 550.938 3.72733 2.0336 0
M  V30 6170 O 551.962 3.15873 1.64629 0
M  V30 6171 O 550.821 4.72501 2.746 0
M  V30 6172 H 547.915 0.696496 0.445895 0
M  V30 6173 H 550.461 1.6857 0.195489 0
M  V30 6174 H 549.233 3.83465 0.779132 0
M  V30 6175 H 548.856 3.1928 2.36951 0
M  V30 6176 N 549.853 -0.472356 1.50355 0
M  V30 6177 C 551.078 -1.25251 1.65309 0
M  V30 6178 C 551.503 -1.85081 0.335643 0
M  V30 6179 O 550.861 -1.67227 -0.700335 0
M  V30 6180 C 550.909 -2.3379 2.74544 0
M  V30 6181 O 550.013 -3.38401 2.35709 0
M  V30 6182 H 549.354 -0.368539 0.552336 0
M  V30 6183 H 551.884 -0.562271 1.96722 0
M  V30 6184 H 551.894 -2.79121 2.97583 0
M  V30 6185 H 550.569 -1.89614 3.70161 0
M  V30 6186 H 549.146 -2.9879 2.23112 0
M  V30 6187 N 551.331 -1.39911 -0.725443 0
M  V30 6188 C 552.241 -1.41688 -1.8698 0
M  V30 6189 C 553.257 -0.310579 -1.71206 0
M  V30 6190 O 554.433 -0.55359 -1.93642 0
M  V30 6191 C 551.498 -1.26811 -3.22676 0
M  V30 6192 C 550.559 -2.47497 -3.50776 0
M  V30 6193 C 549.792 -2.3332 -4.79997 0
M  V30 6194 O 550.015 -1.34175 -5.54394 0
M  V30 6195 O 548.949 -3.22498 -5.08211 0
M  V30 6196 H 552.775 -2.38171 -1.88436 0
M  V30 6197 H 550.36 -1.21128 -0.874548 0
M  V30 6198 H 552.242 -1.20684 -4.03749 0
M  V30 6199 H 550.917 -0.334289 -3.21969 0
M  V30 6200 H 549.824 -2.59201 -2.69751 0
M  V30 6201 H 551.157 -3.39606 -3.5627 0
M  V30 6202 N 552.809 0.956637 -1.25245 0
M  V30 6203 C 554.039 1.7332 -1.12445 0
M  V30 6204 C 554.447 1.86392 0.324732 0
M  V30 6205 O 553.79 1.35967 1.23526 0
M  V30 6206 C 553.852 3.16603 -1.70303 0
M  V30 6207 C 553.516 3.26966 -3.19284 0
M  V30 6208 C 554.513 3.11434 -4.16299 0
M  V30 6209 C 552.198 3.50851 -3.59456 0
M  V30 6210 C 554.192 3.1963 -5.51467 0
M  V30 6211 C 551.879 3.58684 -4.94761 0
M  V30 6212 C 552.877 3.43087 -5.90576 0
M  V30 6213 O 552.565 3.50598 -7.2342 0
M  V30 6214 H 552.297 0.549981 -0.393061 0
M  V30 6215 H 554.851 1.20892 -1.66055 0
M  V30 6216 H 553.081 3.70385 -1.11138 0
M  V30 6217 H 554.77 3.76109 -1.52632 0
M  V30 6218 H 555.536 2.92853 -3.86604 0
M  V30 6219 H 551.415 3.62053 -2.85375 0
M  V30 6220 H 554.959 3.07373 -6.26233 0
M  V30 6221 H 550.856 3.76782 -5.24124 0
M  V30 6222 H 551.624 3.67242 -7.31489 0
M  V30 6223 N 554.287 1.06798 1.15896 0
M  V30 6224 C 555.533 0.788934 1.86825 0
M  V30 6225 C 555.866 -0.683084 1.8179 0
M  V30 6226 O 555.141 -1.50086 1.23711 0
M  V30 6227 C 555.424 1.29065 3.36176 0
M  V30 6228 C 555.277 2.8268 3.49874 0
M  V30 6229 C 556.596 0.902655 4.30744 0
M  V30 6230 H 553.715 0.288066 0.678371 0
M  V30 6231 H 556.357 1.32479 1.36195 0
M  V30 6232 H 554.507 0.834806 3.79425 0
M  V30 6233 H 556.179 3.36511 3.15528 0
M  V30 6234 H 554.422 3.21157 2.91617 0
M  V30 6235 H 555.093 3.12852 4.54783 0
M  V30 6236 H 557.569 1.29535 3.95424 0
M  V30 6237 H 556.445 1.28111 5.3374 0
M  V30 6238 H 556.706 -0.191951 4.41683 0
M  V30 6239 N 555.766 -1.3263 0.851289 0
M  V30 6240 C 557.013 -1.97368 0.453023 0
M  V30 6241 C 557.341 -1.67384 -0.990596 0
M  V30 6242 O 556.596 -0.952665 -1.70947 0
M  V30 6243 C 556.895 -3.51713 0.635015 0
M  V30 6244 C 556.561 -4.01676 2.04859 0
M  V30 6245 C 555.223 -4.15031 2.43522 0
M  V30 6246 C 557.575 -4.28206 2.97135 0
M  V30 6247 C 554.903 -4.52257 3.73739 0
M  V30 6248 C 557.255 -4.66889 4.26846 0
M  V30 6249 C 555.919 -4.7845 4.65448 0
M  V30 6250 H 555.189 -0.722219 0.165773 0
M  V30 6251 H 557.836 -1.58092 1.0807 0
M  V30 6252 H 556.141 -3.91726 -0.0759081 0
M  V30 6253 H 557.838 -3.99823 0.306964 0
M  V30 6254 H 554.428 -3.91764 1.73836 0
M  V30 6255 H 558.612 -4.174 2.68498 0
M  V30 6256 H 553.868 -4.59402 4.03435 0
M  V30 6257 H 558.042 -4.86372 4.98413 0
M  V30 6258 H 555.669 -5.07052 5.66395 0
M  V30 6259 N 557.244 -0.608902 -1.45362 0
M  V30 6260 C 558.49 -0.104762 -2.02529 0
M  V30 6261 C 558.823 1.26191 -1.47613 0
M  V30 6262 O 558.098 1.8327 -0.65134 0
M  V30 6263 C 558.381 -0.0672661 -3.60037 0
M  V30 6264 C 558.234 -1.4647 -4.25284 0
M  V30 6265 C 559.553 0.619877 -4.35713 0
M  V30 6266 H 556.672 -0.0395438 -0.735938 0
M  V30 6267 H 559.314 -0.781126 -1.73201 0
M  V30 6268 H 557.464 0.50871 -3.85155 0
M  V30 6269 H 559.136 -2.08785 -4.11347 0
M  V30 6270 H 557.379 -2.02502 -3.83634 0
M  V30 6271 H 558.05 -1.39069 -5.34195 0
M  V30 6272 H 560.526 0.130297 -4.15896 0
M  V30 6273 H 559.402 0.615224 -5.45441 0
M  V30 6274 H 559.663 1.68621 -4.0868 0
M  V30 6275 N 558.722 1.53707 -0.348139 0
M  V30 6276 C 559.968 2.01286 0.247332 0
M  V30 6277 C 560.301 1.23546 1.49834 0
M  V30 6278 O 559.576 0.324331 1.91777 0
M  V30 6279 C 559.859 3.55768 0.556858 0
M  V30 6280 C 559.712 4.44216 -0.706564 0
M  V30 6281 C 561.031 4.1841 1.3646 0
M  V30 6282 H 558.15 0.731677 0.0884201 0
M  V30 6283 H 560.792 1.84106 -0.469584 0
M  V30 6284 H 558.942 3.70539 1.16761 0
M  V30 6285 H 560.614 4.41274 -1.34444 0
M  V30 6286 H 558.857 4.12892 -1.33052 0
M  V30 6287 H 559.528 5.50202 -0.445186 0
M  V30 6288 H 562.004 4.07365 0.848113 0
M  V30 6289 H 560.88 5.26563 1.54992 0
M  V30 6290 H 561.141 3.7333 2.36805 0
M  V30 6291 N 560.2 0.0768682 1.57412 0
M  V30 6292 C 561.446 -0.591961 1.93968 0
M  V30 6293 C 561.779 -1.68954 0.9575 0
M  V30 6294 O 561.054 -1.94496 -0.0124675 0
M  V30 6295 C 561.337 -1.16418 3.40762 0
M  V30 6296 C 561.19 -0.0728933 4.49741 0
M  V30 6297 C 562.509 -2.06814 3.88479 0
M  V30 6298 H 559.628 -0.213716 0.705333 0
M  V30 6299 H 562.27 0.14387 1.89455 0
M  V30 6300 H 560.42 -1.79128 3.4474 0
M  V30 6301 H 562.092 0.560446 4.57883 0
M  V30 6302 H 560.335 0.595859 4.29688 0
M  V30 6303 H 561.006 -0.513755 5.49604 0
M  V30 6304 H 563.482 -1.54033 3.8654 0
M  V30 6305 H 562.358 -2.43785 4.91793 0
M  V30 6306 H 562.619 -2.97844 3.26713 0
M  V30 6307 N 561.678 -1.56367 -0.196722 0
M  V30 6308 C 562.955 -1.71359 -0.943159 0
M  V30 6309 C 563.335 -0.631192 -2.01443 0
M  V30 6310 O 562.683 0.358071 -2.25677 0
M  V30 6311 C 562.893 -3.13623 -1.53106 0
M  V30 6312 C 564.241 -3.73806 -2.01381 0
M  V30 6313 O 565.265 -3.16742 -1.62951 0
M  V30 6314 O 564.124 -4.73951 -2.7209 0
M  V30 6315 H 561.218 -0.698851 -0.442195 0
M  V30 6316 H 563.764 -1.68672 -0.186547 0
M  V30 6317 H 562.536 -3.83873 -0.758785 0
M  V30 6318 H 562.159 -3.20532 -2.35255 0
M  V30 6319 N 563.156 0.464375 -1.50603 0
M  V30 6320 C 564.403 1.21596 -1.61928 0
M  V30 6321 C 564.731 1.91804 -0.322737 0
M  V30 6322 O 563.986 1.83065 0.691776 0
M  V30 6323 C 564.285 2.278 -2.75394 0
M  V30 6324 C 563.951 1.74797 -4.1564 0
M  V30 6325 C 562.613 1.60063 -4.53799 0
M  V30 6326 C 564.965 1.35548 -5.03266 0
M  V30 6327 C 562.293 1.04514 -5.77316 0
M  V30 6328 C 564.645 0.814381 -6.27336 0
M  V30 6329 C 563.309 0.653726 -6.64291 0
M  V30 6330 H 562.579 0.444951 -0.592536 0
M  V30 6331 H 565.226 0.510964 -1.84557 0
M  V30 6332 H 563.531 3.04233 -2.46879 0
M  V30 6333 H 565.228 2.85723 -2.81359 0
M  V30 6334 H 561.818 1.87234 -3.8554 0
M  V30 6335 H 566.002 1.45763 -4.74412 0
M  V30 6336 H 561.258 0.908186 -6.04617 0
M  V30 6337 H 565.432 0.501626 -6.94591 0
M  V30 6338 H 563.059 0.22114 -7.59878 0
M  V30 6339 N 564.634 1.40294 0.718013 0
M  V30 6340 C 565.564 1.43118 1.84498 0
M  V30 6341 C 566.545 0.292403 1.67568 0
M  V30 6342 O 567.73 0.500675 1.87635 0
M  V30 6343 C 564.86 1.29065 3.22427 0
M  V30 6344 C 563.814 2.40521 3.54025 0
M  V30 6345 C 563.14 2.11546 4.91073 0
M  V30 6346 C 564.44 3.82859 3.55269 0
M  V30 6347 H 566.134 2.37432 1.82391 0
M  V30 6348 H 563.68 1.14283 0.87609 0
M  V30 6349 H 565.633 1.29658 4.00957 0
M  V30 6350 H 564.357 0.312271 3.25104 0
M  V30 6351 H 563.016 2.39173 2.77834 0
M  V30 6352 H 562.664 1.12104 4.90348 0
M  V30 6353 H 562.364 2.86216 5.1318 0
M  V30 6354 H 563.888 2.13817 5.71939 0
M  V30 6355 H 565.302 3.86044 4.23843 0
M  V30 6356 H 563.699 4.57029 3.88902 0
M  V30 6357 H 564.769 4.12617 2.54706 0
M  V30 6358 N 566.112 -0.949982 1.2575 0
M  V30 6359 C 567.361 -1.68956 1.10168 0
M  V30 6360 C 567.674 -1.92327 -0.356309 0
M  V30 6361 O 568.88 -2.64026 -0.632657 0
M  V30 6362 C 567.336 -3.04196 1.92336 0
M  V30 6363 C 566.944 -2.88603 3.42655 0
M  V30 6364 C 568.688 -3.81904 1.85336 0
M  V30 6365 C 566.595 -4.19262 4.17101 0
M  V30 6366 H 565.525 -0.633645 0.408668 0
M  V30 6367 H 568.176 -1.05719 1.49986 0
M  V30 6368 H 566.558 -3.68363 1.45344 0
M  V30 6369 H 567.732 -2.3334 3.97353 0
M  V30 6370 H 566.047 -2.24345 3.50796 0
M  V30 6371 H 568.644 -4.78688 2.38248 0
M  V30 6372 H 568.987 -4.08099 0.822226 0
M  V30 6373 H 569.52 -3.24495 2.30104 0
M  V30 6374 H 566.259 -3.98254 5.20648 0
M  V30 6375 H 565.779 -4.74273 3.67186 0
M  V30 6376 H 567.458 -4.87775 4.25071 0
M  V30 6377 N 567.59 -1.07411 -1.15328 0
M  V30 6378 C 568.838 -0.796073 -1.85761 0
M  V30 6379 C 569.159 0.679864 -1.82764 0
M  V30 6380 O 568.429 1.49242 -1.269 0
M  V30 6381 H 567.009 -0.291495 -0.687779 0
M  V30 6382 H 569.671 -1.35799 -1.39802 0
M  V30 6383 H 568.767 -1.13114 -2.90881 0
M  V30 6384 N 569.068 1.32177 -0.85831 0
M  V30 6385 C 570.314 1.97417 -0.46417 0
M  V30 6386 C 570.647 1.67746 0.978514 0
M  V30 6387 O 569.922 0.967654 1.68721 0
M  V30 6388 C 570.205 3.53069 -0.708094 0
M  V30 6389 C 570.058 3.92357 -2.19946 0
M  V30 6390 C 571.377 4.39783 -0.166881 0
M  V30 6391 H 568.496 0.717097 -0.17012 0
M  V30 6392 H 571.138 1.56499 -1.07741 0
M  V30 6393 H 569.288 3.88054 -0.186128 0
M  V30 6394 H 570.96 3.67533 -2.78779 0
M  V30 6395 H 569.203 3.41384 -2.67656 0
M  V30 6396 H 569.874 5.00841 -2.32082 0
M  V30 6397 H 572.35 4.11556 -0.613285 0
M  V30 6398 H 571.226 5.47671 -0.367093 0
M  V30 6399 H 571.487 4.32196 0.930559 0
M  V30 6400 N 570.547 0.616602 1.45037 0
M  V30 6401 C 571.477 -0.0840787 2.33349 0
M  V30 6402 C 572.458 -0.849641 1.4736 0
M  V30 6403 O 573.643 -0.818407 1.76113 0
M  V30 6404 C 570.773 -1.07604 3.3021 0
M  V30 6405 C 569.727 -0.423096 4.25904 0
M  V30 6406 C 569.053 -1.52394 5.12523 0
M  V30 6407 C 570.353 0.661457 5.18095 0
M  V30 6408 H 572.047 0.653333 2.92185 0
M  V30 6409 H 569.593 0.315634 1.40498 0
M  V30 6410 H 571.546 -1.57485 3.90866 0
M  V30 6411 H 570.27 -1.84416 2.69552 0
M  V30 6412 H 568.929 0.05493 3.66559 0
M  V30 6413 H 568.577 -2.28257 4.48227 0
M  V30 6414 H 568.277 -1.09251 5.77354 0
M  V30 6415 H 569.801 -2.02485 5.76049 0
M  V30 6416 H 571.215 0.246353 5.7277 0
M  V30 6417 H 569.612 1.01517 5.91451 0
M  V30 6418 H 570.682 1.53446 4.59981 0
M  V30 6419 N 572.025 -1.5352 0.356285 0
M  V30 6420 C 573.274 -2.00298 -0.237373 0
M  V30 6421 C 573.587 -1.24784 -1.50627 0
M  V30 6422 O 574.793 -1.62103 -2.17795 0
M  V30 6423 C 573.249 -3.56771 -0.473545 0
M  V30 6424 C 572.857 -4.41154 0.780183 0
M  V30 6425 C 574.601 -4.1193 -1.02537 0
M  V30 6426 C 572.508 -5.89161 0.514108 0
M  V30 6427 H 571.438 -0.748307 -0.092478 0
M  V30 6428 H 574.089 -1.77283 0.473588 0
M  V30 6429 H 572.471 -3.75902 -1.24553 0
M  V30 6430 H 573.645 -4.33797 1.55425 0
M  V30 6431 H 571.96 -3.97052 1.25455 0
M  V30 6432 H 574.557 -5.20133 -1.2396 0
M  V30 6433 H 574.9 -3.65943 -1.98473 0
M  V30 6434 H 575.433 -3.96561 -0.313775 0
M  V30 6435 H 572.172 -6.39408 1.44355 0
M  V30 6436 H 571.692 -5.9939 -0.221632 0
M  V30 6437 H 573.371 -6.46857 0.136122 0
M  V30 6438 N 573.503 -0.0852151 -1.57369 0
M  V30 6439 C 574.75 0.580806 -1.93992 0
M  V30 6440 C 575.078 1.68801 -0.966252 0
M  V30 6441 O 574.333 1.95694 0.0158649 0
M  V30 6442 C 574.632 1.18482 -3.3719 0
M  V30 6443 C 574.298 0.2024 -4.50446 0
M  V30 6444 C 572.96 -0.0678318 -4.81152 0
M  V30 6445 C 575.312 -0.46895 -5.19086 0
M  V30 6446 C 572.64 -1.01627 -5.77831 0
M  V30 6447 C 574.992 -1.4058 -6.16782 0
M  V30 6448 C 573.656 -1.68436 -6.45899 0
M  V30 6449 H 572.926 0.212532 -0.709867 0
M  V30 6450 H 575.573 -0.158947 -1.90839 0
M  V30 6451 H 573.878 2.0006 -3.36873 0
M  V30 6452 H 575.575 1.70767 -3.62822 0
M  V30 6453 H 572.165 0.423208 -4.26505 0
M  V30 6454 H 576.349 -0.273307 -4.95547 0
M  V30 6455 H 571.605 -1.2392 -5.9871 0
M  V30 6456 H 575.779 -1.93188 -6.69068 0
M  V30 6457 H 573.406 -2.42088 -7.20623 0
M  V30 6458 N 574.981 1.5647 0.188427 0
M  V30 6459 C 575.944 1.9421 1.21718 0
M  V30 6460 C 576.944 0.823901 1.38089 0
M  V30 6461 O 578.134 1.09122 1.35787 0
M  V30 6462 C 575.266 2.22197 2.58537 0
M  V30 6463 H 576.459 2.86252 0.894418 0
M  V30 6464 H 574.012 1.50263 0.430211 0
M  V30 6465 H 574.747 1.32814 2.95856 0
M  V30 6466 H 574.532 3.03688 2.48025 0
M  V30 6467 H 576.022 2.52376 3.3271 0
M  V30 6468 N 576.459 -0.456382 1.50847 0
M  V30 6469 C 577.687 -1.23026 1.66349 0
M  V30 6470 C 578.102 -1.85473 0.352868 0
M  V30 6471 O 577.459 -1.69885 -0.666739 0
M  V30 6472 C 577.51 -2.32827 2.76539 0
M  V30 6473 O 577.231 -1.72938 4.02522 0
M  V30 6474 C 578.732 -3.23448 3.03144 0
M  V30 6475 H 575.952 -0.371527 0.558756 0
M  V30 6476 H 578.496 -0.543082 1.97157 0
M  V30 6477 H 576.651 -2.97294 2.48384 0
M  V30 6478 H 577.065 -2.45357 4.63573 0
M  V30 6479 H 578.539 -3.96669 3.83872 0
M  V30 6480 H 579.016 -3.83094 2.14793 0
M  V30 6481 H 579.622 -2.64702 3.32886 0
M  V30 6482 N 577.937 -1.40673 -0.710563 0
M  V30 6483 C 579.186 -1.38525 -1.46607 0
M  V30 6484 C 579.499 0.0077024 -1.95598 0
M  V30 6485 O 580.705 0.151792 -2.71075 0
M  V30 6486 C 579.161 -2.43489 -2.6503 0
M  V30 6487 C 578.769 -3.88619 -2.22888 0
M  V30 6488 C 580.513 -2.50456 -3.42742 0
M  V30 6489 C 578.42 -4.85168 -3.3818 0
M  V30 6490 H 577.35 -0.515092 -0.550632 0
M  V30 6491 H 580.001 -1.66431 -0.772846 0
M  V30 6492 H 578.383 -2.0869 -3.36548 0
M  V30 6493 H 579.557 -4.32588 -1.58758 0
M  V30 6494 H 577.872 -3.85174 -1.58208 0
M  V30 6495 H 580.469 -3.19776 -4.28541 0
M  V30 6496 H 580.812 -1.53665 -3.86902 0
M  V30 6497 H 581.345 -2.84271 -2.78271 0
M  V30 6498 H 578.084 -5.8331 -2.99047 0
M  V30 6499 H 577.604 -4.4586 -4.01209 0
M  V30 6500 H 579.283 -5.05225 -4.04174 0
M  V30 6501 N 579.415 0.9433 -1.26252 0
M  V30 6502 C 580.661 1.69175 -1.11837 0
M  V30 6503 C 580.994 1.91238 0.337891 0
M  V30 6504 O 580.269 1.49152 1.24836 0
M  V30 6505 C 580.552 3.06783 -1.88563 0
M  V30 6506 C 580.405 2.9206 -3.42083 0
M  V30 6507 C 581.724 4.06865 -1.67776 0
M  V30 6508 H 578.843 0.61399 -0.407658 0
M  V30 6509 H 581.485 1.09572 -1.55222 0
M  V30 6510 H 579.635 3.57663 -1.51689 0
M  V30 6511 H 581.307 2.48419 -3.88698 0
M  V30 6512 H 579.55 2.27731 -3.69217 0
M  V30 6513 H 580.221 3.89651 -3.90994 0
M  V30 6514 H 582.697 3.64939 -1.99897 0
M  V30 6515 H 581.573 5.01168 -2.23879 0
M  V30 6516 H 581.834 4.37705 -0.621816 0
M  V30 6517 N 580.893 1.08022 1.14757 0
M  V30 6518 C 582.141 0.805913 1.85336 0
M  V30 6519 C 582.462 -0.670162 1.83122 0
M  V30 6520 O 581.732 -1.48567 1.2769 0
M  V30 6521 H 580.312 0.295138 0.686223 0
M  V30 6522 H 582.974 1.36538 1.3908 0
M  V30 6523 H 582.07 1.14655 2.90277 0
M  V30 6524 N 582.371 -1.3172 0.865308 0
M  V30 6525 C 583.319 -2.30569 0.306674 0
M  V30 6526 C 584.313 -1.59317 -0.575724 0
M  V30 6527 O 585.519 -1.73961 -0.462343 0
M  V30 6528 H 581.894 -0.747681 0.0804834 0
M  V30 6529 H 583.865 -2.75165 1.15441 0
M  V30 6530 C 582.614 -3.44358 -0.480952 0
M  V30 6531 H 581.937 -3.99354 0.18876 0
M  V30 6532 H 583.377 -4.15652 -0.837241 0
M  V30 6533 C 581.836 -2.92574 -1.67039 0
M  V30 6534 O 582.366 -2.90954 -2.76964 0
M  V30 6535 N 580.572 -2.48835 -1.50097 0
M  V30 6536 H 580.119 -2.50353 -0.606738 0
M  V30 6537 H 580.077 -2.14543 -2.29823 0
M  V30 6538 N 583.85 -0.624285 -1.44708 0
M  V30 6539 C 585.099 -0.123539 -2.01321 0
M  V30 6540 C 585.412 1.25966 -1.49639 0
M  V30 6541 O 586.618 1.85405 -1.98336 0
M  V30 6542 C 585.074 -0.170124 -3.59498 0
M  V30 6543 C 584.682 -1.55421 -4.20176 0
M  V30 6544 C 586.426 0.274513 -4.23611 0
M  V30 6545 C 584.332 -1.55628 -5.70556 0
M  V30 6546 H 583.263 -0.0424183 -0.752806 0
M  V30 6547 H 585.913 -0.782076 -1.65999 0
M  V30 6548 H 584.296 0.555385 -3.92086 0
M  V30 6549 H 585.47 -2.30276 -3.99136 0
M  V30 6550 H 583.784 -1.94235 -3.68323 0
M  V30 6551 H 586.382 0.292402 -5.339 0
M  V30 6552 H 586.725 1.3005 -3.95465 0
M  V30 6553 H 587.258 -0.398275 -3.95801 0
M  V30 6554 H 583.997 -2.56041 -6.03426 0
M  V30 6555 H 583.517 -0.850563 -5.93739 0
M  V30 6556 H 585.196 -1.28721 -6.34066 0
M  V30 6557 N 585.328 1.53329 -0.364422 0
M  V30 6558 C 586.576 2.00842 0.225189 0
M  V30 6559 C 586.897 1.25345 1.49378 0
M  V30 6560 O 586.167 0.366396 1.92443 0
M  V30 6561 H 584.747 0.742009 0.0862027 0
M  V30 6562 H 587.409 1.8863 -0.490389 0
M  V30 6563 H 586.505 3.08795 0.452987 0
M  V30 6564 N 586.806 0.0935595 1.57322 0
M  V30 6565 C 588.031 -0.582324 1.99057 0
M  V30 6566 C 588.456 -1.61025 0.972242 0
M  V30 6567 O 587.814 -1.81202 -0.0594622 0
M  V30 6568 C 587.862 -1.20799 3.39765 0
M  V30 6569 O 586.966 -2.32382 3.40694 0
M  V30 6570 H 586.307 -0.147884 0.647323 0
M  V30 6571 H 588.837 0.174516 2.03854 0
M  V30 6572 H 588.847 -1.54966 3.77425 0
M  V30 6573 H 587.522 -0.454914 4.13405 0
M  V30 6574 H 586.099 -1.99845 3.14827 0
M  V30 6575 N 588.284 -1.56567 -0.180126 0
M  V30 6576 C 589.217 -1.90813 -1.25163 0
M  V30 6577 C 590.195 -0.7699 -1.43218 0
M  V30 6578 O 591.379 -1.02236 -1.58367 0
M  V30 6579 C 588.506 -2.15138 -2.61597 0
M  V30 6580 C 587.552 -3.37834 -2.60328 0
M  V30 6581 S 588.385 -4.92486 -2.1028 0
M  V30 6582 C 589.541 -5.19896 -3.48509 0
M  V30 6583 H 589.774 -2.81398 -0.959283 0
M  V30 6584 H 587.307 -1.49541 -0.3843 0
M  V30 6585 H 589.265 -2.29835 -3.40127 0
M  V30 6586 H 587.926 -1.25276 -2.88036 0
M  V30 6587 H 587.119 -3.52027 -3.60684 0
M  V30 6588 H 586.721 -3.22208 -1.8989 0
M  V30 6589 H 589.013 -5.11334 -4.44459 0
M  V30 6590 H 589.956 -6.21571 -3.39198 0
M  V30 6591 H 590.364 -4.47489 -3.44114 0
M  V30 6592 N 589.762 0.448376 -1.51087 0
M  V30 6593 C 591.011 1.19561 -1.62444 0
M  V30 6594 C 591.324 1.92602 -0.341151 0
M  V30 6595 O 592.53 2.69439 -0.333936 0
M  V30 6596 C 590.986 2.17373 -2.8684 0
M  V30 6597 C 590.594 1.5003 -4.22131 0
M  V30 6598 C 592.338 2.92597 -3.0755 0
M  V30 6599 C 590.245 2.46262 -5.37689 0
M  V30 6600 H 589.175 0.449975 -0.605011 0
M  V30 6601 H 591.826 0.463735 -1.77544 0
M  V30 6602 H 590.208 2.93948 -2.65349 0
M  V30 6603 H 591.382 0.790886 -4.53962 0
M  V30 6604 H 589.697 0.870011 -4.0721 0
M  V30 6605 H 592.294 3.64663 -3.91056 0
M  V30 6606 H 592.637 3.53306 -2.20183 0
M  V30 6607 H 593.17 2.23131 -3.29329 0
M  V30 6608 H 589.909 1.90258 -6.27281 0
M  V30 6609 H 589.429 3.15289 -5.10248 0
M  V30 6610 H 591.108 3.07623 -5.6919 0
M  V30 6611 N 591.24 1.41047 0.703093 0
M  V30 6612 C 592.465 1.43537 1.49706 0
M  V30 6613 C 592.89 0.0401853 1.88057 0
M  V30 6614 O 592.248 -0.954785 1.54122 0
M  V30 6615 C 592.296 2.3433 2.74084 0
M  V30 6616 O 591.4 1.79515 3.71279 0
M  V30 6617 H 590.741 0.487454 0.450871 0
M  V30 6618 H 593.271 1.85422 0.86486 0
M  V30 6619 H 593.281 2.49947 3.22476 0
M  V30 6620 H 591.956 3.35708 2.45506 0
M  V30 6621 H 590.533 1.7331 3.30179 0
M  V30 6622 N 592.718 -0.936591 1.26751 0
M  V30 6623 C 593.666 -2.0573 1.08527 0
M  V30 6624 C 594.66 -1.69397 0.0108784 0
M  V30 6625 O 595.866 -1.79215 0.167915 0
M  V30 6626 H 592.241 -0.673691 0.334133 0
M  V30 6627 H 594.212 -2.1825 2.03493 0
M  V30 6628 C 592.961 -3.39738 0.739845 0
M  V30 6629 H 592.284 -3.68174 1.55845 0
M  V30 6630 H 593.724 -4.18955 0.652149 0
M  V30 6631 C 592.183 -3.32292 -0.555288 0
M  V30 6632 O 592.713 -3.68794 -1.59229 0
M  V30 6633 N 590.919 -2.85394 -0.54762 0
M  V30 6634 H 590.466 -2.55886 0.296667 0
M  V30 6635 H 590.424 -2.80795 -1.41427 0
M  V30 6636 N 594.196 -1.08629 -1.14182 0
M  V30 6637 C 595.129 -0.662329 -2.18377 0
M  V30 6638 C 596.107 0.327054 -1.59277 0
M  V30 6639 O 597.291 0.230376 -1.87087 0
M  V30 6640 C 594.418 0.0254765 -3.3869 0
M  V30 6641 C 593.464 -0.924414 -4.16361 0
M  V30 6642 S 594.297 -2.43226 -4.77076 0
M  V30 6643 C 595.453 -1.75663 -6.00744 0
M  V30 6644 H 595.686 -1.54501 -2.54001 0
M  V30 6645 H 593.219 -0.901484 -1.2535 0
M  V30 6646 H 595.177 0.416032 -4.08386 0
M  V30 6647 H 593.838 0.884689 -3.01384 0
M  V30 6648 H 593.031 -0.390099 -5.02488 0
M  V30 6649 H 592.633 -1.25598 -3.5228 0
M  V30 6650 H 594.925 -1.07589 -6.68903 0
M  V30 6651 H 595.868 -2.59673 -6.58768 0
M  V30 6652 H 596.276 -1.22903 -5.50958 0
M  V30 6653 N 595.674 1.31259 -0.872281 0
M  V30 6654 C 596.622 2.30404 -0.318897 0
M  V30 6655 C 597.616 1.5962 0.567267 0
M  V30 6656 O 598.822 1.74204 0.453111 0
M  V30 6657 H 595.197 0.747243 -0.0844474 0
M  V30 6658 H 597.168 2.74549 -1.16899 0
M  V30 6659 C 595.917 3.44608 0.462683 0
M  V30 6660 H 595.24 3.99248 -0.209936 0
M  V30 6661 H 596.68 4.1609 0.815187 0
M  V30 6662 C 595.139 2.93456 1.65485 0
M  V30 6663 O 595.669 2.92418 2.75417 0
M  V30 6664 N 593.875 2.49628 1.48776 0
M  V30 6665 H 593.422 2.50671 0.593452 0
M  V30 6666 H 593.38 2.15759 2.28682 0
M  V30 6667 N 597.152 0.631951 1.44375 0
M  V30 6668 C 598.115 -0.0628142 2.29114 0
M  V30 6669 C 599.115 -0.771494 1.41084 0
M  V30 6670 O 600.305 -0.615959 1.62947 0
M  V30 6671 C 597.437 -1.09953 3.22681 0
M  V30 6672 H 598.63 0.682509 2.92031 0
M  V30 6673 H 596.183 0.392128 1.51301 0
M  V30 6674 H 596.918 -1.87481 2.64616 0
M  V30 6675 H 596.703 -0.595286 3.87555 0
M  V30 6676 H 598.193 -1.58538 3.86336 0
M  V30 6677 N 598.631 -1.53133 0.372548 0
M  V30 6678 C 599.594 -2.24569 -0.458389 0
M  V30 6679 C 600.594 -1.25603 -1.00402 0
M  V30 6680 O 601.784 -1.49827 -0.888672 0
M  V30 6681 C 598.916 -2.98783 -1.6414 0
M  V30 6682 H 600.109 -2.99436 0.166799 0
M  V30 6683 H 597.662 -1.55805 0.124357 0
M  V30 6684 H 598.397 -2.28176 -2.30448 0
M  V30 6685 H 598.182 -3.71404 -1.25704 0
M  V30 6686 H 599.672 -3.53068 -2.23008 0
M  V30 6687 N 600.109 -0.101901 -1.5727 0
M  V30 6688 C 601.525 0.254739 -1.57554 0
M  V30 6689 C 601.725 1.67937 -1.11352 0
M  V30 6690 O 600.781 2.39722 -0.793081 0
M  V30 6691 C 602.094 0.036975 -3.00677 0
M  V30 6692 C 603.642 0.104199 -3.12827 0
M  V30 6693 C 604.117 -0.0856565 -4.5792 0
M  V30 6694 N 605.608 -0.0310498 -4.6319 0
M  V30 6695 C 606.343 -0.153099 -5.73196 0
M  V30 6696 N 605.839 -0.330364 -6.92012 0
M  V30 6697 N 607.632 -0.0938854 -5.62022 0
M  V30 6698 H 599.783 -1.03263 -1.85609 0
M  V30 6699 H 602.046 -0.405251 -0.857016 0
M  V30 6700 H 601.752 -0.947254 -3.38703 0
M  V30 6701 H 601.626 0.776335 -3.69124 0
M  V30 6702 H 604.013 1.07894 -2.74669 0
M  V30 6703 H 604.094 -0.666762 -2.46957 0
M  V30 6704 H 603.738 -1.05729 -4.96773 0
M  V30 6705 H 603.668 0.705082 -5.21858 0
M  V30 6706 H 606.159 0.103141 -3.77759 0
M  V30 6707 H 606.472 -0.41482 -7.71686 0
M  V30 6708 H 604.817 -0.366119 -6.94035 0
M  V30 6709 H 608.008 0.0435168 -4.6808 0
M  V30 6710 H 608.181 -0.19245 -6.47714 0
M  V30 6711 N 601.587 1.56661 0.17182 0
M  V30 6712 C 602.55 1.9549 1.19651 0
M  V30 6713 C 603.55 0.838501 1.37207 0
M  V30 6714 O 604.74 1.10556 1.34622 0
M  V30 6715 C 601.872 2.24927 2.56166 0
M  V30 6716 H 603.065 2.87184 0.864007 0
M  V30 6717 H 600.618 1.50711 0.41425 0
M  V30 6718 H 601.353 1.35944 2.94431 0
M  V30 6719 H 601.138 3.06301 2.4479 0
M  V30 6720 H 602.628 2.55891 3.30014 0
M  V30 6721 N 603.065 -0.440357 1.51323 0
M  V30 6722 C 603.975 -1.55955 1.75258 0
M  V30 6723 C 604.991 -1.61933 0.636687 0
M  V30 6724 O 606.167 -1.79231 0.918593 0
M  V30 6725 C 603.232 -2.9196 1.86977 0
M  V30 6726 C 602.293 -2.96122 3.10822 0
M  V30 6727 C 601.526 -4.2564 3.21973 0
M  V30 6728 O 601.749 -5.17851 2.39137 0
M  V30 6729 O 600.683 -4.36025 4.14929 0
M  V30 6730 H 604.509 -1.38673 2.70191 0
M  V30 6731 H 602.094 -0.623055 1.35788 0
M  V30 6732 H 603.976 -3.72682 1.96688 0
M  V30 6733 H 602.651 -3.09375 0.952307 0
M  V30 6734 H 601.558 -2.14366 3.06591 0
M  V30 6735 H 602.891 -2.83651 4.02247 0
M  V30 6736 N 604.543 -1.41418 -0.695603 0
M  V30 6737 C 605.79 -1.40774 -1.45564 0
M  V30 6738 C 606.118 -0.0168604 -1.94493 0
M  V30 6739 O 605.373 0.971259 -1.69897 0
M  V30 6740 C 605.672 -2.36112 -2.68302 0
M  V30 6741 C 605.338 -3.82952 -2.38031 0
M  V30 6742 C 604 -4.22954 -2.29486 0
M  V30 6743 C 606.352 -4.75662 -2.13061 0
M  V30 6744 C 603.68 -5.53674 -1.94067 0
M  V30 6745 C 606.032 -6.06702 -1.79151 0
M  V30 6746 C 604.696 -6.45725 -1.69102 0
M  V30 6747 H 603.966 -0.515128 -0.532658 0
M  V30 6748 H 606.613 -1.74216 -0.795047 0
M  V30 6749 H 604.918 -1.95924 -3.39295 0
M  V30 6750 H 606.615 -2.32887 -3.26442 0
M  V30 6751 H 603.205 -3.5127 -2.45576 0
M  V30 6752 H 607.389 -4.45561 -2.18608 0
M  V30 6753 H 602.645 -5.8279 -1.8484 0
M  V30 6754 H 606.819 -6.78041 -1.5885 0
M  V30 6755 H 604.446 -7.46929 -1.41426 0
M  V30 6756 N 606.021 0.929856 -1.27246 0
M  V30 6757 C 606.953 2.03434 -1.0558 0
M  V30 6758 C 607.966 1.62795 -0.0125762 0
M  V30 6759 O 609.155 1.76685 -0.2539 0
M  V30 6760 C 606.255 3.33915 -0.57912 0
M  V30 6761 C 605.428 4.03259 -1.69415 0
M  V30 6762 C 604.487 5.12014 -1.21357 0
M  V30 6763 O 603.513 5.36097 -1.91282 0
M  V30 6764 N 604.715 5.8046 -0.0680622 0
M  V30 6765 H 607.48 2.22583 -2.00691 0
M  V30 6766 H 605.041 1.1001 -1.18783 0
M  V30 6767 H 607.033 4.03978 -0.241563 0
M  V30 6768 H 605.603 3.11355 0.278703 0
M  V30 6769 H 604.823 3.26958 -2.20209 0
M  V30 6770 H 606.111 4.46337 -2.44255 0
M  V30 6771 H 605.509 5.63345 0.515626 0
M  V30 6772 H 604.066 6.51461 0.210332 0
M  V30 6773 N 607.499 1.09233 1.13605 0
M  V30 6774 C 608.462 0.733553 2.17144 0
M  V30 6775 C 609.462 -0.235873 1.59061 0
M  V30 6776 O 610.652 -0.0143167 1.74194 0
M  V30 6777 C 607.784 0.084471 3.40795 0
M  V30 6778 H 608.977 1.65049 2.50397 0
M  V30 6779 H 606.53 0.891264 1.28399 0
M  V30 6780 H 607.265 -0.843795 3.1313 0
M  V30 6781 H 607.05 0.781985 3.84223 0
M  V30 6782 H 608.54 -0.151216 4.17326 0
M  V30 6783 N 608.977 -1.30795 0.87923 0
M  V30 6784 C 610.393 -1.48981 0.57243 0
M  V30 6785 C 610.593 -1.80719 -0.891236 0
M  V30 6786 O 609.649 -1.89136 -1.67283 0
M  V30 6787 C 610.962 -2.61721 1.48063 0
M  V30 6788 C 612.51 -2.75603 1.48365 0
M  V30 6789 C 612.985 -3.91449 2.37763 0
M  V30 6790 N 614.476 -3.98751 2.35695 0
M  V30 6791 C 615.211 -4.87684 3.01583 0
M  V30 6792 N 614.707 -5.81454 3.76674 0
M  V30 6793 N 616.5 -4.81005 2.90844 0
M  V30 6794 H 608.651 -1.08465 1.82617 0
M  V30 6795 H 610.914 -0.536813 0.781368 0
M  V30 6796 H 610.62 -2.45073 2.52254 0
M  V30 6797 H 610.494 -3.58071 1.18596 0
M  V30 6798 H 612.881 -2.9166 0.44927 0
M  V30 6799 H 612.962 -1.79891 1.81859 0
M  V30 6800 H 612.606 -3.76149 3.41283 0
M  V30 6801 H 612.536 -4.86487 2.01589 0
M  V30 6802 H 615.027 -3.31668 1.81121 0
M  V30 6803 H 615.34 -6.46063 4.24054 0
M  V30 6804 H 613.685 -5.81403 3.80782 0
M  V30 6805 H 616.876 -4.06728 2.31711 0
M  V30 6806 H 617.049 -5.50107 3.42471 0
M  V30 6807 N 610.455 -0.639598 -1.44038 0
M  V30 6808 C 611.704 -0.144885 -2.01179 0
M  V30 6809 C 612.017 1.24372 -1.50967 0
M  V30 6810 O 613.223 1.83291 -2.00292 0
M  V30 6811 C 611.679 -0.208244 -3.59297 0
M  V30 6812 C 611.287 -1.59869 -4.18504 0
M  V30 6813 C 613.031 0.229568 -4.23879 0
M  V30 6814 C 610.938 -1.61671 -5.68873 0
M  V30 6815 H 609.868 -0.0504005 -0.752314 0
M  V30 6816 H 612.519 -0.799639 -1.65161 0
M  V30 6817 H 610.901 0.513767 -3.92653 0
M  V30 6818 H 612.075 -2.34496 -3.96671 0
M  V30 6819 H 610.39 -1.98131 -3.66242 0
M  V30 6820 H 612.987 0.235758 -5.3418 0
M  V30 6821 H 613.33 1.25848 -3.96822 0
M  V30 6822 H 613.863 -0.440233 -3.95357 0
M  V30 6823 H 610.602 -2.62427 -6.00677 0
M  V30 6824 H 610.122 -0.913489 -5.92803 0
M  V30 6825 H 611.801 -1.35439 -6.32665 0
M  V30 6826 N 611.933 1.52934 -0.380664 0
M  V30 6827 C 613.21 1.93845 0.261417 0
M  V30 6828 C 613.59 1.31544 1.65104 0
M  V30 6829 O 612.938 0.480234 2.23397 0
M  V30 6830 C 613.148 3.47739 0.296466 0
M  V30 6831 C 614.496 4.21284 0.529578 0
M  V30 6832 O 615.52 3.54199 0.377041 0
M  V30 6833 O 614.379 5.40195 0.827753 0
M  V30 6834 H 611.473 0.811318 0.160285 0
M  V30 6835 H 614.019 1.64042 -0.434544 0
M  V30 6836 H 612.791 3.85395 -0.67724 0
M  V30 6837 H 612.414 3.8382 1.0377 0
M  V30 6838 N 613.412 0.11024 1.57214 0
M  V30 6839 C 614.375 -0.828808 2.1369 0
M  V30 6840 C 615.375 -1.20059 1.06969 0
M  V30 6841 O 616.565 -1.12754 1.32786 0
M  V30 6842 C 613.697 -2.11959 2.66994 0
M  V30 6843 H 614.89 -0.338146 2.97988 0
M  V30 6844 H 612.443 -0.138913 1.55681 0
M  V30 6845 H 613.178 -2.65476 1.8626 0
M  V30 6846 H 612.963 -1.86258 3.45037 0
M  V30 6847 H 614.453 -2.79105 3.10629 0
M  V30 6848 N 614.89 -1.56749 -0.16351 0
M  V30 6849 C 616.139 -1.81626 -0.877211 0
M  V30 6850 C 616.452 -0.688791 -1.83071 0
M  V30 6851 O 617.658 -0.822697 -2.58735 0
M  V30 6852 C 616.114 -3.21858 -1.61045 0
M  V30 6853 C 615.722 -4.42494 -0.700195 0
M  V30 6854 C 617.466 -3.56021 -2.31192 0
M  V30 6855 C 615.373 -5.73748 -1.43412 0
M  V30 6856 H 614.303 -0.67731 -0.331312 0
M  V30 6857 H 616.954 -1.83039 -0.13006 0
M  V30 6858 H 615.336 -3.14784 -2.40264 0
M  V30 6859 H 616.51 -4.60766 0.0555849 0
M  V30 6860 H 614.825 -4.1626 -0.10799 0
M  V30 6861 H 617.422 -4.51333 -2.8671 0
M  V30 6862 H 617.765 -2.81277 -3.06902 0
M  V30 6863 H 618.298 -3.64682 -1.58909 0
M  V30 6864 H 615.037 -6.51543 -0.719186 0
M  V30 6865 H 614.557 -5.5944 -2.16302 0
M  V30 6866 H 616.236 -6.15975 -1.9795 0
M  V30 6867 N 616.368 0.432326 -1.51554 0
M  V30 6868 C 617.315 1.52512 -1.7323 0
M  V30 6869 C 618.285 1.55863 -0.5741 0
M  V30 6870 O 619.47 1.72796 -0.809093 0
M  V30 6871 C 616.61 2.90183 -1.86783 0
M  V30 6872 C 615.723 2.96322 -3.14352 0
M  V30 6873 C 614.858 4.25147 -3.18471 0
M  V30 6874 C 613.897 4.25172 -4.40335 0
M  V30 6875 N 613.034 5.45529 -4.41975 0
M  V30 6876 H 617.874 1.33332 -2.66508 0
M  V30 6877 H 615.411 0.647613 -1.32077 0
M  V30 6878 H 617.369 3.70071 -1.92623 0
M  V30 6879 H 615.999 3.0791 -0.969087 0
M  V30 6880 H 615.051 2.09066 -3.17798 0
M  V30 6881 H 616.363 2.92203 -4.04251 0
M  V30 6882 H 615.517 5.13411 -3.23255 0
M  V30 6883 H 614.256 4.31929 -2.2647 0
M  V30 6884 H 613.261 3.353 -4.35723 0
M  V30 6885 H 614.486 4.20049 -5.33606 0
M  V30 6886 H 612.432 5.53024 -3.52847 0
M  V30 6887 H 612.349 5.43311 -5.25689 0
M  V30 6888 H 613.617 6.35812 -4.50958 0
M  V30 6889 N 617.846 1.41785 0.688094 0
M  V30 6890 C 618.778 1.40159 1.81351 0
M  V30 6891 C 619.791 0.30262 1.59963 0
M  V30 6892 O 620.98 0.564841 1.69327 0
M  V30 6893 C 618.08 1.16517 3.1824 0
M  V30 6894 C 617.253 2.38597 3.66593 0
M  V30 6895 C 616.312 2.10699 4.82174 0
M  V30 6896 O 615.338 2.83798 4.93404 0
M  V30 6897 N 616.54 1.10187 5.69947 0
M  V30 6898 H 619.305 2.3716 1.83236 0
M  V30 6899 H 616.866 1.36494 0.870697 0
M  V30 6900 H 618.858 0.957941 3.93199 0
M  V30 6901 H 617.428 0.280873 3.11336 0
M  V30 6902 H 616.648 2.74974 2.82459 0
M  V30 6903 H 617.936 3.19919 3.95638 0
M  V30 6904 H 617.334 0.497016 5.63512 0
M  V30 6905 H 615.891 0.954518 6.44773 0
M  V30 6906 N 619.324 -0.923095 1.27737 0
M  V30 6907 C 620.554 -1.70277 1.17001 0
M  V30 6908 C 620.962 -1.87188 -0.275199 0
M  V30 6909 O 620.305 -1.39195 -1.19877 0
M  V30 6910 C 620.367 -3.11976 1.78637 0
M  V30 6911 C 620.031 -3.18386 3.27841 0
M  V30 6912 C 621.028 -3.00287 4.2441 0
M  V30 6913 C 618.713 -3.41198 3.68632 0
M  V30 6914 C 620.707 -3.04896 5.59747 0
M  V30 6915 C 618.394 -3.4544 5.04097 0
M  V30 6916 C 619.392 -3.27309 5.99465 0
M  V30 6917 O 619.08 -3.31295 7.32461 0
M  V30 6918 H 618.812 -0.539366 0.407505 0
M  V30 6919 H 621.366 -1.16446 1.69202 0
M  V30 6920 H 619.596 -3.67308 1.20919 0
M  V30 6921 H 621.285 -3.7193 1.6255 0
M  V30 6922 H 622.051 -2.825 3.94232 0
M  V30 6923 H 617.93 -3.54359 2.94873 0
M  V30 6924 H 621.474 -2.90662 6.34162 0
M  V30 6925 H 617.371 -3.62753 5.33929 0
M  V30 6926 H 618.139 -3.47719 7.40968 0
M  V30 6927 N 620.802 -1.09834 -1.13024 0
M  V30 6928 C 621.735 -0.685453 -2.17662 0
M  V30 6929 C 622.713 0.310142 -1.59615 0
M  V30 6930 O 623.897 0.21052 -1.87321 0
M  V30 6931 C 621.024 -0.0104476 -3.38698 0
M  V30 6932 C 620.07 -0.968522 -4.15358 0
M  V30 6933 S 620.903 -2.48272 -4.74469 0
M  V30 6934 C 622.059 -1.82025 -5.98847 0
M  V30 6935 H 622.292 -1.57187 -2.52348 0
M  V30 6936 H 619.825 -0.914728 -1.24387 0
M  V30 6937 H 621.783 0.372694 -4.08805 0
M  V30 6938 H 620.444 0.852673 -3.02305 0
M  V30 6939 H 619.637 -0.443373 -5.02046 0
M  V30 6940 H 619.239 -1.29327 -3.50928 0
M  V30 6941 H 621.531 -1.14678 -6.67724 0
M  V30 6942 H 622.474 -2.66645 -6.55977 0
M  V30 6943 H 622.882 -1.2874 -5.49624 0
M  V30 6944 N 622.28 1.30327 -0.886154 0
M  V30 6945 C 623.23 2.25668 -0.325248 0
M  V30 6946 C 624.214 1.51318 0.546972 0
M  V30 6947 O 625.406 1.72623 0.391203 0
M  V30 6948 C 622.535 3.40229 0.458167 0
M  V30 6949 C 621.621 4.21933 -0.428208 0
M  V30 6950 N 622.012 4.82129 -1.52921 0
M  V30 6951 C 620.31 4.45439 -0.223535 0
M  V30 6952 C 621.011 5.43351 -2.07714 0
M  V30 6953 N 619.987 5.26002 -1.37195 0
M  V30 6954 H 623.789 2.69759 -1.1665 0
M  V30 6955 H 621.303 1.4478 -0.735691 0
M  V30 6956 H 623.3 4.07579 0.876648 0
M  V30 6957 H 621.96 2.97678 1.29684 0
M  V30 6958 H 622.971 4.81312 -1.91205 0
M  V30 6959 H 619.648 4.13481 0.577875 0
M  V30 6960 H 621.038 6.01118 -3.00178 0
M  V30 6961 N 623.758 0.647228 1.43697 0
M  V30 6962 C 625.005 0.158188 2.01881 0
M  V30 6963 C 625.333 -1.22573 1.51017 0
M  V30 6964 O 624.588 -1.83086 0.69122 0
M  V30 6965 C 624.887 0.111481 3.57226 0
M  V30 6966 C 624.553 1.43633 4.27411 0
M  V30 6967 C 623.215 1.79915 4.463 0
M  V30 6968 C 625.567 2.31011 4.67208 0
M  V30 6969 C 622.895 3.03251 5.02251 0
M  V30 6970 C 625.247 3.53633 5.24525 0
M  V30 6971 C 623.911 3.90118 5.41631 0
M  V30 6972 H 623.181 0.0578851 0.738736 0
M  V30 6973 H 625.828 0.836746 1.72252 0
M  V30 6974 H 624.133 -0.650507 3.86362 0
M  V30 6975 H 625.83 -0.283682 3.99995 0
M  V30 6976 H 622.42 1.14403 4.1305 0
M  V30 6977 H 626.604 2.04272 4.52313 0
M  V30 6978 H 621.86 3.31575 5.13681 0
M  V30 6979 H 626.034 4.21561 5.5431 0
M  V30 6980 H 623.661 4.85768 5.84751 0
M  V30 6981 N 625.236 -1.5273 0.388769 0
M  V30 6982 C 626.652 -1.59553 0.0387049 0
M  V30 6983 C 626.852 -1.40278 -1.44652 0
M  V30 6984 O 625.908 -1.21951 -2.21098 0
M  V30 6985 C 627.221 -2.9625 0.515409 0
M  V30 6986 C 628.769 -3.09426 0.471621 0
M  V30 6987 C 629.244 -4.48572 0.924505 0
M  V30 6988 N 630.735 -4.54754 0.880496 0
M  V30 6989 C 631.47 -5.60653 1.20234 0
M  V30 6990 N 630.966 -6.74198 1.59463 0
M  V30 6991 N 632.759 -5.50755 1.12363 0
M  V30 6992 H 624.91 -1.63508 1.35569 0
M  V30 6993 H 627.173 -0.768097 0.555636 0
M  V30 6994 H 626.879 -3.15569 1.5527 0
M  V30 6995 H 626.753 -3.77102 -0.085792 0
M  V30 6996 H 629.14 -2.89804 -0.556588 0
M  V30 6997 H 629.221 -2.30528 1.10862 0
M  V30 6998 H 628.865 -4.68936 1.95094 0
M  V30 6999 H 628.795 -5.25935 0.264524 0
M  V30 7000 H 631.286 -3.73237 0.591815 0
M  V30 7001 H 631.599 -7.5097 1.82385 0
M  V30 7002 H 629.944 -6.75531 1.63349 0
M  V30 7003 H 633.135 -4.6093 0.816169 0
M  V30 7004 H 633.308 -6.33184 1.37777 0
M  V30 7005 N 626.714 -0.118576 -1.57153 0
M  V30 7006 C 627.662 0.849114 -2.16547 0
M  V30 7007 C 628.656 1.27567 -1.11458 0
M  V30 7008 O 629.862 1.24746 -1.29763 0
M  V30 7009 H 626.237 0.291935 -0.693021 0
M  V30 7010 H 628.208 0.323693 -2.96639 0
M  V30 7011 C 626.957 2.08951 -2.77912 0
M  V30 7012 H 626.28 1.77021 -3.58474 0
M  V30 7013 H 627.72 2.74666 -3.23008 0
M  V30 7014 C 626.179 2.87899 -1.74974 0
M  V30 7015 O 626.709 3.83268 -1.20285 0
M  V30 7016 N 624.915 2.51884 -1.44924 0
M  V30 7017 H 624.462 1.74397 -1.89587 0
M  V30 7018 H 624.42 3.05003 -0.762921 0
M  V30 7019 N 628.193 1.56834 0.155195 0
M  V30 7020 C 629.439 1.83169 0.870467 0
M  V30 7021 C 629.772 0.698929 1.81187 0
M  V30 7022 O 629.047 -0.298035 1.92203 0
M  V30 7023 C 629.33 3.19965 1.65211 0
M  V30 7024 C 629.183 4.43792 0.732744 0
M  V30 7025 C 630.502 3.53885 2.61636 0
M  V30 7026 H 627.621 0.666288 0.315006 0
M  V30 7027 H 630.263 1.89513 0.135988 0
M  V30 7028 H 628.413 3.14687 2.27825 0
M  V30 7029 H 630.085 4.61148 0.118236 0
M  V30 7030 H 628.328 4.3378 0.0417906 0
M  V30 7031 H 628.999 5.36095 1.31552 0
M  V30 7032 H 631.475 3.5972 2.09143 0
M  V30 7033 H 630.351 4.50648 3.13381 0
M  V30 7034 H 630.612 2.79418 3.42605 0
M  V30 7035 N 629.671 -0.424282 1.51781 0
M  V30 7036 C 630.896 -1.19928 1.6921 0
M  V30 7037 C 631.321 -1.8392 0.394355 0
M  V30 7038 O 630.679 -1.69371 -0.646778 0
M  V30 7039 C 630.727 -2.24937 2.81843 0
M  V30 7040 O 629.831 -3.3073 2.46356 0
M  V30 7041 H 629.172 -0.35078 0.563781 0
M  V30 7042 H 631.702 -0.499401 1.98412 0
M  V30 7043 H 631.712 -2.69512 3.06312 0
M  V30 7044 H 630.387 -1.77742 3.76006 0
M  V30 7045 H 628.964 -2.9154 2.32505 0
M  V30 7046 N 631.149 -1.42148 -0.680565 0
M  V30 7047 C 632.096 -1.45175 -1.79424 0
M  V30 7048 C 633.066 -0.304352 -1.63288 0
M  V30 7049 O 634.251 -0.507591 -1.83924 0
M  V30 7050 C 631.391 -1.35429 -3.17416 0
M  V30 7051 C 630.504 -2.60158 -3.4488 0
M  V30 7052 C 629.639 -2.42596 -4.72568 0
M  V30 7053 C 628.678 -3.62727 -4.93047 0
M  V30 7054 N 627.815 -3.44143 -6.11973 0
M  V30 7055 H 632.655 -2.40349 -1.76172 0
M  V30 7056 H 630.192 -1.19334 -0.860107 0
M  V30 7057 H 632.15 -1.27777 -3.97151 0
M  V30 7058 H 630.78 -0.438536 -3.19807 0
M  V30 7059 H 629.832 -2.78199 -2.5944 0
M  V30 7060 H 631.144 -3.49473 -3.55908 0
M  V30 7061 H 630.298 -2.32497 -5.60384 0
M  V30 7062 H 629.037 -1.50761 -4.63813 0
M  V30 7063 H 628.042 -3.73264 -4.03676 0
M  V30 7064 H 629.267 -4.55534 -5.03652 0
M  V30 7065 H 627.213 -2.5502 -6.04401 0
M  V30 7066 H 627.13 -4.27041 -6.23836 0
M  V30 7067 H 628.398 -3.37845 -7.02482 0
M  V30 7068 N 632.627 0.916307 -1.28225 0
M  V30 7069 C 633.904 1.64429 -1.05936 0
M  V30 7070 C 634.284 2.07234 0.402139 0
M  V30 7071 O 633.632 1.81535 1.3877 0
M  V30 7072 C 633.842 2.83773 -2.03159 0
M  V30 7073 C 635.19 3.54852 -2.33164 0
M  V30 7074 O 636.214 2.93918 -2.01223 0
M  V30 7075 O 635.073 4.64663 -2.87664 0
M  V30 7076 H 632.167 0.721221 -0.404683 0
M  V30 7077 H 634.713 0.965838 -1.39534 0
M  V30 7078 H 633.485 2.49217 -3.01673 0
M  V30 7079 H 633.108 3.59333 -1.70192 0
M  V30 7080 N 634.105 1.10431 1.1244 0
M  V30 7081 C 635.038 0.696987 2.17296 0
M  V30 7082 C 636.016 -0.301673 1.59777 0
M  V30 7083 O 637.2 -0.200583 1.8743 0
M  V30 7084 C 634.327 0.0284094 3.38688 0
M  V30 7085 C 633.373 0.990536 4.14838 0
M  V30 7086 S 634.206 2.50785 4.73146 0
M  V30 7087 C 635.362 1.85198 5.97873 0
M  V30 7088 H 635.595 1.58523 2.51511 0
M  V30 7089 H 633.128 0.921312 1.239 0
M  V30 7090 H 635.086 -0.351009 4.08997 0
M  V30 7091 H 633.747 -0.836629 3.02753 0
M  V30 7092 H 632.94 0.469991 5.01804 0
M  V30 7093 H 632.542 1.31186 3.50237 0
M  V30 7094 H 634.834 1.18217 6.67106 0
M  V30 7095 H 635.777 2.7012 6.54554 0
M  V30 7096 H 636.185 1.31653 5.48933 0
M  V30 7097 N 635.583 -1.29855 0.893053 0
M  V30 7098 C 636.493 -2.31661 0.370157 0
M  V30 7099 C 637.509 -1.65677 -0.531723 0
M  V30 7100 O 638.685 -1.9691 -0.422902 0
M  V30 7101 C 635.75 -3.44388 -0.399741 0
M  V30 7102 C 634.811 -4.2598 0.532861 0
M  V30 7103 C 634.044 -5.33324 -0.200388 0
M  V30 7104 O 634.267 -5.52305 -1.42531 0
M  V30 7105 O 633.201 -6.00188 0.453668 0
M  V30 7106 H 637.027 -2.78354 1.2146 0
M  V30 7107 H 634.612 -1.34171 0.657153 0
M  V30 7108 H 636.494 -4.13037 -0.835358 0
M  V30 7109 H 635.169 -2.99815 -1.22035 0
M  V30 7110 H 634.076 -3.59998 1.01746 0
M  V30 7111 H 635.409 -4.74178 1.3197 0
M  V30 7112 N 637.061 -0.65484 -1.43351 0
M  V30 7113 C 638.008 0.0357713 -2.30772 0
M  V30 7114 C 638.978 0.813035 -1.44841 0
M  V30 7115 O 640.163 0.789314 -1.73708 0
M  V30 7116 C 637.303 0.995084 -3.30442 0
M  V30 7117 C 636.416 0.21375 -4.31471 0
M  V30 7118 C 635.551 1.16701 -5.18222 0
M  V30 7119 C 634.59 0.376201 -6.10943 0
M  V30 7120 N 633.727 1.28113 -6.90313 0
M  V30 7121 H 638.567 -0.71559 -2.89281 0
M  V30 7122 H 636.104 -0.364645 -1.42509 0
M  V30 7123 H 638.062 1.5649 -3.86739 0
M  V30 7124 H 636.692 1.7133 -2.7358 0
M  V30 7125 H 635.744 -0.472377 -3.77456 0
M  V30 7126 H 637.056 -0.401103 -4.97185 0
M  V30 7127 H 636.21 1.8074 -5.79153 0
M  V30 7128 H 634.949 1.81577 -4.52638 0
M  V30 7129 H 633.954 -0.277534 -5.49099 0
M  V30 7130 H 635.179 -0.268178 -6.7857 0
M  V30 7131 H 633.125 1.91666 -6.27376 0
M  V30 7132 H 633.042 0.720879 -7.52555 0
M  V30 7133 H 634.31 1.90962 -7.55747 0
M  V30 7134 N 638.539 1.52521 -0.396863 0
M  V30 7135 C 639.955 1.5953 -0.0471659 0
M  V30 7136 C 640.155 1.41044 1.43906 0
M  V30 7137 O 639.211 1.23122 2.20448 0
M  V30 7138 C 640.524 2.95972 -0.531113 0
M  V30 7139 C 642.072 3.09172 -0.488024 0
M  V30 7140 C 642.547 4.48075 -0.948281 0
M  V30 7141 N 644.038 4.54281 -0.9046 0
M  V30 7142 C 644.773 5.60007 -1.23205 0
M  V30 7143 N 644.269 6.73343 -1.63036 0
M  V30 7144 N 646.062 5.50151 -1.15282 0
M  V30 7145 H 638.213 1.62786 -1.36435 0
M  V30 7146 H 640.476 0.76514 -0.559701 0
M  V30 7147 H 640.182 3.14741 -1.56942 0
M  V30 7148 H 640.056 3.77143 0.0657922 0
M  V30 7149 H 642.443 2.90095 0.541211 0
M  V30 7150 H 642.524 2.29937 -1.12083 0
M  V30 7151 H 642.168 4.67894 -1.97578 0
M  V30 7152 H 642.098 5.25788 -0.292412 0
M  V30 7153 H 644.589 3.72918 -0.6116 0
M  V30 7154 H 644.902 7.49992 -1.86365 0
M  V30 7155 H 643.247 6.74655 -1.66929 0
M  V30 7156 H 646.438 4.6049 -0.840602 0
M  V30 7157 H 646.611 6.32444 -1.41133 0
M  V30 7158 N 640.017 0.126909 1.57088 0
M  V30 7159 C 641.263 -0.529952 1.95753 0
M  V30 7160 C 641.596 -1.65823 1.01077 0
M  V30 7161 O 640.871 -1.94437 0.0494162 0
M  V30 7162 C 641.154 -1.05517 3.44294 0
M  V30 7163 C 641.007 0.0702253 4.49745 0
M  V30 7164 C 642.326 -1.9435 3.94862 0
M  V30 7165 H 639.445 -0.191168 0.711775 0
M  V30 7166 H 642.087 0.204071 1.88901 0
M  V30 7167 H 640.237 -1.68069 3.50264 0
M  V30 7168 H 641.909 0.705834 4.55868 0
M  V30 7169 H 640.152 0.732259 4.27575 0
M  V30 7170 H 640.823 -0.338642 5.5096 0
M  V30 7171 H 643.299 -1.41658 3.91244 0
M  V30 7172 H 642.175 -2.28015 4.993 0
M  V30 7173 H 642.436 -2.87299 3.36024 0
M  V30 7174 N 641.495 -1.56914 -0.146875 0
M  V30 7175 C 642.744 -1.82546 -0.857898 0
M  V30 7176 C 643.057 -0.708169 -1.8233 0
M  V30 7177 O 644.263 -0.850093 -2.57848 0
M  V30 7178 C 642.719 -3.23548 -1.57623 0
M  V30 7179 C 642.327 -4.43212 -0.653224 0
M  V30 7180 C 644.071 -3.58453 -2.27402 0
M  V30 7181 C 641.978 -5.75237 -1.37318 0
M  V30 7182 H 640.908 -0.680786 -0.32411 0
M  V30 7183 H 643.559 -1.83166 -0.110639 0
M  V30 7184 H 641.941 -3.17315 -2.36912 0
M  V30 7185 H 643.115 -4.60682 0.104452 0
M  V30 7186 H 641.43 -4.16351 -0.0638336 0
M  V30 7187 H 644.027 -4.54349 -2.81907 0
M  V30 7188 H 644.37 -2.84516 -3.03901 0
M  V30 7189 H 644.903 -3.66347 -1.55032 0
M  V30 7190 H 641.642 -6.52269 -0.650041 0
M  V30 7191 H 641.162 -5.61703 -2.10357 0
M  V30 7192 H 642.841 -6.18039 -1.91406 0
M  V30 7193 N 642.974 0.416227 -1.52004 0
M  V30 7194 C 643.921 1.50666 -1.74838 0
M  V30 7195 C 644.891 1.55245 -0.590599 0
M  V30 7196 O 646.076 1.71928 -0.827374 0
M  V30 7197 C 643.216 2.88185 -1.89851 0
M  V30 7198 C 642.329 2.92971 -3.17478 0
M  V30 7199 C 641.464 4.21745 -3.22962 0
M  V30 7200 C 640.503 4.20478 -4.4482 0
M  V30 7201 N 639.64 5.40811 -4.47736 0
M  V30 7202 H 644.48 1.30498 -2.67907 0
M  V30 7203 H 642.017 0.633568 -1.32757 0
M  V30 7204 H 643.975 3.68007 -1.96537 0
M  V30 7205 H 642.605 3.06865 -1.00169 0
M  V30 7206 H 641.657 2.05684 -3.19997 0
M  V30 7207 H 642.969 2.87899 -4.07328 0
M  V30 7208 H 642.123 5.09954 -3.28682 0
M  V30 7209 H 640.862 4.29503 -2.31038 0
M  V30 7210 H 639.867 3.30659 -4.39254 0
M  V30 7211 H 641.092 4.14366 -5.38031 0
M  V30 7212 H 639.038 5.4925 -3.58692 0
M  V30 7213 H 638.955 5.37705 -5.31422 0
M  V30 7214 H 640.223 6.30993 -4.57676 0
M  V30 7215 N 644.452 1.42507 0.673017 0
M  V30 7216 C 645.698 1.44282 1.43367 0
M  V30 7217 C 646.053 0.0588239 1.9231 0
M  V30 7218 O 645.346 -0.919288 1.68106 0
M  V30 7219 C 645.54 2.40351 2.64511 0
M  V30 7220 C 645.369 3.87955 2.27423 0
M  V30 7221 C 644.139 4.56476 2.16697 0
M  V30 7222 C 646.337 4.7833 1.88957 0
M  V30 7223 N 644.319 5.89099 1.72731 0
M  V30 7224 C 645.69 6.00073 1.55923 0
M  V30 7225 C 647.745 4.65769 1.75965 0
M  V30 7226 C 646.448 7.10652 1.112 0
M  V30 7227 C 648.474 5.76332 1.32647 0
M  V30 7228 C 647.836 6.97188 1.00538 0
M  V30 7229 H 643.935 0.583134 0.521036 0
M  V30 7230 H 646.519 1.78547 0.776481 0
M  V30 7231 H 644.69 2.08145 3.27918 0
M  V30 7232 H 646.422 2.32694 3.31113 0
M  V30 7233 H 643.177 4.10712 2.35823 0
M  V30 7234 H 643.601 6.59446 1.53166 0
M  V30 7235 H 648.243 3.72808 1.99435 0
M  V30 7236 H 645.961 8.0346 0.864768 0
M  V30 7237 H 649.547 5.68625 1.23112 0
M  V30 7238 H 648.427 7.81287 0.675283 0
M  V30 7239 N 645.93 -0.909495 1.28709 0
M  V30 7240 C 647.177 -1.65905 1.16111 0
M  V30 7241 C 647.505 -1.92334 -0.289436 0
M  V30 7242 O 646.76 -1.52495 -1.22653 0
M  V30 7243 C 647.059 -3.02117 1.90945 0
M  V30 7244 C 646.725 -2.95332 3.40719 0
M  V30 7245 C 645.387 -2.93189 3.81567 0
M  V30 7246 C 647.739 -2.85264 4.36204 0
M  V30 7247 C 645.067 -2.78784 5.16233 0
M  V30 7248 C 647.419 -2.724 5.70948 0
M  V30 7249 C 646.083 -2.68617 6.11066 0
M  V30 7250 H 645.353 -0.60709 0.42488 0
M  V30 7251 H 648 -1.05932 1.59533 0
M  V30 7252 H 646.305 -3.65901 1.40085 0
M  V30 7253 H 648.002 -3.59026 1.7861 0
M  V30 7254 H 644.592 -2.97797 3.08245 0
M  V30 7255 H 648.776 -2.86005 4.05605 0
M  V30 7256 H 644.032 -2.74254 5.46438 0
M  V30 7257 H 648.206 -2.63579 6.44592 0
M  V30 7258 H 645.833 -2.57213 7.15364 0
M  V30 7259 N 647.408 -1.11026 -1.11852 0
M  V30 7260 C 648.685 -0.768347 -1.79877 0
M  V30 7261 C 649.065 0.744261 -1.97545 0
M  V30 7262 O 648.413 1.67271 -1.55669 0
M  V30 7263 C 648.623 -1.52648 -3.13846 0
M  V30 7264 C 649.971 -1.70297 -3.88953 0
M  V30 7265 O 650.995 -1.49037 -3.23522 0
M  V30 7266 O 649.854 -2.05593 -5.06353 0
M  V30 7267 H 646.948 -0.277891 -0.778913 0
M  V30 7268 H 649.494 -1.21343 -1.18633 0
M  V30 7269 H 648.266 -2.55564 -2.96315 0
M  V30 7270 H 647.889 -1.07466 -3.82801 0
M  V30 7271 N 648.886 1.2938 -0.899927 0
M  V30 7272 C 650.116 1.99402 -0.540601 0
M  V30 7273 C 650.524 1.67534 0.87914 0
M  V30 7274 O 649.867 0.916821 1.59186 0
M  V30 7275 C 649.929 3.53514 -0.653326 0
M  V30 7276 C 649.593 4.08937 -2.04009 0
M  V30 7277 C 650.59 4.23815 -3.01126 0
M  V30 7278 C 648.275 4.43962 -2.34953 0
M  V30 7279 C 650.269 4.72951 -4.27313 0
M  V30 7280 C 647.956 4.92795 -3.61382 0
M  V30 7281 C 648.954 5.07244 -4.57376 0
M  V30 7282 O 648.642 5.55017 -5.8156 0
M  V30 7283 H 648.374 0.64383 -0.206057 0
M  V30 7284 H 650.928 1.65878 -1.21134 0
M  V30 7285 H 649.158 3.86628 0.0744449 0
M  V30 7286 H 650.847 4.04767 -0.303118 0
M  V30 7287 H 651.613 3.97043 -2.78535 0
M  V30 7288 H 647.492 4.31974 -1.60994 0
M  V30 7289 H 651.036 4.84144 -5.02245 0
M  V30 7290 H 646.933 5.19004 -3.83804 0
M  V30 7291 H 647.701 5.73331 -5.84153 0
M  V30 7292 N 650.364 0.662433 1.43002 0
M  V30 7293 C 651.294 -0.00979809 2.33498 0
M  V30 7294 C 652.275 -0.802329 1.49989 0
M  V30 7295 O 653.46 -0.761964 1.78627 0
M  V30 7296 C 650.59 -0.970446 3.33466 0
M  V30 7297 C 649.544 -0.287383 4.27034 0
M  V30 7298 C 648.87 -1.36012 5.17112 0
M  V30 7299 C 650.17 0.82595 5.15728 0
M  V30 7300 H 651.864 0.745959 2.89958 0
M  V30 7301 H 649.41 0.360172 1.39423 0
M  V30 7302 H 651.363 -1.44971 3.95679 0
M  V30 7303 H 650.087 -1.75748 2.75282 0
M  V30 7304 H 648.746 0.17152 3.66199 0
M  V30 7305 H 648.394 -2.13882 4.55262 0
M  V30 7306 H 648.094 -0.908276 5.80538 0
M  V30 7307 H 649.618 -1.84056 5.82199 0
M  V30 7308 H 651.032 0.42845 5.71697 0
M  V30 7309 H 649.429 1.20282 5.87922 0
M  V30 7310 H 650.499 1.68003 4.54866 0
M  V30 7311 N 651.842 -1.52309 0.404946 0
M  V30 7312 C 653.088 -2.02731 -0.164857 0
M  V30 7313 C 653.443 -1.28543 -1.43159 0
M  V30 7314 O 652.736 -0.381883 -1.87756 0
M  V30 7315 C 652.93 -3.54284 -0.470895 0
M  V30 7316 C 652.759 -4.43152 0.764625 0
M  V30 7317 C 651.529 -4.88594 1.28858 0
M  V30 7318 C 653.727 -4.874 1.64152 0
M  V30 7319 N 651.709 -5.61577 2.48001 0
M  V30 7320 C 653.08 -5.59121 2.67924 0
M  V30 7321 C 655.135 -4.69421 1.65978 0
M  V30 7322 C 653.838 -6.14772 3.73427 0
M  V30 7323 C 655.864 -5.25966 2.70396 0
M  V30 7324 C 655.226 -5.97606 3.7289 0
M  V30 7325 H 651.325 -0.78169 -0.0220025 0
M  V30 7326 H 653.909 -1.86522 0.558354 0
M  V30 7327 H 652.08 -3.70574 -1.16315 0
M  V30 7328 H 653.812 -3.91394 -1.02921 0
M  V30 7329 H 650.567 -4.6596 0.847232 0
M  V30 7330 H 650.991 -6.02712 3.08329 0
M  V30 7331 H 655.633 -4.13524 0.88079 0
M  V30 7332 H 653.351 -6.69743 4.52184 0
M  V30 7333 H 656.937 -5.13926 2.72711 0
M  V30 7334 H 655.817 -6.40577 4.52361 0
M  V30 7335 N 653.32 -0.135238 -1.57019 0
M  V30 7336 C 654.548 0.526066 -2.001 0
M  V30 7337 C 654.963 1.59184 -1.01519 0
M  V30 7338 O 654.32 1.82497 -0.0104258 0
M  V30 7339 C 654.371 1.13744 -3.43139 0
M  V30 7340 O 654.092 0.114259 -4.37951 0
M  V30 7341 C 655.593 1.8805 -4.01438 0
M  V30 7342 H 652.813 0.137962 -0.656664 0
M  V30 7343 H 655.357 -0.226359 -2.03243 0
M  V30 7344 H 653.512 1.84056 -3.40885 0
M  V30 7345 H 653.926 0.56058 -5.21496 0
M  V30 7346 H 655.4 2.26133 -5.03555 0
M  V30 7347 H 655.877 2.76194 -3.41487 0
M  V30 7348 H 656.483 1.22464 -4.07287 0
M  V30 7349 N 654.798 1.5699 0.138552 0
M  V30 7350 C 655.746 1.99858 1.18994 0
M  V30 7351 C 656.74 0.89231 1.43994 0
M  V30 7352 O 657.946 1.0775 1.44187 0
M  V30 7353 H 654.321 0.636325 0.400743 0
M  V30 7354 H 656.292 2.87427 0.801755 0
M  V30 7355 C 655.041 2.40235 2.51361 0
M  V30 7356 H 654.364 3.24917 2.32957 0
M  V30 7357 H 655.804 2.74045 3.23535 0
M  V30 7358 C 654.263 1.25829 3.1252 0
M  V30 7359 O 654.793 0.563604 3.97727 0
M  V30 7360 N 652.999 1.02036 2.72097 0
M  V30 7361 H 652.546 1.58705 2.02905 0
M  V30 7362 H 652.504 0.256796 3.1335 0
M  V30 7363 N 656.276 -0.40816 1.52223 0
M  V30 7364 C 657.223 -1.49737 1.75635 0
M  V30 7365 C 658.193 -1.5493 0.598824 0
M  V30 7366 O 659.378 -1.71487 0.83648 0
M  V30 7367 C 656.518 -2.87174 1.91376 0
M  V30 7368 C 655.631 -2.91283 3.19027 0
M  V30 7369 C 654.766 -4.20026 3.25195 0
M  V30 7370 C 653.805 -4.18113 4.47044 0
M  V30 7371 N 652.942 -5.38429 4.50598 0
M  V30 7372 H 657.782 -1.29075 2.68596 0
M  V30 7373 H 655.319 -0.626518 1.33091 0
M  V30 7374 H 657.277 -3.66959 1.98486 0
M  V30 7375 H 655.907 -3.06329 1.01795 0
M  V30 7376 H 654.959 -2.03984 3.21084 0
M  V30 7377 H 656.271 -2.85734 4.08849 0
M  V30 7378 H 655.425 -5.08204 3.31382 0
M  V30 7379 H 654.164 -4.28271 2.33313 0
M  V30 7380 H 653.169 -3.28325 4.41002 0
M  V30 7381 H 654.394 -4.11507 5.40221 0
M  V30 7382 H 652.34 -5.4734 3.616 0
M  V30 7383 H 652.257 -5.34879 5.34266 0
M  V30 7384 H 653.525 -6.28557 4.61016 0
M  V30 7385 N 657.755 -1.42862 -0.66545 0
M  V30 7386 C 658.702 -1.4707 -1.77874 0
M  V30 7387 C 659.672 -0.321654 -1.62956 0
M  V30 7388 O 660.857 -0.52707 -1.83376 0
M  V30 7389 C 657.997 -1.38788 -3.15962 0
M  V30 7390 C 657.11 -2.63801 -3.42101 0
M  V30 7391 C 656.245 -2.47594 -4.69969 0
M  V30 7392 C 655.284 -3.67936 -4.89172 0
M  V30 7393 N 654.421 -3.50614 -6.08288 0
M  V30 7394 H 659.261 -2.42204 -1.73613 0
M  V30 7395 H 656.798 -1.20239 -0.847401 0
M  V30 7396 H 658.756 -1.31982 -3.95773 0
M  V30 7397 H 657.386 -0.472431 -3.19324 0
M  V30 7398 H 656.438 -2.80935 -2.56475 0
M  V30 7399 H 657.75 -3.53228 -3.52181 0
M  V30 7400 H 656.904 -2.38427 -5.57886 0
M  V30 7401 H 655.643 -1.55672 -4.62188 0
M  V30 7402 H 654.648 -3.77525 -3.99694 0
M  V30 7403 H 655.873 -4.60851 -4.98792 0
M  V30 7404 H 653.819 -2.61417 -6.01662 0
M  V30 7405 H 653.736 -4.33634 -6.19272 0
M  V30 7406 H 655.004 -3.45276 -6.98859 0
M  V30 7407 N 659.233 0.902656 -1.29189 0
M  V30 7408 C 660.461 1.68639 -1.19869 0
M  V30 7409 C 660.876 1.87254 0.241121 0
M  V30 7410 O 660.233 1.40745 1.16177 0
M  V30 7411 C 660.284 3.07251 -1.90471 0
M  V30 7412 O 660.005 2.89488 -3.28829 0
M  V30 7413 C 661.506 4.01653 -1.8759 0
M  V30 7414 H 658.726 0.526802 -0.415596 0
M  V30 7415 H 661.27 1.12901 -1.7051 0
M  V30 7416 H 659.425 3.59774 -1.43672 0
M  V30 7417 H 659.839 3.77296 -3.64346 0
M  V30 7418 H 661.313 4.96339 -2.4156 0
M  V30 7419 H 661.79 4.30881 -0.850756 0
M  V30 7420 H 662.396 3.55061 -2.34119 0
M  V30 7421 N 660.711 1.11618 1.11262 0
M  V30 7422 C 661.957 0.867463 1.83311 0
M  V30 7423 C 662.29 -0.605366 1.84524 0
M  V30 7424 O 661.565 -1.44704 1.29965 0
M  V30 7425 C 661.848 1.43207 3.30399 0
M  V30 7426 C 661.701 2.97265 3.3757 0
M  V30 7427 C 663.02 1.08454 4.26528 0
M  V30 7428 H 660.139 0.316578 0.665543 0
M  V30 7429 H 662.781 1.38137 1.30454 0
M  V30 7430 H 660.931 0.994982 3.75543 0
M  V30 7431 H 662.603 3.49591 3.00971 0
M  V30 7432 H 660.846 3.33237 2.77733 0
M  V30 7433 H 661.517 3.31859 4.41105 0
M  V30 7434 H 663.993 1.4619 3.89574 0
M  V30 7435 H 662.869 1.50633 5.27826 0
M  V30 7436 H 663.13 -0.00444568 4.421 0
M  V30 7437 N 662.189 -1.289 0.906776 0
M  V30 7438 C 663.466 -1.90221 0.455537 0
M  V30 7439 C 663.846 -1.82251 -1.06527 0
M  V30 7440 O 663.194 -1.25385 -1.91026 0
M  V30 7441 C 663.404 -3.35015 0.97806 0
M  V30 7442 C 664.752 -4.12018 1.02598 0
M  V30 7443 O 665.776 -3.43947 0.926218 0
M  V30 7444 O 664.635 -5.33677 1.17689 0
M  V30 7445 H 661.729 -0.814505 0.143214 0
M  V30 7446 H 664.275 -1.37317 0.997104 0
M  V30 7447 H 663.047 -3.35006 2.02204 0
M  V30 7448 H 662.67 -3.95408 0.416914 0
M  V30 7449 N 663.667 -0.670007 -1.42649 0
M  V30 7450 C 664.577 0.0114788 -2.34597 0
M  V30 7451 C 665.593 0.794055 -1.54825 0
M  V30 7452 O 666.769 0.737472 -1.87412 0
M  V30 7453 C 663.834 0.954436 -3.33304 0
M  V30 7454 C 662.895 0.166925 -4.28975 0
M  V30 7455 C 662.128 1.06497 -5.22967 0
M  V30 7456 O 662.351 2.30446 -5.21777 0
M  V30 7457 O 661.285 0.528347 -5.99577 0
M  V30 7458 H 665.111 -0.745794 -2.944 0
M  V30 7459 H 662.696 -0.430228 -1.43071 0
M  V30 7460 H 664.578 1.49589 -3.93956 0
M  V30 7461 H 663.253 1.69164 -2.7598 0
M  V30 7462 H 662.16 -0.418515 -3.71752 0
M  V30 7463 H 663.493 -0.531067 -4.89327 0
M  V30 7464 N 665.145 1.52092 -0.413018 0
M  V30 7465 C 666.092 2.27119 0.410558 0
M  V30 7466 C 667.062 1.29692 1.03774 0
M  V30 7467 O 668.247 1.58561 1.06128 0
M  V30 7468 C 665.387 3.09863 1.51918 0
M  V30 7469 C 664.5 4.22252 0.912528 0
M  V30 7470 C 663.635 4.92348 1.99417 0
M  V30 7471 C 662.674 5.96694 1.36466 0
M  V30 7472 N 661.811 6.60292 2.38661 0
M  V30 7473 H 666.651 2.97067 -0.235661 0
M  V30 7474 H 664.188 1.46542 -0.128055 0
M  V30 7475 H 666.146 3.56144 2.17295 0
M  V30 7476 H 664.776 2.42078 2.13537 0
M  V30 7477 H 663.828 3.80113 0.147697 0
M  V30 7478 H 665.14 4.9709 0.412717 0
M  V30 7479 H 664.294 5.42054 2.72512 0
M  V30 7480 H 663.033 4.17087 2.52764 0
M  V30 7481 H 662.038 5.46304 0.61906 0
M  V30 7482 H 663.263 6.73899 0.838827 0
M  V30 7483 H 661.209 5.87858 2.91134 0
M  V30 7484 H 661.126 7.30816 1.93503 0
M  V30 7485 H 662.394 7.14635 3.11314 0
M  V30 7486 N 666.623 0.143563 1.56945 0
M  V30 7487 C 667.533 -0.810562 2.20152 0
M  V30 7488 C 668.549 -1.27431 1.1848 0
M  V30 7489 O 669.725 -1.33221 1.51044 0
M  V30 7490 C 666.79 -2.03353 2.80799 0
M  V30 7491 C 665.851 -1.61936 3.97587 0
M  V30 7492 C 665.084 -2.78403 4.55332 0
M  V30 7493 O 665.307 -3.94521 4.11958 0
M  V30 7494 O 664.241 -2.54073 5.45647 0
M  V30 7495 H 668.067 -0.30253 3.02189 0
M  V30 7496 H 665.652 -0.0832925 1.49168 0
M  V30 7497 H 667.534 -2.74932 3.19359 0
M  V30 7498 H 666.209 -2.53116 2.01777 0
M  V30 7499 H 665.116 -0.873904 3.6375 0
M  V30 7500 H 666.449 -1.16892 4.78118 0
M  V30 7501 N 668.101 -1.57061 -0.130224 0
M  V30 7502 C 669.347 -1.8453 -0.841216 0
M  V30 7503 C 669.68 -0.727666 -1.80052 0
M  V30 7504 O 668.955 0.267419 -1.92653 0
M  V30 7505 C 669.238 -3.22553 -1.60099 0
M  V30 7506 C 669.091 -4.44901 -0.662048 0
M  V30 7507 C 670.41 -3.58003 -2.55973 0
M  V30 7508 H 667.529 -0.671215 -0.304366 0
M  V30 7509 H 670.171 -1.89705 -0.105821 0
M  V30 7510 H 668.321 -3.18272 -2.22789 0
M  V30 7511 H 669.993 -4.61278 -0.0448559 0
M  V30 7512 H 668.236 -4.33791 0.0272253 0
M  V30 7513 H 668.907 -5.3812 -1.23006 0
M  V30 7514 H 671.383 -3.63002 -2.03393 0
M  V30 7515 H 670.259 -4.55576 -3.06172 0
M  V30 7516 H 670.52 -2.84833 -3.38116 0
M  V30 7517 N 669.579 0.400081 -1.52437 0
M  V30 7518 C 670.509 1.4947 -1.7939 0
M  V30 7519 C 671.49 1.57383 -0.645329 0
M  V30 7520 O 672.675 1.72511 -0.891826 0
M  V30 7521 C 669.805 2.87201 -1.95276 0
M  V30 7522 C 668.759 2.94134 -3.10917 0
M  V30 7523 C 668.085 4.34207 -3.1204 0
M  V30 7524 C 669.385 2.64791 -4.50203 0
M  V30 7525 H 671.079 1.27165 -2.71052 0
M  V30 7526 H 668.625 0.610312 -1.30427 0
M  V30 7527 H 670.578 3.63772 -2.12715 0
M  V30 7528 H 669.302 3.10819 -1.00294 0
M  V30 7529 H 667.961 2.20009 -2.93243 0
M  V30 7530 H 667.609 4.54848 -2.14761 0
M  V30 7531 H 667.309 4.39768 -3.89715 0
M  V30 7532 H 668.833 5.127 -3.31619 0
M  V30 7533 H 670.247 3.31083 -4.68035 0
M  V30 7534 H 668.644 2.81717 -5.29864 0
M  V30 7535 H 669.714 1.60184 -4.57678 0
M  V30 7536 N 671.057 1.43213 0.657864 0
M  V30 7537 C 672.004 1.48011 1.77092 0
M  V30 7538 C 672.974 0.330291 1.62783 0
M  V30 7539 O 674.159 0.536787 1.83094 0
M  V30 7540 C 671.299 1.40461 3.15222 0
M  V30 7541 C 670.412 2.65612 3.40697 0
M  V30 7542 C 669.547 2.50083 4.68649 0
M  V30 7543 C 668.586 3.70525 4.87214 0
M  V30 7544 N 667.723 3.53835 6.0642 0
M  V30 7545 H 672.563 2.43121 1.72326 0
M  V30 7546 H 670.1 1.20687 0.841013 0
M  V30 7547 H 672.058 1.34079 3.95068 0
M  V30 7548 H 670.688 0.489359 3.19069 0
M  V30 7549 H 669.74 2.82292 2.54982 0
M  V30 7550 H 671.052 3.5509 3.50303 0
M  V30 7551 H 670.206 2.41383 5.56614 0
M  V30 7552 H 668.945 1.58121 4.61356 0
M  V30 7553 H 667.95 3.79639 3.97686 0
M  V30 7554 H 669.175 4.63489 4.96341 0
M  V30 7555 H 667.121 2.64604 6.00267 0
M  V30 7556 H 667.038 4.36912 6.16963 0
M  V30 7557 H 668.306 3.48978 6.97019 0
M  V30 7558 N 672.536 -0.895792 1.29666 0
M  V30 7559 C 673.766 -1.67757 1.20586 0
M  V30 7560 C 674.174 -1.87729 -0.235432 0
M  V30 7561 O 673.517 -1.41706 -1.16898 0
M  V30 7562 C 673.579 -3.08117 1.85215 0
M  V30 7563 C 673.243 -3.1136 3.3452 0
M  V30 7564 C 674.24 -2.91217 4.30684 0
M  V30 7565 C 671.925 -3.33302 3.75786 0
M  V30 7566 C 673.919 -2.92955 5.66089 0
M  V30 7567 C 671.606 -3.3467 5.11311 0
M  V30 7568 C 672.604 -3.14519 6.06273 0
M  V30 7569 O 672.292 -3.15684 7.39323 0
M  V30 7570 H 672.024 -0.530601 0.418854 0
M  V30 7571 H 674.578 -1.12831 1.71634 0
M  V30 7572 H 672.808 -3.64661 1.28683 0
M  V30 7573 H 674.497 -3.68399 1.70403 0
M  V30 7574 H 675.263 -2.74074 4.00136 0
M  V30 7575 H 671.142 -3.48025 3.02324 0
M  V30 7576 H 674.686 -2.77145 6.40185 0
M  V30 7577 H 670.583 -3.51346 5.41504 0
M  V30 7578 H 671.351 -3.31924 7.48177 0
M  V30 7579 N 674.014 -1.12206 -1.10668 0
M  V30 7580 C 674.944 -0.810086 -2.18997 0
M  V30 7581 C 675.925 0.225065 -1.68604 0
M  V30 7582 O 677.11 0.086783 -1.94006 0
M  V30 7583 C 674.24 -0.261262 -3.46316 0
M  V30 7584 C 673.194 -1.2292 -4.09969 0
M  V30 7585 C 672.52 -0.540713 -5.31959 0
M  V30 7586 C 673.82 -2.58295 -4.53962 0
M  V30 7587 H 675.514 -1.7159 -2.45352 0
M  V30 7588 H 673.06 -0.82646 -1.17922 0
M  V30 7589 H 675.013 -0.0307522 -4.21389 0
M  V30 7590 H 673.737 0.679879 -3.19445 0
M  V30 7591 H 672.396 -1.44548 -3.369 0
M  V30 7592 H 672.044 0.405492 -5.01363 0
M  V30 7593 H 671.744 -1.18637 -5.75499 0
M  V30 7594 H 673.268 -0.319184 -6.09765 0
M  V30 7595 H 674.682 -2.40709 -5.20319 0
M  V30 7596 H 673.079 -3.18916 -5.08343 0
M  V30 7597 H 674.149 -3.16918 -3.67002 0
M  V30 7598 N 675.492 1.28418 -0.913599 0
M  V30 7599 C 676.903 1.77024 -0.593237 0
M  V30 7600 C 677.254 1.74779 0.891441 0
M  V30 7601 O 676.379 1.34237 1.69733 0
M  V30 7602 C 676.974 3.21456 -1.07011 0
M  V30 7603 C 675.533 3.67786 -0.800664 0
M  V30 7604 C 674.68 2.48185 -1.23691 0
M  V30 7605 H 677.631 1.14883 -1.09487 0
M  V30 7606 H 677.652 3.78269 -0.411481 0
M  V30 7607 H 677.164 3.23058 -2.1507 0
M  V30 7608 H 675.265 3.71644 0.266725 0
M  V30 7609 H 675.378 4.57934 -1.4083 0
M  V30 7610 H 673.742 2.46116 -0.655655 0
M  V30 7611 H 674.525 2.52506 -2.32585 0
M  V30 7612 N 676.97 0.677563 1.42291 0
M  V30 7613 C 678.247 0.129803 1.95169 0
M  V30 7614 C 678.627 -1.35605 1.61786 0
M  V30 7615 O 677.975 -2.09361 0.915444 0
M  V30 7616 C 678.185 0.401889 3.46678 0
M  V30 7617 C 679.533 0.319889 4.23393 0
M  V30 7618 O 680.557 0.33579 3.54614 0
M  V30 7619 O 679.416 0.264459 5.4586 0
M  V30 7620 H 676.51 0.00447433 0.826988 0
M  V30 7621 H 679.056 0.752483 1.52105 0
M  V30 7622 H 677.828 1.43108 3.64192 0
M  V30 7623 H 677.451 -0.252662 3.96796 0
M  V30 7624 N 678.448 -1.51871 0.421078 0
M  V30 7625 C 679.395 -2.27334 -0.398508 0
M  V30 7626 C 680.365 -1.30241 -1.03085 0
M  V30 7627 O 681.55 -1.59121 -1.05285 0
M  V30 7628 C 678.69 -3.10664 -1.50272 0
M  V30 7629 C 677.803 -4.2273 -0.890122 0
M  V30 7630 C 676.938 -4.93399 -1.96803 0
M  V30 7631 C 675.977 -5.97409 -1.333 0
M  V30 7632 N 675.114 -6.61548 -2.35156 0
M  V30 7633 H 679.954 -2.96938 0.251411 0
M  V30 7634 H 677.491 -1.46472 0.135825 0
M  V30 7635 H 679.449 -3.57292 -2.15403 0
M  V30 7636 H 678.079 -2.43207 -2.1225 0
M  V30 7637 H 677.131 -3.80186 -0.127537 0
M  V30 7638 H 678.443 -4.97302 -0.386349 0
M  V30 7639 H 677.597 -5.43491 -2.69633 0
M  V30 7640 H 676.336 -4.18421 -2.50549 0
M  V30 7641 H 675.341 -5.46624 -0.59008 0
M  V30 7642 H 676.566 -6.74335 -0.803076 0
M  V30 7643 H 674.512 -5.89394 -2.88012 0
M  V30 7644 H 674.429 -7.31832 -1.89624 0
M  V30 7645 H 675.697 -7.16276 -3.0752 0
M  V30 7646 N 679.926 -0.151884 -1.56866 0
M  V30 7647 C 680.856 0.781943 -2.20018 0
M  V30 7648 C 681.837 1.25347 -1.14987 0
M  V30 7649 O 683.022 1.31015 -1.43348 0
M  V30 7650 C 680.152 2.01928 -2.82564 0
M  V30 7651 C 679.106 1.68434 -3.93464 0
M  V30 7652 C 678.432 2.99472 -4.42968 0
M  V30 7653 C 679.732 0.927244 -5.14003 0
M  V30 7654 H 681.426 0.255607 -2.98307 0
M  V30 7655 H 678.972 0.121502 -1.43486 0
M  V30 7656 H 680.925 2.67741 -3.25411 0
M  V30 7657 H 679.649 2.56943 -2.01614 0
M  V30 7658 H 678.308 1.04998 -3.51242 0
M  V30 7659 H 677.956 3.52488 -3.58834 0
M  V30 7660 H 677.656 2.77823 -5.17772 0
M  V30 7661 H 679.18 3.66348 -4.88489 0
M  V30 7662 H 680.594 1.48756 -5.53665 0
M  V30 7663 H 678.991 0.810513 -5.94601 0
M  V30 7664 H 680.061 -0.0801163 -4.84834 0
M  V30 7665 N 681.404 1.57128 0.121893 0
M  V30 7666 C 682.82 1.52357 0.47534 0
M  V30 7667 C 683.02 0.864417 1.82017 0
M  V30 7668 O 682.076 0.445529 2.48538 0
M  V30 7669 C 683.389 2.97122 0.4625 0
M  V30 7670 C 684.937 3.08196 0.546255 0
M  V30 7671 C 685.412 4.54516 0.563833 0
M  V30 7672 N 686.903 4.58959 0.625353 0
M  V30 7673 C 687.638 5.69585 0.660354 0
M  V30 7674 N 687.134 6.89714 0.653175 0
M  V30 7675 N 688.927 5.57685 0.703143 0
M  V30 7676 H 681.078 1.98364 -0.75931 0
M  V30 7677 H 683.341 0.905777 -0.279772 0
M  V30 7678 H 683.047 3.48706 -0.457943 0
M  V30 7679 H 682.921 3.54406 1.29136 0
M  V30 7680 H 685.308 2.56617 1.45712 0
M  V30 7681 H 685.389 2.53912 -0.310234 0
M  V30 7682 H 685.033 5.06741 -0.342974 0
M  V30 7683 H 684.963 5.06609 1.43716 0
M  V30 7684 H 687.454 3.72489 0.637182 0
M  V30 7685 H 687.767 7.69781 0.682425 0
M  V30 7686 H 686.112 6.92223 0.620646 0
M  V30 7687 H 689.303 4.62744 0.706095 0
M  V30 7688 H 689.476 6.43909 0.726952 0
M  V30 7689 N 682.882 -0.391992 1.52647 0
M  V30 7690 C 683.845 -1.46135 1.7657 0
M  V30 7691 C 684.845 -1.47701 0.635698 0
M  V30 7692 O 686.035 -1.48924 0.903728 0
M  V30 7693 C 683.167 -2.85443 1.86374 0
M  V30 7694 H 684.36 -1.26208 2.72051 0
M  V30 7695 H 681.913 -0.623549 1.43323 0
M  V30 7696 H 682.648 -3.10718 0.928685 0
M  V30 7697 H 682.433 -2.85708 2.68539 0
M  V30 7698 H 683.923 -3.62933 2.06566 0
M  V30 7699 N 684.36 -1.4356 -0.65026 0
M  V30 7700 C 685.27 -1.514 -1.79207 0
M  V30 7701 C 686.286 -0.400895 -1.69319 0
M  V30 7702 O 687.462 -0.655458 -1.90436 0
M  V30 7703 C 684.527 -1.43737 -3.155 0
M  V30 7704 C 683.588 -2.65743 -3.37163 0
M  V30 7705 C 682.821 -2.58436 -4.66954 0
M  V30 7706 O 683.044 -1.63374 -5.46503 0
M  V30 7707 O 681.978 -3.48984 -4.90402 0
M  V30 7708 H 685.804 -2.47825 -1.75547 0
M  V30 7709 H 683.389 -1.25594 -0.809111 0
M  V30 7710 H 685.271 -1.41916 -3.96784 0
M  V30 7711 H 683.946 -0.504488 -3.19745 0
M  V30 7712 H 682.853 -2.73136 -2.55632 0
M  V30 7713 H 684.186 -3.58014 -3.37768 0
M  V30 7714 N 685.838 0.888903 -1.30139 0
M  V30 7715 C 687.087 1.63507 -1.18103 0
M  V30 7716 C 687.4 1.93808 0.264141 0
M  V30 7717 O 688.606 2.66744 0.505966 0
M  V30 7718 C 687.062 2.94673 -2.0663 0
M  V30 7719 C 686.67 2.71926 -3.56034 0
M  V30 7720 C 688.414 3.72626 -2.03346 0
M  V30 7721 C 686.321 3.98884 -4.3663 0
M  V30 7722 H 685.251 0.613426 -0.438435 0
M  V30 7723 H 687.902 0.984427 -1.54859 0
M  V30 7724 H 686.284 3.61009 -1.62754 0
M  V30 7725 H 687.458 2.14116 -4.08033 0
M  V30 7726 H 685.773 2.07353 -3.61101 0
M  V30 7727 H 688.37 4.66775 -2.60816 0
M  V30 7728 H 688.713 4.03712 -1.016 0
M  V30 7729 H 689.246 3.13147 -2.45324 0
M  V30 7730 H 685.985 3.72959 -5.39056 0
M  V30 7731 H 685.505 4.56214 -3.89396 0
M  V30 7732 H 687.184 4.66938 -4.47859 0
M  V30 7733 N 687.317 1.12792 1.10072 0
M  V30 7734 C 688.28 0.802264 2.14701 0
M  V30 7735 C 689.28 -0.18515 1.59731 0
M  V30 7736 O 690.47 0.041109 1.74151 0
M  V30 7737 C 687.602 0.19285 3.40354 0
M  V30 7738 H 688.795 1.72932 2.45019 0
M  V30 7739 H 686.348 0.931662 1.25498 0
M  V30 7740 H 687.083 -0.743748 3.15656 0
M  V30 7741 H 686.868 0.903827 3.81541 0
M  V30 7742 H 688.358 -0.0183704 4.17596 0
M  V30 7743 N 688.795 -1.27931 0.920396 0
M  V30 7744 C 690.044 -1.93975 0.552867 0
M  V30 7745 C 690.357 -1.73193 -0.909035 0
M  V30 7746 O 691.563 -2.33515 -1.38502 0
M  V30 7747 C 690.019 -3.47463 0.937947 0
M  V30 7748 C 689.627 -3.77013 2.42003 0
M  V30 7749 C 691.371 -4.19628 0.64132 0
M  V30 7750 C 689.278 -5.23841 2.74489 0
M  V30 7751 H 688.208 -0.726146 0.203046 0
M  V30 7752 H 690.859 -1.45339 1.12022 0
M  V30 7753 H 689.241 -3.94867 0.299317 0
M  V30 7754 H 690.415 -3.40393 3.10595 0
M  V30 7755 H 688.73 -3.18035 2.6878 0
M  V30 7756 H 691.327 -5.27729 0.860622 0
M  V30 7757 H 691.67 -4.14164 -0.421168 0
M  V30 7758 H 692.203 -3.78022 1.23872 0
M  V30 7759 H 688.942 -5.34388 3.79618 0
M  V30 7760 H 688.462 -5.61634 2.1054 0
M  V30 7761 H 690.141 -5.91647 2.61845 0
M  V30 7762 N 690.273 -0.685099 -1.4193 0
M  V30 7763 C 691.221 -0.00165985 -2.326 0
M  V30 7764 C 692.215 0.779678 -1.50391 0
M  V30 7765 O 693.421 0.68648 -1.66395 0
M  V30 7766 H 689.796 0.0182616 -0.751778 0
M  V30 7767 H 691.767 -0.783592 -2.87928 0
M  V30 7768 C 690.516 0.928385 -3.35077 0
M  V30 7769 H 689.839 0.336578 -3.98381 0
M  V30 7770 H 691.279 1.37509 -4.01083 0
M  V30 7771 C 689.738 2.03964 -2.68142 0
M  V30 7772 O 690.268 3.12727 -2.5212 0
M  V30 7773 N 688.474 1.81433 -2.27003 0
M  V30 7774 H 688.021 0.929807 -2.40234 0
M  V30 7775 H 687.979 2.55973 -1.82552 0
M  V30 7776 N 691.751 1.51645 -0.429126 0
M  V30 7777 C 692.997 2.02314 0.140286 0
M  V30 7778 C 693.33 1.31314 1.43074 0
M  V30 7779 O 692.605 0.425531 1.89788 0
M  V30 7780 C 692.888 3.5822 0.36749 0
M  V30 7781 C 692.741 4.39846 -0.941039 0
M  V30 7782 C 694.06 4.25055 1.14089 0
M  V30 7783 H 691.179 0.735335 0.0495112 0
M  V30 7784 H 693.821 1.81358 -0.566514 0
M  V30 7785 H 691.971 3.76207 0.969556 0
M  V30 7786 H 693.643 4.33527 -1.57646 0
M  V30 7787 H 691.886 4.05259 -1.54751 0
M  V30 7788 H 692.557 5.47069 -0.73621 0
M  V30 7789 H 695.033 4.11288 0.630986 0
M  V30 7790 H 693.909 5.34038 1.26863 0
M  V30 7791 H 694.17 3.85358 2.16683 0
M  V30 7792 N 693.229 0.160201 1.56784 0
M  V30 7793 C 694.179 -0.786461 2.14007 0
M  V30 7794 C 695.163 -1.20046 1.07134 0
M  V30 7795 O 696.355 -1.16468 1.33283 0
M  V30 7796 C 693.484 -2.02024 2.77563 0
M  V30 7797 C 692.57 -1.62874 3.91578 0
M  V30 7798 N 692.961 -0.946176 4.96871 0
M  V30 7799 C 691.259 -1.92054 4.02531 0
M  V30 7800 C 691.96 -0.755084 5.76778 0
M  V30 7801 N 690.936 -1.29307 5.27997 0
M  V30 7802 H 694.738 -0.255879 2.92784 0
M  V30 7803 H 692.252 -0.0408778 1.62349 0
M  V30 7804 H 694.249 -2.70855 3.16928 0
M  V30 7805 H 692.909 -2.55587 2.00263 0
M  V30 7806 H 693.92 -0.605455 5.14349 0
M  V30 7807 H 690.597 -2.47374 3.36322 0
M  V30 7808 H 691.987 -0.216138 6.71552 0
M  V30 7809 N 694.707 -1.5719 -0.113559 0
M  V30 7810 C 695.637 -2.03772 -1.14013 0
M  V30 7811 C 696.618 -0.923176 -1.42869 0
M  V30 7812 O 697.803 -1.19325 -1.53216 0
M  V30 7813 C 694.933 -2.44663 -2.4649 0
M  V30 7814 C 693.887 -3.59612 -2.32085 0
M  V30 7815 C 693.213 -3.8642 -3.69573 0
M  V30 7816 C 694.513 -4.91149 -1.7768 0
M  V30 7817 H 696.207 -2.89785 -0.752665 0
M  V30 7818 H 693.753 -1.39412 -0.360609 0
M  V30 7819 H 695.706 -2.75857 -3.18561 0
M  V30 7820 H 694.43 -1.55628 -2.87137 0
M  V30 7821 H 693.089 -3.28636 -1.62461 0
M  V30 7822 H 692.737 -2.94581 -4.07715 0
M  V30 7823 H 692.437 -4.63797 -3.60786 0
M  V30 7824 H 693.961 -4.2007 -4.4314 0
M  V30 7825 H 695.375 -5.20843 -2.39574 0
M  V30 7826 H 693.772 -5.72562 -1.79701 0
M  V30 7827 H 694.842 -4.79301 -0.734776 0
M  V30 7828 N 696.185 0.383891 -1.52853 0
M  V30 7829 C 697.462 1.14296 -1.58732 0
M  V30 7830 C 697.842 2.07585 -0.383611 0
M  V30 7831 O 697.19 2.1971 0.627661 0
M  V30 7832 C 697.4 1.89816 -2.92867 0
M  V30 7833 C 698.748 2.44998 -3.46787 0
M  V30 7834 O 699.772 1.99966 -2.94774 0
M  V30 7835 O 698.631 3.2727 -4.37672 0
M  V30 7836 H 695.725 0.52326 -0.640413 0
M  V30 7837 H 698.271 0.388631 -1.6519 0
M  V30 7838 H 697.043 1.21626 -3.71918 0
M  V30 7839 H 696.666 2.72199 -2.89816 0
M  V30 7840 N 697.663 1.43903 0.642637 0
M  V30 7841 C 698.891 1.4954 1.42988 0
M  V30 7842 C 699.306 0.116588 1.8844 0
M  V30 7843 O 698.663 -0.875285 1.60141 0
M  V30 7844 C 698.714 2.45031 2.65785 0
M  V30 7845 O 698.435 3.77551 2.22232 0
M  V30 7846 C 699.936 2.60017 3.59035 0
M  V30 7847 H 697.156 0.507544 0.438907 0
M  V30 7848 H 699.7 1.88752 0.786942 0
M  V30 7849 H 697.855 2.08985 3.26196 0
M  V30 7850 H 698.269 4.29001 3.01759 0
M  V30 7851 H 699.743 3.30887 4.41835 0
M  V30 7852 H 700.22 1.64861 4.07084 0
M  V30 7853 H 700.826 2.96918 3.045 0
M  V30 7854 N 699.141 -0.881989 1.30609 0
M  V30 7855 C 700.071 -2.00413 1.1982 0
M  V30 7856 C 701.052 -1.69871 0.0881538 0
M  V30 7857 O 702.237 -1.92304 0.2707 0
M  V30 7858 C 699.367 -3.35641 0.89233 0
M  V30 7859 C 698.321 -3.80451 1.96064 0
M  V30 7860 C 697.647 -5.13003 1.5077 0
M  V30 7861 C 698.947 -3.98855 3.37213 0
M  V30 7862 H 700.641 -2.09698 2.13699 0
M  V30 7863 H 698.187 -1.00754 1.02882 0
M  V30 7864 H 700.14 -4.13669 0.803497 0
M  V30 7865 H 698.864 -3.26497 -0.0821381 0
M  V30 7866 H 697.523 -3.04654 2.03916 0
M  V30 7867 H 697.171 -5.0029 0.521417 0
M  V30 7868 H 696.871 -5.43956 2.22229 0
M  V30 7869 H 698.395 -5.93554 1.43271 0
M  V30 7870 H 699.809 -4.67312 3.32103 0
M  V30 7871 H 698.206 -4.41188 4.06784 0
M  V30 7872 H 699.276 -3.02614 3.78883 0
M  V30 7873 N 700.619 -1.13374 -1.09472 0
M  V30 7874 C 701.566 -0.810682 -2.16094 0
M  V30 7875 C 702.536 0.227003 -1.64541 0
M  V30 7876 O 703.721 0.0993538 -1.90541 0
M  V30 7877 C 700.861 -0.282336 -3.43943 0
M  V30 7878 C 699.974 -1.37902 -4.09398 0
M  V30 7879 C 699.109 -0.809066 -5.25002 0
M  V30 7880 C 698.148 -1.88419 -5.82379 0
M  V30 7881 N 697.285 -1.33221 -6.89345 0
M  V30 7882 H 702.125 -1.72397 -2.43071 0
M  V30 7883 H 699.662 -0.860564 -1.19301 0
M  V30 7884 H 701.62 0.0421189 -4.17179 0
M  V30 7885 H 700.25 0.594083 -3.17286 0
M  V30 7886 H 699.302 -1.82008 -3.34032 0
M  V30 7887 H 700.614 -2.19161 -4.48074 0
M  V30 7888 H 699.768 -0.435867 -6.05132 0
M  V30 7889 H 698.507 0.0346058 -4.87688 0
M  V30 7890 H 697.512 -2.26646 -5.00911 0
M  V30 7891 H 698.737 -2.73125 -6.21755 0
M  V30 7892 H 696.683 -0.510535 -6.5401 0
M  V30 7893 H 696.6 -2.08129 -7.26786 0
M  V30 7894 H 697.868 -0.986565 -7.73232 0
M  V30 7895 N 702.098 1.27442 -0.927168 0
M  V30 7896 C 703.045 2.26863 -0.424459 0
M  V30 7897 C 704.015 1.5813 0.508346 0
M  V30 7898 O 705.2 1.85946 0.42762 0
M  V30 7899 C 702.34 3.43639 0.31718 0
M  V30 7900 C 701.453 4.27087 -0.649675 0
M  V30 7901 C 700.588 5.31082 0.111753 0
M  V30 7902 C 699.627 6.062 -0.847843 0
M  V30 7903 N 698.764 7.01999 -0.119074 0
M  V30 7904 H 703.604 2.69239 -1.27728 0
M  V30 7905 H 701.141 1.32394 -0.641106 0
M  V30 7906 H 703.099 4.10155 0.763486 0
M  V30 7907 H 701.729 3.02217 1.13424 0
M  V30 7908 H 700.781 3.60491 -1.21451 0
M  V30 7909 H 702.093 4.79242 -1.38307 0
M  V30 7910 H 701.247 6.03544 0.618 0
M  V30 7911 H 699.986 4.7973 0.878114 0
M  V30 7912 H 698.991 5.32577 -1.36534 0
M  V30 7913 H 700.216 6.59642 -1.61398 0
M  V30 7914 H 698.162 6.52977 0.629051 0
M  V30 7915 H 698.079 7.5184 -0.792046 0
M  V30 7916 H 699.347 7.78638 0.366537 0
M  V30 7917 N 703.576 0.692616 1.41565 0
M  V30 7918 C 704.822 0.222664 2.01574 0
M  V30 7919 C 705.155 -1.1737 1.54719 0
M  V30 7920 O 704.43 -1.79161 0.757084 0
M  V30 7921 C 704.713 0.277064 3.59033 0
M  V30 7922 C 704.566 1.71016 4.16021 0
M  V30 7923 C 705.885 -0.36479 4.38586 0
M  V30 7924 H 703.004 0.0823839 0.732381 0
M  V30 7925 H 705.646 0.880778 1.68352 0
M  V30 7926 H 703.796 -0.283288 3.87466 0
M  V30 7927 H 705.468 2.32413 3.98475 0
M  V30 7928 H 703.711 2.24525 3.71175 0
M  V30 7929 H 704.382 1.69978 5.25178 0
M  V30 7930 H 706.858 0.112404 4.15948 0
M  V30 7931 H 705.734 -0.296169 5.481 0
M  V30 7932 H 705.995 -1.44506 4.17816 0
M  V30 7933 N 705.054 -1.51416 0.437162 0
M  V30 7934 C 706.47 -1.59349 0.0894459 0
M  V30 7935 C 706.67 -1.44809 -1.40116 0
M  V30 7936 O 705.726 -1.28924 -2.17106 0
M  V30 7937 C 707.039 -2.9446 0.609398 0
M  V30 7938 C 708.587 -3.07769 0.569824 0
M  V30 7939 C 709.062 -4.45404 1.06675 0
M  V30 7940 N 710.553 -4.51723 1.02473 0
M  V30 7941 C 711.288 -5.56544 1.3801 0
M  V30 7942 N 710.784 -6.68784 1.80831 0
M  V30 7943 N 712.577 -5.46901 1.29828 0
M  V30 7944 H 704.728 -1.59112 1.40703 0
M  V30 7945 H 706.991 -0.750031 0.579791 0
M  V30 7946 H 706.697 -3.1047 1.65231 0
M  V30 7947 H 706.571 -3.77184 0.0342236 0
M  V30 7948 H 708.958 -2.91428 -0.464107 0
M  V30 7949 H 709.039 -2.26885 1.1814 0
M  V30 7950 H 708.683 -4.62492 2.09914 0
M  V30 7951 H 708.613 -5.24827 0.431712 0
M  V30 7952 H 711.104 -3.71165 0.710258 0
M  V30 7953 H 711.417 -7.44787 2.06185 0
M  V30 7954 H 709.762 -6.69992 1.84757 0
M  V30 7955 H 712.953 -4.581 0.962397 0
M  V30 7956 H 713.126 -6.2848 1.57851 0
M  V30 7957 N 706.532 -0.168513 -1.56696 0
M  V30 7958 C 707.781 0.477233 -1.95973 0
M  V30 7959 C 708.094 1.64578 -1.05704 0
M  V30 7960 O 709.3 2.35758 -1.3465 0
M  V30 7961 C 707.756 0.900413 -3.48455 0
M  V30 7962 C 707.364 -0.242382 -4.47344 0
M  V30 7963 C 709.108 1.51474 -3.96555 0
M  V30 7964 C 707.015 0.200272 -5.91061 0
M  V30 7965 H 705.945 0.182061 -0.73169 0
M  V30 7966 H 708.596 -0.256297 -1.81701 0
M  V30 7967 H 706.978 1.68984 -3.58135 0
M  V30 7968 H 708.152 -1.01967 -4.49377 0
M  V30 7969 H 706.467 -0.766484 -4.09285 0
M  V30 7970 H 709.064 1.85792 -5.01384 0
M  V30 7971 H 709.407 2.41163 -3.39332 0
M  V30 7972 H 709.94 0.789802 -3.89881 0
M  V30 7973 H 706.679 -0.661775 -6.52151 0
M  V30 7974 H 706.199 0.942979 -5.92341 0
M  V30 7975 H 707.878 0.645088 -6.43776 0
M  V30 7976 N 708.01 1.57248 0.105221 0
M  V30 7977 C 709.257 1.8557 0.810552 0
M  V30 7978 C 709.585 0.755595 1.79223 0
M  V30 7979 O 708.84 -0.251788 1.94073 0
M  V30 7980 C 709.139 3.20437 1.58287 0
M  V30 7981 C 708.805 4.44716 0.744235 0
M  V30 7982 C 707.467 4.78458 0.513013 0
M  V30 7983 C 709.819 5.20953 0.160578 0
M  V30 7984 C 707.147 5.8587 -0.311894 0
M  V30 7985 C 709.499 6.29235 -0.651596 0
M  V30 7986 C 708.163 6.615 -0.893005 0
M  V30 7987 H 707.433 0.67905 0.296602 0
M  V30 7988 H 710.08 1.91363 0.0723968 0
M  V30 7989 H 708.385 3.10283 2.39232 0
M  V30 7990 H 710.082 3.39576 2.13282 0
M  V30 7991 H 706.672 4.18287 0.934555 0
M  V30 7992 H 710.856 4.95226 0.3264 0
M  V30 7993 H 706.112 6.09286 -0.508012 0
M  V30 7994 H 710.286 6.87484 -1.11077 0
M  V30 7995 H 707.913 7.44562 -1.53401 0
M  V30 7996 N 709.488 -0.375779 1.53054 0
M  V30 7997 C 710.451 -1.44254 1.7811 0
M  V30 7998 C 711.451 -1.47018 0.651328 0
M  V30 7999 O 712.641 -1.47957 0.919472 0
M  V30 8000 C 709.773 -2.8345 1.89391 0
M  V30 8001 H 710.966 -1.23316 2.73374 0
M  V30 8002 H 708.519 -0.608312 1.43977 0
M  V30 8003 H 709.254 -3.09716 0.961589 0
M  V30 8004 H 709.039 -2.82844 2.71555 0
M  V30 8005 H 710.529 -3.60722 2.10404 0
M  V30 8006 N 710.966 -1.44241 -0.634997 0
M  V30 8007 C 712.243 -1.37296 -1.39317 0
M  V30 8008 C 712.623 -0.0297532 -2.11079 0
M  V30 8009 O 711.971 0.987524 -2.06059 0
M  V30 8010 C 712.181 -2.56853 -2.36279 0
M  V30 8011 C 713.529 -3.00747 -2.99728 0
M  V30 8012 O 714.553 -2.5703 -2.46605 0
M  V30 8013 O 713.412 -3.76533 -3.96087 0
M  V30 8014 H 710.506 -0.543503 -0.623325 0
M  V30 8015 H 713.052 -1.56324 -0.660376 0
M  V30 8016 H 711.824 -3.46228 -1.82324 0
M  V30 8017 H 711.447 -2.40019 -3.16981 0
M  V30 8018 N 712.444 0.87505 -1.31075 0
M  V30 8019 C 713.684 1.64174 -1.21763 0
M  V30 8020 C 714.048 1.90713 0.221933 0
M  V30 8021 O 715.249 2.652 0.438458 0
M  V30 8022 C 713.52 2.93932 -2.0332 0
M  V30 8023 S 715.079 3.84841 -2.10815 0
M  V30 8024 H 711.897 0.563358 -0.433761 0
M  V30 8025 H 714.499 1.03788 -1.65675 0
M  V30 8026 H 713.203 2.72349 -3.07009 0
M  V30 8027 H 712.734 3.59345 -1.60108 0
M  V30 8028 H 714.749 4.80385 -1.24276 0
M  V30 8029 N 713.922 1.13953 1.08869 0
M  V30 8030 C 714.832 0.835666 2.19212 0
M  V30 8031 C 715.848 -0.182005 1.73045 0
M  V30 8032 O 717.024 -0.0116661 2.01397 0
M  V30 8033 C 714.089 0.312325 3.4529 0
M  V30 8034 C 713.15 1.39196 4.06107 0
M  V30 8035 C 712.383 0.893496 5.26168 0
M  V30 8036 O 712.606 -0.266807 5.69776 0
M  V30 8037 O 711.54 1.67037 5.78258 0
M  V30 8038 H 715.366 1.75769 2.47667 0
M  V30 8039 H 712.951 0.917421 1.17914 0
M  V30 8040 H 714.833 0.0261582 4.21392 0
M  V30 8041 H 713.508 -0.582042 3.18424 0
M  V30 8042 H 712.415 1.73152 3.31616 0
M  V30 8043 H 713.748 2.26068 4.37212 0
M  V30 8044 N 715.4 -1.26948 0.933913 0
M  V30 8045 C 716.363 -2.24889 0.442457 0
M  V30 8046 C 717.363 -1.54594 -0.442426 0
M  V30 8047 O 718.553 -1.72502 -0.242629 0
M  V30 8048 C 715.685 -3.3896 -0.363173 0
M  V30 8049 H 716.878 -2.69879 1.30787 0
M  V30 8050 H 714.431 -1.38978 0.715187 0
M  V30 8051 H 715.166 -2.99361 -1.24714 0
M  V30 8052 H 714.951 -3.9116 0.271366 0
M  V30 8053 H 716.441 -4.11739 -0.697186 0
M  V30 8054 N 716.879 -0.700114 -1.41195 0
M  V30 8055 C 718.127 -0.232546 -2.00758 0
M  V30 8056 C 718.448 1.1734 -1.55745 0
M  V30 8057 O 717.718 1.79262 -0.790058 0
M  V30 8058 H 716.298 -0.0829845 -0.742376 0
M  V30 8059 H 718.96 -0.902289 -1.72756 0
M  V30 8060 H 718.056 -0.253521 -3.11069 0
M  V30 8061 N 718.357 1.51182 -0.445186 0
M  V30 8062 C 719.287 2.30821 0.352686 0
M  V30 8063 C 720.268 1.36576 1.01395 0
M  V30 8064 O 721.453 1.65497 1.01609 0
M  V30 8065 C 718.583 3.15593 1.44976 0
M  V30 8066 C 717.537 4.1818 0.911553 0
M  V30 8067 C 716.863 4.91523 2.10497 0
M  V30 8068 C 718.163 5.22266 -0.059418 0
M  V30 8069 H 719.857 2.97771 -0.311936 0
M  V30 8070 H 717.403 1.43201 -0.151461 0
M  V30 8071 H 719.356 3.70091 2.01521 0
M  V30 8072 H 718.08 2.4648 2.14278 0
M  V30 8073 H 716.739 3.64746 0.368264 0
M  V30 8074 H 716.387 4.18906 2.78437 0
M  V30 8075 H 716.087 5.60898 1.7512 0
M  V30 8076 H 717.611 5.48847 2.6758 0
M  V30 8077 H 719.025 5.71789 0.415985 0
M  V30 8078 H 717.422 5.99213 -0.326152 0
M  V30 8079 H 718.492 4.7461 -0.993631 0
M  V30 8080 N 719.835 0.176821 1.56605 0
M  V30 8081 C 720.765 -0.746841 2.21234 0
M  V30 8082 C 721.746 -1.23502 1.16967 0
M  V30 8083 O 722.931 -1.28718 1.45414 0
M  V30 8084 C 720.061 -1.97407 2.8574 0
M  V30 8085 C 719.015 -1.62153 3.96094 0
M  V30 8086 C 718.341 -2.92387 4.47676 0
M  V30 8087 C 719.641 -0.845353 5.15413 0
M  V30 8088 H 721.335 -0.208116 2.98676 0
M  V30 8089 H 718.881 -0.0986594 1.43662 0
M  V30 8090 H 720.834 -2.62531 3.2963 0
M  V30 8091 H 719.558 -2.53703 2.05676 0
M  V30 8092 H 718.217 -0.993964 3.52868 0
M  V30 8093 H 717.865 -3.46734 3.64396 0
M  V30 8094 H 717.565 -2.69551 5.22127 0
M  V30 8095 H 719.089 -3.5853 4.94255 0
M  V30 8096 H 720.503 -1.39929 5.55961 0
M  V30 8097 H 718.9 -0.715814 5.95815 0
M  V30 8098 H 719.97 0.157239 4.84645 0
M  V30 8099 N 721.313 -1.57302 -0.09688 0
M  V30 8100 C 722.559 -1.86273 -0.801885 0
M  V30 8101 C 722.892 -0.765694 -1.78468 0
M  V30 8102 O 722.167 0.226495 -1.93177 0
M  V30 8103 C 722.45 -3.25876 -1.53221 0
M  V30 8104 C 722.303 -4.46205 -0.567529 0
M  V30 8105 C 723.622 -3.63352 -2.48321 0
M  V30 8106 H 720.741 -0.67752 -0.29006 0
M  V30 8107 H 723.383 -1.89887 -0.0655577 0
M  V30 8108 H 721.533 -3.22926 -2.15988 0
M  V30 8109 H 723.205 -4.6127 0.0529982 0
M  V30 8110 H 721.448 -4.33636 0.119233 0
M  V30 8111 H 722.119 -5.40608 -1.11564 0
M  V30 8112 H 724.595 -3.67234 -1.95648 0
M  V30 8113 H 723.471 -4.61968 -2.9644 0
M  V30 8114 H 723.732 -2.91941 -3.31998 0
M  V30 8115 N 722.791 0.367657 -1.53252 0
M  V30 8116 C 723.701 1.47415 -1.82499 0
M  V30 8117 C 724.717 1.58711 -0.713222 0
M  V30 8118 O 725.893 1.74644 -1.00306 0
M  V30 8119 C 722.958 2.82706 -2.00694 0
M  V30 8120 C 722.019 2.80955 -3.24596 0
M  V30 8121 C 721.252 4.09793 -3.41914 0
M  V30 8122 O 721.475 5.05852 -2.63572 0
M  V30 8123 O 720.409 4.15731 -4.3526 0
M  V30 8124 H 724.235 1.25624 -2.765 0
M  V30 8125 H 721.82 0.557559 -1.38606 0
M  V30 8126 H 723.702 3.62873 -2.14246 0
M  V30 8127 H 722.377 3.04479 -1.09883 0
M  V30 8128 H 721.284 1.99494 -3.16469 0
M  V30 8129 H 722.617 2.64136 -4.15323 0
M  V30 8130 N 724.269 1.44576 0.627338 0
M  V30 8131 C 725.199 1.54562 1.75022 0
M  V30 8132 C 726.18 0.398378 1.65369 0
M  V30 8133 O 727.365 0.61899 1.84071 0
M  V30 8134 C 724.495 1.49309 3.13567 0
M  V30 8135 C 723.449 2.62549 3.38012 0
M  V30 8136 C 722.775 2.42348 4.76625 0
M  V30 8137 C 724.075 4.04678 3.30202 0
M  V30 8138 H 725.769 2.4855 1.66922 0
M  V30 8139 H 723.315 1.19624 0.801636 0
M  V30 8140 H 725.268 1.54895 3.919 0
M  V30 8141 H 723.992 0.518392 3.2246 0
M  V30 8142 H 722.651 2.56358 2.62061 0
M  V30 8143 H 722.299 1.43062 4.82226 0
M  V30 8144 H 721.999 3.18273 4.93939 0
M  V30 8145 H 723.523 2.49758 5.57183 0
M  V30 8146 H 724.937 4.12217 3.98435 0
M  V30 8147 H 723.334 4.80836 3.5905 0
M  V30 8148 H 724.404 4.2798 2.27949 0
M  V30 8149 N 725.747 -0.868086 1.31537 0
M  V30 8150 C 726.993 -1.62367 1.2151 0
M  V30 8151 C 727.326 -1.92883 -0.225819 0
M  V30 8152 O 726.601 -1.56176 -1.15927 0
M  V30 8153 C 726.884 -2.95268 2.06129 0
M  V30 8154 C 726.737 -2.71619 3.58529 0
M  V30 8155 C 728.056 -3.96391 1.91212 0
M  V30 8156 H 725.175 -0.589178 0.442762 0
M  V30 8157 H 727.817 -1.00336 1.61347 0
M  V30 8158 H 725.967 -3.4821 1.72284 0
M  V30 8159 H 727.639 -2.25334 4.0252 0
M  V30 8160 H 725.882 -2.05817 3.81866 0
M  V30 8161 H 726.553 -3.66192 4.13047 0
M  V30 8162 H 729.029 -3.52663 2.20834 0
M  V30 8163 H 727.905 -4.87263 2.52718 0
M  V30 8164 H 728.166 -4.33335 0.875953 0
M  V30 8165 N 727.225 -1.14528 -1.08264 0
M  V30 8166 C 728.155 -0.856356 -2.1723 0
M  V30 8167 C 729.136 0.189251 -1.69044 0
M  V30 8168 O 730.321 0.0456119 -1.94146 0
M  V30 8169 C 727.451 -0.334662 -3.45684 0
M  V30 8170 C 726.405 -1.31588 -4.0727 0
M  V30 8171 C 725.731 -0.653428 -5.30692 0
M  V30 8172 C 727.031 -2.67866 -4.48381 0
M  V30 8173 H 728.725 -1.76755 -2.41657 0
M  V30 8174 H 726.271 -0.851287 -1.16143 0
M  V30 8175 H 728.224 -0.120128 -4.21229 0
M  V30 8176 H 726.948 0.611967 -3.20815 0
M  V30 8177 H 725.607 -1.51661 -3.33758 0
M  V30 8178 H 725.255 0.299054 -5.0211 0
M  V30 8179 H 724.955 -1.30817 -5.72853 0
M  V30 8180 H 726.479 -0.448453 -6.08951 0
M  V30 8181 H 727.893 -2.51692 -5.15096 0
M  V30 8182 H 726.29 -3.29627 -5.01464 0
M  V30 8183 H 727.36 -3.24632 -3.60198 0
M  V30 8184 N 728.703 1.26451 -0.940633 0
M  V30 8185 C 729.65 2.264 -0.448497 0
M  V30 8186 C 730.62 1.5866 0.491546 0
M  V30 8187 O 731.805 1.86389 0.407874 0
M  V30 8188 C 728.945 3.43956 0.280715 0
M  V30 8189 C 728.058 4.26374 -0.694937 0
M  V30 8190 C 727.193 5.31171 0.0554186 0
M  V30 8191 C 726.232 6.05266 -0.912091 0
M  V30 8192 N 725.369 7.01833 -0.193524 0
M  V30 8193 H 730.209 2.67869 -1.30576 0
M  V30 8194 H 727.746 1.31707 -0.655112 0
M  V30 8195 H 729.704 4.10941 0.71994 0
M  V30 8196 H 728.334 3.03403 1.10212 0
M  V30 8197 H 727.386 3.59183 -1.25267 0
M  V30 8198 H 728.698 4.77748 -1.43382 0
M  V30 8199 H 727.852 6.04166 0.553951 0
M  V30 8200 H 726.591 4.80634 0.827183 0
M  V30 8201 H 725.596 5.31099 -1.42175 0
M  V30 8202 H 726.821 6.57893 -1.68385 0
M  V30 8203 H 724.767 6.53607 0.559758 0
M  V30 8204 H 724.684 7.50957 -0.871744 0
M  V30 8205 H 725.952 7.78983 0.283932 0
M  V30 8206 N 730.181 0.707592 1.40822 0
M  V30 8207 C 731.111 0.0644925 2.33411 0
M  V30 8208 C 732.092 -0.754205 1.52466 0
M  V30 8209 O 733.277 -0.704749 1.80961 0
M  V30 8210 C 730.407 -0.863865 3.36385 0
M  V30 8211 C 729.361 -0.15138 4.27732 0
M  V30 8212 C 728.687 -1.19491 5.21177 0
M  V30 8213 C 729.987 0.989607 5.12839 0
M  V30 8214 H 731.681 0.837829 2.87438 0
M  V30 8215 H 729.227 0.404346 1.38207 0
M  V30 8216 H 731.18 -1.32309 4.0009 0
M  V30 8217 H 729.904 -1.66901 2.80734 0
M  V30 8218 H 728.563 0.287937 3.65467 0
M  V30 8219 H 728.211 -1.9929 4.61836 0
M  V30 8220 H 727.911 -0.723123 5.83134 0
M  V30 8221 H 729.435 -1.6544 5.8776 0
M  V30 8222 H 730.849 0.610114 5.70044 0
M  V30 8223 H 729.246 1.38926 5.83798 0
M  V30 8224 H 730.316 1.82389 4.49291 0
M  V30 8225 N 731.66 -1.50943 0.453197 0
M  V30 8226 C 732.592 -2.25922 -0.38623 0
M  V30 8227 C 733.605 -1.3055 -0.972652 0
M  V30 8228 O 734.794 -1.56191 -0.864097 0
M  V30 8229 C 731.894 -3.01176 -1.5539 0
M  V30 8230 C 731.067 -4.23768 -1.0835 0
M  V30 8231 C 730.126 -4.81466 -2.12313 0
M  V30 8232 O 729.152 -5.42875 -1.71101 0
M  V30 8233 N 730.354 -4.66889 -3.44956 0
M  V30 8234 H 733.119 -2.98601 0.256468 0
M  V30 8235 H 730.68 -1.59408 0.282965 0
M  V30 8236 H 732.672 -3.36659 -2.24594 0
M  V30 8237 H 731.242 -2.31409 -2.10163 0
M  V30 8238 H 730.462 -3.93597 -0.217961 0
M  V30 8239 H 731.75 -5.03289 -0.746857 0
M  V30 8240 H 731.148 -4.18011 -3.81161 0
M  V30 8241 H 729.705 -5.06691 -4.1001 0
M  V30 8242 N 733.138 -0.185124 -1.56509 0
M  V30 8243 C 734.549 0.329221 -1.83774 0
M  V30 8244 C 734.9 1.62093 -1.10545 0
M  V30 8245 O 734.025 2.13334 -0.36298 0
M  V30 8246 C 734.62 0.604099 -3.33371 0
M  V30 8247 C 733.179 1.06284 -3.61083 0
M  V30 8248 C 732.326 0.10608 -2.77097 0
M  V30 8249 H 735.277 -0.409116 -1.53336 0
M  V30 8250 H 735.298 1.45458 -3.51599 0
M  V30 8251 H 734.81 -0.336201 -3.86641 0
M  V30 8252 H 732.911 2.01777 -3.13236 0
M  V30 8253 H 733.024 0.962453 -4.69333 0
M  V30 8254 H 731.388 0.606082 -2.47384 0
M  V30 8255 H 732.171 -0.828486 -3.33153 0
M  V30 8256 N 734.616 1.57351 0.0885366 0
M  V30 8257 C 735.548 1.99221 1.13329 0
M  V30 8258 C 736.561 0.895705 1.35945 0
M  V30 8259 O 737.75 1.17376 1.34481 0
M  V30 8260 C 734.85 2.3016 2.48756 0
M  V30 8261 C 734.023 3.61444 2.46327 0
M  V30 8262 C 733.082 3.80244 3.63732 0
M  V30 8263 O 732.108 4.52024 3.45924 0
M  V30 8264 N 733.31 3.2132 4.8346 0
M  V30 8265 H 736.075 2.89456 0.776862 0
M  V30 8266 H 733.636 1.59505 0.277428 0
M  V30 8267 H 735.628 2.39925 3.25911 0
M  V30 8268 H 734.198 1.459 2.76464 0
M  V30 8269 H 733.418 3.62588 1.54673 0
M  V30 8270 H 734.706 4.47678 2.41789 0
M  V30 8271 H 734.104 2.63028 5.00832 0
M  V30 8272 H 732.661 3.3656 5.58185 0
M  V30 8273 N 736.094 -0.359525 1.53444 0
M  V30 8274 C 737.34 -1.10315 1.70172 0
M  V30 8275 C 737.673 -1.88788 0.455287 0
M  V30 8276 O 736.948 -1.86635 -0.547514 0
M  V30 8277 C 737.231 -2.05744 2.95536 0
M  V30 8278 C 737.084 -1.3084 4.3035 0
M  V30 8279 C 738.403 -3.05784 3.16518 0
M  V30 8280 H 735.522 -0.399662 0.619225 0
M  V30 8281 H 738.164 -0.383338 1.86093 0
M  V30 8282 H 736.314 -2.67125 2.82093 0
M  V30 8283 H 737.986 -0.721959 4.55615 0
M  V30 8284 H 736.229 -0.610283 4.29486 0
M  V30 8285 H 736.9 -2.00718 5.14214 0
M  V30 8286 H 739.376 -2.5451 3.29187 0
M  V30 8287 H 738.252 -3.69772 4.05659 0
M  V30 8288 H 738.513 -3.76289 2.32076 0
M  V30 8289 N 737.572 -1.44907 -0.619662 0
M  V30 8290 C 738.802 -1.51575 -1.40387 0
M  V30 8291 C 739.21 -0.14309 -1.88658 0
M  V30 8292 O 738.553 0.863403 -1.62145 0
M  V30 8293 C 738.615 -2.42858 -2.65067 0
M  V30 8294 C 738.279 -3.8982 -2.38515 0
M  V30 8295 C 739.276 -4.80047 -1.99627 0
M  V30 8296 C 736.961 -4.34628 -2.51801 0
M  V30 8297 C 738.955 -6.13086 -1.74369 0
M  V30 8298 C 736.642 -5.67712 -2.26156 0
M  V30 8299 C 737.64 -6.56759 -1.875 0
M  V30 8300 O 737.328 -7.87377 -1.62148 0
M  V30 8301 H 737.06 -0.51612 -0.436573 0
M  V30 8302 H 739.614 -1.90664 -0.763959 0
M  V30 8303 H 737.844 -1.98717 -3.31735 0
M  V30 8304 H 739.533 -2.40346 -3.27091 0
M  V30 8305 H 740.299 -4.46697 -1.8891 0
M  V30 8306 H 736.178 -3.65568 -2.80857 0
M  V30 8307 H 739.722 -6.8255 -1.44122 0
M  V30 8308 H 735.619 -6.0062 -2.36486 0
M  V30 8309 H 736.387 -7.99288 -1.763 0
M  V30 8310 N 739.05 0.861098 -1.31996 0
M  V30 8311 C 740.275 1.65264 -1.2531 0
M  V30 8312 C 740.7 1.87265 0.177007 0
M  V30 8313 O 740.058 1.4208 1.12619 0
M  V30 8314 C 740.106 2.99284 -2.0115 0
M  V30 8315 O 739.21 3.89508 -1.3549 0
M  V30 8316 H 738.551 0.50409 -0.432192 0
M  V30 8317 H 741.081 1.07297 -1.74208 0
M  V30 8318 H 741.091 3.49154 -2.11081 0
M  V30 8319 H 739.766 2.82591 -3.05148 0
M  V30 8320 H 738.343 3.47966 -1.34066 0
M  V30 8321 N 740.528 1.15101 1.07655 0
M  V30 8322 C 741.939 0.933848 1.61667 0
M  V30 8323 C 742.29 -0.525569 1.8903 0
M  V30 8324 O 741.415 -1.39605 1.65346 0
M  V30 8325 C 742.01 1.68876 2.93711 0
M  V30 8326 C 740.569 1.51697 3.44478 0
M  V30 8327 C 739.716 1.70633 2.18586 0
M  V30 8328 H 742.667 1.30171 0.907816 0
M  V30 8329 H 742.688 1.15645 3.625 0
M  V30 8330 H 742.2 2.7509 2.73764 0
M  V30 8331 H 740.301 0.478635 3.69513 0
M  V30 8332 H 740.414 2.29194 4.20722 0
M  V30 8333 H 738.778 1.13259 2.28132 0
M  V30 8334 H 739.561 2.78206 2.01137 0
M  V30 8335 N 742.006 -1.2595 0.947325 0
M  V30 8336 C 743.254 -1.93081 0.596996 0
M  V30 8337 C 743.575 -1.74632 -0.867672 0
M  V30 8338 O 742.845 -1.1056 -1.6172 0
M  V30 8339 H 741.425 -0.714542 0.217805 0
M  V30 8340 H 744.087 -1.53265 1.20398 0
M  V30 8341 H 743.183 -3.01134 0.82004 0
M  V30 8342 N 743.484 -0.715051 -1.40445 0
M  V30 8343 C 744.761 -0.181503 -1.94756 0
M  V30 8344 C 745.141 1.31268 -1.65324 0
M  V30 8345 O 744.489 2.0686 -0.970631 0
M  V30 8346 C 744.699 -0.493663 -3.45491 0
M  V30 8347 C 746.047 -0.432032 -4.22396 0
M  V30 8348 O 747.071 -0.429692 -3.53599 0
M  V30 8349 O 745.93 -0.409091 -5.44967 0
M  V30 8350 H 743.024 -0.0263989 -0.826579 0
M  V30 8351 H 745.57 -0.792546 -1.50056 0
M  V30 8352 H 744.342 -1.52713 -3.6027 0
M  V30 8353 H 743.965 0.14737 -3.97327 0
M  V30 8354 N 744.962 1.50701 -0.461195 0
M  V30 8355 C 746.192 2.06381 0.0950376 0
M  V30 8356 C 746.6 1.32627 1.34933 0
M  V30 8357 O 745.943 0.386137 1.79596 0
M  V30 8358 C 746.005 3.56558 0.458965 0
M  V30 8359 C 745.669 4.51732 -0.691891 0
M  V30 8360 C 746.666 4.95594 -1.57105 0
M  V30 8361 C 744.351 4.94542 -0.879407 0
M  V30 8362 C 746.345 5.80963 -2.62223 0
M  V30 8363 C 744.032 5.79695 -1.93382 0
M  V30 8364 C 745.03 6.22806 -2.80359 0
M  V30 8365 O 744.718 7.06265 -3.83986 0
M  V30 8366 H 744.45 0.676 0.000687488 0
M  V30 8367 H 747.004 1.94974 -0.646087 0
M  V30 8368 H 745.234 3.65832 1.25314 0
M  V30 8369 H 746.923 3.94647 0.949124 0
M  V30 8370 H 747.689 4.63197 -1.43783 0
M  V30 8371 H 743.568 4.60513 -0.211907 0
M  V30 8372 H 747.112 6.14533 -3.30143 0
M  V30 8373 H 743.009 6.11506 -2.06715 0
M  V30 8374 H 743.777 7.24494 -3.80855 0
M  V30 8375 N 746.441 0.193421 1.56409 0
M  V30 8376 C 747.69 -0.445995 1.96707 0
M  V30 8377 C 748.003 -1.62876 1.08309 0
M  V30 8378 O 749.209 -2.33586 1.38383 0
M  V30 8379 C 747.665 -0.844863 3.49843 0
M  V30 8380 C 747.273 0.31352 4.46902 0
M  V30 8381 C 749.017 -1.45146 3.98915 0
M  V30 8382 C 746.924 -0.106214 5.91305 0
M  V30 8383 H 745.854 -0.170398 0.734493 0
M  V30 8384 H 748.505 0.285172 1.81271 0
M  V30 8385 H 746.887 -1.63265 3.60778 0
M  V30 8386 H 748.061 1.09103 4.47698 0
M  V30 8387 H 746.376 0.8315 4.08014 0
M  V30 8388 H 748.973 -1.77792 5.04276 0
M  V30 8389 H 749.316 -2.35734 3.43126 0
M  V30 8390 H 749.849 -0.727675 3.91088 0
M  V30 8391 H 746.588 0.765442 6.51016 0
M  V30 8392 H 746.108 -0.848623 5.93766 0
M  V30 8393 H 747.787 -0.542588 6.44721 0
M  V30 8394 N 747.919 -1.57396 -0.0801906 0
M  V30 8395 C 749.159 -1.88668 -0.786367 0
M  V30 8396 C 749.523 -0.786216 -1.75165 0
M  V30 8397 O 750.724 -0.981769 -2.50229 0
M  V30 8398 C 748.995 -3.25176 -1.48308 0
M  V30 8399 S 750.554 -3.78177 -2.22549 0
M  V30 8400 H 747.372 -0.661094 -0.261679 0
M  V30 8401 H 749.974 -1.95453 -0.0428196 0
M  V30 8402 H 748.678 -4.03176 -0.766629 0
M  V30 8403 H 748.209 -3.21567 -2.26623 0
M  V30 8404 H 750.224 -3.52789 -3.48934 0
M  V30 8405 N 749.397 0.351382 -1.53633 0
M  V30 8406 C 750.344 1.43115 -1.81071 0
M  V30 8407 C 751.314 1.52601 -0.655913 0
M  V30 8408 O 752.499 1.68264 -0.89955 0
M  V30 8409 C 749.639 2.79874 -2.01903 0
M  V30 8410 C 748.752 2.79242 -3.29618 0
M  V30 8411 C 747.887 4.07667 -3.40559 0
M  V30 8412 C 746.926 4.01233 -4.62254 0
M  V30 8413 N 746.063 5.21334 -4.70271 0
M  V30 8414 H 750.903 1.19017 -2.73201 0
M  V30 8415 H 748.44 0.576691 -1.35324 0
M  V30 8416 H 750.398 3.5934 -2.11969 0
M  V30 8417 H 749.028 3.0234 -1.13094 0
M  V30 8418 H 748.08 1.91927 -3.28433 0
M  V30 8419 H 749.392 2.70363 -4.19172 0
M  V30 8420 H 748.546 4.95555 -3.50015 0
M  V30 8421 H 747.285 4.19317 -2.49047 0
M  V30 8422 H 746.29 3.11732 -4.52884 0
M  V30 8423 H 747.515 3.91173 -5.55122 0
M  V30 8424 H 745.461 5.33543 -3.81665 0
M  V30 8425 H 745.378 5.14681 -5.5375 0
M  V30 8426 H 746.646 6.11014 -4.84027 0
M  V30 8427 N 750.875 1.45233 0.611969 0
M  V30 8428 C 751.822 1.5357 1.72293 0
M  V30 8429 C 752.792 0.381912 1.6165 0
M  V30 8430 O 753.977 0.594765 1.81293 0
M  V30 8431 C 751.117 1.50419 3.10593 0
M  V30 8432 C 750.23 2.76316 3.32074 0
M  V30 8433 C 749.365 2.64866 4.60456 0
M  V30 8434 C 748.404 3.85838 4.7518 0
M  V30 8435 N 747.541 3.72949 5.94856 0
M  V30 8436 H 752.381 2.4848 1.64504 0
M  V30 8437 H 749.918 1.23302 0.802191 0
M  V30 8438 H 751.876 1.4658 3.90602 0
M  V30 8439 H 750.506 0.590621 3.17351 0
M  V30 8440 H 749.558 2.90261 2.45872 0
M  V30 8441 H 750.87 3.66055 3.38829 0
M  V30 8442 H 750.024 2.58969 5.48653 0
M  V30 8443 H 748.763 1.72719 4.56092 0
M  V30 8444 H 747.768 3.92099 3.85407 0
M  V30 8445 H 748.993 4.79045 4.81344 0
M  V30 8446 H 746.939 2.83567 5.91545 0
M  V30 8447 H 746.856 4.56319 6.02751 0
M  V30 8448 H 748.124 3.70976 6.85563 0
M  V30 8449 N 752.353 -0.854086 1.3245 0
M  V30 8450 C 753.601 -1.60513 1.228 0
M  V30 8451 C 753.922 -1.93865 -0.210073 0
M  V30 8452 O 753.192 -1.59673 -1.13496 0
M  V30 8453 H 751.772 -0.595099 0.451516 0
M  V30 8454 H 754.434 -1.0216 1.6598 0
M  V30 8455 H 753.53 -2.54182 1.81102 0
M  V30 8456 N 753.831 -1.1567 -1.07043 0
M  V30 8457 C 755.108 -0.843948 -1.76456 0
M  V30 8458 C 755.488 0.659806 -2.00524 0
M  V30 8459 O 754.836 1.60518 -1.62623 0
M  V30 8460 C 755.046 -1.65822 -3.0709 0
M  V30 8461 C 756.394 -1.8664 -3.8138 0
M  V30 8462 O 757.418 -1.62624 -3.1691 0
M  V30 8463 O 756.277 -2.26884 -4.97178 0
M  V30 8464 H 753.371 -0.310677 -0.766426 0
M  V30 8465 H 755.917 -1.26266 -1.1338 0
M  V30 8466 H 754.689 -2.67902 -2.85209 0
M  V30 8467 H 754.312 -1.23605 -3.77899 0
M  V30 8468 N 755.309 1.25446 -0.953992 0
M  V30 8469 C 756.558 1.92441 -0.604101 0
M  V30 8470 C 756.871 1.75543 0.862796 0
M  V30 8471 O 758.077 2.37106 1.32262 0
M  V30 8472 C 756.533 3.44854 -1.02974 0
M  V30 8473 C 756.141 3.70464 -2.51914 0
M  V30 8474 C 757.885 4.1778 -0.752352 0
M  V30 8475 C 755.792 5.1638 -2.88281 0
M  V30 8476 H 754.722 0.720508 -0.222227 0
M  V30 8477 H 757.373 1.42318 -1.15836 0
M  V30 8478 H 755.755 3.93935 -0.403904 0
M  V30 8479 H 756.929 3.32038 -3.19511 0
M  V30 8480 H 755.244 3.10797 -2.77117 0
M  V30 8481 H 757.841 5.25261 -1.00024 0
M  V30 8482 H 758.184 4.15135 0.311212 0
M  V30 8483 H 758.717 3.74605 -1.33851 0
M  V30 8484 H 755.456 5.24135 -3.93653 0
M  V30 8485 H 754.976 5.55855 -2.25357 0
M  V30 8486 H 756.655 5.84497 -2.77439 0
M  V30 8487 N 756.787 0.722489 1.40064 0
M  V30 8488 C 758.035 0.264455 2.00362 0
M  V30 8489 C 758.356 -1.14847 1.57592 0
M  V30 8490 O 757.626 -1.77982 0.818477 0
M  V30 8491 H 756.206 0.0947846 0.740962 0
M  V30 8492 H 758.868 0.929659 1.71299 0
M  V30 8493 H 757.964 0.302977 3.10626 0
M  V30 8494 N 758.265 -1.50454 0.469181 0
M  V30 8495 C 759.681 -1.59124 0.123226 0
M  V30 8496 C 759.881 -1.47749 -1.37013 0
M  V30 8497 O 758.937 -1.335 -2.14322 0
M  V30 8498 C 760.25 -2.93101 0.67172 0
M  V30 8499 C 761.798 -3.06491 0.634978 0
M  V30 8500 C 762.273 -4.43041 1.16098 0
M  V30 8501 N 763.764 -4.49448 1.12031 0
M  V30 8502 C 764.499 -5.53491 1.49784 0
M  V30 8503 N 763.995 -6.64798 1.94976 0
M  V30 8504 N 765.788 -5.44025 1.41399 0
M  V30 8505 H 757.939 -1.56091 1.44046 0
M  V30 8506 H 760.202 -0.737564 0.59557 0
M  V30 8507 H 759.908 -3.06895 1.7178 0
M  V30 8508 H 759.782 -3.77027 0.114222 0
M  V30 8509 H 762.169 -2.92346 -0.402187 0
M  V30 8510 H 762.25 -2.24328 1.22926 0
M  V30 8511 H 761.894 -4.57935 2.19677 0
M  V30 8512 H 761.824 -5.23794 0.542939 0
M  V30 8513 H 764.315 -3.69575 0.788828 0
M  V30 8514 H 764.628 -7.40246 2.21936 0
M  V30 8515 H 762.973 -6.65923 1.98927 0
M  V30 8516 H 766.164 -4.55955 1.05935 0
M  V30 8517 H 766.337 -6.2499 1.71147 0
M  V30 8518 N 759.743 -0.201713 -1.56304 0
M  V30 8519 C 760.653 0.728296 -2.23009 0
M  V30 8520 C 761.669 1.22945 -1.23128 0
M  V30 8521 O 762.845 1.27523 -1.55884 0
M  V30 8522 C 759.91 1.92792 -2.88153 0
M  V30 8523 C 758.971 1.47068 -4.03323 0
M  V30 8524 C 758.204 2.61312 -4.65351 0
M  V30 8525 O 758.427 3.7896 -4.26317 0
M  V30 8526 O 757.361 2.33646 -5.54701 0
M  V30 8527 H 761.187 0.190166 -3.03104 0
M  V30 8528 H 758.772 0.0278725 -1.49374 0
M  V30 8529 H 760.654 2.6289 -3.29343 0
M  V30 8530 H 759.329 2.45452 -2.11033 0
M  V30 8531 H 758.236 0.738299 -3.66742 0
M  V30 8532 H 759.569 0.990666 -4.82127 0
M  V30 8533 N 761.222 1.57436 0.0718424 0
M  V30 8534 C 762.155 1.98982 1.11721 0
M  V30 8535 C 763.133 0.866731 1.37574 0
M  V30 8536 O 764.317 1.12903 1.50948 0
M  V30 8537 C 761.444 2.32648 2.46155 0
M  V30 8538 C 760.49 3.54964 2.36437 0
M  V30 8539 S 761.323 5.05802 1.75854 0
M  V30 8540 C 762.479 5.42669 3.11867 0
M  V30 8541 H 762.712 2.87338 0.763154 0
M  V30 8542 H 760.245 1.51833 0.280372 0
M  V30 8543 H 762.203 2.52719 3.23486 0
M  V30 8544 H 760.864 1.44821 2.78722 0
M  V30 8545 H 760.057 3.76038 3.35577 0
M  V30 8546 H 759.659 3.34524 1.67242 0
M  V30 8547 H 761.951 5.40737 4.08178 0
M  V30 8548 H 762.894 6.43461 2.95573 0
M  V30 8549 H 763.302 4.70131 3.1247 0
M  V30 8550 N 762.7 -0.34323 1.53817 0
M  V30 8551 C 763.93 -1.10188 1.74763 0
M  V30 8552 C 764.338 -1.82829 0.486856 0
M  V30 8553 O 763.681 -1.75236 -0.551198 0
M  V30 8554 C 763.743 -2.16 2.87375 0
M  V30 8555 C 763.407 -1.62931 4.26969 0
M  V30 8556 C 764.404 -1.08147 5.08528 0
M  V30 8557 C 762.089 -1.67769 4.73454 0
M  V30 8558 C 764.083 -0.589039 6.34672 0
M  V30 8559 C 761.77 -1.18138 5.99572 0
M  V30 8560 C 762.768 -0.637979 6.80014 0
M  V30 8561 O 762.456 -0.149073 8.03762 0
M  V30 8562 H 762.188 -0.33445 0.587469 0
M  V30 8563 H 764.742 -0.401109 2.01445 0
M  V30 8564 H 762.972 -2.89637 2.56218 0
M  V30 8565 H 764.661 -2.77432 2.96287 0
M  V30 8566 H 765.427 -1.03732 4.73777 0
M  V30 8567 H 761.306 -2.09004 4.10899 0
M  V30 8568 H 764.85 -0.164233 6.97407 0
M  V30 8569 H 760.747 -1.22254 6.33817 0
M  V30 8570 H 761.515 -0.266332 8.18067 0
M  V30 8571 N 764.178 -1.45556 -0.604258 0
M  V30 8572 C 765.427 -1.49019 -1.35928 0
M  V30 8573 C 765.74 -0.137409 -1.95117 0
M  V30 8574 O 766.946 -0.0497032 -2.71455 0
M  V30 8575 C 765.402 -2.62477 -2.46239 0
M  V30 8576 C 765.01 -4.04082 -1.93447 0
M  V30 8577 C 766.754 -2.7519 -3.23219 0
M  V30 8578 C 764.661 -5.08917 -3.0126 0
M  V30 8579 H 763.591 -0.554518 -0.510907 0
M  V30 8580 H 766.242 -1.71705 -0.647262 0
M  V30 8581 H 764.624 -2.3308 -3.2014 0
M  V30 8582 H 765.798 -4.43173 -1.26232 0
M  V30 8583 H 764.113 -3.95849 -1.29201 0
M  V30 8584 H 766.71 -3.50683 -4.0364 0
M  V30 8585 H 767.053 -1.81941 -3.74437 0
M  V30 8586 H 767.586 -3.04129 -2.56418 0
M  V30 8587 H 764.325 -6.03886 -2.54955 0
M  V30 8588 H 763.845 -4.74393 -3.67031 0
M  V30 8589 H 765.524 -5.33814 -3.65584 0
M  V30 8590 N 765.656 0.84705 -1.32902 0
M  V30 8591 C 766.905 1.59667 -1.23245 0
M  V30 8592 C 767.218 1.94551 0.202349 0
M  V30 8593 O 768.424 2.68218 0.420847 0
M  V30 8594 C 766.88 2.8795 -2.15901 0
M  V30 8595 C 766.488 2.60461 -3.64505 0
M  V30 8596 C 768.232 3.65968 -2.15098 0
M  V30 8597 C 766.139 3.84791 -4.49099 0
M  V30 8598 H 765.069 0.599167 -0.457728 0
M  V30 8599 H 767.72 0.934662 -1.57912 0
M  V30 8600 H 766.102 3.55648 -1.74157 0
M  V30 8601 H 767.276 2.01026 -4.14639 0
M  V30 8602 H 765.591 1.9576 -3.67515 0
M  V30 8603 H 768.188 4.58241 -2.75534 0
M  V30 8604 H 768.531 4.00275 -1.14392 0
M  V30 8605 H 769.064 3.05184 -2.55162 0
M  V30 8606 H 765.803 3.55621 -5.50649 0
M  V30 8607 H 765.323 4.43594 -4.03713 0
M  V30 8608 H 767.002 4.52454 -4.62487 0
M  V30 8609 N 767.134 1.16236 1.06428 0
M  V30 8610 C 768.081 0.86769 2.13869 0
M  V30 8611 C 769.051 -0.183298 1.65086 0
M  V30 8612 O 770.236 -0.0488002 1.90738 0
M  V30 8613 C 767.376 0.373427 3.43074 0
M  V30 8614 C 766.489 1.48708 4.05598 0
M  V30 8615 C 765.624 0.947977 5.22673 0
M  V30 8616 C 764.663 2.03793 5.77178 0
M  V30 8617 N 763.8 1.51451 6.85571 0
M  V30 8618 H 768.64 1.78781 2.38414 0
M  V30 8619 H 766.177 0.891892 1.16977 0
M  V30 8620 H 768.135 0.0685035 4.17144 0
M  V30 8621 H 766.765 -0.509752 3.1875 0
M  V30 8622 H 765.817 1.908 3.29089 0
M  V30 8623 H 767.129 2.30964 4.42105 0
M  V30 8624 H 766.283 0.596154 6.03764 0
M  V30 8625 H 765.022 0.0947081 4.87608 0
M  V30 8626 H 764.027 2.39847 4.94726 0
M  V30 8627 H 765.252 2.89514 6.14295 0
M  V30 8628 H 763.198 0.683755 6.52427 0
M  V30 8629 H 763.115 2.27325 7.21013 0
M  V30 8630 H 764.383 1.19123 7.70344 0
M  V30 8631 N 768.612 -1.24939 0.960631 0
M  V30 8632 C 769.522 -2.29374 0.492435 0
M  V30 8633 C 770.538 -1.68262 -0.443154 0
M  V30 8634 O 771.714 -1.98875 -0.31793 0
M  V30 8635 C 768.779 -3.46023 -0.216626 0
M  V30 8636 C 767.84 -4.22557 0.757915 0
M  V30 8637 C 767.073 -5.33636 0.0825969 0
M  V30 8638 O 767.296 -5.59084 -1.13054 0
M  V30 8639 O 766.23 -5.96939 0.771177 0
M  V30 8640 H 770.056 -2.71525 1.36044 0
M  V30 8641 H 767.641 -1.30499 0.72735 0
M  V30 8642 H 769.523 -4.16885 -0.615241 0
M  V30 8643 H 768.198 -3.05862 -1.05971 0
M  V30 8644 H 767.105 -3.54099 1.20685 0
M  V30 8645 H 768.438 -4.66516 1.5692 0
M  V30 8646 N 770.09 -0.729906 -1.39679 0
M  V30 8647 C 771.338 -0.275077 -2.00219 0
M  V30 8648 C 771.659 1.1401 -1.58199 0
M  V30 8649 O 770.929 1.77546 -0.827904 0
M  V30 8650 H 769.509 -0.0987127 -0.740449 0
M  V30 8651 H 772.171 -0.93873 -1.70804 0
M  V30 8652 H 771.267 -0.319446 -3.10461 0
M  V30 8653 N 771.568 1.50203 -0.477153 0
M  V30 8654 C 772.515 2.28656 0.31386 0
M  V30 8655 C 773.485 1.33977 0.981802 0
M  V30 8656 O 774.67 1.62919 0.993072 0
M  V30 8657 C 771.81 3.16027 1.38639 0
M  V30 8658 C 770.923 4.25743 0.732615 0
M  V30 8659 C 770.058 5.00363 1.78355 0
M  V30 8660 C 769.097 6.01945 1.11035 0
M  V30 8661 N 768.234 6.6982 2.10441 0
M  V30 8662 H 773.074 2.958 -0.361445 0
M  V30 8663 H 770.611 1.45867 -0.190093 0
M  V30 8664 H 772.569 3.6504 2.01994 0
M  V30 8665 H 771.199 2.50917 2.03077 0
M  V30 8666 H 770.251 3.80398 -0.0136546 0
M  V30 8667 H 771.563 4.98393 0.201513 0
M  V30 8668 H 770.717 5.53124 2.49276 0
M  V30 8669 H 769.456 4.27432 2.34847 0
M  V30 8670 H 768.461 5.48438 0.386797 0
M  V30 8671 H 769.686 6.76851 0.552248 0
M  V30 8672 H 767.632 5.99677 2.65939 0
M  V30 8673 H 767.549 7.38366 1.62332 0
M  V30 8674 H 768.817 7.27196 2.80724 0
M  V30 8675 N 773.046 0.209999 1.56195 0
M  V30 8676 C 773.976 -0.699746 2.22769 0
M  V30 8677 C 774.957 -1.20993 1.1956 0
M  V30 8678 O 776.142 -1.25605 1.48112 0
M  V30 8679 C 773.272 -1.91302 2.89863 0
M  V30 8680 C 772.226 -1.53715 3.99444 0
M  V30 8681 C 771.552 -2.82826 4.53777 0
M  V30 8682 C 772.852 -0.735836 5.17091 0
M  V30 8683 H 774.546 -0.144716 2.9905 0
M  V30 8684 H 772.092 -0.0681645 1.43839 0
M  V30 8685 H 774.045 -2.5548 3.35124 0
M  V30 8686 H 772.769 -2.49283 2.11011 0
M  V30 8687 H 771.428 -0.918892 3.54897 0
M  V30 8688 H 771.076 -3.38927 3.71669 0
M  V30 8689 H 770.776 -2.58415 5.27727 0
M  V30 8690 H 772.3 -3.47966 5.01749 0
M  V30 8691 H 773.714 -1.28105 5.58804 0
M  V30 8692 H 772.111 -0.589272 5.972 0
M  V30 8693 H 773.181 0.260004 4.84202 0
M  V30 8694 N 774.524 -1.57472 -0.0634922 0
M  V30 8695 C 775.487 -2.03268 -1.059 0
M  V30 8696 C 776.487 -0.931028 -1.31105 0
M  V30 8697 O 777.677 -1.19567 -1.26686 0
M  V30 8698 C 774.809 -2.42039 -2.40062 0
M  V30 8699 H 776.002 -2.92454 -0.664119 0
M  V30 8700 H 773.555 -1.53206 -0.309444 0
M  V30 8701 H 774.29 -1.55904 -2.84367 0
M  V30 8702 H 774.075 -3.22437 -2.23108 0
M  V30 8703 H 775.565 -2.78017 -3.11603 0
M  V30 8704 N 776.003 0.335068 -1.53997 0
M  V30 8705 C 777.249 1.07594 -1.71905 0
M  V30 8706 C 777.582 1.88039 -0.485264 0
M  V30 8707 O 776.857 1.87482 0.517752 0
M  V30 8708 C 777.14 2.01016 -2.98772 0
M  V30 8709 C 776.993 1.23977 -4.32377 0
M  V30 8710 C 778.312 3.0071 -3.21343 0
M  V30 8711 H 775.431 0.38976 -0.625505 0
M  V30 8712 H 778.073 0.353684 -1.86679 0
M  V30 8713 H 776.223 2.62603 -2.86307 0
M  V30 8714 H 777.895 0.649383 -4.56706 0
M  V30 8715 H 776.138 0.541878 -4.30402 0
M  V30 8716 H 776.809 1.92512 -5.17342 0
M  V30 8717 H 779.285 2.4924 -3.33194 0
M  V30 8718 H 778.161 3.63272 -4.11491 0
M  V30 8719 H 778.422 3.72549 -2.38033 0
M  V30 8720 N 777.481 1.45874 0.596531 0
M  V30 8721 C 778.727 1.5069 1.35722 0
M  V30 8722 C 779.06 0.152506 1.936 0
M  V30 8723 O 778.335 -0.834411 1.75692 0
M  V30 8724 C 778.618 2.59474 2.4969 0
M  V30 8725 C 778.471 4.04396 1.96937 0
M  V30 8726 C 779.79 2.64451 3.51787 0
M  V30 8727 H 776.909 0.548611 0.492133 0
M  V30 8728 H 779.551 1.77741 0.671428 0
M  V30 8729 H 777.701 2.36539 3.08191 0
M  V30 8730 H 779.373 4.38576 1.43 0
M  V30 8731 H 777.616 4.14529 1.27859 0
M  V30 8732 H 778.287 4.76218 2.79143 0
M  V30 8733 H 780.763 2.85031 3.03145 0
M  V30 8734 H 779.639 3.42411 4.29006 0
M  V30 8735 H 779.9 1.69965 4.08123 0
M  V30 8736 N 778.959 -0.83999 1.33349 0
M  V30 8737 C 779.922 -1.93128 1.23426 0
M  V30 8738 C 780.922 -1.60065 0.153599 0
M  V30 8739 O 782.112 -1.69425 0.405049 0
M  V30 8740 C 779.244 -3.28761 0.901622 0
M  V30 8741 H 780.437 -2.03352 2.20427 0
M  V30 8742 H 777.99 -1.03194 1.17391 0
M  V30 8743 H 778.725 -3.24233 -0.0659337 0
M  V30 8744 H 778.51 -3.54138 1.68311 0
M  V30 8745 H 780 -4.08714 0.856913 0
M  V30 8746 N 780.437 -1.16799 -1.0581 0
M  V30 8747 C 781.714 -0.862616 -1.75551 0
M  V30 8748 C 782.094 0.6385 -2.01212 0
M  V30 8749 O 781.442 1.58784 -1.64317 0
M  V30 8750 C 781.652 -1.6907 -3.05314 0
M  V30 8751 C 783 -1.90675 -3.79379 0
M  V30 8752 O 784.024 -1.65976 -3.15167 0
M  V30 8753 O 782.883 -2.32145 -4.94743 0
M  V30 8754 H 779.977 -0.318789 -0.763088 0
M  V30 8755 H 782.523 -1.27461 -1.12034 0
M  V30 8756 H 781.295 -2.70912 -2.82352 0
M  V30 8757 H 780.918 -1.27606 -3.76567 0
M  V30 8758 N 781.915 1.24427 -0.967243 0
M  V30 8759 C 783.192 1.87831 -0.545776 0
M  V30 8760 C 783.572 1.87126 0.977099 0
M  V30 8761 O 782.92 1.34357 1.84826 0
M  V30 8762 C 783.13 3.29967 -1.13679 0
M  V30 8763 C 784.478 4.06654 -1.22139 0
M  V30 8764 O 785.502 3.39136 -1.08926 0
M  V30 8765 O 784.361 5.27455 -1.43017 0
M  V30 8766 H 781.455 0.806745 -0.181912 0
M  V30 8767 H 784.001 1.32403 -1.06148 0
M  V30 8768 H 782.773 3.24977 -2.17958 0
M  V30 8769 H 782.396 3.92969 -0.605093 0
M  V30 8770 N 783.393 0.737304 1.3929 0
M  V30 8771 C 784.641 0.285691 2.00071 0
M  V30 8772 C 784.962 -1.13169 1.58801 0
M  V30 8773 O 784.232 -1.77104 0.837308 0
M  V30 8774 H 782.812 0.102638 0.739915 0
M  V30 8775 H 785.474 0.947775 1.70303 0
M  V30 8776 H 784.57 0.335906 3.10287 0
M  V30 8777 N 784.871 -1.49948 0.485112 0
M  V30 8778 C 786.117 -2.02695 -0.0651022 0
M  V30 8779 C 786.45 -1.36534 -1.38102 0
M  V30 8780 O 785.725 -0.495677 -1.88078 0
M  V30 8781 C 786.008 -3.59337 -0.234285 0
M  V30 8782 C 785.861 -4.3605 1.10364 0
M  V30 8783 C 787.18 -4.28996 -0.982351 0
M  V30 8784 H 784.299 -0.736666 -0.0221856 0
M  V30 8785 H 786.941 -1.7913 0.633433 0
M  V30 8786 H 785.091 -3.79546 -0.829262 0
M  V30 8787 H 786.763 -4.27377 1.73627 0
M  V30 8788 H 785.006 -3.99236 1.69686 0
M  V30 8789 H 785.677 -5.43959 0.938743 0
M  V30 8790 H 788.153 -4.13346 -0.477904 0
M  V30 8791 H 787.029 -5.38379 -1.06955 0
M  V30 8792 H 787.29 -3.93135 -2.02231 0
M  V30 8793 N 786.349 -0.21828 -1.56081 0
M  V30 8794 C 787.577 0.419258 -2.02608 0
M  V30 8795 C 787.992 1.53578 -1.09814 0
M  V30 8796 O 787.349 1.82185 -0.107149 0
M  V30 8797 C 787.4 0.953955 -3.48686 0
M  V30 8798 O 787.121 -0.11805 -4.37941 0
M  V30 8799 C 788.622 1.66506 -4.10841 0
M  V30 8800 H 785.842 0.10296 -0.663054 0
M  V30 8801 H 788.386 -0.333776 -2.01758 0
M  V30 8802 H 786.541 1.65727 -3.50162 0
M  V30 8803 H 786.955 0.283359 -5.23734 0
M  V30 8804 H 788.429 1.99123 -5.14834 0
M  V30 8805 H 788.906 2.57705 -3.55647 0
M  V30 8806 H 789.512 1.00703 -4.13206 0
M  V30 8807 N 787.827 1.57504 0.0551401 0
M  V30 8808 C 788.759 2.0158 1.09078 0
M  V30 8809 C 789.772 0.92434 1.34014 0
M  V30 8810 O 790.961 1.20202 1.31961 0
M  V30 8811 C 788.061 2.35385 2.43818 0
M  V30 8812 C 787.234 3.66588 2.38605 0
M  V30 8813 C 786.293 3.87874 3.55585 0
M  V30 8814 O 785.319 4.59259 3.36258 0
M  V30 8815 N 786.521 3.31503 4.76536 0
M  V30 8816 H 789.286 2.91039 0.71529 0
M  V30 8817 H 786.847 1.60058 0.243532 0
M  V30 8818 H 788.839 2.46784 3.20749 0
M  V30 8819 H 787.409 1.51731 2.73307 0
M  V30 8820 H 786.629 3.65787 1.46947 0
M  V30 8821 H 787.917 4.52706 2.32239 0
M  V30 8822 H 787.315 2.73592 4.9514 0
M  V30 8823 H 785.872 3.48324 5.50921 0
M  V30 8824 N 789.305 -0.326896 1.54172 0
M  V30 8825 C 790.552 -1.06523 1.72218 0
M  V30 8826 C 790.88 -1.88119 0.494114 0
M  V30 8827 O 790.135 -1.8855 -0.524147 0
M  V30 8828 C 790.434 -2.0208 2.94785 0
M  V30 8829 C 790.1 -1.36665 4.2969 0
M  V30 8830 C 788.762 -1.18556 4.66367 0
M  V30 8831 C 791.114 -0.896868 5.13425 0
M  V30 8832 C 788.442 -0.521113 5.84381 0
M  V30 8833 C 790.794 -0.246261 6.3212 0
M  V30 8834 C 789.458 -0.052987 6.67479 0
M  V30 8835 H 788.728 -0.389796 0.63019 0
M  V30 8836 H 791.375 -0.342725 1.88408 0
M  V30 8837 H 789.68 -2.8077 2.73268 0
M  V30 8838 H 791.377 -2.59231 3.05941 0
M  V30 8839 H 787.967 -1.51762 4.00832 0
M  V30 8840 H 792.151 -1.02458 4.85609 0
M  V30 8841 H 787.407 -0.36014 6.10338 0
M  V30 8842 H 791.581 0.125775 6.96286 0
M  V30 8843 H 789.208 0.463903 7.58783 0
M  V30 8844 N 790.784 -1.46188 -0.588786 0
M  V30 8845 C 792.03 -1.51407 -1.34921 0
M  V30 8846 C 792.363 -0.162771 -1.93517 0
M  V30 8847 O 791.638 0.825082 -1.76132 0
M  V30 8848 C 791.921 -2.60795 -2.48311 0
M  V30 8849 C 791.774 -4.05435 -1.94789 0
M  V30 8850 C 793.093 -2.66313 -3.50379 0
M  V30 8851 H 790.212 -0.551213 -0.489217 0
M  V30 8852 H 792.854 -1.78095 -0.661993 0
M  V30 8853 H 791.004 -2.3817 -3.06932 0
M  V30 8854 H 792.676 -4.39328 -1.40672 0
M  V30 8855 H 790.919 -4.15202 -1.25659 0
M  V30 8856 H 791.59 -4.77691 -2.76613 0
M  V30 8857 H 794.066 -2.86634 -3.01629 0
M  V30 8858 H 792.942 -3.44681 -4.27184 0
M  V30 8859 H 793.203 -1.72127 -4.07216 0
M  V30 8860 N 792.262 0.832906 -1.33792 0
M  V30 8861 C 793.508 1.59089 -1.25772 0
M  V30 8862 C 793.841 1.93414 0.174601 0
M  V30 8863 O 793.116 1.59195 1.11746 0
M  V30 8864 C 793.399 2.89699 -2.13885 0
M  V30 8865 C 793.252 2.62017 -3.65605 0
M  V30 8866 C 794.571 3.91182 -2.01654 0
M  V30 8867 H 791.69 0.577232 -0.458227 0
M  V30 8868 H 794.332 0.960227 -1.6395 0
M  V30 8869 H 792.482 3.4352 -1.81456 0
M  V30 8870 H 794.154 2.14582 -4.08353 0
M  V30 8871 H 792.397 1.95621 -3.87189 0
M  V30 8872 H 793.068 3.55112 -4.2261 0
M  V30 8873 H 795.544 3.46684 -2.30107 0
M  V30 8874 H 794.42 4.80391 -2.65548 0
M  V30 8875 H 794.681 4.30861 -0.990536 0
M  V30 8876 N 793.74 1.17359 1.05189 0
M  V30 8877 C 794.67 0.91365 2.14883 0
M  V30 8878 C 795.651 -0.144365 1.69486 0
M  V30 8879 O 796.836 0.00587861 1.94199 0
M  V30 8880 C 793.966 0.426196 3.44675 0
M  V30 8881 C 792.92 1.4234 4.03638 0
M  V30 8882 C 792.246 0.793902 5.28773 0
M  V30 8883 C 793.546 2.7966 4.41121 0
M  V30 8884 H 795.24 1.831 2.36885 0
M  V30 8885 H 792.786 0.881781 1.13845 0
M  V30 8886 H 794.739 0.231767 4.20762 0
M  V30 8887 H 793.463 -0.526693 3.22325 0
M  V30 8888 H 792.122 1.60457 3.2962 0
M  V30 8889 H 791.77 -0.165824 5.02727 0
M  V30 8890 H 791.47 1.45959 5.69183 0
M  V30 8891 H 792.994 0.609747 6.07548 0
M  V30 8892 H 794.408 2.6526 5.08242 0
M  V30 8893 H 792.805 3.42807 4.92548 0
M  V30 8894 H 793.875 3.34068 3.51464 0
M  V30 8895 N 795.218 -1.23913 0.973828 0
M  V30 8896 C 796.443 -1.96735 0.656511 0
M  V30 8897 C 796.868 -1.71682 -0.768571 0
M  V30 8898 O 796.226 -0.984267 -1.52256 0
M  V30 8899 C 796.274 -3.48004 0.944735 0
M  V30 8900 O 795.378 -4.12387 0.0333357 0
M  V30 8901 H 794.719 -0.616119 0.247575 0
M  V30 8902 H 797.249 -1.57525 1.30564 0
M  V30 8903 H 797.259 -3.98424 0.87876 0
M  V30 8904 H 795.934 -3.65567 1.98328 0
M  V30 8905 H 794.511 -3.72585 0.153157 0
M  V30 8906 N 796.696 -0.74468 -1.38897 0
M  V30 8907 C 797.973 -0.222773 -1.94327 0
M  V30 8908 C 798.353 1.27731 -1.68071 0
M  V30 8909 O 797.701 2.04754 -1.01429 0
M  V30 8910 C 797.911 -0.566836 -3.44366 0
M  V30 8911 C 799.259 -0.521531 -4.21385 0
M  V30 8912 O 800.283 -0.504599 -3.52608 0
M  V30 8913 O 799.142 -0.524595 -5.43976 0
M  V30 8914 H 796.236 -0.0439259 -0.825833 0
M  V30 8915 H 798.782 -0.824197 -1.48341 0
M  V30 8916 H 797.554 -1.60321 -3.56949 0
M  V30 8917 H 797.177 0.0630577 -3.9755 0
M  V30 8918 N 798.174 1.49689 -0.493057 0
M  V30 8919 C 799.422 2.02027 0.0541642 0
M  V30 8920 C 799.743 1.37554 1.38217 0
M  V30 8921 O 799.013 0.528174 1.88646 0
M  V30 8922 H 797.593 0.746646 0.0230069 0
M  V30 8923 H 800.255 1.83795 -0.648489 0
M  V30 8924 H 799.351 3.11523 0.189652 0
M  V30 8925 N 799.652 0.226554 1.55963 0
M  V30 8926 C 800.877 -0.411527 2.03276 0
M  V30 8927 C 801.302 -1.52206 1.10521 0
M  V30 8928 O 800.66 -1.81054 0.0943217 0
M  V30 8929 C 800.708 -0.915694 3.4878 0
M  V30 8930 O 799.812 -2.02672 3.59163 0
M  V30 8931 H 799.153 -0.0924907 0.657527 0
M  V30 8932 H 801.683 0.346656 2.01642 0
M  V30 8933 H 801.693 -1.22421 3.892 0
M  V30 8934 H 800.368 -0.102915 4.15773 0
M  V30 8935 H 798.945 -1.72445 3.30632 0
M  V30 8936 N 801.13 -1.57531 -0.0467866 0
M  V30 8937 C 802.36 -1.92417 -0.752279 0
M  V30 8938 C 802.768 -0.823134 -1.70356 0
M  V30 8939 O 802.111 0.210598 -1.82489 0
M  V30 8940 C 802.173 -3.22974 -1.57887 0
M  V30 8941 C 801.837 -4.50045 -0.794285 0
M  V30 8942 C 802.834 -5.19799 -0.102368 0
M  V30 8943 C 800.519 -4.96608 -0.754061 0
M  V30 8944 C 802.513 -6.34385 0.619267 0
M  V30 8945 C 800.2 -6.11093 -0.0286682 0
M  V30 8946 C 801.198 -6.79835 0.656772 0
M  V30 8947 O 800.886 -7.92133 1.37042 0
M  V30 8948 H 800.618 -0.640029 -0.217576 0
M  V30 8949 H 803.172 -2.05395 -0.0137438 0
M  V30 8950 H 801.402 -3.06273 -2.3608 0
M  V30 8951 H 803.091 -3.43319 -2.16533 0
M  V30 8952 H 803.857 -4.8484 -0.124589 0
M  V30 8953 H 799.736 -4.42958 -1.27706 0
M  V30 8954 H 803.28 -6.87975 1.15483 0
M  V30 8955 H 799.177 -6.455 -0.00446214 0
M  V30 8956 H 799.945 -8.08394 1.28227 0
M  V30 8957 N 802.608 0.318715 -1.54344 0
M  V30 8958 C 803.855 1.05608 -1.72781 0
M  V30 8959 C 804.183 1.87854 -0.504083 0
M  V30 8960 O 803.438 1.88826 0.51414 0
M  V30 8961 C 803.737 2.00514 -2.95853 0
M  V30 8962 C 803.403 1.34385 -4.30409 0
M  V30 8963 C 802.065 1.16081 -4.66989 0
M  V30 8964 C 804.417 0.869627 -5.13894 0
M  V30 8965 C 801.745 0.490114 -5.84649 0
M  V30 8966 C 804.097 0.212735 -6.32242 0
M  V30 8967 C 802.761 0.0175882 -6.67498 0
M  V30 8968 H 802.031 0.386449 -0.632249 0
M  V30 8969 H 804.678 0.332729 -1.88587 0
M  V30 8970 H 802.983 2.79317 -2.74753 0
M  V30 8971 H 804.68 2.57605 -3.07312 0
M  V30 8972 H 801.27 1.49634 -4.01631 0
M  V30 8973 H 805.454 0.998809 -4.86146 0
M  V30 8974 H 800.71 0.327767 -6.10521 0
M  V30 8975 H 804.884 -0.162699 -6.9621 0
M  V30 8976 H 802.511 -0.504137 -7.58527 0
M  V30 8977 N 804.086 1.46499 0.581025 0
M  V30 8978 C 805.334 1.51596 1.33653 0
M  V30 8979 C 805.655 0.169859 1.94259 0
M  V30 8980 O 804.925 -0.803776 1.78651 0
M  V30 8981 H 803.505 0.558346 0.496244 0
M  V30 8982 H 806.167 1.8264 0.680338 0
M  V30 8983 H 805.263 2.26956 2.14237 0
M  V30 8984 N 805.565 -0.825799 1.34232 0
M  V30 8985 C 806.475 -1.9684 1.27638 0
M  V30 8986 C 807.491 -1.73018 0.184569 0
M  V30 8987 O 808.667 -1.97172 0.410525 0
M  V30 8988 C 805.732 -3.31084 1.02879 0
M  V30 8989 C 804.793 -3.67933 2.21188 0
M  V30 8990 C 804.026 -4.95772 1.976 0
M  V30 8991 O 804.249 -5.62721 0.93281 0
M  V30 8992 O 803.183 -5.30431 2.84477 0
M  V30 8993 H 807.009 -2.05346 2.23756 0
M  V30 8994 H 804.594 -0.960772 1.1441 0
M  V30 8995 H 806.476 -4.11492 0.908406 0
M  V30 8996 H 805.151 -3.23552 0.0979821 0
M  V30 8997 H 804.058 -2.87981 2.38784 0
M  V30 8998 H 805.391 -3.80147 3.12648 0
M  V30 8999 N 807.043 -1.17915 -1.04565 0
M  V30 9000 C 808.292 -0.965816 -1.77073 0
M  V30 9001 C 808.605 0.506005 -1.88942 0
M  V30 9002 O 809.811 0.837717 -2.58253 0
M  V30 9003 C 808.267 -1.67894 -3.18339 0
M  V30 9004 C 807.875 -3.18972 -3.1458 0
M  V30 9005 C 809.619 -1.54823 -3.9526 0
M  V30 9006 C 807.526 -3.82946 -4.50674 0
M  V30 9007 H 806.456 -0.357729 -0.663736 0
M  V30 9008 H 809.107 -1.41235 -1.17153 0
M  V30 9009 H 807.489 -1.16016 -3.78624 0
M  V30 9010 H 808.663 -3.77835 -2.63776 0
M  V30 9011 H 806.978 -3.32127 -2.51159 0
M  V30 9012 H 809.575 -1.99984 -4.95894 0
M  V30 9013 H 809.918 -0.499727 -4.1329 0
M  V30 9014 H 810.451 -2.03953 -3.41538 0
M  V30 9015 H 807.19 -4.8782 -4.37849 0
M  V30 9016 H 806.71 -3.2887 -5.01602 0
M  V30 9017 H 808.389 -3.85518 -5.196 0
M  V30 9018 N 808.521 1.23394 -0.980386 0
M  V30 9019 C 809.746 1.96384 -0.666935 0
M  V30 9020 C 810.171 1.72087 0.759456 0
M  V30 9021 O 809.529 0.992328 1.51732 0
M  V30 9022 C 809.577 3.47499 -0.963177 0
M  V30 9023 O 808.681 4.12363 -0.0552051 0
M  V30 9024 H 808.022 0.614797 -0.250839 0
M  V30 9025 H 810.552 1.56831 -1.31398 0
M  V30 9026 H 810.562 3.97953 -0.899877 0
M  V30 9027 H 809.237 3.6451 -2.00264 0
M  V30 9028 H 807.814 3.72499 -0.172914 0
M  V30 9029 N 809.999 0.752036 1.385 0
M  V30 9030 C 811.248 0.304294 1.99391 0
M  V30 9031 C 811.561 -1.11982 1.60373 0
M  V30 9032 O 812.767 -1.66795 2.14223 0
M  V30 9033 C 811.223 0.493101 3.56506 0
M  V30 9034 C 810.831 1.9262 4.04477 0
M  V30 9035 C 812.575 0.107994 4.24363 0
M  V30 9036 C 810.482 2.06365 5.54227 0
M  V30 9037 H 809.412 0.110024 0.745929 0
M  V30 9038 H 812.063 0.928355 1.58284 0
M  V30 9039 H 810.445 -0.20012 3.95494 0
M  V30 9040 H 811.619 2.65276 3.76783 0
M  V30 9041 H 809.934 2.26608 3.49339 0
M  V30 9042 H 812.531 0.189474 5.34364 0
M  V30 9043 H 812.874 -0.939165 4.05568 0
M  V30 9044 H 813.407 0.753011 3.90608 0
M  V30 9045 H 810.146 3.0933 5.77923 0
M  V30 9046 H 809.666 1.38167 5.83669 0
M  V30 9047 H 811.345 1.85286 6.19902 0
M  V30 9048 N 811.477 -1.49425 0.500989 0
M  V30 9049 C 812.407 -2.31971 -0.266775 0
M  V30 9050 C 813.388 -1.40245 -0.962563 0
M  V30 9051 O 814.573 -1.69154 -0.953968 0
M  V30 9052 C 811.703 -3.20757 -1.33163 0
M  V30 9053 C 810.657 -4.21275 -0.75572 0
M  V30 9054 C 809.983 -4.98997 -1.92109 0
M  V30 9055 C 811.283 -5.21686 0.253213 0
M  V30 9056 H 812.977 -2.96408 0.422237 0
M  V30 9057 H 810.523 -1.4254 0.204505 0
M  V30 9058 H 812.476 -3.77315 -1.87646 0
M  V30 9059 H 811.2 -2.54263 -2.04983 0
M  V30 9060 H 809.859 -3.65861 -0.232637 0
M  V30 9061 H 809.507 -4.28951 -2.62698 0
M  V30 9062 H 809.207 -5.67011 -1.54182 0
M  V30 9063 H 810.731 -5.584 -2.47026 0
M  V30 9064 H 812.145 -5.72939 -0.203483 0
M  V30 9065 H 810.542 -5.9759 0.548322 0
M  V30 9066 H 811.612 -4.70596 1.16909 0
M  V30 9067 N 812.955 -0.234822 -1.55841 0
M  V30 9068 C 813.903 0.686145 -2.22249 0
M  V30 9069 C 814.897 1.18948 -1.20614 0
M  V30 9070 O 816.103 1.14777 -1.38659 0
M  V30 9071 H 812.478 0.239724 -0.712767 0
M  V30 9072 H 814.449 0.102762 -2.98223 0
M  V30 9073 C 813.198 1.8776 -2.92646 0
M  V30 9074 H 812.521 1.49943 -3.70617 0
M  V30 9075 H 813.961 2.4995 -3.42493 0
M  V30 9076 C 812.42 2.74127 -1.95847 0
M  V30 9077 O 812.95 3.7329 -1.48384 0
M  V30 9078 N 811.156 2.4044 -1.63209 0
M  V30 9079 H 810.703 1.59854 -2.02001 0
M  V30 9080 H 810.661 2.98504 -0.987063 0
M  V30 9081 N 814.433 1.57553 0.0384317 0
M  V30 9082 C 815.682 1.88022 0.730108 0
M  V30 9083 C 815.995 0.83209 1.77019 0
M  V30 9084 O 817.201 1.0257 2.51379 0
M  V30 9085 C 815.657 3.33637 1.3496 0
M  V30 9086 C 815.265 4.46659 0.346352 0
M  V30 9087 C 817.009 3.73266 2.02169 0
M  V30 9088 C 814.916 5.8333 0.973652 0
M  V30 9089 H 813.846 0.701496 0.276442 0
M  V30 9090 H 816.497 1.83493 -0.0158028 0
M  V30 9091 H 814.879 3.32882 2.1449 0
M  V30 9092 H 816.053 4.58868 -0.421558 0
M  V30 9093 H 814.368 4.15802 -0.223133 0
M  V30 9094 H 816.965 4.72689 2.49938 0
M  V30 9095 H 817.308 3.04776 2.8358 0
M  V30 9096 H 817.841 3.76156 1.29427 0
M  V30 9097 H 814.58 6.55197 0.199163 0
M  V30 9098 H 814.1 5.7486 1.71162 0
M  V30 9099 H 815.779 6.29757 1.48376 0
M  V30 9100 N 815.911 -0.310526 1.54511 0
M  V30 9101 C 816.858 -1.38264 1.84802 0
M  V30 9102 C 817.828 -1.50808 0.696141 0
M  V30 9103 O 819.013 -1.6582 0.943846 0
M  V30 9104 C 816.153 -2.74422 2.09252 0
M  V30 9105 C 815.266 -2.70405 3.36906 0
M  V30 9106 C 814.401 -3.98495 3.51248 0
M  V30 9107 C 813.44 -3.88836 4.72729 0
M  V30 9108 N 812.577 -5.08683 4.83928 0
M  V30 9109 H 817.417 -1.11732 2.76261 0
M  V30 9110 H 814.954 -0.540609 1.36806 0
M  V30 9111 H 816.912 -3.53593 2.21422 0
M  V30 9112 H 815.542 -2.99235 1.2107 0
M  V30 9113 H 814.594 -1.83151 3.33406 0
M  V30 9114 H 815.906 -2.59155 4.26193 0
M  V30 9115 H 815.06 -4.861 3.63031 0
M  V30 9116 H 813.799 -4.12567 2.60077 0
M  V30 9117 H 812.804 -2.99615 4.60989 0
M  V30 9118 H 814.029 -3.76318 5.65298 0
M  V30 9119 H 811.975 -5.23236 3.95677 0
M  V30 9120 H 811.892 -4.99819 5.67201 0
M  V30 9121 H 813.16 -5.97966 5.00057 0
M  V30 9122 N 817.389 -1.46805 -0.573248 0
M  V30 9123 C 818.637 -1.52302 -1.32847 0
M  V30 9124 C 818.958 -0.180159 -1.94166 0
M  V30 9125 O 818.228 0.794291 -1.79075 0
M  V30 9126 H 816.808 -0.56097 -0.493276 0
M  V30 9127 H 819.47 -1.82998 -0.670642 0
M  V30 9128 H 818.566 -2.28089 -2.13031 0
M  V30 9129 N 818.867 0.818669 -1.34668 0
M  V30 9130 C 820.092 1.61193 -1.30505 0
M  V30 9131 C 820.517 1.87734 0.117341 0
M  V30 9132 O 819.875 1.45591 1.08042 0
M  V30 9133 C 819.923 2.92733 -2.1057 0
M  V30 9134 O 819.027 3.85 -1.47813 0
M  V30 9135 H 818.368 0.490085 -0.44801 0
M  V30 9136 H 820.898 1.01701 -1.77534 0
M  V30 9137 H 820.908 3.42262 -2.22082 0
M  V30 9138 H 819.583 2.7274 -3.13984 0
M  V30 9139 H 818.16 3.43525 -1.45069 0
M  V30 9140 N 820.346 1.18468 1.03938 0
M  V30 9141 C 821.293 0.912859 2.1198 0
M  V30 9142 C 822.263 -0.14824 1.65437 0
M  V30 9143 O 823.448 -0.008331 1.90798 0
M  V30 9144 C 820.588 0.446114 3.42204 0
M  V30 9145 C 819.701 1.57278 4.02353 0
M  V30 9146 C 818.836 1.05863 5.20544 0
M  V30 9147 C 817.875 2.1599 5.72726 0
M  V30 9148 N 817.012 1.65959 6.82204 0
M  V30 9149 H 821.852 1.83798 2.34569 0
M  V30 9150 H 819.389 0.916504 1.15059 0
M  V30 9151 H 821.347 0.15697 4.16905 0
M  V30 9152 H 819.977 -0.442025 3.19759 0
M  V30 9153 H 819.029 1.97737 3.24968 0
M  V30 9154 H 820.341 2.40289 4.37107 0
M  V30 9155 H 819.495 0.724087 6.02364 0
M  V30 9156 H 818.234 0.198116 4.87297 0
M  V30 9157 H 817.239 2.50287 4.89527 0
M  V30 9158 H 818.464 3.02479 6.08016 0
M  V30 9159 H 816.41 0.82199 6.5083 0
M  V30 9160 H 816.327 2.42567 7.16029 0
M  V30 9161 H 817.595 1.35436 7.67644 0
M  V30 9162 N 821.824 -1.22873 0.986916 0
M  V30 9163 C 822.787 -2.2281 0.537442 0
M  V30 9164 C 823.787 -1.56331 -0.37646 0
M  V30 9165 O 824.977 -1.73376 -0.169247 0
M  V30 9166 C 822.109 -3.40195 -0.219082 0
M  V30 9167 H 823.302 -2.64089 1.42116 0
M  V30 9168 H 820.855 -1.35819 0.773488 0
M  V30 9169 H 821.59 -3.04381 -1.11905 0
M  V30 9170 H 821.375 -3.89657 0.437026 0
M  V30 9171 H 822.865 -4.14326 -0.521926 0
M  V30 9172 N 823.302 -0.75937 -1.38099 0
M  V30 9173 C 824.55 -0.317485 -1.99591 0
M  V30 9174 C 824.871 1.10628 -1.60581 0
M  V30 9175 O 824.141 1.7575 -0.865378 0
M  V30 9176 H 822.721 -0.114397 -0.738189 0
M  V30 9177 H 825.383 -0.974749 -1.68774 0
M  V30 9178 H 824.479 -0.385227 -3.09713 0
M  V30 9179 N 824.78 1.49157 -0.508906 0
M  V30 9180 C 825.728 2.30922 0.278906 0
M  V30 9181 C 826.722 1.39889 0.955382 0
M  V30 9182 O 827.928 1.56901 0.882169 0
M  V30 9183 H 824.303 0.744087 0.108805 0
M  V30 9184 H 826.274 2.95277 -0.430583 0
M  V30 9185 C 825.023 3.21432 1.32576 0
M  V30 9186 H 824.346 3.91413 0.814634 0
M  V30 9187 H 825.786 3.81568 1.84882 0
M  V30 9188 C 824.245 2.41583 2.34817 0
M  V30 9189 O 824.775 2.1256 3.40854 0
M  V30 9190 N 822.981 2.03462 2.07489 0
M  V30 9191 H 822.528 2.27265 1.21278 0
M  V30 9192 H 822.486 1.50345 2.76123 0
M  V30 9193 N 826.258 0.243083 1.55714 0
M  V30 9194 C 827.674 -0.111853 1.59208 0
M  V30 9195 C 827.874 -1.5723 1.2602 0
M  V30 9196 O 826.93 -2.31608 1.00569 0
M  V30 9197 C 828.243 0.233885 2.99789 0
M  V30 9198 C 829.791 0.177873 3.12494 0
M  V30 9199 C 830.266 0.49759 4.55289 0
M  V30 9200 N 831.757 0.447949 4.61029 0
M  V30 9201 C 832.492 0.668545 5.69489 0
M  V30 9202 N 831.988 0.952064 6.86227 0
M  V30 9203 N 833.781 0.599512 5.58894 0
M  V30 9204 H 825.932 1.19554 1.75558 0
M  V30 9205 H 828.195 0.480765 0.817049 0
M  V30 9206 H 827.901 1.24835 3.28799 0
M  V30 9207 H 827.775 -0.440846 3.74615 0
M  V30 9208 H 830.162 -0.827263 2.83267 0
M  V30 9209 H 830.243 0.886399 2.39951 0
M  V30 9210 H 829.887 1.50026 4.85237 0
M  V30 9211 H 829.817 -0.232371 5.26087 0
M  V30 9212 H 832.308 0.237388 3.77154 0
M  V30 9213 H 832.621 1.10791 7.64817 0
M  V30 9214 H 830.966 0.989496 6.8792 0
M  V30 9215 H 834.157 0.378088 4.66571 0
M  V30 9216 H 834.33 0.774828 6.43351 0
M  V30 9217 N 827.736 -1.57571 -0.0300757 0
M  V30 9218 C 829.152 -1.54869 -0.385703 0
M  V30 9219 C 829.352 -0.969068 -1.76667 0
M  V30 9220 O 828.408 -0.589676 -2.45518 0
M  V30 9221 C 829.721 -2.99313 -0.288482 0
M  V30 9222 C 831.269 -3.10857 -0.365638 0
M  V30 9223 C 831.744 -4.5703 -0.297878 0
M  V30 9224 N 833.235 -4.61825 -0.356703 0
M  V30 9225 C 833.97 -5.72466 -0.327146 0
M  V30 9226 N 833.466 -6.92349 -0.249941 0
M  V30 9227 N 835.259 -5.60836 -0.376801 0
M  V30 9228 H 827.41 -1.936 0.87367 0
M  V30 9229 H 829.673 -0.887924 0.332106 0
M  V30 9230 H 829.379 -3.45443 0.66047 0
M  V30 9231 H 829.253 -3.61332 -1.08253 0
M  V30 9232 H 831.64 -2.64676 -1.30502 0
M  V30 9233 H 831.721 -2.51671 0.457744 0
M  V30 9234 H 831.365 -5.03879 0.637835 0
M  V30 9235 H 831.295 -5.14127 -1.13935 0
M  V30 9236 H 833.786 -3.75571 -0.418926 0
M  V30 9237 H 834.099 -7.7245 -0.23246 0
M  V30 9238 H 832.444 -6.94664 -0.216004 0
M  V30 9239 H 835.635 -4.66073 -0.435101 0
M  V30 9240 H 835.808 -6.47052 -0.350298 0
M  V30 9241 N 829.214 0.302327 -1.54673 0
M  V30 9242 C 830.442 1.05669 -1.77881 0
M  V30 9243 C 830.857 1.80983 -0.537648 0
M  V30 9244 O 830.214 1.7573 0.492467 0
M  V30 9245 C 830.265 2.03828 -2.98557 0
M  V30 9246 O 829.986 1.3157 -4.17877 0
M  V30 9247 C 831.487 2.91314 -3.34143 0
M  V30 9248 H 828.707 0.313436 -0.593295 0
M  V30 9249 H 831.251 0.342003 -2.0162 0
M  V30 9250 H 829.406 2.70801 -2.7703 0
M  V30 9251 H 829.82 1.97481 -4.85903 0
M  V30 9252 H 831.294 3.56042 -4.21827 0
M  V30 9253 H 831.771 3.59544 -2.52239 0
M  V30 9254 H 832.377 2.29874 -3.57824 0
M  V30 9255 N 830.692 1.47107 0.565454 0
M  V30 9256 C 831.655 1.58535 1.65527 0
M  V30 9257 C 832.655 0.461081 1.54048 0
M  V30 9258 O 833.845 0.725911 1.58355 0
M  V30 9259 C 830.977 1.52204 3.05036 0
M  V30 9260 H 832.17 2.55676 1.56747 0
M  V30 9261 H 829.723 1.35174 0.78471 0
M  V30 9262 H 830.458 0.564071 3.19357 0
M  V30 9263 H 830.243 2.3379 3.14777 0
M  V30 9264 H 831.733 1.63322 3.84338 0
M  V30 9265 N 832.17 -0.811516 1.35101 0
M  V30 9266 C 833.118 -1.94449 1.27642 0
M  V30 9267 C 834.112 -1.68522 0.172287 0
M  V30 9268 O 835.318 -1.76799 0.337967 0
M  V30 9269 H 831.693 -0.638776 0.396824 0
M  V30 9270 H 833.664 -1.97861 2.23369 0
M  V30 9271 C 832.413 -3.31139 1.06029 0
M  V30 9272 H 831.736 -3.51644 1.90227 0
M  V30 9273 H 833.176 -4.10831 1.0485 0
M  V30 9274 C 831.635 -3.36072 -0.236039 0
M  V30 9275 O 832.165 -3.82292 -1.23353 0
M  V30 9276 N 830.371 -2.89314 -0.273107 0
M  V30 9277 H 829.918 -2.51893 0.539211 0
M  V30 9278 H 829.876 -2.92996 -1.1402 0
M  V30 9279 N 833.648 -1.19017 -1.03309 0
M  V30 9280 C 834.897 -0.984542 -1.76039 0
M  V30 9281 C 835.21 0.485937 -1.89468 0
M  V30 9282 O 836.416 0.810278 -2.59127 0
M  V30 9283 C 834.872 -1.71261 -3.1654 0
M  V30 9284 C 834.48 -3.22291 -3.11179 0
M  V30 9285 C 836.224 -1.59007 -3.93595 0
M  V30 9286 C 834.131 -3.87704 -4.46587 0
M  V30 9287 H 833.061 -0.364749 -0.659905 0
M  V30 9288 H 835.712 -1.4247 -1.15649 0
M  V30 9289 H 834.094 -1.20025 -3.77373 0
M  V30 9290 H 835.268 -3.80611 -2.59753 0
M  V30 9291 H 833.583 -3.34772 -2.47622 0
M  V30 9292 H 836.18 -2.05232 -4.93745 0
M  V30 9293 H 836.523 -0.543534 -4.12736 0
M  V30 9294 H 837.056 -2.07564 -3.39355 0
M  V30 9295 H 833.795 -4.92437 -4.3265 0
M  V30 9296 H 833.315 -3.34172 -4.98085 0
M  V30 9297 H 834.994 -3.91008 -5.15482 0
M  V30 9298 N 835.127 1.22348 -0.993418 0
M  V30 9299 C 836.074 2.24294 -0.544118 0
M  V30 9300 C 837.044 1.60602 0.42381 0
M  V30 9301 O 838.229 1.87952 0.328453 0
M  V30 9302 C 835.369 3.44837 0.134578 0
M  V30 9303 C 834.482 4.23043 -0.875151 0
M  V30 9304 C 833.617 5.30928 -0.169919 0
M  V30 9305 C 832.656 6.00853 -1.16798 0
M  V30 9306 N 831.793 7.00381 -0.491021 0
M  V30 9307 H 836.633 2.6209 -1.4182 0
M  V30 9308 H 834.17 1.2881 -0.710384 0
M  V30 9309 H 836.128 4.13625 0.544998 0
M  V30 9310 H 834.758 3.07804 0.972446 0
M  V30 9311 H 833.81 3.53546 -1.40389 0
M  V30 9312 H 835.122 4.71237 -1.63516 0
M  V30 9313 H 834.276 6.05972 0.297205 0
M  V30 9314 H 833.015 4.8371 0.622586 0
M  V30 9315 H 832.02 5.24591 -1.64573 0
M  V30 9316 H 833.245 6.50159 -1.96137 0
M  V30 9317 H 831.191 6.55393 0.282037 0
M  V30 9318 H 831.108 7.46584 -1.18947 0
M  V30 9319 H 832.376 7.79486 -0.0467169 0
M  V30 9320 N 836.605 0.766683 1.37694 0
M  V30 9321 C 837.83 0.338715 2.04615 0
M  V30 9322 C 838.255 -1.02918 1.57447 0
M  V30 9323 O 837.613 -1.65849 0.732386 0
M  V30 9324 C 837.661 0.385284 3.58536 0
M  V30 9325 O 836.765 -0.616081 4.07772 0
M  V30 9326 H 836.106 0.147527 0.647404 0
M  V30 9327 H 838.636 1.04146 1.7611 0
M  V30 9328 H 838.646 0.240782 4.07289 0
M  V30 9329 H 837.321 1.38325 3.92223 0
M  V30 9330 H 835.898 -0.435115 3.70353 0
M  V30 9331 N 838.083 -1.48885 0.516809 0
M  V30 9332 C 839.332 -2.01686 -0.0239899 0
M  V30 9333 C 839.645 -1.40029 -1.3657 0
M  V30 9334 O 840.851 -1.84249 -1.9941 0
M  V30 9335 C 839.307 -3.59779 -0.0931825 0
M  V30 9336 C 838.915 -4.30416 1.24283 0
M  V30 9337 C 840.659 -4.20471 -0.583507 0
M  V30 9338 C 838.566 -5.80408 1.13494 0
M  V30 9339 H 837.496 -0.753892 -0.0127376 0
M  V30 9340 H 840.147 -1.71273 0.65861 0
M  V30 9341 H 838.529 -3.86976 -0.840577 0
M  V30 9342 H 839.703 -4.14905 2.00476 0
M  V30 9343 H 838.018 -3.81539 1.66785 0
M  V30 9344 H 840.615 -5.30333 -0.681987 0
M  V30 9345 H 840.958 -3.84898 -1.58617 0
M  V30 9346 H 841.491 -3.97654 0.107814 0
M  V30 9347 H 838.23 -6.20532 2.11235 0
M  V30 9348 H 837.75 -5.98368 0.414167 0
M  V30 9349 H 839.429 -6.41781 0.820162 0
M  V30 9350 N 839.561 -0.251338 -1.55583 0
M  V30 9351 C 840.809 0.371434 -1.98657 0
M  V30 9352 C 841.13 1.58143 -1.14087 0
M  V30 9353 O 840.4 1.94607 -0.224708 0
M  V30 9354 H 838.98 0.140225 -0.733721 0
M  V30 9355 H 841.642 -0.351157 -1.9171 0
M  V30 9356 H 840.738 0.677554 -3.04657 0
M  V30 9357 N 841.039 1.57585 0.0217189 0
M  V30 9358 C 842.269 1.9359 0.721572 0
M  V30 9359 C 842.677 0.850132 1.69025 0
M  V30 9360 O 842.02 -0.181539 1.82801 0
M  V30 9361 C 842.082 3.25445 1.52729 0
M  V30 9362 C 841.746 4.51251 0.722586 0
M  V30 9363 C 842.743 5.19896 0.0196598 0
M  V30 9364 C 840.428 4.97745 0.674959 0
M  V30 9365 C 842.422 6.33319 -0.720114 0
M  V30 9366 C 840.109 6.11062 -0.068555 0
M  V30 9367 C 841.107 6.78704 -0.764845 0
M  V30 9368 O 840.795 7.89852 -1.49627 0
M  V30 9369 H 840.527 0.643409 0.207366 0
M  V30 9370 H 843.081 2.05391 -0.0189346 0
M  V30 9371 H 841.311 3.0999 2.31178 0
M  V30 9372 H 843 3.46721 2.11044 0
M  V30 9373 H 843.766 4.84977 0.0474394 0
M  V30 9374 H 839.645 4.44934 1.20643 0
M  V30 9375 H 843.189 6.86051 -1.26413 0
M  V30 9376 H 839.086 6.45425 -0.0982318 0
M  V30 9377 H 839.854 8.06251 -1.41071 0
M  V30 9378 N 842.517 -0.29412 1.54831 0
M  V30 9379 C 843.742 -1.05156 1.78765 0
M  V30 9380 C 844.167 -1.79916 0.548809 0
M  V30 9381 O 843.525 -1.74243 -0.500909 0
M  V30 9382 C 843.573 -2.00242 2.99893 0
M  V30 9383 O 842.677 -3.08662 2.73499 0
M  V30 9384 H 842.018 -0.301737 0.591482 0
M  V30 9385 H 844.548 -0.329449 2.0193 0
M  V30 9386 H 844.558 -2.42583 3.28051 0
M  V30 9387 H 843.233 -1.45235 3.89717 0
M  V30 9388 H 841.81 -2.70786 2.56377 0
M  V30 9389 N 843.995 -1.47404 -0.557645 0
M  V30 9390 C 845.272 -1.44488 -1.31843 0
M  V30 9391 C 845.652 -0.1416 -2.10625 0
M  V30 9392 O 845 0.876908 -2.11004 0
M  V30 9393 C 845.21 -2.69016 -2.22331 0
M  V30 9394 C 846.558 -3.16212 -2.83364 0
M  V30 9395 O 847.582 -2.69741 -2.32634 0
M  V30 9396 O 846.441 -3.96999 -3.75571 0
M  V30 9397 H 843.535 -0.57578 -0.593639 0
M  V30 9398 H 846.081 -1.59605 -0.576584 0
M  V30 9399 H 844.853 -3.55406 -1.63715 0
M  V30 9400 H 844.476 -2.56484 -3.03812 0
M  V30 9401 N 845.473 0.80434 -1.35529 0
M  V30 9402 C 846.403 1.93086 -1.31301 0
M  V30 9403 C 847.384 1.69068 -0.187044 0
M  V30 9404 O 848.569 1.90399 -0.382359 0
M  V30 9405 C 845.699 3.29867 -1.0865 0
M  V30 9406 C 844.653 3.68373 -2.17911 0
M  V30 9407 C 843.979 5.0334 -1.80423 0
M  V30 9408 C 845.279 3.78516 -3.59893 0
M  V30 9409 H 846.973 1.96882 -2.25561 0
M  V30 9410 H 844.519 0.945841 -1.08581 0
M  V30 9411 H 846.472 4.08281 -1.04331 0
M  V30 9412 H 845.196 3.2642 -0.108359 0
M  V30 9413 H 843.855 2.92247 -2.21331 0
M  V30 9414 H 843.503 4.96399 -0.812213 0
M  V30 9415 H 843.203 5.30074 -2.53565 0
M  V30 9416 H 844.727 5.84191 -1.77633 0
M  V30 9417 H 846.141 4.47155 -3.58783 0
M  V30 9418 H 844.538 4.16721 -4.31814 0
M  V30 9419 H 845.608 2.8001 -3.95882 0
M  V30 9420 N 846.951 1.19563 1.02676 0
M  V30 9421 C 848.198 0.999568 1.7611 0
M  V30 9422 C 848.526 -0.469432 1.8875 0
M  V30 9423 O 847.781 -1.36481 1.40255 0
M  V30 9424 C 848.08 1.61619 3.18769 0
M  V30 9425 C 847.746 3.11366 3.26132 0
M  V30 9426 C 846.408 3.52234 3.27848 0
M  V30 9427 C 848.76 4.07374 3.25109 0
M  V30 9428 C 846.088 4.87658 3.26201 0
M  V30 9429 C 848.44 5.42731 3.25002 0
M  V30 9430 C 847.104 5.83027 3.25017 0
M  V30 9431 H 846.374 0.365768 0.644434 0
M  V30 9432 H 849.021 1.48838 1.20497 0
M  V30 9433 H 847.326 1.04974 3.77476 0
M  V30 9434 H 849.023 1.43975 3.74262 0
M  V30 9435 H 845.613 2.78804 3.25525 0
M  V30 9436 H 849.797 3.76842 3.22961 0
M  V30 9437 H 845.053 5.18156 3.24537 0
M  V30 9438 H 849.227 6.16879 3.23161 0
M  V30 9439 H 846.854 6.87936 3.23494 0
M  V30 9440 N 848.429 -1.21819 0.999893 0
M  V30 9441 C 849.669 -1.92473 0.687996 0
M  V30 9442 C 850.033 -1.76033 -0.766569 0
M  V30 9443 O 851.234 -2.41013 -1.19021 0
M  V30 9444 C 849.505 -3.40332 1.09129 0
M  V30 9445 S 851.064 -4.29496 0.898822 0
M  V30 9446 H 847.882 -0.665097 0.251329 0
M  V30 9447 H 850.484 -1.47454 1.28364 0
M  V30 9448 H 849.188 -3.49812 2.14615 0
M  V30 9449 H 848.719 -3.90365 0.487724 0
M  V30 9450 H 850.734 -4.95769 -0.206873 0
M  V30 9451 N 849.908 -0.773975 -1.37286 0
M  V30 9452 C 850.838 -0.175782 -2.32837 0
M  V30 9453 C 851.819 0.680603 -1.5589 0
M  V30 9454 O 853.004 0.617607 -1.84117 0
M  V30 9455 C 850.134 0.702388 -3.40123 0
M  V30 9456 C 849.088 -0.0528687 -4.27967 0
M  V30 9457 C 848.414 0.944891 -5.26285 0
M  V30 9458 C 849.714 -1.23316 -5.07534 0
M  V30 9459 H 851.408 -0.974016 -2.83114 0
M  V30 9460 H 848.954 -0.469826 -1.3612 0
M  V30 9461 H 850.907 1.13069 -4.05947 0
M  V30 9462 H 849.631 1.53316 -2.88378 0
M  V30 9463 H 848.29 -0.461978 -3.63678 0
M  V30 9464 H 847.938 1.77028 -4.70819 0
M  V30 9465 H 847.638 0.444079 -5.8592 0
M  V30 9466 H 849.162 1.37209 -5.94984 0
M  V30 9467 H 850.576 -0.881395 -5.66484 0
M  V30 9468 H 848.973 -1.66621 -5.76504 0
M  V30 9469 H 850.043 -2.03617 -4.40077 0
M  V30 9470 N 851.386 1.48609 -0.524698 0
M  V30 9471 C 852.611 2.07398 0.00952139 0
M  V30 9472 C 853.036 1.37939 1.27884 0
M  V30 9473 O 852.394 0.443633 1.75788 0
M  V30 9474 C 852.442 3.59916 0.221956 0
M  V30 9475 O 851.546 3.91647 1.29175 0
M  V30 9476 H 850.887 0.662981 -0.0367729 0
M  V30 9477 H 853.417 1.91092 -0.7311 0
M  V30 9478 H 853.427 4.05552 0.446236 0
M  V30 9479 H 852.102 4.09876 -0.705306 0
M  V30 9480 H 850.679 3.57796 1.05055 0
M  V30 9481 N 852.864 0.259585 1.55447 0
M  V30 9482 C 853.811 -0.634578 2.21905 0
M  V30 9483 C 854.781 -1.16168 1.18719 0
M  V30 9484 O 855.966 -1.21383 1.4721 0
M  V30 9485 C 853.106 -1.82005 2.93203 0
M  V30 9486 C 852.219 -1.32828 4.11073 0
M  V30 9487 C 851.354 -2.47431 4.70055 0
M  V30 9488 C 850.393 -1.95179 5.80148 0
M  V30 9489 N 849.53 -3.03197 6.33258 0
M  V30 9490 H 854.37 -0.0611886 2.97937 0
M  V30 9491 H 851.907 -0.0184378 1.47088 0
M  V30 9492 H 853.865 -2.51664 3.32748 0
M  V30 9493 H 852.495 -2.36571 2.19622 0
M  V30 9494 H 851.547 -0.525301 3.76756 0
M  V30 9495 H 852.859 -0.905435 4.90513 0
M  V30 9496 H 852.013 -3.25111 5.12238 0
M  V30 9497 H 850.752 -2.93023 3.89857 0
M  V30 9498 H 849.757 -1.15974 5.37429 0
M  V30 9499 H 850.982 -1.50541 6.62204 0
M  V30 9500 H 848.928 -3.48199 5.55961 0
M  V30 9501 H 848.845 -2.65282 7.07928 0
M  V30 9502 H 850.113 -3.80898 6.80101 0
M  V30 9503 N 854.342 -1.57594 -0.0133615 0
M  V30 9504 C 855.619 -1.81173 -0.737273 0
M  V30 9505 C 855.999 -0.861395 -1.92726 0
M  V30 9506 O 855.347 0.0929324 -2.28311 0
M  V30 9507 C 855.557 -3.29314 -1.15557 0
M  V30 9508 C 856.905 -3.94707 -1.56498 0
M  V30 9509 O 857.929 -3.33557 -1.24973 0
M  V30 9510 O 856.788 -5.02402 -2.15069 0
M  V30 9511 H 853.882 -0.745575 -0.357837 0
M  V30 9512 H 856.428 -1.69696 0.0110674 0
M  V30 9513 H 855.2 -3.90096 -0.30677 0
M  V30 9514 H 854.823 -3.45739 -1.96343 0
M  V30 9515 N 855.82 0.285905 -1.54985 0
M  V30 9516 C 857.097 1.0397 -1.65679 0
M  V30 9517 C 857.477 2.04725 -0.514851 0
M  V30 9518 O 856.825 2.23257 0.486663 0
M  V30 9519 C 857.035 1.70807 -3.04345 0
M  V30 9520 C 858.383 2.22447 -3.61666 0
M  V30 9521 O 859.407 1.80815 -3.06895 0
M  V30 9522 O 858.266 2.98773 -4.57599 0
M  V30 9523 H 855.36 0.481473 -0.672394 0
M  V30 9524 H 857.906 0.282789 -1.67327 0
M  V30 9525 H 856.678 0.977271 -3.789 0
M  V30 9526 H 856.301 2.53217 -3.06541 0
M  V30 9527 N 857.298 1.47698 0.54982 0
M  V30 9528 C 858.228 1.63622 1.66583 0
M  V30 9529 C 859.209 0.485477 1.63025 0
M  V30 9530 O 860.394 0.715692 1.80531 0
M  V30 9531 C 857.524 1.65721 3.05211 0
M  V30 9532 C 856.478 2.80097 3.2362 0
M  V30 9533 C 855.804 2.67272 4.63109 0
M  V30 9534 C 857.104 4.21612 3.08286 0
M  V30 9535 H 858.798 2.57049 1.53512 0
M  V30 9536 H 856.344 1.23705 0.737099 0
M  V30 9537 H 858.297 1.75451 3.83138 0
M  V30 9538 H 857.021 0.688593 3.19258 0
M  V30 9539 H 855.68 2.69889 2.48104 0
M  V30 9540 H 855.328 1.68422 4.73965 0
M  V30 9541 H 855.028 3.44008 4.76374 0
M  V30 9542 H 856.552 2.78942 5.43161 0
M  V30 9543 H 857.966 4.32758 3.76024 0
M  V30 9544 H 856.363 4.99193 3.33057 0
M  V30 9545 H 857.433 4.39462 2.04942 0
M  V30 9546 N 858.776 -0.797141 1.35954 0
M  V30 9547 C 859.709 -1.91567 1.24005 0
M  V30 9548 C 860.687 -1.62112 0.125868 0
M  V30 9549 O 861.871 -1.86167 0.295638 0
M  V30 9550 C 858.998 -3.26204 0.911535 0
M  V30 9551 C 858.044 -3.74598 2.03909 0
M  V30 9552 S 858.877 -3.91276 3.656 0
M  V30 9553 C 860.033 -5.288 3.34846 0
M  V30 9554 H 860.266 -2.0141 2.18681 0
M  V30 9555 H 857.799 -0.955542 1.2128 0
M  V30 9556 H 859.757 -4.03979 0.728805 0
M  V30 9557 H 858.418 -3.14095 -0.0173159 0
M  V30 9558 H 857.611 -4.72137 1.7636 0
M  V30 9559 H 857.213 -3.03849 2.18064 0
M  V30 9560 H 859.505 -6.13117 2.8826 0
M  V30 9561 H 860.448 -5.61347 4.31619 0
M  V30 9562 H 860.856 -4.95534 2.70382 0
M  V30 9563 N 860.254 -1.20106 -1.0204 0
M  V30 9564 C 861.164 -0.962051 -2.13967 0
M  V30 9565 C 862.18 0.0808053 -1.73812 0
M  V30 9566 O 863.356 -0.105774 -2.01122 0
M  V30 9567 C 860.421 -0.513108 -3.42882 0
M  V30 9568 C 859.482 -1.62636 -3.97301 0
M  V30 9569 C 858.715 -1.19875 -5.20063 0
M  V30 9570 O 858.938 -0.0658423 -5.70362 0
M  V30 9571 O 857.872 -2.00467 -5.67536 0
M  V30 9572 H 861.698 -1.8991 -2.36998 0
M  V30 9573 H 859.283 -0.984608 -1.12365 0
M  V30 9574 H 861.165 -0.271797 -4.20523 0
M  V30 9575 H 859.84 0.395402 -3.21276 0
M  V30 9576 H 858.747 -1.92192 -3.20957 0
M  V30 9577 H 860.08 -2.51174 -4.23288 0
M  V30 9578 N 861.732 1.21287 -1.00634 0
M  V30 9579 C 862.695 2.21927 -0.572821 0
M  V30 9580 C 863.695 1.5691 0.351541 0
M  V30 9581 O 864.885 1.73623 0.141643 0
M  V30 9582 C 862.017 3.40501 0.164932 0
M  V30 9583 H 863.21 2.61795 -1.463 0
M  V30 9584 H 860.763 1.34571 -0.794998 0
M  V30 9585 H 861.498 3.06123 1.07049 0
M  V30 9586 H 861.283 3.88912 -0.498962 0
M  V30 9587 H 862.773 4.15103 0.455945 0
M  V30 9588 N 863.21 0.781244 1.36873 0
M  V30 9589 C 864.14 0.188128 2.32741 0
M  V30 9590 C 865.121 -0.672326 1.56249 0
M  V30 9591 O 866.306 -0.607835 1.84442 0
M  V30 9592 C 863.436 -0.684341 3.40491 0
M  V30 9593 C 862.39 0.0755641 4.27933 0
M  V30 9594 C 861.716 -0.916968 5.26779 0
M  V30 9595 C 863.016 1.26006 5.06873 0
M  V30 9596 H 864.71 0.989016 2.82593 0
M  V30 9597 H 862.256 0.477038 1.35869 0
M  V30 9598 H 864.209 -1.10915 4.06541 0
M  V30 9599 H 862.933 -1.51785 2.89187 0
M  V30 9600 H 861.592 0.481258 3.63427 0
M  V30 9601 H 861.24 -1.74528 4.71751 0
M  V30 9602 H 860.94 -0.413 5.86147 0
M  V30 9603 H 862.464 -1.34052 5.95703 0
M  V30 9604 H 863.878 0.911425 5.66009 0
M  V30 9605 H 862.275 1.69676 5.75613 0
M  V30 9606 H 863.345 2.05948 4.38991 0
M  V30 9607 N 864.689 -1.48329 0.532571 0
M  V30 9608 C 865.917 -2.069 0.00354299 0
M  V30 9609 C 866.332 -1.38876 -1.27902 0
M  V30 9610 O 865.689 -0.477119 -1.76153 0
M  V30 9611 C 865.74 -3.60821 -0.221416 0
M  V30 9612 O 865.461 -4.26291 1.01034 0
M  V30 9613 C 866.962 -4.36194 -0.790531 0
M  V30 9614 H 864.182 -0.670103 0.0346836 0
M  V30 9615 H 866.726 -1.90682 0.738955 0
M  V30 9616 H 864.881 -3.76636 -0.906884 0
M  V30 9617 H 865.295 -5.18475 0.792683 0
M  V30 9618 H 866.769 -5.44657 -0.897347 0
M  V30 9619 H 867.246 -4.00798 -1.79605 0
M  V30 9620 H 867.852 -4.25064 -0.141546 0
M  V30 9621 N 866.167 -0.267825 -1.55308 0
M  V30 9622 C 867.077 0.633055 -2.25897 0
M  V30 9623 C 868.093 1.17613 -1.28231 0
M  V30 9624 O 869.269 1.20797 -1.61153 0
M  V30 9625 C 866.334 1.80397 -2.96071 0
M  V30 9626 C 865.395 1.29829 -4.09198 0
M  V30 9627 C 864.628 2.4134 -4.76016 0
M  V30 9628 O 864.851 3.60537 -4.42006 0
M  V30 9629 O 863.785 2.09909 -5.64111 0
M  V30 9630 H 867.611 0.0614381 -3.03638 0
M  V30 9631 H 865.196 -0.0355072 -1.49358 0
M  V30 9632 H 867.078 2.48685 -3.40197 0
M  V30 9633 H 865.753 2.36281 -2.21253 0
M  V30 9634 H 864.66 0.582086 -3.69544 0
M  V30 9635 H 865.993 0.785288 -4.85895 0
M  V30 9636 N 867.645 1.57599 0.00500368 0
M  V30 9637 C 868.875 1.94344 0.700998 0
M  V30 9638 C 869.283 0.868011 1.68114 0
M  V30 9639 O 868.626 -0.16214 1.82983 0
M  V30 9640 C 868.688 3.27046 1.49268 0
M  V30 9641 C 868.352 4.51992 0.674684 0
M  V30 9642 C 869.349 5.19888 -0.0354833 0
M  V30 9643 C 867.034 4.98432 0.622129 0
M  V30 9644 C 869.028 6.3252 -0.787246 0
M  V30 9645 C 866.715 6.10954 -0.133362 0
M  V30 9646 C 867.713 6.77855 -0.836788 0
M  V30 9647 O 867.401 7.88221 -1.57996 0
M  V30 9648 H 867.133 0.645572 0.20053 0
M  V30 9649 H 869.687 2.0536 -0.040718 0
M  V30 9650 H 867.917 3.12424 2.27877 0
M  V30 9651 H 869.606 3.4894 2.07355 0
M  V30 9652 H 870.372 4.85 -0.00400159 0
M  V30 9653 H 866.251 4.46189 1.15917 0
M  V30 9654 H 869.795 6.84671 -1.33683 0
M  V30 9655 H 865.692 6.45285 -0.166682 0
M  V30 9656 H 866.46 8.0471 -1.49615 0
M  V30 9657 N 869.123 -0.277682 1.55134 0
M  V30 9658 C 870.534 -0.849063 1.66276 0
M  V30 9659 C 870.885 -1.87223 0.5867 0
M  V30 9660 O 870.01 -2.14676 -0.272635 0
M  V30 9661 C 870.605 -1.54681 3.01429 0
M  V30 9662 C 869.164 -2.06628 3.14614 0
M  V30 9663 C 868.311 -0.906748 2.62056 0
M  V30 9664 H 871.262 -0.0541357 1.58608 0
M  V30 9665 H 871.283 -2.41356 2.94156 0
M  V30 9666 H 870.795 -0.80189 3.79725 0
M  V30 9667 H 868.896 -2.84095 2.41082 0
M  V30 9668 H 869.009 -2.2848 4.2111 0
M  V30 9669 H 867.373 -1.29882 2.19095 0
M  V30 9670 H 868.156 -0.175414 3.42852 0
M  V30 9671 N 870.601 -1.47988 -0.541979 0
M  V30 9672 C 871.878 -1.45878 -1.30303 0
M  V30 9673 C 872.258 -0.163931 -2.10463 0
M  V30 9674 O 871.606 0.854479 -2.11922 0
M  V30 9675 C 871.816 -2.71359 -2.19466 0
M  V30 9676 C 873.164 -3.19199 -2.79995 0
M  V30 9677 O 874.188 -2.72193 -2.2976 0
M  V30 9678 O 873.047 -4.00961 -3.71339 0
M  V30 9679 H 870.141 -0.582043 -0.587498 0
M  V30 9680 H 872.687 -1.60207 -0.559623 0
M  V30 9681 H 871.459 -3.57122 -1.59936 0
M  V30 9682 H 871.082 -2.59692 -3.01075 0
M  V30 9683 N 872.079 0.78992 -1.36375 0
M  V30 9684 C 873.042 1.88414 -1.30509 0
M  V30 9685 C 874.042 1.59384 -0.2129 0
M  V30 9686 O 875.232 1.67805 -0.467651 0
M  V30 9687 C 872.364 3.25188 -1.02302 0
M  V30 9688 H 873.557 1.95031 -2.27822 0
M  V30 9689 H 871.11 0.987664 -1.2114 0
M  V30 9690 H 871.845 3.24254 -0.0544486 0
M  V30 9691 H 871.63 3.47647 -1.81338 0
M  V30 9692 H 873.12 4.05252 -1.00801 0
M  V30 9693 N 873.557 1.20646 1.01402 0
M  V30 9694 C 874.504 0.957618 2.09996 0
M  V30 9695 C 875.474 -0.113115 1.65714 0
M  V30 9696 O 876.659 0.032142 1.90773 0
M  V30 9697 C 873.799 0.5186 3.41181 0
M  V30 9698 C 872.912 1.65777 3.98926 0
M  V30 9699 C 872.047 1.16881 5.18182 0
M  V30 9700 C 871.086 2.2809 5.68015 0
M  V30 9701 N 870.223 1.80392 6.7853 0
M  V30 9702 H 875.063 1.88732 2.30617 0
M  V30 9703 H 872.6 0.940703 1.13089 0
M  V30 9704 H 874.558 0.245367 4.16478 0
M  V30 9705 H 873.188 -0.3741 3.20625 0
M  V30 9706 H 872.24 2.04586 3.207 0
M  V30 9707 H 873.552 2.49507 4.31912 0
M  V30 9708 H 872.706 0.851694 6.00692 0
M  V30 9709 H 871.445 0.301434 4.86768 0
M  V30 9710 H 870.45 2.60614 4.84108 0
M  V30 9711 H 871.675 3.15308 6.01463 0
M  V30 9712 H 869.621 0.959856 6.4894 0
M  V30 9713 H 869.538 2.57701 7.10722 0
M  V30 9714 H 870.806 1.51688 7.64598 0
M  V30 9715 N 875.035 -1.20752 1.01276 0
M  V30 9716 C 876.263 -1.94006 0.718976 0
M  V30 9717 C 876.678 -1.74544 -0.719711 0
M  V30 9718 O 876.035 -1.05697 -1.48776 0
M  V30 9719 C 876.086 -3.46208 1.04031 0
M  V30 9720 O 875.807 -3.65031 2.42248 0
M  V30 9721 C 877.308 -4.36614 0.767032 0
M  V30 9722 H 874.528 -0.616743 0.264327 0
M  V30 9723 H 877.072 -1.53352 1.3529 0
M  V30 9724 H 875.227 -3.84756 0.451852 0
M  V30 9725 H 875.641 -4.59054 2.53712 0
M  V30 9726 H 877.115 -5.42076 1.04198 0
M  V30 9727 H 877.592 -4.38182 -0.298851 0
M  V30 9728 H 878.198 -4.03723 1.33746 0
M  V30 9729 N 876.513 -0.788492 -1.36457 0
M  V30 9730 C 877.446 -0.132189 -2.27817 0
M  V30 9731 C 878.424 0.691166 -1.47179 0
M  V30 9732 O 879.608 0.662344 -1.7648 0
M  V30 9733 C 876.735 0.818386 -3.28664 0
M  V30 9734 C 875.781 0.0769392 -4.26431 0
M  V30 9735 S 876.614 -1.24666 -5.20786 0
M  V30 9736 C 877.77 -0.300063 -6.2518 0
M  V30 9737 H 878.003 -0.906824 -2.83132 0
M  V30 9738 H 875.536 -0.582666 -1.42984 0
M  V30 9739 H 877.494 1.36138 -3.87268 0
M  V30 9740 H 876.155 1.56626 -2.72263 0
M  V30 9741 H 875.348 0.79819 -4.97639 0
M  V30 9742 H 874.95 -0.395547 -3.71902 0
M  V30 9743 H 877.242 0.521434 -6.7549 0
M  V30 9744 H 878.185 -0.980808 -7.01274 0
M  V30 9745 H 878.593 0.0961898 -5.64418 0
M  V30 9746 N 877.991 1.48044 -0.54043 0
M  V30 9747 C 878.921 2.32597 0.205178 0
M  V30 9748 C 879.902 1.42748 0.925041 0
M  V30 9749 O 881.087 1.71624 0.908784 0
M  V30 9750 C 878.217 3.24175 1.24612 0
M  V30 9751 C 877.171 4.23131 0.64376 0
M  V30 9752 C 876.497 5.03915 1.78812 0
M  V30 9753 C 877.797 5.20831 -0.39144 0
M  V30 9754 H 879.491 2.95184 -0.500676 0
M  V30 9755 H 877.037 1.41948 -0.242225 0
M  V30 9756 H 878.99 3.82158 1.77576 0
M  V30 9757 H 877.714 2.59608 1.98169 0
M  V30 9758 H 876.373 3.66349 0.135554 0
M  V30 9759 H 876.021 4.35765 2.51232 0
M  V30 9760 H 875.721 5.709 1.39094 0
M  V30 9761 H 877.245 5.64753 2.32134 0
M  V30 9762 H 878.659 5.73277 0.0515064 0
M  V30 9763 H 877.056 5.95926 -0.706569 0
M  V30 9764 H 878.126 4.6733 -1.29345 0
M  V30 9765 N 879.47 0.276058 1.55163 0
M  V30 9766 C 880.38 -0.621066 2.2623 0
M  V30 9767 C 881.396 -1.16931 1.28853 0
M  V30 9768 O 882.572 -1.1994 1.61791 0
M  V30 9769 C 879.637 -1.78824 2.97023 0
M  V30 9770 C 878.698 -1.27657 4.09881 0
M  V30 9771 C 877.931 -2.38812 4.77289 0
M  V30 9772 O 878.154 -3.58188 4.43912 0
M  V30 9773 O 877.088 -2.06915 5.65217 0
M  V30 9774 H 880.914 -0.0453346 3.03666 0
M  V30 9775 H 878.499 0.0434275 1.49337 0
M  V30 9776 H 880.381 -2.46877 3.41511 0
M  V30 9777 H 879.056 -2.35104 2.22503 0
M  V30 9778 H 877.963 -0.56248 3.69847 0
M  V30 9779 H 879.296 -0.759509 4.86305 0
M  V30 9780 N 880.948 -1.576 0.00335426 0
M  V30 9781 C 881.858 -2.12067 -1.00322 0
M  V30 9782 C 882.874 -1.06672 -1.37467 0
M  V30 9783 O 884.05 -1.38592 -1.46131 0
M  V30 9784 C 881.115 -2.61593 -2.27531 0
M  V30 9785 C 880.176 -3.81602 -1.96668 0
M  V30 9786 C 879.409 -4.28756 -3.17811 0
M  V30 9787 O 879.632 -3.75222 -4.2961 0
M  V30 9788 O 878.566 -5.20877 -3.01613 0
M  V30 9789 H 882.392 -2.98299 -0.570199 0
M  V30 9790 H 879.977 -1.47835 -0.215682 0
M  V30 9791 H 881.859 -2.93631 -3.02256 0
M  V30 9792 H 880.534 -1.78457 -2.70065 0
M  V30 9793 H 879.441 -3.54531 -1.19408 0
M  V30 9794 H 880.774 -4.65822 -1.58968 0
M  V30 9795 N 882.426 0.269451 -1.5528 0
M  V30 9796 C 883.373 1.33316 -1.88403 0
M  V30 9797 C 884.343 1.48909 -0.735881 0
M  V30 9798 O 885.528 1.63259 -0.987479 0
M  V30 9799 C 882.668 2.68778 -2.16454 0
M  V30 9800 C 881.781 2.61377 -3.43956 0
M  V30 9801 C 880.916 3.89042 -3.6169 0
M  V30 9802 C 879.955 3.76166 -4.82872 0
M  V30 9803 N 879.092 4.95673 -4.97245 0
M  V30 9804 H 883.932 1.04368 -2.79126 0
M  V30 9805 H 881.469 0.504147 -1.38191 0
M  V30 9806 H 883.427 3.47599 -2.30719 0
M  V30 9807 H 882.057 2.9592 -1.28961 0
M  V30 9808 H 881.109 1.74247 -3.38145 0
M  V30 9809 H 882.421 2.47764 -4.32914 0
M  V30 9810 H 881.575 4.76304 -3.75791 0
M  V30 9811 H 880.314 4.05526 -2.70924 0
M  V30 9812 H 879.319 2.87287 -4.68771 0
M  V30 9813 H 880.544 3.61198 -5.75077 0
M  V30 9814 H 878.49 5.12561 -4.09411 0
M  V30 9815 H 878.407 4.84605 -5.80254 0
M  V30 9816 H 879.675 5.84498 -5.15735 0
M  V30 9817 N 883.904 1.48273 0.534124 0
M  V30 9818 C 885.152 1.55771 1.28762 0
M  V30 9819 C 885.473 0.231575 1.9362 0
M  V30 9820 O 884.743 -0.746533 1.81118 0
M  V30 9821 H 883.323 0.573851 0.47823 0
M  V30 9822 H 885.985 1.84712 0.621888 0
M  V30 9823 H 885.081 2.33657 2.06908 0
M  V30 9824 N 885.382 -0.782676 1.36792 0
M  V30 9825 C 886.329 -1.89558 1.31667 0
M  V30 9826 C 887.299 -1.65076 0.184147 0
M  V30 9827 O 888.484 -1.87143 0.371753 0
M  V30 9828 C 885.624 -3.26469 1.11858 0
M  V30 9829 C 884.737 -3.62978 2.34245 0
M  V30 9830 C 883.872 -4.89041 2.07394 0
M  V30 9831 C 882.911 -5.18249 3.25706 0
M  V30 9832 N 882.048 -6.35497 2.98476 0
M  V30 9833 H 886.888 -1.93274 2.26824 0
M  V30 9834 H 884.425 -0.945057 1.12726 0
M  V30 9835 H 886.383 -4.05431 0.983968 0
M  V30 9836 H 885.013 -3.22158 0.203531 0
M  V30 9837 H 884.065 -2.79087 2.58485 0
M  V30 9838 H 885.377 -3.80507 3.22514 0
M  V30 9839 H 884.531 -5.75883 1.90901 0
M  V30 9840 H 883.27 -4.73594 1.16446 0
M  V30 9841 H 882.275 -4.29887 3.4275 0
M  V30 9842 H 883.5 -5.35611 4.1749 0
M  V30 9843 H 881.446 -6.21429 2.10146 0
M  V30 9844 H 881.363 -6.5339 3.80286 0
M  V30 9845 H 882.631 -7.25304 2.85577 0
M  V30 9846 N 886.86 -1.21182 -1.00761 0
M  V30 9847 C 887.792 -0.926523 -2.09638 0
M  V30 9848 C 888.805 0.0892511 -1.62555 0
M  V30 9849 O 889.994 -0.142915 -1.77927 0
M  V30 9850 C 887.094 -0.369175 -3.36883 0
M  V30 9851 C 886.267 -1.43866 -4.13063 0
M  V30 9852 C 885.326 -0.891015 -5.18601 0
M  V30 9853 O 884.352 -1.57384 -5.47009 0
M  V30 9854 N 885.554 0.295057 -5.7975 0
M  V30 9855 H 888.319 -1.8638 -2.34697 0
M  V30 9856 H 885.88 -1.11671 -1.17223 0
M  V30 9857 H 887.872 0.011534 -4.04698 0
M  V30 9858 H 886.442 0.472861 -3.09003 0
M  V30 9859 H 885.662 -1.99332 -3.40089 0
M  V30 9860 H 886.95 -2.15866 -4.60738 0
M  V30 9861 H 886.348 0.8669 -5.59018 0
M  V30 9862 H 884.905 0.617306 -6.4887 0
M  V30 9863 N 888.338 1.20213 -1.01915 0
M  V30 9864 C 889.587 1.88968 -0.705261 0
M  V30 9865 C 889.9 1.79869 0.768531 0
M  V30 9866 O 891.106 2.43783 1.19508 0
M  V30 9867 C 889.562 3.38911 -1.21109 0
M  V30 9868 C 889.17 3.5659 -2.71197 0
M  V30 9869 C 890.914 4.13204 -0.97275 0
M  V30 9870 C 888.821 5.00372 -3.15248 0
M  V30 9871 H 887.751 0.707715 -0.260107 0
M  V30 9872 H 890.402 1.35977 -1.23217 0
M  V30 9873 H 888.784 3.9124 -0.612152 0
M  V30 9874 H 889.958 3.14635 -3.36662 0
M  V30 9875 H 888.273 2.95671 -2.93202 0
M  V30 9876 H 890.87 5.19221 -1.27726 0
M  V30 9877 H 891.213 4.16201 0.09072 0
M  V30 9878 H 891.746 3.66983 -1.5352 0
M  V30 9879 H 888.485 5.02532 -4.20882 0
M  V30 9880 H 888.005 5.43127 -2.54505 0
M  V30 9881 H 889.684 5.68969 -3.08032 0
M  V30 9882 N 889.816 0.795718 1.36037 0
M  V30 9883 C 890.746 0.212803 2.32528 0
M  V30 9884 C 891.727 -0.655716 1.56953 0
M  V30 9885 O 892.912 -0.588238 1.85077 0
M  V30 9886 C 890.042 -0.648189 3.41198 0
M  V30 9887 C 888.996 0.120948 4.27829 0
M  V30 9888 C 888.322 -0.861044 5.27722 0
M  V30 9889 C 889.622 1.31375 5.05508 0
M  V30 9890 H 891.316 1.01893 2.81528 0
M  V30 9891 H 888.862 0.491422 1.35355 0
M  V30 9892 H 890.815 -1.06597 4.07695 0
M  V30 9893 H 889.539 -1.48709 2.9078 0
M  V30 9894 H 888.198 0.519777 3.62897 0
M  V30 9895 H 887.846 -1.69515 4.73575 0
M  V30 9896 H 887.546 -0.350808 5.86552 0
M  V30 9897 H 889.07 -1.27726 5.97092 0
M  V30 9898 H 890.484 0.971406 5.6501 0
M  V30 9899 H 888.881 1.75772 5.73781 0
M  V30 9900 H 889.951 2.10593 4.36782 0
M  V30 9901 N 891.294 -1.47756 0.548274 0
M  V30 9902 C 892.227 -2.26804 -0.252059 0
M  V30 9903 C 893.205 -1.3349 -0.928389 0
M  V30 9904 O 894.389 -1.6286 -0.949156 0
M  V30 9905 C 891.516 -3.10266 -1.35841 0
M  V30 9906 C 890.562 -4.1909 -0.791578 0
M  V30 9907 S 891.395 -5.34323 0.354878 0
M  V30 9908 C 892.551 -6.21348 -0.753511 0
M  V30 9909 H 892.784 -2.94336 0.418744 0
M  V30 9910 H 890.317 -1.50735 0.334413 0
M  V30 9911 H 892.275 -3.58925 -1.99207 0
M  V30 9912 H 890.936 -2.42112 -2.00101 0
M  V30 9913 H 890.129 -4.77183 -1.62212 0
M  V30 9914 H 889.731 -3.73266 -0.234274 0
M  V30 9915 H 892.023 -6.57156 -1.6478 0
M  V30 9916 H 892.966 -7.07788 -0.210141 0
M  V30 9917 H 893.374 -5.54797 -1.04216 0
M  V30 9918 N 892.772 -0.284283 -1.55015 0
M  V30 9919 C 893.719 0.599194 -2.22886 0
M  V30 9920 C 894.689 1.14264 -1.20553 0
M  V30 9921 O 895.874 1.19025 -1.49123 0
M  V30 9922 C 893.014 1.77317 -2.96062 0
M  V30 9923 C 892.127 1.26271 -4.13134 0
M  V30 9924 C 891.262 2.39922 -4.73931 0
M  V30 9925 C 890.301 1.85925 -5.8318 0
M  V30 9926 N 889.438 2.93084 -6.38002 0
M  V30 9927 H 894.278 0.0137816 -2.97997 0
M  V30 9928 H 891.815 -0.00496503 -1.47099 0
M  V30 9929 H 893.773 2.46339 -3.36709 0
M  V30 9930 H 892.403 2.33047 -2.23358 0
M  V30 9931 H 891.455 0.465296 -3.77544 0
M  V30 9932 H 892.767 0.827284 -4.91892 0
M  V30 9933 H 891.921 3.1692 -5.17346 0
M  V30 9934 H 890.66 2.86784 -3.9447 0
M  V30 9935 H 889.665 1.07409 -5.39206 0
M  V30 9936 H 890.89 1.39987 -6.64515 0
M  V30 9937 H 888.836 3.3931 -5.61431 0
M  V30 9938 H 888.753 2.53986 -7.12058 0
M  V30 9939 H 890.021 3.7003 -6.86075 0
M  V30 9940 N 894.251 1.57596 -0.0117121 0
M  V30 9941 C 895.528 1.82323 0.708356 0
M  V30 9942 C 895.908 0.891947 1.91331 0
M  V30 9943 O 895.256 -0.0565984 2.2843 0
M  V30 9944 C 895.466 3.31111 1.10303 0
M  V30 9945 C 896.814 3.97147 1.50199 0
M  V30 9946 O 897.838 3.35503 1.1965 0
M  V30 9947 O 896.697 5.0576 2.07049 0
M  V30 9948 H 893.791 0.751173 0.345931 0
M  V30 9949 H 896.337 1.69657 -0.0380632 0
M  V30 9950 H 895.109 3.90534 0.24467 0
M  V30 9951 H 894.732 3.48818 1.90818 0
M  V30 9952 N 895.729 -0.261212 1.5542 0
M  V30 9953 C 896.977 -0.989272 1.76232 0
M  V30 9954 C 897.298 -1.86389 0.573067 0
M  V30 9955 O 896.568 -1.91526 -0.41166 0
M  V30 9956 H 895.148 -0.368256 0.64992 0
M  V30 9957 H 897.81 -0.282603 1.9284 0
M  V30 9958 H 896.906 -1.61935 2.66802 0
M  V30 9959 N 897.207 -1.48554 -0.526253 0
M  V30 9960 C 898.137 -1.66252 -1.63959 0
M  V30 9961 C 899.118 -0.511351 -1.62232 0
M  V30 9962 O 900.303 -0.744322 -1.7937 0
M  V30 9963 C 897.433 -1.70556 -3.02536 0
M  V30 9964 C 896.387 -2.8521 -3.19123 0
M  V30 9965 C 895.713 -2.74606 -4.58798 0
M  V30 9966 C 897.013 -4.26463 -3.0154 0
M  V30 9967 H 898.707 -2.59459 -1.49404 0
M  V30 9968 H 896.253 -1.24862 -0.717326 0
M  V30 9969 H 898.206 -1.81524 -3.80298 0
M  V30 9970 H 896.93 -0.739297 -3.18123 0
M  V30 9971 H 895.589 -2.73802 -2.43779 0
M  V30 9972 H 895.237 -1.75941 -4.71226 0
M  V30 9973 H 894.937 -3.51544 -4.70841 0
M  V30 9974 H 896.461 -2.87548 -5.38655 0
M  V30 9975 H 897.875 -4.38685 -3.69091 0
M  V30 9976 H 896.272 -5.04428 -3.25073 0
M  V30 9977 H 897.342 -4.42667 -1.97925 0
M  V30 9978 N 898.685 0.775411 -1.37205 0
M  V30 9979 C 899.615 1.90258 -1.35367 0
M  V30 9980 C 900.596 1.68634 -0.222864 0
M  V30 9981 O 901.781 1.89545 -0.422659 0
M  V30 9982 C 898.911 3.27488 -1.15623 0
M  V30 9983 C 897.865 3.63668 -2.25676 0
M  V30 9984 C 897.191 4.994 -1.91059 0
M  V30 9985 C 898.491 3.70797 -3.67841 0
M  V30 9986 H 900.185 1.92053 -2.29687 0
M  V30 9987 H 897.731 0.922597 -1.10563 0
M  V30 9988 H 899.684 4.05976 -1.12968 0
M  V30 9989 H 898.408 3.26117 -0.177573 0
M  V30 9990 H 897.067 2.87486 -2.2748 0
M  V30 9991 H 896.715 4.94565 -0.917324 0
M  V30 9992 H 896.415 5.24576 -2.64751 0
M  V30 9993 H 897.939 5.80291 -1.89985 0
M  V30 9994 H 899.353 4.39444 -3.68187 0
M  V30 9995 H 897.75 4.07468 -4.40556 0
M  V30 9996 H 898.82 2.71549 -4.01732 0
M  V30 9997 N 900.163 1.21714 1.00117 0
M  V30 9998 C 901.44 0.945391 1.71236 0
M  V30 9999 C 901.82 -0.541772 2.0403 0
M  V30 10000 O 901.168 -1.50763 1.71705 0
M  V30 10001 C 901.378 1.83444 2.96899 0
M  V30 10002 C 902.726 2.08558 3.69849 0
M  V30 10003 O 903.75 1.80824 3.06889 0
M  V30 10004 O 902.609 2.55485 4.83104 0
M  V30 10005 H 899.703 0.354834 0.747009 0
M  V30 10006 H 902.249 1.32661 1.05825 0
M  V30 10007 H 901.021 2.84075 2.69105 0
M  V30 10008 H 900.644 1.45428 3.70049 0
M  V30 10009 N 901.641 -1.19671 1.02551 0
M  V30 10010 C 902.571 -2.25009 0.623965 0
M  V30 10011 C 903.552 -1.66129 -0.36538 0
M  V30 10012 O 904.737 -1.92599 -0.248842 0
M  V30 10013 C 901.867 -3.47287 -0.0294869 0
M  V30 10014 C 900.821 -4.18818 0.881781 0
M  V30 10015 C 900.147 -5.34618 0.0936189 0
M  V30 10016 C 901.447 -4.73986 2.19396 0
M  V30 10017 H 903.141 -2.58851 1.50454 0
M  V30 10018 H 900.687 -1.24425 0.724872 0
M  V30 10019 H 902.64 -4.20168 -0.322016 0
M  V30 10020 H 901.364 -3.12635 -0.944838 0
M  V30 10021 H 900.023 -3.47815 1.15845 0
M  V30 10022 H 899.671 -4.9621 -0.823661 0
M  V30 10023 H 899.371 -5.83409 0.700568 0
M  V30 10024 H 900.895 -6.10297 -0.192249 0
M  V30 10025 H 902.309 -5.38639 1.96319 0
M  V30 10026 H 900.706 -5.3325 2.75254 0
M  V30 10027 H 901.776 -3.92238 2.85092 0
M  V30 10028 N 903.119 -0.802921 -1.35613 0
M  V30 10029 C 904.067 -0.198783 -2.31749 0
M  V30 10030 C 905.061 0.649416 -1.56458 0
M  V30 10031 O 906.267 0.542989 -1.71615 0
M  V30 10032 H 902.642 -0.0455177 -0.750621 0
M  V30 10033 H 904.613 -1.02479 -2.80251 0
M  V30 10034 C 903.362 0.641066 -3.41739 0
M  V30 10035 H 902.685 -0.00226244 -3.998 0
M  V30 10036 H 904.125 1.03022 -4.11294 0
M  V30 10037 C 902.584 1.80505 -2.84464 0
M  V30 10038 O 903.114 2.90235 -2.77717 0
M  V30 10039 N 901.32 1.61542 -2.41563 0
M  V30 10040 H 900.867 0.722863 -2.4725 0
M  V30 10041 H 900.825 2.39581 -2.03589 0
M  V30 10042 N 904.597 1.47463 -0.556102 0
M  V30 10043 C 905.846 2.01678 -0.029492 0
M  V30 10044 C 906.159 1.436 1.32809 0
M  V30 10045 O 907.365 1.89472 1.94455 0
M  V30 10046 C 905.821 3.599 -0.00223937 0
M  V30 10047 C 905.429 4.26969 -1.35651 0
M  V30 10048 C 907.173 4.2187 0.471822 0
M  V30 10049 C 905.08 5.77194 -1.28843 0
M  V30 10050 H 904.01 0.753965 -0.00725504 0
M  V30 10051 H 906.661 1.69467 -0.703789 0
M  V30 10052 H 905.043 3.89068 0.737682 0
M  V30 10053 H 906.217 4.09444 -2.11406 0
M  V30 10054 H 904.532 3.76983 -1.76842 0
M  V30 10055 H 907.129 5.31955 0.541139 0
M  V30 10056 H 907.472 3.88968 1.48356 0
M  V30 10057 H 908.005 3.97228 -0.213207 0
M  V30 10058 H 904.744 6.14713 -2.27613 0
M  V30 10059 H 904.264 5.9706 -0.572668 0
M  V30 10060 H 905.943 6.3938 -0.990031 0
M  V30 10061 N 906.075 0.2925 1.54862 0
M  V30 10062 C 907.038 -0.574423 2.21885 0
M  V30 10063 C 908.038 -1.06791 1.20218 0
M  V30 10064 O 909.228 -0.9653 1.45009 0
M  V30 10065 C 906.36 -1.79438 2.89853 0
M  V30 10066 H 907.553 0.0110319 2.99898 0
M  V30 10067 H 905.106 0.043256 1.5624 0
M  V30 10068 H 905.841 -2.4199 2.15897 0
M  V30 10069 H 905.626 -1.44827 3.64373 0
M  V30 10070 H 907.116 -2.41048 3.41007 0
M  V30 10071 N 907.553 -1.57587 0.0200696 0
M  V30 10072 C 908.501 -2.10814 -0.982868 0
M  V30 10073 C 909.495 -1.03263 -1.34287 0
M  V30 10074 O 910.701 -1.21708 -1.32617 0
M  V30 10075 H 907.076 -0.673409 -0.334701 0
M  V30 10076 H 909.047 -2.94034 -0.50856 0
M  V30 10077 C 907.796 -2.64301 -2.25921 0
M  V30 10078 H 907.119 -3.46703 -1.99091 0
M  V30 10079 H 908.559 -3.052 -2.94328 0
M  V30 10080 C 907.018 -1.56628 -2.98277 0
M  V30 10081 O 907.548 -0.960825 -3.9004 0
M  V30 10082 N 905.754 -1.28889 -2.60453 0
M  V30 10083 H 905.301 -1.7831 -1.85912 0
M  V30 10084 H 905.259 -0.570697 -3.09177 0
M  V30 10085 N 909.032 0.252966 -1.55557 0
M  V30 10086 C 909.995 1.29645 -1.8901 0
M  V30 10087 C 910.995 1.41378 -0.766096 0
M  V30 10088 O 912.185 1.40183 -1.03414 0
M  V30 10089 C 909.317 2.67504 -2.11316 0
M  V30 10090 H 910.51 1.01202 -2.82309 0
M  V30 10091 H 908.063 0.491977 -1.48355 0
M  V30 10092 H 908.798 3.01095 -1.20466 0
M  V30 10093 H 908.583 2.6037 -2.93172 0
M  V30 10094 H 910.073 3.42861 -2.38403 0
M  V30 10095 N 910.51 1.48831 0.518367 0
M  V30 10096 C 911.758 1.57128 1.27103 0
M  V30 10097 C 912.079 0.252098 1.93364 0
M  V30 10098 O 911.349 -0.727281 1.819 0
M  V30 10099 H 909.929 0.578891 0.472116 0
M  V30 10100 H 912.591 1.85361 0.602262 0
M  V30 10101 H 911.687 2.35838 2.04418 0
M  V30 10102 N 911.988 -0.768124 1.37614 0
M  V30 10103 C 913.213 -1.56239 1.36397 0
M  V30 10104 C 913.638 -1.8804 -0.0475839 0
M  V30 10105 O 912.996 -1.495 -1.02564 0
M  V30 10106 C 913.044 -2.84716 2.21289 0
M  V30 10107 O 912.148 -3.79249 1.62001 0
M  V30 10108 H 911.489 -0.473119 0.465891 0
M  V30 10109 H 914.019 -0.950415 1.81186 0
M  V30 10110 H 914.029 -3.33784 2.34632 0
M  V30 10111 H 912.704 -2.60899 3.2389 0
M  V30 10112 H 911.281 -3.37904 1.57719 0
M  V30 10113 N 913.466 -1.22244 -0.994698 0
M  V30 10114 C 914.743 -0.954459 -1.70732 0
M  V30 10115 C 915.123 0.530945 -2.04314 0
M  V30 10116 O 914.471 1.49851 -1.72502 0
M  V30 10117 C 914.681 -1.85016 -2.95922 0
M  V30 10118 C 916.029 -2.10517 -3.68738 0
M  V30 10119 O 917.053 -1.82449 -3.05926 0
M  V30 10120 O 915.912 -2.58044 -4.81742 0
M  V30 10121 H 913.006 -0.35879 -0.745116 0
M  V30 10122 H 915.552 -1.33221 -1.0512 0
M  V30 10123 H 914.324 -2.85498 -2.67594 0
M  V30 10124 H 913.947 -1.47388 -3.69273 0
M  V30 10125 N 914.944 1.19125 -1.03184 0
M  V30 10126 C 916.355 1.70564 -0.759264 0
M  V30 10127 C 916.706 1.8248 0.720794 0
M  V30 10128 O 915.831 1.49804 1.56166 0
M  V30 10129 C 916.426 3.09793 -1.37163 0
M  V30 10130 C 914.985 3.5848 -1.14757 0
M  V30 10131 C 914.132 2.35265 -1.46784 0
M  V30 10132 H 917.083 1.03925 -1.19939 0
M  V30 10133 H 917.104 3.72624 -0.77015 0
M  V30 10134 H 916.616 3.01088 -2.44882 0
M  V30 10135 H 914.717 3.72494 -0.0887182 0
M  V30 10136 H 914.83 4.42426 -1.83836 0
M  V30 10137 H 913.194 2.38747 -0.887254 0
M  V30 10138 H 913.977 2.29188 -2.55593 0
M  V30 10139 N 916.422 0.810101 1.35185 0
M  V30 10140 C 917.369 0.220927 2.2974 0
M  V30 10141 C 918.339 -0.647024 1.5298 0
M  V30 10142 O 919.524 -0.591367 1.81404 0
M  V30 10143 C 916.664 -0.62167 3.39454 0
M  V30 10144 C 915.777 0.267104 4.31173 0
M  V30 10145 C 914.912 -0.583833 5.27982 0
M  V30 10146 C 913.951 0.305123 6.11339 0
M  V30 10147 N 913.088 -0.505992 7.00274 0
M  V30 10148 H 917.928 1.03266 2.79536 0
M  V30 10149 H 915.465 0.520768 1.37573 0
M  V30 10150 H 917.423 -1.12539 4.01735 0
M  V30 10151 H 916.053 -1.39863 2.90926 0
M  V30 10152 H 915.105 0.88895 3.69867 0
M  V30 10153 H 916.417 0.951182 4.89647 0
M  V30 10154 H 915.571 -1.15254 5.95652 0
M  V30 10155 H 914.31 -1.30146 4.70014 0
M  V30 10156 H 913.315 0.886075 5.42613 0
M  V30 10157 H 914.54 1.02067 6.71386 0
M  V30 10158 H 912.486 -1.20753 6.4479 0
M  V30 10159 H 912.403 0.119966 7.55905 0
M  V30 10160 H 913.671 -1.05787 7.72288 0
M  V30 10161 N 917.9 -1.47166 0.563914 0
M  V30 10162 C 919.177 -1.95586 -0.0236172 0
M  V30 10163 C 919.557 -1.50655 -1.47872 0
M  V30 10164 O 918.905 -0.748479 -2.15894 0
M  V30 10165 C 919.115 -3.48762 0.128841 0
M  V30 10166 C 920.463 -4.24598 -0.0130544 0
M  V30 10167 O 921.487 -3.56155 0.0567242 0
M  V30 10168 O 920.346 -5.46253 -0.164332 0
M  V30 10169 H 917.44 -0.824793 -0.0603789 0
M  V30 10170 H 919.986 -1.57536 0.63091 0
M  V30 10171 H 918.758 -3.74291 1.14113 0
M  V30 10172 H 918.381 -3.93594 -0.56299 0
M  V30 10173 N 919.378 -0.300708 -1.54705 0
M  V30 10174 C 920.308 0.568675 -2.26469 0
M  V30 10175 C 921.289 1.13817 -1.26411 0
M  V30 10176 O 922.474 1.16756 -1.55183 0
M  V30 10177 C 919.604 1.74077 -3.00524 0
M  V30 10178 C 918.558 1.30165 -4.07727 0
M  V30 10179 C 917.884 2.55888 -4.69495 0
M  V30 10180 C 919.184 0.433106 -5.20501 0
M  V30 10181 H 920.878 -0.0298851 -2.99385 0
M  V30 10182 H 918.424 -0.0158135 -1.43991 0
M  V30 10183 H 920.377 2.35506 -3.49449 0
M  V30 10184 H 919.101 2.36556 -2.25186 0
M  V30 10185 H 917.76 0.710414 -3.59651 0
M  V30 10186 H 917.408 3.16681 -3.90797 0
M  V30 10187 H 917.108 2.27207 -5.41895 0
M  V30 10188 H 918.632 3.18121 -5.21183 0
M  V30 10189 H 920.046 0.95307 -5.65322 0
M  V30 10190 H 918.443 0.240085 -5.9962 0
M  V30 10191 H 919.513 -0.541866 -4.81863 0
M  V30 10192 N 920.856 1.57574 -0.0284266 0
M  V30 10193 C 921.766 2.13637 0.96936 0
M  V30 10194 C 922.782 1.08845 1.35752 0
M  V30 10195 O 923.958 1.40899 1.43908 0
M  V30 10196 C 921.023 2.65179 2.2334 0
M  V30 10197 C 920.084 3.84683 1.90572 0
M  V30 10198 C 919.317 4.33758 3.1095 0
M  V30 10199 O 919.54 3.82009 4.23586 0
M  V30 10200 O 918.474 5.2561 2.93288 0
M  V30 10201 H 922.3 2.99169 0.52267 0
M  V30 10202 H 919.885 1.48159 0.192135 0
M  V30 10203 H 921.767 2.98402 2.97547 0
M  V30 10204 H 920.442 1.82731 2.67191 0
M  V30 10205 H 919.349 3.56386 1.13753 0
M  V30 10206 H 920.682 4.68292 1.51538 0
M  V30 10207 N 922.334 -0.244713 1.55689 0
M  V30 10208 C 923.244 -1.32447 1.93636 0
M  V30 10209 C 924.26 -1.52541 0.837086 0
M  V30 10210 O 925.436 -1.66121 1.13867 0
M  V30 10211 C 922.501 -2.65864 2.22525 0
M  V30 10212 C 921.562 -2.54273 3.45896 0
M  V30 10213 C 920.795 -3.81327 3.73397 0
M  V30 10214 O 921.018 -4.83307 3.02936 0
M  V30 10215 O 919.952 -3.79829 4.66919 0
M  V30 10216 H 923.778 -1.03255 2.85608 0
M  V30 10217 H 921.363 -0.445652 1.42598 0
M  V30 10218 H 923.245 -3.447 2.42404 0
M  V30 10219 H 921.92 -2.94784 1.33731 0
M  V30 10220 H 920.827 -1.73715 3.31321 0
M  V30 10221 H 922.16 -2.30297 4.34999 0
M  V30 10222 N 923.813 -1.49104 -0.510467 0
M  V30 10223 C 924.76 -1.65074 -1.61305 0
M  V30 10224 C 925.73 -0.492362 -1.58635 0
M  V30 10225 O 926.915 -0.718241 -1.76765 0
M  V30 10226 C 924.055 -1.71457 -2.99493 0
M  V30 10227 C 923.168 -2.98536 -3.12251 0
M  V30 10228 C 922.303 -2.95957 -4.41116 0
M  V30 10229 C 921.342 -4.17655 -4.47471 0
M  V30 10230 N 920.479 -4.13041 -5.67751 0
M  V30 10231 H 925.319 -2.59222 -1.46996 0
M  V30 10232 H 922.856 -1.28535 -0.715346 0
M  V30 10233 H 924.814 -1.7314 -3.79577 0
M  V30 10234 H 923.444 -0.807834 -3.12528 0
M  V30 10235 H 922.496 -3.06509 -2.25292 0
M  V30 10236 H 923.808 -3.88527 -3.12807 0
M  V30 10237 H 922.962 -2.96149 -5.2951 0
M  V30 10238 H 921.701 -2.03728 -4.4311 0
M  V30 10239 H 920.706 -4.17717 -3.57481 0
M  V30 10240 H 921.931 -5.11066 -4.472 0
M  V30 10241 H 919.877 -3.23643 -5.70606 0
M  V30 10242 H 919.794 -4.96757 -5.69884 0
M  V30 10243 H 921.062 -4.17322 -6.58379 0
M  V30 10244 N 925.291 0.760815 -1.38019 0
M  V30 10245 C 926.537 1.52198 -1.34028 0
M  V30 10246 C 926.87 1.94067 0.0718309 0
M  V30 10247 O 926.145 1.64895 1.0315 0
M  V30 10248 C 926.428 2.77954 -2.2894 0
M  V30 10249 C 926.281 2.42269 -3.7898 0
M  V30 10250 C 927.6 3.79943 -2.22107 0
M  V30 10251 H 924.719 0.552131 -0.488181 0
M  V30 10252 H 927.361 0.871971 -1.6881 0
M  V30 10253 H 925.511 3.33419 -1.9941 0
M  V30 10254 H 927.183 1.92635 -4.19153 0
M  V30 10255 H 925.426 1.74822 -3.97014 0
M  V30 10256 H 926.097 3.32211 -4.4084 0
M  V30 10257 H 928.573 3.34 -2.4816 0
M  V30 10258 H 927.449 4.6564 -2.90639 0
M  V30 10259 H 927.71 4.25004 -1.21753 0
M  V30 10260 N 926.769 1.22769 0.988202 0
M  V30 10261 C 927.997 1.08155 1.76381 0
M  V30 10262 C 928.412 -0.367573 1.85187 0
M  V30 10263 O 927.769 -1.25455 1.32541 0
M  V30 10264 C 927.82 1.69193 3.19462 0
M  V30 10265 O 927.541 3.08437 3.11125 0
M  V30 10266 C 929.042 1.59915 4.13451 0
M  V30 10267 H 926.262 0.378908 0.553778 0
M  V30 10268 H 928.806 1.6246 1.24206 0
M  V30 10269 H 926.961 1.18939 3.6869 0
M  V30 10270 H 927.375 3.37916 4.0114 0
M  V30 10271 H 928.849 2.07339 5.1158 0
M  V30 10272 H 929.326 0.556546 4.3566 0
M  V30 10273 H 929.932 2.09497 3.70123 0
M  V30 10274 N 928.247 -1.18576 1.03814 0
M  V30 10275 C 929.663 -1.4051 0.756909 0
M  V30 10276 C 929.863 -1.9057 -0.654631 0
M  V30 10277 O 928.919 -2.0884 -1.41922 0
M  V30 10278 C 930.232 -2.4081 1.80087 0
M  V30 10279 C 931.78 -2.54541 1.82148 0
M  V30 10280 C 932.255 -3.58102 2.85529 0
M  V30 10281 N 933.746 -3.65607 2.84404 0
M  V30 10282 C 934.481 -4.45458 3.61047 0
M  V30 10283 N 933.977 -5.28937 4.47434 0
M  V30 10284 N 935.77 -4.40196 3.49548 0
M  V30 10285 H 927.921 -0.844075 1.94908 0
M  V30 10286 H 930.184 -0.433287 0.843188 0
M  V30 10287 H 929.89 -2.1107 2.81322 0
M  V30 10288 H 929.764 -3.4012 1.63089 0
M  V30 10289 H 932.151 -2.83598 0.815855 0
M  V30 10290 H 932.232 -1.55352 2.03223 0
M  V30 10291 H 931.876 -3.29786 3.86269 0
M  V30 10292 H 931.806 -4.56963 2.6171 0
M  V30 10293 H 934.297 -3.05994 2.21756 0
M  V30 10294 H 934.61 -5.8701 5.02632 0
M  V30 10295 H 932.955 -5.28366 4.51503 0
M  V30 10296 H 936.146 -3.74026 2.81464 0
M  V30 10297 H 936.319 -5.02186 4.09528 0
M  V30 10298 N 929.725 -0.817259 -1.34754 0
M  V30 10299 C 930.658 -0.180483 -2.27485 0
M  V30 10300 C 931.636 0.659792 -1.48612 0
M  V30 10301 O 932.82 0.624761 -1.77845 0
M  V30 10302 C 929.947 0.748487 -3.30326 0
M  V30 10303 C 928.993 -0.0135304 -4.26498 0
M  V30 10304 S 929.826 -1.35685 -5.18025 0
M  V30 10305 C 930.982 -0.432605 -6.24403 0
M  V30 10306 H 931.215 -0.966677 -2.81145 0
M  V30 10307 H 928.748 -0.612864 -1.41716 0
M  V30 10308 H 930.706 1.27893 -3.90069 0
M  V30 10309 H 929.367 1.50816 -2.75524 0
M  V30 10310 H 928.56 0.692454 -4.9922 0
M  V30 10311 H 928.162 -0.474344 -3.7098 0
M  V30 10312 H 930.454 0.378035 -6.76444 0
M  V30 10313 H 931.397 -1.12934 -6.99036 0
M  V30 10314 H 931.805 -0.0235533 -5.64495 0
M  V30 10315 N 931.203 1.46865 -0.571711 0
M  V30 10316 C 932.113 2.33979 0.170571 0
M  V30 10317 C 933.129 1.49083 0.897239 0
M  V30 10318 O 934.305 1.81979 0.862888 0
M  V30 10319 C 931.37 3.26063 1.17831 0
M  V30 10320 C 930.431 4.26855 0.457499 0
M  V30 10321 C 929.664 5.14539 1.41722 0
M  V30 10322 O 929.887 5.04945 2.65305 0
M  V30 10323 O 928.821 5.94612 0.9338 0
M  V30 10324 H 932.647 2.98781 -0.544396 0
M  V30 10325 H 930.232 1.4566 -0.332198 0
M  V30 10326 H 932.114 3.82903 1.75965 0
M  V30 10327 H 930.789 2.63871 1.87493 0
M  V30 10328 H 929.696 3.73734 -0.165406 0
M  V30 10329 H 931.029 4.91802 -0.197953 0
M  V30 10330 N 932.681 0.308908 1.54543 0
M  V30 10331 C 933.929 -0.297447 1.99899 0
M  V30 10332 C 934.25 -1.53799 1.19878 0
M  V30 10333 O 933.52 -1.93639 0.29678 0
M  V30 10334 H 932.1 -0.112897 0.738419 0
M  V30 10335 H 934.762 0.422067 1.90275 0
M  V30 10336 H 933.858 -0.564016 3.06961 0
M  V30 10337 N 934.159 -1.57557 0.0367827 0
M  V30 10338 C 935.384 -1.96828 -0.653707 0
M  V30 10339 C 935.809 -0.913559 -1.64425 0
M  V30 10340 O 935.167 0.124749 -1.8087 0
M  V30 10341 C 935.215 -3.35189 -1.32969 0
M  V30 10342 O 934.319 -3.32095 -2.44513 0
M  V30 10343 H 933.66 -0.64157 -0.171124 0
M  V30 10344 H 936.19 -2.04351 0.100912 0
M  V30 10345 H 936.2 -3.71593 -1.68472 0
M  V30 10346 H 934.875 -4.11496 -0.603654 0
M  V30 10347 H 933.452 -3.07418 -2.11065 0
M  V30 10348 N 935.637 0.236453 -1.55816 0
M  V30 10349 C 936.883 0.964439 -1.784 0
M  V30 10350 C 937.216 1.84573 -0.603868 0
M  V30 10351 O 936.491 1.90395 0.397473 0
M  V30 10352 C 936.774 1.81608 -3.10951 0
M  V30 10353 C 936.627 0.962283 -4.39386 0
M  V30 10354 C 937.946 2.79665 -3.39817 0
M  V30 10355 H 935.065 0.349192 -0.649026 0
M  V30 10356 H 937.707 0.234247 -1.8855 0
M  V30 10357 H 935.857 2.43864 -3.02428 0
M  V30 10358 H 937.529 0.35762 -4.59912 0
M  V30 10359 H 935.772 0.267062 -4.32977 0
M  V30 10360 H 936.443 1.59222 -5.28538 0
M  V30 10361 H 938.919 2.27546 -3.4837 0
M  V30 10362 H 937.795 3.36367 -4.33761 0
M  V30 10363 H 938.056 3.56657 -2.61244 0
M  V30 10364 N 937.115 1.49373 0.502552 0
M  V30 10365 C 938.392 1.49282 1.26389 0
M  V30 10366 C 938.772 0.219674 2.09954 0
M  V30 10367 O 938.12 -0.797991 2.14113 0
M  V30 10368 C 938.33 2.77083 2.12194 0
M  V30 10369 C 939.678 3.26511 2.71433 0
M  V30 10370 O 940.702 2.78189 2.22462 0
M  V30 10371 O 939.561 4.10665 3.60578 0
M  V30 10372 H 936.655 0.597415 0.57186 0
M  V30 10373 H 939.201 1.61634 0.516951 0
M  V30 10374 H 937.973 3.61237 1.50411 0
M  V30 10375 H 937.596 2.67583 2.94084 0
M  V30 10376 N 938.594 -0.753485 1.38421 0
M  V30 10377 C 939.524 -1.8808 1.38377 0
M  V30 10378 C 940.505 -1.68258 0.249664 0
M  V30 10379 O 941.69 -1.88848 0.45276 0
M  V30 10380 C 938.82 -3.25608 1.20818 0
M  V30 10381 C 937.774 -3.60032 2.31433 0
M  V30 10382 C 937.1 -4.96297 1.9898 0
M  V30 10383 C 938.4 -3.64898 3.73694 0
M  V30 10384 H 940.094 -1.88375 2.32713 0
M  V30 10385 H 937.64 -0.90489 1.12017 0
M  V30 10386 H 939.593 -4.04127 1.19412 0
M  V30 10387 H 938.317 -3.25793 0.229433 0
M  V30 10388 H 936.976 -2.83831 2.32025 0
M  V30 10389 H 936.624 -4.93043 0.995889 0
M  V30 10390 H 936.324 -5.20298 2.73063 0
M  V30 10391 H 937.848 -5.77196 1.99193 0
M  V30 10392 H 939.262 -4.33531 3.75132 0
M  V30 10393 H 937.659 -4.00407 4.46983 0
M  V30 10394 H 938.729 -2.65124 4.06002 0
M  V30 10395 N 940.072 -1.23292 -0.981677 0
M  V30 10396 C 941.002 -1.03738 -2.09191 0
M  V30 10397 C 941.983 0.0453041 -1.7004 0
M  V30 10398 O 943.168 -0.119092 -1.93834 0
M  V30 10399 C 940.298 -0.626426 -3.41604 0
M  V30 10400 C 939.252 -1.65631 -3.94652 0
M  V30 10401 C 938.578 -1.10084 -5.23245 0
M  V30 10402 C 939.878 -3.04903 -4.24066 0
M  V30 10403 H 941.572 -1.966 -2.25807 0
M  V30 10404 H 939.118 -0.946656 -1.0851 0
M  V30 10405 H 941.071 -0.476689 -4.18695 0
M  V30 10406 H 939.795 0.337873 -3.24848 0
M  V30 10407 H 938.454 -1.79402 -3.19704 0
M  V30 10408 H 938.102 -0.127562 -5.02838 0
M  V30 10409 H 937.802 -1.78896 -5.59705 0
M  V30 10410 H 939.326 -0.962928 -6.02959 0
M  V30 10411 H 940.74 -2.94441 -4.91912 0
M  V30 10412 H 939.137 -3.70941 -4.71724 0
M  V30 10413 H 940.207 -3.53991 -3.31389 0
M  V30 10414 N 941.55 1.18024 -1.04442 0
M  V30 10415 C 942.482 2.21294 -0.596799 0
M  V30 10416 C 943.495 1.59305 0.33552 0
M  V30 10417 O 944.684 1.7803 0.129443 0
M  V30 10418 C 941.784 3.38578 0.147648 0
M  V30 10419 C 940.957 4.30143 -0.793484 0
M  V30 10420 C 940.016 5.2612 -0.0916561 0
M  V30 10421 O 939.042 5.64586 -0.72331 0
M  V30 10422 N 940.244 5.68512 1.17364 0
M  V30 10423 H 943.009 2.6032 -1.48504 0
M  V30 10424 H 940.57 1.32847 -0.925374 0
M  V30 10425 H 942.562 3.99812 0.627098 0
M  V30 10426 H 941.132 2.98212 0.937466 0
M  V30 10427 H 940.352 3.66456 -1.45272 0
M  V30 10428 H 941.64 4.88216 -1.43258 0
M  V30 10429 H 941.038 5.39322 1.70729 0
M  V30 10430 H 939.595 6.31925 1.5973 0
M  V30 10431 N 943.028 0.824394 1.34319 0
M  V30 10432 C 944.256 0.426194 2.02463 0
M  V30 10433 C 944.671 -0.968298 1.62078 0
M  V30 10434 O 944.028 -1.62689 0.82696 0
M  V30 10435 C 944.079 0.520465 3.57734 0
M  V30 10436 O 943.8 1.86 3.96656 0
M  V30 10437 C 945.301 0.117353 4.43145 0
M  V30 10438 H 942.521 0.170864 0.648881 0
M  V30 10439 H 945.065 1.11296 1.71562 0
M  V30 10440 H 943.22 -0.118233 3.8722 0
M  V30 10441 H 943.634 1.83528 4.91343 0
M  V30 10442 H 945.108 0.234395 5.51502 0
M  V30 10443 H 945.585 -0.939271 4.29039 0
M  V30 10444 H 946.191 0.729908 4.1899 0
M  V30 10445 N 944.506 -1.46559 0.579492 0
M  V30 10446 C 945.922 -1.57771 0.240921 0
M  V30 10447 C 946.122 -1.57505 -1.25676 0
M  V30 10448 O 945.178 -1.4903 -2.03829 0
M  V30 10449 C 946.491 -2.87311 0.887285 0
M  V30 10450 C 948.039 -3.00937 0.860576 0
M  V30 10451 C 948.514 -4.33208 1.48642 0
M  V30 10452 N 950.005 -4.39899 1.45062 0
M  V30 10453 C 950.74 -5.40856 1.90428 0
M  V30 10454 N 950.236 -6.48503 2.43752 0
M  V30 10455 N 952.029 -5.32037 1.81364 0
M  V30 10456 H 944.18 -1.44976 1.55228 0
M  V30 10457 H 946.443 -0.691354 0.648639 0
M  V30 10458 H 946.149 -2.93307 1.94071 0
M  V30 10459 H 946.023 -3.75141 0.393577 0
M  V30 10460 H 948.41 -2.94524 -0.184223 0
M  V30 10461 H 948.491 -2.14591 1.39227 0
M  V30 10462 H 948.135 -4.40378 2.5304 0
M  V30 10463 H 948.065 -5.18323 0.92998 0
M  V30 10464 H 950.556 -3.62706 1.0608 0
M  V30 10465 H 950.869 -7.21744 2.76234 0
M  V30 10466 H 949.214 -6.49332 2.47776 0
M  V30 10467 H 952.405 -4.46841 1.39465 0
M  V30 10468 H 952.578 -6.10573 2.17035 0
M  V30 10469 N 945.984 -0.3171 -1.54377 0
M  V30 10470 C 947.231 0.28741 -2.0045 0
M  V30 10471 C 947.559 1.52648 -1.20535 0
M  V30 10472 O 946.814 1.93775 -0.273831 0
M  V30 10473 C 947.113 0.672917 -3.51008 0
M  V30 10474 C 946.779 -0.466245 -4.48483 0
M  V30 10475 C 945.441 -0.778933 -4.74854 0
M  V30 10476 C 947.793 -1.23176 -5.06436 0
M  V30 10477 C 945.121 -1.85997 -5.56437 0
M  V30 10478 C 947.473 -2.30284 -5.89196 0
M  V30 10479 C 946.137 -2.62141 -6.13872 0
M  V30 10480 H 945.407 0.105171 -0.733499 0
M  V30 10481 H 948.054 -0.439538 -1.86388 0
M  V30 10482 H 946.359 1.48019 -3.62764 0
M  V30 10483 H 948.056 1.15209 -3.84094 0
M  V30 10484 H 944.646 -0.212449 -4.28073 0
M  V30 10485 H 948.83 -1.00344 -4.8605 0
M  V30 10486 H 944.086 -2.11134 -5.73788 0
M  V30 10487 H 948.26 -2.90048 -6.33123 0
M  V30 10488 H 945.887 -3.46037 -6.76877 0
M  V30 10489 N 947.462 1.57535 -0.0451378 0
M  V30 10490 C 948.425 2.1008 0.916461 0
M  V30 10491 C 949.425 1.01913 1.2438 0
M  V30 10492 O 950.615 1.2801 1.18148 0
M  V30 10493 C 947.747 2.58001 2.22818 0
M  V30 10494 H 948.94 2.96334 0.461076 0
M  V30 10495 H 946.493 1.54974 0.203169 0
M  V30 10496 H 947.228 1.75123 2.72951 0
M  V30 10497 H 947.013 3.3704 2.00366 0
M  V30 10498 H 948.503 2.98822 2.9171 0
M  V30 10499 N 948.94 -0.228186 1.55939 0
M  V30 10500 C 950.356 -0.577583 1.48782 0
M  V30 10501 C 950.556 -1.87461 0.738972 0
M  V30 10502 O 949.612 -2.50988 0.275929 0
M  V30 10503 C 950.925 -0.662961 2.93301 0
M  V30 10504 C 952.473 -0.754035 3.03782 0
M  V30 10505 C 952.948 -0.870815 4.49645 0
M  V30 10506 N 954.439 -0.935208 4.53661 0
M  V30 10507 C 955.174 -1.04516 5.63794 0
M  V30 10508 N 954.67 -1.11948 6.83696 0
M  V30 10509 N 956.463 -1.07978 5.51631 0
M  V30 10510 H 948.614 0.623018 2.03057 0
M  V30 10511 H 950.877 0.217692 0.922667 0
M  V30 10512 H 950.583 0.220375 3.51009 0
M  V30 10513 H 950.457 -1.52876 3.44831 0
M  V30 10514 H 952.844 -1.62782 2.46143 0
M  V30 10515 H 952.925 0.137301 2.55431 0
M  V30 10516 H 952.569 -0.0015186 5.079 0
M  V30 10517 H 952.499 -1.77747 4.95695 0
M  V30 10518 H 954.99 -0.88836 3.6731 0
M  V30 10519 H 955.303 -1.20297 7.6338 0
M  V30 10520 H 953.648 -1.08873 6.8642 0
M  V30 10521 H 956.839 -1.01833 4.56889 0
M  V30 10522 H 957.012 -1.16202 6.37496 0
M  V30 10523 N 950.418 -1.49637 -0.494624 0
M  V30 10524 C 951.667 -1.58691 -1.24499 0
M  V30 10525 C 951.98 -0.281763 -1.9356 0
M  V30 10526 O 953.186 -0.250925 -2.70338 0
M  V30 10527 C 951.642 -2.8002 -2.26091 0
M  V30 10528 C 951.25 -4.17318 -1.6294 0
M  V30 10529 C 952.994 -2.98407 -3.01916 0
M  V30 10530 C 950.901 -5.29862 -2.62679 0
M  V30 10531 H 949.831 -0.590888 -0.468367 0
M  V30 10532 H 952.482 -1.76034 -0.518112 0
M  V30 10533 H 950.864 -2.56185 -3.01969 0
M  V30 10534 H 952.038 -4.51315 -0.930108 0
M  V30 10535 H 950.353 -4.04342 -0.994819 0
M  V30 10536 H 952.95 -3.79658 -3.76516 0
M  V30 10537 H 953.293 -2.09214 -3.5991 0
M  V30 10538 H 953.826 -3.22312 -2.33152 0
M  V30 10539 H 950.565 -6.21134 -2.09458 0
M  V30 10540 H 950.085 -5.00311 -3.3083 0
M  V30 10541 H 951.764 -5.59461 -3.2498 0
M  V30 10542 N 951.896 0.746133 -1.38819 0
M  V30 10543 C 952.826 1.87344 -1.39372 0
M  V30 10544 C 953.807 1.68123 -0.258583 0
M  V30 10545 O 954.992 1.88606 -0.462769 0
M  V30 10546 C 952.122 3.24962 -1.22543 0
M  V30 10547 C 951.076 3.58799 -2.33339 0
M  V30 10548 C 950.402 4.95235 -2.01609 0
M  V30 10549 C 951.702 3.62911 -3.75624 0
M  V30 10550 H 953.396 1.87138 -2.33709 0
M  V30 10551 H 950.942 0.898937 -1.12495 0
M  V30 10552 H 952.895 4.03488 -1.21554 0
M  V30 10553 H 951.619 3.25667 -0.246707 0
M  V30 10554 H 950.278 2.82596 -2.33527 0
M  V30 10555 H 949.926 4.92508 -1.02202 0
M  V30 10556 H 949.626 5.18843 -2.75819 0
M  V30 10557 H 951.15 5.76131 -2.02251 0
M  V30 10558 H 952.564 4.31535 -3.77426 0
M  V30 10559 H 950.961 3.98031 -4.491 0
M  V30 10560 H 952.031 2.62967 -4.07402 0
M  V30 10561 N 953.375 1.23811 0.975125 0
M  V30 10562 C 954.338 1.02505 2.05001 0
M  V30 10563 C 955.338 -0.0150084 1.60793 0
M  V30 10564 O 956.528 0.225246 1.72738 0
M  V30 10565 C 953.66 0.552087 3.364 0
M  V30 10566 H 954.853 1.979 2.25335 0
M  V30 10567 H 952.406 1.05929 1.1493 0
M  V30 10568 H 953.141 -0.405394 3.21756 0
M  V30 10569 H 952.926 1.30267 3.69828 0
M  V30 10570 H 954.416 0.423828 4.15444 0
M  V30 10571 N 954.853 -1.17469 1.05066 0
M  V30 10572 C 955.763 -2.25089 0.661222 0
M  V30 10573 C 956.779 -1.71086 -0.31712 0
M  V30 10574 O 957.955 -2.00685 -0.169534 0
M  V30 10575 C 955.02 -3.46676 0.0406415 0
M  V30 10576 C 954.081 -4.15771 1.06927 0
M  V30 10577 C 953.314 -5.31553 0.478208 0
M  V30 10578 O 953.537 -5.6593 -0.712714 0
M  V30 10579 O 952.471 -5.89574 1.21185 0
M  V30 10580 H 956.297 -2.60685 1.5581 0
M  V30 10581 H 953.882 -1.24744 0.822147 0
M  V30 10582 H 955.764 -4.203 -0.304312 0
M  V30 10583 H 954.439 -3.1288 -0.829909 0
M  V30 10584 H 953.346 -3.44171 1.46619 0
M  V30 10585 H 954.679 -4.53591 1.91092 0
M  V30 10586 N 956.331 -0.831506 -1.3388 0
M  V30 10587 C 957.561 -0.436292 -2.01941 0
M  V30 10588 C 957.969 0.964979 -1.62741 0
M  V30 10589 O 957.312 1.63733 -0.832894 0
M  V30 10590 C 957.374 -0.468811 -3.5643 0
M  V30 10591 C 957.038 -1.82491 -4.18982 0
M  V30 10592 C 958.035 -2.78705 -4.38885 0
M  V30 10593 C 955.72 -2.11574 -4.55568 0
M  V30 10594 C 957.714 -4.02168 -4.94509 0
M  V30 10595 C 955.401 -3.35296 -5.10901 0
M  V30 10596 C 956.399 -4.3041 -5.30317 0
M  V30 10597 O 956.087 -5.51944 -5.84477 0
M  V30 10598 H 955.819 -0.172335 -0.653664 0
M  V30 10599 H 958.373 -1.12354 -1.71947 0
M  V30 10600 H 956.603 0.275179 -3.8572 0
M  V30 10601 H 958.292 -0.0924518 -4.05795 0
M  V30 10602 H 959.058 -2.57534 -4.10976 0
M  V30 10603 H 954.937 -1.38338 -4.39754 0
M  V30 10604 H 958.481 -4.76418 -5.09579 0
M  V30 10605 H 954.378 -3.56326 -5.3824 0
M  V30 10606 H 955.146 -5.53582 -6.029 0
M  V30 10607 N 957.809 1.4625 -0.587256 0
M  V30 10608 C 958.719 2.34147 0.145744 0
M  V30 10609 C 959.735 1.50026 0.881376 0
M  V30 10610 O 960.911 1.82884 0.843539 0
M  V30 10611 C 957.976 3.27294 1.14366 0
M  V30 10612 C 957.037 4.27317 0.412199 0
M  V30 10613 C 956.27 5.16013 1.36257 0
M  V30 10614 O 956.493 5.0773 2.59934 0
M  V30 10615 O 955.427 5.95569 0.870681 0
M  V30 10616 H 959.253 2.98187 -0.576055 0
M  V30 10617 H 956.838 1.45299 -0.347628 0
M  V30 10618 H 958.72 3.84747 1.71894 0
M  V30 10619 H 957.395 2.65845 1.84684 0
M  V30 10620 H 956.302 3.73538 -0.205036 0
M  V30 10621 H 957.635 4.91564 -0.250104 0
M  V30 10622 N 959.287 0.325282 1.54207 0
M  V30 10623 C 960.512 -0.281418 2.05482 0
M  V30 10624 C 960.937 -1.44869 1.19977 0
M  V30 10625 O 960.295 -1.80088 0.209275 0
M  V30 10626 C 960.343 -0.692029 3.53897 0
M  V30 10627 O 959.447 -1.7942 3.71325 0
M  V30 10628 H 958.788 -0.0504872 0.662078 0
M  V30 10629 H 961.318 0.474191 1.99029 0
M  V30 10630 H 961.328 -0.974219 3.96198 0
M  V30 10631 H 960.003 0.161709 4.15586 0
M  V30 10632 H 958.58 -1.51069 3.40929 0
M  V30 10633 N 960.765 -1.57509 0.0534917 0
M  V30 10634 C 961.698 -2.0723 -0.955554 0
M  V30 10635 C 962.676 -0.973313 -1.30251 0
M  V30 10636 O 963.86 -1.24541 -1.41498 0
M  V30 10637 C 960.987 -2.51473 -2.2689 0
M  V30 10638 C 960.033 -3.7263 -2.07482 0
M  V30 10639 S 960.866 -5.18177 -1.35104 0
M  V30 10640 C 962.022 -5.65736 -2.67757 0
M  V30 10641 H 962.255 -2.92494 -0.532407 0
M  V30 10642 H 959.788 -1.53581 -0.158831 0
M  V30 10643 H 961.746 -2.77626 -3.02381 0
M  V30 10644 H 960.407 -1.66511 -2.66332 0
M  V30 10645 H 959.6 -4.01515 -3.04633 0
M  V30 10646 H 959.202 -3.46756 -1.4013 0
M  V30 10647 H 961.494 -5.71463 -3.63918 0
M  V30 10648 H 962.437 -6.64914 -2.43506 0
M  V30 10649 H 962.845 -4.93475 -2.74123 0
M  V30 10650 N 962.243 0.219913 -1.56058 0
M  V30 10651 C 963.175 1.29604 -1.89038 0
M  V30 10652 C 964.188 1.42964 -0.778791 0
M  V30 10653 O 965.377 1.43832 -1.0571 0
M  V30 10654 C 962.477 2.67145 -2.08534 0
M  V30 10655 C 961.65 2.75712 -3.39561 0
M  V30 10656 C 960.709 3.94279 -3.48469 0
M  V30 10657 O 959.735 3.8254 -4.21487 0
M  V30 10658 N 960.937 5.08655 -2.79732 0
M  V30 10659 H 963.702 1.01638 -2.81939 0
M  V30 10660 H 961.263 0.409945 -1.56624 0
M  V30 10661 H 963.255 3.44847 -2.11808 0
M  V30 10662 H 961.825 2.87704 -1.2225 0
M  V30 10663 H 961.045 1.84475 -3.48371 0
M  V30 10664 H 962.333 2.78407 -4.25872 0
M  V30 10665 H 961.731 5.21088 -2.2019 0
M  V30 10666 H 960.288 5.84394 -2.88665 0
M  V30 10667 N 963.721 1.49897 0.486681 0
M  V30 10668 C 964.653 1.63755 1.60365 0
M  V30 10669 C 965.666 0.519614 1.54285 0
M  V30 10670 O 966.855 0.792219 1.59957 0
M  V30 10671 C 963.955 1.59153 2.99205 0
M  V30 10672 C 963.128 2.8672 3.30319 0
M  V30 10673 C 962.187 2.74974 4.48638 0
M  V30 10674 O 961.213 3.48922 4.49714 0
M  V30 10675 N 962.415 1.87479 5.49392 0
M  V30 10676 H 965.18 2.60094 1.48899 0
M  V30 10677 H 962.741 1.47166 0.674825 0
M  V30 10678 H 964.733 1.4893 3.76301 0
M  V30 10679 H 963.303 0.706133 3.0452 0
M  V30 10680 H 962.523 3.11188 2.41983 0
M  V30 10681 H 963.811 3.71262 3.47911 0
M  V30 10682 H 963.209 1.26684 5.51333 0
M  V30 10683 H 961.766 1.83169 6.25534 0
M  V30 10684 N 965.199 -0.738761 1.39212 0
M  V30 10685 C 966.146 -1.85273 1.37631 0
M  V30 10686 C 967.116 -1.64407 0.236572 0
M  V30 10687 O 968.301 -1.85866 0.431104 0
M  V30 10688 C 965.441 -3.22745 1.22188 0
M  V30 10689 C 964.554 -3.55342 2.45674 0
M  V30 10690 C 963.689 -4.82195 2.22847 0
M  V30 10691 C 962.728 -5.07625 3.42029 0
M  V30 10692 N 961.865 -6.25679 3.18543 0
M  V30 10693 H 966.705 -1.85959 2.32859 0
M  V30 10694 H 964.242 -0.908716 1.15675 0
M  V30 10695 H 966.2 -4.02095 1.11245 0
M  V30 10696 H 964.83 -3.21347 0.30592 0
M  V30 10697 H 963.882 -2.70722 2.67233 0
M  V30 10698 H 965.194 -3.70054 3.34457 0
M  V30 10699 H 964.348 -5.69518 2.09126 0
M  V30 10700 H 963.087 -4.6965 1.31454 0
M  V30 10701 H 962.092 -4.18765 3.56253 0
M  V30 10702 H 963.317 -5.22058 4.34319 0
M  V30 10703 H 961.263 -6.14429 2.2981 0
M  V30 10704 H 961.18 -6.40961 4.0088 0
M  V30 10705 H 962.448 -7.15851 3.08508 0
M  V30 10706 N 966.677 -1.24326 -0.968545 0
M  V30 10707 C 967.607 -1.05951 -2.08079 0
M  V30 10708 C 968.588 0.0272666 -1.70078 0
M  V30 10709 O 969.773 -0.139644 -1.93697 0
M  V30 10710 C 966.903 -0.662623 -3.4092 0
M  V30 10711 C 965.857 -1.69807 -3.92873 0
M  V30 10712 C 965.183 -1.15628 -5.22048 0
M  V30 10713 C 966.483 -3.09383 -4.20808 0
M  V30 10714 H 968.177 -1.98984 -2.23709 0
M  V30 10715 H 965.723 -0.958112 -1.075 0
M  V30 10716 H 967.676 -0.521071 -4.18166 0
M  V30 10717 H 966.4 0.303399 -3.25188 0
M  V30 10718 H 965.059 -1.82783 -3.17783 0
M  V30 10719 H 964.707 -0.180888 -5.02675 0
M  V30 10720 H 964.407 -1.84822 -5.57776 0
M  V30 10721 H 965.931 -1.02683 -6.01904 0
M  V30 10722 H 967.345 -2.99642 -4.88761 0
M  V30 10723 H 965.742 -3.75923 -4.67763 0
M  V30 10724 H 966.812 -3.57486 -3.27616 0
M  V30 10725 N 968.156 1.1691 -1.05688 0
M  V30 10726 C 969.103 2.21095 -0.662246 0
M  V30 10727 C 970.073 1.62623 0.338083 0
M  V30 10728 O 971.258 1.89428 0.228362 0
M  V30 10729 C 968.398 3.45066 -0.0484018 0
M  V30 10730 C 967.511 4.17809 -1.09817 0
M  V30 10731 C 966.646 5.29281 -0.451114 0
M  V30 10732 C 965.685 5.93817 -1.48484 0
M  V30 10733 N 964.822 6.96793 -0.861588 0
M  V30 10734 H 969.662 2.54204 -1.55513 0
M  V30 10735 H 967.199 1.24863 -0.777665 0
M  V30 10736 H 969.157 4.15932 0.324978 0
M  V30 10737 H 967.787 3.12526 0.807918 0
M  V30 10738 H 966.839 3.45608 -1.58932 0
M  V30 10739 H 968.151 4.61907 -1.88265 0
M  V30 10740 H 967.305 6.06695 -0.0244251 0
M  V30 10741 H 966.044 4.8633 0.365306 0
M  V30 10742 H 965.049 5.1513 -1.92149 0
M  V30 10743 H 966.274 6.38848 -2.30325 0
M  V30 10744 H 964.22 6.55967 -0.0657688 0
M  V30 10745 H 964.137 7.39229 -1.58354 0
M  V30 10746 H 965.405 7.78142 -0.45984 0
M  V30 10747 N 969.634 0.838594 1.33437 0
M  V30 10748 C 970.566 0.229006 2.28053 0
M  V30 10749 C 971.579 -0.590103 1.51729 0
M  V30 10750 O 972.768 -0.417218 1.73556 0
M  V30 10751 C 969.868 -0.696251 3.31671 0
M  V30 10752 C 969.041 0.0834606 4.3732 0
M  V30 10753 C 968.1 -0.765097 5.20608 0
M  V30 10754 O 967.126 -0.2044 5.68833 0
M  V30 10755 N 968.328 -2.08249 5.4186 0
M  V30 10756 H 971.093 1.04196 2.81004 0
M  V30 10757 H 968.654 0.697031 1.46127 0
M  V30 10758 H 970.646 -1.26889 3.84293 0
M  V30 10759 H 969.216 -1.40992 2.78998 0
M  V30 10760 H 968.436 0.837481 3.85201 0
M  V30 10761 H 969.724 0.619613 5.05013 0
M  V30 10762 H 969.122 -2.56156 5.04381 0
M  V30 10763 H 967.679 -2.60362 5.97541 0
M  V30 10764 N 971.112 -1.45937 0.595003 0
M  V30 10765 C 972.528 -1.57507 0.257641 0
M  V30 10766 C 972.728 -1.58829 -1.23998 0
M  V30 10767 O 971.784 -1.51183 -2.02237 0
M  V30 10768 C 973.097 -2.86354 0.917708 0
M  V30 10769 C 974.645 -3.00007 0.892446 0
M  V30 10770 C 975.12 -4.31607 1.53229 0
M  V30 10771 N 976.611 -4.38336 1.49719 0
M  V30 10772 C 977.346 -5.38805 1.96154 0
M  V30 10773 N 976.842 -6.45882 2.50617 0
M  V30 10774 N 978.635 -5.30084 1.86997 0
M  V30 10775 H 970.786 -1.43322 1.56756 0
M  V30 10776 H 973.049 -0.684436 0.655936 0
M  V30 10777 H 972.755 -2.91233 1.97171 0
M  V30 10778 H 972.629 -3.74703 0.433344 0
M  V30 10779 H 975.016 -2.94703 -0.152975 0
M  V30 10780 H 975.097 -2.13103 1.41495 0
M  V30 10781 H 974.741 -4.3767 2.57697 0
M  V30 10782 H 974.671 -5.17308 0.984903 0
M  V30 10783 H 977.162 -3.6156 1.09921 0
M  V30 10784 H 977.475 -7.18774 2.83874 0
M  V30 10785 H 975.82 -6.46668 2.54649 0
M  V30 10786 H 979.011 -4.45337 1.44196 0
M  V30 10787 H 979.184 -6.08237 2.23499 0
M  V30 10788 N 972.59 -0.333456 -1.54032 0
M  V30 10789 C 973.52 0.52051 -2.27625 0
M  V30 10790 C 974.501 1.1111 -1.28797 0
M  V30 10791 O 975.686 1.13438 -1.57625 0
M  V30 10792 C 972.816 1.67663 -3.04149 0
M  V30 10793 C 971.77 1.21487 -4.10396 0
M  V30 10794 C 971.096 2.45872 -4.74817 0
M  V30 10795 C 972.396 0.322603 -5.21303 0
M  V30 10796 H 974.09 -0.0933823 -2.99254 0
M  V30 10797 H 971.636 -0.0463526 -1.43925 0
M  V30 10798 H 973.589 2.28041 -3.54366 0
M  V30 10799 H 972.313 2.31727 -2.30153 0
M  V30 10800 H 970.972 0.633966 -3.61077 0
M  V30 10801 H 970.62 3.0832 -3.97426 0
M  V30 10802 H 970.32 2.15662 -5.46593 0
M  V30 10803 H 971.844 3.06994 -5.27814 0
M  V30 10804 H 973.258 0.832942 -5.67217 0
M  V30 10805 H 971.655 0.112843 -5.99994 0
M  V30 10806 H 972.725 -0.643954 -4.80605 0
M  V30 10807 N 974.068 1.57479 -0.061844 0
M  V30 10808 C 975.296 1.97429 0.618837 0
M  V30 10809 C 975.711 0.939826 1.63746 0
M  V30 10810 O 975.068 -0.0747173 1.82347 0
M  V30 10811 C 975.119 3.3746 1.29628 0
M  V30 10812 O 974.84 4.36941 0.318431 0
M  V30 10813 C 976.341 3.92228 2.06572 0
M  V30 10814 H 973.561 0.649513 0.168444 0
M  V30 10815 H 976.105 2.04078 -0.131303 0
M  V30 10816 H 974.26 3.31928 1.99757 0
M  V30 10817 H 974.674 5.18313 0.803239 0
M  V30 10818 H 976.148 4.92458 2.49377 0
M  V30 10819 H 976.625 3.28231 2.91824 0
M  V30 10820 H 977.231 4.01131 1.4133 0
M  V30 10821 N 975.546 -0.211634 1.56173 0
M  V30 10822 C 976.493 -1.26231 1.93221 0
M  V30 10823 C 977.463 -1.46076 0.790641 0
M  V30 10824 O 978.648 -1.59482 1.04739 0
M  V30 10825 C 975.788 -2.60559 2.26281 0
M  V30 10826 C 974.901 -2.48431 3.5342 0
M  V30 10827 C 974.036 -3.7535 3.7588 0
M  V30 10828 C 973.075 -3.57985 4.96501 0
M  V30 10829 N 972.212 -4.76877 5.15299 0
M  V30 10830 H 977.052 -0.939367 2.82807 0
M  V30 10831 H 974.589 -0.452511 1.39967 0
M  V30 10832 H 976.547 -3.38796 2.43461 0
M  V30 10833 H 975.177 -2.9093 1.39855 0
M  V30 10834 H 974.229 -1.61577 3.44379 0
M  V30 10835 H 975.541 -2.31526 4.41811 0
M  V30 10836 H 974.695 -4.62029 3.9321 0
M  V30 10837 H 973.434 -3.95191 2.85788 0
M  V30 10838 H 972.439 -2.69691 4.79111 0
M  V30 10839 H 973.664 -3.39605 5.88086 0
M  V30 10840 H 971.61 -4.97013 4.28152 0
M  V30 10841 H 971.527 -4.62735 5.9784 0
M  V30 10842 H 972.795 -5.64954 5.37073 0
M  V30 10843 N 977.024 -1.50153 -0.478725 0
M  V30 10844 C 978.27 -1.60998 -1.23318 0
M  V30 10845 C 978.603 -0.305868 -1.91776 0
M  V30 10846 O 977.878 0.692158 -1.81767 0
M  V30 10847 C 978.161 -2.78495 -2.28282 0
M  V30 10848 C 978.014 -4.18767 -1.64178 0
M  V30 10849 C 979.333 -2.91569 -3.2966 0
M  V30 10850 H 976.452 -0.585983 -0.446982 0
M  V30 10851 H 979.094 -1.82514 -0.528063 0
M  V30 10852 H 977.244 -2.60281 -2.8842 0
M  V30 10853 H 978.916 -4.48552 -1.07696 0
M  V30 10854 H 977.159 -4.23379 -0.94514 0
M  V30 10855 H 977.83 -4.96894 -2.40417 0
M  V30 10856 H 980.306 -3.08219 -2.79536 0
M  V30 10857 H 979.182 -3.75419 -4.0044 0
M  V30 10858 H 979.443 -2.01859 -3.93326 0
M  V30 10859 N 978.502 0.731368 -1.39602 0
M  V30 10860 C 979.412 1.87579 -1.40894 0
M  V30 10861 C 980.428 1.71336 -0.303319 0
M  V30 10862 O 981.604 1.93875 -0.545377 0
M  V30 10863 C 978.669 3.23211 -1.25442 0
M  V30 10864 C 977.73 3.51822 -2.46008 0
M  V30 10865 C 976.963 4.80982 -2.31284 0
M  V30 10866 O 977.186 5.54958 -1.31824 0
M  V30 10867 O 976.12 5.09574 -3.20341 0
M  V30 10868 H 979.946 1.89444 -2.3737 0
M  V30 10869 H 977.531 0.879675 -1.20756 0
M  V30 10870 H 979.413 4.04257 -1.18972 0
M  V30 10871 H 978.088 3.22108 -0.320637 0
M  V30 10872 H 976.995 2.70847 -2.58055 0
M  V30 10873 H 978.328 3.57707 -3.38093 0
M  V30 10874 N 979.98 1.24838 0.961938 0
M  V30 10875 C 980.927 1.04582 2.05745 0
M  V30 10876 C 981.897 -0.0427281 1.66045 0
M  V30 10877 O 983.082 0.113026 1.90465 0
M  V30 10878 C 980.222 0.66284 3.38675 0
M  V30 10879 C 979.335 1.82548 3.91536 0
M  V30 10880 C 978.47 1.38753 5.12758 0
M  V30 10881 C 977.509 2.51976 5.5783 0
M  V30 10882 N 976.646 2.09009 6.70268 0
M  V30 10883 H 981.486 1.98343 2.22405 0
M  V30 10884 H 979.023 0.987822 1.08998 0
M  V30 10885 H 980.981 0.421788 4.15062 0
M  V30 10886 H 979.611 -0.237776 3.21923 0
M  V30 10887 H 978.663 2.18004 3.11735 0
M  V30 10888 H 979.975 2.67601 4.20941 0
M  V30 10889 H 979.129 1.1057 5.96539 0
M  V30 10890 H 977.868 0.507618 4.85051 0
M  V30 10891 H 976.873 2.80912 4.72619 0
M  V30 10892 H 978.098 3.40534 5.87549 0
M  V30 10893 H 976.044 1.23423 6.44285 0
M  V30 10894 H 975.961 2.87613 6.99153 0
M  V30 10895 H 977.229 1.83981 7.57477 0
M  V30 10896 N 981.458 -1.16348 1.06306 0
M  V30 10897 C 982.705 -1.86881 0.779852 0
M  V30 10898 C 983.033 -1.8171 -0.693668 0
M  V30 10899 O 982.288 -1.22769 -1.52401 0
M  V30 10900 C 982.587 -3.35936 1.21991 0
M  V30 10901 C 982.253 -3.61307 2.69756 0
M  V30 10902 C 980.915 -3.6794 3.10119 0
M  V30 10903 C 983.267 -3.71871 3.65187 0
M  V30 10904 C 980.595 -3.82639 4.44752 0
M  V30 10905 C 982.947 -3.88091 4.99568 0
M  V30 10906 C 981.611 -3.92967 5.39568 0
M  V30 10907 H 980.881 -0.683847 0.285368 0
M  V30 10908 H 983.528 -1.37569 1.33218 0
M  V30 10909 H 981.833 -3.87381 0.586774 0
M  V30 10910 H 983.53 -3.88895 0.977821 0
M  V30 10911 H 980.12 -3.56777 2.37504 0
M  V30 10912 H 984.304 -3.66057 3.35136 0
M  V30 10913 H 979.56 -3.84666 4.75228 0
M  V30 10914 H 983.734 -3.95207 5.73397 0
M  V30 10915 H 981.361 -4.04109 6.43895 0
M  V30 10916 N 982.937 -0.845659 -1.3299 0
M  V30 10917 C 983.867 -0.298957 -2.31578 0
M  V30 10918 C 984.848 0.597012 -1.59279 0
M  V30 10919 O 986.033 0.519142 -1.87132 0
M  V30 10920 C 983.163 0.521109 -3.43368 0
M  V30 10921 C 982.117 -0.279651 -4.27085 0
M  V30 10922 C 981.443 0.664591 -5.30554 0
M  V30 10923 C 982.743 -1.50046 -5.00283 0
M  V30 10924 H 984.437 -1.12272 -2.77552 0
M  V30 10925 H 981.983 -0.54132 -1.33438 0
M  V30 10926 H 983.936 0.913921 -4.1137 0
M  V30 10927 H 982.66 1.37815 -2.96099 0
M  V30 10928 H 981.319 -0.654106 -3.60717 0
M  V30 10929 H 980.967 1.51822 -4.79541 0
M  V30 10930 H 980.667 0.132871 -5.8745 0
M  V30 10931 H 982.191 1.05477 -6.01421 0
M  V30 10932 H 983.605 -1.18044 -5.61016 0
M  V30 10933 H 982.002 -1.96946 -5.66862 0
M  V30 10934 H 983.072 -2.26659 -4.28665 0
M  V30 10935 N 984.415 1.45619 -0.602734 0
M  V30 10936 C 985.362 2.30493 0.118944 0
M  V30 10937 C 986.332 1.41816 0.864723 0
M  V30 10938 O 987.517 1.7075 0.851424 0
M  V30 10939 C 984.657 3.2664 1.11356 0
M  V30 10940 C 983.77 4.3042 0.369161 0
M  V30 10941 C 982.905 5.13678 1.35307 0
M  V30 10942 C 981.944 6.09189 0.596207 0
M  V30 10943 N 981.081 6.85245 1.52916 0
M  V30 10944 H 985.921 2.91672 -0.610836 0
M  V30 10945 H 983.458 1.43731 -0.313032 0
M  V30 10946 H 985.416 3.80846 1.7033 0
M  V30 10947 H 984.046 2.67225 1.81081 0
M  V30 10948 H 983.098 3.78913 -0.335994 0
M  V30 10949 H 984.41 4.98307 -0.221603 0
M  V30 10950 H 983.564 5.7226 2.01502 0
M  V30 10951 H 982.303 4.45798 1.97777 0
M  V30 10952 H 981.308 5.49743 -0.0793984 0
M  V30 10953 H 982.533 6.79096 -0.0233734 0
M  V30 10954 H 980.479 6.20058 2.14159 0
M  V30 10955 H 980.396 7.49467 0.991713 0
M  V30 10956 H 981.664 7.48371 2.18083 0
M  V30 10957 N 985.893 0.34162 1.53853 0
M  V30 10958 C 987.304 -0.14269 1.86154 0
M  V30 10959 C 987.655 -1.50151 1.2629 0
M  V30 10960 O 986.78 -2.08601 0.575735 0
M  V30 10961 C 987.375 -0.265691 3.37757 0
M  V30 10962 C 985.934 -0.694231 3.69942 0
M  V30 10963 C 985.081 0.173195 2.76759 0
M  V30 10964 H 988.032 0.561284 1.48443 0
M  V30 10965 H 988.053 -1.09352 3.64448 0
M  V30 10966 H 987.565 0.723424 3.81298 0
M  V30 10967 H 985.666 -1.69244 3.31945 0
M  V30 10968 H 985.779 -0.485461 4.76634 0
M  V30 10969 H 984.143 -0.35416 2.52226 0
M  V30 10970 H 984.926 1.15941 3.23129 0
M  V30 10971 N 987.371 -1.57444 0.0701946 0
M  V30 10972 C 988.301 -2.15659 -0.895176 0
M  V30 10973 C 989.282 -1.08321 -1.31151 0
M  V30 10974 O 990.467 -1.36349 -1.38284 0
M  V30 10975 C 987.597 -2.71693 -2.16334 0
M  V30 10976 C 986.551 -3.84183 -1.88645 0
M  V30 10977 C 985.877 -4.26814 -3.22078 0
M  V30 10978 C 987.177 -5.08493 -1.19299 0
M  V30 10979 H 988.871 -2.96576 -0.410217 0
M  V30 10980 H 986.417 -1.42662 -0.195872 0
M  V30 10981 H 988.37 -3.11064 -2.84284 0
M  V30 10982 H 987.094 -1.87994 -2.67069 0
M  V30 10983 H 985.753 -3.45314 -1.23101 0
M  V30 10984 H 985.401 -3.40039 -3.70651 0
M  V30 10985 H 985.101 -5.02642 -3.04344 0
M  V30 10986 H 986.625 -4.68799 -3.91228 0
M  V30 10987 H 988.039 -5.4519 -1.77316 0
M  V30 10988 H 986.436 -5.89588 -1.11828 0
M  V30 10989 H 987.506 -4.84595 -0.171839 0
M  V30 10990 N 988.849 0.203349 -1.56283 0
M  V30 10991 C 990.098 0.92315 -1.79334 0
M  V30 10992 C 990.411 1.84765 -0.641977 0
M  V30 10993 O 991.617 2.60745 -0.756584 0
M  V30 10994 C 990.073 1.69184 -3.17655 0
M  V30 10995 C 989.681 0.812581 -4.40569 0
M  V30 10996 C 991.425 2.40177 -3.50022 0
M  V30 10997 C 989.332 1.57967 -5.69913 0
M  V30 10998 H 988.262 0.348442 -0.668659 0
M  V30 10999 H 990.913 0.1766 -1.82648 0
M  V30 11000 H 989.295 2.48197 -3.08568 0
M  V30 11001 H 990.469 0.0616956 -4.60759 0
M  V30 11002 H 988.784 0.21389 -4.1585 0
M  V30 11003 H 991.381 2.98103 -4.4389 0
M  V30 11004 H 991.724 3.13961 -2.73376 0
M  V30 11005 H 992.257 1.68138 -3.6052 0
M  V30 11006 H 988.996 0.884767 -6.49501 0
M  V30 11007 H 988.516 2.3047 -5.53754 0
M  V30 11008 H 990.195 2.13562 -6.10737 0
M  V30 11009 N 990.327 1.50405 0.470755 0
M  V30 11010 C 991.604 1.51929 1.23195 0
M  V30 11011 C 991.984 0.264159 2.09441 0
M  V30 11012 O 991.332 -0.752395 2.15757 0
M  V30 11013 C 991.542 2.81521 2.06269 0
M  V30 11014 C 992.89 3.32195 2.64446 0
M  V30 11015 O 993.914 2.82845 2.16511 0
M  V30 11016 O 992.773 4.18221 3.51786 0
M  V30 11017 H 989.867 0.609411 0.559059 0
M  V30 11018 H 992.413 1.62695 0.482549 0
M  V30 11019 H 991.185 3.64346 1.42715 0
M  V30 11020 H 990.808 2.7376 2.88342 0
M  V30 11021 N 991.805 -0.723954 1.39988 0
M  V30 11022 C 993.033 -1.51313 1.4111 0
M  V30 11023 C 993.448 -1.88798 0.00853333 0
M  V30 11024 O 992.805 -1.54868 -0.965516 0
M  V30 11025 C 992.856 -2.79375 2.29416 0
M  V30 11026 O 992.577 -2.43478 3.64211 0
M  V30 11027 C 994.078 -3.7333 2.3904 0
M  V30 11028 H 991.298 -0.46724 0.481589 0
M  V30 11029 H 993.842 -0.893694 1.83938 0
M  V30 11030 H 991.997 -3.37624 1.89971 0
M  V30 11031 H 992.411 -3.25821 4.11024 0
M  V30 11032 H 993.885 -4.60051 3.05053 0
M  V30 11033 H 994.362 -4.15854 1.41289 0
M  V30 11034 H 994.968 -3.20996 2.79001 0
M  V30 11035 N 993.283 -1.25346 -0.955304 0
M  V30 11036 C 994.193 -1.07412 -2.08566 0
M  V30 11037 C 995.209 -0.0114424 -1.73996 0
M  V30 11038 O 996.385 -0.212236 -2.00279 0
M  V30 11039 C 993.45 -0.694141 -3.3968 0
M  V30 11040 C 992.511 -1.83468 -3.88121 0
M  V30 11041 C 991.744 -1.47274 -5.12978 0
M  V30 11042 O 991.967 -0.368086 -5.69211 0
M  V30 11043 O 990.901 -2.30269 -5.56111 0
M  V30 11044 H 994.727 -2.02206 -2.26598 0
M  V30 11045 H 992.312 -1.04279 -1.06988 0
M  V30 11046 H 994.194 -0.494325 -4.18491 0
M  V30 11047 H 992.869 0.224545 -3.2292 0
M  V30 11048 H 991.776 -2.08935 -3.10318 0
M  V30 11049 H 993.109 -2.73258 -4.09379 0
M  V30 11050 N 994.761 1.15782 -1.06922 0
M  V30 11051 C 996.008 1.86465 -0.789752 0
M  V30 11052 C 996.336 1.82075 0.684022 0
M  V30 11053 O 995.591 1.23576 1.51748 0
M  V30 11054 C 995.89 3.35284 -1.2377 0
M  V30 11055 C 995.556 3.59871 -2.71668 0
M  V30 11056 C 994.218 3.6629 -3.12066 0
M  V30 11057 C 996.57 3.69929 -3.67154 0
M  V30 11058 C 993.898 3.80275 -4.46775 0
M  V30 11059 C 996.25 3.85436 -5.01619 0
M  V30 11060 C 994.914 3.901 -5.41644 0
M  V30 11061 H 994.184 0.682324 -0.288991 0
M  V30 11062 H 996.831 1.36861 -1.33945 0
M  V30 11063 H 995.136 3.87065 -0.607309 0
M  V30 11064 H 996.833 3.88371 -0.998431 0
M  V30 11065 H 993.423 3.55512 -2.39393 0
M  V30 11066 H 997.607 3.64274 -3.37073 0
M  V30 11067 H 992.863 3.8214 -4.77262 0
M  V30 11068 H 997.037 3.92161 -5.75485 0
M  V30 11069 H 994.664 4.00688 -6.46029 0
M  V30 11070 N 996.239 0.8527 1.3254 0
M  V30 11071 C 997.464 0.468157 2.02047 0
M  V30 11072 C 997.889 -0.926967 1.63673 0
M  V30 11073 O 997.247 -1.60855 0.836378 0
M  V30 11074 C 997.295 0.612519 3.5536 0
M  V30 11075 O 996.399 -0.355506 4.10865 0
M  V30 11076 H 995.74 0.188401 0.636711 0
M  V30 11077 H 998.27 1.15135 1.6913 0
M  V30 11078 H 998.28 0.499315 4.04933 0
M  V30 11079 H 996.955 1.62988 3.82632 0
M  V30 11080 H 995.532 -0.198703 3.7237 0
M  V30 11081 N 997.718 -1.45297 0.610449 0
M  V30 11082 C 998.943 -2.07101 0.111414 0
M  V30 11083 C 999.368 -1.45161 -1.19625 0
M  V30 11084 O 998.726 -0.545368 -1.72903 0
M  V30 11085 C 998.774 -3.60598 -0.0117372 0
M  V30 11086 O 997.878 -3.98512 -1.06122 0
M  V30 11087 H 997.219 -0.659709 0.075364 0
M  V30 11088 H 999.749 -1.86504 0.841269 0
M  V30 11089 H 999.759 -4.07464 -0.209028 0
M  V30 11090 H 998.434 -4.05067 0.943076 0
M  V30 11091 H 997.011 -3.63312 -0.840158 0
M  V30 11092 N 999.196 -0.349774 -1.5367 0
M  V30 11093 C 1000.44 0.245862 -2.00196 0
M  V30 11094 C 1000.76 1.51154 -1.24144 0
M  V30 11095 O 1001.96 2.18481 -1.61178 0
M  V30 11096 C 1000.42 0.488665 -3.56567 0
M  V30 11097 C 1000.03 -0.761475 -4.41481 0
M  V30 11098 C 1001.77 1.04282 -4.11492 0
M  V30 11099 C 999.679 -0.489128 -5.89374 0
M  V30 11100 H 998.609 0.0956493 -0.747909 0
M  V30 11101 H 1001.26 -0.466068 -1.77483 0
M  V30 11102 H 999.642 1.26145 -3.75371 0
M  V30 11103 H 1000.82 -1.53585 -4.34452 0
M  V30 11104 H 999.131 -1.23771 -3.9758 0
M  V30 11105 H 1001.73 1.26164 -5.19603 0
M  V30 11106 H 1002.07 2.00023 -3.65098 0
M  V30 11107 H 1002.6 0.330582 -3.96424 0
M  V30 11108 H 999.343 -1.41643 -6.40014 0
M  V30 11109 H 998.863 0.247039 -5.99291 0
M  V30 11110 H 1000.54 -0.1087 -6.46909 0
M  V30 11111 N 1000.67 1.57404 -0.0785433 0
M  V30 11112 C 1001.58 2.16612 0.900902 0
M  V30 11113 C 1002.6 1.13109 1.32221 0
M  V30 11114 O 1003.78 1.45406 1.39352 0
M  V30 11115 C 1000.84 2.7215 2.14791 0
M  V30 11116 C 999.902 3.90551 1.78237 0
M  V30 11117 C 999.135 4.43431 2.96993 0
M  V30 11118 O 999.358 3.95292 4.11218 0
M  V30 11119 O 998.292 5.34674 2.76418 0
M  V30 11120 H 1002.12 3.0068 0.427227 0
M  V30 11121 H 999.703 1.48696 0.144902 0
M  V30 11122 H 1001.58 3.07718 2.87902 0
M  V30 11123 H 1000.26 1.91139 2.61243 0
M  V30 11124 H 999.167 3.59825 1.02357 0
M  V30 11125 H 1000.5 4.72876 1.36562 0
M  V30 11126 N 1002.15 -0.195058 1.56388 0
M  V30 11127 C 1003.4 -0.913636 1.8027 0
M  V30 11128 C 1003.72 -1.83791 0.651606 0
M  V30 11129 O 1002.99 -1.931 -0.330057 0
M  V30 11130 H 1001.57 -0.34036 0.664954 0
M  V30 11131 H 1004.23 -0.200559 1.93865 0
M  V30 11132 H 1003.33 -1.50473 2.7343 0
M  V30 11133 N 1003.63 -1.50653 -0.462772 0
M  V30 11134 C 1005.04 -1.54821 -1.04342 0
M  V30 11135 C 1005.39 -0.356595 -1.92932 0
M  V30 11136 O 1004.52 0.529579 -2.0982 0
M  V30 11137 C 1005.11 -2.80571 -1.89909 0
M  V30 11138 C 1003.67 -2.87394 -2.43067 0
M  V30 11139 C 1002.82 -2.49206 -1.21621 0
M  V30 11140 H 1005.77 -1.56797 -0.245048 0
M  V30 11141 H 1005.79 -2.62897 -2.75074 0
M  V30 11142 H 1005.3 -3.67281 -1.25405 0
M  V30 11143 H 1003.4 -2.05055 -3.111 0
M  V30 11144 H 1003.52 -3.90477 -2.77605 0
M  V30 11145 H 1001.88 -2.01829 -1.55361 0
M  V30 11146 H 1002.66 -3.38233 -0.587669 0
M  V30 11147 N 1005.11 0.71652 -1.4037 0
M  V30 11148 C 1006.36 1.47347 -1.38324 0
M  V30 11149 C 1006.68 1.94995 0.0139949 0
M  V30 11150 O 1005.95 1.7028 0.968585 0
M  V30 11151 H 1004.53 0.546662 -0.509087 0
M  V30 11152 H 1007.19 0.849455 -1.75415 0
M  V30 11153 H 1006.29 2.34675 -2.05752 0
M  V30 11154 N 1006.59 1.25851 0.948643 0
M  V30 11155 C 1007.55 1.0683 2.0278 0
M  V30 11156 C 1008.55 0.0191016 1.60789 0
M  V30 11157 O 1009.74 0.261836 1.72221 0
M  V30 11158 C 1006.87 0.623318 3.35153 0
M  V30 11159 H 1008.06 2.02635 2.21086 0
M  V30 11160 H 1005.62 1.08343 1.12657 0
M  V30 11161 H 1006.35 -0.337053 3.22544 0
M  V30 11162 H 1006.14 1.38082 3.66982 0
M  V30 11163 H 1007.63 0.511854 4.14451 0
M  V30 11164 N 1008.06 -1.15214 1.07534 0
M  V30 11165 C 1008.97 -2.23636 0.708818 0
M  V30 11166 C 1009.99 -1.7172 -0.280759 0
M  V30 11167 O 1011.17 -2.01 -0.126927 0
M  V30 11168 C 1008.23 -3.46512 0.114167 0
M  V30 11169 C 1007.29 -4.13409 1.15722 0
M  V30 11170 C 1006.53 -5.30419 0.59085 0
M  V30 11171 O 1006.75 -5.67314 -0.592512 0
M  V30 11172 O 1005.68 -5.86871 1.33663 0
M  V30 11173 H 1009.51 -2.57322 1.61305 0
M  V30 11174 H 1007.09 -1.22972 0.848422 0
M  V30 11175 H 1008.98 -4.20851 -0.215091 0
M  V30 11176 H 1007.65 -3.1457 -0.763356 0
M  V30 11177 H 1006.56 -3.40984 1.53886 0
M  V30 11178 H 1007.89 -4.49435 2.00671 0
M  V30 11179 N 1009.54 -0.859717 -1.32086 0
M  V30 11180 C 1010.77 -0.478865 -2.01796 0
M  V30 11181 C 1011.19 0.918274 -1.64163 0
M  V30 11182 O 1010.55 1.60409 -0.844896 0
M  V30 11183 C 1010.6 -0.631356 -3.5503 0
M  V30 11184 O 1009.7 0.333712 -4.11048 0
M  V30 11185 H 1009.04 -0.191775 -0.635703 0
M  V30 11186 H 1011.57 -1.16031 -1.68517 0
M  V30 11187 H 1011.58 -0.520783 -4.04663 0
M  V30 11188 H 1010.26 -1.65015 -3.81763 0
M  V30 11189 H 1008.84 0.178953 -3.7247 0
M  V30 11190 N 1011.02 1.44971 -0.618145 0
M  V30 11191 C 1012.27 2.0176 -0.11725 0
M  V30 11192 C 1012.59 1.48773 1.26062 0
M  V30 11193 O 1011.86 0.686152 1.83491 0
M  V30 11194 H 1010.44 0.745909 -0.0403545 0
M  V30 11195 H 1013.1 1.77638 -0.801923 0
M  V30 11196 H 1012.2 3.1201 -0.0750477 0
M  V30 11197 N 1012.5 0.357919 1.53482 0
M  V30 11198 C 1013.91 -0.122938 1.86295 0
M  V30 11199 C 1014.26 -1.48803 1.27875 0
M  V30 11200 O 1013.39 -2.07978 0.597828 0
M  V30 11201 C 1013.98 -0.229853 3.38019 0
M  V30 11202 C 1012.54 -0.654955 3.70658 0
M  V30 11203 C 1011.69 0.202539 2.76559 0
M  V30 11204 H 1014.64 0.576997 1.47839 0
M  V30 11205 H 1014.66 -1.05481 3.65587 0
M  V30 11206 H 1014.17 0.763825 3.80509 0
M  V30 11207 H 1012.27 -1.65714 3.33721 0
M  V30 11208 H 1012.38 -0.43488 4.77122 0
M  V30 11209 H 1010.75 -0.327388 2.52587 0
M  V30 11210 H 1011.53 1.19361 3.21882 0
M  V30 11211 N 1013.98 -1.5736 0.0868897 0
M  V30 11212 C 1015.23 -1.93229 -0.578387 0
M  V30 11213 C 1015.54 -0.970127 -1.69847 0
M  V30 11214 O 1016.74 -1.22222 -2.42434 0
M  V30 11215 C 1015.2 -3.43307 -1.0802 0
M  V30 11216 C 1014.81 -4.47999 0.00968135 0
M  V30 11217 C 1016.55 -3.88151 -1.71868 0
M  V30 11218 C 1014.46 -5.89223 -0.507029 0
M  V30 11219 H 1013.39 -0.721245 -0.219823 0
M  V30 11220 H 1016.04 -1.82787 0.161566 0
M  V30 11221 H 1014.42 -3.48873 -1.87359 0
M  V30 11222 H 1015.6 -4.54067 0.784865 0
M  V30 11223 H 1013.91 -4.12714 0.552845 0
M  V30 11224 H 1016.51 -4.91056 -2.11585 0
M  V30 11225 H 1016.85 -3.26347 -2.58464 0
M  V30 11226 H 1017.38 -3.85252 -0.991259 0
M  V30 11227 H 1014.12 -6.54708 0.322121 0
M  V30 11228 H 1013.64 -5.86643 -1.2494 0
M  V30 11229 H 1015.32 -6.39556 -0.978628 0
M  V30 11230 N 1015.45 0.186762 -1.56489 0
M  V30 11231 C 1016.73 0.932229 -1.71956 0
M  V30 11232 C 1017.11 2.01037 -0.644006 0
M  V30 11233 O 1016.46 2.259 0.343694 0
M  V30 11234 C 1016.67 1.51106 -3.14592 0
M  V30 11235 C 1018.02 1.98997 -3.75081 0
M  V30 11236 O 1019.04 1.60931 -3.17773 0
M  V30 11237 O 1017.9 2.69067 -4.75673 0
M  V30 11238 H 1014.99 0.437736 -0.701652 0
M  V30 11239 H 1017.54 0.175803 -1.68787 0
M  V30 11240 H 1016.31 0.734327 -3.84348 0
M  V30 11241 H 1015.94 2.33209 -3.22024 0
M  V30 11242 N 1016.93 1.50896 0.454776 0
M  V30 11243 C 1018.16 1.66759 1.23313 0
M  V30 11244 C 1018.58 0.35722 1.84677 0
M  V30 11245 O 1017.94 -0.680771 1.68033 0
M  V30 11246 C 1017.99 2.77254 2.3057 0
M  V30 11247 O 1017.09 2.39642 3.35627 0
M  V30 11248 H 1016.43 0.556599 0.362068 0
M  V30 11249 H 1018.96 1.97365 0.539274 0
M  V30 11250 H 1018.97 3.0082 2.75629 0
M  V30 11251 H 1017.65 3.72349 1.85281 0
M  V30 11252 H 1016.23 2.26584 2.96165 0
M  V30 11253 N 1018.41 -0.709066 1.40748 0
M  V30 11254 C 1019.64 -1.49808 1.42707 0
M  V30 11255 C 1020.05 -1.88778 0.0285574 0
M  V30 11256 O 1019.41 -1.55883 -0.949035 0
M  V30 11257 C 1019.46 -2.76926 2.32366 0
M  V30 11258 O 1019.18 -2.39602 3.66773 0
M  V30 11259 C 1020.68 -3.70773 2.42986 0
M  V30 11260 H 1017.9 -0.462106 0.486517 0
M  V30 11261 H 1020.45 -0.874135 1.84876 0
M  V30 11262 H 1018.6 -3.3559 1.93541 0
M  V30 11263 H 1019.02 -3.21443 4.14457 0
M  V30 11264 H 1020.49 -4.56789 3.09916 0
M  V30 11265 H 1020.97 -4.14332 1.45691 0
M  V30 11266 H 1021.57 -3.18019 2.8239 0
M  V30 11267 O 1019.93 -1.3727 -0.85084 0
M  V30 11268 H 1020.62 -1.23584 -1.49153 0
M  V30 END ATOM
M  V30 BEGIN BOND
M  V30 END BOND
M  V30 END CTAB
M  END
$$$$
