drugbank_target|P30043 Flavin reductase (NADPH) (DB00140; DB00157; DB02073; DB03247; DB03461; DB04345; DB04363)
 OpenBabel12092119353D

  0  0  0     0  0            999 V3000
M  V30 BEGIN CTAB
M  V30 COUNTS 3123 3154 0 0 0
M  V30 BEGIN ATOM
M  V30 1 H -0.908 1.98254 -0.117106 0
M  V30 2 N 0 1.576 0 0
M  V30 3 C 0.933 2.03868 1.02534 0
M  V30 4 C 1.911 0.928543 1.3348 0
M  V30 5 O 3.095 1.19667 1.45644 0
M  V30 6 C 0.222 2.43627 2.35294 0
M  V30 7 C -0.732 3.65373 2.2001 0
M  V30 8 S 0.101 5.13292 1.52614 0
M  V30 9 C 1.257 5.56322 2.86805 0
M  V30 10 H 1.49 2.90518 0.631377 0
M  V30 11 H -0.977 1.52953 0.210867 0
M  V30 12 H 0.981 2.67203 3.11629 0
M  V30 13 H -0.358 1.57376 2.7183 0
M  V30 14 H -1.165 3.90944 3.18086 0
M  V30 15 H -1.563 3.418 1.51819 0
M  V30 16 H 0.729 5.58782 3.83104 0
M  V30 17 H 1.672 6.56266 2.65933 0
M  V30 18 H 2.08 4.83886 2.90714 0
M  V30 19 N 1.4781 -0.272755 1.55222 0
M  V30 20 C 2.4411 -1.32041 1.87344 0
M  V30 21 C 3.4411 -1.42342 0.74803 0
M  V30 22 O 4.6311 -1.41488 1.0162 0
M  V30 23 C 1.7631 -2.70173 2.07893 0
M  V30 24 H 2.9561 -1.04789 2.80997 0
M  V30 25 H 0.5091 -0.51083 1.47717 0
M  V30 26 H 1.2441 -3.02605 1.16622 0
M  V30 27 H 1.0291 -2.64082 2.89833 0
M  V30 28 H 2.5191 -3.45869 2.34017 0
M  V30 29 N 2.9562 -1.48159 -0.537278 0
M  V30 30 C 4.2022 -1.56035 -1.29541 0
M  V30 31 C 4.5352 -0.230377 -1.92829 0
M  V30 32 O 3.8102 0.762952 -1.78911 0
M  V30 33 C 4.0932 -2.69323 -2.39034 0
M  V30 34 C 3.9462 -4.12002 -1.80485 0
M  V30 35 C 5.2652 -2.78408 -3.40847 0
M  V30 36 H 2.3842 -0.567992 -0.469632 0
M  V30 37 H 5.0262 -1.80302 -0.599277 0
M  V30 38 H 3.1762 -2.48763 -2.98412 0
M  V30 39 H 4.8482 -4.43981 -1.25215 0
M  V30 40 H 3.0912 -4.19344 -1.11055 0
M  V30 41 H 3.7622 -4.87077 -2.59731 0
M  V30 42 H 6.2382 -2.97012 -2.91416 0
M  V30 43 H 5.1142 -3.59416 -4.14863 0
M  V30 44 H 5.3752 -1.86269 -4.00944 0
M  V30 45 N 4.4343 0.785586 -1.36625 0
M  V30 46 C 5.3813 1.89838 -1.31264 0
M  V30 47 C 6.3513 1.65115 -0.180633 0
M  V30 48 O 7.5363 1.87222 -0.36777 0
M  V30 49 C 4.6763 3.26706 -1.11163 0
M  V30 50 C 3.7893 3.63476 -2.33472 0
M  V30 51 C 2.9243 4.89481 -2.06353 0
M  V30 52 C 1.9633 5.18941 -3.24602 0
M  V30 53 N 1.1003 6.36131 -2.97123 0
M  V30 54 H 5.9403 1.93756 -2.26413 0
M  V30 55 H 3.4773 0.947454 -1.12524 0
M  V30 56 H 5.4353 4.05639 -0.975337 0
M  V30 57 H 4.0653 3.222 -0.196674 0
M  V30 58 H 3.1173 2.79636 -2.57891 0
M  V30 59 H 4.4293 3.81193 -3.21704 0
M  V30 60 H 3.5833 5.76288 -1.89675 0
M  V30 61 H 2.3223 4.73841 -1.15437 0
M  V30 62 H 1.3273 4.30615 -3.41834 0
M  V30 63 H 2.5523 5.36498 -4.16349 0
M  V30 64 H 0.4983 6.21875 -2.08823 0
M  V30 65 H 0.4153 6.54198 -3.78894 0
M  V30 66 H 1.6833 7.2591 -2.84033 0
M  V30 67 N 5.9124 1.20967 1.01018 0
M  V30 68 C 6.8594 0.964281 2.09691 0
M  V30 69 C 7.8294 -0.107853 1.65749 0
M  V30 70 O 9.0144 0.0381987 1.90762 0
M  V30 71 C 6.1544 0.52943 3.41015 0
M  V30 72 C 5.2674 1.67043 3.98398 0
M  V30 73 C 4.4024 1.18525 5.17808 0
M  V30 74 C 3.4414 2.29892 5.67288 0
M  V30 75 N 2.5784 1.82546 6.77954 0
M  V30 76 H 7.4184 1.89463 2.30017 0
M  V30 77 H 4.9554 0.944289 1.1279 0
M  V30 78 H 6.9134 0.258588 4.16398 0
M  V30 79 H 5.5434 -0.363919 3.20742 0
M  V30 80 H 4.5954 2.05603 3.20049 0
M  V30 81 H 5.9074 2.50877 4.31117 0
M  V30 82 H 5.0614 0.870762 6.00419 0
M  V30 83 H 3.8004 0.316887 4.86669 0
M  V30 84 H 2.8054 2.6215 4.83278 0
M  V30 85 H 4.0304 3.17216 6.00459 0
M  V30 86 H 1.9764 0.980454 6.48632 0
M  V30 87 H 1.8934 2.59956 7.09901 0
M  V30 88 H 3.1614 1.54115 7.64113 0
M  V30 89 N 7.3905 -1.2043 1.01659 0
M  V30 90 C 8.6395 -1.89118 0.701237 0
M  V30 91 C 8.9525 -1.79705 -0.772358 0
M  V30 92 O 10.1585 -2.43528 -1.20026 0
M  V30 93 C 8.6145 -3.39168 1.20388 0
M  V30 94 C 8.2225 -3.57166 2.70438 0
M  V30 95 C 9.9665 -4.1341 0.963953 0
M  V30 96 C 7.8735 -5.01042 3.14183 0
M  V30 97 H 6.8035 -0.708267 0.2586 0
M  V30 98 H 9.4545 -1.36239 1.22927 0
M  V30 99 H 7.8365 -3.91369 0.603824 0
M  V30 100 H 9.0105 -3.15351 3.35992 0
M  V30 101 H 7.3255 -2.96294 2.92572 0
M  V30 102 H 9.9225 -5.19491 1.26621 0
M  V30 103 H 10.2655 -4.16181 -0.099578 0
M  V30 104 H 10.7985 -3.67309 1.52738 0
M  V30 105 H 7.5375 -5.03426 4.19812 0
M  V30 106 H 7.0575 -5.43668 2.53348 0
M  V30 107 H 8.7365 -5.69623 3.0682 0
M  V30 108 N 8.8686 -0.792821 -1.36206 0
M  V30 109 C 9.8316 -0.199459 -2.2833 0
M  V30 110 C 10.8316 0.605189 -1.48977 0
M  V30 111 O 12.0216 0.425685 -1.68919 0
M  V30 112 C 9.1536 0.723523 -3.33134 0
M  V30 113 H 10.3466 -1.01181 -2.82316 0
M  V30 114 H 7.8996 -0.562485 -1.45828 0
M  V30 115 H 8.6346 1.56008 -2.84309 0
M  V30 116 H 8.4196 0.148436 -3.91819 0
M  V30 117 H 9.9096 1.13344 -4.01924 0
M  V30 118 N 10.3467 1.47872 -0.545128 0
M  V30 119 C 11.5957 2.01695 -0.0145033 0
M  V30 120 C 11.9087 1.42609 1.33873 0
M  V30 121 O 13.1147 1.88021 1.95858 0
M  V30 122 C 11.5707 3.59892 0.0245068 0
M  V30 123 C 11.1787 4.27966 -1.32475 0
M  V30 124 C 12.9227 4.21507 0.50316 0
M  V30 125 C 10.8297 5.78136 -1.2455 0
M  V30 126 H 9.7597 0.753998 -0.00165172 0
M  V30 127 H 12.4107 1.69985 -0.691175 0
M  V30 128 H 10.7927 3.88509 0.766575 0
M  V30 129 H 11.9667 4.11003 -2.08357 0
M  V30 130 H 10.2817 3.78286 -1.74036 0
M  V30 131 H 12.8787 5.31538 0.580656 0
M  V30 132 H 13.2217 3.87855 1.51243 0
M  V30 133 H 13.7547 3.97376 -0.183681 0
M  V30 134 H 10.4937 6.16388 -2.23039 0
M  V30 135 H 10.0137 5.97469 -0.528282 0
M  V30 136 H 11.6927 6.40099 -0.942488 0
M  V30 137 N 11.8248 0.280983 1.55075 0
M  V30 138 C 13.0718 -0.334115 1.99725 0
M  V30 139 C 13.3998 -1.5542 1.1694 0
M  V30 140 O 12.6548 -1.94361 0.228531 0
M  V30 141 C 12.9538 -0.754656 3.49342 0
M  V30 142 C 12.6198 0.361445 4.49449 0
M  V30 143 C 11.2818 0.667893 4.76542 0
M  V30 144 C 13.6338 1.11322 5.09173 0
M  V30 145 C 10.9618 1.7296 5.60626 0
M  V30 146 C 13.3138 2.1647 5.9441 0
M  V30 147 C 11.9778 2.47742 6.19822 0
M  V30 148 H 11.2478 -0.122261 0.730844 0
M  V30 149 H 13.8948 0.395917 1.87363 0
M  V30 150 H 12.1998 -1.56446 3.5921 0
M  V30 151 H 13.8968 -1.24142 3.813 0
M  V30 152 H 10.4868 0.112481 4.28452 0
M  V30 153 H 14.6708 0.88973 4.8826 0
M  V30 154 H 9.9268 1.97684 5.78559 0
M  V30 155 H 14.1008 2.75193 6.3972 0
M  V30 156 H 11.7278 3.30145 6.84769 0
M  V30 157 N 13.3029 -1.57598 0.00835791 0
M  V30 158 C 14.5509 -1.90551 -0.6734 0
M  V30 159 C 14.8719 -0.883301 -1.73847 0
M  V30 160 O 14.1419 0.0781442 -1.95744 0
M  V30 161 H 12.7219 -0.703312 -0.251717 0
M  V30 162 H 15.3839 -1.94833 0.0512592 0
M  V30 163 H 14.4799 -2.9056 -1.13935 0
M  V30 164 N 14.781 0.264519 -1.55364 0
M  V30 165 C 15.744 1.31046 -1.88042 0
M  V30 166 C 16.744 1.41943 -0.755569 0
M  V30 167 O 17.934 1.40947 -1.02369 0
M  V30 168 C 15.066 2.69067 -2.09323 0
M  V30 169 H 16.259 1.03297 -2.81549 0
M  V30 170 H 13.812 0.502989 -1.47986 0
M  V30 171 H 14.547 3.01982 -1.18226 0
M  V30 172 H 14.332 2.62542 -2.91229 0
M  V30 173 H 15.822 3.44623 -2.35848 0
M  V30 174 N 16.2591 1.48442 0.529413 0
M  V30 175 C 17.4871 1.60151 1.30994 0
M  V30 176 C 17.9021 0.261985 1.86973 0
M  V30 177 O 17.2591 -0.748805 1.66431 0
M  V30 178 C 17.3101 2.64854 2.46038 0
M  V30 179 O 17.0311 3.93608 1.92365 0
M  V30 180 C 18.5321 2.87007 3.37849 0
M  V30 181 H 15.7521 0.539971 0.398338 0
M  V30 182 H 18.2961 1.94273 0.638597 0
M  V30 183 H 16.4511 2.33589 3.09055 0
M  V30 184 H 16.8651 4.51055 2.67675 0
M  V30 185 H 18.3391 3.64068 4.14919 0
M  V30 186 H 18.8161 1.95852 3.93114 0
M  V30 187 H 19.4221 3.19579 2.80623 0
M  V30 188 N 17.7372 -0.778329 1.37039 0
M  V30 189 C 18.9852 -1.53361 1.31623 0
M  V30 190 C 19.3062 -1.94739 -0.100831 0
M  V30 191 O 18.5762 -1.65797 -1.04347 0
M  V30 192 H 17.1562 -0.568794 0.484234 0
M  V30 193 H 19.8182 -0.926742 1.71457 0
M  V30 194 H 18.9142 -2.43606 1.95096 0
M  V30 195 N 19.2153 -1.21501 -1.00376 0
M  V30 196 C 20.1473 -0.933174 -2.09343 0
M  V30 197 C 21.1603 0.0840896 -1.62583 0
M  V30 198 O 22.3493 -0.148563 -1.77881 0
M  V30 199 C 19.4493 -0.379869 -3.36764 0
M  V30 200 C 18.6223 -1.45176 -4.12605 0
M  V30 201 C 17.6813 -0.907476 -5.18316 0
M  V30 202 O 16.7073 -1.5912 -5.46507 0
M  V30 203 N 17.9093 0.276649 -5.7984 0
M  V30 204 H 20.6743 -1.87124 -2.34104 0
M  V30 205 H 18.2353 -1.12043 -1.16867 0
M  V30 206 H 20.2273 -0.00131488 -4.047 0
M  V30 207 H 18.7973 0.463048 -3.09151 0
M  V30 208 H 18.0173 -2.00411 -3.39454 0
M  V30 209 H 19.3053 -2.17328 -4.6005 0
M  V30 210 H 18.7033 0.849147 -5.59291 0
M  V30 211 H 17.2603 0.596702 -6.49063 0
M  V30 212 N 20.6934 1.19889 -1.02296 0
M  V30 213 C 21.9214 1.9339 -0.735399 0
M  V30 214 C 22.3364 1.75148 0.704887 0
M  V30 215 O 21.6934 1.06954 1.47875 0
M  V30 216 C 21.7444 3.45313 -1.06962 0
M  V30 217 O 21.4654 3.62964 -2.45334 0
M  V30 218 C 22.9664 4.35948 -0.804021 0
M  V30 219 H 20.1864 0.61448 -0.269546 0
M  V30 220 H 22.7304 1.522 -1.36585 0
M  V30 221 H 20.8854 3.84359 -0.484455 0
M  V30 222 H 21.2994 4.56886 -2.57595 0
M  V30 223 H 22.7734 5.41174 -1.0879 0
M  V30 224 H 23.2504 4.3842 0.261691 0
M  V30 225 H 23.8564 4.02574 -1.37164 0
M  V30 226 N 22.1715 0.800033 1.35784 0
M  V30 227 C 23.4195 0.376597 1.9856 0
M  V30 228 C 23.7405 -1.05812 1.63795 0
M  V30 229 O 23.0105 -1.73103 0.917171 0
M  V30 230 H 21.5905 0.136261 0.734467 0
M  V30 231 H 24.2525 1.02442 1.65806 0
M  V30 232 H 23.3485 0.477002 3.08433 0
M  V30 233 N 23.6496 -1.47581 0.552962 0
M  V30 234 C 24.5796 -2.32762 -0.185451 0
M  V30 235 C 25.5606 -1.43527 -0.912905 0
M  V30 236 O 26.7456 -1.72388 -0.894201 0
M  V30 237 C 23.8756 -3.25219 -1.21859 0
M  V30 238 C 22.8296 -4.23661 -0.607864 0
M  V30 239 C 22.1556 -5.05413 -1.74533 0
M  V30 240 C 23.4556 -5.20481 0.435582 0
M  V30 241 H 25.1496 -2.94749 0.525684 0
M  V30 242 H 22.6956 -1.41738 0.254251 0
M  V30 243 H 24.6486 -3.8365 -1.7433 0
M  V30 244 H 23.3726 -2.61279 -1.95961 0
M  V30 245 H 22.0316 -3.66451 -0.104489 0
M  V30 246 H 21.6796 -4.3788 -2.47529 0
M  V30 247 H 21.3796 -5.72059 -1.34249 0
M  V30 248 H 22.9036 -5.66701 -2.27338 0
M  V30 249 H 24.3176 -5.733 -0.00290157 0
M  V30 250 H 22.7146 -5.95305 0.757067 0
M  V30 251 H 23.7846 -4.66217 1.33303 0
M  V30 252 N 25.1277 -0.289203 -1.54924 0
M  V30 253 C 26.3557 0.326463 -2.04308 0
M  V30 254 C 26.7707 1.48413 -1.16701 0
M  V30 255 O 26.1277 1.81507 -0.190087 0
M  V30 256 C 26.1787 0.794014 -3.52672 0
M  V30 257 O 25.8997 -0.317564 -4.36948 0
M  V30 258 C 27.4007 1.47605 -4.18004 0
M  V30 259 H 24.6207 0.0726272 -0.667058 0
M  V30 260 H 27.1647 -0.425401 -2.00026 0
M  V30 261 H 25.3197 1.49593 -3.57352 0
M  V30 262 H 25.7337 0.0443186 -5.24481 0
M  V30 263 H 27.2077 1.75447 -5.23376 0
M  V30 264 H 27.6847 2.41224 -3.67025 0
M  V30 265 H 28.2907 0.81762 -4.17367 0
M  V30 266 N 26.6058 1.57591 -0.0167156 0
M  V30 267 C 27.8338 1.95575 0.675128 0
M  V30 268 C 28.2488 0.892542 1.6637 0
M  V30 269 O 27.6058 -0.126912 1.82058 0
M  V30 270 C 27.6568 3.33608 1.39239 0
M  V30 271 O 27.3778 4.3585 0.443444 0
M  V30 272 C 28.8788 3.86151 2.17721 0
M  V30 273 H 26.0988 0.644423 0.186978 0
M  V30 274 H 28.6428 2.0437 -0.0728 0
M  V30 275 H 26.7978 3.2607 2.09182 0
M  V30 276 H 27.2118 5.158 0.951358 0
M  V30 277 H 28.6858 4.85114 2.63379 0
M  V30 278 H 29.1628 3.19738 3.01105 0
M  V30 279 H 29.7688 3.96918 1.52761 0
M  V30 280 N 28.0839 -0.256276 1.55502 0
M  V30 281 C 29.0139 -1.32102 1.92539 0
M  V30 282 C 29.9949 -1.50684 0.789194 0
M  V30 283 O 31.1799 -1.63449 1.04872 0
M  V30 284 C 28.3099 -2.67752 2.21192 0
M  V30 285 C 27.2639 -2.63878 3.36975 0
M  V30 286 C 26.5899 -4.03236 3.51147 0
M  V30 287 C 27.8899 -2.21682 4.72921 0
M  V30 288 H 29.5839 -1.01351 2.81724 0
M  V30 289 H 27.1299 -0.486105 1.35547 0
M  V30 290 H 29.0829 -3.42365 2.45691 0
M  V30 291 H 27.8069 -3.0012 1.28824 0
M  V30 292 H 26.4659 -1.91722 3.12471 0
M  V30 293 H 26.1139 -4.32854 2.56216 0
M  V30 294 H 25.8139 -4.01535 4.29003 0
M  V30 295 H 27.3379 -4.79563 3.77957 0
M  V30 296 H 28.7519 -2.86023 4.96854 0
M  V30 297 H 27.1489 -2.3111 5.53812 0
M  V30 298 H 28.2189 -1.16833 4.70615 0
M  V30 299 N 29.562 -1.4872 -0.521534 0
M  V30 300 C 30.525 -1.63379 -1.60748 0
M  V30 301 C 31.525 -0.50661 -1.52611 0
M  V30 302 O 32.715 -0.772601 -1.5613 0
M  V30 303 C 29.847 -1.61192 -3.00383 0
M  V30 304 H 31.04 -2.60217 -1.49087 0
M  V30 305 H 28.593 -1.37444 -0.744235 0
M  V30 306 H 29.328 -0.65863 -3.17541 0
M  V30 307 H 29.113 -2.43032 -3.07698 0
M  V30 308 H 30.603 -1.7466 -3.7932 0
M  V30 309 N 31.0401 0.771051 -1.3745 0
M  V30 310 C 31.9721 1.89352 -1.29146 0
M  V30 311 C 32.9851 1.61477 -0.207124 0
M  V30 312 O 34.1741 1.72382 -0.463324 0
M  V30 313 C 31.2741 3.24596 -0.974195 0
M  V30 314 C 30.4471 3.80111 -2.16413 0
M  V30 315 C 29.5061 4.93832 -1.81703 0
M  V30 316 O 28.5321 5.09382 -2.54006 0
M  V30 317 N 29.7341 5.75483 -0.761573 0
M  V30 318 H 32.4991 1.96991 -2.25864 0
M  V30 319 H 30.0601 0.950191 -1.31084 0
M  V30 320 H 32.0521 3.98193 -0.722828 0
M  V30 321 H 30.6221 3.12454 -0.0955527 0
M  V30 322 H 29.8421 2.98284 -2.57721 0
M  V30 323 H 31.1301 4.13932 -2.95867 0
M  V30 324 H 30.5281 5.65469 -0.161609 0
M  V30 325 H 29.0851 6.49302 -0.570064 0
M  V30 326 N 32.5182 1.22032 0.997298 0
M  V30 327 C 33.4812 0.987909 2.06816 0
M  V30 328 C 34.4812 -0.0440084 1.6074 0
M  V30 329 O 35.6712 0.194053 1.73116 0
M  V30 330 C 32.8032 0.49132 3.37341 0
M  V30 331 H 33.9962 1.93803 2.28868 0
M  V30 332 H 31.5492 1.03838 1.16822 0
M  V30 333 H 32.2842 -0.463364 3.20973 0
M  V30 334 H 32.0692 1.23575 3.72118 0
M  V30 335 H 33.5592 0.348824 4.16141 0
M  V30 336 N 33.9963 -1.19345 1.0293 0
M  V30 337 C 35.2423 -1.89318 0.727083 0
M  V30 338 C 35.5753 -1.79446 -0.742483 0
M  V30 339 O 34.8503 -1.1871 -1.54072 0
M  V30 340 C 35.1333 -3.40238 1.17942 0
M  V30 341 C 34.9863 -3.58979 2.71024 0
M  V30 342 C 36.3053 -4.33479 0.760548 0
M  V30 343 H 33.4243 -0.687475 0.265606 0
M  V30 344 H 36.0663 -1.40477 1.2793 0
M  V30 345 H 34.2163 -3.81964 0.709608 0
M  V30 346 H 35.8883 -3.26421 3.25955 0
M  V30 347 H 34.1313 -3.02018 3.11396 0
M  V30 348 H 34.8023 -4.64823 2.9773 0
M  V30 349 H 37.2783 -3.99469 1.16464 0
M  V30 350 H 36.1543 -5.37664 1.10493 0
M  V30 351 H 36.4153 -4.40813 -0.337063 0
M  V30 352 N 35.4744 -0.807222 -1.35358 0
M  V30 353 C 36.4064 -0.175717 -2.28525 0
M  V30 354 C 37.4194 0.625354 -1.5031 0
M  V30 355 O 38.6084 0.457611 -1.72535 0
M  V30 356 C 35.7084 0.773471 -3.29956 0
M  V30 357 C 34.8814 0.0186296 -4.37396 0
M  V30 358 C 33.9404 0.886395 -5.18681 0
M  V30 359 O 32.9664 0.337106 -5.68201 0
M  V30 360 N 34.1684 2.20839 -5.36852 0
M  V30 361 H 36.9334 -0.976091 -2.83359 0
M  V30 362 H 34.4944 -0.662737 -1.47714 0
M  V30 363 H 36.4864 1.35824 -3.81227 0
M  V30 364 H 35.0564 1.47465 -2.75632 0
M  V30 365 H 34.2764 -0.747349 -3.87051 0
M  V30 366 H 35.5644 -0.501577 -5.06322 0
M  V30 367 H 34.9624 2.67858 -4.98265 0
M  V30 368 H 33.5194 2.74237 -5.91301 0
M  V30 369 N 36.9525 1.47285 -0.560781 0
M  V30 370 C 37.9155 2.28535 0.174488 0
M  V30 371 C 38.9155 1.37153 0.839388 0
M  V30 372 O 40.1055 1.59748 0.694702 0
M  V30 373 C 37.2375 3.16934 1.25561 0
M  V30 374 H 38.4305 2.95012 -0.539262 0
M  V30 375 H 35.9835 1.53034 -0.317865 0
M  V30 376 H 36.7185 2.55157 2.00164 0
M  V30 377 H 36.5035 3.8419 0.783604 0
M  V30 378 H 37.9935 3.78143 1.77193 0
M  V30 379 N 38.4306 0.297415 1.54768 0
M  V30 380 C 39.6786 -0.312295 1.99673 0
M  V30 381 C 39.9996 -1.54686 1.18732 0
M  V30 382 O 39.2696 -1.93854 0.282382 0
M  V30 383 H 37.8496 -0.118381 0.73756 0
M  V30 384 H 40.5116 0.407915 1.90583 0
M  V30 385 H 39.6076 -0.586813 3.06534 0
M  V30 386 N 39.9087 -1.5758 0.0250728 0
M  V30 387 C 41.1387 -1.95646 -0.663783 0
M  V30 388 C 41.5467 -0.899935 -1.66427 0
M  V30 389 O 40.8897 0.127191 -1.83259 0
M  V30 390 C 40.9517 -3.29835 -1.43 0
M  V30 391 C 40.6157 -4.53197 -0.588305 0
M  V30 392 C 41.6127 -5.19726 0.13469 0
M  V30 393 C 39.2977 -4.99529 -0.526897 0
M  V30 394 C 41.2917 -6.30902 0.90781 0
M  V30 395 C 38.9787 -6.10589 0.24993 0
M  V30 396 C 39.9767 -6.76134 0.965994 0
M  V30 397 O 39.6647 -7.85062 1.7301 0
M  V30 398 H 39.3967 -0.649282 -0.188174 0
M  V30 399 H 41.9507 -2.05245 0.0799006 0
M  V30 400 H 40.1807 -3.16716 -2.21873 0
M  V30 401 H 41.8697 -3.52833 -2.00658 0
M  V30 402 H 42.6357 -4.84904 0.0965562 0
M  V30 403 H 38.5147 -4.48319 -1.07381 0
M  V30 404 H 42.0587 -6.81995 1.46724 0
M  V30 405 H 37.9557 -6.44849 0.289795 0
M  V30 406 H 38.7237 -8.01708 1.64944 0
M  V30 407 N 41.3868 0.248026 -1.55636 0
M  V30 408 C 42.2968 1.32859 -1.93354 0
M  V30 409 C 43.3128 1.52719 -0.833838 0
M  V30 410 O 44.4888 1.66363 -1.13513 0
M  V30 411 C 41.5538 2.66337 -2.21958 0
M  V30 412 C 40.6148 2.55008 -3.45354 0
M  V30 413 C 39.8478 3.82121 -3.72584 0
M  V30 414 O 40.0708 4.83951 -3.01907 0
M  V30 415 O 39.0048 3.80822 -4.6611 0
M  V30 416 H 42.8308 1.03862 -2.85388 0
M  V30 417 H 40.4158 0.448686 -1.42503 0
M  V30 418 H 42.2978 3.45216 -2.4167 0
M  V30 419 H 40.9728 2.95068 -1.33103 0
M  V30 420 H 39.8798 1.7442 -3.30951 0
M  V30 421 H 41.2128 2.31222 -4.34508 0
M  V30 422 N 42.8649 1.48995 0.513639 0
M  V30 423 C 44.1109 1.58076 1.27042 0
M  V30 424 C 44.4439 0.261026 1.92438 0
M  V30 425 O 43.7189 -0.734393 1.80103 0
M  V30 426 C 44.0019 2.73091 2.34719 0
M  V30 427 C 43.8549 4.14821 1.73907 0
M  V30 428 C 45.1739 2.83796 3.36375 0
M  V30 429 H 42.2929 0.575391 0.460536 0
M  V30 430 H 44.9349 1.81232 0.570516 0
M  V30 431 H 43.0849 2.53479 2.94416 0
M  V30 432 H 44.7569 4.45917 1.18135 0
M  V30 433 H 42.9999 4.21058 1.0437 0
M  V30 434 H 43.6709 4.91147 2.51949 0
M  V30 435 H 46.1469 3.01611 2.86653 0
M  V30 436 H 45.0229 3.65971 4.09093 0
M  V30 437 H 45.2839 1.92624 3.9793 0
M  V30 438 N 44.343 -0.763751 1.37857 0
M  V30 439 C 45.571 -1.55293 1.36718 0
M  V30 440 C 45.986 -1.88745 -0.0455434 0
M  V30 441 O 45.343 -1.52039 -1.00947 0
M  V30 442 C 45.394 -2.85831 2.2132 0
M  V30 443 O 45.115 -2.5381 3.57089 0
M  V30 444 C 46.616 -3.80023 2.28249 0
M  V30 445 H 43.836 -0.480841 0.468009 0
M  V30 446 H 46.38 -0.946009 1.81303 0
M  V30 447 H 44.535 -3.42926 1.80223 0
M  V30 448 H 44.949 -3.37459 4.01524 0
M  V30 449 H 46.423 -4.68599 2.91752 0
M  V30 450 H 46.9 -4.1973 1.2932 0
M  V30 451 H 47.506 -3.28855 2.69693 0
M  V30 452 N 45.8211 -1.22559 -0.990812 0
M  V30 453 C 47.0671 -1.05297 -1.73322 0
M  V30 454 C 47.4001 0.410655 -1.89808 0
M  V30 455 O 46.6751 1.30439 -1.44277 0
M  V30 456 C 46.9581 -1.76713 -3.13759 0
M  V30 457 C 46.8111 -3.30684 -3.04907 0
M  V30 458 C 48.1301 -1.52121 -4.12974 0
M  V30 459 H 45.2491 -0.38392 -0.629106 0
M  V30 460 H 47.8911 -1.50926 -1.15418 0
M  V30 461 H 46.0411 -1.37924 -3.63193 0
M  V30 462 H 47.7131 -3.7893 -2.63077 0
M  V30 463 H 45.9561 -3.60253 -2.41661 0
M  V30 464 H 46.6271 -3.75833 -4.04294 0
M  V30 465 H 49.1031 -1.85819 -3.72304 0
M  V30 466 H 47.9791 -2.04582 -5.0935 0
M  V30 467 H 48.2401 -0.454257 -4.3976 0
M  V30 468 N 47.2992 1.18797 -1.03562 0
M  V30 469 C 48.2292 2.24472 -0.643019 0
M  V30 470 C 49.2102 1.66433 0.351283 0
M  V30 471 O 50.3952 1.92803 0.232505 0
M  V30 472 C 47.5252 3.473 4.24935e-05 0
M  V30 473 C 46.4792 4.18055 -0.917257 0
M  V30 474 C 45.8052 5.34519 -0.138941 0
M  V30 475 C 47.1052 4.72109 -2.23407 0
M  V30 476 H 48.7992 2.57566 -1.52643 0
M  V30 477 H 46.3452 1.23806 -0.735394 0
M  V30 478 H 48.2982 4.20426 0.286383 0
M  V30 479 H 47.0222 3.13424 0.918299 0
M  V30 480 H 45.6812 3.46821 -1.1879 0
M  V30 481 H 45.3292 4.96891 0.781562 0
M  V30 482 H 45.0292 5.82794 -0.750005 0
M  V30 483 H 46.5532 6.10438 0.1405 0
M  V30 484 H 47.9672 5.36955 -2.00879 0
M  V30 485 H 46.3642 5.30897 -2.79765 0
M  V30 486 H 47.4342 3.89807 -2.88407 0
M  V30 487 N 48.7773 0.814389 1.34928 0
M  V30 488 C 50.0233 0.399013 1.98836 0
M  V30 489 C 50.3563 -1.03314 1.64438 0
M  V30 490 O 49.6313 -1.71811 0.911659 0
M  V30 491 C 49.9143 0.591629 3.55207 0
M  V30 492 C 49.7673 2.06928 3.99376 0
M  V30 493 C 51.0863 0.022199 4.40094 0
M  V30 494 H 48.2053 0.146451 0.722303 0
M  V30 495 H 50.8473 1.02537 1.59957 0
M  V30 496 H 48.9973 0.0584441 3.88456 0
M  V30 497 H 50.6693 2.66544 3.76499 0
M  V30 498 H 48.9123 2.56287 3.49999 0
M  V30 499 H 49.5833 2.1549 5.08201 0
M  V30 500 H 52.0593 0.477643 4.13349 0
M  V30 501 H 50.9353 0.186832 5.48582 0
M  V30 502 H 51.1963 -1.07215 4.28902 0
M  V30 503 N 50.2554 -1.46986 0.568584 0
M  V30 504 C 51.6714 -1.57946 0.229189 0
M  V30 505 C 51.8714 -1.56567 -1.26843 0
M  V30 506 O 50.9274 -1.47511 -2.04931 0
M  V30 507 C 52.2404 -2.87963 0.865909 0
M  V30 508 C 53.7884 -3.01568 0.838188 0
M  V30 509 C 54.2634 -4.34301 1.45419 0
M  V30 510 N 55.7544 -4.40965 1.41788 0
M  V30 511 C 56.4894 -5.42256 1.86403 0
M  V30 512 N 55.9854 -6.50297 2.38926 0
M  V30 513 N 57.7784 -5.3337 1.77405 0
M  V30 514 H 49.9294 -1.46126 1.54146 0
M  V30 515 H 52.1924 -0.696156 0.643484 0
M  V30 516 H 51.8984 -2.94742 1.91886 0
M  V30 517 H 51.7724 -3.75423 0.365687 0
M  V30 518 H 54.1594 -2.94379 -0.206106 0
M  V30 519 H 54.2404 -2.1562 1.37629 0
M  V30 520 H 53.8844 -4.42247 2.49761 0
M  V30 521 H 53.8144 -5.19 0.891435 0
M  V30 522 H 56.3054 -3.63484 1.03381 0
M  V30 523 H 56.6184 -7.23777 2.70863 0
M  V30 524 H 54.9634 -6.51155 2.42944 0
M  V30 525 H 58.1544 -4.47865 1.3614 0
M  V30 526 H 58.3274 -6.12169 2.12492 0
M  V30 527 N 51.7335 -0.305618 -1.54608 0
M  V30 528 C 53.0105 0.355652 -1.92339 0
M  V30 529 C 53.3905 1.71324 -1.23335 0
M  V30 530 O 52.7385 2.25473 -0.370702 0
M  V30 531 C 52.9485 0.46572 -3.45879 0
M  V30 532 C 54.2965 0.734426 -4.182 0
M  V30 533 O 55.3205 0.54935 -3.51938 0
M  V30 534 O 54.1795 1.09024 -5.35515 0
M  V30 535 H 51.2735 0.199666 -0.802535 0
M  V30 536 H 53.8195 -0.354017 -1.65966 0
M  V30 537 H 52.5915 -0.488461 -3.88239 0
M  V30 538 H 52.2145 1.22367 -3.78301 0
M  V30 539 N 53.2116 1.57565 -0.0334293 0
M  V30 540 C 54.4366 1.96689 0.657895 0
M  V30 541 C 54.8616 0.910057 1.64619 0
M  V30 542 O 54.2196 -0.128598 1.80843 0
M  V30 543 C 54.2676 3.34905 1.33683 0
M  V30 544 O 53.3716 3.31574 2.45219 0
M  V30 545 H 52.7126 0.641205 0.172489 0
M  V30 546 H 55.2426 2.04372 -0.0965621 0
M  V30 547 H 55.2526 3.71234 1.69262 0
M  V30 548 H 53.9276 4.11366 0.612411 0
M  V30 549 H 52.5046 3.06968 2.11719 0
M  V30 550 N 54.6897 -0.239769 1.55765 0
M  V30 551 C 55.9147 -0.988373 1.82335 0
M  V30 552 C 56.3397 -1.77886 0.611421 0
M  V30 553 O 55.6977 -1.75889 -0.439639 0
M  V30 554 C 55.7457 -1.89627 3.06715 0
M  V30 555 O 54.8497 -2.98904 2.84131 0
M  V30 556 H 54.1907 -0.280858 0.601677 0
M  V30 557 H 56.7207 -0.258597 2.02959 0
M  V30 558 H 56.7307 -2.30957 3.36338 0
M  V30 559 H 55.4057 -1.31511 3.9456 0
M  V30 560 H 53.9827 -2.61651 2.65694 0
M  V30 561 N 56.1678 -1.49265 -0.50573 0
M  V30 562 C 57.5838 -1.35923 -0.836486 0
M  V30 563 C 57.7838 -0.388704 -1.97715 0
M  V30 564 O 56.8398 0.181336 -2.51848 0
M  V30 565 C 58.1528 -2.76531 -1.18115 0
M  V30 566 C 59.7008 -2.85197 -1.28964 0
M  V30 567 C 60.1758 -4.26561 -1.66761 0
M  V30 568 N 61.6668 -4.2935 -1.73819 0
M  V30 569 C 62.4018 -5.35693 -2.045 0
M  V30 570 N 61.8978 -6.52287 -2.33438 0
M  V30 571 N 63.6908 -5.23105 -2.05711 0
M  V30 572 H 55.8418 -2.10965 0.246519 0
M  V30 573 H 58.1048 -0.9468 0.0476887 0
M  V30 574 H 57.8108 -3.49226 -0.416398 0
M  V30 575 H 57.6848 -3.11599 -2.1257 0
M  V30 576 H 60.0718 -2.12742 -2.04511 0
M  V30 577 H 60.1528 -2.53718 -0.325704 0
M  V30 578 H 59.7968 -4.99541 -0.917656 0
M  V30 579 H 59.7268 -4.55502 -2.64246 0
M  V30 580 H 62.2178 -3.4526 -1.53635 0
M  V30 581 H 62.5308 -7.29158 -2.56024 0
M  V30 582 H 60.8758 -6.55521 -2.30905 0
M  V30 583 H 64.0668 -4.31026 -1.82577 0
M  V30 584 H 64.2398 -6.06078 -2.29289 0
M  V30 585 N 57.6459 0.756429 -1.3826 0
M  V30 586 C 58.5759 1.88374 -1.37976 0
M  V30 587 C 59.5569 1.68311 -0.246082 0
M  V30 588 O 60.7419 1.88944 -0.44874 0
M  V30 589 C 57.8719 3.25864 -1.20125 0
M  V30 590 C 56.8259 3.60523 -2.30666 0
M  V30 591 C 56.1519 4.9672 -1.97923 0
M  V30 592 C 57.4519 3.65692 -3.72916 0
M  V30 593 H 59.1459 1.88869 -2.32312 0
M  V30 594 H 56.6919 0.907272 -1.11824 0
M  V30 595 H 58.6449 4.0438 -1.18552 0
M  V30 596 H 57.3689 3.25841 -0.222498 0
M  V30 597 H 56.0279 2.84324 -2.3142 0
M  V30 598 H 55.6759 4.93253 -0.985393 0
M  V30 599 H 55.3759 5.20878 -2.71955 0
M  V30 600 H 56.8999 5.77618 -1.97964 0
M  V30 601 H 58.3139 4.34328 -3.74208 0
M  V30 602 H 56.7109 4.01358 -4.4613 0
M  V30 603 H 57.7809 2.65987 -4.05436 0
M  V30 604 N 59.124 1.23083 0.984299 0
M  V30 605 C 60.535 1.05609 1.5396 0
M  V30 606 C 60.886 -0.377793 1.92528 0
M  V30 607 O 60.011 -1.26398 1.75649 0
M  V30 608 C 60.606 1.91087 2.7977 0
M  V30 609 C 59.165 1.77885 3.31713 0
M  V30 610 C 58.312 1.87028 2.04733 0
M  V30 611 H 61.263 1.36802 0.804419 0
M  V30 612 H 61.284 1.43336 3.5247 0
M  V30 613 H 60.796 2.9544 2.51668 0
M  V30 614 H 58.897 0.762995 3.64704 0
M  V30 615 H 59.01 2.61047 4.01735 0
M  V30 616 H 57.374 1.30565 2.18689 0
M  V30 617 H 58.157 2.92929 1.79017 0
M  V30 618 N 60.6021 -1.18246 1.0419 0
M  V30 619 C 61.8271 -1.92736 0.765996 0
M  V30 620 C 62.2521 -1.75728 -0.67091 0
M  V30 621 O 61.6101 -1.06825 -1.46486 0
M  V30 622 C 61.6581 -3.42148 1.13875 0
M  V30 623 O 60.7621 -4.11548 0.264954 0
M  V30 624 H 60.1031 -0.601238 0.281797 0
M  V30 625 H 62.6331 -1.49942 1.39207 0
M  V30 626 H 62.6431 -3.92858 1.1012 0
M  V30 627 H 61.3181 -3.53848 2.18551 0
M  V30 628 H 59.8951 -3.71137 0.362226 0
M  V30 629 N 62.0802 -0.821533 -1.34494 0
M  V30 630 C 62.9902 -0.244355 -2.33324 0
M  V30 631 C 64.0062 0.620527 -1.62559 0
M  V30 632 O 65.1822 0.528754 -1.94335 0
M  V30 633 C 62.2472 0.585368 -3.41723 0
M  V30 634 C 61.3082 -0.301752 -4.28238 0
M  V30 635 C 60.5412 0.488466 -5.3146 0
M  V30 636 O 60.7642 1.72186 -5.4379 0
M  V30 637 O 59.6982 -0.12848 -6.01763 0
M  V30 638 H 63.5242 -1.06231 -2.84515 0
M  V30 639 H 61.1092 -0.583645 -1.37528 0
M  V30 640 H 62.9912 1.05747 -4.07916 0
M  V30 641 H 61.6662 1.38068 -2.92778 0
M  V30 642 H 60.5732 -0.821315 -3.64973 0
M  V30 643 H 61.9062 -1.06138 -4.8062 0
M  V30 644 N 63.5583 1.46682 -0.576371 0
M  V30 645 C 64.8063 2.02013 -0.0594163 0
M  V30 646 C 65.1273 1.45101 1.30271 0
M  V30 647 O 64.3973 0.633317 1.8538 0
M  V30 648 H 62.9773 0.746759 -0.0189745 0
M  V30 649 H 65.6393 1.79862 -0.750717 0
M  V30 650 H 64.7353 3.12097 0.014345 0
M  V30 651 N 65.0364 0.313813 1.54444 0
M  V30 652 C 66.4474 -0.176243 1.85866 0
M  V30 653 C 66.7984 -1.52405 1.23561 0
M  V30 654 O 65.9234 -2.09605 0.538016 0
M  V30 655 C 66.5184 -0.32657 3.37222 0
M  V30 656 C 65.0774 -0.760846 3.6863 0
M  V30 657 C 64.2244 0.123247 2.77026 0
M  V30 658 H 67.1754 0.534418 1.49431 0
M  V30 659 H 67.1964 -1.15908 3.62416 0
M  V30 660 H 66.7084 0.654531 3.82541 0
M  V30 661 H 64.8094 -1.75204 3.28838 0
M  V30 662 H 64.9224 -0.571353 4.75681 0
M  V30 663 H 63.2864 -0.399597 2.51546 0
M  V30 664 H 64.0694 1.10094 3.25168 0
M  V30 665 N 66.5145 -1.57545 0.0417849 0
M  V30 666 C 67.9305 -1.56467 -0.314704 0
M  V30 667 C 68.1305 -1.04859 -1.72066 0
M  V30 668 O 67.1865 -0.700983 -2.42575 0
M  V30 669 C 68.4995 -3.00317 -0.15174 0
M  V30 670 C 70.0475 -3.12201 -0.223553 0
M  V30 671 C 70.5225 -4.57913 -0.0892295 0
M  V30 672 N 72.0135 -4.6297 -0.145808 0
M  V30 673 C 72.7485 -5.73362 -0.0658459 0
M  V30 674 N 72.2445 -6.92769 0.0659282 0
M  V30 675 N 74.0375 -5.6197 -0.12075 0
M  V30 676 H 66.1885 -1.89416 0.961014 0
M  V30 677 H 68.4515 -0.871862 0.372237 0
M  V30 678 H 68.1575 -3.42073 0.817254 0
M  V30 679 H 68.0315 -3.65892 -0.916692 0
M  V30 680 H 70.4185 -2.70349 -1.18301 0
M  V30 681 H 70.4995 -2.49323 0.571994 0
M  V30 682 H 70.1435 -5.00448 0.866867 0
M  V30 683 H 70.0735 -5.18786 -0.903802 0
M  V30 684 H 72.5645 -3.7709 -0.247286 0
M  V30 685 H 72.8775 -7.72707 0.119905 0
M  V30 686 H 71.2225 -6.94927 0.100885 0
M  V30 687 H 74.4135 -4.67572 -0.222187 0
M  V30 688 H 74.5865 -6.47977 -0.0549735 0
M  V30 689 N 67.9926 0.231505 -1.5589 0
M  V30 690 C 69.4036 0.799327 -1.68724 0
M  V30 691 C 69.7546 1.85398 -0.642022 0
M  V30 692 O 68.8796 2.1539 0.208784 0
M  V30 693 C 69.4746 1.45664 -3.05888 0
M  V30 694 C 68.0336 1.97197 -3.20609 0
M  V30 695 C 67.1806 0.828552 -2.64632 0
M  V30 696 H 70.1316 0.00702616 -1.58698 0
M  V30 697 H 70.1526 2.32517 -3.01191 0
M  V30 698 H 69.6646 0.688808 -3.81939 0
M  V30 699 H 67.7656 2.76813 -2.4941 0
M  V30 700 H 67.8786 2.15878 -4.27707 0
M  V30 701 H 66.2426 1.23321 -2.22854 0
M  V30 702 H 67.0256 0.0735544 -3.43221 0
M  V30 703 N 69.4707 1.49531 0.497807 0
M  V30 704 C 70.4337 1.65916 1.58128 0
M  V30 705 C 71.4337 0.530825 1.51786 0
M  V30 706 O 72.6237 0.797342 1.54881 0
M  V30 707 C 69.7557 1.65951 2.9778 0
M  V30 708 H 70.9487 2.62556 1.44929 0
M  V30 709 H 68.5017 1.38611 0.722275 0
M  V30 710 H 69.2367 0.709065 3.16453 0
M  V30 711 H 69.0217 2.47897 3.03792 0
M  V30 712 H 70.5117 1.80673 3.76493 0
M  V30 713 N 70.9488 -0.749086 1.3866 0
M  V30 714 C 71.8988 -1.85368 1.32751 0
M  V30 715 C 72.8828 -1.59511 0.210945 0
M  V30 716 O 74.0748 -1.71255 0.447299 0
M  V30 717 C 71.2038 -3.23131 1.15935 0
M  V30 718 C 70.2898 -3.54864 2.32233 0
M  V30 719 N 70.6808 -3.57625 3.57684 0
M  V30 720 C 68.9788 -3.85154 2.24883 0
M  V30 721 C 69.6798 -3.86753 4.34508 0
M  V30 722 N 68.6558 -4.03812 3.63918 0
M  V30 723 H 72.4578 -1.85787 2.27729 0
M  V30 724 H 69.9718 -0.946658 1.31955 0
M  V30 725 H 71.9688 -4.02185 1.09786 0
M  V30 726 H 70.6288 -3.23961 0.218947 0
M  V30 727 H 71.6398 -3.39276 3.91295 0
M  V30 728 H 68.3168 -3.93672 1.39027 0
M  V30 729 H 69.7068 -3.95474 5.43185 0
M  V30 730 N 72.4269 -1.23603 -0.977757 0
M  V30 731 C 73.6729 -1.07129 -1.72195 0
M  V30 732 C 74.0059 0.390501 -1.90233 0
M  V30 733 O 73.2809 1.28902 -1.45653 0
M  V30 734 C 73.5639 -1.80031 -3.11867 0
M  V30 735 C 73.4169 -3.33899 -3.01383 0
M  V30 736 C 74.7359 -1.56492 -4.11337 0
M  V30 737 H 71.8549 -0.390571 -0.624999 0
M  V30 738 H 74.4969 -1.52142 -1.13811 0
M  V30 739 H 72.6469 -1.41768 -3.6171 0
M  V30 740 H 74.3189 -3.81699 -2.59043 0
M  V30 741 H 72.5619 -3.62796 -2.37827 0
M  V30 742 H 73.2329 -3.801 -4.00285 0
M  V30 743 H 75.7089 -1.89757 -3.70313 0
M  V30 744 H 74.5849 -2.09973 -5.07151 0
M  V30 745 H 74.8459 -0.500874 -4.39254 0
M  V30 746 N 73.905 1.17692 -1.04816 0
M  V30 747 C 75.151 1.88137 -0.75711 0
M  V30 748 C 75.484 1.80604 0.713841 0
M  V30 749 O 74.759 1.21146 1.52164 0
M  V30 750 C 75.042 3.38318 -1.2334 0
M  V30 751 C 74.895 3.54622 -2.76701 0
M  V30 752 C 76.214 4.32214 -0.829415 0
M  V30 753 H 73.333 0.683163 -0.27651 0
M  V30 754 H 75.975 1.38424 -1.30149 0
M  V30 755 H 74.125 3.80787 -0.770286 0
M  V30 756 H 75.797 3.21194 -3.31107 0
M  V30 757 H 74.04 2.97026 -3.16161 0
M  V30 758 H 74.711 4.60028 -3.05088 0
M  V30 759 H 77.187 3.97565 -1.22805 0
M  V30 760 H 76.063 5.35838 -1.19033 0
M  V30 761 H 76.324 4.41294 0.266891 0
M  V30 762 N 75.3831 0.828654 1.34056 0
M  V30 763 C 76.6291 0.42008 1.98402 0
M  V30 764 C 76.9621 -1.01564 1.65525 0
M  V30 765 O 76.2371 -1.70834 0.929831 0
M  V30 766 C 76.5201 0.62927 3.54559 0
M  V30 767 C 76.3731 2.11152 3.97159 0
M  V30 768 C 77.6921 0.0688756 4.40046 0
M  V30 769 H 74.8111 0.154104 0.720709 0
M  V30 770 H 77.4531 1.04228 1.5886 0
M  V30 771 H 75.6031 0.0996418 3.88372 0
M  V30 772 H 77.2751 2.70522 3.73651 0
M  V30 773 H 75.5181 2.59985 3.47261 0
M  V30 774 H 76.1891 2.20868 5.05887 0
M  V30 775 H 78.6651 0.521458 4.1282 0
M  V30 776 H 77.5411 0.245006 5.48353 0
M  V30 777 H 77.8021 -1.0266 4.30015 0
M  V30 778 N 76.8612 -1.46375 0.584142 0
M  V30 779 C 78.1092 -2.01978 0.0701287 0
M  V30 780 C 78.4302 -1.4579 -1.295 0
M  V30 781 O 77.7002 -0.64314 -1.85042 0
M  V30 782 H 76.2802 -0.746648 0.0229345 0
M  V30 783 H 78.9422 -1.79461 0.760245 0
M  V30 784 H 78.0382 -3.121 0.0022064 0
M  V30 785 N 78.3393 -0.321999 -1.54275 0
M  V30 786 C 79.6163 0.335232 -1.92706 0
M  V30 787 C 79.9963 1.70006 -1.25145 0
M  V30 788 O 79.3443 2.25067 -0.394596 0
M  V30 789 C 79.5543 0.429008 -3.46353 0
M  V30 790 C 80.9023 0.690029 -4.18956 0
M  V30 791 O 81.9263 0.511992 -3.52501 0
M  V30 792 O 80.7853 1.03338 -5.36641 0
M  V30 793 H 77.8793 0.191143 -0.804608 0
M  V30 794 H 80.4253 -0.3716 -1.65581 0
M  V30 795 H 79.1973 -0.529611 -3.87699 0
M  V30 796 H 78.8203 1.18348 -3.79578 0
M  V30 797 N 79.8174 1.5752 -0.0501392 0
M  V30 798 C 81.0634 1.92936 0.624798 0
M  V30 799 C 81.3964 0.928685 1.70555 0
M  V30 800 O 80.6714 -0.0454779 1.94447 0
M  V30 801 C 80.9544 3.38737 1.22185 0
M  V30 802 C 80.8074 4.49552 0.149218 0
M  V30 803 C 82.1264 3.84913 2.13378 0
M  V30 804 H 79.2454 0.701604 0.225657 0
M  V30 805 H 81.8874 1.89671 -0.111693 0
M  V30 806 H 80.0374 3.4165 1.84953 0
M  V30 807 H 81.7094 4.58768 -0.482648 0
M  V30 808 H 79.9524 4.30638 -0.522841 0
M  V30 809 H 80.6234 5.48653 0.606966 0
M  V30 810 H 83.0994 3.8387 1.60572 0
M  V30 811 H 81.9754 4.87584 2.52097 0
M  V30 812 H 82.2364 3.21611 3.03346 0
M  V30 813 N 81.2955 -0.223234 1.56011 0
M  V30 814 C 82.2255 -1.27988 1.95298 0
M  V30 815 C 83.2065 -1.48976 0.820979 0
M  V30 816 O 84.3915 -1.61188 1.08315 0
M  V30 817 C 81.5215 -2.63 2.26822 0
M  V30 818 C 80.4755 -2.56671 3.42497 0
M  V30 819 C 79.8015 -3.95697 3.59622 0
M  V30 820 C 81.1015 -2.11601 4.77517 0
M  V30 821 H 82.7955 -0.953525 2.8381 0
M  V30 822 H 80.3415 -0.457244 1.36548 0
M  V30 823 H 82.2945 -3.37077 2.52898 0
M  V30 824 H 81.0185 -2.9732 1.35161 0
M  V30 825 H 79.6775 -1.85051 3.16467 0
M  V30 826 H 79.3255 -4.27322 2.6534 0
M  V30 827 H 79.0255 -3.92345 4.37424 0
M  V30 828 H 80.5495 -4.71438 3.88044 0
M  V30 829 H 81.9635 -2.7542 5.02809 0
M  V30 830 H 80.3605 -2.19311 5.5859 0
M  V30 831 H 81.4305 -1.06824 4.72987 0
M  V30 832 N 82.7736 -1.49793 -0.48987 0
M  V30 833 C 83.7056 -1.63413 -1.60713 0
M  V30 834 C 84.7186 -0.516329 -1.54395 0
M  V30 835 O 85.9076 -0.788812 -1.60125 0
M  V30 836 C 83.0076 -1.58516 -2.99543 0
M  V30 837 C 82.1806 -2.86016 -3.30928 0
M  V30 838 C 81.2396 -2.74018 -4.49222 0
M  V30 839 O 80.2656 -3.47964 -4.50455 0
M  V30 840 N 81.4676 -1.86309 -5.4979 0
M  V30 841 H 84.2326 -2.59777 -1.49452 0
M  V30 842 H 81.7936 -1.47022 -0.677955 0
M  V30 843 H 83.7856 -1.48128 -3.76617 0
M  V30 844 H 82.3556 -0.69965 -3.0467 0
M  V30 845 H 81.5756 -3.10672 -2.42645 0
M  V30 846 H 82.8636 -3.70521 -3.487 0
M  V30 847 H 82.2616 -1.2551 -5.51601 0
M  V30 848 H 80.8186 -1.81837 -6.25922 0
M  V30 849 N 84.2517 0.741722 -1.39055 0
M  V30 850 C 85.2147 1.83733 -1.37021 0
M  V30 851 C 86.2147 1.58542 -0.268534 0
M  V30 852 O 87.4047 1.66067 -0.526076 0
M  V30 853 C 84.5367 3.2141 -1.13617 0
M  V30 854 H 85.7297 1.86941 -2.34506 0
M  V30 855 H 83.2827 0.944676 -1.24521 0
M  V30 856 H 84.0177 3.23865 -0.167863 0
M  V30 857 H 83.8027 3.4109 -1.93391 0
M  V30 858 H 85.2927 4.01477 -1.14918 0
M  V30 859 N 85.7298 1.2412 0.971189 0
M  V30 860 C 86.6928 1.03156 2.04674 0
M  V30 861 C 87.6928 -0.00990322 1.60797 0
M  V30 862 O 88.8828 0.230729 1.72665 0
M  V30 863 C 86.0148 0.562765 3.36223 0
M  V30 864 H 87.2078 1.98614 2.24705 0
M  V30 865 H 84.7608 1.06293 1.14593 0
M  V30 866 H 85.4958 -0.395176 3.21883 0
M  V30 867 H 85.2808 1.31441 3.69413 0
M  V30 868 H 86.7708 0.437015 4.15307 0
M  V30 869 N 87.2079 -1.17134 1.05439 0
M  V30 870 C 88.4849 -1.83411 0.679699 0
M  V30 871 C 88.8649 -1.9368 -0.839726 0
M  V30 872 O 88.2129 -1.47325 -1.74664 0
M  V30 873 C 88.4229 -3.20918 1.37159 0
M  V30 874 C 89.7709 -3.96796 1.51123 0
M  V30 875 O 90.7949 -3.30406 1.3308 0
M  V30 876 O 89.6539 -5.15778 1.80651 0
M  V30 877 H 86.7479 -0.79154 0.239569 0
M  V30 878 H 89.2939 -1.24411 1.15413 0
M  V30 879 H 88.0659 -3.08428 2.40807 0
M  V30 880 H 87.6889 -3.87587 0.886674 0
M  V30 881 N 88.686 -0.835752 -1.33615 0
M  V30 882 C 89.932 -0.430596 -1.98176 0
M  V30 883 C 90.265 1.00684 -1.66061 0
M  V30 884 O 89.54 1.70339 -0.938877 0
M  V30 885 C 89.823 -0.648065 -3.5422 0
M  V30 886 C 89.676 -2.13255 -3.96033 0
M  V30 887 C 90.995 -0.0922113 -4.40003 0
M  V30 888 H 88.114 -0.157924 -0.719881 0
M  V30 889 H 90.756 -1.05069 -1.58305 0
M  V30 890 H 88.906 -0.120237 -3.88314 0
M  V30 891 H 90.578 -2.725 -3.72211 0
M  V30 892 H 88.821 -2.61823 -3.45878 0
M  V30 893 H 89.492 -2.23547 -5.04708 0
M  V30 894 H 91.968 -0.543343 -4.12537 0
M  V30 895 H 90.844 -0.274083 -5.48215 0
M  V30 896 H 91.105 1.00378 -4.30554 0
M  V30 897 N 90.1641 1.46063 -0.591896 0
M  V30 898 C 91.4411 1.95595 -0.0137119 0
M  V30 899 C 91.8211 1.5345 1.4497 0
M  V30 900 O 91.1691 0.789543 2.14426 0
M  V30 901 C 91.3791 3.48453 -0.195373 0
M  V30 902 C 92.7271 4.24546 -0.0679765 0
M  V30 903 O 93.7511 3.55982 -0.124681 0
M  V30 904 O 92.6101 5.46467 0.0600579 0
M  V30 905 H 89.7041 0.825795 0.0446279 0
M  V30 906 H 92.2501 1.56303 -0.660859 0
M  V30 907 H 91.0221 3.72045 -1.21235 0
M  V30 908 H 90.6451 3.94597 0.487775 0
M  V30 909 N 91.6422 0.330177 1.54103 0
M  V30 910 C 92.5892 -0.532762 2.24567 0
M  V30 911 C 93.5592 -1.10635 1.23892 0
M  V30 912 O 94.7442 -1.14546 1.5259 0
M  V30 913 C 91.8842 -1.6845 3.01195 0
M  V30 914 C 90.9972 -1.13951 4.167 0
M  V30 915 C 90.1322 -2.25746 4.80845 0
M  V30 916 C 89.1712 -1.6853 5.88442 0
M  V30 917 N 88.3082 -2.74014 6.46421 0
M  V30 918 H 93.1482 0.0746905 2.97906 0
M  V30 919 H 90.6852 0.048632 1.4702 0
M  V30 920 H 92.6432 -2.36234 3.43874 0
M  V30 921 H 91.2732 -2.26314 2.30178 0
M  V30 922 H 90.3252 -0.35301 3.78758 0
M  V30 923 H 91.6372 -0.680892 4.94131 0
M  V30 924 H 90.7912 -3.01422 5.26526 0
M  V30 925 H 89.5302 -2.74947 4.0281 0
M  V30 926 H 88.5352 -0.913543 5.42157 0
M  V30 927 H 89.7602 -1.20198 6.68378 0
M  V30 928 H 87.7062 -3.22494 5.71256 0
M  V30 929 H 87.6232 -2.32735 7.19285 0
M  V30 930 H 88.8912 -3.49499 6.96757 0
M  V30 931 N 93.1203 -1.57491 0.0584922 0
M  V30 932 C 94.3483 -1.97296 -0.623037 0
M  V30 933 C 94.7633 -0.936338 -1.63946 0
M  V30 934 O 94.1203 0.0785981 -1.82331 0
M  V30 935 C 94.1713 -3.37183 -1.30345 0
M  V30 936 O 93.8923 -4.36872 -0.32773 0
M  V30 937 C 95.3933 -3.91788 -2.07406 0
M  V30 938 H 92.6133 -0.649153 -0.169826 0
M  V30 939 H 95.1573 -2.04106 0.12696 0
M  V30 940 H 93.3123 -3.31502 -2.00463 0
M  V30 941 H 93.7263 -5.18141 -0.814269 0
M  V30 942 H 95.2003 -4.91926 -2.50425 0
M  V30 943 H 95.6773 -3.27609 -2.92521 0
M  V30 944 H 96.2833 -4.00829 -1.42184 0
M  V30 945 N 94.5984 0.214957 -1.56127 0
M  V30 946 C 95.8444 0.939762 -1.79712 0
M  V30 947 C 96.1774 1.83723 -0.629247 0
M  V30 948 O 95.4524 1.90925 0.371197 0
M  V30 949 C 95.7354 1.77306 -3.13424 0
M  V30 950 C 95.5884 0.90164 -4.40671 0
M  V30 951 C 96.9074 2.74956 -3.43638 0
M  V30 952 H 94.0264 0.340214 -0.653776 0
M  V30 953 H 96.6684 0.20824 -1.88855 0
M  V30 954 H 94.8184 2.39673 -3.0576 0
M  V30 955 H 96.4904 0.294206 -4.60361 0
M  V30 956 H 94.7334 0.207368 -4.33304 0
M  V30 957 H 95.4044 1.51923 -5.30682 0
M  V30 958 H 97.8804 2.22724 -3.51473 0
M  V30 959 H 96.7564 3.30358 -4.38355 0
M  V30 960 H 97.0174 3.53023 -2.66134 0
M  V30 961 N 96.0765 1.50051 0.48192 0
M  V30 962 C 97.0395 1.67584 1.5636 0
M  V30 963 C 98.0395 0.546894 1.51214 0
M  V30 964 O 99.2295 0.813725 1.54026 0
M  V30 965 C 96.3615 1.691 2.96003 0
M  V30 966 H 97.5545 2.64078 1.42136 0
M  V30 967 H 95.1075 1.39369 0.707533 0
M  V30 968 H 95.8425 0.742589 3.15684 0
M  V30 969 H 95.6275 2.51105 3.01146 0
M  V30 970 H 97.1175 1.84656 3.74556 0
M  V30 971 N 97.5546 -0.734337 1.39446 0
M  V30 972 C 98.8026 -1.49096 1.36436 0
M  V30 973 C 99.1236 -1.94961 -0.0388255 0
M  V30 974 O 98.3936 -1.69033 -0.990191 0
M  V30 975 H 96.9736 -0.5531 0.502085 0
M  V30 976 H 99.6356 -0.871725 1.74319 0
M  V30 977 H 98.7316 -2.37276 2.02747 0
M  V30 978 N 99.0327 -1.24633 -0.964593 0
M  V30 979 C 99.9647 -0.999302 -2.06268 0
M  V30 980 C 100.978 0.0323226 -1.62768 0
M  V30 981 O 102.167 -0.205079 -1.77318 0
M  V30 982 C 99.2667 -0.486816 -3.35385 0
M  V30 983 C 98.4397 -1.5823 -4.07777 0
M  V30 984 C 97.4987 -1.07191 -5.15166 0
M  V30 985 O 96.5247 -1.76426 -5.41168 0
M  V30 986 N 97.7267 0.0920373 -5.80427 0
M  V30 987 H 100.492 -1.94477 -2.28033 0
M  V30 988 H 98.0527 -1.15704 -1.13244 0
M  V30 989 H 100.045 -0.130066 -4.04491 0
M  V30 990 H 98.6147 0.364459 -3.10468 0
M  V30 991 H 97.8347 -2.11109 -3.32906 0
M  V30 992 H 99.1227 -2.31854 -4.52903 0
M  V30 993 H 98.5207 0.670784 -5.61709 0
M  V30 994 H 97.0777 0.389905 -6.50633 0
M  V30 995 N 100.511 1.16574 -1.06058 0
M  V30 996 C 101.788 1.83048 -0.689416 0
M  V30 997 C 102.168 1.94122 0.829443 0
M  V30 998 O 101.516 1.48249 1.7388 0
M  V30 999 C 101.726 3.20186 -1.38859 0
M  V30 1000 C 103.074 3.95989 -1.53226 0
M  V30 1001 O 104.098 3.29696 -1.3483 0
M  V30 1002 O 102.957 5.14813 -1.83384 0
M  V30 1003 H 100.051 0.790258 -0.243764 0
M  V30 1004 H 102.597 1.23797 -1.16071 0
M  V30 1005 H 101.369 3.07146 -2.4244 0
M  V30 1006 H 100.992 3.87112 -0.907216 0
M  V30 1007 N 101.989 0.842826 1.3317 0
M  V30 1008 C 102.952 0.284065 2.27433 0
M  V30 1009 C 103.952 -0.54948 1.5112 0
M  V30 1010 O 105.142 -0.362699 1.70382 0
M  V30 1011 C 102.274 -0.599384 3.35589 0
M  V30 1012 H 103.467 1.11589 2.78366 0
M  V30 1013 H 101.02 0.616221 1.4364 0
M  V30 1014 H 101.755 -1.45349 2.89904 0
M  V30 1015 H 101.54 -0.00291266 3.921 0
M  V30 1016 H 103.03 -0.983488 4.05854 0
M  V30 1017 N 103.467 -1.45747 0.599634 0
M  V30 1018 C 104.713 -2.02592 0.0918643 0
M  V30 1019 C 105.046 -1.46806 -1.27128 0
M  V30 1020 O 104.321 -0.639658 -1.83681 0
M  V30 1021 C 104.604 -3.60073 0.0443398 0
M  V30 1022 C 104.457 -4.26208 1.43759 0
M  V30 1023 C 105.776 -4.35309 -0.647608 0
M  V30 1024 H 102.895 -0.736175 0.034857 0
M  V30 1025 H 105.537 -1.73694 0.770081 0
M  V30 1026 H 103.687 -3.84823 -0.533224 0
M  V30 1027 H 105.359 -4.12668 2.06162 0
M  V30 1028 H 103.602 -3.84916 2.00056 0
M  V30 1029 H 104.273 -5.35069 1.35665 0
M  V30 1030 H 106.749 -4.15805 -0.156776 0
M  V30 1031 H 105.625 -5.45038 -0.649942 0
M  V30 1032 H 105.886 -4.07598 -1.71219 0
M  V30 1033 N 104.945 -0.338344 -1.53925 0
M  V30 1034 C 106.194 0.260732 -2.00008 0
M  V30 1035 C 106.507 1.52073 -1.23017 0
M  V30 1036 O 107.713 2.19672 -1.5955 0
M  V30 1037 C 106.169 0.51515 -3.56194 0
M  V30 1038 C 105.777 -0.728645 -4.42035 0
M  V30 1039 C 107.521 1.07337 -4.10706 0
M  V30 1040 C 105.428 -0.445315 -5.89721 0
M  V30 1041 H 104.358 0.101205 -0.747177 0
M  V30 1042 H 107.009 -0.452866 -1.77824 0
M  V30 1043 H 105.391 1.28932 -3.74423 0
M  V30 1044 H 106.565 -1.50352 -4.35581 0
M  V30 1045 H 104.88 -1.20813 -3.98489 0
M  V30 1046 H 107.477 1.30022 -5.18651 0
M  V30 1047 H 107.82 2.0273 -3.63602 0
M  V30 1048 H 108.353 0.360034 -3.96167 0
M  V30 1049 H 105.092 -1.36883 -6.41049 0
M  V30 1050 H 104.612 0.291569 -5.99091 0
M  V30 1051 H 106.291 -0.0606218 -6.46972 0
M  V30 1052 N 106.423 1.57458 -0.0668435 0
M  V30 1053 C 107.669 1.93587 0.6043 0
M  V30 1054 C 108.002 0.946722 1.69561 0
M  V30 1055 O 107.277 -0.0248516 1.94484 0
M  V30 1056 C 107.56 3.40014 1.18585 0
M  V30 1057 C 107.413 4.49685 0.101529 0
M  V30 1058 C 108.732 3.87154 2.09284 0
M  V30 1059 H 105.851 0.703958 0.218202 0
M  V30 1060 H 108.493 1.89542 -0.131804 0
M  V30 1061 H 106.643 3.43592 1.81319 0
M  V30 1062 H 108.315 4.5823 -0.531279 0
M  V30 1063 H 106.558 4.30059 -0.568487 0
M  V30 1064 H 107.229 5.49266 0.54874 0
M  V30 1065 H 109.705 3.85551 1.56491 0
M  V30 1066 H 108.581 4.90231 2.46911 0
M  V30 1067 H 108.842 3.2481 2.99918 0
M  V30 1068 N 107.901 -0.206675 1.56239 0
M  V30 1069 C 108.831 -1.25909 1.96645 0
M  V30 1070 C 109.812 -1.48097 0.836734 0
M  V30 1071 O 110.997 -1.6003 1.10019 0
M  V30 1072 C 108.127 -2.6058 2.29599 0
M  V30 1073 C 107.081 -2.53024 3.452 0
M  V30 1074 C 106.407 -3.91861 3.63798 0
M  V30 1075 C 107.707 -2.06524 4.79734 0
M  V30 1076 H 109.401 -0.923369 2.84806 0
M  V30 1077 H 106.947 -0.442735 1.37025 0
M  V30 1078 H 108.9 -3.34375 2.56459 0
M  V30 1079 H 107.624 -2.95869 1.38307 0
M  V30 1080 H 106.283 -1.81684 3.18412 0
M  V30 1081 H 105.931 -4.24483 2.69857 0
M  V30 1082 H 105.631 -3.87683 4.4156 0
M  V30 1083 H 107.155 -4.67296 3.93022 0
M  V30 1084 H 108.569 -2.70072 5.05702 0
M  V30 1085 H 106.966 -2.13374 5.60885 0
M  V30 1086 H 108.036 -1.01802 4.74093 0
M  V30 1087 N 109.379 -1.50304 -0.473955 0
M  V30 1088 C 110.309 -1.71886 -1.58042 0
M  V30 1089 C 111.29 -0.567799 -1.60344 0
M  V30 1090 O 112.475 -0.806623 -1.76656 0
M  V30 1091 C 109.605 -1.81036 -2.96384 0
M  V30 1092 C 108.559 -2.962 -3.08949 0
M  V30 1093 C 107.885 -2.9049 -4.48909 0
M  V30 1094 C 109.185 -4.36752 -2.86434 0
M  V30 1095 H 110.879 -2.64527 -1.40234 0
M  V30 1096 H 108.425 -1.27295 -0.673201 0
M  V30 1097 H 110.378 -1.94719 -3.73714 0
M  V30 1098 H 109.102 -0.850147 -3.15341 0
M  V30 1099 H 107.761 -2.82164 -2.3405 0
M  V30 1100 H 107.409 -1.92321 -4.64781 0
M  V30 1101 H 107.109 -3.67802 -4.58253 0
M  V30 1102 H 108.633 -3.06218 -5.28264 0
M  V30 1103 H 110.047 -4.5133 -3.53517 0
M  V30 1104 H 108.444 -5.15493 -3.07225 0
M  V30 1105 H 109.514 -4.49321 -1.82316 0
M  V30 1106 N 110.857 0.726932 -1.39834 0
M  V30 1107 C 112.105 1.4837 -1.37225 0
M  V30 1108 C 112.426 1.94979 0.0284857 0
M  V30 1109 O 111.696 1.69555 0.981213 0
M  V30 1110 H 110.276 0.55043 -0.505011 0
M  V30 1111 H 112.938 0.862468 -1.74778 0
M  V30 1112 H 112.034 2.36198 -2.04003 0
M  V30 1113 N 112.336 1.25143 0.95797 0
M  V30 1114 C 113.564 1.12424 1.73691 0
M  V30 1115 C 113.979 -0.322304 1.86029 0
M  V30 1116 O 113.336 -1.22186 1.35561 0
M  V30 1117 C 113.387 1.76933 3.15241 0
M  V30 1118 O 113.108 3.15932 3.03511 0
M  V30 1119 C 114.609 1.6995 4.09429 0
M  V30 1120 H 111.829 0.3923 0.544373 0
M  V30 1121 H 114.373 1.6544 1.20207 0
M  V30 1122 H 112.528 1.27895 3.6568 0
M  V30 1123 H 112.942 3.47598 3.9278 0
M  V30 1124 H 114.416 2.19753 5.06372 0
M  V30 1125 H 114.893 0.662619 4.34173 0
M  V30 1126 H 115.499 2.18461 3.64904 0
M  V30 1127 N 113.814 -1.1601 1.06675 0
M  V30 1128 C 115.23 -1.38622 0.790948 0
M  V30 1129 C 115.43 -1.92109 -0.607965 0
M  V30 1130 O 114.486 -2.12239 -1.36787 0
M  V30 1131 C 115.799 -2.36347 1.85905 0
M  V30 1132 C 117.347 -2.50023 1.88301 0
M  V30 1133 C 117.822 -3.51033 2.94176 0
M  V30 1134 N 119.313 -3.58563 2.93235 0
M  V30 1135 C 120.048 -4.36521 3.71803 0
M  V30 1136 N 119.544 -5.17869 4.602 0
M  V30 1137 N 121.337 -4.31541 3.60178 0
M  V30 1138 H 113.488 -0.796294 1.96908 0
M  V30 1139 H 115.751 -0.412597 0.853503 0
M  V30 1140 H 115.457 -2.04147 2.86386 0
M  V30 1141 H 115.331 -3.36042 1.71334 0
M  V30 1142 H 117.718 -2.81524 0.884769 0
M  V30 1143 H 117.799 -1.5035 2.06951 0
M  V30 1144 H 117.443 -3.20268 3.94196 0
M  V30 1145 H 117.373 -4.50445 2.72776 0
M  V30 1146 H 119.864 -3.00496 2.29152 0
M  V30 1147 H 120.177 -5.74578 5.16797 0
M  V30 1148 H 118.522 -5.17199 4.64253 0
M  V30 1149 H 121.713 -3.67051 2.90502 0
M  V30 1150 H 121.886 -4.9205 4.21653 0
M  V30 1151 N 115.292 -0.849877 -1.32721 0
M  V30 1152 C 116.24 -0.279745 -2.30912 0
M  V30 1153 C 117.234 0.594278 -1.58634 0
M  V30 1154 O 118.44 0.482613 -1.73409 0
M  V30 1155 H 114.815 -0.0717521 -0.748569 0
M  V30 1156 H 116.786 -1.12222 -2.76494 0
M  V30 1157 C 115.535 0.521108 -3.43773 0
M  V30 1158 H 114.858 -0.142141 -3.99547 0
M  V30 1159 H 116.298 0.885693 -4.14646 0
M  V30 1160 C 114.757 1.70442 -2.90605 0
M  V30 1161 O 115.287 2.8034 -2.87702 0
M  V30 1162 N 113.493 1.52991 -2.47067 0
M  V30 1163 H 113.04 0.635914 -2.49628 0
M  V30 1164 H 112.998 2.32311 -2.11847 0
M  V30 1165 N 116.77 1.45427 -0.607355 0
M  V30 1166 C 118.047 1.9557 -0.0344566 0
M  V30 1167 C 118.427 1.54979 1.43334 0
M  V30 1168 O 117.775 0.812241 2.13576 0
M  V30 1169 C 117.985 3.48226 -0.232321 0
M  V30 1170 C 119.333 4.2445 -0.113001 0
M  V30 1171 O 120.357 3.55829 -0.162431 0
M  V30 1172 O 119.216 5.465 0.00209442 0
M  V30 1173 H 116.31 0.826222 0.0358667 0
M  V30 1174 H 118.856 1.55594 -0.6774 0
M  V30 1175 H 117.628 3.70739 -1.25174 0
M  V30 1176 H 117.251 3.95092 0.445896 0
M  V30 1177 N 118.248 0.346503 1.53744 0
M  V30 1178 C 119.178 -0.501193 2.28058 0
M  V30 1179 C 120.159 -1.10014 1.29734 0
M  V30 1180 O 121.344 -1.12097 1.58581 0
M  V30 1181 C 118.474 -1.65078 3.05559 0
M  V30 1182 C 117.428 -1.18003 4.11411 0
M  V30 1183 C 116.754 -2.41837 4.76884 0
M  V30 1184 C 118.054 -0.278394 5.21558 0
M  V30 1185 H 119.748 0.11875 2.99164 0
M  V30 1186 H 117.294 0.0585531 1.43881 0
M  V30 1187 H 119.247 -2.25028 3.56287 0
M  V30 1188 H 117.971 -2.29767 2.32109 0
M  V30 1189 H 116.63 -0.603331 3.61601 0
M  V30 1190 H 116.278 -3.0494 4.00026 0
M  V30 1191 H 115.978 -2.1102 5.48402 0
M  V30 1192 H 117.502 -3.02508 5.30397 0
M  V30 1193 H 118.916 -0.784823 5.67903 0
M  V30 1194 H 117.313 -0.0619707 6.00068 0
M  V30 1195 H 118.383 0.684677 4.80042 0
M  V30 1196 N 119.726 -1.57421 0.075193 0
M  V30 1197 C 120.951 -1.98364 -0.605515 0
M  V30 1198 C 121.376 -0.953383 -1.62149 0
M  V30 1199 O 120.734 0.0806053 -1.81121 0
M  V30 1200 C 120.782 -3.38332 -1.24756 0
M  V30 1201 O 119.886 -3.37959 -2.36342 0
M  V30 1202 H 119.227 -0.645553 -0.155428 0
M  V30 1203 H 121.757 -2.04044 0.150714 0
M  V30 1204 H 121.767 -3.75591 -1.5936 0
M  V30 1205 H 120.442 -4.12846 -0.503129 0
M  V30 1206 H 119.019 -3.12474 -2.03506 0
M  V30 1207 N 121.204 0.198386 -1.56346 0
M  V30 1208 C 122.615 0.763358 -1.70381 0
M  V30 1209 C 122.966 1.83995 -0.681203 0
M  V30 1210 O 122.091 2.15785 0.16305 0
M  V30 1211 C 122.686 1.39143 -3.08909 0
M  V30 1212 C 121.245 1.90352 -3.2472 0
M  V30 1213 C 120.392 0.772233 -2.6633 0
M  V30 1214 H 123.343 -0.0266377 -1.58678 0
M  V30 1215 H 123.364 2.26076 -3.06055 0
M  V30 1216 H 122.876 0.607638 -3.83314 0
M  V30 1217 H 120.977 2.71461 -2.55225 0
M  V30 1218 H 121.09 2.06757 -4.3219 0
M  V30 1219 H 119.454 1.18566 -2.2542 0
M  V30 1220 H 120.237 0.00073556 -3.433 0
M  V30 1221 N 122.682 1.50554 0.465978 0
M  V30 1222 C 123.91 1.65563 1.24083 0
M  V30 1223 C 124.325 0.341051 1.85694 0
M  V30 1224 O 123.682 -0.677543 1.69457 0
M  V30 1225 C 123.733 2.75051 2.34583 0
M  V30 1226 O 123.454 4.01413 1.75497 0
M  V30 1227 C 124.955 3.01078 3.25372 0
M  V30 1228 H 122.175 0.55638 0.375077 0
M  V30 1229 H 124.719 1.96807 0.555624 0
M  V30 1230 H 122.874 2.46486 2.9887 0
M  V30 1231 H 123.288 4.62002 2.48303 0
M  V30 1232 H 124.762 3.81339 3.99105 0
M  V30 1233 H 125.239 2.12349 3.84453 0
M  V30 1234 H 125.845 3.31194 2.66816 0
M  V30 1235 N 124.16 -0.719506 1.40217 0
M  V30 1236 C 125.388 -1.50864 1.41589 0
M  V30 1237 C 125.803 -1.88794 0.0145275 0
M  V30 1238 O 125.16 -1.55174 -0.960594 0
M  V30 1239 C 125.211 -2.78646 2.30302 0
M  V30 1240 O 124.932 -2.42321 3.64983 0
M  V30 1241 C 126.433 -3.72569 2.40224 0
M  V30 1242 H 123.653 -0.465709 0.48307 0
M  V30 1243 H 126.197 -0.88785 1.84221 0
M  V30 1244 H 124.352 -3.37019 1.91042 0
M  V30 1245 H 124.766 -3.24514 4.12057 0
M  V30 1246 H 126.24 -4.5908 3.06512 0
M  V30 1247 H 126.717 -4.15403 1.42608 0
M  V30 1248 H 127.323 -3.20109 2.80019 0
M  V30 1249 N 125.638 -1.25649 -0.95132 0
M  V30 1250 C 126.884 -1.10757 -1.69884 0
M  V30 1251 C 127.217 0.350061 -1.91019 0
M  V30 1252 O 126.492 1.25783 -1.48354 0
M  V30 1253 C 126.775 -1.86606 -3.07978 0
M  V30 1254 C 126.628 -3.40217 -2.94232 0
M  V30 1255 C 127.947 -1.65182 -4.07925 0
M  V30 1256 H 125.066 -0.40374 -0.616574 0
M  V30 1257 H 127.708 -1.54521 -1.10558 0
M  V30 1258 H 125.858 -1.49409 -3.58621 0
M  V30 1259 H 127.53 -3.87108 -2.50889 0
M  V30 1260 H 125.773 -3.67759 -2.30078 0
M  V30 1261 H 126.444 -3.88505 -3.92133 0
M  V30 1262 H 128.92 -1.9757 -3.66204 0
M  V30 1263 H 127.796 -2.20683 -5.02583 0
M  V30 1264 H 128.057 -0.593933 -4.38092 0
M  V30 1265 N 127.117 1.15442 -1.07289 0
M  V30 1266 C 128.05 2.19135 -0.636798 0
M  V30 1267 C 129.028 1.58884 0.34562 0
M  V30 1268 O 130.212 1.86805 0.252195 0
M  V30 1269 C 127.339 3.38638 0.0650014 0
M  V30 1270 C 126.385 4.17412 -0.87576 0
M  V30 1271 S 127.218 4.79882 -2.37642 0
M  V30 1272 C 128.374 6.02753 -1.6864 0
M  V30 1273 H 128.607 2.55787 -1.51526 0
M  V30 1274 H 126.14 1.26394 -0.886793 0
M  V30 1275 H 128.098 4.07873 0.463664 0
M  V30 1276 H 126.759 3.00331 0.919801 0
M  V30 1277 H 125.952 5.02909 -0.33143 0
M  V30 1278 H 125.554 3.53722 -1.21478 0
M  V30 1279 H 127.846 6.70113 -0.997753 0
M  V30 1280 H 128.789 6.61754 -2.51967 0
M  V30 1281 H 129.197 5.52355 -1.16465 0
M  V30 1282 N 128.595 0.856903 1.32268 0
M  V30 1283 C 129.82 0.474569 2.01897 0
M  V30 1284 C 130.245 -0.921766 1.63967 0
M  V30 1285 O 129.603 -1.60589 0.84148 0
M  V30 1286 C 129.651 0.623799 3.55164 0
M  V30 1287 O 128.755 -0.342459 4.10976 0
M  V30 1288 H 128.096 0.190422 0.63611 0
M  V30 1289 H 130.626 1.15672 1.68764 0
M  V30 1290 H 130.636 0.512169 4.04773 0
M  V30 1291 H 129.311 1.64202 3.82113 0
M  V30 1292 H 127.888 -0.18688 3.72431 0
M  V30 1293 N 130.073 -1.45103 0.615059 0
M  V30 1294 C 130.983 -2.34382 -0.101034 0
M  V30 1295 C 131.999 -1.51681 -0.852585 0
M  V30 1296 O 133.175 -1.8446 -0.808484 0
M  V30 1297 C 130.24 -3.29417 -1.08099 0
M  V30 1298 C 129.301 -4.28025 -0.330577 0
M  V30 1299 C 128.534 -5.1852 -1.26385 0
M  V30 1300 O 128.757 -5.12598 -2.50198 0
M  V30 1301 O 127.691 -5.97122 -0.756866 0
M  V30 1302 H 131.517 -2.97033 0.632855 0
M  V30 1303 H 129.102 -1.4461 0.375293 0
M  V30 1304 H 130.984 -3.87958 -1.6452 0
M  V30 1305 H 129.659 -2.69321 -1.79577 0
M  V30 1306 H 128.566 -3.73078 0.276283 0
M  V30 1307 H 129.899 -4.90997 0.343866 0
M  V30 1308 N 131.551 -0.354651 -1.53558 0
M  V30 1309 C 132.799 0.237972 -2.00694 0
M  V30 1310 C 133.12 1.50173 -1.24391 0
M  V30 1311 O 132.39 1.92673 -0.354135 0
M  V30 1312 H 130.97 0.0909256 -0.741446 0
M  V30 1313 H 133.632 -0.478368 -1.88938 0
M  V30 1314 H 132.728 0.47264 -3.085 0
M  V30 1315 N 133.029 1.57378 -0.0835403 0
M  V30 1316 C 133.992 2.12252 0.864959 0
M  V30 1317 C 134.992 1.04916 1.21858 0
M  V30 1318 O 136.182 1.30853 1.14991 0
M  V30 1319 C 133.314 2.63358 2.16461 0
M  V30 1320 H 134.507 2.97371 0.388676 0
M  V30 1321 H 132.06 1.55423 0.165317 0
M  V30 1322 H 132.795 1.81727 2.686 0
M  V30 1323 H 132.58 3.41826 1.92087 0
M  V30 1324 H 134.07 3.05847 2.84337 0
M  V30 1325 N 134.507 -0.190092 1.56449 0
M  V30 1326 C 135.923 -0.54113 1.50146 0
M  V30 1327 C 136.123 -1.85603 0.784465 0
M  V30 1328 O 135.179 -2.5024 0.337051 0
M  V30 1329 C 136.492 -0.591241 2.9483 0
M  V30 1330 C 138.04 -0.679732 3.0553 0
M  V30 1331 C 138.515 -0.760908 4.51635 0
M  V30 1332 N 140.006 -0.824302 4.55806 0
M  V30 1333 C 140.741 -0.907365 5.66175 0
M  V30 1334 N 140.237 -0.952422 6.86222 0
M  V30 1335 N 142.03 -0.94494 5.541 0
M  V30 1336 H 134.181 0.67235 2.01478 0
M  V30 1337 H 136.444 0.240127 0.917084 0
M  V30 1338 H 136.15 0.305905 3.50367 0
M  V30 1339 H 136.024 -1.44422 3.48457 0
M  V30 1340 H 138.411 -1.56731 2.50039 0
M  V30 1341 H 138.492 0.199549 2.5502 0
M  V30 1342 H 138.136 0.122336 5.07753 0
M  V30 1343 H 138.066 -1.65606 4.99882 0
M  V30 1344 H 140.557 -0.798526 3.69367 0
M  V30 1345 H 140.87 -1.01645 7.66086 0
M  V30 1346 H 139.215 -0.921014 6.8887 0
M  V30 1347 H 142.406 -0.906612 4.59236 0
M  V30 1348 H 142.579 -1.00622 6.4014 0
M  V30 1349 N 135.985 -1.50799 -0.457987 0
M  V30 1350 C 136.933 -1.71162 -1.575 0
M  V30 1351 C 137.927 -0.577592 -1.59249 0
M  V30 1352 O 139.133 -0.758443 -1.63241 0
M  V30 1353 H 135.508 -0.540468 -0.522875 0
M  V30 1354 H 137.479 -2.64837 -1.37492 0
M  V30 1355 C 136.228 -1.83496 -2.95338 0
M  V30 1356 H 135.551 -2.70153 -2.94716 0
M  V30 1357 H 136.991 -2.01765 -3.72917 0
M  V30 1358 C 135.45 -0.589694 -3.31699 0
M  V30 1359 O 135.98 0.265163 -4.00824 0
M  V30 1360 N 134.186 -0.439845 -2.87252 0
M  V30 1361 H 133.733 -1.13655 -2.31172 0
M  V30 1362 H 133.691 0.392159 -3.11945 0
M  V30 1363 N 137.463 0.71206 -1.40597 0
M  V30 1364 C 138.712 1.46754 -1.38369 0
M  V30 1365 C 139.025 1.95598 0.0097839 0
M  V30 1366 O 140.231 2.71059 0.154677 0
M  V30 1367 C 138.687 2.65289 -2.43207 0
M  V30 1368 C 138.295 2.23301 -3.88382 0
M  V30 1369 C 140.039 3.43008 -2.50091 0
M  V30 1370 C 137.946 3.38696 -4.84808 0
M  V30 1371 H 136.876 0.55118 -0.514506 0
M  V30 1372 H 139.527 0.774616 -1.66349 0
M  V30 1373 H 137.909 3.36769 -2.08332 0
M  V30 1374 H 139.083 1.59218 -4.32419 0
M  V30 1375 H 137.398 1.58618 -3.85006 0
M  V30 1376 H 139.995 4.28881 -3.1932 0
M  V30 1377 H 140.338 3.87065 -1.53253 0
M  V30 1378 H 140.871 2.78574 -2.83974 0
M  V30 1379 H 137.61 2.99668 -5.82992 0
M  V30 1380 H 137.13 4.01683 -4.45433 0
M  V30 1381 H 138.809 4.04712 -5.04794 0
M  V30 1382 N 138.941 1.26152 0.944643 0
M  V30 1383 C 140.187 1.11657 1.69294 0
M  V30 1384 C 140.52 -0.339926 1.91202 0
M  V30 1385 O 139.795 -1.24994 1.49019 0
M  V30 1386 C 140.078 1.88236 3.06984 0
M  V30 1387 C 139.931 3.41772 2.92424 0
M  V30 1388 C 141.25 1.67343 4.07043 0
M  V30 1389 H 138.369 0.407004 0.614424 0
M  V30 1390 H 141.011 1.55106 1.09737 0
M  V30 1391 H 139.161 1.51308 3.57824 0
M  V30 1392 H 140.833 3.88433 2.48832 0
M  V30 1393 H 139.076 3.68974 2.28124 0
M  V30 1394 H 139.747 3.90579 3.90067 0
M  V30 1395 H 142.223 1.99509 3.65151 0
M  V30 1396 H 141.099 2.23346 5.01406 0
M  V30 1397 H 141.36 0.617158 4.37771 0
M  V30 1398 N 140.419 -1.14872 1.07899 0
M  V30 1399 C 141.382 -2.17986 0.708161 0
M  V30 1400 C 142.382 -1.58775 -0.25442 0
M  V30 1401 O 143.572 -1.74166 -0.034645 0
M  V30 1402 C 140.704 -3.40871 0.0446929 0
M  V30 1403 H 141.897 -2.52306 1.62116 0
M  V30 1404 H 139.45 -1.2943 0.876218 0
M  V30 1405 H 140.185 -3.12124 -0.880281 0
M  V30 1406 H 139.97 -3.8511 0.737091 0
M  V30 1407 H 141.46 -4.17121 -0.19991 0
M  V30 1408 N 141.898 -0.863906 -1.31812 0
M  V30 1409 C 142.861 -0.320212 -2.26952 0
M  V30 1410 C 143.861 0.525369 -1.51975 0
M  V30 1411 O 145.051 0.335547 -1.70938 0
M  V30 1412 C 142.183 0.545919 -3.365 0
M  V30 1413 H 143.376 -1.16004 -2.76556 0
M  V30 1414 H 140.929 -0.638995 -1.42641 0
M  V30 1415 H 141.664 1.40718 -2.92179 0
M  V30 1416 H 141.449 -0.0594674 -3.92055 0
M  V30 1417 H 142.939 0.918796 -4.07367 0
M  V30 1418 N 143.376 1.44774 -0.622745 0
M  V30 1419 C 144.309 2.27792 0.136329 0
M  V30 1420 C 145.287 1.38041 0.859264 0
M  V30 1421 O 146.471 1.67478 0.86506 0
M  V30 1422 C 143.598 3.16776 1.19878 0
M  V30 1423 C 142.644 4.22575 0.57731 0
M  V30 1424 S 143.477 5.31825 -0.626294 0
M  V30 1425 C 144.633 6.24377 0.436378 0
M  V30 1426 H 144.866 2.91824 -0.567967 0
M  V30 1427 H 142.399 1.48838 -0.410677 0
M  V30 1428 H 144.357 3.68596 1.80686 0
M  V30 1429 H 143.018 2.5198 1.87523 0
M  V30 1430 H 142.211 4.84818 1.37721 0
M  V30 1431 H 141.813 3.73974 0.0440439 0
M  V30 1432 H 144.105 6.64689 1.31128 0
M  V30 1433 H 145.048 7.07941 -0.150271 0
M  V30 1434 H 145.456 5.59381 0.758513 0
M  V30 1435 N 144.854 0.36279 1.53368 0
M  V30 1436 C 145.801 -0.485008 2.25646 0
M  V30 1437 C 146.771 -1.07982 1.2621 0
M  V30 1438 O 147.956 -1.11284 1.54986 0
M  V30 1439 C 145.096 -1.62023 3.04701 0
M  V30 1440 C 144.209 -1.05086 4.19024 0
M  V30 1441 C 143.344 -2.15496 4.85525 0
M  V30 1442 C 142.383 -1.5601 5.91884 0
M  V30 1443 N 141.52 -2.60241 6.52088 0
M  V30 1444 H 146.36 0.137864 2.97681 0
M  V30 1445 H 143.897 0.0798061 1.46883 0
M  V30 1446 H 145.855 -2.28887 3.48807 0
M  V30 1447 H 144.485 -2.2138 2.34927 0
M  V30 1448 H 143.537 -0.27259 3.79422 0
M  V30 1449 H 144.849 -0.575926 4.95464 0
M  V30 1450 H 144.003 -2.90186 5.32801 0
M  V30 1451 H 142.742 -2.66341 4.08551 0
M  V30 1452 H 141.747 -0.798338 5.43973 0
M  V30 1453 H 142.972 -1.05994 6.70777 0
M  V30 1454 H 140.918 -3.10304 5.77968 0
M  V30 1455 H 140.835 -2.17426 7.24059 0
M  V30 1456 H 142.103 -3.34641 7.04014 0
M  V30 1457 N 146.332 -1.57332 0.0918853 0
M  V30 1458 C 147.295 -2.12708 -0.85369 0
M  V30 1459 C 148.295 -1.05561 -1.213 0
M  V30 1460 O 149.485 -1.31461 -1.14296 0
M  V30 1461 C 146.617 -2.64503 -2.15061 0
M  V30 1462 H 147.81 -2.97573 -0.3729 0
M  V30 1463 H 145.363 -1.55509 -0.157072 0
M  V30 1464 H 146.098 -1.83149 -2.67632 0
M  V30 1465 H 145.883 -3.4284 -1.90272 0
M  V30 1466 H 147.373 -3.07351 -2.82711 0
M  V30 1467 N 147.81 0.181792 -1.56548 0
M  V30 1468 C 148.76 1.22961 -1.92002 0
M  V30 1469 C 149.744 1.40331 -0.787146 0
M  V30 1470 O 150.936 1.42478 -1.05019 0
M  V30 1471 C 148.065 2.57144 -2.27446 0
M  V30 1472 C 147.151 2.43512 -3.47222 0
M  V30 1473 N 147.542 1.99577 -4.64761 0
M  V30 1474 C 145.84 2.74368 -3.51622 0
M  V30 1475 C 146.541 1.98156 -5.46909 0
M  V30 1476 N 145.517 2.40164 -4.8767 0
M  V30 1477 H 149.319 0.881462 -2.8037 0
M  V30 1478 H 146.833 0.390141 -1.57644 0
M  V30 1479 H 148.83 3.32847 -2.51035 0
M  V30 1480 H 147.49 2.92771 -1.40411 0
M  V30 1481 H 148.501 1.70078 -4.89177 0
M  V30 1482 H 145.178 3.14102 -2.75038 0
M  V30 1483 H 146.568 1.65975 -6.51077 0
M  V30 1484 N 149.288 1.51039 0.449983 0
M  V30 1485 C 150.536 1.62759 1.19808 0
M  V30 1486 C 150.857 0.339981 1.92013 0
M  V30 1487 O 150.127 -0.643606 1.85026 0
M  V30 1488 H 148.707 0.599811 0.445237 0
M  V30 1489 H 151.369 1.87914 0.517138 0
M  V30 1490 H 150.465 2.44911 1.93455 0
M  V30 1491 N 150.766 -0.704594 1.40972 0
M  V30 1492 C 152.012 -1.46675 1.40051 0
M  V30 1493 C 152.345 -1.94199 0.00641102 0
M  V30 1494 O 151.62 -1.68916 -0.964235 0
M  V30 1495 C 151.903 -2.68505 2.39952 0
M  V30 1496 C 151.756 -2.26805 3.88432 0
M  V30 1497 C 153.075 -3.70686 2.37233 0
M  V30 1498 H 150.194 -0.532015 0.510028 0
M  V30 1499 H 152.836 -0.803255 1.72185 0
M  V30 1500 H 150.986 -3.25114 2.1268 0
M  V30 1501 H 152.658 -1.75592 4.26574 0
M  V30 1502 H 150.901 -1.58685 4.03734 0
M  V30 1503 H 151.572 -3.14181 4.53866 0
M  V30 1504 H 154.048 -3.23731 2.61415 0
M  V30 1505 H 152.924 -4.53553 3.09162 0
M  V30 1506 H 153.185 -4.19754 1.38777 0
M  V30 1507 N 152.244 -1.26651 -0.937939 0
M  V30 1508 C 153.521 -1.0313 -1.66204 0
M  V30 1509 C 153.901 0.437256 -2.06522 0
M  V30 1510 O 153.249 1.41831 -1.79154 0
M  V30 1511 C 153.459 -1.98314 -2.87181 0
M  V30 1512 C 154.807 -2.27107 -3.58758 0
M  V30 1513 O 155.831 -1.96205 -2.97291 0
M  V30 1514 O 154.69 -2.79736 -4.69479 0
M  V30 1515 H 151.784 -0.392384 -0.727986 0
M  V30 1516 H 154.33 -1.37874 -0.989382 0
M  V30 1517 H 153.102 -2.97399 -2.54302 0
M  V30 1518 H 152.725 -1.64068 -3.6217 0
M  V30 1519 N 153.722 1.14298 -1.08507 0
M  V30 1520 C 154.669 2.19414 -0.715965 0
M  V30 1521 C 155.639 1.63399 0.298326 0
M  V30 1522 O 156.824 1.89929 0.182101 0
M  V30 1523 C 153.964 3.44845 -0.132534 0
M  V30 1524 C 153.077 4.15007 -1.19973 0
M  V30 1525 C 152.212 5.28024 -0.580048 0
M  V30 1526 C 151.251 5.9002 -1.62921 0
M  V30 1527 N 150.388 6.94485 -1.03125 0
M  V30 1528 H 155.228 2.50336 -1.61666 0
M  V30 1529 H 152.765 1.2293 -0.807882 0
M  V30 1530 H 154.723 4.16601 0.223454 0
M  V30 1531 H 153.353 3.14403 0.731467 0
M  V30 1532 H 152.405 3.41629 -1.67313 0
M  V30 1533 H 153.717 4.57178 -1.99473 0
M  V30 1534 H 152.871 6.06455 -0.172364 0
M  V30 1535 H 151.61 4.87076 0.246603 0
M  V30 1536 H 150.615 5.10291 -2.04654 0
M  V30 1537 H 151.84 6.33042 -2.45835 0
M  V30 1538 H 149.786 6.55612 -0.225711 0
M  V30 1539 H 149.703 7.35148 -1.76334 0
M  V30 1540 H 150.971 7.7679 -0.649458 0
M  V30 1541 N 155.201 0.870884 1.31352 0
M  V30 1542 C 156.447 0.482987 1.96965 0
M  V30 1543 C 156.78 -0.962462 1.68672 0
M  V30 1544 O 156.055 -1.6779 0.98371 0
M  V30 1545 C 156.338 0.741752 3.52378 0
M  V30 1546 C 156.191 2.2368 3.9024 0
M  V30 1547 C 157.51 0.208838 4.39604 0
M  V30 1548 H 154.629 0.176955 0.715441 0
M  V30 1549 H 157.271 1.09229 1.55464 0
M  V30 1550 H 155.421 0.223149 3.87859 0
M  V30 1551 H 157.093 2.82273 3.64856 0
M  V30 1552 H 155.336 2.70901 3.38814 0
M  V30 1553 H 156.007 2.3685 4.98604 0
M  V30 1554 H 158.483 0.652529 4.10952 0
M  V30 1555 H 157.359 0.419336 5.47296 0
M  V30 1556 H 157.62 -0.889275 4.33064 0
M  V30 1557 N 156.679 -1.44442 0.630414 0
M  V30 1558 C 157.925 -2.02351 0.134816 0
M  V30 1559 C 158.258 -1.4947 -1.23986 0
M  V30 1560 O 157.533 -0.678475 -1.82283 0
M  V30 1561 C 157.816 -3.59898 0.120707 0
M  V30 1562 C 157.669 -4.23063 1.52767 0
M  V30 1563 C 158.988 -4.36585 -0.555127 0
M  V30 1564 H 156.107 -0.73527 0.0504646 0
M  V30 1565 H 158.749 -1.72022 0.806751 0
M  V30 1566 H 156.899 -3.85868 -0.451477 0
M  V30 1567 H 158.571 -4.08202 2.14869 0
M  V30 1568 H 156.814 -3.80586 2.08175 0
M  V30 1569 H 157.485 -5.32071 1.46984 0
M  V30 1570 H 159.961 -4.16044 -0.0685429 0
M  V30 1571 H 158.837 -5.46294 -0.534185 0
M  V30 1572 H 159.098 -4.11138 -1.62535 0
M  V30 1573 N 158.157 -0.370918 -1.53173 0
M  V30 1574 C 159.12 0.460778 -2.24521 0
M  V30 1575 C 160.12 1.00536 -1.25496 0
M  V30 1576 O 161.31 0.890266 -1.49733 0
M  V30 1577 C 158.442 1.64457 -2.98608 0
M  V30 1578 H 159.635 -0.163613 -2.99453 0
M  V30 1579 H 157.188 -0.122699 -1.55818 0
M  V30 1580 H 157.923 2.30691 -2.2793 0
M  V30 1581 H 157.708 1.26099 -3.7127 0
M  V30 1582 H 159.198 2.23384 -3.5283 0
M  V30 1583 N 159.635 1.57281 -0.100228 0
M  V30 1584 C 160.875 1.96419 0.56558 0
M  V30 1585 C 161.239 0.981265 1.65031 0
M  V30 1586 O 162.44 1.26133 2.37369 0
M  V30 1587 C 160.711 3.39996 1.10171 0
M  V30 1588 S 162.27 4.01134 1.77867 0
M  V30 1589 H 159.088 0.68667 0.184406 0
M  V30 1590 H 161.69 1.94662 -0.180851 0
M  V30 1591 H 160.394 4.09296 0.300803 0
M  V30 1592 H 159.925 3.45361 1.88385 0
M  V30 1593 H 161.94 3.90358 3.06326 0
M  V30 1594 N 161.113 -0.173488 1.56642 0
M  V30 1595 C 162.341 -0.906095 1.86004 0
M  V30 1596 C 162.756 -1.75921 0.685355 0
M  V30 1597 O 162.113 -1.79198 -0.345578 0
M  V30 1598 C 162.164 -1.78462 3.14378 0
M  V30 1599 O 161.885 -0.965914 4.27319 0
M  V30 1600 C 163.386 -2.62707 3.57071 0
M  V30 1601 H 160.606 -0.263341 0.617165 0
M  V30 1602 H 163.15 -0.174236 2.03756 0
M  V30 1603 H 161.305 -2.46984 2.98459 0
M  V30 1604 H 161.719 -1.56655 5.00559 0
M  V30 1605 H 163.193 -3.19969 4.49804 0
M  V30 1606 H 163.67 -3.37472 2.81086 0
M  V30 1607 H 164.276 -1.99521 3.75595 0
M  V30 1608 N 162.591 -1.51276 -0.441967 0
M  V30 1609 C 163.816 -1.67799 -1.21895 0
M  V30 1610 C 164.241 -0.372864 -1.84367 0
M  V30 1611 O 163.599 0.666501 -1.68604 0
M  V30 1612 C 163.647 -2.79199 -2.28211 0
M  V30 1613 O 162.751 -2.42479 -3.33583 0
M  V30 1614 H 162.092 -0.559649 -0.357336 0
M  V30 1615 H 164.622 -1.97815 -0.522522 0
M  V30 1616 H 164.632 -3.03146 -2.73069 0
M  V30 1617 H 163.307 -3.73906 -1.82118 0
M  V30 1618 H 161.884 -2.29087 -2.94234 0
M  V30 1619 N 164.069 0.697108 -1.41344 0
M  V30 1620 C 165.032 1.79281 -1.42797 0
M  V30 1621 C 166.032 1.57607 -0.318837 0
M  V30 1622 O 167.222 1.64309 -0.578642 0
M  V30 1623 C 164.354 3.17632 -1.23785 0
M  V30 1624 H 165.547 1.79385 -2.40335 0
M  V30 1625 H 163.1 0.904582 -1.27464 0
M  V30 1626 H 163.835 3.23167 -0.270814 0
M  V30 1627 H 163.62 3.34765 -2.04144 0
M  V30 1628 H 165.11 3.97617 -1.27633 0
M  V30 1629 N 165.547 1.27147 0.931209 0
M  V30 1630 C 166.794 1.13278 1.67852 0
M  V30 1631 C 167.122 -0.32204 1.91815 0
M  V30 1632 O 166.377 -1.25224 1.50391 0
M  V30 1633 C 166.676 1.8579 3.05314 0
M  V30 1634 C 166.342 3.35657 3.01073 0
M  V30 1635 C 165.004 3.76536 2.99623 0
M  V30 1636 C 167.356 4.31299 2.92627 0
M  V30 1637 C 164.684 5.11426 2.87506 0
M  V30 1638 C 167.036 5.66242 2.82051 0
M  V30 1639 C 165.7 6.06418 2.7895 0
M  V30 1640 H 164.97 0.414515 0.614214 0
M  V30 1641 H 167.617 1.57712 1.08624 0
M  V30 1642 H 165.922 1.33854 3.68226 0
M  V30 1643 H 167.619 1.72491 3.62005 0
M  V30 1644 H 164.209 3.03146 3.02986 0
M  V30 1645 H 168.393 4.00692 2.92848 0
M  V30 1646 H 163.649 5.41705 2.83489 0
M  V30 1647 H 167.823 6.40026 2.74481 0
M  V30 1648 H 165.45 7.10895 2.69318 0
M  V30 1649 N 167.025 -1.13721 1.09112 0
M  V30 1650 C 167.955 -2.21148 0.749385 0
M  V30 1651 C 168.936 -1.6792 -0.271475 0
M  V30 1652 O 170.121 -1.93693 -0.140251 0
M  V30 1653 C 167.251 -3.46905 0.165659 0
M  V30 1654 C 166.205 -4.13203 1.11567 0
M  V30 1655 C 165.531 -5.33248 0.393809 0
M  V30 1656 C 166.831 -4.60912 2.45678 0
M  V30 1657 H 168.525 -2.4999 1.64758 0
M  V30 1658 H 166.071 -1.20156 0.793626 0
M  V30 1659 H 168.024 -4.21313 -0.085466 0
M  V30 1660 H 166.748 -3.17449 -0.767714 0
M  V30 1661 H 165.407 -3.40758 1.35202 0
M  V30 1662 H 165.055 -5.00054 -0.543599 0
M  V30 1663 H 164.755 -5.78552 1.02721 0
M  V30 1664 H 166.279 -6.10413 0.150908 0
M  V30 1665 H 167.693 -5.26759 2.26269 0
M  V30 1666 H 166.09 -5.16944 3.04776 0
M  V30 1667 H 167.16 -3.75603 3.06677 0
M  V30 1668 N 168.503 -0.877838 -1.30888 0
M  V30 1669 C 169.433 -0.35534 -2.3078 0
M  V30 1670 C 170.414 0.557994 -1.60687 0
M  V30 1671 O 171.599 0.473355 -1.88343 0
M  V30 1672 C 168.729 0.437221 -3.44537 0
M  V30 1673 C 167.683 -0.383715 -4.26276 0
M  V30 1674 C 167.009 0.535014 -5.32017 0
M  V30 1675 C 168.309 -1.62201 -4.96476 0
M  V30 1676 H 170.003 -1.19007 -2.74732 0
M  V30 1677 H 167.549 -0.573698 -1.32078 0
M  V30 1678 H 169.502 0.813334 -4.13477 0
M  V30 1679 H 168.226 1.30553 -2.99372 0
M  V30 1680 H 166.885 -0.741874 -3.59015 0
M  V30 1681 H 166.533 1.40083 -4.831 0
M  V30 1682 H 166.233 -0.0104211 -5.87599 0
M  V30 1683 H 167.757 0.907799 -6.03814 0
M  V30 1684 H 169.171 -1.31689 -5.5797 0
M  V30 1685 H 167.568 -2.10711 -5.61891 0
M  V30 1686 H 168.638 -2.37044 -4.23011 0
M  V30 1687 N 169.982 1.44106 -0.638065 0
M  V30 1688 C 171.228 2.02815 -0.15409 0
M  V30 1689 C 171.583 1.49342 1.21304 0
M  V30 1690 O 170.876 0.670699 1.79478 0
M  V30 1691 C 171.07 3.5729 -0.0887327 0
M  V30 1692 C 170.899 4.2575 -1.44799 0
M  V30 1693 C 169.669 4.62443 -2.03653 0
M  V30 1694 C 171.867 4.55746 -2.38327 0
M  V30 1695 N 169.849 5.15903 -3.32741 0
M  V30 1696 C 171.22 5.10364 -3.52036 0
M  V30 1697 C 173.275 4.37703 -2.3732 0
M  V30 1698 C 171.978 5.48837 -4.64941 0
M  V30 1699 C 174.004 4.77229 -3.49294 0
M  V30 1700 C 173.366 5.31966 -4.61726 0
M  V30 1701 H 169.465 0.775519 -0.100466 0
M  V30 1702 H 172.049 1.755 -0.843071 0
M  V30 1703 H 170.22 3.84201 0.569548 0
M  V30 1704 H 171.952 4.02671 0.404711 0
M  V30 1705 H 168.707 4.46987 -1.56523 0
M  V30 1706 H 169.131 5.47102 -3.98758 0
M  V30 1707 H 173.773 3.94671 -1.51641 0
M  V30 1708 H 171.491 5.9082 -5.51323 0
M  V30 1709 H 175.077 4.64976 -3.49698 0
M  V30 1710 H 173.957 5.61986 -5.46939 0
M  V30 1711 N 171.46 0.379036 1.52974 0
M  V30 1712 C 172.737 -0.263479 1.93817 0
M  V30 1713 C 173.117 -1.65244 1.31368 0
M  V30 1714 O 172.465 -2.23448 0.477856 0
M  V30 1715 C 172.675 -0.300166 3.47707 0
M  V30 1716 C 174.023 -0.534061 4.21228 0
M  V30 1717 O 175.047 -0.38081 3.54159 0
M  V30 1718 O 173.906 -0.833501 5.40106 0
M  V30 1719 H 171 -0.161149 0.811147 0
M  V30 1720 H 173.546 0.432798 1.64088 0
M  V30 1721 H 172.318 0.673138 3.85467 0
M  V30 1722 H 171.941 -1.04179 3.83709 0
M  V30 1723 N 172.938 -1.57226 0.108567 0
M  V30 1724 C 174.349 -1.8195 -0.418464 0
M  V30 1725 C 174.7 -1.02508 -1.67292 0
M  V30 1726 O 173.825 -0.258496 -2.14851 0
M  V30 1727 C 174.42 -3.30028 -0.765979 0
M  V30 1728 C 172.979 -3.55469 -1.23769 0
M  V30 1729 C 172.126 -2.7625 -0.241106 0
M  V30 1730 H 175.077 -1.55149 0.33384 0
M  V30 1731 H 175.098 -3.44086 -1.62434 0
M  V30 1732 H 174.61 -3.87821 0.147219 0
M  V30 1733 H 172.711 -3.03022 -2.16814 0
M  V30 1734 H 172.824 -4.6408 -1.19022 0
M  V30 1735 H 171.188 -2.44133 -0.72602 0
M  V30 1736 H 171.971 -3.36797 0.665007 0
M  V30 1737 N 174.416 0.165178 -1.56732 0
M  V30 1738 C 175.644 0.896218 -1.86482 0
M  V30 1739 C 176.059 1.75555 -0.694675 0
M  V30 1740 O 175.416 1.79379 0.33607 0
M  V30 1741 C 175.467 1.76792 -3.1532 0
M  V30 1742 O 175.188 0.943239 -4.27825 0
M  V30 1743 C 176.689 2.6081 -3.58459 0
M  V30 1744 H 173.909 0.260064 -0.618553 0
M  V30 1745 H 176.453 0.163428 -2.03846 0
M  V30 1746 H 174.608 2.45398 -2.99764 0
M  V30 1747 H 175.022 1.53998 -5.01383 0
M  V30 1748 H 176.496 3.17579 -4.51495 0
M  V30 1749 H 176.973 3.35977 -2.82872 0
M  V30 1750 H 177.579 1.97526 -3.76648 0
M  V30 1751 N 175.894 1.51508 0.433938 0
M  V30 1752 C 176.841 1.73068 1.52696 0
M  V30 1753 C 177.811 0.572441 1.55924 0
M  V30 1754 O 178.996 0.807253 1.72882 0
M  V30 1755 C 176.136 1.86474 2.90381 0
M  V30 1756 C 175.249 3.14037 2.96656 0
M  V30 1757 C 174.384 3.18019 4.25485 0
M  V30 1758 C 173.423 4.39882 4.2564 0
M  V30 1759 N 172.56 4.41394 5.45999 0
M  V30 1760 H 177.4 2.66366 1.33615 0
M  V30 1761 H 174.937 1.32008 0.649018 0
M  V30 1762 H 176.895 1.92229 3.70275 0
M  V30 1763 H 175.525 0.965809 3.08013 0
M  V30 1764 H 174.577 3.17575 2.09404 0
M  V30 1765 H 175.889 4.0394 2.92633 0
M  V30 1766 H 175.043 3.22708 5.13755 0
M  V30 1767 H 173.782 2.2601 4.3217 0
M  V30 1768 H 172.787 4.35366 3.35763 0
M  V30 1769 H 174.012 5.33159 4.20617 0
M  V30 1770 H 171.958 3.52258 5.53399 0
M  V30 1771 H 171.875 5.25111 5.4387 0
M  V30 1772 H 173.143 4.50281 6.36292 0
M  V30 1773 N 177.372 -0.689602 1.41712 0
M  V30 1774 C 178.618 -1.45181 1.41599 0
M  V30 1775 C 178.951 -1.94181 0.0270081 0
M  V30 1776 O 178.226 -1.6993 -0.946265 0
M  V30 1777 C 178.509 -2.65945 2.42787 0
M  V30 1778 C 178.362 -2.22672 3.90816 0
M  V30 1779 C 179.681 -3.68149 2.41151 0
M  V30 1780 H 176.8 -0.526576 0.515642 0
M  V30 1781 H 179.442 -0.784947 1.73028 0
M  V30 1782 H 177.592 -3.2284 2.16116 0
M  V30 1783 H 179.264 -1.71058 4.28412 0
M  V30 1784 H 177.507 -1.54394 4.05395 0
M  V30 1785 H 178.178 -3.0935 4.57172 0
M  V30 1786 H 180.654 -3.2094 2.64834 0
M  V30 1787 H 179.53 -4.50248 3.13955 0
M  V30 1788 H 179.791 -4.18259 1.43221 0
M  V30 1789 N 178.85 -1.27639 -0.924453 0
M  V30 1790 C 180.261 -1.12834 -1.48746 0
M  V30 1791 C 180.612 0.285505 -1.94112 0
M  V30 1792 O 179.737 1.17874 -1.81479 0
M  V30 1793 C 180.332 -2.04217 -2.70334 0
M  V30 1794 C 178.891 -1.93509 -3.22848 0
M  V30 1795 C 178.038 -1.96583 -1.95577 0
M  V30 1796 H 180.989 -1.40484 -0.738233 0
M  V30 1797 H 181.01 -1.59989 -3.4523 0
M  V30 1798 H 180.522 -3.07111 -2.37285 0
M  V30 1799 H 178.623 -0.936131 -3.60649 0
M  V30 1800 H 178.736 -2.79917 -3.88823 0
M  V30 1801 H 177.1 -1.4085 -2.12211 0
M  V30 1802 H 177.883 -3.01137 -1.64837 0
M  V30 1803 N 180.328 1.1314 -1.09713 0
M  V30 1804 C 181.739 1.66029 -0.853885 0
M  V30 1805 C 182.09 1.86241 0.617142 0
M  V30 1806 O 181.215 1.5834 1.47503 0
M  V30 1807 C 181.81 3.01599 -1.5435 0
M  V30 1808 C 180.369 3.51467 -1.34714 0
M  V30 1809 C 179.516 2.26648 -1.59769 0
M  V30 1810 H 182.467 0.970226 -1.25588 0
M  V30 1811 H 182.488 3.67709 -0.978267 0
M  V30 1812 H 182 2.86856 -2.6141 0
M  V30 1813 H 180.101 3.71408 -0.297838 0
M  V30 1814 H 180.214 4.314 -2.08401 0
M  V30 1815 H 178.578 2.33385 -1.01998 0
M  V30 1816 H 179.361 2.14467 -2.68065 0
M  V30 1817 N 181.806 0.884767 1.30421 0
M  V30 1818 C 183.222 0.57874 1.48737 0
M  V30 1819 C 183.422 -0.883567 1.81095 0
M  V30 1820 O 182.478 -1.6648 1.89844 0
M  V30 1821 C 183.791 1.49171 2.61091 0
M  V30 1822 C 185.339 1.49532 2.74971 0
M  V30 1823 C 185.814 2.39421 3.90438 0
M  V30 1824 N 187.305 2.37383 3.97748 0
M  V30 1825 C 188.04 3.03647 4.86401 0
M  V30 1826 N 187.536 3.79136 5.79852 0
M  V30 1827 N 189.329 2.9288 4.79768 0
M  V30 1828 H 181.48 1.83075 1.0769 0
M  V30 1829 H 183.743 0.783637 0.533495 0
M  V30 1830 H 183.449 2.53291 2.44001 0
M  V30 1831 H 183.323 1.20113 3.57565 0
M  V30 1832 H 185.71 0.46163 2.91467 0
M  V30 1833 H 185.791 1.8262 1.79119 0
M  V30 1834 H 185.435 3.42874 3.74699 0
M  V30 1835 H 185.365 2.03649 4.85628 0
M  V30 1836 H 187.856 1.82525 3.30897 0
M  V30 1837 H 188.169 4.26789 6.4426 0
M  V30 1838 H 186.514 3.83243 5.79784 0
M  V30 1839 H 189.705 2.33433 4.05742 0
M  V30 1840 H 189.878 3.448 5.4865 0
M  V30 1841 N 183.284 -1.43765 0.645699 0
M  V30 1842 C 184.214 -2.33471 -0.0370477 0
M  V30 1843 C 185.195 -1.49042 -0.819779 0
M  V30 1844 O 186.38 -1.77726 -0.782758 0
M  V30 1845 C 183.51 -3.32311 -1.0093 0
M  V30 1846 C 182.464 -4.2667 -0.337201 0
M  V30 1847 C 181.79 -5.1549 -1.42037 0
M  V30 1848 C 183.09 -5.16657 0.765706 0
M  V30 1849 H 184.784 -2.90809 0.712069 0
M  V30 1850 H 182.33 -1.39834 0.343876 0
M  V30 1851 H 184.283 -3.9396 -1.49578 0
M  V30 1852 H 183.007 -2.73213 -1.78948 0
M  V30 1853 H 181.666 -3.66374 0.128771 0
M  V30 1854 H 181.314 -4.52735 -2.1918 0
M  V30 1855 H 181.014 -5.79438 -0.975966 0
M  V30 1856 H 182.538 -5.80012 -1.90838 0
M  V30 1857 H 183.952 -5.72158 0.361702 0
M  V30 1858 H 182.349 -5.89286 1.13413 0
M  V30 1859 H 183.419 -4.56796 1.62683 0
M  V30 1860 N 184.763 -0.387143 -1.52771 0
M  V30 1861 C 185.695 0.484089 -2.2403 0
M  V30 1862 C 186.708 1.02849 -1.26198 0
M  V30 1863 O 187.897 0.931186 -1.52286 0
M  V30 1864 C 184.997 1.68337 -2.94136 0
M  V30 1865 C 184.17 1.26672 -4.18656 0
M  V30 1866 C 183.229 2.33045 -4.7178 0
M  V30 1867 O 182.255 1.94541 -5.34923 0
M  V30 1868 N 183.457 3.64929 -4.5145 0
M  V30 1869 H 186.222 -0.126404 -2.99433 0
M  V30 1870 H 183.783 -0.213392 -1.60488 0
M  V30 1871 H 185.775 2.39019 -3.26577 0
M  V30 1872 H 184.345 2.20025 -2.22053 0
M  V30 1873 H 183.565 0.388878 -3.92277 0
M  V30 1874 H 184.853 0.964964 -4.99566 0
M  V30 1875 H 184.251 3.98974 -4.01044 0
M  V30 1876 H 182.808 4.31651 -4.88386 0
M  V30 1877 N 186.241 1.57166 -0.116904 0
M  V30 1878 C 187.204 2.14039 0.819742 0
M  V30 1879 C 188.204 1.07477 1.19605 0
M  V30 1880 O 189.394 1.33263 1.1219 0
M  V30 1881 C 186.526 2.67891 2.10826 0
M  V30 1882 H 187.719 2.98128 0.325511 0
M  V30 1883 H 185.272 1.55739 0.132312 0
M  V30 1884 H 186.007 1.87384 2.64685 0
M  V30 1885 H 185.792 3.45823 1.84793 0
M  V30 1886 H 187.282 3.11809 2.77785 0
M  V30 1887 N 187.719 -0.156864 1.56817 0
M  V30 1888 C 188.965 -0.872416 1.83076 0
M  V30 1889 C 189.298 -1.81261 0.697001 0
M  V30 1890 O 188.573 -1.92171 -0.30008 0
M  V30 1891 C 188.856 -1.65551 3.19789 0
M  V30 1892 C 188.709 -0.737467 4.43713 0
M  V30 1893 C 190.028 -2.62012 3.53606 0
M  V30 1894 H 187.147 -0.315715 0.665953 0
M  V30 1895 H 189.789 -0.138004 1.89498 0
M  V30 1896 H 187.939 -2.28159 3.14445 0
M  V30 1897 H 189.611 -0.123143 4.61136 0
M  V30 1898 H 187.854 -0.0464067 4.33775 0
M  V30 1899 H 188.525 -1.32122 5.35955 0
M  V30 1900 H 191.001 -2.09525 3.59497 0
M  V30 1901 H 189.877 -3.13861 4.50314 0
M  V30 1902 H 190.138 -3.42902 2.79053 0
M  V30 1903 N 189.197 -1.51736 -0.425897 0
M  V30 1904 C 190.425 -1.68794 -1.1965 0
M  V30 1905 C 190.84 -0.390164 -1.84725 0
M  V30 1906 O 190.197 0.632376 -1.71194 0
M  V30 1907 C 190.248 -2.81174 -2.27208 0
M  V30 1908 O 189.969 -4.05925 -1.64793 0
M  V30 1909 C 191.47 -3.09599 -3.17275 0
M  V30 1910 H 188.69 -0.566128 -0.360194 0
M  V30 1911 H 191.234 -1.98211 -0.503249 0
M  V30 1912 H 189.389 -2.54324 -2.9223 0
M  V30 1913 H 189.803 -4.68423 -2.35967 0
M  V30 1914 H 191.277 -3.91786 -3.88854 0
M  V30 1915 H 191.754 -2.22468 -3.78688 0
M  V30 1916 H 192.36 -3.38151 -2.57941 0
M  V30 1917 N 190.675 0.682077 -1.42076 0
M  V30 1918 C 191.952 1.43755 -1.32642 0
M  V30 1919 C 192.332 2.11063 0.0396611 0
M  V30 1920 O 191.68 2.02701 1.05474 0
M  V30 1921 C 191.89 2.44596 -2.48946 0
M  V30 1922 C 193.238 3.09454 -2.9073 0
M  V30 1923 O 194.262 2.54922 -2.48783 0
M  V30 1924 O 193.121 4.08253 -3.63307 0
M  V30 1925 H 190.215 0.640857 -0.522715 0
M  V30 1926 H 192.761 0.711415 -1.54068 0
M  V30 1927 H 191.533 1.93609 -3.40046 0
M  V30 1928 H 191.156 3.24701 -2.29467 0
M  V30 1929 N 192.153 1.28127 0.917671 0
M  V30 1930 C 193.43 1.05761 1.64542 0
M  V30 1931 C 193.81 -0.404344 2.07191 0
M  V30 1932 O 193.158 -1.38963 1.81388 0
M  V30 1933 C 193.368 2.02857 2.83989 0
M  V30 1934 C 194.716 2.32786 3.551 0
M  V30 1935 O 195.74 2.0091 2.94132 0
M  V30 1936 O 194.599 2.87169 4.64969 0
M  V30 1937 H 191.693 0.403916 0.721652 0
M  V30 1938 H 194.239 1.39431 0.967322 0
M  V30 1939 H 193.011 3.01407 2.49538 0
M  V30 1940 H 192.634 1.69809 3.59514 0
M  V30 1941 N 193.631 -1.12557 1.10312 0
M  V30 1942 C 194.581 -2.16331 0.720076 0
M  V30 1943 C 195.565 -1.58616 -0.270115 0
M  V30 1944 O 196.757 -1.76823 -0.0790507 0
M  V30 1945 C 193.886 -3.42963 0.152113 0
M  V30 1946 C 192.972 -4.07663 1.16927 0
M  V30 1947 N 193.363 -4.47392 2.35953 0
M  V30 1948 C 191.661 -4.34425 1.0095 0
M  V30 1949 C 192.362 -4.97932 3.0073 0
M  V30 1950 N 191.338 -4.93358 2.28252 0
M  V30 1951 H 195.14 -2.44813 1.62616 0
M  V30 1952 H 192.654 -1.29449 0.980654 0
M  V30 1953 H 194.651 -4.16664 -0.14037 0
M  V30 1954 H 193.311 -3.1595 -0.748701 0
M  V30 1955 H 194.322 -4.39802 2.73486 0
M  V30 1956 H 190.999 -4.17177 0.164134 0
M  V30 1957 H 192.389 -5.38397 4.01969 0
M  V30 1958 N 195.109 -0.891671 -1.2995 0
M  V30 1959 C 196.358 -0.509521 -1.95158 0
M  V30 1960 C 196.671 0.947388 -1.71125 0
M  V30 1961 O 197.877 1.43669 -2.30372 0
M  V30 1962 C 196.333 -0.860315 -3.49466 0
M  V30 1963 C 195.941 -2.33545 -3.8231 0
M  V30 1964 C 197.685 -0.547687 -4.20952 0
M  V30 1965 C 195.592 -2.62752 -5.29826 0
M  V30 1966 H 194.522 -0.18682 -0.730489 0
M  V30 1967 H 197.173 -1.08756 -1.47798 0
M  V30 1968 H 195.555 -0.211285 -3.95436 0
M  V30 1969 H 196.729 -3.02936 -3.47227 0
M  V30 1970 H 195.044 -2.61629 -3.23944 0
M  V30 1971 H 197.641 -0.742854 -5.29515 0
M  V30 1972 H 197.984 0.51332 -4.13123 0
M  V30 1973 H 198.517 -1.1542 -3.80688 0
M  V30 1974 H 195.256 -3.6762 -5.42712 0
M  V30 1975 H 194.776 -1.97977 -5.66185 0
M  V30 1976 H 196.455 -2.48601 -5.97333 0
M  V30 1977 N 196.587 1.43421 -0.653314 0
M  V30 1978 C 198.003 1.56341 -0.320886 0
M  V30 1979 C 198.203 1.63696 1.17499 0
M  V30 1980 O 197.259 1.59208 1.95982 0
M  V30 1981 C 198.572 2.82424 -1.03233 0
M  V30 1982 C 200.12 2.96168 -1.01259 0
M  V30 1983 C 200.595 4.25084 -1.70492 0
M  V30 1984 N 202.086 4.31948 -1.67257 0
M  V30 1985 C 202.821 5.30466 -2.17701 0
M  V30 1986 N 202.317 6.35261 -2.76434 0
M  V30 1987 N 204.11 5.2212 -2.082 0
M  V30 1988 H 196.261 1.3689 -1.62403 0
M  V30 1989 H 198.524 0.657455 -0.682977 0
M  V30 1990 H 198.23 2.83053 -2.08744 0
M  V30 1991 H 198.104 3.72653 -0.583948 0
M  V30 1992 H 200.491 2.9508 0.0341235 0
M  V30 1993 H 200.572 2.07229 -1.49966 0
M  V30 1994 H 200.216 4.26932 -2.7512 0
M  V30 1995 H 200.146 5.1292 -1.19251 0
M  V30 1996 H 202.637 3.56838 -1.24398 0
M  V30 1997 H 202.95 7.06754 -3.12601 0
M  V30 1998 H 201.295 6.35884 -2.80495 0
M  V30 1999 H 204.486 4.39166 -1.62021 0
M  V30 2000 H 204.659 5.98739 -2.47822 0
M  V30 2001 N 198.065 0.39524 1.52563 0
M  V30 2002 C 198.998 -0.4813 2.23067 0
M  V30 2003 C 199.976 -1.05927 1.23362 0
M  V30 2004 O 201.16 -1.10979 1.52368 0
M  V30 2005 C 198.287 -1.66676 2.9485 0
M  V30 2006 C 197.333 -1.21348 4.08873 0
M  V30 2007 S 198.166 -0.190102 5.35162 0
M  V30 2008 C 199.322 -1.38121 6.1047 0
M  V30 2009 H 199.555 0.117381 2.97068 0
M  V30 2010 H 197.088 0.179458 1.53354 0
M  V30 2011 H 199.046 -2.3466 3.36816 0
M  V30 2012 H 197.707 -2.23676 2.20518 0
M  V30 2013 H 196.9 -2.09877 4.58222 0
M  V30 2014 H 196.502 -0.612486 3.68951 0
M  V30 2015 H 198.794 -2.30726 6.37002 0
M  V30 2016 H 199.737 -0.928521 7.01986 0
M  V30 2017 H 200.145 -1.60071 5.41329 0
M  V30 2018 N 199.544 -1.57102 0.125237 0
M  V30 2019 C 200.494 -2.12202 -0.833936 0
M  V30 2020 C 201.478 -1.04433 -1.22403 0
M  V30 2021 O 202.67 -1.30655 -1.19408 0
M  V30 2022 C 199.799 -2.72994 -2.08157 0
M  V30 2023 C 198.885 -3.87852 -1.71556 0
M  V30 2024 N 199.276 -4.9464 -1.05662 0
M  V30 2025 C 197.574 -3.98153 -2.00973 0
M  V30 2026 C 198.275 -5.74953 -0.883376 0
M  V30 2027 N 197.251 -5.24985 -1.41036 0
M  V30 2028 H 201.053 -2.92141 -0.321035 0
M  V30 2029 H 198.567 -1.62217 -0.0770315 0
M  V30 2030 H 200.564 -3.10816 -2.77847 0
M  V30 2031 H 199.224 -1.9452 -2.59985 0
M  V30 2032 H 200.235 -5.12872 -0.719878 0
M  V30 2033 H 196.912 -3.30728 -2.54804 0
M  V30 2034 H 198.302 -6.70904 -0.365675 0
M  V30 2035 N 201.022 0.148545 -1.56898 0
M  V30 2036 C 201.969 1.18345 -1.98149 0
M  V30 2037 C 202.939 1.42772 -0.848848 0
M  V30 2038 O 204.124 1.55132 -1.11079 0
M  V30 2039 C 201.264 2.51231 -2.36594 0
M  V30 2040 C 200.377 2.33991 -3.63142 0
M  V30 2041 C 199.512 3.59902 -3.90697 0
M  V30 2042 C 198.551 3.37692 -5.1052 0
M  V30 2043 N 197.688 4.5573 -5.34092 0
M  V30 2044 H 202.528 0.82467 -2.86362 0
M  V30 2045 H 200.065 0.395756 -1.41676 0
M  V30 2046 H 202.023 3.28713 -2.56912 0
M  V30 2047 H 200.653 2.85059 -1.51463 0
M  V30 2048 H 199.705 1.47572 -3.50609 0
M  V30 2049 H 201.017 2.13539 -4.5078 0
M  V30 2050 H 200.171 4.45813 -4.11505 0
M  V30 2051 H 198.91 3.83357 -3.01477 0
M  V30 2052 H 197.915 2.5017 -4.89587 0
M  V30 2053 H 199.14 3.15637 -6.0129 0
M  V30 2054 H 197.086 4.79361 -4.47827 0
M  V30 2055 H 197.003 4.38274 -6.15996 0
M  V30 2056 H 198.271 5.42858 -5.59397 0
M  V30 2057 N 202.5 1.5196 0.417844 0
M  V30 2058 C 203.746 1.65836 1.16732 0
M  V30 2059 C 204.079 0.382881 1.90388 0
M  V30 2060 O 203.354 -0.618368 1.84408 0
M  V30 2061 C 203.637 2.87466 2.16876 0
M  V30 2062 C 203.49 4.25041 1.47174 0
M  V30 2063 C 204.809 3.04613 3.17646 0
M  V30 2064 H 201.928 0.603515 0.423011 0
M  V30 2065 H 204.57 1.84494 0.454105 0
M  V30 2066 H 202.72 2.71689 2.777 0
M  V30 2067 H 204.392 4.52527 0.895376 0
M  V30 2068 H 202.635 4.26843 0.773806 0
M  V30 2069 H 203.306 5.06176 2.20204 0
M  V30 2070 H 205.782 3.1923 2.66892 0
M  V30 2071 H 204.658 3.91247 3.8499 0
M  V30 2072 H 204.919 2.17541 3.84874 0
M  V30 2073 N 203.978 -0.674533 1.42435 0
M  V30 2074 C 204.908 -1.80009 1.48724 0
M  V30 2075 C 205.889 -1.6659 0.343793 0
M  V30 2076 O 207.074 -1.86007 0.558137 0
M  V30 2077 C 204.204 -3.18306 1.38919 0
M  V30 2078 C 203.158 -3.46461 2.51294 0
M  V30 2079 C 202.484 -4.84335 2.26547 0
M  V30 2080 C 203.784 -3.43328 3.93603 0
M  V30 2081 H 205.478 -1.75004 2.42928 0
M  V30 2082 H 203.024 -0.840533 1.16923 0
M  V30 2083 H 204.977 -3.9678 1.41927 0
M  V30 2084 H 203.701 -3.2399 0.412094 0
M  V30 2085 H 202.36 -2.70348 2.47604 0
M  V30 2086 H 202.008 -4.86669 1.2713 0
M  V30 2087 H 201.708 -5.04136 3.01861 0
M  V30 2088 H 203.232 -5.65094 2.31304 0
M  V30 2089 H 204.646 -4.11772 3.98894 0
M  V30 2090 H 203.043 -3.74664 4.68771 0
M  V30 2091 H 204.113 -2.41897 4.20255 0
M  V30 2092 N 205.456 -1.28612 -0.910864 0
M  V30 2093 C 206.872 -1.06381 -1.18976 0
M  V30 2094 C 207.072 0.191998 -2.00583 0
M  V30 2095 O 206.128 0.892869 -2.36187 0
M  V30 2096 C 207.441 -2.31295 -1.92154 0
M  V30 2097 C 208.989 -2.36503 -2.05025 0
M  V30 2098 C 209.464 -3.61191 -2.81612 0
M  V30 2099 N 210.955 -3.61847 -2.89172 0
M  V30 2100 C 211.69 -4.55004 -3.4894 0
M  V30 2101 N 211.186 -5.58482 -4.09963 0
M  V30 2102 N 212.979 -4.42594 -3.46506 0
M  V30 2103 H 205.13 -2.09221 -0.366094 0
M  V30 2104 H 207.393 -0.921003 -0.224629 0
M  V30 2105 H 207.099 -3.228 -1.39618 0
M  V30 2106 H 206.973 -2.37934 -2.9269 0
M  V30 2107 H 209.36 -1.45494 -2.5674 0
M  V30 2108 H 209.441 -2.33857 -1.03657 0
M  V30 2109 H 209.085 -4.52545 -2.30576 0
M  V30 2110 H 209.015 -3.61092 -3.83302 0
M  V30 2111 H 211.506 -2.87022 -2.45819 0
M  V30 2112 H 211.819 -6.25704 -4.53557 0
M  V30 2113 H 210.164 -5.62305 -4.08459 0
M  V30 2114 H 213.355 -3.60953 -2.98045 0
M  V30 2115 H 213.528 -5.15381 -3.92793 0
M  V30 2116 N 206.934 1.1197 -1.10907 0
M  V30 2117 C 207.844 2.21433 -0.774896 0
M  V30 2118 C 208.86 1.72478 0.229657 0
M  V30 2119 O 210.036 2.01288 0.0672008 0
M  V30 2120 C 207.101 3.4602 -0.216986 0
M  V30 2121 C 206.162 4.09791 -1.27944 0
M  V30 2122 C 205.395 5.28431 -0.748055 0
M  V30 2123 O 205.618 5.68823 0.423833 0
M  V30 2124 O 204.552 5.82644 -1.51027 0
M  V30 2125 H 208.378 2.5242 -1.68873 0
M  V30 2126 H 205.963 1.20399 -0.884555 0
M  V30 2127 H 207.845 4.21304 0.090059 0
M  V30 2128 H 206.52 3.16698 0.669633 0
M  V30 2129 H 205.427 3.36265 -1.63941 0
M  V30 2130 H 206.76 4.4328 -2.13925 0
M  V30 2131 N 208.412 0.89855 1.29475 0
M  V30 2132 C 209.637 0.538561 2.00285 0
M  V30 2133 C 210.062 -0.869135 1.66816 0
M  V30 2134 O 209.42 -1.57831 0.892145 0
M  V30 2135 C 209.468 0.736475 3.52999 0
M  V30 2136 O 208.572 -0.211537 4.11857 0
M  V30 2137 H 207.913 0.210563 0.62973 0
M  V30 2138 H 210.443 1.20982 1.64998 0
M  V30 2139 H 210.453 0.640685 4.02938 0
M  V30 2140 H 209.128 1.76276 3.76696 0
M  V30 2141 H 207.705 -0.0682991 3.72837 0
M  V30 2142 N 209.89 -1.43072 0.660911 0
M  V30 2143 C 211.138 -2.01323 0.177094 0
M  V30 2144 C 211.459 -1.5245 -1.2159 0
M  V30 2145 O 210.729 -0.740322 -1.81373 0
M  V30 2146 H 209.309 -0.744382 0.0624804 0
M  V30 2147 H 211.971 -1.75179 0.854305 0
M  V30 2148 H 211.067 -3.11649 0.167641 0
M  V30 2149 N 211.368 -0.403325 -1.52352 0
M  V30 2150 C 212.298 0.416205 -2.29761 0
M  V30 2151 C 213.279 1.05123 -1.33728 0
M  V30 2152 O 214.464 1.06134 -1.62632 0
M  V30 2153 C 211.594 1.53624 -3.11475 0
M  V30 2154 C 210.548 1.02653 -4.15507 0
M  V30 2155 C 209.874 2.23971 -4.85532 0
M  V30 2156 C 211.174 0.08463 -5.22231 0
M  V30 2157 H 212.868 -0.229701 -2.98518 0
M  V30 2158 H 210.414 -0.111913 -1.43564 0
M  V30 2159 H 212.367 2.1165 -3.64393 0
M  V30 2160 H 211.091 2.20994 -2.40477 0
M  V30 2161 H 209.75 0.46871 -3.63591 0
M  V30 2162 H 209.398 2.89883 -4.11068 0
M  V30 2163 H 209.098 1.90521 -5.55856 0
M  V30 2164 H 210.622 2.82614 -5.41259 0
M  V30 2165 H 212.036 0.573509 -5.70424 0
M  V30 2166 H 210.433 -0.160783 -5.99885 0
M  V30 2167 H 211.503 -0.86237 -4.7717 0
M  V30 2168 N 212.846 1.57033 -0.133567 0
M  V30 2169 C 213.793 2.16074 0.811208 0
M  V30 2170 C 214.763 1.08979 1.2535 0
M  V30 2171 O 215.948 1.36958 1.32843 0
M  V30 2172 C 213.088 2.77595 2.05024 0
M  V30 2173 C 212.201 3.99042 1.65498 0
M  V30 2174 C 211.336 4.48603 2.84479 0
M  V30 2175 C 210.375 5.62547 2.41262 0
M  V30 2176 N 209.512 6.06787 3.53206 0
M  V30 2177 H 214.352 2.96477 0.300906 0
M  V30 2178 H 211.889 1.46462 0.136822 0
M  V30 2179 H 213.847 3.11402 2.77642 0
M  V30 2180 H 212.477 1.99859 2.53488 0
M  V30 2181 H 211.529 3.71302 0.826981 0
M  V30 2182 H 212.841 4.81629 1.29748 0
M  V30 2183 H 211.995 4.84395 3.65303 0
M  V30 2184 H 210.734 3.64995 3.23465 0
M  V30 2185 H 209.739 5.26345 1.58874 0
M  V30 2186 H 210.964 6.47931 2.03377 0
M  V30 2187 H 208.91 5.26117 3.91838 0
M  V30 2188 H 208.827 6.84266 3.21427 0
M  V30 2189 H 210.095 6.4722 4.34427 0
M  V30 2190 N 214.325 -0.140222 1.56975 0
M  V30 2191 C 215.555 -0.865181 1.87612 0
M  V30 2192 C 215.963 -1.74942 0.72055 0
M  V30 2193 O 215.306 -1.80917 -0.318561 0
M  V30 2194 C 215.368 -1.76782 3.13031 0
M  V30 2195 C 215.032 -1.06005 4.44536 0
M  V30 2196 C 216.029 -0.410768 5.18275 0
M  V30 2197 C 213.714 -1.04754 4.91255 0
M  V30 2198 C 215.708 0.241572 6.36942 0
M  V30 2199 C 213.395 -0.391394 6.09845 0
M  V30 2200 C 214.393 0.252029 6.82535 0
M  V30 2201 O 214.081 0.897757 7.98871 0
M  V30 2202 H 213.813 -0.255188 0.625983 0
M  V30 2203 H 216.367 -0.135653 2.04952 0
M  V30 2204 H 214.597 -2.53846 2.91718 0
M  V30 2205 H 216.286 -2.36533 3.29859 0
M  V30 2206 H 217.052 -0.412195 4.83245 0
M  V30 2207 H 212.931 -1.53777 4.34596 0
M  V30 2208 H 216.475 0.744375 6.93617 0
M  V30 2209 H 212.372 -0.387656 6.44335 0
M  V30 2210 H 213.14 0.800102 8.1458 0
M  V30 2211 N 215.803 -1.52179 -0.40978 0
M  V30 2212 C 217.049 -1.66453 -1.15851 0
M  V30 2213 C 217.382 -0.392972 -1.90182 0
M  V30 2214 O 216.657 0.608579 -1.84734 0
M  V30 2215 C 216.94 -2.88612 -2.15349 0
M  V30 2216 C 216.793 -4.25815 -1.44918 0
M  V30 2217 C 218.112 -3.06294 -3.16026 0
M  V30 2218 H 215.231 -0.60575 -0.419805 0
M  V30 2219 H 217.873 -1.84732 -0.444314 0
M  V30 2220 H 216.023 -2.73158 -2.76255 0
M  V30 2221 H 217.695 -4.52995 -0.871365 0
M  V30 2222 H 215.938 -4.27247 -0.751159 0
M  V30 2223 H 216.609 -5.07337 -2.17516 0
M  V30 2224 H 219.085 -3.20641 -2.65195 0
M  V30 2225 H 217.961 -3.93283 -3.8291 0
M  V30 2226 H 218.222 -2.19579 -3.83715 0
M  V30 2227 N 217.281 0.66697 -1.42791 0
M  V30 2228 C 218.244 1.76211 -1.46568 0
M  V30 2229 C 219.244 1.56896 -0.352196 0
M  V30 2230 O 220.434 1.63044 -0.613364 0
M  V30 2231 C 217.566 3.14935 -1.30494 0
M  V30 2232 H 218.759 1.74247 -2.44086 0
M  V30 2233 H 216.312 0.877342 -1.29354 0
M  V30 2234 H 217.047 3.2252 -0.339301 0
M  V30 2235 H 216.832 3.30359 -2.11199 0
M  V30 2236 H 218.322 3.94821 -1.36038 0
M  V30 2237 N 218.759 1.29093 0.90403 0
M  V30 2238 C 220.005 1.16986 1.65656 0
M  V30 2239 C 220.338 -0.278925 1.92186 0
M  V30 2240 O 219.613 -1.2019 1.5292 0
M  V30 2241 C 219.896 1.97908 3.0084 0
M  V30 2242 C 219.749 3.50903 2.81403 0
M  V30 2243 C 221.068 1.80208 4.01513 0
M  V30 2244 H 218.187 0.426346 0.601164 0
M  V30 2245 H 220.829 1.58518 1.04747 0
M  V30 2246 H 218.979 1.62616 3.52829 0
M  V30 2247 H 220.651 3.96153 2.36348 0
M  V30 2248 H 218.894 3.76045 2.1627 0
M  V30 2249 H 219.565 4.02791 3.77443 0
M  V30 2250 H 222.041 2.11025 3.58619 0
M  V30 2251 H 220.917 2.39184 4.94047 0
M  V30 2252 H 221.178 0.756119 4.35586 0
M  V30 2253 N 220.237 -1.11381 1.11499 0
M  V30 2254 C 221.17 -2.16621 0.71769 0
M  V30 2255 C 222.148 -1.60058 -0.286413 0
M  V30 2256 O 223.332 -1.87613 -0.182689 0
M  V30 2257 C 220.459 -3.38646 0.0607265 0
M  V30 2258 C 219.505 -4.13874 1.03008 0
M  V30 2259 S 220.338 -4.70731 2.55289 0
M  V30 2260 C 221.494 -5.96079 1.90895 0
M  V30 2261 H 221.727 -2.49987 1.60915 0
M  V30 2262 H 219.26 -1.23015 0.933092 0
M  V30 2263 H 221.218 -4.09313 -0.311965 0
M  V30 2264 H 219.879 -3.03537 -0.807702 0
M  V30 2265 H 219.072 -5.01333 0.517853 0
M  V30 2266 H 218.674 -3.4897 1.34522 0
M  V30 2267 H 220.966 -6.65948 1.24577 0
M  V30 2268 H 221.909 -6.51946 2.76354 0
M  V30 2269 H 222.317 -5.47652 1.36885 0
M  V30 2270 N 221.715 -0.905404 -1.28997 0
M  V30 2271 C 223.126 -0.581953 -1.77398 0
M  V30 2272 C 223.477 0.902552 -1.74208 0
M  V30 2273 O 222.602 1.70584 -1.33154 0
M  V30 2274 C 223.197 -1.04961 -3.22131 0
M  V30 2275 C 221.756 -0.777229 -3.68288 0
M  V30 2276 C 220.903 -1.22109 -2.48967 0
M  V30 2277 H 223.854 -1.08754 -1.15578 0
M  V30 2278 H 223.875 -0.387387 -3.78523 0
M  V30 2279 H 223.387 -2.13008 -3.24421 0
M  V30 2280 H 221.488 0.290383 -3.71467 0
M  V30 2281 H 221.601 -1.37911 -4.58822 0
M  V30 2282 H 219.965 -0.639971 -2.46529 0
M  V30 2283 H 220.748 -2.30972 -2.53982 0
M  V30 2284 N 223.193 1.4272 -0.668489 0
M  V30 2285 C 224.604 1.84793 -0.266151 0
M  V30 2286 C 224.955 1.55959 1.19043 0
M  V30 2287 O 224.08 1.01622 1.91055 0
M  V30 2288 C 224.675 3.35436 -0.476271 0
M  V30 2289 C 223.234 3.76182 -0.128113 0
M  V30 2290 C 222.381 2.66344 -0.771777 0
M  V30 2291 H 225.332 1.32656 -0.871098 0
M  V30 2292 H 225.353 3.79515 0.273561 0
M  V30 2293 H 224.865 3.5639 -1.53647 0
M  V30 2294 H 222.966 3.60836 0.928891 0
M  V30 2295 H 223.079 4.75766 -0.564231 0
M  V30 2296 H 221.443 2.53885 -0.203652 0
M  V30 2297 H 222.226 2.90123 -1.83531 0
M  V30 2298 N 224.671 0.411399 1.52136 0
M  V30 2299 C 225.621 -0.430376 2.23901 0
M  V30 2300 C 226.605 -1.0116 1.25121 0
M  V30 2301 O 227.797 -0.934044 1.50348 0
M  V30 2302 C 224.926 -1.54527 3.06556 0
M  V30 2303 C 224.012 -0.9747 4.12747 0
M  V30 2304 N 224.403 -0.130991 5.0563 0
M  V30 2305 C 222.701 -1.24497 4.28271 0
M  V30 2306 C 223.402 0.186689 5.814 0
M  V30 2307 N 222.378 -0.42304 5.41951 0
M  V30 2308 H 226.18 0.220509 2.93072 0
M  V30 2309 H 223.694 0.221952 1.60876 0
M  V30 2310 H 225.691 -2.16093 3.56524 0
M  V30 2311 H 224.351 -2.19875 2.38925 0
M  V30 2312 H 225.362 0.23349 5.17373 0
M  V30 2313 H 222.039 -1.89787 3.7187 0
M  V30 2314 H 223.429 0.871673 6.66222 0
M  V30 2315 N 226.149 -1.5696 0.141893 0
M  V30 2316 C 227.398 -1.95135 -0.510427 0
M  V30 2317 C 227.711 -1.02896 -1.66348 0
M  V30 2318 O 228.917 -1.30629 -2.38009 0
M  V30 2319 C 227.373 -3.46876 -0.959427 0
M  V30 2320 C 226.981 -4.47691 0.166419 0
M  V30 2321 C 228.725 -3.93927 -1.58183 0
M  V30 2322 C 226.632 -5.90636 -0.300565 0
M  V30 2323 H 225.562 -0.728494 -0.194454 0
M  V30 2324 H 228.213 -1.8211 0.22542 0
M  V30 2325 H 226.595 -3.55215 -1.75038 0
M  V30 2326 H 227.769 -4.51043 0.94325 0
M  V30 2327 H 226.084 -4.10527 0.696905 0
M  V30 2328 H 228.681 -4.98158 -1.94275 0
M  V30 2329 H 229.024 -3.3519 -2.46888 0
M  V30 2330 H 229.557 -3.88484 -0.855863 0
M  V30 2331 H 226.296 -6.5318 0.550989 0
M  V30 2332 H 225.816 -5.90655 -1.04338 0
M  V30 2333 H 227.495 -6.42588 -0.754265 0
M  V30 2334 N 227.627 0.131896 -1.57047 0
M  V30 2335 C 228.875 0.840269 -1.83804 0
M  V30 2336 C 229.196 1.81017 -0.72512 0
M  V30 2337 O 228.466 1.94272 0.251995 0
M  V30 2338 H 227.046 0.313294 -0.678127 0
M  V30 2339 H 229.708 0.122294 -1.94516 0
M  V30 2340 H 228.804 1.39335 -2.79271 0
M  V30 2341 N 229.106 1.52395 0.401703 0
M  V30 2342 C 230.383 1.57387 1.16141 0
M  V30 2343 C 230.763 0.359359 2.08019 0
M  V30 2344 O 230.111 -0.65326 2.18963 0
M  V30 2345 C 230.321 2.90631 1.93221 0
M  V30 2346 C 231.669 3.43904 2.49028 0
M  V30 2347 O 232.693 2.92421 2.03393 0
M  V30 2348 O 231.552 4.33823 3.32356 0
M  V30 2349 H 228.646 0.634262 0.530698 0
M  V30 2350 H 231.192 1.64725 0.407883 0
M  V30 2351 H 229.964 3.70473 1.25958 0
M  V30 2352 H 229.587 2.8662 2.75563 0
M  V30 2353 N 230.584 -0.659388 1.43143 0
M  V30 2354 C 231.516 -1.7849 1.43784 0
M  V30 2355 C 232.529 -1.5932 0.334787 0
M  V30 2356 O 233.718 -1.68155 0.598842 0
M  V30 2357 C 230.818 -3.15828 1.22906 0
M  V30 2358 C 229.991 -3.61711 2.45934 0
M  V30 2359 C 229.05 -4.77831 2.20371 0
M  V30 2360 O 228.076 -4.87586 2.93681 0
M  V30 2361 N 229.278 -5.67611 1.21647 0
M  V30 2362 H 232.043 -1.7842 2.40803 0
M  V30 2363 H 229.604 -0.84302 1.3822 0
M  V30 2364 H 231.596 -3.91189 1.03697 0
M  V30 2365 H 230.166 -3.10707 0.343542 0
M  V30 2366 H 229.386 -2.76861 2.80609 0
M  V30 2367 H 230.674 -3.89112 3.27825 0
M  V30 2368 H 230.072 -5.62397 0.610449 0
M  V30 2369 H 228.629 -6.42719 1.08423 0
M  V30 2370 N 232.062 -1.29571 -0.897171 0
M  V30 2371 C 233.473 -1.15964 -1.46319 0
M  V30 2372 C 233.824 0.244267 -1.94674 0
M  V30 2373 O 232.949 1.13998 -1.83939 0
M  V30 2374 C 233.544 -2.09906 -2.65942 0
M  V30 2375 C 232.103 -2.00314 -3.18671 0
M  V30 2376 C 231.25 -2.00687 -1.91363 0
M  V30 2377 H 234.201 -1.42019 -0.708268 0
M  V30 2378 H 234.222 -1.67276 -3.41759 0
M  V30 2379 H 233.734 -3.12075 -2.30718 0
M  V30 2380 H 231.835 -1.01242 -3.58582 0
M  V30 2381 H 231.948 -2.88102 -3.82798 0
M  V30 2382 H 230.312 -1.45319 -2.09175 0
M  V30 2383 H 231.095 -3.04566 -1.58413 0
M  V30 2384 N 233.54 1.10788 -1.12088 0
M  V30 2385 C 234.47 2.19083 -0.807755 0
M  V30 2386 C 235.451 1.6858 0.226859 0
M  V30 2387 O 236.636 1.93997 0.0888475 0
M  V30 2388 C 233.766 3.46344 -0.257576 0
M  V30 2389 C 232.72 4.101 -1.22483 0
M  V30 2390 C 232.046 5.32016 -0.535052 0
M  V30 2391 C 233.346 4.54236 -2.57811 0
M  V30 2392 H 235.04 2.45534 -1.71328 0
M  V30 2393 H 232.586 1.1801 -0.825205 0
M  V30 2394 H 234.539 4.21392 -0.0262679 0
M  V30 2395 H 233.263 3.19373 0.683278 0
M  V30 2396 H 231.922 3.37054 -1.44189 0
M  V30 2397 H 231.57 5.01319 0.410827 0
M  V30 2398 H 231.27 5.75625 -1.18024 0
M  V30 2399 H 232.794 6.09799 -0.312695 0
M  V30 2400 H 234.208 5.20575 -2.40155 0
M  V30 2401 H 232.605 5.08682 -3.18375 0
M  V30 2402 H 233.675 3.6734 -3.16528 0
M  V30 2403 N 235.018 0.912232 1.28515 0
M  V30 2404 C 236.246 0.560416 1.99166 0
M  V30 2405 C 236.661 -0.857927 1.68182 0
M  V30 2406 O 236.018 -1.56805 0.933733 0
M  V30 2407 C 236.069 0.758142 3.53461 0
M  V30 2408 O 235.79 2.12067 3.83352 0
M  V30 2409 C 237.291 0.412954 4.41372 0
M  V30 2410 H 234.511 0.213805 0.636026 0
M  V30 2411 H 237.055 1.22502 1.63749 0
M  V30 2412 H 235.21 0.140556 3.87145 0
M  V30 2413 H 235.624 2.15923 4.77993 0
M  V30 2414 H 237.098 0.60208 5.48707 0
M  V30 2415 H 237.575 -0.65073 4.34353 0
M  V30 2416 H 238.181 1.00802 4.13182 0
M  V30 2417 N 236.496 -1.42363 0.676048 0
M  V30 2418 C 237.744 -2.01123 0.198437 0
M  V30 2419 C 238.065 -1.53731 -1.19966 0
M  V30 2420 O 237.335 -0.759518 -1.80577 0
M  V30 2421 H 235.915 -0.743678 0.0703721 0
M  V30 2422 H 238.577 -1.74263 0.872837 0
M  V30 2423 H 237.673 -3.11454 0.200686 0
M  V30 2424 N 237.974 -0.419461 -1.51915 0
M  V30 2425 C 238.937 0.389116 -2.25873 0
M  V30 2426 C 239.937 0.964924 -1.28631 0
M  V30 2427 O 241.127 0.842179 -1.52489 0
M  V30 2428 C 238.259 1.54874 -3.03689 0
M  V30 2429 H 239.452 -0.258799 -2.98781 0
M  V30 2430 H 237.005 -0.172209 -1.55348 0
M  V30 2431 H 237.74 2.23323 -2.35154 0
M  V30 2432 H 237.525 1.14223 -3.75094 0
M  V30 2433 H 239.015 2.12046 -3.59759 0
M  V30 2434 N 239.452 1.56882 -0.150215 0
M  V30 2435 C 240.682 2.00302 0.506213 0
M  V30 2436 C 241.09 1.02934 1.58749 0
M  V30 2437 O 240.433 0.0188384 1.8369 0
M  V30 2438 C 240.495 3.40156 1.16337 0
M  V30 2439 C 240.159 4.56439 0.226311 0
M  V30 2440 C 241.156 5.17012 -0.547265 0
M  V30 2441 C 238.841 5.02136 0.128279 0
M  V30 2442 C 240.835 6.21693 -1.40629 0
M  V30 2443 C 238.522 6.06672 -0.734345 0
M  V30 2444 C 239.52 6.6632 -1.50023 0
M  V30 2445 O 239.208 7.68831 -2.34848 0
M  V30 2446 H 238.94 0.662182 0.135984 0
M  V30 2447 H 241.494 2.03961 -0.242746 0
M  V30 2448 H 239.724 3.33346 1.96004 0
M  V30 2449 H 241.413 3.67663 1.71985 0
M  V30 2450 H 242.179 4.82603 -0.48158 0
M  V30 2451 H 238.058 4.55435 0.714157 0
M  V30 2452 H 241.602 6.68179 -2.00455 0
M  V30 2453 H 237.499 6.40507 -0.801309 0
M  V30 2454 H 238.267 7.86065 -2.28131 0
M  V30 2455 N 240.93 -0.123565 1.57115 0
M  V30 2456 C 242.158 -0.846461 1.88793 0
M  V30 2457 C 242.573 -1.73652 0.740976 0
M  V30 2458 O 241.93 -1.80207 -0.288393 0
M  V30 2459 C 241.981 -1.6837 3.19897 0
M  V30 2460 O 241.702 -0.829477 4.30176 0
M  V30 2461 C 243.203 -2.51214 3.65248 0
M  V30 2462 H 240.423 -0.243573 0.625231 0
M  V30 2463 H 242.967 -0.109324 2.04208 0
M  V30 2464 H 241.122 -2.37364 3.06165 0
M  V30 2465 H 241.536 -1.40651 5.0529 0
M  V30 2466 H 243.01 -3.05497 4.59756 0
M  V30 2467 H 243.487 -3.28359 2.9168 0
M  V30 2468 H 244.093 -1.8747 3.81752 0
M  V30 2469 N 242.408 -1.52605 -0.393616 0
M  V30 2470 C 243.654 -1.67672 -1.14079 0
M  V30 2471 C 243.987 -0.413121 -1.89755 0
M  V30 2472 O 243.262 0.588952 -1.85369 0
M  V30 2473 C 243.545 -2.9088 -2.12276 0
M  V30 2474 C 243.398 -4.27329 -1.40394 0
M  V30 2475 C 244.717 -3.09628 -3.12759 0
M  V30 2476 H 241.836 -0.610168 -0.413356 0
M  V30 2477 H 244.478 -1.85193 -0.424696 0
M  V30 2478 H 242.628 -2.76073 -2.73342 0
M  V30 2479 H 244.3 -4.53894 -0.82327 0
M  V30 2480 H 242.543 -4.2802 -0.705801 0
M  V30 2481 H 243.214 -5.09615 -2.12123 0
M  V30 2482 H 245.69 -3.23436 -2.61779 0
M  V30 2483 H 244.566 -3.97322 -3.78717 0
M  V30 2484 H 244.827 -2.23637 -3.81365 0
M  V30 2485 N 243.887 0.651787 -1.4349 0
M  V30 2486 C 245.115 1.43937 -1.48626 0
M  V30 2487 C 245.53 1.8851 -0.104587 0
M  V30 2488 O 244.887 1.5958 0.885464 0
M  V30 2489 C 244.938 2.6734 -2.43334 0
M  V30 2490 O 244.659 2.24631 -3.76128 0
M  V30 2491 C 246.16 3.60683 -2.57726 0
M  V30 2492 H 243.38 0.44213 -0.504739 0
M  V30 2493 H 245.924 0.798944 -1.88248 0
M  V30 2494 H 244.079 3.2752 -2.06904 0
M  V30 2495 H 244.493 3.04485 -4.2707 0
M  V30 2496 H 245.967 4.43933 -3.28067 0
M  V30 2497 H 246.444 4.08126 -1.62265 0
M  V30 2498 H 247.05 3.06384 -2.94973 0
M  V30 2499 N 245.365 1.30045 0.890287 0
M  V30 2500 C 246.295 1.18541 2.01172 0
M  V30 2501 C 247.276 0.0773356 1.69924 0
M  V30 2502 O 248.461 0.25845 1.92473 0
M  V30 2503 C 245.591 0.870941 3.36202 0
M  V30 2504 C 244.545 1.93637 3.81692 0
M  V30 2505 C 243.871 1.475 5.13953 0
M  V30 2506 C 245.171 3.34666 4.00994 0
M  V30 2507 H 246.865 2.12359 2.11054 0
M  V30 2508 H 244.411 1.02238 1.01407 0
M  V30 2509 H 246.364 0.777141 4.14172 0
M  V30 2510 H 245.088 -0.102926 3.26438 0
M  V30 2511 H 243.747 2.01972 3.05946 0
M  V30 2512 H 243.395 0.489551 5.00612 0
M  V30 2513 H 243.095 2.1876 5.4536 0
M  V30 2514 H 244.619 1.39489 5.94454 0
M  V30 2515 H 246.033 3.2912 4.69417 0
M  V30 2516 H 244.43 4.03966 4.43769 0
M  V30 2517 H 245.5 3.76949 3.05021 0
M  V30 2518 N 246.843 -1.10192 1.12674 0
M  V30 2519 C 248.12 -1.78717 0.794965 0
M  V30 2520 C 248.5 -1.98628 -0.714853 0
M  V30 2521 O 247.848 -1.58135 -1.64941 0
M  V30 2522 C 248.058 -3.11546 1.5729 0
M  V30 2523 C 249.406 -3.86382 1.76052 0
M  V30 2524 O 250.43 -3.21274 1.53823 0
M  V30 2525 O 249.289 -5.03246 2.13087 0
M  V30 2526 H 246.383 -0.774702 0.289423 0
M  V30 2527 H 248.929 -1.16819 1.23091 0
M  V30 2528 H 247.701 -2.92489 2.59935 0
M  V30 2529 H 247.324 -3.81164 1.13137 0
M  V30 2530 N 248.321 -0.919034 -1.28029 0
M  V30 2531 C 249.569 -0.553838 -1.94363 0
M  V30 2532 C 249.89 0.906357 -1.72656 0
M  V30 2533 O 249.16 1.64143 -1.0693 0
M  V30 2534 H 247.74 -0.201834 -0.719216 0
M  V30 2535 H 250.402 -1.16954 -1.55909 0
M  V30 2536 H 249.498 -0.752758 -3.02886 0
M  V30 2537 N 249.799 1.42003 -0.683588 0
M  V30 2538 C 251.215 1.55625 -0.353976 0
M  V30 2539 C 251.415 1.66151 1.14 0
M  V30 2540 O 250.471 1.63329 1.92561 0
M  V30 2541 C 251.784 2.80171 -1.092 0
M  V30 2542 C 253.332 2.93954 -1.07518 0
M  V30 2543 C 253.807 4.21372 -1.79471 0
M  V30 2544 N 255.298 4.28303 -1.76381 0
M  V30 2545 C 256.033 5.25729 -2.28904 0
M  V30 2546 N 255.529 6.29254 -2.89846 0
M  V30 2547 N 257.322 5.17586 -2.19228 0
M  V30 2548 H 249.473 1.33415 -1.6527 0
M  V30 2549 H 251.736 0.64282 -0.696769 0
M  V30 2550 H 251.442 2.78561 -2.14701 0
M  V30 2551 H 251.316 3.7133 -0.662862 0
M  V30 2552 H 253.703 2.95086 -0.028475 0
M  V30 2553 H 253.784 2.04002 -1.54328 0
M  V30 2554 H 253.428 4.21001 -2.84114 0
M  V30 2555 H 253.358 5.10275 -1.30104 0
M  V30 2556 H 255.849 3.54119 -1.31939 0
M  V30 2557 H 256.162 6.99964 -3.27522 0
M  V30 2558 H 254.507 6.29791 -2.93919 0
M  V30 2559 H 257.698 4.35631 -1.71299 0
M  V30 2560 H 257.871 5.93348 -2.60466 0
M  V30 2561 N 251.277 0.427512 1.51691 0
M  V30 2562 C 252.525 -0.141948 2.01601 0
M  V30 2563 C 252.846 -1.44067 1.31414 0
M  V30 2564 O 252.116 -1.90763 0.445658 0
M  V30 2565 H 250.696 -0.0554468 0.744939 0
M  V30 2566 H 253.358 0.567968 1.86441 0
M  V30 2567 H 252.454 -0.324913 3.10404 0
M  V30 2568 N 252.755 -1.56801 0.158532 0
M  V30 2569 C 254.166 -1.83189 -0.360366 0
M  V30 2570 C 254.517 -1.07778 -1.63946 0
M  V30 2571 O 253.642 -0.326718 -2.13919 0
M  V30 2572 C 254.237 -3.32297 -0.660595 0
M  V30 2573 C 252.796 -3.59227 -1.12398 0
M  V30 2574 C 251.943 -2.76877 -0.153097 0
M  V30 2575 H 254.894 -1.54008 0.383031 0
M  V30 2576 H 254.915 -3.4908 -1.51405 0
M  V30 2577 H 254.427 -3.87156 0.270527 0
M  V30 2578 H 252.528 -3.09766 -2.07064 0
M  V30 2579 H 252.641 -4.67632 -1.04197 0
M  V30 2580 H 251.005 -2.46319 -0.647983 0
M  V30 2581 H 251.788 -3.34511 0.77182 0
M  V30 2582 N 254.233 0.115231 -1.57178 0
M  V30 2583 C 255.458 0.840354 -1.89612 0
M  V30 2584 C 255.883 1.72464 -0.750845 0
M  V30 2585 O 255.241 1.78826 0.298478 0
M  V30 2586 C 255.289 1.64654 -3.20814 0
M  V30 2587 O 254.393 2.7538 -3.06985 0
M  V30 2588 H 253.734 0.232158 -0.622092 0
M  V30 2589 H 256.264 0.0964977 -2.04372 0
M  V30 2590 H 256.274 2.03499 -3.53627 0
M  V30 2591 H 254.949 0.997416 -4.03763 0
M  V30 2592 H 253.526 2.3971 -2.85646 0
M  V30 2593 N 255.711 1.52812 0.385517 0
M  V30 2594 C 257.127 1.4214 0.725829 0
M  V30 2595 C 257.327 0.544589 1.94001 0
M  V30 2596 O 256.383 0.0193693 2.52493 0
M  V30 2597 C 257.696 2.85042 0.957668 0
M  V30 2598 C 259.244 2.94543 1.05892 0
M  V30 2599 C 259.719 4.38464 1.32337 0
M  V30 2600 N 261.21 4.41804 1.39151 0
M  V30 2601 C 261.945 5.5025 1.61285 0
M  V30 2602 N 261.441 6.68775 1.80866 0
M  V30 2603 N 263.234 5.37798 1.63492 0
M  V30 2604 H 255.385 2.08338 -0.413383 0
M  V30 2605 H 257.648 0.940016 -0.122775 0
M  V30 2606 H 257.354 3.51431 0.137568 0
M  V30 2607 H 257.228 3.27505 1.87137 0
M  V30 2608 H 259.615 2.28321 1.86959 0
M  V30 2609 H 259.696 2.55504 0.123057 0
M  V30 2610 H 259.34 5.05254 0.517793 0
M  V30 2611 H 259.27 4.75059 2.27214 0
M  V30 2612 H 261.761 3.56377 1.25713 0
M  V30 2613 H 262.074 7.47197 1.97271 0
M  V30 2614 H 260.419 6.71797 1.78083 0
M  V30 2615 H 263.61 4.44171 1.47749 0
M  V30 2616 H 263.783 6.22382 1.80402 0
M  V30 2617 N 257.189 -0.644168 1.43834 0
M  V30 2618 C 258.435 -1.40603 1.46146 0
M  V30 2619 C 258.768 -1.93997 0.0887717 0
M  V30 2620 O 258.043 -1.72854 -0.891724 0
M  V30 2621 C 258.326 -2.58086 2.51124 0
M  V30 2622 C 258.179 -2.10126 3.97702 0
M  V30 2623 C 259.498 -3.60291 2.52742 0
M  V30 2624 H 256.617 -0.509905 0.532134 0
M  V30 2625 H 259.259 -0.729502 1.75437 0
M  V30 2626 H 257.409 -3.15801 2.26278 0
M  V30 2627 H 259.081 -1.57342 4.33637 0
M  V30 2628 H 257.324 -1.41419 4.10101 0
M  V30 2629 H 257.995 -2.94649 4.66783 0
M  V30 2630 H 260.471 -3.12352 2.7491 0
M  V30 2631 H 259.347 -4.40032 3.28121 0
M  V30 2632 H 259.608 -4.1349 1.56455 0
M  V30 2633 N 258.668 -1.30515 -0.883378 0
M  V30 2634 C 259.917 -1.18795 -1.63005 0
M  V30 2635 C 260.23 0.255923 -1.93919 0
M  V30 2636 O 261.436 0.494654 -2.66956 0
M  V30 2637 C 259.892 -2.07878 -2.93794 0
M  V30 2638 C 259.5 -3.57184 -2.70414 0
M  V30 2639 C 261.244 -2.04924 -3.71761 0
M  V30 2640 C 259.151 -4.38317 -3.97029 0
M  V30 2641 H 258.081 -0.441031 -0.611562 0
M  V30 2642 H 260.732 -1.55275 -0.977854 0
M  V30 2643 H 259.114 -1.64283 -3.60315 0
M  V30 2644 H 260.288 -4.08937 -2.12384 0
M  V30 2645 H 258.603 -3.61976 -2.0582 0
M  V30 2646 H 261.2 -2.62792 -4.65665 0
M  V30 2647 H 261.543 -1.0331 -4.03277 0
M  V30 2648 H 262.076 -2.46649 -3.12104 0
M  V30 2649 H 258.815 -5.40632 -3.70671 0
M  V30 2650 H 258.335 -3.91326 -4.54559 0
M  V30 2651 H 260.014 -4.49834 -4.65036 0
M  V30 2652 N 260.146 1.09593 -1.13257 0
M  V30 2653 C 261.371 1.8604 -0.916732 0
M  V30 2654 C 261.796 1.80504 0.529146 0
M  V30 2655 O 261.154 1.18127 1.37534 0
M  V30 2656 C 261.202 3.32017 -1.40703 0
M  V30 2657 O 260.306 4.08141 -0.591153 0
M  V30 2658 H 259.647 0.576943 -0.328683 0
M  V30 2659 H 262.177 1.38405 -1.50682 0
M  V30 2660 H 262.187 3.82865 -1.4099 0
M  V30 2661 H 260.862 3.35361 -2.45979 0
M  V30 2662 H 259.439 3.67084 -0.656005 0
M  V30 2663 N 261.624 0.925811 1.2754 0
M  V30 2664 C 262.571 0.422045 2.26908 0
M  V30 2665 C 263.541 -0.510029 1.58076 0
M  V30 2666 O 264.726 -0.429599 1.85901 0
M  V30 2667 C 261.866 -0.320837 3.43605 0
M  V30 2668 C 260.979 0.64513 4.27156 0
M  V30 2669 C 260.114 -0.117405 5.3107 0
M  V30 2670 C 259.153 0.841391 6.0629 0
M  V30 2671 N 258.29 0.111604 7.02011 0
M  V30 2672 H 263.13 1.27441 2.69375 0
M  V30 2673 H 260.667 0.639697 1.32462 0
M  V30 2674 H 262.625 -0.76785 4.10073 0
M  V30 2675 H 261.255 -1.13745 3.02096 0
M  V30 2676 H 260.307 1.21067 3.6062 0
M  V30 2677 H 261.619 1.37797 4.79389 0
M  V30 2678 H 260.773 -0.624422 6.03478 0
M  V30 2679 H 259.512 -0.883219 4.79636 0
M  V30 2680 H 258.517 1.35967 5.32722 0
M  V30 2681 H 259.742 1.60696 6.59813 0
M  V30 2682 H 257.688 -0.635999 6.5291 0
M  V30 2683 H 257.605 0.784044 7.51923 0
M  V30 2684 H 258.873 -0.374823 7.78598 0
M  V30 2685 N 263.102 -1.41638 0.69111 0
M  V30 2686 C 264.052 -2.28 -0.000107832 0
M  V30 2687 C 265.036 -1.41964 -0.757304 0
M  V30 2688 O 266.228 -1.65274 -0.633532 0
M  V30 2689 C 263.357 -3.30209 -0.938983 0
M  V30 2690 C 262.443 -4.23725 -0.17827 0
M  V30 2691 N 262.834 -4.99017 0.825563 0
M  V30 2692 C 261.132 -4.44071 -0.414392 0
M  V30 2693 C 261.833 -5.67431 1.28052 0
M  V30 2694 N 260.809 -5.40197 0.607304 0
M  V30 2695 H 264.611 -2.83644 0.769617 0
M  V30 2696 H 262.125 -1.53797 0.521562 0
M  V30 2697 H 264.122 -3.90898 -1.44929 0
M  V30 2698 H 262.782 -2.76126 -1.70836 0
M  V30 2699 H 263.793 -5.03671 1.20566 0
M  V30 2700 H 260.47 -4.01004 -1.162 0
M  V30 2701 H 261.86 -6.37801 2.11327 0
M  V30 2702 N 264.58 -0.43555 -1.51462 0
M  V30 2703 C 265.857 0.191364 -1.94662 0
M  V30 2704 C 266.237 1.60254 -1.37411 0
M  V30 2705 O 265.585 2.2152 -0.560458 0
M  V30 2706 C 265.795 0.17091 -3.48581 0
M  V30 2707 C 267.143 0.377357 -4.2292 0
M  V30 2708 O 268.167 0.249104 -3.55328 0
M  V30 2709 O 267.026 0.63247 -5.42828 0
M  V30 2710 H 264.12 0.130932 -0.816569 0
M  V30 2711 H 266.666 -0.4934 -1.62369 0
M  V30 2712 H 265.438 -0.815738 -3.82703 0
M  V30 2713 H 265.061 0.898659 -3.87311 0
M  V30 2714 N 266.058 1.56714 -0.166846 0
M  V30 2715 C 266.988 2.20754 0.760913 0
M  V30 2716 C 267.969 1.16178 1.24244 0
M  V30 2717 O 269.154 1.44592 1.29641 0
M  V30 2718 C 266.284 2.84478 1.99223 0
M  V30 2719 C 265.238 3.95053 1.64672 0
M  V30 2720 C 264.564 4.45805 2.95232 0
M  V30 2721 C 265.864 5.14865 0.878155 0
M  V30 2722 H 267.558 2.98537 0.22713 0
M  V30 2723 H 265.104 1.43596 0.107805 0
M  V30 2724 H 267.057 3.27951 2.64624 0
M  V30 2725 H 265.781 2.04056 2.55007 0
M  V30 2726 H 264.44 3.52228 1.01641 0
M  V30 2727 H 264.088 3.62181 3.49047 0
M  V30 2728 H 263.788 5.204 2.7287 0
M  V30 2729 H 265.312 4.91962 3.6167 0
M  V30 2730 H 266.726 5.55059 1.43466 0
M  V30 2731 H 265.123 5.95348 0.753738 0
M  V30 2732 H 266.193 4.84735 -0.126377 0
M  V30 2733 N 267.536 -0.106894 1.57237 0
M  V30 2734 C 268.784 -0.810921 1.85117 0
M  V30 2735 C 269.105 -1.7984 0.753827 0
M  V30 2736 O 268.375 -1.94649 -0.221056 0
M  V30 2737 H 266.955 -0.302466 0.683025 0
M  V30 2738 H 269.617 -0.0913324 1.94686 0
M  V30 2739 H 268.713 -1.34875 2.81452 0
M  V30 2740 N 269.014 -1.53014 -0.377408 0
M  V30 2741 C 269.964 -1.74996 -1.46152 0
M  V30 2742 C 270.948 -0.604236 -1.49123 0
M  V30 2743 O 272.14 -0.862489 -1.54564 0
M  V30 2744 C 269.269 -1.93267 -2.8373 0
M  V30 2745 C 268.355 -3.13807 -2.85283 0
M  V30 2746 N 268.746 -4.35941 -2.56493 0
M  V30 2747 C 267.044 -3.14288 -3.16448 0
M  V30 2748 C 267.745 -5.17615 -2.65424 0
M  V30 2749 N 266.721 -4.53559 -2.99641 0
M  V30 2750 H 270.523 -2.67044 -1.22738 0
M  V30 2751 H 268.037 -1.51479 -0.585479 0
M  V30 2752 H 270.034 -2.0714 -3.61799 0
M  V30 2753 H 268.694 -1.0244 -3.08117 0
M  V30 2754 H 269.705 -4.63876 -2.30302 0
M  V30 2755 H 266.382 -2.33312 -3.46225 0
M  V30 2756 H 267.772 -6.25006 -2.46612 0
M  V30 2757 N 270.492 0.636531 -1.44174 0
M  V30 2758 C 271.739 1.39619 -1.46672 0
M  V30 2759 C 272.067 1.94257 -0.0972691 0
M  V30 2760 O 271.322 1.73768 0.900175 0
M  V30 2761 C 271.621 2.58309 -2.47005 0
M  V30 2762 C 271.287 2.21992 -3.92467 0
M  V30 2763 C 269.949 2.118 -4.32081 0
M  V30 2764 C 272.301 1.9321 -4.84065 0
M  V30 2765 C 269.629 1.71007 -5.61225 0
M  V30 2766 C 271.981 1.53911 -6.13591 0
M  V30 2767 C 270.645 1.42257 -6.52165 0
M  V30 2768 H 269.915 0.510902 -0.536712 0
M  V30 2769 H 272.562 0.722328 -1.77355 0
M  V30 2770 H 270.867 3.30903 -2.09786 0
M  V30 2771 H 272.564 3.16533 -2.46186 0
M  V30 2772 H 269.154 2.30841 -3.61124 0
M  V30 2773 H 273.338 1.99997 -4.54219 0
M  V30 2774 H 268.594 1.60583 -5.89935 0
M  V30 2775 H 272.768 1.30677 -6.8403 0
M  V30 2776 H 270.395 1.10419 -7.52138 0
M  V30 2777 N 271.97 1.30982 0.876444 0
M  V30 2778 C 272.903 1.12414 1.98591 0
M  V30 2779 C 273.881 0.0294078 1.62573 0
M  V30 2780 O 275.065 0.184598 1.87594 0
M  V30 2781 C 272.192 0.716276 3.3104 0
M  V30 2782 C 271.238 1.81311 3.86042 0
M  V30 2783 S 272.071 3.41727 4.1229 0
M  V30 2784 C 273.227 3.02863 5.47745 0
M  V30 2785 H 273.46 2.06338 2.14037 0
M  V30 2786 H 270.993 1.15393 1.02586 0
M  V30 2787 H 272.951 0.487697 4.07593 0
M  V30 2788 H 271.612 -0.203749 3.13438 0
M  V30 2789 H 270.805 1.48021 4.81774 0
M  V30 2790 H 270.407 1.99641 3.16259 0
M  V30 2791 H 272.699 2.51353 6.29148 0
M  V30 2792 H 273.642 3.97533 5.8598 0
M  V30 2793 H 274.05 2.40487 5.10711 0
M  V30 2794 N 273.449 -1.08991 1.13837 0
M  V30 2795 C 274.379 -2.17771 0.842507 0
M  V30 2796 C 275.36 -1.6892 -0.20001 0
M  V30 2797 O 276.545 -1.94113 -0.0579731 0
M  V30 2798 C 273.675 -3.4589 0.312644 0
M  V30 2799 C 272.629 -4.08099 1.28992 0
M  V30 2800 C 271.955 -5.31098 0.619623 0
M  V30 2801 C 273.255 -4.50077 2.65005 0
M  V30 2802 H 274.949 -2.42777 1.75213 0
M  V30 2803 H 272.495 -1.16682 0.843875 0
M  V30 2804 H 274.448 -4.21297 0.0933043 0
M  V30 2805 H 273.172 -3.20419 -0.632382 0
M  V30 2806 H 271.831 -3.34717 1.49533 0
M  V30 2807 H 271.479 -5.0191 -0.33102 0
M  V30 2808 H 271.179 -5.73674 1.27167 0
M  V30 2809 H 272.703 -6.09224 0.409669 0
M  V30 2810 H 274.117 -5.16688 2.48407 0
M  V30 2811 H 272.514 -5.03553 3.26427 0
M  V30 2812 H 273.584 -3.62257 3.22332 0
M  V30 2813 N 274.927 -0.932562 -1.27047 0
M  V30 2814 C 276.343 -0.633544 -1.46487 0
M  V30 2815 C 276.543 0.815746 -1.84249 0
M  V30 2816 O 275.599 1.59319 -1.95892 0
M  V30 2817 C 276.912 -1.58758 -2.55375 0
M  V30 2818 C 278.46 -1.59634 -2.69232 0
M  V30 2819 C 278.935 -2.53747 -3.81283 0
M  V30 2820 N 280.426 -2.51982 -3.88664 0
M  V30 2821 C 281.161 -3.21491 -4.74796 0
M  V30 2822 N 280.657 -4.00395 -5.65381 0
M  V30 2823 N 282.45 -3.10485 -4.68568 0
M  V30 2824 H 274.601 -1.86946 -1.00821 0
M  V30 2825 H 276.864 -0.802897 -0.504044 0
M  V30 2826 H 276.57 -2.62172 -2.34432 0
M  V30 2827 H 276.444 -1.33301 -3.52861 0
M  V30 2828 H 278.831 -0.569488 -2.89553 0
M  V30 2829 H 278.912 -1.89142 -1.72218 0
M  V30 2830 H 278.556 -3.56545 -3.61715 0
M  V30 2831 H 278.486 -2.21532 -4.77735 0
M  V30 2832 H 280.977 -1.94681 -3.23895 0
M  V30 2833 H 281.29 -4.50406 -6.27976 0
M  V30 2834 H 279.635 -4.04498 -5.65161 0
M  V30 2835 H 282.826 -2.48331 -3.96799 0
M  V30 2836 H 282.999 -3.64925 -5.35475 0
M  V30 2837 N 276.405 1.4127 -0.698611 0
M  V30 2838 C 277.645 2.03044 -0.235062 0
M  V30 2839 C 278.009 1.54146 1.14468 0
M  V30 2840 O 279.21 2.07867 1.70425 0
M  V30 2841 C 277.481 3.56192 -0.293651 0
M  V30 2842 S 279.04 4.38696 0.0954053 0
M  V30 2843 H 275.858 0.704697 -0.0944648 0
M  V30 2844 H 278.46 1.72656 -0.917064 0
M  V30 2845 H 277.164 3.89274 -1.29977 0
M  V30 2846 H 276.695 3.91285 0.407397 0
M  V30 2847 H 278.71 4.78257 1.3223 0
M  V30 2848 N 277.883 0.443576 1.51229 0
M  V30 2849 C 278.813 -0.355142 2.30783 0
M  V30 2850 C 279.794 -1.0154 1.36468 0
M  V30 2851 O 280.979 -1.01785 1.65389 0
M  V30 2852 C 278.109 -1.45312 3.15439 0
M  V30 2853 C 277.063 -0.916002 4.18083 0
M  V30 2854 C 276.389 -2.1102 4.91299 0
M  V30 2855 C 277.689 0.0538602 5.22272 0
M  V30 2856 H 279.383 0.308767 2.97804 0
M  V30 2857 H 276.929 0.149937 1.43217 0
M  V30 2858 H 278.882 -2.01914 3.69876 0
M  V30 2859 H 277.606 -2.14541 2.46252 0
M  V30 2860 H 276.265 -0.372145 3.64706 0
M  V30 2861 H 275.913 -2.78882 4.18609 0
M  V30 2862 H 275.613 -1.75717 5.60712 0
M  V30 2863 H 277.137 -2.68164 5.48562 0
M  V30 2864 H 278.551 -0.422069 5.71744 0
M  V30 2865 H 276.948 0.319776 5.99247 0
M  V30 2866 H 278.018 0.98858 4.74716 0
M  V30 2867 N 279.361 -1.56624 0.175154 0
M  V30 2868 C 280.589 -2.01374 -0.474971 0
M  V30 2869 C 281.004 -1.05537 -1.56548 0
M  V30 2870 O 280.361 -0.0568668 -1.82411 0
M  V30 2871 C 280.412 -3.45923 -1.04975 0
M  V30 2872 O 280.133 -4.381 -0.00276605 0
M  V30 2873 C 281.634 -4.06093 -1.77773 0
M  V30 2874 H 278.854 -0.659962 -0.121206 0
M  V30 2875 H 281.398 -2.02601 0.27801 0
M  V30 2876 H 279.553 -3.45458 -1.75321 0
M  V30 2877 H 279.967 -5.22753 -0.427681 0
M  V30 2878 H 281.441 -5.09147 -2.13245 0
M  V30 2879 H 281.918 -3.48405 -2.67414 0
M  V30 2880 H 282.524 -4.10272 -1.12059 0
M  V30 2881 N 280.839 0.0985539 -1.57292 0
M  V30 2882 C 282.067 0.816318 -1.90115 0
M  V30 2883 C 282.482 1.72451 -0.768509 0
M  V30 2884 O 281.839 1.80643 0.259687 0
M  V30 2885 C 281.89 1.63259 -3.22535 0
M  V30 2886 O 281.611 0.760934 -4.31441 0
M  V30 2887 C 283.112 2.45372 -3.69199 0
M  V30 2888 H 280.332 0.233595 -0.629027 0
M  V30 2889 H 282.876 0.0768229 -2.04356 0
M  V30 2890 H 281.031 2.32463 -3.09903 0
M  V30 2891 H 281.445 1.32595 -5.07463 0
M  V30 2892 H 282.919 2.98144 -4.64558 0
M  V30 2893 H 283.396 3.23677 -2.96867 0
M  V30 2894 H 284.002 1.81373 -3.84687 0
M  V30 2895 N 282.317 1.53212 0.369288 0
M  V30 2896 C 283.594 1.59815 1.12776 0
M  V30 2897 C 283.974 0.403402 2.0721 0
M  V30 2898 O 283.322 -0.606667 2.20299 0
M  V30 2899 C 283.532 2.94664 1.87013 0
M  V30 2900 C 284.88 3.49109 2.41677 0
M  V30 2901 O 285.904 2.96669 1.97144 0
M  V30 2902 O 284.763 4.40775 3.23079 0
M  V30 2903 H 281.857 0.645376 0.517125 0
M  V30 2904 H 284.403 1.65553 0.37285 0
M  V30 2905 H 283.175 3.73061 1.18071 0
M  V30 2906 H 282.798 2.92401 2.69421 0
M  V30 2907 N 283.795 -0.628877 1.44509 0
M  V30 2908 C 284.705 -1.7694 1.54044 0
M  V30 2909 C 285.721 -1.68705 0.425987 0
M  V30 2910 O 286.897 -1.89442 0.683656 0
M  V30 2911 C 283.962 -3.13332 1.48405 0
M  V30 2912 C 283.023 -3.33181 2.70719 0
M  V30 2913 C 282.256 -4.63067 2.6534 0
M  V30 2914 O 282.479 -5.44017 1.71469 0
M  V30 2915 O 281.413 -4.85167 3.56226 0
M  V30 2916 H 285.239 -1.71848 2.50403 0
M  V30 2917 H 282.824 -0.790378 1.26781 0
M  V30 2918 H 284.706 -3.94634 1.47791 0
M  V30 2919 H 283.381 -3.1896 0.551898 0
M  V30 2920 H 282.288 -2.51549 2.769 0
M  V30 2921 H 283.621 -3.32416 3.62988 0
M  V30 2922 N 285.273 -1.31445 -0.869486 0
M  V30 2923 C 286.503 -1.23942 -1.65294 0
M  V30 2924 C 286.911 0.197561 -1.88166 0
M  V30 2925 O 286.254 1.14019 -1.44033 0
M  V30 2926 C 286.316 -1.91385 -3.04322 0
M  V30 2927 C 285.98 -3.40726 -3.04557 0
M  V30 2928 C 286.977 -4.36464 -2.82481 0
M  V30 2929 C 284.662 -3.82425 -3.25663 0
M  V30 2930 C 286.656 -5.71876 -2.8149 0
M  V30 2931 C 284.343 -5.1795 -3.243 0
M  V30 2932 C 285.341 -6.12486 -3.02241 0
M  V30 2933 O 285.029 -7.45534 -3.00724 0
M  V30 2934 H 284.761 -0.429459 -0.522054 0
M  V30 2935 H 287.315 -1.73873 -1.0935 0
M  V30 2936 H 285.545 -1.36004 -3.61994 0
M  V30 2937 H 287.234 -1.77791 -3.64891 0
M  V30 2938 H 288 -4.05576 -2.65956 0
M  V30 2939 H 283.879 -3.09274 -3.41863 0
M  V30 2940 H 287.423 -6.45638 -2.64191 0
M  V30 2941 H 283.32 -5.48473 -3.40365 0
M  V30 2942 H 284.088 -7.54713 -3.16782 0
M  V30 2943 N 286.751 1.08385 -1.14413 0
M  V30 2944 C 288.028 1.77429 -0.823297 0
M  V30 2945 C 288.408 1.9974 0.683163 0
M  V30 2946 O 287.756 1.60739 1.62405 0
M  V30 2947 C 287.966 3.09004 -1.62227 0
M  V30 2948 C 289.314 3.83532 -1.82177 0
M  V30 2949 O 290.338 3.18786 -1.58915 0
M  V30 2950 O 289.197 4.99792 -2.21067 0
M  V30 2951 H 286.291 0.769999 -0.301712 0
M  V30 2952 H 288.837 1.14846 -1.24934 0
M  V30 2953 H 287.609 2.88316 -2.64555 0
M  V30 2954 H 287.232 3.79316 -1.19187 0
M  V30 2955 N 288.23 0.939286 1.26551 0
M  V30 2956 C 289.478 0.58469 1.93457 0
M  V30 2957 C 289.799 -0.878774 1.74076 0
M  V30 2958 O 289.069 -1.62421 1.09528 0
M  V30 2959 H 287.649 0.21325 0.715914 0
M  V30 2960 H 290.311 1.1942 1.54029 0
M  V30 2961 H 289.407 0.800849 3.0165 0
M  V30 2962 N 289.708 -1.40897 0.706093 0
M  V30 2963 C 290.658 -2.27987 0.0240746 0
M  V30 2964 C 291.642 -1.42759 -0.742204 0
M  V30 2965 O 292.834 -1.65936 -0.615966 0
M  V30 2966 C 289.963 -3.31186 -0.903907 0
M  V30 2967 C 289.049 -4.2389 -0.133318 0
M  V30 2968 N 289.44 -4.98113 0.878444 0
M  V30 2969 C 287.738 -4.44485 -0.367269 0
M  V30 2970 C 288.439 -5.6604 1.34064 0
M  V30 2971 N 287.415 -5.39522 0.664565 0
M  V30 2972 H 291.217 -2.82812 0.799658 0
M  V30 2973 H 288.731 -1.53235 0.537845 0
M  V30 2974 H 290.728 -3.92413 -1.40775 0
M  V30 2975 H 289.388 -2.77922 -1.67897 0
M  V30 2976 H 290.399 -5.02364 1.25901 0
M  V30 2977 H 287.076 -4.02213 -1.1194 0
M  V30 2978 H 288.466 -6.35524 2.1808 0
M  V30 2979 N 291.186 -0.45159 -1.50991 0
M  V30 2980 C 292.411 0.110667 -2.07105 0
M  V30 2981 C 292.836 1.3446 -1.31538 0
M  V30 2982 O 292.194 1.77743 -0.357365 0
M  V30 2983 C 292.242 0.397238 -3.58405 0
M  V30 2984 O 291.346 1.48124 -3.84881 0
M  V30 2985 H 290.687 -0.00439271 -0.663985 0
M  V30 2986 H 293.217 -0.637026 -1.9443 0
M  V30 2987 H 293.227 0.64351 -4.02893 0
M  V30 2988 H 291.902 -0.504553 -4.12828 0
M  V30 2989 H 290.479 1.22381 -3.52246 0
M  V30 2990 N 292.664 1.56529 -0.183458 0
M  V30 2991 C 293.892 2.01623 0.464285 0
M  V30 2992 C 294.307 1.06366 1.55986 0
M  V30 2993 O 293.664 0.0665398 1.82379 0
M  V30 2994 C 293.715 3.46475 1.03139 0
M  V30 2995 O 293.436 4.38095 -0.0204675 0
M  V30 2996 C 294.937 4.0703 1.75617 0
M  V30 2997 H 292.157 0.660596 0.117704 0
M  V30 2998 H 294.701 2.02451 -0.288751 0
M  V30 2999 H 292.856 3.46383 1.73486 0
M  V30 3000 H 293.27 5.22973 0.399952 0
M  V30 3001 H 294.744 5.10271 2.10542 0
M  V30 3002 H 295.221 3.49819 2.65563 0
M  V30 3003 H 295.827 4.1086 1.09882 0
M  V30 3004 N 294.142 -0.090211 1.57342 0
M  V30 3005 C 295.372 -0.805055 1.90269 0
M  V30 3006 C 295.78 -1.72561 0.775842 0
M  V30 3007 O 295.123 -1.81839 -0.260843 0
M  V30 3008 C 295.185 -1.66734 3.18497 0
M  V30 3009 C 294.849 -0.918092 4.47683 0
M  V30 3010 C 295.846 -0.245674 5.19319 0
M  V30 3011 C 293.531 -0.890724 4.94339 0
M  V30 3012 C 295.525 0.444088 6.35851 0
M  V30 3013 C 293.212 -0.197179 6.10782 0
M  V30 3014 C 294.21 0.469044 6.81388 0
M  V30 3015 O 293.898 1.15146 7.95611 0
M  V30 3016 H 293.63 -0.235143 0.633785 0
M  V30 3017 H 296.184 -0.0703805 2.05279 0
M  V30 3018 H 294.414 -2.44437 2.99646 0
M  V30 3019 H 296.103 -2.25919 3.37217 0
M  V30 3020 H 296.869 -0.258246 4.84312 0
M  V30 3021 H 292.748 -1.39873 4.39268 0
M  V30 3022 H 296.292 0.964667 6.90898 0
M  V30 3023 H 292.189 -0.18247 6.45242 0
M  V30 3024 H 292.957 1.05885 8.11622 0
M  V30 3025 N 295.62 -1.53406 -0.361157 0
M  V30 3026 C 297.031 -1.61442 -0.937728 0
M  V30 3027 C 297.382 -0.48461 -1.90121 0
M  V30 3028 O 296.507 0.388312 -2.12888 0
M  V30 3029 C 297.102 -2.92624 -1.70753 0
M  V30 3030 C 295.661 -3.02981 -2.23337 0
M  V30 3031 C 294.808 -2.5677 -1.04712 0
M  V30 3032 H 297.759 -1.58083 -0.139816 0
M  V30 3033 H 297.78 -2.80675 -2.56908 0
M  V30 3034 H 297.292 -3.74834 -1.00604 0
M  V30 3035 H 295.393 -2.25368 -2.96715 0
M  V30 3036 H 295.506 -4.0814 -2.50916 0
M  V30 3037 H 293.87 -2.11752 -1.41539 0
M  V30 3038 H 294.653 -3.41402 -0.360539 0
M  V30 3039 N 297.098 0.621204 -1.44841 0
M  V30 3040 C 298.323 1.41244 -1.51871 0
M  V30 3041 C 298.748 1.87519 -0.147764 0
M  V30 3042 O 298.106 1.59334 0.865 0
M  V30 3043 C 298.154 2.60221 -2.49634 0
M  V30 3044 O 297.258 3.60395 -2.00473 0
M  V30 3045 H 296.599 0.42223 -0.512463 0
M  V30 3046 H 299.129 0.757305 -1.90069 0
M  V30 3047 H 299.139 3.0764 -2.67996 0
M  V30 3048 H 297.814 2.25887 -3.4921 0
M  V30 3049 H 296.391 3.19717 -1.91925 0
M  V30 3050 N 298.576 1.31904 0.862503 0
M  V30 3051 C 299.526 1.16772 1.95827 0
M  V30 3052 C 300.51 0.0767098 1.60717 0
M  V30 3053 O 301.702 0.302407 1.74398 0
M  V30 3054 C 298.831 0.884858 3.317 0
M  V30 3055 C 297.917 2.0172 3.73055 0
M  V30 3056 N 298.308 3.265 3.86305 0
M  V30 3057 C 296.606 1.91861 4.02623 0
M  V30 3058 C 297.307 4.00616 4.2176 0
M  V30 3059 N 296.283 3.28847 4.32852 0
M  V30 3060 H 300.085 2.11382 2.04193 0
M  V30 3061 H 297.599 1.2357 1.05377 0
M  V30 3062 H 299.596 0.757419 4.09962 0
M  V30 3063 H 298.256 -0.0529448 3.24657 0
M  V30 3064 H 299.267 3.61529 3.70833 0
M  V30 3065 H 295.944 1.05593 4.03926 0
M  V30 3066 H 297.334 5.08182 4.39546 0
M  V30 3067 N 300.054 -1.07777 1.14986 0
M  V30 3068 C 300.986 -2.14769 0.800436 0
M  V30 3069 C 301.999 -1.61739 -0.185595 0
M  V30 3070 O 303.188 -1.78462 0.0370358 0
M  V30 3071 C 300.288 -3.38481 0.168533 0
M  V30 3072 C 299.461 -4.20876 1.1909 0
M  V30 3073 C 298.52 -5.22976 0.581575 0
M  V30 3074 O 297.546 -5.55388 1.24633 0
M  V30 3075 N 298.748 -5.76976 -0.638706 0
M  V30 3076 H 301.513 -2.45348 1.72118 0
M  V30 3077 H 299.074 -1.23645 1.04515 0
M  V30 3078 H 301.066 -4.03916 -0.251764 0
M  V30 3079 H 299.636 -3.05651 -0.655467 0
M  V30 3080 H 298.856 -3.51322 1.78791 0
M  V30 3081 H 300.144 -4.7274 1.88133 0
M  V30 3082 H 299.542 -5.52886 -1.19723 0
M  V30 3083 H 298.099 -6.44061 -1.00142 0
M  V30 3084 N 301.532 -0.945985 -1.26051 0
M  V30 3085 C 302.762 -0.612136 -1.97323 0
M  V30 3086 C 303.17 0.818171 -1.70595 0
M  V30 3087 O 302.513 1.55777 -0.973613 0
M  V30 3088 C 302.575 -0.780347 -3.50929 0
M  V30 3089 C 302.239 -2.18619 -4.01317 0
M  V30 3090 C 303.236 -3.16209 -4.12683 0
M  V30 3091 C 300.921 -2.50805 -4.35203 0
M  V30 3092 C 302.915 -4.44085 -4.57238 0
M  V30 3093 C 300.602 -3.78912 -4.79446 0
M  V30 3094 C 301.6 -4.75365 -4.90425 0
M  V30 3095 O 301.288 -6.01191 -5.3369 0
M  V30 3096 H 301.02 -0.229134 -0.635982 0
M  V30 3097 H 303.574 -1.27036 -1.61404 0
M  V30 3098 H 301.804 -0.0649864 -3.86645 0
M  V30 3099 H 303.493 -0.448842 -4.03411 0
M  V30 3100 H 304.259 -2.92668 -3.86744 0
M  V30 3101 H 300.138 -1.76463 -4.2589 0
M  V30 3102 H 303.682 -5.19373 -4.65723 0
M  V30 3103 H 299.579 -4.02265 -5.0483 0
M  V30 3104 H 300.347 -6.04442 -5.51899 0
M  V30 3105 N 303.011 1.40521 -0.713556 0
M  V30 3106 C 303.943 2.29191 -0.0203126 0
M  V30 3107 C 304.956 1.45723 0.725864 0
M  V30 3108 O 306.145 1.69033 0.573581 0
M  V30 3109 C 303.245 3.2395 0.995486 0
M  V30 3110 C 302.418 4.36262 0.315256 0
M  V30 3111 C 301.477 5.11474 1.23616 0
M  V30 3112 O 300.503 5.64606 0.721719 0
M  V30 3113 N 301.705 5.20638 2.56743 0
M  V30 3114 H 304.47 2.89327 -0.781652 0
M  V30 3115 H 302.031 1.51869 -0.561022 0
M  V30 3116 H 304.023 3.71137 1.61368 0
M  V30 3117 H 302.593 2.64995 1.6582 0
M  V30 3118 H 301.813 3.91228 -0.483106 0
M  V30 3119 H 303.101 5.08558 -0.157004 0
M  V30 3120 H 302.499 4.7895 3.01037 0
M  V30 3121 H 301.056 5.71339 3.13712 0
M  V30 3122 O 304.528 0.601524 1.4988 0
M  V30 3123 H 305.219 0.111623 1.93378 0
M  V30 END ATOM
M  V30 BEGIN BOND
M  V30 END BOND
M  V30 END CTAB
M  END
$$$$
