drugbank_target|P30038 Delta-1-pyrroline-5-carboxylate dehydrogenase, mitochondrial (DB00157)
 OpenBabel12092119273D

  0  0  0     0  0            999 V3000
M  V30 BEGIN CTAB
M  V30 COUNTS 8683 8795 0 0 0
M  V30 BEGIN ATOM
M  V30 1 H -0.908 1.98254 -0.117106 0
M  V30 2 N 0 1.576 0 0
M  V30 3 C 0.933 2.03868 1.02534 0
M  V30 4 C 1.911 0.928543 1.3348 0
M  V30 5 O 3.095 1.19667 1.45644 0
M  V30 6 C 0.222 2.43627 2.35294 0
M  V30 7 C -0.732 3.65373 2.2001 0
M  V30 8 S 0.101 5.13292 1.52614 0
M  V30 9 C 1.257 5.56322 2.86805 0
M  V30 10 H 1.49 2.90518 0.631377 0
M  V30 11 H -0.977 1.52953 0.210867 0
M  V30 12 H 0.981 2.67203 3.11629 0
M  V30 13 H -0.358 1.57376 2.7183 0
M  V30 14 H -1.165 3.90944 3.18086 0
M  V30 15 H -1.563 3.418 1.51819 0
M  V30 16 H 0.729 5.58782 3.83104 0
M  V30 17 H 1.672 6.56266 2.65933 0
M  V30 18 H 2.08 4.83886 2.90714 0
M  V30 19 N 1.4781 -0.272755 1.55222 0
M  V30 20 C 2.4081 -1.34136 1.91127 0
M  V30 21 C 3.3891 -1.51513 0.773168 0
M  V30 22 O 4.5741 -1.64552 1.03132 0
M  V30 23 C 1.7041 -2.70083 2.1834 0
M  V30 24 C 0.6581 -2.67437 3.34158 0
M  V30 25 C -0.0159 -4.06938 3.46851 0
M  V30 26 C 1.2841 -2.26686 4.70543 0
M  V30 27 H 2.9781 -1.04333 2.80633 0
M  V30 28 H 0.5241 -0.500454 1.35024 0
M  V30 29 H 2.4771 -3.44952 2.42046 0
M  V30 30 H 1.2011 -3.01469 1.25634 0
M  V30 31 H -0.1399 -1.95026 3.1042 0
M  V30 32 H -0.4919 -4.35547 2.51611 0
M  V30 33 H -0.7919 -4.06062 4.2472 0
M  V30 34 H 0.7321 -4.83545 3.72849 0
M  V30 35 H 2.1461 -2.91277 4.93792 0
M  V30 36 H 0.5431 -2.36971 5.5133 0
M  V30 37 H 1.6131 -1.21818 4.69349 0
M  V30 38 N 2.9562 -1.48159 -0.537278 0
M  V30 39 C 3.8862 -1.65029 -1.6519 0
M  V30 40 C 4.8672 -0.499281 -1.62607 0
M  V30 41 O 6.0522 -0.730972 -1.79918 0
M  V30 42 C 3.1822 -1.68303 -3.03795 0
M  V30 43 C 2.1362 -2.8283 -3.21234 0
M  V30 44 C 1.4622 -2.71189 -4.60826 0
M  V30 45 C 2.7622 -4.24211 -3.04701 0
M  V30 46 H 4.4562 -2.58341 -1.51328 0
M  V30 47 H 2.0022 -1.24325 -0.726585 0
M  V30 48 H 3.9552 -1.78693 -3.81637 0
M  V30 49 H 2.6792 -0.715635 -3.18663 0
M  V30 50 H 1.3382 -2.71983 -2.45807 0
M  V30 51 H 0.9862 -1.72435 -4.7252 0
M  V30 52 H 0.6862 -3.48035 -4.7344 0
M  V30 53 H 2.2102 -2.83537 -5.40777 0
M  V30 54 H 3.6242 -4.3593 -3.72341 0
M  V30 55 H 2.0212 -5.01998 -3.28813 0
M  V30 56 H 3.0912 -4.41184 -2.01209 0
M  V30 57 N 4.4343 0.785586 -1.36625 0
M  V30 58 C 5.8453 1.36101 -1.27803 0
M  V30 59 C 6.1963 1.96035 0.0804875 0
M  V30 60 O 5.3213 1.92834 0.982042 0
M  V30 61 C 5.9163 2.47442 -2.31426 0
M  V30 62 C 4.4753 3.00789 -2.26281 0
M  V30 63 C 3.6223 1.73896 -2.15999 0
M  V30 64 H 6.5733 0.586928 -1.47448 0
M  V30 65 H 6.5943 3.2656 -1.95291 0
M  V30 66 H 6.1063 2.03791 -3.30289 0
M  V30 67 H 4.2073 3.48851 -1.30896 0
M  V30 68 H 4.3203 3.57343 -3.19128 0
M  V30 69 H 2.6843 1.9628 -1.62316 0
M  V30 70 H 3.4673 1.32368 -3.16755 0
M  V30 71 N 5.9124 1.20967 1.01018 0
M  V30 72 C 6.8754 0.965918 2.07853 0
M  V30 73 C 7.8754 -0.0610545 1.60684 0
M  V30 74 O 9.0654 0.175681 1.73312 0
M  V30 75 C 6.1974 0.455513 3.37843 0
M  V30 76 H 7.3904 1.91365 2.3091 0
M  V30 77 H 4.9434 1.02594 1.17916 0
M  V30 78 H 5.6784 -0.497381 3.20463 0
M  V30 79 H 5.4634 1.19622 3.73407 0
M  V30 80 H 6.9534 0.304667 4.16487 0
M  V30 81 N 7.3905 -1.2043 1.01659 0
M  V30 82 C 8.8015 -1.71517 0.737482 0
M  V30 83 C 9.1525 -1.81547 -0.743973 0
M  V30 84 O 8.2775 -1.47803 -1.58061 0
M  V30 85 C 8.8725 -3.11515 1.33206 0
M  V30 86 C 7.4315 -3.59912 1.10183 0
M  V30 87 C 6.5785 -2.37116 1.43776 0
M  V30 88 H 9.5295 -1.05444 1.18606 0
M  V30 89 H 9.5505 -3.73575 0.722636 0
M  V30 90 H 9.0625 -3.04182 2.41028 0
M  V30 91 H 7.1635 -3.72577 0.0412756 0
M  V30 92 H 7.2765 -4.44731 1.78188 0
M  V30 93 H 5.6405 -2.39857 0.856778 0
M  V30 94 H 6.4235 -2.32424 2.52654 0
M  V30 95 N 8.8686 -0.792821 -1.36206 0
M  V30 96 C 9.8316 -0.199459 -2.2833 0
M  V30 97 C 10.8316 0.605189 -1.48977 0
M  V30 98 O 12.0216 0.425685 -1.68919 0
M  V30 99 C 9.1536 0.723523 -3.33134 0
M  V30 100 H 10.3466 -1.01181 -2.82316 0
M  V30 101 H 7.8996 -0.562485 -1.45828 0
M  V30 102 H 8.6346 1.56008 -2.84309 0
M  V30 103 H 8.4196 0.148436 -3.91819 0
M  V30 104 H 9.9096 1.13344 -4.01924 0
M  V30 105 N 10.3467 1.47872 -0.545128 0
M  V30 106 C 11.2767 2.32661 0.197793 0
M  V30 107 C 12.2577 1.43041 0.920504 0
M  V30 108 O 13.4427 1.71912 0.90333 0
M  V30 109 C 10.5727 3.24569 1.23582 0
M  V30 110 C 9.5267 4.23333 0.630323 0
M  V30 111 C 8.8527 5.0448 1.77211 0
M  V30 112 C 10.1527 5.20704 -0.407974 0
M  V30 113 H 11.8467 2.95024 -0.510045 0
M  V30 114 H 9.3927 1.4187 -0.246731 0
M  V30 115 H 11.3457 3.8272 1.76362 0
M  V30 116 H 10.0697 2.60236 1.97344 0
M  V30 117 H 8.7287 3.6639 0.123922 0
M  V30 118 H 8.3767 4.36561 2.49847 0
M  V30 119 H 8.0767 5.71339 1.37281 0
M  V30 120 H 9.6007 5.65487 2.3034 0
M  V30 121 H 11.0147 5.7329 0.033305 0
M  V30 122 H 9.4117 5.95699 -0.725486 0
M  V30 123 H 10.4817 4.66917 -1.30828 0
M  V30 124 N 11.8248 0.280983 1.55075 0
M  V30 125 C 13.2408 -0.0729964 1.59433 0
M  V30 126 C 13.4408 -1.5411 1.29817 0
M  V30 127 O 12.4968 -2.29086 1.06187 0
M  V30 128 C 13.8098 0.306921 2.9913 0
M  V30 129 C 15.3578 0.254023 3.11968 0
M  V30 130 C 15.8328 0.608467 4.5394 0
M  V30 131 N 17.3238 0.560241 4.59799 0
M  V30 132 C 18.0588 0.80722 5.6769 0
M  V30 133 N 17.5548 1.11912 6.83701 0
M  V30 134 N 19.3478 0.735623 5.57266 0
M  V30 135 H 11.4988 1.238 1.7259 0
M  V30 136 H 13.7618 0.500547 0.805082 0
M  V30 137 H 13.4678 1.32816 3.25657 0
M  V30 138 H 13.3418 -0.349363 3.75579 0
M  V30 139 H 15.7288 -0.75794 2.852 0
M  V30 140 H 15.8098 0.944649 2.37718 0
M  V30 141 H 15.4538 1.61814 4.81434 0
M  V30 142 H 15.3838 -0.104013 5.26497 0
M  V30 143 H 17.8748 0.329288 3.76463 0
M  V30 144 H 18.1878 1.29409 7.61888 0
M  V30 145 H 16.5328 1.15695 6.85303 0
M  V30 146 H 19.7238 0.491752 4.6551 0
M  V30 147 H 19.8968 0.931482 6.4127 0
M  V30 148 N 13.3029 -1.57598 0.00835791 0
M  V30 149 C 14.7189 -1.55764 -0.347822 0
M  V30 150 C 14.9189 -1.01186 -1.74252 0
M  V30 151 O 13.9749 -0.649371 -2.44007 0
M  V30 152 C 15.2879 -2.99927 -0.215407 0
M  V30 153 C 16.8359 -3.11656 -0.289725 0
M  V30 154 C 17.3109 -4.57621 -0.18634 0
M  V30 155 N 18.8019 -4.62557 -0.243978 0
M  V30 156 C 19.5369 -5.73094 -0.18745 0
M  V30 157 N 19.0329 -6.92753 -0.0810331 0
M  V30 158 N 20.8259 -5.61588 -0.239925 0
M  V30 159 H 12.9769 -1.91411 0.92062 0
M  V30 160 H 15.2399 -0.879562 0.353659 0
M  V30 161 H 14.9459 -3.43729 0.744512 0
M  V30 162 H 14.8199 -3.63865 -0.994097 0
M  V30 163 H 17.2069 -2.67779 -1.24009 0
M  V30 164 H 17.2879 -2.5048 0.51898 0
M  V30 165 H 16.9319 -5.02174 0.760519 0
M  V30 166 H 16.8619 -5.16752 -1.01364 0
M  V30 167 H 19.3529 -3.76481 -0.327217 0
M  V30 168 H 19.6659 -7.72787 -0.0440241 0
M  V30 169 H 18.0109 -6.94984 -0.0465419 0
M  V30 170 H 21.2019 -4.66996 -0.321317 0
M  V30 171 H 21.3749 -6.47714 -0.192407 0
M  V30 172 N 14.781 0.264519 -1.55364 0
M  V30 173 C 15.744 1.31046 -1.88042 0
M  V30 174 C 16.744 1.41943 -0.755569 0
M  V30 175 O 17.934 1.40947 -1.02369 0
M  V30 176 C 15.066 2.69067 -2.09323 0
M  V30 177 H 16.259 1.03297 -2.81549 0
M  V30 178 H 13.812 0.502989 -1.47986 0
M  V30 179 H 14.547 3.01982 -1.18226 0
M  V30 180 H 14.332 2.62542 -2.91229 0
M  V30 181 H 15.822 3.44623 -2.35848 0
M  V30 182 N 16.2591 1.48442 0.529413 0
M  V30 183 C 17.1891 1.65902 1.64313 0
M  V30 184 C 18.1701 0.507897 1.6234 0
M  V30 185 O 19.3551 0.740503 1.79528 0
M  V30 186 C 16.4851 1.69911 3.02898 0
M  V30 187 C 15.4391 2.8453 3.19729 0
M  V30 188 C 14.7651 2.73629 4.59381 0
M  V30 189 C 16.0651 4.25821 3.02447 0
M  V30 190 H 17.7591 2.5914 1.49955 0
M  V30 191 H 15.3051 1.24709 0.719982 0
M  V30 192 H 17.2581 1.80715 3.80684 0
M  V30 193 H 15.9821 0.732524 3.18279 0
M  V30 194 H 14.6411 2.73283 2.44361 0
M  V30 195 H 14.2891 1.74938 4.71599 0
M  V30 196 H 13.9891 3.50541 4.71588 0
M  V30 197 H 15.5131 2.86401 5.39265 0
M  V30 198 H 16.9271 4.37898 3.70024 0
M  V30 199 H 15.3241 5.03735 3.26146 0
M  V30 200 H 16.3941 4.42244 1.98867 0
M  V30 201 N 17.7372 -0.778329 1.37039 0
M  V30 202 C 18.6672 -1.90546 1.34962 0
M  V30 203 C 19.6482 -1.68681 0.219274 0
M  V30 204 O 20.8332 -1.89634 0.418624 0
M  V30 205 C 17.9632 -3.27734 1.14925 0
M  V30 206 C 16.9172 -3.64147 2.24902 0
M  V30 207 C 16.2432 -4.99806 1.89996 0
M  V30 208 C 17.5432 -3.71579 3.67051 0
M  V30 209 H 19.2372 -1.92541 2.29277 0
M  V30 210 H 16.7832 -0.924948 1.10366 0
M  V30 211 H 18.7362 -4.06215 1.12104 0
M  V30 212 H 17.4602 -3.26154 0.170631 0
M  V30 213 H 16.1192 -2.8797 2.26868 0
M  V30 214 H 15.7672 -4.94759 0.906796 0
M  V30 215 H 15.4672 -5.25139 2.63634 0
M  V30 216 H 16.9912 -5.80694 1.88749 0
M  V30 217 H 18.4052 -4.40227 3.67251 0
M  V30 218 H 16.8022 -4.08405 4.39688 0
M  V30 219 H 17.8722 -2.72404 4.01154 0
M  V30 220 N 19.2153 -1.21501 -1.00376 0
M  V30 221 C 20.4403 -1.05977 -1.78279 0
M  V30 222 C 20.8653 0.385994 -1.84097 0
M  V30 223 O 20.2233 1.27849 -1.28547 0
M  V30 224 C 20.2713 -1.66302 -3.19963 0
M  V30 225 O 19.3753 -0.909333 -4.0225 0
M  V30 226 H 18.7163 -0.372906 -0.549397 0
M  V30 227 H 21.2463 -1.6107 -1.26165 0
M  V30 228 H 21.2563 -1.70574 -3.70632 0
M  V30 229 H 19.9313 -2.71515 -3.15043 0
M  V30 230 H 18.5083 -0.941795 -3.60811 0
M  V30 231 N 20.6934 1.19889 -1.02296 0
M  V30 232 C 22.1094 1.41462 -0.738954 0
M  V30 233 C 22.3094 1.89721 0.678846 0
M  V30 234 O 21.3654 2.07016 1.4457 0
M  V30 235 C 22.6784 2.43083 -1.77005 0
M  V30 236 C 24.2264 2.5684 -1.78892 0
M  V30 237 C 24.7014 3.61709 -2.80945 0
M  V30 238 N 26.1924 3.69199 -2.79725 0
M  V30 239 C 26.9274 4.50019 -3.55345 0
M  V30 240 N 26.4234 5.34592 -4.40662 0
M  V30 241 N 28.2164 4.44612 -3.43914 0
M  V30 242 H 20.3674 0.868827 -1.93817 0
M  V30 243 H 22.6304 0.44399 -0.837602 0
M  V30 244 H 22.3364 2.14636 -2.78612 0
M  V30 245 H 22.2104 3.4217 -1.58744 0
M  V30 246 H 24.5974 2.84614 -0.779674 0
M  V30 247 H 24.6784 1.57927 -2.01228 0
M  V30 248 H 24.3224 3.34678 -3.82038 0
M  V30 249 H 24.2524 4.60259 -2.5587 0
M  V30 250 H 26.7434 3.08794 -2.17842 0
M  V30 251 H 27.0564 5.93363 -4.95116 0
M  V30 252 H 25.4014 5.34073 -4.44737 0
M  V30 253 H 28.5924 3.7758 -2.76679 0
M  V30 254 H 28.7654 5.0736 -4.031 0
M  V30 255 N 22.1715 0.800033 1.35784 0
M  V30 256 C 23.5825 0.439142 1.81462 0
M  V30 257 C 23.9335 -1.03813 1.66485 0
M  V30 258 O 23.0585 -1.80626 1.19177 0
M  V30 259 C 23.6535 0.790314 3.29453 0
M  V30 260 C 22.2125 0.482111 3.733 0
M  V30 261 C 21.3595 1.01938 2.57883 0
M  V30 262 H 24.3105 0.992254 1.23855 0
M  V30 263 H 24.3315 0.0853677 3.80404 0
M  V30 264 H 23.8435 1.86554 3.40322 0
M  V30 265 H 21.9445 -0.584652 3.67984 0
M  V30 266 H 22.0575 1.01015 4.6833 0
M  V30 267 H 20.4215 0.442043 2.50835 0
M  V30 268 H 21.2045 2.10059 2.71533 0
M  V30 269 N 23.6496 -1.47581 0.552962 0
M  V30 270 C 24.8956 -2.03369 0.0355807 0
M  V30 271 C 25.2506 -1.42016 -1.29805 0
M  V30 272 O 24.5436 -0.564917 -1.83083 0
M  V30 273 C 24.7376 -3.57199 -0.119728 0
M  V30 274 C 24.5666 -4.33468 1.1973 0
M  V30 275 C 23.3366 -4.7353 1.76345 0
M  V30 276 C 25.5346 -4.68866 2.11351 0
M  V30 277 N 23.5166 -5.34426 3.02097 0
M  V30 278 C 24.8876 -5.3002 3.21681 0
M  V30 279 C 26.9426 -4.50795 2.11397 0
M  V30 280 C 25.6456 -5.75011 4.32151 0
M  V30 281 C 27.6716 -4.96782 3.20876 0
M  V30 282 C 27.0336 -5.57981 4.29926 0
M  V30 283 H 23.1326 -0.780058 0.0550806 0
M  V30 284 H 25.7166 -1.80117 0.739315 0
M  V30 285 H 23.8876 -3.80227 -0.792579 0
M  V30 286 H 25.6196 -3.99627 -0.638792 0
M  V30 287 H 22.3746 -4.55352 1.30196 0
M  V30 288 H 22.7986 -5.69421 3.66182 0
M  V30 289 H 27.4406 -4.0284 1.28372 0
M  V30 290 H 25.1586 -6.21959 5.15938 0
M  V30 291 H 28.7446 -4.84573 3.21994 0
M  V30 292 H 27.6246 -5.92918 5.13243 0
M  V30 293 N 25.1277 -0.289203 -1.54924 0
M  V30 294 C 26.3557 0.326463 -2.04308 0
M  V30 295 C 26.7707 1.48413 -1.16701 0
M  V30 296 O 26.1277 1.81507 -0.190087 0
M  V30 297 C 26.1787 0.794014 -3.52672 0
M  V30 298 O 25.8997 -0.317564 -4.36948 0
M  V30 299 C 27.4007 1.47605 -4.18004 0
M  V30 300 H 24.6207 0.0726272 -0.667058 0
M  V30 301 H 27.1647 -0.425401 -2.00026 0
M  V30 302 H 25.3197 1.49593 -3.57352 0
M  V30 303 H 25.7337 0.0443186 -5.24481 0
M  V30 304 H 27.2077 1.75447 -5.23376 0
M  V30 305 H 27.6847 2.41224 -3.67025 0
M  V30 306 H 28.2907 0.81762 -4.17367 0
M  V30 307 N 26.6058 1.57591 -0.0167156 0
M  V30 308 C 27.8538 1.90906 0.663285 0
M  V30 309 C 28.1748 0.892509 1.73376 0
M  V30 310 O 27.4448 -0.0677623 1.95783 0
M  V30 311 H 26.0248 0.704637 0.247983 0
M  V30 312 H 28.6868 1.94803 -0.0615909 0
M  V30 313 H 27.7828 2.9116 1.12393 0
M  V30 314 N 28.0839 -0.256276 1.55502 0
M  V30 315 C 29.0469 -1.30047 1.88734 0
M  V30 316 C 30.0469 -1.4154 0.763086 0
M  V30 317 O 31.2369 -1.40403 1.03115 0
M  V30 318 C 28.3689 -2.67953 2.10747 0
M  V30 319 H 29.5619 -1.01802 2.82093 0
M  V30 320 H 27.1149 -0.495134 1.4825 0
M  V30 321 H 27.8499 -3.01351 1.19825 0
M  V30 322 H 27.6349 -2.60993 2.92617 0
M  V30 323 H 29.1249 -3.43368 2.37673 0
M  V30 324 N 29.562 -1.4872 -0.521534 0
M  V30 325 C 30.81 -1.56857 -1.27437 0
M  V30 326 C 31.131 -0.247982 -1.93417 0
M  V30 327 O 30.401 0.731151 -1.81744 0
M  V30 328 H 28.981 -0.577885 -0.473347 0
M  V30 329 H 31.643 -1.85233 -0.606205 0
M  V30 330 H 30.739 -2.35402 -2.0492 0
M  V30 331 N 31.0401 0.771051 -1.3745 0
M  V30 332 C 31.9701 1.89827 -1.3597 0
M  V30 333 C 32.9511 1.68562 -0.228216 0
M  V30 334 O 34.1361 1.8941 -0.428675 0
M  V30 335 C 31.2661 3.2712 -1.16662 0
M  V30 336 C 30.2201 3.6295 -2.2683 0
M  V30 337 C 29.5461 4.98791 -1.92644 0
M  V30 338 C 30.8461 3.69627 -3.69017 0
M  V30 339 H 32.5401 1.91323 -2.30295 0
M  V30 340 H 30.0861 0.919082 -1.10855 0
M  V30 341 H 32.0391 4.05615 -1.14256 0
M  V30 342 H 30.7631 3.26059 -0.187926 0
M  V30 343 H 29.4221 2.86763 -2.28392 0
M  V30 344 H 29.0701 4.94271 -0.933021 0
M  V30 345 H 28.7701 5.23733 -2.66416 0
M  V30 346 H 30.2941 5.79685 -1.91826 0
M  V30 347 H 31.7081 4.38273 -3.69581 0
M  V30 348 H 30.1051 4.06067 -4.41848 0
M  V30 349 H 31.1751 2.70273 -4.02592 0
M  V30 350 N 32.5182 1.22032 0.997298 0
M  V30 351 C 33.9342 0.979326 1.26021 0
M  V30 352 C 34.1342 -0.32972 1.98784 0
M  V30 353 O 33.1902 -1.05345 2.29475 0
M  V30 354 C 34.5032 2.17509 2.07631 0
M  V30 355 C 36.0512 2.21817 2.2083 0
M  V30 356 C 36.5262 3.40933 3.05825 0
M  V30 357 N 38.0172 3.41067 3.13412 0
M  V30 358 C 38.7522 4.29885 3.79455 0
M  V30 359 N 38.2482 5.28914 4.47462 0
M  V30 360 N 40.0412 4.17673 3.76173 0
M  V30 361 H 32.1922 2.06202 0.509352 0
M  V30 362 H 34.4552 0.90334 0.287541 0
M  V30 363 H 34.1612 3.12415 1.61524 0
M  V30 364 H 34.0352 2.17206 3.08385 0
M  V30 365 H 36.4222 1.27462 2.66153 0
M  V30 366 H 36.5032 2.2616 1.1952 0
M  V30 367 H 36.1472 4.35586 2.61203 0
M  V30 368 H 36.0772 3.33829 4.07266 0
M  V30 369 H 38.5682 2.69406 2.65007 0
M  V30 370 H 38.8812 5.92973 4.95583 0
M  V30 371 H 37.2262 5.32831 4.46224 0
M  V30 372 H 40.4172 3.39564 3.22202 0
M  V30 373 H 40.5902 4.87098 4.27363 0
M  V30 374 N 33.9963 -1.19345 1.0293 0
M  V30 375 C 35.2423 -1.89585 0.736824 0
M  V30 376 C 35.5973 -1.78148 -0.726703 0
M  V30 377 O 34.8903 -1.16332 -1.52242 0
M  V30 378 C 35.0843 -3.39292 1.12319 0
M  V30 379 C 34.9133 -3.65298 2.62273 0
M  V30 380 C 33.6833 -3.83304 3.29251 0
M  V30 381 C 35.8813 -3.6682 3.60482 0
M  V30 382 N 33.8633 -3.96944 4.68304 0
M  V30 383 C 35.2343 -3.86037 4.85155 0
M  V30 384 C 37.2893 -3.49848 3.54275 0
M  V30 385 C 35.9923 -3.9004 6.04369 0
M  V30 386 C 38.0183 -3.55129 4.72903 0
M  V30 387 C 37.3803 -3.74831 5.9639 0
M  V30 388 H 33.4793 -0.712856 0.321497 0
M  V30 389 H 36.0633 -1.43427 1.31669 0
M  V30 390 H 34.2343 -3.84172 0.571524 0
M  V30 391 H 35.9663 -3.97055 0.78292 0
M  V30 392 H 32.7213 -3.82211 2.79663 0
M  V30 393 H 33.1453 -4.07613 5.40538 0
M  V30 394 H 37.7873 -3.33572 2.59788 0
M  V30 395 H 35.5053 -4.05108 6.99223 0
M  V30 396 H 39.0913 -3.43287 4.69729 0
M  V30 397 H 37.9713 -3.78792 6.86649 0
M  V30 398 N 35.4744 -0.807222 -1.35358 0
M  V30 399 C 36.4214 -0.216037 -2.29787 0
M  V30 400 C 37.3914 0.650278 -1.52842 0
M  V30 401 O 38.5764 0.595227 -1.81278 0
M  V30 402 C 35.7164 0.628893 -3.39321 0
M  V30 403 C 34.8294 -0.257927 -4.31229 0
M  V30 404 C 33.9644 0.595069 -5.27856 0
M  V30 405 C 33.0034 -0.292111 -6.11403 0
M  V30 406 N 32.1404 0.520895 -7.00165 0
M  V30 407 H 36.9804 -1.02671 -2.79755 0
M  V30 408 H 34.5174 -0.517839 -1.37684 0
M  V30 409 H 36.4754 1.13393 -4.01494 0
M  V30 410 H 35.1054 1.40482 -2.90628 0
M  V30 411 H 34.1574 -0.881076 -3.70056 0
M  V30 412 H 35.4694 -0.940759 -4.89848 0
M  V30 413 H 34.6234 1.16522 -5.95405 0
M  V30 414 H 33.3624 1.31146 -4.69736 0
M  V30 415 H 32.3674 -0.874525 -5.428 0
M  V30 416 H 33.5924 -1.00638 -6.71602 0
M  V30 417 H 31.5384 1.22125 -6.44532 0
M  V30 418 H 31.4554 -0.103877 -7.55929 0
M  V30 419 H 32.7234 1.0743 -7.72062 0
M  V30 420 N 36.9525 1.47285 -0.560781 0
M  V30 421 C 37.9025 2.27073 0.205384 0
M  V30 422 C 38.8865 1.34569 0.882044 0
M  V30 423 O 40.0785 1.58899 0.77976 0
M  V30 424 C 37.2075 3.20414 1.23247 0
M  V30 425 C 36.2935 4.20399 0.559041 0
M  V30 426 N 36.6845 5.04423 -0.372927 0
M  V30 427 C 34.9825 4.38536 0.812522 0
M  V30 428 C 35.6835 5.76655 -0.764446 0
M  V30 429 N 34.6595 5.43471 -0.11848 0
M  V30 430 H 38.4615 2.89422 -0.511117 0
M  V30 431 H 35.9755 1.57868 -0.380975 0
M  V30 432 H 37.9725 3.76262 1.79534 0
M  V30 433 H 36.6325 2.59623 1.95002 0
M  V30 434 H 37.6435 5.1248 -0.747287 0
M  V30 435 H 34.3205 3.88913 1.51832 0
M  V30 436 H 35.7105 6.54238 -1.53045 0
M  V30 437 N 38.4306 0.297415 1.54768 0
M  V30 438 C 39.6586 -0.315623 2.04478 0
M  V30 439 C 40.0736 -1.47792 1.17486 0
M  V30 440 O 39.4306 -1.81404 0.19971 0
M  V30 441 C 39.4816 -0.7753 3.53088 0
M  V30 442 O 39.2026 0.340732 4.36773 0
M  V30 443 C 40.7036 -1.45386 4.18781 0
M  V30 444 H 37.9236 -0.0690887 0.667434 0
M  V30 445 H 40.4676 0.436003 1.99798 0
M  V30 446 H 38.6226 -1.47696 3.58141 0
M  V30 447 H 39.0366 -0.0165035 5.24497 0
M  V30 448 H 40.5106 -1.72669 5.24299 0
M  V30 449 H 40.9876 -2.39275 3.68299 0
M  V30 450 H 41.5936 -0.795475 4.17795 0
M  V30 451 N 39.9087 -1.5758 0.0250728 0
M  V30 452 C 41.1337 -1.96337 -0.668317 0
M  V30 453 C 41.5587 -0.901314 -1.651 0
M  V30 454 O 40.9167 0.138187 -1.80773 0
M  V30 455 C 40.9647 -3.34191 -1.35457 0
M  V30 456 O 40.0687 -3.30269 -2.46974 0
M  V30 457 H 39.4097 -0.640281 -0.175887 0
M  V30 458 H 41.9397 -2.0442 0.0857224 0
M  V30 459 H 41.9497 -3.70331 -1.71228 0
M  V30 460 H 40.6247 -4.11036 -0.634218 0
M  V30 461 H 39.2017 -3.05841 -2.13344 0
M  V30 462 N 41.3868 0.248026 -1.55636 0
M  V30 463 C 42.6118 0.998028 -1.81808 0
M  V30 464 C 43.0368 1.78207 -0.601979 0
M  V30 465 O 42.3948 1.75653 0.448961 0
M  V30 466 C 42.4428 1.9125 -3.05705 0
M  V30 467 O 41.5468 3.00406 -2.82542 0
M  V30 468 H 40.8878 0.284045 -0.600179 0
M  V30 469 H 43.4178 0.269357 -2.02819 0
M  V30 470 H 43.4278 2.32737 -3.35108 0
M  V30 471 H 42.1028 1.33602 -3.93857 0
M  V30 472 H 40.6798 2.63056 -2.64303 0
M  V30 473 N 42.8649 1.48995 0.513639 0
M  V30 474 C 43.7949 1.67636 1.62544 0
M  V30 475 C 44.7759 0.525087 1.61793 0
M  V30 476 O 45.9609 0.759502 1.78732 0
M  V30 477 C 43.0909 1.73114 3.01079 0
M  V30 478 C 42.0449 2.87905 3.16693 0
M  V30 479 C 41.3709 2.78486 4.56453 0
M  V30 480 C 42.6709 4.29005 2.97913 0
M  V30 481 H 44.3649 2.60716 1.47198 0
M  V30 482 H 41.9109 1.25465 0.706714 0
M  V30 483 H 43.8639 1.84742 3.78746 0
M  V30 484 H 42.5879 0.766241 3.17484 0
M  V30 485 H 41.2469 2.75859 2.41448 0
M  V30 486 H 40.8949 1.7993 4.69717 0
M  V30 487 H 40.5949 3.55523 4.67843 0
M  V30 488 H 42.1189 2.92104 5.36197 0
M  V30 489 H 43.5329 4.41798 3.65359 0
M  V30 490 H 41.9299 5.07166 3.20785 0
M  V30 491 H 42.9999 4.44329 1.94165 0
M  V30 492 N 44.343 -0.763751 1.37857 0
M  V30 493 C 45.29 -1.87726 1.34267 0
M  V30 494 C 46.26 -1.64807 0.206879 0
M  V30 495 O 47.445 -1.86613 0.397508 0
M  V30 496 C 44.585 -3.24896 1.16346 0
M  V30 497 C 43.698 -3.59716 2.39225 0
M  V30 498 C 42.833 -4.86137 2.14114 0
M  V30 499 C 41.872 -5.13711 3.32817 0
M  V30 500 N 41.009 -6.31323 3.07206 0
M  V30 501 H 45.849 -1.90129 2.29466 0
M  V30 502 H 43.386 -0.929433 1.14017 0
M  V30 503 H 45.344 -4.04036 1.03975 0
M  V30 504 H 43.974 -3.21847 0.247909 0
M  V30 505 H 43.026 -2.75498 2.62307 0
M  V30 506 H 44.338 -3.76027 3.27728 0
M  V30 507 H 43.492 -5.73198 1.9882 0
M  V30 508 H 42.231 -4.71945 1.22961 0
M  V30 509 H 41.236 -4.25123 3.48641 0
M  V30 510 H 42.461 -5.29807 4.24832 0
M  V30 511 H 40.407 -6.18474 2.1869 0
M  V30 512 H 40.324 -6.48087 3.89254 0
M  V30 513 H 41.592 -7.213 2.95546 0
M  V30 514 N 45.8211 -1.22559 -0.990812 0
M  V30 515 C 47.0671 -1.05297 -1.73322 0
M  V30 516 C 47.4001 0.410655 -1.89808 0
M  V30 517 O 46.6751 1.30439 -1.44277 0
M  V30 518 C 46.9581 -1.76713 -3.13759 0
M  V30 519 C 46.8111 -3.30684 -3.04907 0
M  V30 520 C 48.1301 -1.52121 -4.12974 0
M  V30 521 H 45.2491 -0.38392 -0.629106 0
M  V30 522 H 47.8911 -1.50926 -1.15418 0
M  V30 523 H 46.0411 -1.37924 -3.63193 0
M  V30 524 H 47.7131 -3.7893 -2.63077 0
M  V30 525 H 45.9561 -3.60253 -2.41661 0
M  V30 526 H 46.6271 -3.75833 -4.04294 0
M  V30 527 H 49.1031 -1.85819 -3.72304 0
M  V30 528 H 47.9791 -2.04582 -5.0935 0
M  V30 529 H 48.2401 -0.454257 -4.3976 0
M  V30 530 N 47.2992 1.18797 -1.03562 0
M  V30 531 C 48.2622 2.20464 -0.626769 0
M  V30 532 C 49.2622 1.57721 0.313173 0
M  V30 533 O 50.4522 1.73917 0.0992615 0
M  V30 534 C 47.5842 3.40802 0.0818498 0
M  V30 535 H 48.7772 2.58149 -1.5264 0
M  V30 536 H 46.3302 1.32593 -0.827578 0
M  V30 537 H 47.0652 3.08642 0.995518 0
M  V30 538 H 46.8502 3.8758 -0.593652 0
M  V30 539 H 48.3402 4.16092 0.354584 0
M  V30 540 N 48.7773 0.814389 1.34928 0
M  V30 541 C 49.7253 0.218424 2.31572 0
M  V30 542 C 50.7193 -0.636128 1.57002 0
M  V30 543 O 51.9253 -0.52842 1.72069 0
M  V30 544 H 48.3003 0.0518799 0.750208 0
M  V30 545 H 50.2713 1.04852 2.79372 0
M  V30 546 C 49.0203 -0.61207 3.4227 0
M  V30 547 H 48.3433 0.0361578 3.99784 0
M  V30 548 H 49.7833 -0.995317 4.12152 0
M  V30 549 C 48.2423 -1.78087 2.85984 0
M  V30 550 O 48.7723 -2.8787 2.80168 0
M  V30 551 N 46.9783 -1.59488 2.42924 0
M  V30 552 H 46.5253 -0.701874 2.47854 0
M  V30 553 H 46.4833 -2.37846 2.05613 0
M  V30 554 N 50.2554 -1.46986 0.568584 0
M  V30 555 C 51.1654 -2.33942 -0.17555 0
M  V30 556 C 52.1814 -1.48891 -0.90041 0
M  V30 557 O 53.3574 -1.81794 -0.86676 0
M  V30 558 C 50.4224 -3.25811 -1.18524 0
M  V30 559 C 49.4834 -4.26757 -0.466582 0
M  V30 560 C 48.7164 -5.14236 -1.42817 0
M  V30 561 O 48.9394 -5.04379 -2.66379 0
M  V30 562 O 47.8734 -5.94412 -0.946453 0
M  V30 563 H 51.6994 -2.98896 0.538036 0
M  V30 564 H 49.2844 -1.4573 0.329097 0
M  V30 565 H 51.1664 -3.82527 -1.76779 0
M  V30 566 H 49.8414 -2.63471 -1.88055 0
M  V30 567 H 48.7484 -3.73769 0.157451 0
M  V30 568 H 50.0814 -4.91843 0.187485 0
M  V30 569 N 51.7335 -0.305618 -1.54608 0
M  V30 570 C 53.1445 0.186098 -1.8577 0
M  V30 571 C 53.4955 1.53058 -1.22751 0
M  V30 572 O 52.6205 2.09888 -0.526893 0
M  V30 573 C 53.2155 0.344449 -3.37044 0
M  V30 574 C 51.7745 0.780384 -3.68221 0
M  V30 575 C 50.9215 -0.108554 -2.77087 0
M  V30 576 H 53.8725 -0.526485 -1.49712 0
M  V30 577 H 53.8935 1.17828 -3.61796 0
M  V30 578 H 53.4055 -0.634235 -3.82883 0
M  V30 579 H 51.5065 1.76945 -3.27904 0
M  V30 580 H 51.6195 0.596572 -4.75371 0
M  V30 581 H 49.9835 0.412931 -2.5133 0
M  V30 582 H 50.7665 -1.08368 -3.25747 0
M  V30 583 N 53.2116 1.57565 -0.0334293 0
M  V30 584 C 54.4576 1.92262 0.645226 0
M  V30 585 C 54.7906 0.910543 1.71531 0
M  V30 586 O 54.0656 -0.066099 1.94388 0
M  V30 587 C 54.3486 3.37422 1.2577 0
M  V30 588 C 54.2016 4.49369 0.196891 0
M  V30 589 C 55.5206 3.82628 2.17449 0
M  V30 590 H 52.6396 0.699171 0.233085 0
M  V30 591 H 55.2816 1.89779 -0.0915694 0
M  V30 592 H 53.4316 3.39669 1.88566 0
M  V30 593 H 55.1036 4.59254 -0.433962 0
M  V30 594 H 53.3466 4.31168 -0.477137 0
M  V30 595 H 54.0176 5.47978 0.665124 0
M  V30 596 H 56.4936 3.82145 1.64634 0
M  V30 597 H 55.3696 4.84883 2.57254 0
M  V30 598 H 55.6306 3.18376 3.0674 0
M  V30 599 N 54.6897 -0.239769 1.55765 0
M  V30 600 C 55.6197 -1.30052 1.9393 0
M  V30 601 C 56.6007 -1.49839 0.805132 0
M  V30 602 O 57.7857 -1.62328 1.06599 0
M  V30 603 C 54.9157 -2.65391 2.2402 0
M  V30 604 C 53.8697 -2.60289 3.39755 0
M  V30 605 C 53.1957 -3.99489 3.55405 0
M  V30 606 C 54.4957 -2.16654 4.75246 0
M  V30 607 H 56.1897 -0.983573 2.82783 0
M  V30 608 H 53.7357 -0.471701 1.36055 0
M  V30 609 H 55.6887 -3.3974 2.49308 0
M  V30 610 H 54.4127 -2.98736 1.32 0
M  V30 611 H 53.0717 -1.88398 3.14487 0
M  V30 612 H 52.7197 -4.30112 2.60793 0
M  V30 613 H 52.4197 -3.96962 4.33238 0
M  V30 614 H 53.9437 -4.75528 3.83022 0
M  V30 615 H 55.3577 -2.80737 4.99859 0
M  V30 616 H 53.7547 -2.25223 5.56232 0
M  V30 617 H 54.8247 -1.11835 4.71827 0
M  V30 618 N 56.1678 -1.49265 -0.50573 0
M  V30 619 C 57.1308 -1.65075 -1.59006 0
M  V30 620 C 58.1308 -0.522768 -1.52065 0
M  V30 621 O 59.3208 -0.789117 -1.55302 0
M  V30 622 C 56.4528 -1.64369 -2.98656 0
M  V30 623 H 57.6458 -2.61784 -1.46319 0
M  V30 624 H 55.1988 -1.38226 -0.729616 0
M  V30 625 H 55.9338 -0.692272 -3.16825 0
M  V30 626 H 55.7188 -2.46282 -3.05103 0
M  V30 627 H 57.2088 -1.78674 -3.77446 0
M  V30 628 N 57.6459 0.756429 -1.3826 0
M  V30 629 C 58.8929 1.51547 -1.34312 0
M  V30 630 C 59.2209 1.94382 0.0677144 0
M  V30 631 O 58.4759 1.65514 1.04421 0
M  V30 632 C 58.7749 2.78313 -2.24224 0
M  V30 633 C 58.4409 2.54455 -3.72241 0
M  V30 634 C 57.1029 2.47657 -4.12576 0
M  V30 635 C 59.4549 2.3354 -4.65949 0
M  V30 636 C 56.7829 2.17956 -5.44713 0
M  V30 637 C 59.1349 2.05359 -5.9834 0
M  V30 638 C 57.7989 1.97016 -6.37762 0
M  V30 639 H 57.0689 0.55455 -0.491482 0
M  V30 640 H 59.7159 0.870039 -1.70595 0
M  V30 641 H 58.0209 3.47492 -1.80987 0
M  V30 642 H 59.7179 3.36259 -2.18474 0
M  V30 643 H 56.3079 2.60616 -3.40261 0
M  V30 644 H 60.4919 2.37772 -4.35635 0
M  V30 645 H 55.7479 2.10003 -5.74203 0
M  V30 646 H 59.9219 1.88179 -6.70494 0
M  V30 647 H 57.5489 1.73766 -7.40074 0
M  V30 648 N 59.124 1.23083 0.984299 0
M  V30 649 C 60.352 1.08714 1.76037 0
M  V30 650 C 60.767 -0.361691 1.85303 0
M  V30 651 O 60.124 -1.25034 1.32939 0
M  V30 652 C 60.175 1.70206 3.18923 0
M  V30 653 O 59.896 3.09423 3.10144 0
M  V30 654 C 61.397 1.61227 4.12941 0
M  V30 655 H 58.617 0.380664 0.552572 0
M  V30 656 H 61.161 1.62853 1.23689 0
M  V30 657 H 59.316 1.20109 3.6831 0
M  V30 658 H 59.73 3.39188 4.00065 0
M  V30 659 H 61.204 2.08962 5.10919 0
M  V30 660 H 61.681 0.570375 4.35481 0
M  V30 661 H 62.287 2.10671 3.69456 0
M  V30 662 N 60.6021 -1.18246 1.0419 0
M  V30 663 C 61.5341 -2.2142 0.592088 0
M  V30 664 C 62.5471 -1.59233 -0.338909 0
M  V30 665 O 63.7361 -1.78002 -0.133231 0
M  V30 666 C 60.8361 -3.38546 -0.154854 0
M  V30 667 C 60.0091 -4.3031 0.784328 0
M  V30 668 C 59.0681 -5.26138 0.0804583 0
M  V30 669 O 58.0941 -5.64738 0.711292 0
M  V30 670 N 59.2961 -5.68261 -1.18574 0
M  V30 671 H 62.0611 -2.60636 1.47949 0
M  V30 672 H 59.6221 -1.33044 0.922544 0
M  V30 673 H 61.6141 -3.99678 -0.635606 0
M  V30 674 H 60.1841 -2.98012 -0.943811 0
M  V30 675 H 59.4041 -3.66764 1.44491 0
M  V30 676 H 60.6921 -4.8852 1.42218 0
M  V30 677 H 60.0901 -5.38957 -1.71876 0
M  V30 678 H 58.6471 -6.31584 -1.61074 0
M  V30 679 N 62.0802 -0.821533 -1.34494 0
M  V30 680 C 63.3282 -0.408139 -1.97936 0
M  V30 681 C 63.6492 1.03193 -1.65457 0
M  V30 682 O 62.9192 1.71622 -0.944595 0
M  V30 683 H 61.4992 -0.147928 -0.732206 0
M  V30 684 H 64.1612 -1.05067 -1.64155 0
M  V30 685 H 63.2572 -0.52601 -3.07635 0
M  V30 686 N 63.5583 1.46682 -0.576371 0
M  V30 687 C 64.7833 2.07304 -0.0630475 0
M  V30 688 C 65.2083 1.42329 1.2298 0
M  V30 689 O 64.5663 0.504865 1.74129 0
M  V30 690 C 64.6143 3.60472 0.095895 0
M  V30 691 O 63.7183 3.95927 1.15394 0
M  V30 692 H 63.0593 0.661288 -0.0599463 0
M  V30 693 H 65.5893 1.88417 -0.797511 0
M  V30 694 H 65.5993 4.06865 0.304071 0
M  V30 695 H 64.2743 4.07157 -0.84828 0
M  V30 696 H 62.8513 3.61252 0.924724 0
M  V30 697 N 65.0364 0.313813 1.54444 0
M  V30 698 C 66.4474 -0.176243 1.85866 0
M  V30 699 C 66.7984 -1.52405 1.23561 0
M  V30 700 O 65.9234 -2.09605 0.538016 0
M  V30 701 C 66.5184 -0.32657 3.37222 0
M  V30 702 C 65.0774 -0.760846 3.6863 0
M  V30 703 C 64.2244 0.123247 2.77026 0
M  V30 704 H 67.1754 0.534418 1.49431 0
M  V30 705 H 67.1964 -1.15908 3.62416 0
M  V30 706 H 66.7084 0.654531 3.82541 0
M  V30 707 H 64.8094 -1.75204 3.28838 0
M  V30 708 H 64.9224 -0.571353 4.75681 0
M  V30 709 H 63.2864 -0.399597 2.51546 0
M  V30 710 H 64.0694 1.10094 3.25168 0
M  V30 711 N 66.5145 -1.57545 0.0417849 0
M  V30 712 C 67.4245 -2.14451 -0.951213 0
M  V30 713 C 68.4405 -1.09992 -1.34825 0
M  V30 714 O 69.6165 -1.42114 -1.42708 0
M  V30 715 C 66.6815 -2.67063 -2.21084 0
M  V30 716 C 65.7425 -3.86284 -1.87304 0
M  V30 717 C 64.9755 -4.36378 -3.07261 0
M  V30 718 O 65.1985 -3.85587 -4.20332 0
M  V30 719 O 64.1325 -5.28077 -2.88822 0
M  V30 720 H 67.9585 -2.99601 -0.497287 0
M  V30 721 H 65.5435 -1.48317 -0.179567 0
M  V30 722 H 67.4255 -3.00914 -2.95006 0
M  V30 723 H 66.1005 -1.84989 -2.65633 0
M  V30 724 H 65.0075 -3.57338 -1.10727 0
M  V30 725 H 66.3405 -4.6956 -1.47562 0
M  V30 726 N 67.9926 0.231505 -1.5589 0
M  V30 727 C 69.4086 0.580748 -1.48659 0
M  V30 728 C 69.6086 1.87617 -0.73498 0
M  V30 729 O 68.6646 2.51046 -0.270586 0
M  V30 730 C 69.9776 0.669202 -2.93159 0
M  V30 731 C 71.5256 0.760499 -3.03621 0
M  V30 732 C 72.0006 0.880383 -4.49459 0
M  V30 733 N 73.4916 0.944861 -4.53461 0
M  V30 734 C 74.2266 1.05716 -5.63571 0
M  V30 735 N 73.7226 1.13403 -6.83456 0
M  V30 736 N 75.5156 1.09152 -5.514 0
M  V30 737 H 67.6666 -0.618695 -2.03189 0
M  V30 738 H 69.9296 -0.215728 -0.923128 0
M  V30 739 H 69.6356 -0.212904 -3.51055 0
M  V30 740 H 69.5096 1.5361 -3.44505 0
M  V30 741 H 71.8966 1.63305 -2.45796 0
M  V30 742 H 71.9776 -0.131864 -2.5546 0
M  V30 743 H 71.6216 0.0123284 -5.07899 0
M  V30 744 H 71.5516 1.78802 -4.95316 0
M  V30 745 H 74.0426 0.896176 -3.6712 0
M  V30 746 H 74.3556 1.21921 -7.63122 0
M  V30 747 H 72.7006 1.10333 -6.86186 0
M  V30 748 H 75.8916 1.02805 -4.56671 0
M  V30 749 H 76.0646 1.17558 -6.37247 0
M  V30 750 N 69.4707 1.49531 0.497807 0
M  V30 751 C 70.7477 1.49682 1.25915 0
M  V30 752 C 71.1277 0.226339 2.09883 0
M  V30 753 O 70.4757 -0.791189 2.14365 0
M  V30 754 C 70.6857 2.77755 2.11313 0
M  V30 755 C 72.0337 3.27371 2.70395 0
M  V30 756 O 73.0577 2.78894 2.21578 0
M  V30 757 O 71.9167 4.11808 3.59272 0
M  V30 758 H 69.0107 0.599228 0.56996 0
M  V30 759 H 71.5567 1.61798 0.511816 0
M  V30 760 H 70.3287 3.61713 1.49264 0
M  V30 761 H 69.9517 2.68515 2.93233 0
M  V30 762 N 70.9488 -0.749086 1.3866 0
M  V30 763 C 71.9118 -1.84457 1.36045 0
M  V30 764 C 72.9118 -1.58682 0.260122 0
M  V30 765 O 74.1018 -1.66343 0.517261 0
M  V30 766 C 71.2338 -3.22008 1.11911 0
M  V30 767 H 72.4268 -1.88182 2.33512 0
M  V30 768 H 69.9798 -0.951266 1.24019 0
M  V30 769 H 70.7148 -3.2395 0.150686 0
M  V30 770 H 70.4998 -3.42111 1.91579 0
M  V30 771 H 71.9898 -4.0208 1.12788 0
M  V30 772 N 72.4269 -1.23603 -0.977757 0
M  V30 773 C 73.3569 -1.04401 -2.0886 0
M  V30 774 C 74.3379 0.0399052 -1.70053 0
M  V30 775 O 75.5229 -0.125246 -1.93796 0
M  V30 776 C 72.6529 -0.637269 -3.41403 0
M  V30 777 C 71.6069 -1.66883 -3.94124 0
M  V30 778 C 70.9329 -1.11745 -5.22893 0
M  V30 779 C 72.2329 -3.06247 -4.23096 0
M  V30 780 H 73.9269 -1.97316 -2.25182 0
M  V30 781 H 71.4729 -0.950096 -1.08209 0
M  V30 782 H 73.4259 -0.48998 -4.18542 0
M  V30 783 H 72.1499 0.327557 -3.24953 0
M  V30 784 H 70.8089 -1.80416 -3.19133 0
M  V30 785 H 70.4569 -0.143527 -5.02795 0
M  V30 786 H 70.1569 -1.80672 -5.59134 0
M  V30 787 H 71.6809 -0.982067 -6.02651 0
M  V30 788 H 73.0949 -2.96001 -4.90975 0
M  V30 789 H 71.4919 -3.72436 -4.70544 0
M  V30 790 H 72.5619 -3.55041 -3.30263 0
M  V30 791 N 73.905 1.17692 -1.04816 0
M  V30 792 C 74.837 2.21103 -0.603822 0
M  V30 793 C 75.85 1.59411 0.33046 0
M  V30 794 O 77.039 1.7807 0.12379 0
M  V30 795 C 74.139 3.38623 0.136898 0
M  V30 796 C 73.312 4.29888 -0.807137 0
M  V30 797 C 72.371 5.26088 -0.10836 0
M  V30 798 O 71.397 5.64353 -0.741232 0
M  V30 799 N 72.599 5.68882 1.15558 0
M  V30 800 H 75.364 2.59848 -1.49329 0
M  V30 801 H 72.925 1.32553 -0.929587 0
M  V30 802 H 74.917 4.00009 0.614401 0
M  V30 803 H 73.487 2.98508 0.927993 0
M  V30 804 H 72.707 3.65993 -1.46434 0
M  V30 805 H 73.995 4.87759 -1.44807 0
M  V30 806 H 73.393 5.39861 1.69015 0
M  V30 807 H 71.95 6.32429 1.57722 0
M  V30 808 N 75.3831 0.828654 1.34056 0
M  V30 809 C 76.3301 0.252567 2.29414 0
M  V30 810 C 77.3001 -0.62588 1.53857 0
M  V30 811 O 78.4851 -0.566312 1.82202 0
M  V30 812 C 75.6251 -0.574831 3.40279 0
M  V30 813 C 74.7381 0.326499 4.30764 0
M  V30 814 C 73.8731 -0.511016 5.28736 0
M  V30 815 C 72.9121 0.389342 6.1086 0
M  V30 816 N 72.0491 -0.409439 7.00905 0
M  V30 817 H 76.8891 1.07108 2.78086 0
M  V30 818 H 74.4261 0.539677 1.36843 0
M  V30 819 H 76.3841 -1.06992 4.03248 0
M  V30 820 H 75.0141 -1.35841 2.92826 0
M  V30 821 H 74.0661 0.939837 3.68607 0
M  V30 822 H 75.3781 1.01857 4.88289 0
M  V30 823 H 74.5321 -1.07035 5.97184 0
M  V30 824 H 73.2711 -1.23657 4.71763 0
M  V30 825 H 72.2761 0.960769 5.4134 0
M  V30 826 H 73.5011 1.1131 6.69916 0
M  V30 827 H 71.4471 -1.11856 6.46393 0
M  V30 828 H 71.3641 0.224126 7.55668 0
M  V30 829 H 72.6321 -0.951336 7.73673 0
M  V30 830 N 76.8612 -1.46375 0.584142 0
M  V30 831 C 77.8242 -2.28784 -0.138108 0
M  V30 832 C 78.8242 -1.38471 -0.817462 0
M  V30 833 O 80.0142 -1.60833 -0.669199 0
M  V30 834 C 77.1462 -3.18892 -1.20503 0
M  V30 835 H 78.3392 -2.94117 0.586127 0
M  V30 836 H 75.8922 -1.52509 0.342171 0
M  V30 837 H 76.6272 -2.58309 -1.96079 0
M  V30 838 H 76.4122 -3.85388 -0.722384 0
M  V30 839 H 77.9022 -3.80914 -1.71155 0
M  V30 840 N 78.3393 -0.321999 -1.54275 0
M  V30 841 C 79.2693 0.537411 -2.27231 0
M  V30 842 C 80.2503 1.12064 -1.27968 0
M  V30 843 O 81.4353 1.14606 -1.56777 0
M  V30 844 C 78.5653 1.69919 -3.02894 0
M  V30 845 C 77.5193 1.24534 -4.09482 0
M  V30 846 C 76.8453 2.49394 -4.72977 0
M  V30 847 C 78.1453 0.361335 -5.21049 0
M  V30 848 H 79.8393 -0.0711406 -2.99315 0
M  V30 849 H 77.3853 -0.0356555 -1.43956 0
M  V30 850 H 79.3383 2.30668 -3.52662 0
M  V30 851 H 78.0623 2.33431 -2.28424 0
M  V30 852 H 76.7213 0.660782 -3.60596 0
M  V30 853 H 76.3693 3.11265 -3.95124 0
M  V30 854 H 76.0693 2.19718 -5.44975 0
M  V30 855 H 77.5933 3.10908 -5.25517 0
M  V30 856 H 79.0073 0.875072 -5.66582 0
M  V30 857 H 77.4043 0.157428 -5.99893 0
M  V30 858 H 78.4743 -0.60822 -4.8107 0
M  V30 859 N 79.8174 1.5752 -0.0501392 0
M  V30 860 C 80.7644 2.1147 0.924603 0
M  V30 861 C 81.7344 1.02182 1.30951 0
M  V30 862 O 82.9194 1.29723 1.39916 0
M  V30 863 C 80.0594 2.66337 2.19451 0
M  V30 864 C 79.1724 3.89708 1.86418 0
M  V30 865 C 78.3074 4.32893 3.07859 0
M  V30 866 C 77.3464 5.48967 2.70742 0
M  V30 867 N 76.4834 5.87211 3.84874 0
M  V30 868 H 81.3234 2.94465 0.457639 0
M  V30 869 H 78.8604 1.45531 0.214266 0
M  V30 870 H 80.8184 2.96247 2.93758 0
M  V30 871 H 79.4484 1.86141 2.63726 0
M  V30 872 H 78.5004 3.66396 1.02264 0
M  V30 873 H 79.8124 4.74074 1.55096 0
M  V30 874 H 78.9664 4.6435 3.90466 0
M  V30 875 H 77.7054 3.47336 3.42358 0
M  V30 876 H 76.7104 5.17183 1.86551 0
M  V30 877 H 77.9354 6.3624 2.37436 0
M  V30 878 H 75.8814 5.04607 4.19175 0
M  V30 879 H 75.7984 6.66266 3.57247 0
M  V30 880 H 77.0664 6.23282 4.68123 0
M  V30 881 N 81.2955 -0.223234 1.56011 0
M  V30 882 C 82.5725 -0.972108 1.69733 0
M  V30 883 C 82.9525 -2.02485 0.59691 0
M  V30 884 O 82.3005 -2.25037 -0.396324 0
M  V30 885 C 82.5105 -1.58407 3.10979 0
M  V30 886 C 83.8585 -2.07696 3.70334 0
M  V30 887 O 84.8825 -1.68304 3.1393 0
M  V30 888 O 83.7415 -2.80096 4.69264 0
M  V30 889 H 80.8355 -0.453993 0.691245 0
M  V30 890 H 83.3815 -0.215149 1.68331 0
M  V30 891 H 82.1535 -0.823831 3.82529 0
M  V30 892 H 81.7765 -2.40661 3.16493 0
M  V30 893 N 82.7736 -1.49793 -0.48987 0
M  V30 894 C 83.7036 -1.70201 -1.59856 0
M  V30 895 C 84.6846 -0.55076 -1.60937 0
M  V30 896 O 85.8696 -0.787841 -1.77501 0
M  V30 897 C 82.9996 -1.77882 -2.98287 0
M  V30 898 C 81.9536 -2.92907 -3.12073 0
M  V30 899 C 81.2796 -2.85712 -4.51965 0
M  V30 900 C 82.5796 -4.3369 -2.91051 0
M  V30 901 H 84.2736 -2.63025 -1.43032 0
M  V30 902 H 81.8196 -1.26574 -0.686664 0
M  V30 903 H 83.7726 -1.90744 -3.75759 0
M  V30 904 H 82.4966 -0.816653 -3.16225 0
M  V30 905 H 81.1556 -2.79665 -2.37029 0
M  V30 906 H 80.8036 -1.8738 -4.66795 0
M  V30 907 H 80.5036 -3.62921 -4.62128 0
M  V30 908 H 82.0276 -3.00598 -5.31482 0
M  V30 909 H 83.4416 -4.47555 -3.58284 0
M  V30 910 H 81.8386 -5.12205 -3.12675 0
M  V30 911 H 82.9086 -4.47362 -1.87071 0
M  V30 912 N 84.2517 0.741722 -1.39055 0
M  V30 913 C 85.1987 1.85566 -1.37237 0
M  V30 914 C 86.1687 1.64457 -0.233072 0
M  V30 915 O 87.3537 1.85957 -0.427147 0
M  V30 916 C 84.4937 3.23004 -1.215 0
M  V30 917 C 83.6067 3.55864 -2.44918 0
M  V30 918 C 82.7417 4.82669 -2.21821 0
M  V30 919 C 81.7807 5.08351 -3.40948 0
M  V30 920 N 80.9177 6.26356 -3.17211 0
M  V30 921 H 85.7577 1.86455 -2.32462 0
M  V30 922 H 83.2947 0.911176 -1.15482 0
M  V30 923 H 85.2527 4.02331 -1.10389 0
M  V30 924 H 83.8827 3.21411 -0.29908 0
M  V30 925 H 82.9347 2.7129 -2.66657 0
M  V30 926 H 84.2467 3.70765 -3.33668 0
M  V30 927 H 83.4007 5.69962 -2.07914 0
M  V30 928 H 82.1397 4.69929 -1.30454 0
M  V30 929 H 81.1447 4.19522 -3.55361 0
M  V30 930 H 82.3697 5.22981 -4.33207 0
M  V30 931 H 80.3157 6.14917 -2.28502 0
M  V30 932 H 80.2327 6.41813 -3.99515 0
M  V30 933 H 81.5007 7.16506 -3.06984 0
M  V30 934 N 85.7298 1.2412 0.971189 0
M  V30 935 C 86.9778 1.07668 1.71032 0
M  V30 936 C 87.2988 -0.385797 1.91146 0
M  V30 937 O 86.5688 -1.27569 1.4867 0
M  V30 938 H 85.1488 0.395429 0.633755 0
M  V30 939 H 87.8108 1.55984 1.16855 0
M  V30 940 H 86.9068 1.57195 2.69622 0
M  V30 941 N 87.2079 -1.17134 1.05439 0
M  V30 942 C 88.6239 -1.39454 0.776201 0
M  V30 943 C 88.8239 -1.91454 -0.628307 0
M  V30 944 O 87.8799 -2.10777 -1.39031 0
M  V30 945 C 89.1929 -2.38305 1.83388 0
M  V30 946 C 90.7409 -2.52006 1.85639 0
M  V30 947 C 91.2159 -3.54133 2.90437 0
M  V30 948 N 92.7069 -3.61653 2.89415 0
M  V30 949 C 93.4419 -4.4044 3.67152 0
M  V30 950 N 92.9379 -5.22721 4.54681 0
M  V30 951 N 94.7309 -4.35337 3.55581 0
M  V30 952 H 86.8819 -0.817134 1.96053 0
M  V30 953 H 89.1449 -0.421626 0.849079 0
M  V30 954 H 88.8509 -2.07173 2.84204 0
M  V30 955 H 88.7249 -3.37841 1.67761 0
M  V30 956 H 91.1119 -2.82447 0.85486 0
M  V30 957 H 91.1929 -1.52537 2.05344 0
M  V30 958 H 90.8369 -3.24431 3.90777 0
M  V30 959 H 90.7669 -4.53313 2.67983 0
M  V30 960 H 93.2579 -3.02909 2.25952 0
M  V30 961 H 93.5709 -5.80027 5.10674 0
M  V30 962 H 91.9159 -5.22093 4.58741 0
M  V30 963 H 95.1069 -3.70112 2.86592 0
M  V30 964 H 95.2799 -4.96494 4.1641 0
M  V30 965 N 88.686 -0.835752 -1.33615 0
M  V30 966 C 89.619 -0.211815 -2.27215 0
M  V30 967 C 90.597 0.639249 -1.49507 0
M  V30 968 O 91.781 0.600193 -1.78689 0
M  V30 969 C 88.908 0.702893 -3.31326 0
M  V30 970 C 87.954 -0.0723049 -4.26439 0
M  V30 971 S 88.787 -1.42811 -5.16106 0
M  V30 972 C 89.943 -0.518613 -6.23748 0
M  V30 973 H 90.176 -1.00533 -2.79786 0
M  V30 974 H 87.709 -0.632336 -1.40858 0
M  V30 975 H 89.667 1.22505 -3.91794 0
M  V30 976 H 88.328 1.47004 -2.77576 0
M  V30 977 H 87.521 0.62359 -5.00127 0
M  V30 978 H 87.123 -0.525424 -3.70291 0
M  V30 979 H 89.415 0.284778 -6.76901 0
M  V30 980 H 90.358 -1.22556 -6.97413 0
M  V30 981 H 90.766 -0.101344 -5.64409 0
M  V30 982 N 90.1641 1.46063 -0.591896 0
M  V30 983 C 91.0741 2.34192 0.13831 0
M  V30 984 C 92.0901 1.50305 0.876608 0
M  V30 985 O 93.2661 1.8315 0.837728 0
M  V30 986 C 90.3311 3.27656 1.13326 0
M  V30 987 C 89.3921 4.27445 0.39863 0
M  V30 988 C 88.6251 5.16443 1.34618 0
M  V30 989 O 88.8481 5.08553 2.58321 0
M  V30 990 O 87.7821 5.95843 0.851768 0
M  V30 991 H 91.6081 2.98002 -0.58552 0
M  V30 992 H 89.1931 1.45188 -0.352239 0
M  V30 993 H 91.0751 3.85291 1.70671 0
M  V30 994 H 89.7501 2.6643 1.83839 0
M  V30 995 H 88.6571 3.73471 -0.216895 0
M  V30 996 H 89.9901 4.91482 -0.265709 0
M  V30 997 N 91.6422 0.330177 1.54103 0
M  V30 998 C 92.6052 -0.520144 2.2322 0
M  V30 999 C 93.6052 -1.03828 1.22786 0
M  V30 1000 O 94.7952 -0.929652 1.4732 0
M  V30 1001 C 91.9272 -1.72317 2.94142 0
M  V30 1002 H 93.1202 0.0841605 2.99782 0
M  V30 1003 H 90.6732 0.0813433 1.56088 0
M  V30 1004 H 91.4082 -2.36653 2.21734 0
M  V30 1005 H 91.1932 -1.35898 3.67796 0
M  V30 1006 H 92.6832 -2.3266 3.46784 0
M  V30 1007 N 93.1203 -1.57491 0.0584922 0
M  V30 1008 C 94.3693 -1.92155 -0.613146 0
M  V30 1009 C 94.6823 -0.939334 -1.71569 0
M  V30 1010 O 95.8883 -1.17829 -2.44599 0
M  V30 1011 C 94.3443 -3.41303 -1.14195 0
M  V30 1012 C 93.9523 -4.47944 -0.0711265 0
M  V30 1013 C 95.6963 -3.84988 -1.78841 0
M  V30 1014 C 93.6033 -5.88212 -0.613225 0
M  V30 1015 H 92.5333 -0.717162 -0.232796 0
M  V30 1016 H 95.1843 -1.83049 0.12857 0
M  V30 1017 H 93.5663 -3.45437 -1.93621 0
M  V30 1018 H 94.7403 -4.55408 0.702836 0
M  V30 1019 H 93.0553 -4.13644 0.478313 0
M  V30 1020 H 95.6523 -4.87159 -2.20408 0
M  V30 1021 H 95.9953 -3.21632 -2.64308 0
M  V30 1022 H 96.5283 -3.83401 -1.06059 0
M  V30 1023 H 93.2673 -6.55183 0.203978 0
M  V30 1024 H 92.7873 -5.84294 -1.35501 0
M  V30 1025 H 94.4663 -6.37687 -1.09383 0
M  V30 1026 N 94.5984 0.214957 -1.56127 0
M  V30 1027 C 96.0094 0.781386 -1.69562 0
M  V30 1028 C 96.3604 1.84707 -0.66165 0
M  V30 1029 O 95.4854 2.156 0.185927 0
M  V30 1030 C 96.0804 1.42411 -3.07416 0
M  V30 1031 C 94.6394 1.93786 -3.22683 0
M  V30 1032 C 93.7864 0.800438 -2.65496 0
M  V30 1033 H 96.7374 -0.00980633 -1.58697 0
M  V30 1034 H 96.7584 2.29309 -3.0364 0
M  V30 1035 H 96.2704 0.64826 -3.82648 0
M  V30 1036 H 94.3714 2.74152 -2.52332 0
M  V30 1037 H 94.4844 2.1133 -4.29973 0
M  V30 1038 H 92.8484 1.2095 -2.2415 0
M  V30 1039 H 93.6314 0.0371471 -3.4328 0
M  V30 1040 N 96.0765 1.50051 0.48192 0
M  V30 1041 C 97.3165 1.62128 1.24474 0
M  V30 1042 C 97.6805 0.309742 1.89485 0
M  V30 1043 O 98.8815 0.305854 2.67054 0
M  V30 1044 C 97.1525 2.76151 2.26882 0
M  V30 1045 S 98.7115 3.08297 3.12247 0
M  V30 1046 H 95.5295 0.571661 0.422759 0
M  V30 1047 H 98.1315 1.87791 0.54359 0
M  V30 1048 H 96.8355 3.69942 1.77683 0
M  V30 1049 H 96.3665 2.52541 3.0164 0
M  V30 1050 H 98.3815 2.51287 4.27866 0
M  V30 1051 N 97.5546 -0.734337 1.39446 0
M  V30 1052 C 98.8006 -1.49613 1.36908 0
M  V30 1053 C 99.1336 -1.94169 -0.0347829 0
M  V30 1054 O 98.4086 -1.66833 -0.999847 0
M  V30 1055 C 98.6916 -2.73534 2.34203 0
M  V30 1056 C 98.5446 -2.34993 3.83534 0
M  V30 1057 C 99.8636 -3.75635 2.29317 0
M  V30 1058 H 96.9826 -0.542714 0.498629 0
M  V30 1059 H 99.6246 -0.839597 1.70443 0
M  V30 1060 H 97.7746 -3.29553 2.05736 0
M  V30 1061 H 99.4466 -1.84601 4.22753 0
M  V30 1062 H 97.6896 -1.67213 4.00278 0
M  V30 1063 H 98.3606 -3.23738 4.47099 0
M  V30 1064 H 100.837 -3.29203 2.54489 0
M  V30 1065 H 99.7126 -4.60008 2.99472 0
M  V30 1066 H 99.9736 -4.22603 1.29842 0
M  V30 1067 N 99.0327 -1.24633 -0.964593 0
M  V30 1068 C 100.279 -1.08949 -1.71049 0
M  V30 1069 C 100.612 0.370302 -1.90637 0
M  V30 1070 O 99.8867 1.27349 -1.47011 0
M  V30 1071 C 100.17 -1.83329 -3.0994 0
M  V30 1072 C 100.023 -3.37077 -2.97824 0
M  V30 1073 C 101.342 -1.60846 -4.09654 0
M  V30 1074 H 98.4607 -0.397178 -0.620821 0
M  V30 1075 H 101.103 -1.5334 -1.12191 0
M  V30 1076 H 99.2527 -1.45597 -3.60186 0
M  V30 1077 H 100.925 -3.84425 -2.5498 0
M  V30 1078 H 99.1677 -3.65298 -2.33965 0
M  V30 1079 H 99.8387 -3.84324 -3.96231 0
M  V30 1080 H 102.315 -1.93674 -3.68279 0
M  V30 1081 H 101.191 -2.1534 -5.04896 0
M  V30 1082 H 101.452 -0.547434 -4.38698 0
M  V30 1083 N 100.511 1.16574 -1.06058 0
M  V30 1084 C 101.759 1.86677 -0.77434 0
M  V30 1085 C 102.08 1.81959 0.701147 0
M  V30 1086 O 101.35 1.2515 1.50713 0
M  V30 1087 H 99.9298 0.691134 -0.283449 0
M  V30 1088 H 102.592 1.41378 -1.34158 0
M  V30 1089 H 101.688 2.92181 -1.09711 0
M  V30 1090 N 101.989 0.842826 1.3317 0
M  V30 1091 C 103.266 0.362216 1.92217 0
M  V30 1092 C 103.646 -1.15289 1.76838 0
M  V30 1093 O 102.994 -1.96914 1.15919 0
M  V30 1094 C 103.204 0.813495 3.39387 0
M  V30 1095 C 104.552 0.823804 4.16532 0
M  V30 1096 O 105.576 0.757358 3.48055 0
M  V30 1097 O 104.435 0.915193 5.38782 0
M  V30 1098 H 101.529 0.103317 0.820521 0
M  V30 1099 H 104.075 0.928942 1.42017 0
M  V30 1100 H 102.847 1.85624 3.4447 0
M  V30 1101 H 102.47 0.223561 3.96971 0
M  V30 1102 N 103.467 -1.45747 0.599634 0
M  V30 1103 C 104.377 -2.34262 -0.125888 0
M  V30 1104 C 105.393 -1.50768 -0.868625 0
M  V30 1105 O 106.569 -1.83592 -0.828003 0
M  V30 1106 C 103.634 -3.28252 -1.11587 0
M  V30 1107 C 102.695 -4.27651 -0.375956 0
M  V30 1108 C 101.928 -5.1715 -1.31877 0
M  V30 1109 O 102.151 -5.09916 -2.55621 0
M  V30 1110 O 101.085 -5.96286 -0.820157 0
M  V30 1111 H 104.911 -2.97688 0.601315 0
M  V30 1112 H 102.496 -1.44999 0.359934 0
M  V30 1113 H 104.378 -3.86191 -1.68626 0
M  V30 1114 H 103.053 -2.67401 -1.82424 0
M  V30 1115 H 101.96 -3.7335 0.236698 0
M  V30 1116 H 103.293 -4.91334 0.29177 0
M  V30 1117 N 104.945 -0.338344 -1.53925 0
M  V30 1118 C 105.855 0.529421 -2.28548 0
M  V30 1119 C 106.871 1.11645 -1.3346 0
M  V30 1120 O 108.047 1.13325 -1.66492 0
M  V30 1121 C 105.112 1.66713 -3.03987 0
M  V30 1122 C 104.173 1.11041 -4.14691 0
M  V30 1123 C 103.406 2.19389 -4.86522 0
M  V30 1124 O 103.629 3.40013 -4.57982 0
M  V30 1125 O 102.563 1.83976 -5.73094 0
M  V30 1126 H 106.389 -0.0770399 -3.03602 0
M  V30 1127 H 103.974 -0.103555 -1.49041 0
M  V30 1128 H 105.856 2.32918 -3.5118 0
M  V30 1129 H 104.531 2.25949 -2.31794 0
M  V30 1130 H 103.438 0.413024 -3.71813 0
M  V30 1131 H 104.771 0.562975 -4.8897 0
M  V30 1132 N 106.423 1.57458 -0.0668435 0
M  V30 1133 C 107.669 1.93587 0.6043 0
M  V30 1134 C 108.002 0.946722 1.69561 0
M  V30 1135 O 107.277 -0.0248516 1.94484 0
M  V30 1136 C 107.56 3.40014 1.18585 0
M  V30 1137 C 107.413 4.49685 0.101529 0
M  V30 1138 C 108.732 3.87154 2.09284 0
M  V30 1139 H 105.851 0.703958 0.218202 0
M  V30 1140 H 108.493 1.89542 -0.131804 0
M  V30 1141 H 106.643 3.43592 1.81319 0
M  V30 1142 H 108.315 4.5823 -0.531279 0
M  V30 1143 H 106.558 4.30059 -0.568487 0
M  V30 1144 H 107.229 5.49266 0.54874 0
M  V30 1145 H 109.705 3.85551 1.56491 0
M  V30 1146 H 108.581 4.90231 2.46911 0
M  V30 1147 H 108.842 3.2481 2.99918 0
M  V30 1148 N 107.901 -0.206675 1.56239 0
M  V30 1149 C 109.147 -0.925733 1.81113 0
M  V30 1150 C 109.502 -1.81368 0.642135 0
M  V30 1151 O 108.795 -1.88126 -0.363211 0
M  V30 1152 C 108.989 -1.78675 3.09532 0
M  V30 1153 C 108.818 -0.98365 4.3881 0
M  V30 1154 C 107.588 -0.672661 5.00803 0
M  V30 1155 C 109.786 -0.341847 5.13163 0
M  V30 1156 N 107.768 0.150283 6.13716 0
M  V30 1157 C 109.139 0.343815 6.19046 0
M  V30 1158 C 111.194 -0.256392 4.97239 0
M  V30 1159 C 109.897 1.10678 7.10734 0
M  V30 1160 C 111.923 0.493142 5.8934 0
M  V30 1161 C 111.285 1.16729 6.94661 0
M  V30 1162 H 107.384 -0.318524 0.714189 0
M  V30 1163 H 109.968 -0.195378 1.93717 0
M  V30 1164 H 108.139 -2.4888 2.98183 0
M  V30 1165 H 109.871 -2.44441 3.22538 0
M  V30 1166 H 106.626 -0.994294 4.63045 0
M  V30 1167 H 107.05 0.551026 6.74754 0
M  V30 1168 H 111.692 -0.763249 4.15854 0
M  V30 1169 H 109.41 1.6251 7.91591 0
M  V30 1170 H 112.996 0.560465 5.79094 0
M  V30 1171 H 111.876 1.738 7.64698 0
M  V30 1172 N 109.379 -1.50304 -0.473955 0
M  V30 1173 C 110.607 -1.64902 -1.24959 0
M  V30 1174 C 111.022 -0.331198 -1.85872 0
M  V30 1175 O 110.379 0.68652 -1.69095 0
M  V30 1176 C 110.43 -2.73803 -2.36038 0
M  V30 1177 O 110.151 -4.00477 -1.77624 0
M  V30 1178 C 111.652 -2.99349 -3.26964 0
M  V30 1179 H 108.872 -0.554383 -0.378022 0
M  V30 1180 H 111.416 -1.9651 -0.566054 0
M  V30 1181 H 109.571 -2.44898 -3.00173 0
M  V30 1182 H 109.985 -4.60678 -2.5075 0
M  V30 1183 H 111.459 -3.79217 -4.01121 0
M  V30 1184 H 111.936 -2.10307 -3.85574 0
M  V30 1185 H 112.542 -3.29774 -2.68569 0
M  V30 1186 N 110.857 0.726932 -1.39834 0
M  V30 1187 C 112.082 1.52121 -1.40976 0
M  V30 1188 C 112.507 1.88098 -0.00826029 0
M  V30 1189 O 111.865 1.52479 0.980807 0
M  V30 1190 C 111.913 2.78021 -2.29644 0
M  V30 1191 O 111.017 3.74272 -1.73188 0
M  V30 1192 H 110.358 0.45908 -0.479731 0
M  V30 1193 H 112.888 0.896207 -1.83927 0
M  V30 1194 H 112.898 3.26671 -2.44438 0
M  V30 1195 H 111.573 2.51169 -3.31492 0
M  V30 1196 H 110.15 3.33073 -1.6768 0
M  V30 1197 N 112.336 1.25143 0.95797 0
M  V30 1198 C 113.613 1.00472 1.67823 0
M  V30 1199 C 113.993 -0.470056 2.058 0
M  V30 1200 O 113.341 -1.44663 1.76875 0
M  V30 1201 C 113.551 1.9372 2.90299 0
M  V30 1202 C 114.899 2.21371 3.62326 0
M  V30 1203 O 115.923 1.91451 3.00375 0
M  V30 1204 O 114.782 2.72231 4.7387 0
M  V30 1205 H 111.876 0.380752 0.734137 0
M  V30 1206 H 114.422 1.36283 1.01119 0
M  V30 1207 H 113.194 2.93316 2.59001 0
M  V30 1208 H 112.817 1.58286 3.64735 0
M  V30 1209 N 113.814 -1.1601 1.06675 0
M  V30 1210 C 115.06 -1.86909 0.786945 0
M  V30 1211 C 115.393 -1.81717 -0.685018 0
M  V30 1212 O 114.668 -1.23551 -1.50218 0
M  V30 1213 C 114.951 -3.36313 1.28707 0
M  V30 1214 C 114.804 -3.50175 2.82308 0
M  V30 1215 C 116.123 -4.3084 0.898071 0
M  V30 1216 H 113.242 -0.678677 0.287343 0
M  V30 1217 H 115.884 -1.36336 1.32334 0
M  V30 1218 H 114.034 -3.79513 0.830768 0
M  V30 1219 H 115.706 -3.15886 3.36175 0
M  V30 1220 H 113.949 -2.91959 3.20847 0
M  V30 1221 H 114.62 -4.55116 3.12368 0
M  V30 1222 H 117.096 -3.95561 1.29114 0
M  V30 1223 H 115.972 -5.33876 1.27543 0
M  V30 1224 H 116.233 -4.41662 -0.196651 0
M  V30 1225 N 115.292 -0.849877 -1.32721 0
M  V30 1226 C 116.224 -0.248332 -2.27851 0
M  V30 1227 C 117.237 0.577218 -1.52224 0
M  V30 1228 O 118.426 0.402489 -1.73903 0
M  V30 1229 C 115.526 0.668107 -3.32249 0
M  V30 1230 C 114.699 -0.120534 -4.37234 0
M  V30 1231 C 113.758 0.720932 -5.21238 0
M  V30 1232 O 112.784 0.156166 -5.68986 0
M  V30 1233 N 113.986 2.03647 -5.43607 0
M  V30 1234 H 116.751 -1.06575 -2.80111 0
M  V30 1235 H 114.312 -0.709395 -1.45531 0
M  V30 1236 H 116.304 1.23627 -3.85355 0
M  V30 1237 H 114.874 1.38621 -2.80184 0
M  V30 1238 H 114.094 -0.870108 -3.84477 0
M  V30 1239 H 115.382 -0.662406 -5.0447 0
M  V30 1240 H 114.78 2.51871 -5.06535 0
M  V30 1241 H 113.337 2.55287 -5.99727 0
M  V30 1242 N 116.77 1.45427 -0.607355 0
M  V30 1243 C 118 2.06314 -0.108656 0
M  V30 1244 C 118.408 1.45269 1.21217 0
M  V30 1245 O 117.751 0.561115 1.74921 0
M  V30 1246 C 117.813 3.59345 0.105618 0
M  V30 1247 C 117.477 4.42723 -1.13337 0
M  V30 1248 C 118.474 4.77715 -2.05145 0
M  V30 1249 C 116.159 4.83478 -1.36213 0
M  V30 1250 C 118.153 5.52317 -3.18158 0
M  V30 1251 C 115.84 5.57835 -2.49527 0
M  V30 1252 C 116.838 5.92171 -3.40327 0
M  V30 1253 O 116.526 6.65019 -4.51669 0
M  V30 1254 H 116.258 0.672782 -0.0658842 0
M  V30 1255 H 118.812 1.87664 -0.834945 0
M  V30 1256 H 117.042 3.76394 0.886796 0
M  V30 1257 H 118.731 4.02076 0.555886 0
M  V30 1258 H 119.497 4.46787 -1.88697 0
M  V30 1259 H 115.376 4.56188 -0.664362 0
M  V30 1260 H 118.92 5.79036 -3.89054 0
M  V30 1261 H 114.817 5.88177 -2.65928 0
M  V30 1262 H 115.585 6.83469 -4.50348 0
M  V30 1263 N 118.248 0.346503 1.53744 0
M  V30 1264 C 119.18 -0.543316 2.22667 0
M  V30 1265 C 120.193 -1.06159 1.23427 0
M  V30 1266 O 121.382 -0.971235 1.49764 0
M  V30 1267 C 118.482 -1.76076 2.89569 0
M  V30 1268 C 117.655 -1.37727 4.15151 0
M  V30 1269 C 116.714 -2.45471 4.65436 0
M  V30 1270 O 115.74 -2.08655 5.29577 0
M  V30 1271 N 116.942 -3.7677 4.41616 0
M  V30 1272 H 119.707 0.0469703 2.99663 0
M  V30 1273 H 117.268 0.170766 1.60997 0
M  V30 1274 H 119.26 -2.47593 3.20125 0
M  V30 1275 H 117.83 -2.25835 2.16142 0
M  V30 1276 H 117.05 -0.492746 3.91108 0
M  V30 1277 H 118.338 -1.09708 4.96832 0
M  V30 1278 H 117.736 -4.09467 3.90325 0
M  V30 1279 H 116.293 -4.44448 4.7677 0
M  V30 1280 N 119.726 -1.57421 0.075193 0
M  V30 1281 C 120.972 -1.93905 -0.594025 0
M  V30 1282 C 121.305 -0.955701 -1.69056 0
M  V30 1283 O 120.58 0.0145373 -1.94495 0
M  V30 1284 C 120.863 -3.40638 -1.1678 0
M  V30 1285 C 120.716 -4.49733 -0.0776792 0
M  V30 1286 C 122.035 -3.88259 -2.07228 0
M  V30 1287 H 119.154 -0.705105 -0.214466 0
M  V30 1288 H 121.796 -1.8947 0.141854 0
M  V30 1289 H 119.946 -3.44549 -1.79494 0
M  V30 1290 H 121.618 -4.57942 0.555573 0
M  V30 1291 H 119.861 -4.29751 0.591286 0
M  V30 1292 H 120.532 -5.49549 -0.519603 0
M  V30 1293 H 123.008 -3.86376 -1.54445 0
M  V30 1294 H 121.884 -4.91533 -2.44308 0
M  V30 1295 H 122.145 -3.26396 -2.98191 0
M  V30 1296 N 121.204 0.198386 -1.56346 0
M  V30 1297 C 122.429 0.939682 -1.84891 0
M  V30 1298 C 122.854 1.76202 -0.658369 0
M  V30 1299 O 122.212 1.76993 0.392851 0
M  V30 1300 C 122.26 1.81428 -3.11635 0
M  V30 1301 O 121.364 2.91265 -2.91956 0
M  V30 1302 H 120.705 0.264807 -0.608912 0
M  V30 1303 H 123.235 0.204695 -2.03573 0
M  V30 1304 H 123.245 2.21958 -3.42343 0
M  V30 1305 H 121.92 1.21004 -3.97908 0
M  V30 1306 H 120.497 2.54514 -2.72538 0
M  V30 1307 N 122.682 1.50554 0.465978 0
M  V30 1308 C 124.093 1.54599 1.04671 0
M  V30 1309 C 124.444 0.352488 1.93008 0
M  V30 1310 O 123.569 -0.534044 2.09707 0
M  V30 1311 C 124.164 2.80166 1.90505 0
M  V30 1312 C 122.723 2.86876 2.43678 0
M  V30 1313 C 121.87 2.48947 1.22151 0
M  V30 1314 H 124.821 1.56744 0.248384 0
M  V30 1315 H 124.842 2.62311 2.75633 0
M  V30 1316 H 124.354 3.67013 1.26186 0
M  V30 1317 H 122.455 2.04393 3.11536 0
M  V30 1318 H 122.568 3.89885 2.78436 0
M  V30 1319 H 120.932 2.01498 1.5579 0
M  V30 1320 H 121.715 3.38107 0.594866 0
M  V30 1321 N 124.16 -0.719506 1.40217 0
M  V30 1322 C 125.407 -1.47933 1.38283 0
M  V30 1323 C 125.735 -1.94493 -0.0161536 0
M  V30 1324 O 124.99 -1.68224 -0.999956 0
M  V30 1325 C 125.289 -2.72271 2.31524 0
M  V30 1326 C 124.955 -2.44496 3.78857 0
M  V30 1327 C 123.617 -2.36631 4.18998 0
M  V30 1328 C 125.969 -2.21104 4.71977 0
M  V30 1329 C 123.297 -2.03437 5.503 0
M  V30 1330 C 125.649 -1.89423 6.03574 0
M  V30 1331 C 124.313 -1.80038 6.42762 0
M  V30 1332 H 123.583 -0.541325 0.506012 0
M  V30 1333 H 126.23 -0.824502 1.72842 0
M  V30 1334 H 124.535 -3.42572 1.90137 0
M  V30 1335 H 126.232 -3.30348 2.27313 0
M  V30 1336 H 122.822 -2.51503 3.47051 0
M  V30 1337 H 127.006 -2.26139 4.41786 0
M  V30 1338 H 122.262 -1.94705 5.79569 0
M  V30 1339 H 126.436 -1.70336 6.75247 0
M  V30 1340 H 124.063 -1.54083 7.44421 0
M  V30 1341 N 125.638 -1.25649 -0.95132 0
M  V30 1342 C 126.586 -1.06118 -2.06982 0
M  V30 1343 C 127.58 0.00889169 -1.69398 0
M  V30 1344 O 128.786 -0.146988 -1.79399 0
M  V30 1345 H 125.161 -0.326248 -0.677544 0
M  V30 1346 H 127.132 -2.00932 -2.2061 0
M  V30 1347 C 125.881 -0.700145 -3.40578 0
M  V30 1348 H 125.204 -1.51537 -3.69968 0
M  V30 1349 H 126.644 -0.603211 -4.19687 0
M  V30 1350 C 125.103 0.59403 -3.31622 0
M  V30 1351 O 125.633 1.63522 -3.66911 0
M  V30 1352 N 123.839 0.58089 -2.84735 0
M  V30 1353 H 123.386 -0.266783 -2.56215 0
M  V30 1354 H 123.344 1.44695 -2.79125 0
M  V30 1355 N 127.117 1.15442 -1.07289 0
M  V30 1356 C 128.067 2.18164 -0.662467 0
M  V30 1357 C 129.051 1.57845 0.312074 0
M  V30 1358 O 130.243 1.76552 0.125905 0
M  V30 1359 C 127.372 3.43246 -0.0611295 0
M  V30 1360 C 126.458 4.1062 -1.06077 0
M  V30 1361 N 126.849 4.53491 -2.24008 0
M  V30 1362 C 125.147 4.36949 -0.893964 0
M  V30 1363 C 125.848 5.05731 -2.87422 0
M  V30 1364 N 124.824 4.99236 -2.15091 0
M  V30 1365 H 128.626 2.49038 -1.56068 0
M  V30 1366 H 126.14 1.32003 -0.945988 0
M  V30 1367 H 128.137 4.16145 0.250792 0
M  V30 1368 H 126.797 3.13854 0.832207 0
M  V30 1369 H 127.808 4.46898 -2.6173 0
M  V30 1370 H 124.485 4.17466 -0.0534693 0
M  V30 1371 H 125.875 5.48865 -3.87553 0
M  V30 1372 N 128.595 0.856903 1.32268 0
M  V30 1373 C 129.843 0.460474 1.96784 0
M  V30 1374 C 130.164 -0.987701 1.68135 0
M  V30 1375 O 129.434 -1.69058 0.989765 0
M  V30 1376 H 128.014 0.167289 0.728027 0
M  V30 1377 H 130.676 1.09383 1.61312 0
M  V30 1378 H 129.772 0.60739 3.06133 0
M  V30 1379 N 130.073 -1.45103 0.615059 0
M  V30 1380 C 131.023 -2.27679 -0.120966 0
M  V30 1381 C 132.007 -1.3775 -0.831491 0
M  V30 1382 O 133.199 -1.61683 -0.720249 0
M  V30 1383 C 130.328 -3.24767 -1.1127 0
M  V30 1384 C 129.414 -4.22184 -0.402627 0
M  V30 1385 N 129.805 -5.02692 0.559884 0
M  V30 1386 C 128.103 -4.4125 -0.649202 0
M  V30 1387 C 128.804 -5.73421 0.977942 0
M  V30 1388 N 127.78 -5.42657 0.320104 0
M  V30 1389 H 131.582 -2.87325 0.618181 0
M  V30 1390 H 129.096 -1.56345 0.439304 0
M  V30 1391 H 131.093 -3.82666 -1.65446 0
M  V30 1392 H 129.753 -2.66682 -1.85232 0
M  V30 1393 H 130.764 -5.09354 0.936976 0
M  V30 1394 H 127.441 -3.9428 -1.37293 0
M  V30 1395 H 128.831 -6.48107 1.77222 0
M  V30 1396 N 131.551 -0.354651 -1.53558 0
M  V30 1397 C 132.498 0.496968 -2.25386 0
M  V30 1398 C 133.468 1.0865 -1.25636 0
M  V30 1399 O 134.653 1.12104 -1.54394 0
M  V30 1400 C 131.793 1.63637 -3.03837 0
M  V30 1401 C 130.906 1.07307 -4.18461 0
M  V30 1402 C 130.041 2.18068 -4.84376 0
M  V30 1403 C 129.08 1.59147 -5.91049 0
M  V30 1404 N 128.217 2.63695 -6.50699 0
M  V30 1405 H 133.057 -0.122075 -2.9775 0
M  V30 1406 H 130.594 -0.0720154 -1.46924 0
M  V30 1407 H 132.552 2.30734 -3.47589 0
M  V30 1408 H 131.182 2.22623 -2.33749 0
M  V30 1409 H 130.234 0.292708 -3.79272 0
M  V30 1410 H 131.546 0.602193 -4.95152 0
M  V30 1411 H 130.7 2.93007 -5.31255 0
M  V30 1412 H 129.439 2.68504 -4.07133 0
M  V30 1413 H 128.444 0.827175 -5.43542 0
M  V30 1414 H 129.669 1.09549 -6.70206 0
M  V30 1415 H 127.615 3.13365 -5.76315 0
M  V30 1416 H 127.532 2.21263 -7.22896 0
M  V30 1417 H 128.8 3.3837 -7.02229 0
M  V30 1418 N 133.029 1.57378 -0.0835403 0
M  V30 1419 C 134.275 1.94217 0.583733 0
M  V30 1420 C 134.608 0.964653 1.68547 0
M  V30 1421 O 133.883 -0.00422258 1.945 0
M  V30 1422 C 134.166 3.41253 1.14972 0
M  V30 1423 C 134.019 4.49768 0.0538277 0
M  V30 1424 C 135.338 3.89352 2.05166 0
M  V30 1425 H 132.457 0.706233 0.210724 0
M  V30 1426 H 135.099 1.89392 -0.1519 0
M  V30 1427 H 133.249 3.45496 1.77665 0
M  V30 1428 H 134.921 4.57641 -0.579851 0
M  V30 1429 H 133.164 4.29432 -0.614068 0
M  V30 1430 H 133.835 5.49817 0.490452 0
M  V30 1431 H 136.311 3.87189 1.52393 0
M  V30 1432 H 135.187 4.92822 2.41698 0
M  V30 1433 H 135.448 3.27973 2.96456 0
M  V30 1434 N 134.507 -0.190092 1.56449 0
M  V30 1435 C 135.47 -1.21925 1.9408 0
M  V30 1436 C 136.47 -1.38176 0.822431 0
M  V30 1437 O 137.66 -1.35903 1.08977 0
M  V30 1438 C 134.792 -2.58773 2.21922 0
M  V30 1439 H 135.985 -0.897464 2.86157 0
M  V30 1440 H 133.538 -0.43181 1.50217 0
M  V30 1441 H 134.273 -2.95998 1.32499 0
M  V30 1442 H 134.058 -2.48348 3.03424 0
M  V30 1443 H 135.548 -3.32978 2.52022 0
M  V30 1444 N 135.985 -1.50799 -0.457987 0
M  V30 1445 C 136.932 -1.70617 -1.5543 0
M  V30 1446 C 137.902 -0.547562 -1.56815 0
M  V30 1447 O 139.087 -0.779647 -1.74144 0
M  V30 1448 C 136.227 -1.81831 -2.93311 0
M  V30 1449 C 135.34 -3.09278 -3.01615 0
M  V30 1450 C 134.475 -3.11209 -4.30491 0
M  V30 1451 C 133.514 -4.33055 -4.32585 0
M  V30 1452 N 132.651 -4.32652 -5.52952 0
M  V30 1453 H 137.491 -2.64207 -1.37836 0
M  V30 1454 H 135.028 -1.30959 -0.669937 0
M  V30 1455 H 136.986 -1.86314 -3.73287 0
M  V30 1456 H 135.616 -0.916685 -3.0951 0
M  V30 1457 H 134.668 -3.14203 -2.1443 0
M  V30 1458 H 135.98 -3.99233 -2.99022 0
M  V30 1459 H 135.134 -3.14494 -5.18824 0
M  V30 1460 H 133.873 -2.19106 -4.35711 0
M  V30 1461 H 132.878 -4.29969 -3.42647 0
M  V30 1462 H 134.103 -5.264 -4.29046 0
M  V30 1463 H 132.049 -3.43409 -5.58933 0
M  V30 1464 H 131.966 -5.16392 -5.52155 0
M  V30 1465 H 133.234 -4.40101 -6.43375 0
M  V30 1466 N 137.463 0.71206 -1.40597 0
M  V30 1467 C 138.71 1.47197 -1.39065 0
M  V30 1468 C 139.038 1.94499 0.00583891 0
M  V30 1469 O 138.293 1.68752 0.99102 0
M  V30 1470 C 138.592 2.71039 -2.32965 0
M  V30 1471 C 138.258 2.42484 -3.80148 0
M  V30 1472 C 136.92 2.34406 -4.20247 0
M  V30 1473 C 139.272 2.18598 -4.73143 0
M  V30 1474 C 136.6 2.00516 -5.51371 0
M  V30 1475 C 138.952 1.8622 -6.0457 0
M  V30 1476 C 137.616 1.76626 -6.43708 0
M  V30 1477 H 136.886 0.538634 -0.508876 0
M  V30 1478 H 139.533 0.815325 -1.73276 0
M  V30 1479 H 137.838 3.41558 -1.91951 0
M  V30 1480 H 139.535 3.29138 -2.29061 0
M  V30 1481 H 136.125 2.49659 -3.4838 0
M  V30 1482 H 140.309 2.23793 -4.42979 0
M  V30 1483 H 135.565 1.91628 -5.80593 0
M  V30 1484 H 139.739 1.66752 -6.76141 0
M  V30 1485 H 137.366 1.50133 -7.45228 0
M  V30 1486 N 138.941 1.26152 0.944643 0
M  V30 1487 C 140.181 1.12708 1.70517 0
M  V30 1488 C 140.545 -0.324727 1.89234 0
M  V30 1489 O 141.746 -0.581211 2.62441 0
M  V30 1490 C 140.017 1.8713 3.04495 0
M  V30 1491 S 141.576 1.89698 3.95677 0
M  V30 1492 H 138.394 0.402665 0.585988 0
M  V30 1493 H 140.996 1.59821 1.12594 0
M  V30 1494 H 139.7 2.91833 2.88551 0
M  V30 1495 H 139.231 1.40444 3.67477 0
M  V30 1496 H 141.246 0.981198 4.86402 0
M  V30 1497 N 140.419 -1.14872 1.07899 0
M  V30 1498 C 141.649 -1.89386 0.825631 0
M  V30 1499 C 142.057 -1.78565 -0.625406 0
M  V30 1500 O 141.4 -1.13918 -1.44113 0
M  V30 1501 C 141.462 -3.40206 1.16191 0
M  V30 1502 C 141.126 -3.74812 2.61467 0
M  V30 1503 C 142.123 -3.75367 3.59716 0
M  V30 1504 C 139.808 -4.0495 2.97189 0
M  V30 1505 C 141.802 -4.05574 4.9172 0
M  V30 1506 C 139.489 -4.34821 4.29388 0
M  V30 1507 C 140.487 -4.35116 5.26463 0
M  V30 1508 O 140.175 -4.64267 6.56286 0
M  V30 1509 H 139.907 -0.606894 0.297751 0
M  V30 1510 H 142.461 -1.46438 1.44031 0
M  V30 1511 H 140.691 -3.8358 0.490214 0
M  V30 1512 H 142.38 -3.96018 0.890193 0
M  V30 1513 H 143.146 -3.52176 3.33462 0
M  V30 1514 H 139.025 -4.03876 2.22273 0
M  V30 1515 H 142.569 -4.05719 5.67484 0
M  V30 1516 H 138.466 -4.5748 4.55392 0
M  V30 1517 H 139.234 -4.82007 6.61522 0
M  V30 1518 N 141.898 -0.863906 -1.31812 0
M  V30 1519 C 142.861 -0.320212 -2.26952 0
M  V30 1520 C 143.861 0.525369 -1.51975 0
M  V30 1521 O 145.051 0.335547 -1.70938 0
M  V30 1522 C 142.183 0.545919 -3.365 0
M  V30 1523 H 143.376 -1.16004 -2.76556 0
M  V30 1524 H 140.929 -0.638995 -1.42641 0
M  V30 1525 H 141.664 1.40718 -2.92179 0
M  V30 1526 H 141.449 -0.0594674 -3.92055 0
M  V30 1527 H 142.939 0.918796 -4.07367 0
M  V30 1528 N 143.376 1.44774 -0.622745 0
M  V30 1529 C 144.653 1.95522 -0.0551974 0
M  V30 1530 C 145.033 1.5649 1.41683 0
M  V30 1531 O 144.381 0.834848 2.12703 0
M  V30 1532 C 144.591 3.4796 -0.269242 0
M  V30 1533 C 145.939 4.24306 -0.158014 0
M  V30 1534 O 146.963 3.55637 -0.200162 0
M  V30 1535 O 145.822 5.46471 -0.0558693 0
M  V30 1536 H 142.916 0.826556 0.0271015 0
M  V30 1537 H 145.462 1.54866 -0.693864 0
M  V30 1538 H 144.234 3.6939 -1.29099 0
M  V30 1539 H 143.857 3.95543 0.403966 0
M  V30 1540 N 144.854 0.36279 1.53368 0
M  V30 1541 C 145.801 -0.485008 2.25646 0
M  V30 1542 C 146.771 -1.07982 1.2621 0
M  V30 1543 O 147.956 -1.11284 1.54986 0
M  V30 1544 C 145.096 -1.62023 3.04701 0
M  V30 1545 C 144.209 -1.05086 4.19024 0
M  V30 1546 C 143.344 -2.15496 4.85525 0
M  V30 1547 C 142.383 -1.5601 5.91884 0
M  V30 1548 N 141.52 -2.60241 6.52088 0
M  V30 1549 H 146.36 0.137864 2.97681 0
M  V30 1550 H 143.897 0.0798061 1.46883 0
M  V30 1551 H 145.855 -2.28887 3.48807 0
M  V30 1552 H 144.485 -2.2138 2.34927 0
M  V30 1553 H 143.537 -0.27259 3.79422 0
M  V30 1554 H 144.849 -0.575926 4.95464 0
M  V30 1555 H 144.003 -2.90186 5.32801 0
M  V30 1556 H 142.742 -2.66341 4.08551 0
M  V30 1557 H 141.747 -0.798338 5.43973 0
M  V30 1558 H 142.972 -1.05994 6.70777 0
M  V30 1559 H 140.918 -3.10304 5.77968 0
M  V30 1560 H 140.835 -2.17426 7.24059 0
M  V30 1561 H 142.103 -3.34641 7.04014 0
M  V30 1562 N 146.332 -1.57332 0.0918853 0
M  V30 1563 C 147.557 -1.98995 -0.584442 0
M  V30 1564 C 147.982 -0.970528 -1.61128 0
M  V30 1565 O 147.34 0.0613904 -1.81196 0
M  V30 1566 C 147.388 -3.39636 -1.21161 0
M  V30 1567 O 146.492 -3.40447 -2.32744 0
M  V30 1568 H 145.833 -0.647165 -0.148572 0
M  V30 1569 H 148.363 -2.03873 0.172347 0
M  V30 1570 H 148.373 -3.7726 -1.55367 0
M  V30 1571 H 147.048 -4.13356 -0.459313 0
M  V30 1572 H 145.625 -3.14614 -2.0018 0
M  V30 1573 N 147.81 0.181792 -1.56548 0
M  V30 1574 C 148.74 1.22765 -1.98623 0
M  V30 1575 C 149.721 1.46747 -0.860189 0
M  V30 1576 O 150.906 1.58259 -1.12551 0
M  V30 1577 C 148.036 2.56894 -2.33715 0
M  V30 1578 C 146.99 2.475 -3.49182 0
M  V30 1579 C 146.316 3.86023 -3.69986 0
M  V30 1580 C 147.616 1.98866 -4.82959 0
M  V30 1581 H 149.31 0.877942 -2.86239 0
M  V30 1582 H 146.856 0.42088 -1.37712 0
M  V30 1583 H 148.809 3.30253 -2.61746 0
M  V30 1584 H 147.533 2.93632 -1.42997 0
M  V30 1585 H 146.192 1.76596 -3.21262 0
M  V30 1586 H 145.84 4.20136 -2.76576 0
M  V30 1587 H 145.54 3.80609 -4.47672 0
M  V30 1588 H 147.064 4.60984 -4.00407 0
M  V30 1589 H 148.478 2.61992 -5.09934 0
M  V30 1590 H 146.875 2.04424 -5.64208 0
M  V30 1591 H 147.945 0.942465 -4.75653 0
M  V30 1592 N 149.288 1.51039 0.449983 0
M  V30 1593 C 150.218 1.74379 1.55288 0
M  V30 1594 C 151.199 0.593236 1.5942 0
M  V30 1595 O 152.384 0.834625 1.7535 0
M  V30 1596 C 149.514 1.85728 2.93466 0
M  V30 1597 C 148.468 3.01078 3.04197 0
M  V30 1598 C 147.794 2.97595 4.44231 0
M  V30 1599 C 149.094 4.41254 2.7945 0
M  V30 1600 H 150.788 2.66725 1.36008 0
M  V30 1601 H 148.334 1.2835 0.652864 0
M  V30 1602 H 150.287 2.0064 3.70569 0
M  V30 1603 H 149.011 0.900207 3.13949 0
M  V30 1604 H 147.67 2.85851 2.29531 0
M  V30 1605 H 147.318 1.99691 4.61663 0
M  V30 1606 H 147.018 3.75046 4.52343 0
M  V30 1607 H 148.542 3.14583 5.23326 0
M  V30 1608 H 149.956 4.56897 3.46292 0
M  V30 1609 H 148.353 5.20315 2.98985 0
M  V30 1610 H 149.423 4.52164 1.75144 0
M  V30 1611 N 150.766 -0.704594 1.40972 0
M  V30 1612 C 151.714 -1.83994 1.42299 0
M  V30 1613 C 152.708 -1.66684 0.302111 0
M  V30 1614 O 153.914 -1.73655 0.473697 0
M  V30 1615 H 150.289 -0.606171 0.44504 0
M  V30 1616 H 152.26 -1.79992 2.38003 0
M  V30 1617 C 151.009 -3.21946 1.31323 0
M  V30 1618 H 150.332 -3.35878 2.16855 0
M  V30 1619 H 151.772 -4.01491 1.36311 0
M  V30 1620 C 150.231 -3.36891 0.0245977 0
M  V30 1621 O 150.761 -3.90687 -0.934153 0
M  V30 1622 N 148.967 -2.90559 -0.0485243 0
M  V30 1623 H 148.514 -2.46968 0.732419 0
M  V30 1624 H 148.472 -3.00937 -0.910171 0
M  V30 1625 N 152.244 -1.26651 -0.937939 0
M  V30 1626 C 153.191 -1.0849 -2.03712 0
M  V30 1627 C 154.161 0.011033 -1.66096 0
M  V30 1628 O 155.346 -0.149353 -1.90215 0
M  V30 1629 C 152.486 -0.72735 -3.37348 0
M  V30 1630 C 151.599 -1.89986 -3.87981 0
M  V30 1631 C 150.734 -1.48513 -5.10017 0
M  V30 1632 C 149.773 -2.62575 -5.5292 0
M  V30 1633 N 148.91 -2.21762 -6.66158 0
M  V30 1634 H 153.75 -2.02551 -2.18579 0
M  V30 1635 H 151.287 -1.00844 -1.07093 0
M  V30 1636 H 153.245 -0.50092 -4.14182 0
M  V30 1637 H 151.875 0.176298 -3.22318 0
M  V30 1638 H 150.927 -2.23913 -3.07518 0
M  V30 1639 H 152.239 -2.75586 -4.15757 0
M  V30 1640 H 151.393 -1.21934 -5.94321 0
M  V30 1641 H 150.132 -0.60009 -4.83994 0
M  V30 1642 H 149.137 -2.8988 -4.67172 0
M  V30 1643 H 150.362 -3.51685 -5.80943 0
M  V30 1644 H 148.308 -1.35696 -6.41812 0
M  V30 1645 H 148.225 -3.00903 -6.93537 0
M  V30 1646 H 149.493 -1.98403 -7.53828 0
M  V30 1647 N 153.722 1.14298 -1.08507 0
M  V30 1648 C 154.685 2.17607 -0.719711 0
M  V30 1649 C 155.685 1.58907 0.245997 0
M  V30 1650 O 156.875 1.74181 0.0254081 0
M  V30 1651 C 154.007 3.40842 -0.0627695 0
M  V30 1652 H 155.2 2.51443 -1.63452 0
M  V30 1653 H 152.753 1.28963 -0.88307 0
M  V30 1654 H 153.488 3.12587 0.863716 0
M  V30 1655 H 153.273 3.84713 -0.757504 0
M  V30 1656 H 154.763 4.17221 0.177786 0
M  V30 1657 N 155.201 0.870884 1.31352 0
M  V30 1658 C 156.45 0.478408 1.95944 0
M  V30 1659 C 156.763 -0.974493 1.69597 0
M  V30 1660 O 157.969 -1.47316 2.28058 0
M  V30 1661 C 156.425 0.804609 3.50791 0
M  V30 1662 C 156.033 2.27433 3.85977 0
M  V30 1663 C 157.777 0.480648 4.2177 0
M  V30 1664 C 155.684 2.5429 5.33939 0
M  V30 1665 H 154.614 0.175175 0.733369 0
M  V30 1666 H 157.265 1.06391 1.4951 0
M  V30 1667 H 155.647 0.148347 3.95722 0
M  V30 1668 H 156.821 2.97373 3.52002 0
M  V30 1669 H 155.136 2.56442 3.28065 0
M  V30 1670 H 157.733 0.658519 5.30629 0
M  V30 1671 H 158.076 -0.578979 4.12254 0
M  V30 1672 H 158.609 1.09349 3.82476 0
M  V30 1673 H 155.348 3.58939 5.48491 0
M  V30 1674 H 154.868 1.88945 5.69263 0
M  V30 1675 H 156.547 2.39066 6.01212 0
M  V30 1676 N 156.679 -1.44442 0.630414 0
M  V30 1677 C 157.589 -2.34476 -0.0761693 0
M  V30 1678 C 158.605 -1.52576 -0.836449 0
M  V30 1679 O 159.781 -1.85307 -0.788874 0
M  V30 1680 C 156.846 -3.30545 -1.04599 0
M  V30 1681 C 155.907 -4.28352 -0.28516 0
M  V30 1682 C 155.14 -5.19831 -1.20878 0
M  V30 1683 O 155.363 -5.15223 -2.44747 0
M  V30 1684 O 154.297 -5.97892 -0.693491 0
M  V30 1685 H 158.123 -2.96345 0.664324 0
M  V30 1686 H 155.708 -1.44203 0.39061 0
M  V30 1687 H 157.59 -3.89681 -1.60396 0
M  V30 1688 H 156.265 -2.7121 -1.76711 0
M  V30 1689 H 155.172 -3.72764 0.315837 0
M  V30 1690 H 156.505 -4.90605 0.395924 0
M  V30 1691 N 158.157 -0.370918 -1.53173 0
M  V30 1692 C 159.12 0.460778 -2.24521 0
M  V30 1693 C 160.12 1.00536 -1.25496 0
M  V30 1694 O 161.31 0.890266 -1.49733 0
M  V30 1695 C 158.442 1.64457 -2.98608 0
M  V30 1696 H 159.635 -0.163613 -2.99453 0
M  V30 1697 H 157.188 -0.122699 -1.55818 0
M  V30 1698 H 157.923 2.30691 -2.2793 0
M  V30 1699 H 157.708 1.26099 -3.7127 0
M  V30 1700 H 159.198 2.23384 -3.5283 0
M  V30 1701 N 159.635 1.57281 -0.100228 0
M  V30 1702 C 160.598 2.13158 0.842398 0
M  V30 1703 C 161.598 1.06202 1.20738 0
M  V30 1704 O 162.788 1.32066 1.13597 0
M  V30 1705 C 159.92 2.65639 2.13655 0
M  V30 1706 H 161.113 2.97766 0.357114 0
M  V30 1707 H 158.666 1.5559 0.148823 0
M  V30 1708 H 159.401 1.84566 2.66657 0
M  V30 1709 H 159.186 3.43844 1.88451 0
M  V30 1710 H 160.676 3.08846 2.81077 0
M  V30 1711 N 161.113 -0.173488 1.56642 0
M  V30 1712 C 162.043 -1.2171 1.99271 0
M  V30 1713 C 163.024 -1.46289 0.867959 0
M  V30 1714 O 164.209 -1.5766 1.13388 0
M  V30 1715 C 161.339 -2.55651 2.35074 0
M  V30 1716 C 160.293 -2.45645 3.50489 0
M  V30 1717 C 159.619 -3.84056 3.72028 0
M  V30 1718 C 160.919 -1.96302 4.84007 0
M  V30 1719 H 162.613 -0.86275 2.867 0
M  V30 1720 H 160.159 -0.413571 1.37933 0
M  V30 1721 H 162.112 -3.2886 2.63494 0
M  V30 1722 H 160.836 -2.92869 1.44552 0
M  V30 1723 H 159.495 -1.7489 3.22194 0
M  V30 1724 H 159.143 -4.18664 2.788 0
M  V30 1725 H 158.843 -3.7823 4.49684 0
M  V30 1726 H 160.367 -4.58854 4.02846 0
M  V30 1727 H 161.781 -2.59284 5.11317 0
M  V30 1728 H 160.178 -2.01429 5.65284 0
M  V30 1729 H 161.248 -0.917226 4.76146 0
M  V30 1730 N 162.591 -1.51276 -0.441967 0
M  V30 1731 C 163.554 -1.7167 -1.51862 0
M  V30 1732 C 164.554 -0.586793 -1.49711 0
M  V30 1733 O 165.744 -0.854276 -1.51815 0
M  V30 1734 C 162.876 -1.76889 -2.91416 0
M  V30 1735 H 164.069 -2.67754 -1.35084 0
M  V30 1736 H 161.622 -1.41196 -0.670333 0
M  V30 1737 H 162.357 -0.826026 -3.13604 0
M  V30 1738 H 162.142 -2.59001 -2.94382 0
M  V30 1739 H 163.632 -1.94522 -3.69528 0
M  V30 1740 N 164.069 0.697108 -1.41344 0
M  V30 1741 C 165.032 1.79281 -1.42797 0
M  V30 1742 C 166.032 1.57607 -0.318837 0
M  V30 1743 O 167.222 1.64309 -0.578642 0
M  V30 1744 C 164.354 3.17632 -1.23785 0
M  V30 1745 H 165.547 1.79385 -2.40335 0
M  V30 1746 H 163.1 0.904582 -1.27464 0
M  V30 1747 H 163.835 3.23167 -0.270814 0
M  V30 1748 H 163.62 3.34765 -2.04144 0
M  V30 1749 H 165.11 3.97617 -1.27633 0
M  V30 1750 N 165.547 1.27147 0.931209 0
M  V30 1751 C 166.963 1.04475 1.20653 0
M  V30 1752 C 167.163 -0.223885 2.00252 0
M  V30 1753 O 166.219 -0.930332 2.34736 0
M  V30 1754 C 167.532 2.28209 1.95809 0
M  V30 1755 C 169.08 2.33211 2.08762 0
M  V30 1756 C 169.555 3.56665 2.87323 0
M  V30 1757 N 171.046 3.57201 2.94892 0
M  V30 1758 C 171.781 4.49395 3.56134 0
M  V30 1759 N 171.277 5.51889 4.18796 0
M  V30 1760 N 173.07 4.37026 3.53504 0
M  V30 1761 H 165.221 2.08612 0.399333 0
M  V30 1762 H 167.484 0.917312 0.239253 0
M  V30 1763 H 167.19 3.20538 1.44736 0
M  V30 1764 H 167.064 2.33247 2.96438 0
M  V30 1765 H 169.451 1.41391 2.59023 0
M  V30 1766 H 169.532 2.32178 1.07364 0
M  V30 1767 H 169.176 4.4882 2.37746 0
M  V30 1768 H 169.106 3.54948 3.88998 0
M  V30 1769 H 171.597 2.83074 2.50354 0
M  V30 1770 H 171.91 6.18409 4.63454 0
M  V30 1771 H 170.255 5.55735 4.17353 0
M  V30 1772 H 173.446 3.56166 3.03749 0
M  V30 1773 H 173.619 5.09067 4.00942 0
M  V30 1774 N 167.025 -1.13721 1.09112 0
M  V30 1775 C 167.972 -2.19031 0.727591 0
M  V30 1776 C 168.942 -1.63555 -0.289656 0
M  V30 1777 O 170.127 -1.90023 -0.172026 0
M  V30 1778 C 167.267 -3.4477 0.15082 0
M  V30 1779 C 166.38 -4.14365 1.22172 0
M  V30 1780 C 165.515 -5.27709 0.608042 0
M  V30 1781 C 164.554 -5.89147 1.66047 0
M  V30 1782 N 163.691 -6.93929 1.06806 0
M  V30 1783 H 168.531 -2.49475 1.62991 0
M  V30 1784 H 166.068 -1.22499 0.81439 0
M  V30 1785 H 168.026 -4.16714 -0.201358 0
M  V30 1786 H 166.656 -3.14787 -0.714783 0
M  V30 1787 H 165.708 -3.40737 1.69122 0
M  V30 1788 H 167.02 -4.56114 2.01895 0
M  V30 1789 H 166.174 -6.06355 0.204523 0
M  V30 1790 H 164.913 -4.872 -0.220769 0
M  V30 1791 H 163.918 -5.09198 2.07357 0
M  V30 1792 H 165.143 -6.31729 2.49189 0
M  V30 1793 H 163.089 -6.55483 0.260476 0
M  V30 1794 H 163.006 -7.34202 1.8023 0
M  V30 1795 H 164.274 -7.76434 0.690644 0
M  V30 1796 N 168.503 -0.877838 -1.30888 0
M  V30 1797 C 169.413 -0.343096 -2.32078 0
M  V30 1798 C 170.429 0.551022 -1.65045 0
M  V30 1799 O 171.605 0.445854 -1.96403 0
M  V30 1800 C 168.67 0.439905 -3.43898 0
M  V30 1801 C 167.731 -0.483111 -4.26573 0
M  V30 1802 C 166.964 0.262616 -5.33053 0
M  V30 1803 O 167.187 1.48967 -5.50604 0
M  V30 1804 O 166.121 -0.383593 -6.00676 0
M  V30 1805 H 169.947 -1.18203 -2.79753 0
M  V30 1806 H 167.532 -0.64145 -1.34929 0
M  V30 1807 H 169.414 0.883504 -4.12034 0
M  V30 1808 H 168.089 1.25526 -2.98371 0
M  V30 1809 H 166.996 -0.975374 -3.61161 0
M  V30 1810 H 168.329 -1.26427 -4.75686 0
M  V30 1811 N 169.982 1.44106 -0.638065 0
M  V30 1812 C 171.228 2.02815 -0.15409 0
M  V30 1813 C 171.583 1.49342 1.21304 0
M  V30 1814 O 170.876 0.670699 1.79478 0
M  V30 1815 C 171.07 3.5729 -0.0887327 0
M  V30 1816 C 170.899 4.2575 -1.44799 0
M  V30 1817 C 169.669 4.62443 -2.03653 0
M  V30 1818 C 171.867 4.55746 -2.38327 0
M  V30 1819 N 169.849 5.15903 -3.32741 0
M  V30 1820 C 171.22 5.10364 -3.52036 0
M  V30 1821 C 173.275 4.37703 -2.3732 0
M  V30 1822 C 171.978 5.48837 -4.64941 0
M  V30 1823 C 174.004 4.77229 -3.49294 0
M  V30 1824 C 173.366 5.31966 -4.61726 0
M  V30 1825 H 169.465 0.775519 -0.100466 0
M  V30 1826 H 172.049 1.755 -0.843071 0
M  V30 1827 H 170.22 3.84201 0.569548 0
M  V30 1828 H 171.952 4.02671 0.404711 0
M  V30 1829 H 168.707 4.46987 -1.56523 0
M  V30 1830 H 169.131 5.47102 -3.98758 0
M  V30 1831 H 173.773 3.94671 -1.51641 0
M  V30 1832 H 171.491 5.9082 -5.51323 0
M  V30 1833 H 175.077 4.64976 -3.49698 0
M  V30 1834 H 173.957 5.61986 -5.46939 0
M  V30 1835 N 171.46 0.379036 1.52974 0
M  V30 1836 C 172.737 -0.263479 1.93817 0
M  V30 1837 C 173.117 -1.65244 1.31368 0
M  V30 1838 O 172.465 -2.23448 0.477856 0
M  V30 1839 C 172.675 -0.300166 3.47707 0
M  V30 1840 C 174.023 -0.534061 4.21228 0
M  V30 1841 O 175.047 -0.38081 3.54159 0
M  V30 1842 O 173.906 -0.833501 5.40106 0
M  V30 1843 H 171 -0.161149 0.811147 0
M  V30 1844 H 173.546 0.432798 1.64088 0
M  V30 1845 H 172.318 0.673138 3.85467 0
M  V30 1846 H 171.941 -1.04179 3.83709 0
M  V30 1847 N 172.938 -1.57226 0.108567 0
M  V30 1848 C 173.868 -2.17778 -0.84232 0
M  V30 1849 C 174.849 -1.11487 -1.2847 0
M  V30 1850 O 176.034 -1.39681 -1.34918 0
M  V30 1851 C 173.164 -2.76888 -2.09644 0
M  V30 1852 C 172.118 -3.88669 -1.79221 0
M  V30 1853 C 171.444 -4.34541 -3.11574 0
M  V30 1854 C 172.744 -5.11251 -1.06864 0
M  V30 1855 H 174.438 -2.97489 -0.337774 0
M  V30 1856 H 171.984 -1.43097 -0.161025 0
M  V30 1857 H 173.937 -3.17904 -2.76614 0
M  V30 1858 H 172.661 -1.94451 -2.62405 0
M  V30 1859 H 171.32 -3.48213 -1.14644 0
M  V30 1860 H 170.968 -3.48977 -3.62249 0
M  V30 1861 H 170.668 -5.09914 -2.91996 0
M  V30 1862 H 172.192 -4.782 -3.7968 0
M  V30 1863 H 173.606 -5.49352 -1.63968 0
M  V30 1864 H 172.003 -5.9214 -0.974178 0
M  V30 1865 H 173.073 -4.8487 -0.0536168 0
M  V30 1866 N 174.416 0.165178 -1.56732 0
M  V30 1867 C 175.363 1.2044 -1.96883 0
M  V30 1868 C 176.333 1.43664 -0.833657 0
M  V30 1869 O 177.518 1.56302 -1.09427 0
M  V30 1870 C 174.658 2.53727 -2.33916 0
M  V30 1871 C 173.771 2.3783 -3.6064 0
M  V30 1872 C 172.906 3.64026 -3.86857 0
M  V30 1873 C 171.945 3.43088 -5.06909 0
M  V30 1874 N 171.082 4.61369 -5.29229 0
M  V30 1875 H 175.922 0.854996 -2.85471 0
M  V30 1876 H 173.459 0.41076 -1.41249 0
M  V30 1877 H 175.417 3.31419 -2.53411 0
M  V30 1878 H 174.047 2.8665 -1.48431 0
M  V30 1879 H 173.099 1.51282 -3.49024 0
M  V30 1880 H 174.411 2.18308 -4.4849 0
M  V30 1881 H 173.565 4.50152 -4.06753 0
M  V30 1882 H 172.304 3.86533 -2.97394 0
M  V30 1883 H 171.309 2.55349 -4.86906 0
M  V30 1884 H 172.534 3.21997 -5.97909 0
M  V30 1885 H 170.48 4.84084 -4.42718 0
M  V30 1886 H 170.397 4.44783 -6.11313 0
M  V30 1887 H 171.665 5.48761 -5.53608 0
M  V30 1888 N 175.894 1.51508 0.433938 0
M  V30 1889 C 177.305 1.56784 1.01369 0
M  V30 1890 C 177.656 0.393349 1.92217 0
M  V30 1891 O 176.781 -0.489441 2.10792 0
M  V30 1892 C 177.376 2.84144 1.8452 0
M  V30 1893 C 175.935 2.9198 2.37539 0
M  V30 1894 C 175.082 2.51482 1.16843 0
M  V30 1895 H 178.033 1.57236 0.215081 0
M  V30 1896 H 178.054 2.68098 2.70007 0
M  V30 1897 H 177.566 3.69607 1.18373 0
M  V30 1898 H 175.667 2.10955 3.0713 0
M  V30 1899 H 175.78 3.95704 2.70103 0
M  V30 1900 H 174.144 2.04758 1.51481 0
M  V30 1901 H 174.927 3.39293 0.523015 0
M  V30 1902 N 177.372 -0.689602 1.41712 0
M  V30 1903 C 178.621 -1.44534 1.40686 0
M  V30 1904 C 178.934 -1.95588 0.0213352 0
M  V30 1905 O 180.14 -2.71271 -0.111534 0
M  V30 1906 C 178.596 -2.61387 2.47396 0
M  V30 1907 C 178.204 -2.17094 3.91885 0
M  V30 1908 C 179.948 -3.38986 2.55517 0
M  V30 1909 C 177.855 -3.3094 4.90135 0
M  V30 1910 H 176.785 -0.542925 0.52321 0
M  V30 1911 H 179.436 -0.748054 1.6756 0
M  V30 1912 H 177.818 -3.33412 2.13664 0
M  V30 1913 H 178.992 -1.52318 4.34897 0
M  V30 1914 H 177.307 -1.52473 3.8748 0
M  V30 1915 H 179.904 -4.23747 3.26102 0
M  V30 1916 H 180.247 -3.84578 1.59391 0
M  V30 1917 H 180.78 -2.74021 2.8837 0
M  V30 1918 H 177.519 -2.90355 5.87685 0
M  V30 1919 H 177.039 -3.94546 4.51767 0
M  V30 1920 H 178.718 -3.9663 5.11169 0
M  V30 1921 N 178.85 -1.27639 -0.924453 0
M  V30 1922 C 179.813 -1.10681 -2.00705 0
M  V30 1923 C 180.813 -0.0497823 -1.60723 0
M  V30 1924 O 182.003 -0.294654 -1.7169 0
M  V30 1925 C 179.135 -0.687164 -3.33902 0
M  V30 1926 H 180.328 -2.06817 -2.17179 0
M  V30 1927 H 177.881 -1.10473 -1.10569 0
M  V30 1928 H 178.616 0.275439 -3.23128 0
M  V30 1929 H 178.401 -1.45061 -3.6428 0
M  V30 1930 H 179.891 -0.590853 -4.13399 0
M  V30 1931 N 180.328 1.1314 -1.09713 0
M  V30 1932 C 181.605 1.80762 -0.747302 0
M  V30 1933 C 181.985 1.96663 0.767265 0
M  V30 1934 O 181.333 1.53706 1.69076 0
M  V30 1935 C 181.543 3.15606 -1.48975 0
M  V30 1936 C 182.891 3.90914 -1.65746 0
M  V30 1937 O 183.915 3.25239 -1.45251 0
M  V30 1938 O 182.774 5.08718 -1.9967 0
M  V30 1939 H 179.868 0.782103 -0.268782 0
M  V30 1940 H 182.414 1.20041 -1.19951 0
M  V30 1941 H 181.186 2.99278 -2.52088 0
M  V30 1942 H 180.809 3.84029 -1.02991 0
M  V30 1943 N 181.806 0.884767 1.30421 0
M  V30 1944 C 183.222 0.57874 1.48737 0
M  V30 1945 C 183.422 -0.883567 1.81095 0
M  V30 1946 O 182.478 -1.6648 1.89844 0
M  V30 1947 C 183.791 1.49171 2.61091 0
M  V30 1948 C 185.339 1.49532 2.74971 0
M  V30 1949 C 185.814 2.39421 3.90438 0
M  V30 1950 N 187.305 2.37383 3.97748 0
M  V30 1951 C 188.04 3.03647 4.86401 0
M  V30 1952 N 187.536 3.79136 5.79852 0
M  V30 1953 N 189.329 2.9288 4.79768 0
M  V30 1954 H 181.48 1.83075 1.0769 0
M  V30 1955 H 183.743 0.783637 0.533495 0
M  V30 1956 H 183.449 2.53291 2.44001 0
M  V30 1957 H 183.323 1.20113 3.57565 0
M  V30 1958 H 185.71 0.46163 2.91467 0
M  V30 1959 H 185.791 1.8262 1.79119 0
M  V30 1960 H 185.435 3.42874 3.74699 0
M  V30 1961 H 185.365 2.03649 4.85628 0
M  V30 1962 H 187.856 1.82525 3.30897 0
M  V30 1963 H 188.169 4.26789 6.4426 0
M  V30 1964 H 186.514 3.83243 5.79784 0
M  V30 1965 H 189.705 2.33433 4.05742 0
M  V30 1966 H 189.878 3.448 5.4865 0
M  V30 1967 N 183.284 -1.43765 0.645699 0
M  V30 1968 C 184.247 -2.29163 -0.0409488 0
M  V30 1969 C 185.247 -1.41813 -0.757996 0
M  V30 1970 O 186.437 -1.63527 -0.600382 0
M  V30 1971 C 183.569 -3.23716 -1.06869 0
M  V30 1972 H 184.762 -2.91366 0.710345 0
M  V30 1973 H 182.315 -1.5092 0.406547 0
M  V30 1974 H 183.05 -2.66393 -1.84947 0
M  V30 1975 H 182.835 -3.88105 -0.558277 0
M  V30 1976 H 184.325 -3.87831 -1.54845 0
M  V30 1977 N 184.763 -0.387143 -1.52771 0
M  V30 1978 C 185.695 0.484089 -2.2403 0
M  V30 1979 C 186.708 1.02849 -1.26198 0
M  V30 1980 O 187.897 0.931186 -1.52286 0
M  V30 1981 C 184.997 1.68337 -2.94136 0
M  V30 1982 C 184.17 1.26672 -4.18656 0
M  V30 1983 C 183.229 2.33045 -4.7178 0
M  V30 1984 O 182.255 1.94541 -5.34923 0
M  V30 1985 N 183.457 3.64929 -4.5145 0
M  V30 1986 H 186.222 -0.126404 -2.99433 0
M  V30 1987 H 183.783 -0.213392 -1.60488 0
M  V30 1988 H 185.775 2.39019 -3.26577 0
M  V30 1989 H 184.345 2.20025 -2.22053 0
M  V30 1990 H 183.565 0.388878 -3.92277 0
M  V30 1991 H 184.853 0.964964 -4.99566 0
M  V30 1992 H 184.251 3.98974 -4.01044 0
M  V30 1993 H 182.808 4.31651 -4.88386 0
M  V30 1994 N 186.241 1.57166 -0.116904 0
M  V30 1995 C 187.49 1.94298 0.541407 0
M  V30 1996 C 187.803 1.00236 1.67964 0
M  V30 1997 O 189.009 1.26826 2.40057 0
M  V30 1998 C 187.465 3.45306 1.01449 0
M  V30 1999 C 187.073 4.47899 -0.0951738 0
M  V30 2000 C 188.817 3.91361 1.6443 0
M  V30 2001 C 186.724 5.90083 0.394491 0
M  V30 2002 H 185.654 0.725308 0.206019 0
M  V30 2003 H 188.305 1.82446 -0.196419 0
M  V30 2004 H 186.687 3.52385 1.80667 0
M  V30 2005 H 187.861 4.52486 -0.871374 0
M  V30 2006 H 186.176 4.11583 -0.631505 0
M  V30 2007 H 188.773 4.95004 2.02176 0
M  V30 2008 H 189.116 3.3122 2.52189 0
M  V30 2009 H 189.649 3.87073 0.917559 0
M  V30 2010 H 186.388 6.53974 -0.447004 0
M  V30 2011 H 185.908 5.88921 1.13722 0
M  V30 2012 H 187.587 6.41307 0.856399 0
M  V30 2013 N 187.719 -0.156864 1.56817 0
M  V30 2014 C 188.966 -0.871125 1.82805 0
M  V30 2015 C 189.294 -1.81611 0.696262 0
M  V30 2016 O 188.549 -1.93141 -0.315459 0
M  V30 2017 C 188.848 -1.68737 3.1506 0
M  V30 2018 C 188.514 -0.890045 4.42028 0
M  V30 2019 C 187.176 -0.670042 4.76512 0
M  V30 2020 C 189.528 -0.331769 5.20143 0
M  V30 2021 C 186.856 0.119104 5.86579 0
M  V30 2022 C 189.208 0.444365 6.31037 0
M  V30 2023 C 187.872 0.675035 6.64078 0
M  V30 2024 H 187.142 -0.318767 0.668931 0
M  V30 2025 H 189.789 -0.135274 1.91022 0
M  V30 2026 H 188.094 -2.49304 3.0225 0
M  V30 2027 H 189.791 -2.24331 3.3238 0
M  V30 2028 H 186.381 -1.07157 4.14988 0
M  V30 2029 H 190.565 -0.489043 4.93885 0
M  V30 2030 H 185.821 0.307417 6.10627 0
M  V30 2031 H 189.995 0.884139 6.90765 0
M  V30 2032 H 187.622 1.28839 7.49203 0
M  V30 2033 N 189.197 -1.51736 -0.425897 0
M  V30 2034 C 190.127 -1.76827 -1.52494 0
M  V30 2035 C 191.108 -0.618524 -1.58456 0
M  V30 2036 O 192.293 -0.862416 -1.74 0
M  V30 2037 C 189.423 -1.90374 -2.90474 0
M  V30 2038 C 188.377 -3.0588 -2.99369 0
M  V30 2039 C 187.703 -3.04625 -4.3944 0
M  V30 2040 C 189.003 -4.45644 -2.72394 0
M  V30 2041 H 190.697 -2.68855 -1.31748 0
M  V30 2042 H 188.243 -1.29372 -0.632362 0
M  V30 2043 H 190.196 -2.0651 -3.6733 0
M  V30 2044 H 188.92 -0.95004 -3.12477 0
M  V30 2045 H 187.579 -2.89467 -2.24954 0
M  V30 2046 H 187.227 -2.0701 -4.58428 0
M  V30 2047 H 186.927 -3.82195 -4.46319 0
M  V30 2048 H 188.451 -3.22869 -5.18255 0
M  V30 2049 H 189.865 -4.62348 -3.38979 0
M  V30 2050 H 188.262 -5.25006 -2.9067 0
M  V30 2051 H 189.332 -4.54893 -1.67929 0
M  V30 2052 N 190.675 0.682077 -1.42076 0
M  V30 2053 C 191.622 1.79578 -1.44984 0
M  V30 2054 C 192.592 1.6332 -0.302614 0
M  V30 2055 O 193.777 1.83978 -0.505633 0
M  V30 2056 C 190.917 3.1756 -1.35091 0
M  V30 2057 C 190.03 3.45156 -2.59791 0
M  V30 2058 C 189.165 4.72826 -2.42093 0
M  V30 2059 C 188.204 4.93433 -3.62202 0
M  V30 2060 N 187.341 6.12338 -3.43491 0
M  V30 2061 H 192.181 1.76427 -2.40161 0
M  V30 2062 H 189.718 0.861376 -1.19242 0
M  V30 2063 H 191.676 3.97287 -1.27354 0
M  V30 2064 H 190.306 3.19854 -0.435133 0
M  V30 2065 H 189.358 2.59736 -2.77923 0
M  V30 2066 H 190.67 3.5628 -3.49094 0
M  V30 2067 H 189.824 5.60631 -2.319 0
M  V30 2068 H 188.563 4.63973 -1.50268 0
M  V30 2069 H 187.568 4.04073 -3.72834 0
M  V30 2070 H 188.793 5.04136 -4.54998 0
M  V30 2071 H 186.739 6.04672 -2.54377 0
M  V30 2072 H 186.656 6.2429 -4.26377 0
M  V30 2073 H 187.924 7.02841 -3.37097 0
M  V30 2074 N 192.153 1.28127 0.917671 0
M  V30 2075 C 193.116 1.11744 2.00115 0
M  V30 2076 C 194.116 0.0583052 1.60694 0
M  V30 2077 O 195.306 0.303755 1.71531 0
M  V30 2078 C 192.438 0.704862 3.33533 0
M  V30 2079 H 193.631 2.07966 2.16079 0
M  V30 2080 H 191.184 1.11058 1.09981 0
M  V30 2081 H 191.919 -0.258299 3.2327 0
M  V30 2082 H 191.704 1.4699 3.63505 0
M  V30 2083 H 193.194 0.612768 4.1308 0
M  V30 2084 N 193.631 -1.12557 1.10312 0
M  V30 2085 C 194.594 -2.16434 0.75424 0
M  V30 2086 C 195.594 -1.59278 -0.220685 0
M  V30 2087 O 196.784 -1.742 0.00230591 0
M  V30 2088 C 193.916 -3.40699 0.116987 0
M  V30 2089 H 195.109 -2.48811 1.67431 0
M  V30 2090 H 192.662 -1.27542 0.903475 0
M  V30 2091 H 193.397 -3.13921 -0.813877 0
M  V30 2092 H 193.182 -3.83459 0.818613 0
M  V30 2093 H 194.672 -4.17451 -0.111387 0
M  V30 2094 N 195.109 -0.891671 -1.2995 0
M  V30 2095 C 196.386 -0.433307 -1.9074 0
M  V30 2096 C 196.766 1.08646 -1.80995 0
M  V30 2097 O 196.114 1.92476 -1.23147 0
M  V30 2098 C 196.324 -0.938895 -3.36134 0
M  V30 2099 C 197.672 -0.977829 -4.13187 0
M  V30 2100 O 198.696 -0.886015 -3.45005 0
M  V30 2101 O 197.555 -1.11453 -5.35015 0
M  V30 2102 H 194.649 -0.133699 -0.816121 0
M  V30 2103 H 197.195 -0.981011 -1.38471 0
M  V30 2104 H 195.967 -1.98281 -3.37343 0
M  V30 2105 H 195.59 -0.37074 -3.95868 0
M  V30 2106 N 196.587 1.43421 -0.653314 0
M  V30 2107 C 197.52 2.2803 0.0879804 0
M  V30 2108 C 198.498 1.39833 0.82979 0
M  V30 2109 O 199.682 1.69275 0.829341 0
M  V30 2110 C 196.809 3.19247 1.13132 0
M  V30 2111 C 195.855 4.23704 0.487546 0
M  V30 2112 S 196.688 5.30377 -0.738961 0
M  V30 2113 C 197.844 6.25162 0.30384 0
M  V30 2114 H 198.077 2.90554 -0.629739 0
M  V30 2115 H 195.61 1.47934 -0.442156 0
M  V30 2116 H 197.568 3.72346 1.72827 0
M  V30 2117 H 196.229 2.55901 1.82136 0
M  V30 2118 H 195.422 4.87631 1.27407 0
M  V30 2119 H 195.024 3.73983 -0.0352915 0
M  V30 2120 H 197.316 6.67321 1.17 0
M  V30 2121 H 198.259 7.07463 -0.300402 0
M  V30 2122 H 198.667 5.60864 0.63969 0
M  V30 2123 N 198.065 0.39524 1.52563 0
M  V30 2124 C 198.995 -0.428384 2.29537 0
M  V30 2125 C 199.976 -1.05831 1.33169 0
M  V30 2126 O 201.161 -1.06995 1.62067 0
M  V30 2127 C 198.291 -1.55274 3.10656 0
M  V30 2128 C 197.245 -1.04855 4.14957 0
M  V30 2129 C 196.571 -2.26543 4.84337 0
M  V30 2130 C 197.871 -0.112324 5.22179 0
M  V30 2131 H 199.565 0.213867 2.98635 0
M  V30 2132 H 197.111 0.104298 1.43622 0
M  V30 2133 H 199.064 -2.1358 3.63265 0
M  V30 2134 H 197.788 -2.22266 2.39302 0
M  V30 2135 H 196.447 -0.487985 3.63338 0
M  V30 2136 H 196.095 -2.92059 4.09525 0
M  V30 2137 H 195.795 -1.93466 5.54837 0
M  V30 2138 H 197.319 -2.85481 5.39753 0
M  V30 2139 H 198.733 -0.603752 5.70112 0
M  V30 2140 H 197.13 0.128968 5.99961 0
M  V30 2141 H 198.2 0.837052 4.77621 0
M  V30 2142 N 199.544 -1.57102 0.125237 0
M  V30 2143 C 200.769 -2.0019 -0.542101 0
M  V30 2144 C 201.194 -1.00449 -1.59034 0
M  V30 2145 O 200.552 0.0229423 -1.81285 0
M  V30 2146 C 200.6 -3.42129 -1.13929 0
M  V30 2147 O 199.704 -3.45307 -2.2547 0
M  V30 2148 H 199.045 -0.650171 -0.134812 0
M  V30 2149 H 201.575 -2.03461 0.215553 0
M  V30 2150 H 201.585 -3.80471 -1.4733 0
M  V30 2151 H 200.26 -4.14237 -0.371531 0
M  V30 2152 H 198.837 -3.1879 -1.93462 0
M  V30 2153 N 201.022 0.148545 -1.56898 0
M  V30 2154 C 202.27 0.859717 -1.82902 0
M  V30 2155 C 202.591 1.81775 -0.70588 0
M  V30 2156 O 201.861 1.93994 0.272586 0
M  V30 2157 H 200.441 0.320469 -0.674766 0
M  V30 2158 H 203.103 0.142918 -1.94375 0
M  V30 2159 H 202.199 1.4229 -2.77777 0
M  V30 2160 N 202.5 1.5196 0.417844 0
M  V30 2161 C 203.911 1.57851 0.997 0
M  V30 2162 C 204.262 0.413714 1.91789 0
M  V30 2163 O 203.387 -0.467057 2.113 0
M  V30 2164 C 203.982 2.86085 1.81496 0
M  V30 2165 C 202.541 2.94483 2.34428 0
M  V30 2166 C 201.688 2.52707 1.14169 0
M  V30 2167 H 204.639 1.57455 0.198392 0
M  V30 2168 H 204.66 2.70947 2.67148 0
M  V30 2169 H 204.172 3.70842 1.14446 0
M  V30 2170 H 202.273 2.142 3.04875 0
M  V30 2171 H 202.386 3.98546 2.65891 0
M  V30 2172 H 200.75 2.06353 1.49301 0
M  V30 2173 H 201.533 3.39828 0.486999 0
M  V30 2174 N 203.978 -0.674533 1.42435 0
M  V30 2175 C 205.394 -0.98769 1.25367 0
M  V30 2176 C 205.594 -2.00879 0.158044 0
M  V30 2177 O 204.65 -2.48075 -0.470633 0
M  V30 2178 C 205.963 -1.49224 2.6106 0
M  V30 2179 C 207.511 -1.61 2.68417 0
M  V30 2180 C 207.986 -2.14852 4.04478 0
M  V30 2181 N 209.477 -2.22185 4.06434 0
M  V30 2182 C 210.212 -2.64928 5.08528 0
M  V30 2183 N 209.708 -3.07121 6.21006 0
M  V30 2184 N 211.501 -2.64679 4.95885 0
M  V30 2185 H 203.652 0.00152503 2.124 0
M  V30 2186 H 205.915 -0.0618434 0.945981 0
M  V30 2187 H 205.621 -0.816453 3.42092 0
M  V30 2188 H 205.495 -2.47094 2.84999 0
M  V30 2189 H 207.882 -2.27686 1.87732 0
M  V30 2190 H 207.963 -0.616195 2.48267 0
M  V30 2191 H 207.607 -1.48775 4.85622 0
M  V30 2192 H 207.537 -3.15024 4.2198 0
M  V30 2193 H 210.028 -1.92435 3.25234 0
M  V30 2194 H 210.341 -3.38423 6.94759 0
M  V30 2195 H 208.686 -3.04978 6.24511 0
M  V30 2196 H 211.877 -2.31078 4.07088 0
M  V30 2197 H 212.05 -2.9767 5.75584 0
M  V30 2198 N 205.456 -1.28612 -0.910864 0
M  V30 2199 C 206.872 -1.06381 -1.18976 0
M  V30 2200 C 207.072 0.191998 -2.00583 0
M  V30 2201 O 206.128 0.892869 -2.36187 0
M  V30 2202 C 207.441 -2.31295 -1.92154 0
M  V30 2203 C 208.989 -2.36503 -2.05025 0
M  V30 2204 C 209.464 -3.61191 -2.81612 0
M  V30 2205 N 210.955 -3.61847 -2.89172 0
M  V30 2206 C 211.69 -4.55004 -3.4894 0
M  V30 2207 N 211.186 -5.58482 -4.09963 0
M  V30 2208 N 212.979 -4.42594 -3.46506 0
M  V30 2209 H 205.13 -2.09221 -0.366094 0
M  V30 2210 H 207.393 -0.921003 -0.224629 0
M  V30 2211 H 207.099 -3.228 -1.39618 0
M  V30 2212 H 206.973 -2.37934 -2.9269 0
M  V30 2213 H 209.36 -1.45494 -2.5674 0
M  V30 2214 H 209.441 -2.33857 -1.03657 0
M  V30 2215 H 209.085 -4.52545 -2.30576 0
M  V30 2216 H 209.015 -3.61092 -3.83302 0
M  V30 2217 H 211.506 -2.87022 -2.45819 0
M  V30 2218 H 211.819 -6.25704 -4.53557 0
M  V30 2219 H 210.164 -5.62305 -4.08459 0
M  V30 2220 H 213.355 -3.60953 -2.98045 0
M  V30 2221 H 213.528 -5.15381 -3.92793 0
M  V30 2222 N 206.934 1.1197 -1.10907 0
M  V30 2223 C 207.897 2.16031 -0.765707 0
M  V30 2224 C 208.897 1.59393 0.212235 0
M  V30 2225 O 210.087 1.74196 -0.0115441 0
M  V30 2226 C 207.219 3.40632 -0.135053 0
M  V30 2227 H 208.412 2.47919 -1.68748 0
M  V30 2228 H 205.965 1.27061 -0.910226 0
M  V30 2229 H 206.7 3.14348 0.797218 0
M  V30 2230 H 206.485 3.8302 -0.838937 0
M  V30 2231 H 207.975 4.17505 0.0892469 0
M  V30 2232 N 208.412 0.89855 1.29475 0
M  V30 2233 C 209.322 0.379974 2.31502 0
M  V30 2234 C 210.338 -0.524695 1.659 0
M  V30 2235 O 211.514 -0.414551 1.97087 0
M  V30 2236 C 208.579 -0.385138 3.44554 0
M  V30 2237 C 207.64 0.550914 4.2575 0
M  V30 2238 C 206.873 -0.177778 5.33404 0
M  V30 2239 O 207.096 -1.40189 5.52904 0
M  V30 2240 O 206.03 0.479106 5.9999 0
M  V30 2241 H 209.856 1.22639 2.77837 0
M  V30 2242 H 207.441 0.662834 1.33891 0
M  V30 2243 H 209.323 -0.817841 4.13388 0
M  V30 2244 H 207.998 -1.20763 3.0033 0
M  V30 2245 H 206.905 1.03271 3.59564 0
M  V30 2246 H 208.238 1.33979 4.73614 0
M  V30 2247 N 209.89 -1.43072 0.660911 0
M  V30 2248 C 211.139 -2.00942 0.174735 0
M  V30 2249 C 211.452 -1.52797 -1.22117 0
M  V30 2250 O 212.658 -2.02991 -1.80297 0
M  V30 2251 C 211.114 -3.58948 0.261559 0
M  V30 2252 C 210.722 -4.16085 1.66064 0
M  V30 2253 C 212.466 -4.24173 -0.166617 0
M  V30 2254 C 210.373 -5.6641 1.70098 0
M  V30 2255 H 209.303 -0.751483 0.0615631 0
M  V30 2256 H 211.954 -1.63955 0.824069 0
M  V30 2257 H 210.336 -3.93372 -0.455421 0
M  V30 2258 H 211.51 -3.93147 2.40359 0
M  V30 2259 H 209.825 -3.6326 2.03546 0
M  V30 2260 H 212.422 -5.34471 -0.156433 0
M  V30 2261 H 212.765 -3.98647 -1.19943 0
M  V30 2262 H 213.298 -3.94659 0.498875 0
M  V30 2263 H 210.037 -5.96715 2.71315 0
M  V30 2264 H 209.557 -5.91382 1.00139 0
M  V30 2265 H 211.236 -6.30585 1.44816 0
M  V30 2266 N 211.368 -0.403325 -1.52352 0
M  V30 2267 C 212.298 0.416205 -2.29761 0
M  V30 2268 C 213.279 1.05123 -1.33728 0
M  V30 2269 O 214.464 1.06134 -1.62632 0
M  V30 2270 C 211.594 1.53624 -3.11475 0
M  V30 2271 C 210.548 1.02653 -4.15507 0
M  V30 2272 C 209.874 2.23971 -4.85532 0
M  V30 2273 C 211.174 0.08463 -5.22231 0
M  V30 2274 H 212.868 -0.229701 -2.98518 0
M  V30 2275 H 210.414 -0.111913 -1.43564 0
M  V30 2276 H 212.367 2.1165 -3.64393 0
M  V30 2277 H 211.091 2.20994 -2.40477 0
M  V30 2278 H 209.75 0.46871 -3.63591 0
M  V30 2279 H 209.398 2.89883 -4.11068 0
M  V30 2280 H 209.098 1.90521 -5.55856 0
M  V30 2281 H 210.622 2.82614 -5.41259 0
M  V30 2282 H 212.036 0.573509 -5.70424 0
M  V30 2283 H 210.433 -0.160783 -5.99885 0
M  V30 2284 H 211.503 -0.86237 -4.7717 0
M  V30 2285 N 212.846 1.57033 -0.133567 0
M  V30 2286 C 213.809 2.14897 0.796995 0
M  V30 2287 C 214.809 1.0874 1.18458 0
M  V30 2288 O 215.999 1.34446 1.1077 0
M  V30 2289 C 213.131 2.70112 2.07973 0
M  V30 2290 H 214.324 2.98457 0.293873 0
M  V30 2291 H 211.877 1.55871 0.115787 0
M  V30 2292 H 212.612 1.9018 2.62682 0
M  V30 2293 H 212.397 3.47764 1.81115 0
M  V30 2294 H 213.887 3.14738 2.74462 0
M  V30 2295 N 214.325 -0.140222 1.56975 0
M  V30 2296 C 215.272 -1.17292 1.98774 0
M  V30 2297 C 216.242 -1.4232 0.856408 0
M  V30 2298 O 217.427 -1.54541 1.119 0
M  V30 2299 C 214.567 -2.49973 2.37923 0
M  V30 2300 C 213.68 -2.32062 3.64378 0
M  V30 2301 C 212.815 -3.57825 3.926 0
M  V30 2302 C 211.854 -3.3498 5.12303 0
M  V30 2303 N 210.991 -4.52891 5.36502 0
M  V30 2304 H 215.831 -0.809472 2.86795 0
M  V30 2305 H 213.368 -0.388237 1.41884 0
M  V30 2306 H 215.326 -3.27346 2.58652 0
M  V30 2307 H 213.956 -2.84252 1.52972 0
M  V30 2308 H 213.008 -1.45711 3.51387 0
M  V30 2309 H 214.32 -2.11145 4.51906 0
M  V30 2310 H 213.474 -4.43624 4.13863 0
M  V30 2311 H 212.213 -3.81753 3.03506 0
M  V30 2312 H 211.218 -2.4757 4.90906 0
M  V30 2313 H 212.443 -3.12444 6.02956 0
M  V30 2314 H 210.389 -4.76979 4.50363 0
M  V30 2315 H 210.306 -4.35001 6.18312 0
M  V30 2316 H 211.574 -5.39884 5.62268 0
M  V30 2317 N 215.803 -1.52179 -0.40978 0
M  V30 2318 C 217.031 -1.70054 -1.17853 0
M  V30 2319 C 217.446 -0.409735 -1.843 0
M  V30 2320 O 216.803 0.614183 -1.71855 0
M  V30 2321 C 216.854 -2.83568 -2.24213 0
M  V30 2322 O 216.575 -4.0765 -1.60478 0
M  V30 2323 C 218.076 -3.12947 -3.13973 0
M  V30 2324 H 215.296 -0.569917 -0.354169 0
M  V30 2325 H 217.84 -1.98734 -0.482198 0
M  V30 2326 H 215.995 -2.57409 -2.89516 0
M  V30 2327 H 216.409 -4.70899 -2.30986 0
M  V30 2328 H 217.883 -3.95889 -3.84677 0
M  V30 2329 H 218.36 -2.26472 -3.76307 0
M  V30 2330 H 218.966 -3.40868 -2.5434 0
M  V30 2331 N 217.281 0.66697 -1.42791 0
M  V30 2332 C 218.214 1.79177 -1.41318 0
M  V30 2333 C 219.192 1.60234 -0.276401 0
M  V30 2334 O 220.376 1.82602 -0.46785 0
M  V30 2335 C 217.503 3.16289 -1.21157 0
M  V30 2336 C 216.549 3.53964 -2.37932 0
M  V30 2337 S 217.382 3.55501 -4.00474 0
M  V30 2338 C 218.538 4.95292 -3.8267 0
M  V30 2339 H 218.771 1.80153 -2.365 0
M  V30 2340 H 216.304 0.838357 -1.29657 0
M  V30 2341 H 218.262 3.95428 -1.10212 0
M  V30 2342 H 216.923 3.1289 -0.275481 0
M  V30 2343 H 216.116 4.53646 -2.19594 0
M  V30 2344 H 215.718 2.82204 -2.45432 0
M  V30 2345 H 218.01 5.83584 -3.44145 0
M  V30 2346 H 218.953 5.18679 -4.82055 0
M  V30 2347 H 219.361 4.68179 -3.15386 0
M  V30 2348 N 218.759 1.29093 0.90403 0
M  V30 2349 C 220.005 1.16986 1.65656 0
M  V30 2350 C 220.338 -0.278925 1.92186 0
M  V30 2351 O 219.613 -1.2019 1.5292 0
M  V30 2352 C 219.896 1.97908 3.0084 0
M  V30 2353 C 219.749 3.50903 2.81403 0
M  V30 2354 C 221.068 1.80208 4.01513 0
M  V30 2355 H 218.187 0.426346 0.601164 0
M  V30 2356 H 220.829 1.58518 1.04747 0
M  V30 2357 H 218.979 1.62616 3.52829 0
M  V30 2358 H 220.651 3.96153 2.36348 0
M  V30 2359 H 218.894 3.76045 2.1627 0
M  V30 2360 H 219.565 4.02791 3.77443 0
M  V30 2361 H 222.041 2.11025 3.58619 0
M  V30 2362 H 220.917 2.39184 4.94047 0
M  V30 2363 H 221.178 0.756119 4.35586 0
M  V30 2364 N 220.237 -1.11381 1.11499 0
M  V30 2365 C 221.485 -1.8277 0.862524 0
M  V30 2366 C 221.806 -1.85097 -0.613534 0
M  V30 2367 O 221.076 -1.32198 -1.4457 0
M  V30 2368 H 219.656 -0.676823 0.316101 0
M  V30 2369 H 222.318 -1.34816 1.4075 0
M  V30 2370 H 221.414 -2.86614 1.23527 0
M  V30 2371 N 221.715 -0.905404 -1.28997 0
M  V30 2372 C 222.647 -0.344748 -2.26592 0
M  V30 2373 C 223.66 0.512135 -1.54535 0
M  V30 2374 O 224.849 0.328368 -1.75454 0
M  V30 2375 C 221.949 0.526587 -3.34784 0
M  V30 2376 C 221.122 -0.305871 -4.36329 0
M  V30 2377 C 220.181 0.499209 -5.23827 0
M  V30 2378 O 219.207 -0.0853004 -5.69136 0
M  V30 2379 N 220.409 1.80408 -5.51755 0
M  V30 2380 H 223.174 -1.18359 -2.75338 0
M  V30 2381 H 220.735 -0.770481 -1.42391 0
M  V30 2382 H 222.727 1.07171 -3.90252 0
M  V30 2383 H 221.297 1.26613 -2.85811 0
M  V30 2384 H 220.517 -1.0324 -3.80441 0
M  V30 2385 H 221.805 -0.875773 -5.01206 0
M  V30 2386 H 221.203 2.3016 -5.16762 0
M  V30 2387 H 219.76 2.29621 -6.10014 0
M  V30 2388 N 223.193 1.4272 -0.668489 0
M  V30 2389 C 224.441 2.01226 -0.187769 0
M  V30 2390 C 224.762 1.53092 1.2078 0
M  V30 2391 O 224.032 0.74993 1.80977 0
M  V30 2392 H 222.612 0.744041 -0.0664272 0
M  V30 2393 H 225.274 1.74723 -0.863583 0
M  V30 2394 H 224.37 3.11556 -0.184166 0
M  V30 2395 N 224.671 0.411399 1.52136 0
M  V30 2396 C 225.618 -0.412975 2.27075 0
M  V30 2397 C 226.588 -1.03912 1.29582 0
M  V30 2398 O 227.773 -1.06296 1.58448 0
M  V30 2399 C 224.913 -1.52247 3.09701 0
M  V30 2400 C 224.026 -0.917021 4.22155 0
M  V30 2401 C 223.161 -1.9994 4.92135 0
M  V30 2402 C 222.2 -1.37101 5.96548 0
M  V30 2403 N 221.337 -2.39364 6.60038 0
M  V30 2404 H 226.177 0.232499 2.97092 0
M  V30 2405 H 223.714 0.126496 1.46555 0
M  V30 2406 H 225.672 -2.17674 3.55913 0
M  V30 2407 H 224.302 -2.13794 2.41851 0
M  V30 2408 H 223.354 -0.151742 3.80097 0
M  V30 2409 H 224.666 -0.418006 4.97045 0
M  V30 2410 H 223.82 -2.73088 5.41763 0
M  V30 2411 H 222.559 -2.53208 4.16818 0
M  V30 2412 H 221.564 -0.624873 5.46237 0
M  V30 2413 H 222.789 -0.845998 6.7381 0
M  V30 2414 H 220.735 -2.91759 5.87548 0
M  V30 2415 H 220.652 -1.9428 7.3061 0
M  V30 2416 H 221.92 -3.12074 7.14304 0
M  V30 2417 N 226.149 -1.5696 0.141893 0
M  V30 2418 C 227.377 -2.00322 -0.517579 0
M  V30 2419 C 227.792 -1.02193 -1.58752 0
M  V30 2420 O 227.149 -0.0181619 -1.82491 0
M  V30 2421 C 227.2 -3.43618 -1.12289 0
M  V30 2422 O 226.921 -4.37995 -0.0956929 0
M  V30 2423 C 228.422 -4.02231 -1.86347 0
M  V30 2424 H 225.642 -0.657243 -0.135177 0
M  V30 2425 H 228.186 -2.03146 0.234973 0
M  V30 2426 H 226.341 -3.41662 -1.82609 0
M  V30 2427 H 226.755 -5.21729 -0.538469 0
M  V30 2428 H 228.229 -5.04509 -2.23997 0
M  V30 2429 H 228.706 -3.42655 -2.74744 0
M  V30 2430 H 229.312 -4.07802 -1.20737 0
M  V30 2431 N 227.627 0.131896 -1.57047 0
M  V30 2432 C 228.873 0.843179 -1.84441 0
M  V30 2433 C 229.206 1.80129 -0.725749 0
M  V30 2434 O 228.481 1.92624 0.269469 0
M  V30 2435 C 228.764 1.60442 -3.22382 0
M  V30 2436 C 228.617 0.666782 -4.4483 0
M  V30 2437 C 229.936 2.56354 -3.5773 0
M  V30 2438 H 227.055 0.305081 -0.670891 0
M  V30 2439 H 229.697 0.107839 -1.89694 0
M  V30 2440 H 227.847 2.23128 -3.18035 0
M  V30 2441 H 229.519 0.0497646 -4.61273 0
M  V30 2442 H 227.762 -0.022609 -4.33794 0
M  V30 2443 H 228.433 1.23579 -5.37989 0
M  V30 2444 H 230.909 2.0378 -3.62785 0
M  V30 2445 H 229.785 3.06657 -4.5525 0
M  V30 2446 H 230.046 3.38419 -2.84473 0
M  V30 2447 N 229.106 1.52395 0.401703 0
M  V30 2448 C 230.355 1.66044 1.14509 0
M  V30 2449 C 230.668 0.400216 1.91462 0
M  V30 2450 O 231.874 0.416632 2.68284 0
M  V30 2451 C 230.33 2.93388 2.0845 0
M  V30 2452 C 229.938 4.26545 1.36978 0
M  V30 2453 C 231.682 3.16402 2.83001 0
M  V30 2454 C 229.589 5.45007 2.29611 0
M  V30 2455 H 228.519 0.618562 0.431158 0
M  V30 2456 H 231.17 1.78886 0.40892 0
M  V30 2457 H 229.552 2.74263 2.8565 0
M  V30 2458 H 230.726 4.56179 0.650916 0
M  V30 2459 H 229.041 4.09692 0.74438 0
M  V30 2460 H 231.638 4.02085 3.52465 0
M  V30 2461 H 231.981 2.30943 3.46368 0
M  V30 2462 H 232.514 3.36034 2.12898 0
M  V30 2463 H 229.253 6.32835 1.70879 0
M  V30 2464 H 228.773 5.19702 2.9945 0
M  V30 2465 H 230.452 5.7838 2.89974 0
M  V30 2466 N 230.584 -0.659388 1.43143 0
M  V30 2467 C 231.516 -1.7849 1.43784 0
M  V30 2468 C 232.529 -1.5932 0.334787 0
M  V30 2469 O 233.718 -1.68155 0.598842 0
M  V30 2470 C 230.818 -3.15828 1.22906 0
M  V30 2471 C 229.991 -3.61711 2.45934 0
M  V30 2472 C 229.05 -4.77831 2.20371 0
M  V30 2473 O 228.076 -4.87586 2.93681 0
M  V30 2474 N 229.278 -5.67611 1.21647 0
M  V30 2475 H 232.043 -1.7842 2.40803 0
M  V30 2476 H 229.604 -0.84302 1.3822 0
M  V30 2477 H 231.596 -3.91189 1.03697 0
M  V30 2478 H 230.166 -3.10707 0.343542 0
M  V30 2479 H 229.386 -2.76861 2.80609 0
M  V30 2480 H 230.674 -3.89112 3.27825 0
M  V30 2481 H 230.072 -5.62397 0.610449 0
M  V30 2482 H 228.629 -6.42719 1.08423 0
M  V30 2483 N 232.062 -1.29571 -0.897171 0
M  V30 2484 C 233.025 -1.14913 -1.98312 0
M  V30 2485 C 234.025 -0.0838629 -1.60581 0
M  V30 2486 O 235.215 -0.331006 -1.71026 0
M  V30 2487 C 232.347 -0.757835 -3.3237 0
M  V30 2488 H 233.54 -2.11377 -2.12743 0
M  V30 2489 H 231.093 -1.12793 -1.08201 0
M  V30 2490 H 231.828 0.206837 -3.2364 0
M  V30 2491 H 231.613 -1.52755 -3.61121 0
M  V30 2492 H 233.103 -0.678408 -4.12053 0
M  V30 2493 N 233.54 1.10788 -1.12088 0
M  V30 2494 C 234.45 2.20599 -0.798338 0
M  V30 2495 C 235.466 1.72712 0.21135 0
M  V30 2496 O 236.642 2.01348 0.0458477 0
M  V30 2497 C 233.707 3.45771 -0.253674 0
M  V30 2498 C 232.768 4.08411 -1.32283 0
M  V30 2499 C 232.001 5.27608 -0.80406 0
M  V30 2500 O 232.224 5.69241 0.363478 0
M  V30 2501 O 231.158 5.8101 -1.57198 0
M  V30 2502 H 234.984 2.50614 -1.7154 0
M  V30 2503 H 232.569 1.19454 -0.897275 0
M  V30 2504 H 234.451 4.21376 0.0453691 0
M  V30 2505 H 233.126 3.1739 0.636005 0
M  V30 2506 H 232.033 3.34507 -1.67499 0
M  V30 2507 H 233.366 4.40986 -2.18614 0
M  V30 2508 N 235.018 0.912232 1.28515 0
M  V30 2509 C 236.267 0.540504 1.94323 0
M  V30 2510 C 236.58 -0.920044 1.72611 0
M  V30 2511 O 237.786 -1.39986 2.32629 0
M  V30 2512 C 236.242 0.915803 3.48053 0
M  V30 2513 C 235.85 2.39598 3.78546 0
M  V30 2514 C 237.594 0.614588 4.20027 0
M  V30 2515 C 235.501 2.71148 5.25578 0
M  V30 2516 H 234.431 0.198418 0.727424 0
M  V30 2517 H 237.082 1.11094 1.46049 0
M  V30 2518 H 235.464 0.274168 3.9505 0
M  V30 2519 H 236.638 3.08422 3.42364 0
M  V30 2520 H 234.953 2.66749 3.1974 0
M  V30 2521 H 237.55 0.827002 5.28266 0
M  V30 2522 H 237.893 -0.447531 4.13887 0
M  V30 2523 H 238.426 1.21462 3.78803 0
M  V30 2524 H 235.165 3.76207 5.36794 0
M  V30 2525 H 234.685 2.0696 5.62963 0
M  V30 2526 H 236.364 2.58072 5.93302 0
M  V30 2527 N 236.496 -1.42363 0.676048 0
M  V30 2528 C 237.773 -1.95183 0.127726 0
M  V30 2529 C 238.153 -1.61641 -1.35777 0
M  V30 2530 O 237.501 -0.913216 -2.09458 0
M  V30 2531 C 237.711 -3.46721 0.398199 0
M  V30 2532 C 239.059 -4.23427 0.315383 0
M  V30 2533 O 240.083 -3.54649 0.332016 0
M  V30 2534 O 238.942 -5.45888 0.25865 0
M  V30 2535 H 236.036 -0.826992 0.00359427 0
M  V30 2536 H 238.582 -1.52184 0.750864 0
M  V30 2537 H 237.354 -3.64344 1.4272 0
M  V30 2538 H 236.977 -3.96769 -0.256885 0
M  V30 2539 N 237.974 -0.419461 -1.51915 0
M  V30 2540 C 238.937 0.389116 -2.25873 0
M  V30 2541 C 239.937 0.964924 -1.28631 0
M  V30 2542 O 241.127 0.842179 -1.52489 0
M  V30 2543 C 238.259 1.54874 -3.03689 0
M  V30 2544 H 239.452 -0.258799 -2.98781 0
M  V30 2545 H 237.005 -0.172209 -1.55348 0
M  V30 2546 H 237.74 2.23323 -2.35154 0
M  V30 2547 H 237.525 1.14223 -3.75094 0
M  V30 2548 H 239.015 2.12046 -3.59759 0
M  V30 2549 N 239.452 1.56882 -0.150215 0
M  V30 2550 C 240.415 2.1573 0.774157 0
M  V30 2551 C 241.415 1.0999 1.17298 0
M  V30 2552 O 242.605 1.35613 1.09338 0
M  V30 2553 C 239.737 2.72302 2.05096 0
M  V30 2554 H 240.93 2.98752 0.262201 0
M  V30 2555 H 238.483 1.55985 0.099248 0
M  V30 2556 H 239.218 1.92956 2.6065 0
M  V30 2557 H 239.003 3.49665 1.77416 0
M  V30 2558 H 240.493 3.17632 2.71109 0
M  V30 2559 N 240.93 -0.123565 1.57115 0
M  V30 2560 C 241.893 -1.13583 1.99076 0
M  V30 2561 C 242.893 -1.34564 0.880296 0
M  V30 2562 O 244.083 -1.31158 1.14644 0
M  V30 2563 C 241.215 -2.49128 2.32698 0
M  V30 2564 H 242.408 -0.775287 2.89706 0
M  V30 2565 H 239.961 -0.36771 1.51913 0
M  V30 2566 H 240.696 -2.90111 1.44934 0
M  V30 2567 H 240.481 -2.35255 3.13684 0
M  V30 2568 H 241.971 -3.2199 2.65918 0
M  V30 2569 N 242.408 -1.52605 -0.393616 0
M  V30 2570 C 243.318 -1.79971 -1.50492 0
M  V30 2571 C 244.334 -0.686181 -1.59899 0
M  V30 2572 O 245.51 -0.973274 -1.76322 0
M  V30 2573 C 242.575 -1.95867 -2.86072 0
M  V30 2574 C 241.636 -3.19781 -2.86424 0
M  V30 2575 C 240.869 -3.34909 -4.15538 0
M  V30 2576 O 241.092 -2.54948 -5.10253 0
M  V30 2577 O 240.026 -4.28141 -4.23059 0
M  V30 2578 H 243.852 -2.74328 -1.30299 0
M  V30 2579 H 241.437 -1.3764 -0.581005 0
M  V30 2580 H 243.319 -2.08056 -3.66457 0
M  V30 2581 H 241.994 -1.04699 -3.063 0
M  V30 2582 H 240.901 -3.13038 -2.04837 0
M  V30 2583 H 242.234 -4.1078 -2.71147 0
M  V30 2584 N 243.887 0.651787 -1.4349 0
M  V30 2585 C 244.817 1.77621 -1.51569 0
M  V30 2586 C 245.798 1.66022 -0.370253 0
M  V30 2587 O 246.983 1.85095 -0.587658 0
M  V30 2588 C 244.113 3.16056 -1.43966 0
M  V30 2589 C 243.067 3.4242 -2.56774 0
M  V30 2590 C 242.393 4.8067 -2.34223 0
M  V30 2591 C 243.693 3.37023 -3.99015 0
M  V30 2592 H 245.387 1.71117 -2.45681 0
M  V30 2593 H 242.933 0.821825 -1.18246 0
M  V30 2594 H 244.886 3.94472 -1.48221 0
M  V30 2595 H 243.61 3.23293 -0.463586 0
M  V30 2596 H 242.269 2.66375 -2.51873 0
M  V30 2597 H 241.917 4.84585 -1.34856 0
M  V30 2598 H 241.617 4.9927 -3.09844 0
M  V30 2599 H 243.141 5.61342 -2.40265 0
M  V30 2600 H 244.555 4.05374 -4.05395 0
M  V30 2601 H 242.952 3.67159 -4.74673 0
M  V30 2602 H 244.022 2.3518 -4.2405 0
M  V30 2603 N 245.365 1.30045 0.890287 0
M  V30 2604 C 246.614 1.17929 1.63633 0
M  V30 2605 C 246.927 -0.266204 1.9378 0
M  V30 2606 O 248.133 -0.508804 2.6669 0
M  V30 2607 C 246.589 2.06317 2.94892 0
M  V30 2608 C 246.197 3.55745 2.72305 0
M  V30 2609 C 247.941 2.0295 3.72843 0
M  V30 2610 C 245.848 4.36205 3.99348 0
M  V30 2611 H 244.778 0.437782 0.613892 0
M  V30 2612 H 247.429 1.54754 0.986075 0
M  V30 2613 H 245.811 1.6237 3.61182 0
M  V30 2614 H 246.985 4.07805 2.1455 0
M  V30 2615 H 245.3 3.6088 2.07737 0
M  V30 2616 H 247.897 2.60319 4.67053 0
M  V30 2617 H 248.24 1.0117 4.0382 0
M  V30 2618 H 248.773 2.4499 3.13408 0
M  V30 2619 H 245.512 5.38659 3.73533 0
M  V30 2620 H 245.032 3.8891 4.56628 0
M  V30 2621 H 246.711 4.47362 4.67415 0
M  V30 2622 N 246.843 -1.10192 1.12674 0
M  V30 2623 C 248.12 -1.78717 0.794965 0
M  V30 2624 C 248.5 -1.98628 -0.714853 0
M  V30 2625 O 247.848 -1.58135 -1.64941 0
M  V30 2626 C 248.058 -3.11546 1.5729 0
M  V30 2627 C 249.406 -3.86382 1.76052 0
M  V30 2628 O 250.43 -3.21274 1.53823 0
M  V30 2629 O 249.289 -5.03246 2.13087 0
M  V30 2630 H 246.383 -0.774702 0.289423 0
M  V30 2631 H 248.929 -1.16819 1.23091 0
M  V30 2632 H 247.701 -2.92489 2.59935 0
M  V30 2633 H 247.324 -3.81164 1.13137 0
M  V30 2634 N 248.321 -0.919034 -1.28029 0
M  V30 2635 C 249.568 -0.554934 -1.94748 0
M  V30 2636 C 249.896 0.90231 -1.72304 0
M  V30 2637 O 249.151 1.65767 -1.04018 0
M  V30 2638 C 249.45 -0.816855 -3.4794 0
M  V30 2639 C 249.116 -2.25448 -3.90492 0
M  V30 2640 C 247.778 -2.64752 -4.01821 0
M  V30 2641 C 250.13 -3.18977 -4.12193 0
M  V30 2642 C 247.458 -3.96727 -4.32232 0
M  V30 2643 C 249.81 -4.50523 -4.44086 0
M  V30 2644 C 248.474 -4.89673 -4.53626 0
M  V30 2645 H 247.744 -0.203065 -0.712633 0
M  V30 2646 H 250.391 -1.16136 -1.52265 0
M  V30 2647 H 248.696 -0.127677 -3.91592 0
M  V30 2648 H 250.393 -0.514238 -3.97689 0
M  V30 2649 H 246.983 -1.93952 -3.82205 0
M  V30 2650 H 251.167 -2.89817 -4.02889 0
M  V30 2651 H 246.423 -4.26754 -4.37825 0
M  V30 2652 H 250.597 -5.23005 -4.59825 0
M  V30 2653 H 248.224 -5.91969 -4.76946 0
M  V30 2654 N 249.799 1.42003 -0.683588 0
M  V30 2655 C 251.046 2.01413 -0.209514 0
M  V30 2656 C 251.374 1.54088 1.1869 0
M  V30 2657 O 250.629 0.737591 1.81268 0
M  V30 2658 C 250.928 3.56827 -0.202357 0
M  V30 2659 C 250.594 4.23617 -1.54464 0
M  V30 2660 C 249.256 4.41577 -1.91215 0
M  V30 2661 C 251.608 4.61178 -2.42826 0
M  V30 2662 C 248.936 4.9437 -3.15935 0
M  V30 2663 C 251.288 5.15355 -3.66867 0
M  V30 2664 C 249.952 5.31528 -4.03776 0
M  V30 2665 H 249.222 0.737023 -0.0766668 0
M  V30 2666 H 251.869 1.70067 -0.880312 0
M  V30 2667 H 250.174 3.87892 0.551969 0
M  V30 2668 H 251.871 4.00588 0.181793 0
M  V30 2669 H 248.461 4.10004 -1.24877 0
M  V30 2670 H 252.645 4.46968 -2.15717 0
M  V30 2671 H 247.901 5.05076 -3.44541 0
M  V30 2672 H 252.075 5.43402 -4.35531 0
M  V30 2673 H 249.702 5.72199 -5.00492 0
M  V30 2674 N 251.277 0.427512 1.51691 0
M  V30 2675 C 252.693 0.0792977 1.59403 0
M  V30 2676 C 252.893 -1.41035 1.43914 0
M  V30 2677 O 251.949 -2.17922 1.27539 0
M  V30 2678 C 253.262 0.590636 2.94842 0
M  V30 2679 C 254.81 0.550215 3.08126 0
M  V30 2680 C 255.285 1.03836 4.46074 0
M  V30 2681 N 256.776 0.995943 4.52366 0
M  V30 2682 C 257.511 1.34463 5.57411 0
M  V30 2683 N 257.007 1.76569 6.69922 0
M  V30 2684 N 258.8 1.26343 5.47717 0
M  V30 2685 H 250.951 1.39687 1.60004 0
M  V30 2686 H 253.214 0.575003 0.753708 0
M  V30 2687 H 252.92 1.63251 3.11516 0
M  V30 2688 H 252.794 0.0102061 3.77199 0
M  V30 2689 H 255.181 -0.482654 2.91126 0
M  V30 2690 H 255.262 1.16693 2.27632 0
M  V30 2691 H 254.906 2.06965 4.63819 0
M  V30 2692 H 254.836 0.398286 5.25092 0
M  V30 2693 H 257.327 0.68661 3.7161 0
M  V30 2694 H 257.64 2.01438 7.46085 0
M  V30 2695 H 255.985 1.80488 6.71155 0
M  V30 2696 H 259.176 0.933209 4.58703 0
M  V30 2697 H 259.349 1.53846 6.29472 0
M  V30 2698 N 252.755 -1.56801 0.158532 0
M  V30 2699 C 254.002 -1.9649 -0.489679 0
M  V30 2700 C 254.33 -1.04394 -1.6411 0
M  V30 2701 O 253.585 -0.0754401 -1.95555 0
M  V30 2702 C 253.884 -3.4235 -1.02623 0
M  V30 2703 C 253.55 -4.50899 0.00794526 0
M  V30 2704 C 252.212 -4.80312 0.292207 0
M  V30 2705 C 254.564 -5.16333 0.710584 0
M  V30 2706 C 251.892 -5.72461 1.28472 0
M  V30 2707 C 254.244 -6.09553 1.69199 0
M  V30 2708 C 252.908 -6.37339 1.98383 0
M  V30 2709 H 252.178 -0.719009 -0.179186 0
M  V30 2710 H 254.825 -1.8989 0.247798 0
M  V30 2711 H 253.13 -3.45838 -1.84128 0
M  V30 2712 H 254.827 -3.70393 -1.53656 0
M  V30 2713 H 251.417 -4.28015 -0.22379 0
M  V30 2714 H 255.601 -4.93732 0.504174 0
M  V30 2715 H 250.857 -5.92278 1.51714 0
M  V30 2716 H 255.031 -6.59327 2.24189 0
M  V30 2717 H 252.658 -7.08546 2.7544 0
M  V30 2718 N 254.233 0.115231 -1.57178 0
M  V30 2719 C 255.181 1.16014 -2.01602 0
M  V30 2720 C 256.175 1.42653 -0.913587 0
M  V30 2721 O 257.381 1.42571 -1.09879 0
M  V30 2722 H 253.756 0.391252 -0.642204 0
M  V30 2723 H 255.727 0.758998 -2.88586 0
M  V30 2724 C 254.476 2.47767 -2.4394 0
M  V30 2725 H 253.799 2.28108 -3.28339 0
M  V30 2726 H 255.239 3.19432 -2.78818 0
M  V30 2727 C 253.698 3.10617 -1.30455 0
M  V30 2728 O 254.228 3.96846 -0.622585 0
M  V30 2729 N 252.434 2.70553 -1.06064 0
M  V30 2730 H 251.981 2.00527 -1.61699 0
M  V30 2731 H 251.939 3.12934 -0.303284 0
M  V30 2732 N 255.711 1.52812 0.385517 0
M  V30 2733 C 256.674 1.77188 1.45386 0
M  V30 2734 C 257.674 0.641953 1.4743 0
M  V30 2735 O 258.864 0.910033 1.4854 0
M  V30 2736 C 255.996 1.87582 2.8465 0
M  V30 2737 H 257.189 2.72583 1.25054 0
M  V30 2738 H 254.742 1.43586 0.617467 0
M  V30 2739 H 255.477 0.941849 3.10322 0
M  V30 2740 H 255.262 2.69748 2.84567 0
M  V30 2741 H 256.752 2.08102 3.62054 0
M  V30 2742 N 257.189 -0.644168 1.43834 0
M  V30 2743 C 258.136 -1.75671 1.49694 0
M  V30 2744 C 259.106 -1.6246 0.345809 0
M  V30 2745 O 260.291 -1.82573 0.554234 0
M  V30 2746 C 257.431 -3.13867 1.43463 0
M  V30 2747 C 256.544 -3.38147 2.6885 0
M  V30 2748 C 255.679 -4.66241 2.54544 0
M  V30 2749 C 254.718 -4.83657 3.75157 0
M  V30 2750 N 253.855 -6.03016 3.59605 0
M  V30 2751 H 258.695 -1.69998 2.44754 0
M  V30 2752 H 256.232 -0.829458 1.21484 0
M  V30 2753 H 258.19 -3.9377 1.37843 0
M  V30 2754 H 256.82 -3.18588 0.519783 0
M  V30 2755 H 255.872 -2.52276 2.84712 0
M  V30 2756 H 257.184 -3.46899 3.58417 0
M  V30 2757 H 256.338 -5.54285 2.46683 0
M  V30 2758 H 255.077 -4.59826 1.62516 0
M  V30 2759 H 254.082 -3.94046 3.83416 0
M  V30 2760 H 255.307 -4.91896 4.68204 0
M  V30 2761 H 253.253 -5.97715 2.7032 0
M  V30 2762 H 253.17 -6.12766 4.42779 0
M  V30 2763 H 254.438 -6.93657 3.55613 0
M  V30 2764 N 258.668 -1.30515 -0.883378 0
M  V30 2765 C 259.898 -1.22182 -1.66599 0
M  V30 2766 C 260.306 0.217507 -1.87946 0
M  V30 2767 O 259.649 1.1554 -1.42815 0
M  V30 2768 C 259.711 -1.88146 -3.06335 0
M  V30 2769 C 259.375 -3.37476 -3.08154 0
M  V30 2770 C 260.372 -4.33443 -2.87094 0
M  V30 2771 C 258.057 -3.7895 -3.29701 0
M  V30 2772 C 260.051 -5.68858 -2.8754 0
M  V30 2773 C 257.738 -5.14482 -3.29776 0
M  V30 2774 C 258.736 -6.09246 -3.0872 0
M  V30 2775 O 258.424 -7.42302 -3.08615 0
M  V30 2776 H 258.156 -0.423898 -0.52658 0
M  V30 2777 H 260.71 -1.72703 -1.11188 0
M  V30 2778 H 258.94 -1.32157 -3.63416 0
M  V30 2779 H 260.629 -1.7391 -3.66756 0
M  V30 2780 H 261.395 -4.02733 -2.70243 0
M  V30 2781 H 257.274 -3.05631 -3.45124 0
M  V30 2782 H 260.818 -6.428 -2.71024 0
M  V30 2783 H 256.715 -5.44832 -3.46163 0
M  V30 2784 H 257.483 -7.5131 -3.24769 0
M  V30 2785 N 260.146 1.09593 -1.13257 0
M  V30 2786 C 261.109 2.14359 -0.811358 0
M  V30 2787 C 262.109 1.59808 0.178377 0
M  V30 2788 O 263.299 1.74132 -0.0484911 0
M  V30 2789 C 260.431 3.40269 -0.207276 0
M  V30 2790 H 261.624 2.44284 -1.73969 0
M  V30 2791 H 259.177 1.25102 -0.936973 0
M  V30 2792 H 259.912 3.15969 0.73036 0
M  V30 2793 H 259.697 3.81154 -0.919992 0
M  V30 2794 H 261.187 4.176 0.000667944 0
M  V30 2795 N 261.624 0.925811 1.2754 0
M  V30 2796 C 262.87 0.566092 1.94739 0
M  V30 2797 C 263.203 -0.890057 1.72603 0
M  V30 2798 O 262.478 -1.63467 1.05399 0
M  V30 2799 C 262.761 0.89054 3.48915 0
M  V30 2800 C 262.614 2.4003 3.80402 0
M  V30 2801 C 263.933 0.395101 4.38323 0
M  V30 2802 H 261.052 0.20714 0.707292 0
M  V30 2803 H 263.694 1.15725 1.50691 0
M  V30 2804 H 261.844 0.387452 3.86563 0
M  V30 2805 H 263.516 2.97494 3.52555 0
M  V30 2806 H 261.759 2.85028 3.2702 0
M  V30 2807 H 262.43 2.57785 4.8811 0
M  V30 2808 H 264.906 0.826241 4.07814 0
M  V30 2809 H 263.782 0.651086 5.45025 0
M  V30 2810 H 264.043 -0.704798 4.36446 0
M  V30 2811 N 263.102 -1.41638 0.69111 0
M  V30 2812 C 264.012 -2.34588 0.0233487 0
M  V30 2813 C 265.028 -1.55987 -0.770984 0
M  V30 2814 O 266.204 -1.88486 -0.709569 0
M  V30 2815 C 263.269 -3.34684 -0.904851 0
M  V30 2816 C 262.33 -4.29176 -0.103225 0
M  V30 2817 C 261.563 -5.2449 -0.987216 0
M  V30 2818 O 261.786 -5.2514 -2.22674 0
M  V30 2819 O 260.72 -6.00295 -0.439281 0
M  V30 2820 H 264.546 -2.93261 0.789416 0
M  V30 2821 H 262.131 -1.42417 0.45142 0
M  V30 2822 H 264.013 -3.96133 -1.43724 0
M  V30 2823 H 262.688 -2.78461 -1.65049 0
M  V30 2824 H 261.595 -3.71089 0.473655 0
M  V30 2825 H 262.928 -4.88484 0.60365 0
M  V30 2826 N 264.58 -0.43555 -1.51462 0
M  V30 2827 C 265.51 0.367376 -2.30592 0
M  V30 2828 C 266.491 1.02263 -1.35928 0
M  V30 2829 O 267.676 1.02661 -1.64847 0
M  V30 2830 C 264.806 1.46983 -3.14664 0
M  V30 2831 C 263.76 0.938161 -4.17591 0
M  V30 2832 C 263.086 2.13622 -4.90173 0
M  V30 2833 C 264.386 -0.0261621 -5.22293 0
M  V30 2834 H 266.08 -0.292969 -2.97963 0
M  V30 2835 H 263.626 -0.14234 -1.43295 0
M  V30 2836 H 265.579 2.03873 -3.688 0
M  V30 2837 H 264.303 2.15843 -2.4511 0
M  V30 2838 H 262.962 0.391481 -3.64504 0
M  V30 2839 H 262.61 2.81098 -4.17124 0
M  V30 2840 H 262.31 1.78688 -5.59772 0
M  V30 2841 H 263.834 2.7107 -5.47132 0
M  V30 2842 H 265.248 0.452384 -5.71512 0
M  V30 2843 H 263.645 -0.287992 -5.99409 0
M  V30 2844 H 264.715 -0.963391 -4.75233 0
M  V30 2845 N 266.058 1.56714 -0.166846 0
M  V30 2846 C 266.968 2.21331 0.777791 0
M  V30 2847 C 267.984 1.20358 1.25658 0
M  V30 2848 O 269.16 1.53005 1.30964 0
M  V30 2849 C 266.225 2.83787 1.99163 0
M  V30 2850 C 265.286 3.99947 1.56016 0
M  V30 2851 C 264.519 4.59415 2.71613 0
M  V30 2852 O 264.742 4.17769 3.88362 0
M  V30 2853 O 263.676 5.49359 2.45945 0
M  V30 2854 H 267.502 3.02605 0.257636 0
M  V30 2855 H 265.087 1.49275 0.0611393 0
M  V30 2856 H 266.969 3.23405 2.70161 0
M  V30 2857 H 265.644 2.05513 2.50092 0
M  V30 2858 H 264.551 3.65007 0.819809 0
M  V30 2859 H 265.884 4.79801 1.09782 0
M  V30 2860 N 267.536 -0.106894 1.57237 0
M  V30 2861 C 268.784 -0.810921 1.85117 0
M  V30 2862 C 269.105 -1.7984 0.753827 0
M  V30 2863 O 268.375 -1.94649 -0.221056 0
M  V30 2864 H 266.955 -0.302466 0.683025 0
M  V30 2865 H 269.617 -0.0913324 1.94686 0
M  V30 2866 H 268.713 -1.34875 2.81452 0
M  V30 2867 N 269.014 -1.53014 -0.377408 0
M  V30 2868 C 269.946 -1.74884 -1.48149 0
M  V30 2869 C 270.959 -0.629433 -1.5014 0
M  V30 2870 O 272.148 -0.905416 -1.53833 0
M  V30 2871 C 269.248 -1.80299 -2.86959 0
M  V30 2872 C 268.421 -3.09776 -3.08801 0
M  V30 2873 C 267.48 -3.06586 -4.27658 0
M  V30 2874 O 266.506 -3.80419 -4.23403 0
M  V30 2875 N 267.708 -2.26578 -5.34455 0
M  V30 2876 H 270.473 -2.70147 -1.29771 0
M  V30 2877 H 268.034 -1.51646 -0.56703 0
M  V30 2878 H 270.026 -1.75657 -3.64591 0
M  V30 2879 H 268.596 -0.92372 -2.98641 0
M  V30 2880 H 267.816 -3.27815 -2.18931 0
M  V30 2881 H 269.104 -3.95366 -3.20255 0
M  V30 2882 H 268.502 -1.66081 -5.40771 0
M  V30 2883 H 267.059 -2.27766 -6.10709 0
M  V30 2884 N 270.492 0.636531 -1.44174 0
M  V30 2885 C 271.424 1.7618 -1.46606 0
M  V30 2886 C 272.437 1.58768 -0.360091 0
M  V30 2887 O 273.626 1.67181 -0.625518 0
M  V30 2888 C 270.726 3.13833 -1.27915 0
M  V30 2889 C 269.899 3.57753 -2.51658 0
M  V30 2890 C 268.958 4.74265 -2.27945 0
M  V30 2891 O 267.984 4.82852 -3.01401 0
M  V30 2892 N 269.186 5.65604 -1.30662 0
M  V30 2893 H 271.951 1.74567 -2.43612 0
M  V30 2894 H 269.512 0.820924 -1.39544 0
M  V30 2895 H 271.504 3.8949 -1.09907 0
M  V30 2896 H 270.074 3.10121 -0.39293 0
M  V30 2897 H 269.294 2.72362 -2.84978 0
M  V30 2898 H 270.582 3.83847 -3.33974 0
M  V30 2899 H 269.98 5.61354 -0.699844 0
M  V30 2900 H 268.537 6.40913 -1.18634 0
M  V30 2901 N 271.97 1.30982 0.876444 0
M  V30 2902 C 273.381 1.18277 1.44456 0
M  V30 2903 C 273.732 -0.213265 1.95037 0
M  V30 2904 O 272.857 -1.11057 1.85729 0
M  V30 2905 C 273.452 2.1411 2.62569 0
M  V30 2906 C 272.011 2.05358 3.15444 0
M  V30 2907 C 271.158 2.03706 1.88146 0
M  V30 2908 H 274.109 1.43127 0.685584 0
M  V30 2909 H 274.13 1.72692 3.39054 0
M  V30 2910 H 273.642 3.15706 2.25724 0
M  V30 2911 H 271.743 1.06934 3.56926 0
M  V30 2912 H 271.856 2.94156 3.78166 0
M  V30 2913 H 270.22 1.48629 2.06837 0
M  V30 2914 H 271.003 3.07047 1.53547 0
M  V30 2915 N 273.449 -1.08991 1.13837 0
M  V30 2916 C 274.698 -1.80631 0.897509 0
M  V30 2917 C 275.011 -1.86872 -0.57777 0
M  V30 2918 O 276.217 -2.54866 -0.935701 0
M  V30 2919 C 274.673 -3.24517 1.55618 0
M  V30 2920 C 274.281 -3.26529 3.0673 0
M  V30 2921 C 276.025 -4.00882 1.3962 0
M  V30 2922 C 273.932 -4.64965 3.65461 0
M  V30 2923 H 272.862 -0.67691 0.332129 0
M  V30 2924 H 275.513 -1.2246 1.3666 0
M  V30 2925 H 273.895 -3.82778 1.01476 0
M  V30 2926 H 275.069 -2.78008 3.67489 0
M  V30 2927 H 273.384 -2.63656 3.22296 0
M  V30 2928 H 275.981 -5.03167 1.80906 0
M  V30 2929 H 276.324 -4.14896 0.341578 0
M  V30 2930 H 276.857 -3.49075 1.90766 0
M  V30 2931 H 273.596 -4.56153 4.70749 0
M  V30 2932 H 273.116 -5.13792 3.09481 0
M  V30 2933 H 274.795 -5.3394 3.654 0
M  V30 2934 N 274.927 -0.932562 -1.27047 0
M  V30 2935 C 276.152 -0.591474 -1.98787 0
M  V30 2936 C 276.577 0.824601 -1.69062 0
M  V30 2937 O 275.935 1.5541 -0.933677 0
M  V30 2938 C 275.983 -0.829808 -3.50922 0
M  V30 2939 O 275.087 0.102266 -4.12273 0
M  V30 2940 H 274.428 -0.227185 -0.623926 0
M  V30 2941 H 276.958 -1.25314 -1.61733 0
M  V30 2942 H 276.968 -0.747292 -4.01098 0
M  V30 2943 H 275.643 -1.86201 -3.7189 0
M  V30 2944 H 274.22 -0.0305761 -3.72887 0
M  V30 2945 N 276.405 1.4127 -0.698611 0
M  V30 2946 C 277.651 2.01478 -0.231207 0
M  V30 2947 C 277.984 1.55215 1.16713 0
M  V30 2948 O 277.259 0.764672 1.78838 0
M  V30 2949 C 277.542 3.58912 -0.292281 0
M  V30 2950 C 277.395 4.15293 -1.72778 0
M  V30 2951 C 278.714 4.38736 0.346194 0
M  V30 2952 H 275.833 0.732025 -0.0854878 0
M  V30 2953 H 278.475 1.67977 -0.887906 0
M  V30 2954 H 276.625 3.87582 0.26686 0
M  V30 2955 H 278.297 3.97486 -2.341 0
M  V30 2956 H 276.54 3.7022 -2.26096 0
M  V30 2957 H 277.211 5.24452 -1.72202 0
M  V30 2958 H 279.687 4.15897 -0.130035 0
M  V30 2959 H 278.563 5.48221 0.272932 0
M  V30 2960 H 278.824 4.18425 1.42734 0
M  V30 2961 N 277.883 0.443576 1.51229 0
M  V30 2962 C 279.294 -0.0180867 1.86691 0
M  V30 2963 C 279.645 -1.41384 1.36033 0
M  V30 2964 O 278.77 -2.04291 0.713722 0
M  V30 2965 C 279.365 -0.039597 3.38777 0
M  V30 2966 C 277.924 -0.445692 3.73752 0
M  V30 2967 C 277.071 0.357584 2.74985 0
M  V30 2968 H 280.022 0.659138 1.44364 0
M  V30 2969 H 280.043 -0.847761 3.70936 0
M  V30 2970 H 279.555 0.976382 3.75617 0
M  V30 2971 H 277.656 -1.46704 3.42503 0
M  V30 2972 H 277.769 -0.166155 4.78812 0
M  V30 2973 H 276.133 -0.184973 2.54027 0
M  V30 2974 H 276.916 1.37256 3.14668 0
M  V30 2975 N 279.361 -1.56624 0.175154 0
M  V30 2976 C 280.772 -1.83561 -0.340916 0
M  V30 2977 C 281.123 -1.09511 -1.62794 0
M  V30 2978 O 280.248 -0.349389 -2.13561 0
M  V30 2979 C 280.843 -3.32979 -0.625313 0
M  V30 2980 C 279.402 -3.60399 -1.08581 0
M  V30 2981 C 278.549 -2.77024 -0.123722 0
M  V30 2982 H 281.5 -1.53593 0.399344 0
M  V30 2983 H 281.521 -3.50666 -1.47694 0
M  V30 2984 H 281.033 -3.86847 0.311575 0
M  V30 2985 H 279.134 -3.11945 -2.03767 0
M  V30 2986 H 279.247 -4.68711 -0.992317 0
M  V30 2987 H 277.611 -2.46993 -0.621821 0
M  V30 2988 H 278.394 -3.33674 0.807256 0
M  V30 2989 N 280.839 0.0985539 -1.57292 0
M  V30 2990 C 282.064 0.820196 -1.90493 0
M  V30 2991 C 282.489 1.71658 -0.769094 0
M  V30 2992 O 281.847 1.79133 0.279495 0
M  V30 2993 C 281.895 1.61242 -3.22542 0
M  V30 2994 O 280.999 2.72108 -3.09888 0
M  V30 2995 H 280.34 0.225547 -0.62452 0
M  V30 2996 H 282.87 0.0748159 -2.04463 0
M  V30 2997 H 282.88 1.99737 -3.55766 0
M  V30 2998 H 281.555 0.954535 -4.04798 0
M  V30 2999 H 280.132 2.36667 -2.88172 0
M  V30 3000 N 282.317 1.53212 0.369288 0
M  V30 3001 C 283.545 1.73119 1.13303 0
M  V30 3002 C 283.96 0.458455 1.83149 0
M  V30 3003 O 283.317 -0.568403 1.73423 0
M  V30 3004 C 283.368 2.89413 2.16616 0
M  V30 3005 O 283.089 4.11761 1.49614 0
M  V30 3006 C 284.59 3.21161 3.05566 0
M  V30 3007 H 281.81 0.579107 0.338934 0
M  V30 3008 H 284.354 1.99942 0.429338 0
M  V30 3009 H 282.509 2.64994 2.82589 0
M  V30 3010 H 282.923 4.76858 2.18419 0
M  V30 3011 H 284.397 4.05949 3.74045 0
M  V30 3012 H 284.874 2.36369 3.70171 0
M  V30 3013 H 285.48 3.47492 2.45213 0
M  V30 3014 N 283.795 -0.628877 1.44509 0
M  V30 3015 C 284.743 -1.76193 1.51852 0
M  V30 3016 C 285.737 -1.64849 0.390042 0
M  V30 3017 O 286.943 -1.709 0.565082 0
M  V30 3018 H 283.318 -0.581728 0.476547 0
M  V30 3019 H 285.289 -1.67123 2.47209 0
M  V30 3020 C 284.038 -3.14533 1.48204 0
M  V30 3021 H 283.361 -3.23911 2.34354 0
M  V30 3022 H 284.801 -3.93701 1.57402 0
M  V30 3023 C 283.26 -3.36287 0.203142 0
M  V30 3024 O 283.79 -3.9509 -0.725745 0
M  V30 3025 N 281.996 -2.90408 0.105563 0
M  V30 3026 H 281.543 -2.42739 0.862301 0
M  V30 3027 H 281.501 -3.05339 -0.749371 0
M  V30 3028 N 285.273 -1.31445 -0.869486 0
M  V30 3029 C 286.498 -1.24256 -1.66058 0
M  V30 3030 C 286.923 0.188928 -1.87149 0
M  V30 3031 O 286.281 1.13522 -1.4136 0
M  V30 3032 C 286.329 -1.9924 -3.00559 0
M  V30 3033 O 285.433 -1.33007 -3.90362 0
M  V30 3034 H 284.774 -0.428973 -0.506831 0
M  V30 3035 H 287.304 -1.73521 -1.08404 0
M  V30 3036 H 287.314 -2.08854 -3.50491 0
M  V30 3037 H 285.989 -3.03342 -2.84528 0
M  V30 3038 H 284.566 -1.31848 -3.48813 0
M  V30 3039 N 286.751 1.08385 -1.14413 0
M  V30 3040 C 287.979 1.84517 -0.936001 0
M  V30 3041 C 288.394 1.81626 0.515503 0
M  V30 3042 O 287.751 1.22008 1.35721 0
M  V30 3043 C 287.802 3.32049 -1.42918 0
M  V30 3044 O 287.523 3.34951 -2.82381 0
M  V30 3045 C 289.024 4.24986 -1.26103 0
M  V30 3046 H 286.244 0.582491 -0.333084 0
M  V30 3047 H 288.788 1.36885 -1.5193 0
M  V30 3048 H 286.943 3.7707 -0.888641 0
M  V30 3049 H 287.357 4.27048 -3.04517 0
M  V30 3050 H 288.831 5.26615 -1.6547 0
M  V30 3051 H 289.308 4.38726 -0.20392 0
M  V30 3052 H 289.914 3.85791 -1.79012 0
M  V30 3053 N 288.23 0.939286 1.26551 0
M  V30 3054 C 289.476 0.586715 1.94128 0
M  V30 3055 C 289.809 -0.8717 1.73537 0
M  V30 3056 O 289.084 -1.62339 1.07127 0
M  V30 3057 C 289.367 0.927497 3.4795 0
M  V30 3058 C 289.22 2.44052 3.77834 0
M  V30 3059 C 290.539 0.441569 4.37879 0
M  V30 3060 H 287.658 0.21463 0.705055 0
M  V30 3061 H 290.3 1.17316 1.49455 0
M  V30 3062 H 288.45 0.428431 3.8613 0
M  V30 3063 H 290.122 3.01216 3.4938 0
M  V30 3064 H 288.365 2.8848 3.23978 0
M  V30 3065 H 289.036 2.62947 4.85348 0
M  V30 3066 H 291.512 0.869448 4.06915 0
M  V30 3067 H 290.388 0.708856 5.44304 0
M  V30 3068 H 290.649 -0.658467 4.37169 0
M  V30 3069 N 289.708 -1.40897 0.706093 0
M  V30 3070 C 290.938 -2.05075 0.250523 0
M  V30 3071 C 291.346 -1.53275 -1.10921 0
M  V30 3072 O 290.689 -0.680281 -1.7064 0
M  V30 3073 C 290.751 -3.59219 0.142178 0
M  V30 3074 C 290.415 -4.33864 1.43566 0
M  V30 3075 C 291.412 -4.62448 2.37566 0
M  V30 3076 C 289.097 -4.72946 1.69195 0
M  V30 3077 C 291.091 -5.29088 3.5545 0
M  V30 3078 C 288.778 -5.3932 2.87362 0
M  V30 3079 C 289.776 -5.6732 3.80312 0
M  V30 3080 O 289.464 -6.32325 4.96408 0
M  V30 3081 H 289.196 -0.666645 0.112074 0
M  V30 3082 H 291.75 -1.81467 0.962239 0
M  V30 3083 H 289.98 -3.81609 -0.6254 0
M  V30 3084 H 291.669 -4.0495 -0.277584 0
M  V30 3085 H 292.435 -4.32727 2.19027 0
M  V30 3086 H 288.314 -4.50527 0.977042 0
M  V30 3087 H 291.858 -5.50859 4.28018 0
M  V30 3088 H 287.755 -5.68461 3.05814 0
M  V30 3089 H 288.523 -6.50821 4.9636 0
M  V30 3090 N 291.186 -0.45159 -1.50991 0
M  V30 3091 C 292.602 -0.104647 -1.59257 0
M  V30 3092 C 292.802 1.38728 -1.4614 0
M  V30 3093 O 291.858 2.15866 -1.30989 0
M  V30 3094 C 293.171 -0.637468 -2.93865 0
M  V30 3095 C 294.719 -0.599166 -3.07212 0
M  V30 3096 C 295.194 -1.1092 -4.44366 0
M  V30 3097 N 296.685 -1.06778 -4.50725 0
M  V30 3098 C 297.42 -1.43314 -5.55201 0
M  V30 3099 N 296.916 -1.87204 -6.67028 0
M  V30 3100 N 298.709 -1.3504 -5.45638 0
M  V30 3101 H 290.86 -1.42214 -1.57762 0
M  V30 3102 H 293.123 -0.586921 -0.744465 0
M  V30 3103 H 292.829 -1.68187 -3.08879 0
M  V30 3104 H 292.703 -0.0702139 -3.77135 0
M  V30 3105 H 295.09 0.436277 -2.91857 0
M  V30 3106 H 295.171 -1.20299 -2.25747 0
M  V30 3107 H 294.815 -2.14318 -4.60467 0
M  V30 3108 H 294.745 -0.481773 -5.24392 0
M  V30 3109 H 297.236 -0.745643 -3.70471 0
M  V30 3110 H 297.549 -2.13282 -7.42786 0
M  V30 3111 H 295.894 -1.91142 -6.68199 0
M  V30 3112 H 299.085 -1.00607 -4.57161 0
M  V30 3113 H 299.258 -1.63841 -6.26945 0
M  V30 3114 N 292.664 1.56529 -0.183458 0
M  V30 3115 C 293.912 1.96855 0.457452 0
M  V30 3116 C 294.233 1.07104 1.62953 0
M  V30 3117 O 293.503 0.139887 1.954 0
M  V30 3118 H 292.083 0.72693 0.171992 0
M  V30 3119 H 294.745 1.93056 -0.267476 0
M  V30 3120 H 293.841 3.01423 0.809368 0
M  V30 3121 N 294.142 -0.090211 1.57342 0
M  V30 3122 C 295.072 -1.10976 2.05443 0
M  V30 3123 C 296.053 -1.41482 0.944284 0
M  V30 3124 O 297.238 -1.51428 1.21586 0
M  V30 3125 C 294.368 -2.42831 2.48295 0
M  V30 3126 C 293.322 -2.26721 3.63018 0
M  V30 3127 C 292.648 -3.63796 3.91863 0
M  V30 3128 C 293.948 -1.7037 4.93732 0
M  V30 3129 H 295.642 -0.709564 2.9087 0
M  V30 3130 H 293.188 -0.339874 1.39932 0
M  V30 3131 H 295.141 -3.14431 2.80555 0
M  V30 3132 H 293.865 -2.84795 1.59873 0
M  V30 3133 H 292.524 -1.57565 3.31012 0
M  V30 3134 H 292.172 -4.03297 3.00601 0
M  V30 3135 H 291.872 -3.53861 4.69101 0
M  V30 3136 H 293.396 -4.36855 4.26603 0
M  V30 3137 H 294.81 -2.31816 5.24342 0
M  V30 3138 H 293.207 -1.71181 5.75167 0
M  V30 3139 H 294.277 -0.663542 4.80339 0
M  V30 3140 N 295.62 -1.53406 -0.361157 0
M  V30 3141 C 296.53 -1.83122 -1.4664 0
M  V30 3142 C 297.546 -0.719943 -1.58407 0
M  V30 3143 O 298.722 -1.01046 -1.74218 0
M  V30 3144 C 295.787 -2.01891 -2.81853 0
M  V30 3145 C 294.848 -3.25784 -2.79577 0
M  V30 3146 C 294.081 -3.43648 -4.0834 0
M  V30 3147 O 294.304 -2.65714 -5.0473 0
M  V30 3148 O 293.238 -4.37018 -4.13883 0
M  V30 3149 H 297.064 -2.7703 -1.24451 0
M  V30 3150 H 294.649 -1.38841 -0.551678 0
M  V30 3151 H 296.531 -2.15782 -3.61962 0
M  V30 3152 H 295.206 -1.11173 -3.0401 0
M  V30 3153 H 294.113 -3.17312 -1.98151 0
M  V30 3154 H 295.446 -4.16439 -2.62373 0
M  V30 3155 N 297.098 0.621204 -1.44841 0
M  V30 3156 C 298.346 1.37783 -1.47852 0
M  V30 3157 C 298.667 1.94653 -0.116224 0
M  V30 3158 O 297.937 1.76367 0.852737 0
M  V30 3159 H 296.517 0.511453 -0.544449 0
M  V30 3160 H 299.179 0.730446 -1.80694 0
M  V30 3161 H 298.275 2.20414 -2.20961 0
M  V30 3162 N 298.576 1.31904 0.862503 0
M  V30 3163 C 299.823 1.22017 1.61611 0
M  V30 3164 C 300.151 -0.21991 1.93253 0
M  V30 3165 O 299.406 -1.17076 1.56817 0
M  V30 3166 C 299.705 2.01713 2.95037 0
M  V30 3167 C 299.371 3.51145 2.82857 0
M  V30 3168 C 298.033 3.91889 2.79243 0
M  V30 3169 C 300.385 4.46204 2.69353 0
M  V30 3170 C 297.713 5.25947 2.59993 0
M  V30 3171 C 300.065 5.80397 2.5164 0
M  V30 3172 C 298.729 6.20352 2.46413 0
M  V30 3173 H 297.999 0.44649 0.591378 0
M  V30 3174 H 300.646 1.63248 1.00111 0
M  V30 3175 H 298.951 1.53185 3.60613 0
M  V30 3176 H 300.648 1.91437 3.52353 0
M  V30 3177 H 297.238 3.1878 2.86491 0
M  V30 3178 H 301.422 4.15652 2.71196 0
M  V30 3179 H 296.678 5.5597 2.54376 0
M  V30 3180 H 300.852 6.53676 2.40169 0
M  V30 3181 H 298.479 7.24172 2.31256 0
M  V30 3182 N 300.054 -1.07777 1.14986 0
M  V30 3183 C 301.3 -1.80557 0.923422 0
M  V30 3184 C 301.633 -1.86298 -0.548337 0
M  V30 3185 O 300.908 -1.34354 -1.40639 0
M  V30 3186 C 301.191 -3.25839 1.53299 0
M  V30 3187 C 301.044 -3.28269 3.07505 0
M  V30 3188 C 302.363 -4.22991 1.21518 0
M  V30 3189 H 299.482 -0.655493 0.336894 0
M  V30 3190 H 302.124 -1.26144 1.42083 0
M  V30 3191 H 300.274 -3.72306 1.10999 0
M  V30 3192 H 301.946 -2.90079 3.58681 0
M  V30 3193 H 300.189 -2.67355 3.4162 0
M  V30 3194 H 300.86 -4.30691 3.45266 0
M  V30 3195 H 303.336 -3.84894 1.581 0
M  V30 3196 H 302.212 -5.22945 1.66793 0
M  V30 3197 H 302.473 -4.41904 0.131505 0
M  V30 3198 N 301.532 -0.945985 -1.26051 0
M  V30 3199 C 302.495 -0.463897 -2.24456 0
M  V30 3200 C 303.495 0.427655 -1.55009 0
M  V30 3201 O 304.685 0.226157 -1.72726 0
M  V30 3202 C 301.817 0.330812 -3.39291 0
M  V30 3203 H 303.01 -1.33357 -2.68619 0
M  V30 3204 H 300.563 -0.728416 -1.38289 0
M  V30 3205 H 301.298 1.21852 -3.00537 0
M  V30 3206 H 301.083 -0.308679 -3.90883 0
M  V30 3207 H 302.573 0.657865 -4.12386 0
M  V30 3208 N 303.011 1.40521 -0.713556 0
M  V30 3209 C 303.974 2.29098 -0.0684347 0
M  V30 3210 C 304.974 1.45268 0.689472 0
M  V30 3211 O 306.164 1.66205 0.521677 0
M  V30 3212 C 303.296 3.28446 0.913024 0
M  V30 3213 H 304.489 2.87645 -0.84855 0
M  V30 3214 H 302.042 1.48809 -0.47809 0
M  V30 3215 H 302.777 2.74913 1.72027 0
M  V30 3216 H 302.562 3.90327 0.372472 0
M  V30 3217 H 304.052 3.94777 1.36165 0
M  V30 3218 N 304.489 0.459591 1.5075 0
M  V30 3219 C 305.738 -0.100971 2.01447 0
M  V30 3220 C 306.051 -1.41816 1.34713 0
M  V30 3221 O 307.257 -2.06299 1.76502 0
M  V30 3222 C 305.713 -0.23047 3.59161 0
M  V30 3223 C 305.321 1.0776 4.34847 0
M  V30 3224 C 307.065 -0.743608 4.17936 0
M  V30 3225 C 304.972 0.91253 5.84317 0
M  V30 3226 H 303.902 -0.0415102 0.752856 0
M  V30 3227 H 306.553 0.592742 1.73663 0
M  V30 3228 H 304.935 -0.987703 3.83485 0
M  V30 3229 H 306.109 1.8449 4.22256 0
M  V30 3230 H 304.424 1.52097 3.87628 0
M  V30 3231 H 307.021 -0.883959 5.27343 0
M  V30 3232 H 307.364 -1.73196 3.78562 0
M  V30 3233 H 307.897 -0.04408 3.97776 0
M  V30 3234 H 304.636 1.87391 6.28144 0
M  V30 3235 H 304.156 0.185422 5.99513 0
M  V30 3236 H 305.835 0.574547 6.44444 0
M  V30 3237 N 305.967 -1.56429 0.191757 0
M  V30 3238 C 307.192 -2.02309 -0.456706 0
M  V30 3239 C 307.617 -1.07103 -1.5463 0
M  V30 3240 O 306.975 -0.0539677 -1.8122 0
M  V30 3241 C 307.023 -3.46654 -0.993159 0
M  V30 3242 O 306.127 -3.54559 -2.10622 0
M  V30 3243 H 305.468 -0.655303 -0.107114 0
M  V30 3244 H 307.998 -2.02364 0.301653 0
M  V30 3245 H 308.008 -3.86377 -1.31061 0
M  V30 3246 H 306.683 -4.1544 -0.195504 0
M  V30 3247 H 305.26 -3.26708 -1.79767 0
M  V30 3248 N 307.445 0.0818655 -1.57387 0
M  V30 3249 C 308.856 0.634871 -1.75574 0
M  V30 3250 C 309.207 1.78435 -0.815809 0
M  V30 3251 O 308.332 2.164 0.0025366 0
M  V30 3252 C 308.927 1.15845 -3.18379 0
M  V30 3253 C 307.486 1.65741 -3.37945 0
M  V30 3254 C 306.633 0.572549 -2.71325 0
M  V30 3255 H 309.584 -0.144268 -1.58043 0
M  V30 3256 H 309.605 2.02751 -3.21982 0
M  V30 3257 H 309.117 0.321631 -3.86765 0
M  V30 3258 H 307.218 2.51781 -2.74658 0
M  V30 3259 H 307.331 1.74129 -4.46336 0
M  V30 3260 H 305.695 1.01518 -2.33594 0
M  V30 3261 H 306.478 -0.253918 -3.4236 0
M  V30 3262 N 308.923 1.53595 0.353017 0
M  V30 3263 C 310.17 1.70385 1.09431 0
M  V30 3264 C 310.498 0.462113 1.88931 0
M  V30 3265 O 309.753 -0.556074 1.87633 0
M  V30 3266 C 310.052 2.91313 2.07054 0
M  V30 3267 C 309.718 4.27308 1.43939 0
M  V30 3268 C 308.38 4.64287 1.26454 0
M  V30 3269 C 310.732 5.11829 0.983883 0
M  V30 3270 C 308.06 5.83412 0.620226 0
M  V30 3271 C 310.412 6.31611 0.353516 0
M  V30 3272 C 309.076 6.67293 0.166272 0
M  V30 3273 H 308.346 0.623484 0.400436 0
M  V30 3274 H 310.993 1.87799 0.374655 0
M  V30 3275 H 309.298 2.68463 2.85368 0
M  V30 3276 H 310.995 3.01497 2.64387 0
M  V30 3277 H 307.585 3.98198 1.58543 0
M  V30 3278 H 311.769 4.838 1.10685 0
M  V30 3279 H 307.025 6.09639 0.463681 0
M  V30 3280 H 311.199 6.964 -0.00757555 0
M  V30 3281 H 308.826 7.59461 -0.335047 0
M  V30 3282 N 310.401 -0.613514 1.45168 0
M  V30 3283 C 311.349 -1.74572 1.53712 0
M  V30 3284 C 312.343 -1.64426 0.407505 0
M  V30 3285 O 313.549 -1.70291 0.583176 0
M  V30 3286 H 309.924 -0.576641 0.48269 0
M  V30 3287 H 311.895 -1.64492 2.48968 0
M  V30 3288 C 310.644 -3.12943 1.51532 0
M  V30 3289 H 309.967 -3.21407 2.37776 0
M  V30 3290 H 311.407 -3.9201 1.61569 0
M  V30 3291 C 309.866 -3.36053 0.238798 0
M  V30 3292 O 310.396 -3.95837 -0.6838 0
M  V30 3293 N 308.602 -2.9028 0.136359 0
M  V30 3294 H 308.149 -2.41811 0.887999 0
M  V30 3295 H 308.107 -3.06116 -0.716944 0
M  V30 3296 N 311.879 -1.3236 -0.855495 0
M  V30 3297 C 313.126 -1.22872 -1.60962 0
M  V30 3298 C 313.454 0.209658 -1.93367 0
M  V30 3299 O 312.709 1.16243 -1.57436 0
M  V30 3300 C 313.008 -2.03275 -2.93963 0
M  V30 3301 C 312.674 -3.5264 -2.80991 0
M  V30 3302 C 311.336 -3.93364 -2.7716 0
M  V30 3303 C 313.688 -4.47626 -2.66983 0
M  V30 3304 C 311.016 -5.27319 -2.572 0
M  V30 3305 C 313.368 -5.81723 -2.48558 0
M  V30 3306 C 312.032 -6.2165 -2.4312 0
M  V30 3307 H 311.302 -0.44962 -0.589001 0
M  V30 3308 H 313.949 -1.63777 -0.992442 0
M  V30 3309 H 312.254 -1.55095 -3.59795 0
M  V30 3310 H 313.951 -1.93303 -3.51333 0
M  V30 3311 H 310.541 -3.20295 -2.84797 0
M  V30 3312 H 314.725 -4.17084 -2.68988 0
M  V30 3313 H 309.981 -5.57311 -2.51424 0
M  V30 3314 H 314.155 -6.5494 -2.36699 0
M  V30 3315 H 311.782 -7.25388 -2.27412 0
M  V30 3316 N 313.357 1.07166 -1.15556 0
M  V30 3317 C 314.585 1.83514 -0.955519 0
M  V30 3318 C 315 1.82163 0.49621 0
M  V30 3319 O 314.357 1.23441 1.34419 0
M  V30 3320 C 314.408 3.30515 -1.46432 0
M  V30 3321 O 314.129 3.31937 -2.85918 0
M  V30 3322 C 315.63 4.23625 -1.30603 0
M  V30 3323 H 312.85 0.578926 -0.339244 0
M  V30 3324 H 315.394 1.35265 -1.53374 0
M  V30 3325 H 313.549 3.76106 -0.928584 0
M  V30 3326 H 313.963 4.23794 -3.09029 0
M  V30 3327 H 315.437 5.24831 -1.71047 0
M  V30 3328 H 315.914 4.38485 -0.250441 0
M  V30 3329 H 316.52 3.83871 -1.83094 0
M  V30 3330 N 314.835 0.952656 1.25548 0
M  V30 3331 C 315.798 0.475794 2.24207 0
M  V30 3332 C 316.798 -0.419428 1.55234 0
M  V30 3333 O 317.988 -0.216994 1.72843 0
M  V30 3334 C 315.12 -0.312814 3.39462 0
M  V30 3335 H 316.313 1.34779 2.67908 0
M  V30 3336 H 313.866 0.735739 1.37901 0
M  V30 3337 H 314.601 -1.20257 3.01179 0
M  V30 3338 H 314.386 0.329404 3.90714 0
M  V30 3339 H 315.876 -0.635986 4.12729 0
M  V30 3340 N 316.313 -1.40141 0.720998 0
M  V30 3341 C 317.562 -2.0002 0.259804 0
M  V30 3342 C 317.875 -1.57839 -1.15526 0
M  V30 3343 O 319.081 -2.10455 -1.71525 0
M  V30 3344 C 317.537 -3.57516 0.413566 0
M  V30 3345 C 317.145 -4.08667 1.83562 0
M  V30 3346 C 318.889 -4.24498 0.0134387 0
M  V30 3347 C 316.796 -5.58686 1.93968 0
M  V30 3348 H 315.726 -0.748195 0.0933806 0
M  V30 3349 H 318.377 -1.60313 0.892866 0
M  V30 3350 H 316.759 -3.9495 -0.288169 0
M  V30 3351 H 317.933 -3.82598 2.56817 0
M  V30 3352 H 316.248 -3.543 2.1877 0
M  V30 3353 H 318.845 -5.34654 0.0703954 0
M  V30 3354 H 319.188 -4.03375 -1.02927 0
M  V30 3355 H 319.721 -3.92188 0.665815 0
M  V30 3356 H 316.46 -5.8467 2.96379 0
M  V30 3357 H 315.98 -5.86602 1.25131 0
M  V30 3358 H 317.659 -6.23875 1.71431 0
M  V30 3359 N 317.792 -0.46758 -1.50504 0
M  V30 3360 C 319.04 0.0884469 -2.01906 0
M  V30 3361 C 319.361 1.40532 -1.35188 0
M  V30 3362 O 318.631 1.89515 -0.496079 0
M  V30 3363 H 317.211 0.0356765 -0.746148 0
M  V30 3364 H 319.873 -0.6172 -1.84869 0
M  V30 3365 H 318.969 0.2425 -3.11156 0
M  V30 3366 N 319.27 1.56325 -0.20005 0
M  V30 3367 C 320.518 1.97329 0.436547 0
M  V30 3368 C 320.839 1.08826 1.61808 0
M  V30 3369 O 320.109 0.160604 1.95241 0
M  V30 3370 H 318.689 0.728714 0.164272 0
M  V30 3371 H 321.351 1.92761 -0.287937 0
M  V30 3372 H 320.447 3.02264 0.777353 0
M  V30 3373 N 320.748 -0.0735177 1.57428 0
M  V30 3374 C 321.696 -1.10628 2.04607 0
M  V30 3375 C 322.69 -1.40181 0.951088 0
M  V30 3376 O 323.896 -1.39608 1.1362 0
M  V30 3377 H 320.271 -0.374088 0.652351 0
M  V30 3378 H 322.242 -0.682218 2.90497 0
M  V30 3379 C 320.991 -2.41212 2.50423 0
M  V30 3380 H 320.314 -2.19322 3.34272 0
M  V30 3381 H 321.754 -3.11927 2.87189 0
M  V30 3382 C 320.213 -3.0705 1.38644 0
M  V30 3383 O 320.743 -3.95056 0.727582 0
M  V30 3384 N 318.949 -2.67645 1.132 0
M  V30 3385 H 318.496 -1.96169 1.66959 0
M  V30 3386 H 318.454 -3.1202 0.386147 0
M  V30 3387 N 322.226 -1.5378 -0.344866 0
M  V30 3388 C 323.156 -1.84662 -1.42906 0
M  V30 3389 C 324.137 -0.701648 -1.54955 0
M  V30 3390 O 325.322 -0.953438 -1.69184 0
M  V30 3391 C 322.452 -2.05503 -2.79974 0
M  V30 3392 C 321.406 -3.21318 -2.82734 0
M  V30 3393 C 320.732 -3.2749 -4.22675 0
M  V30 3394 C 322.032 -4.59456 -2.48389 0
M  V30 3395 H 323.726 -2.75461 -1.17311 0
M  V30 3396 H 321.272 -1.32542 -0.562896 0
M  V30 3397 H 323.225 -2.25691 -3.55867 0
M  V30 3398 H 321.949 -1.11434 -3.07002 0
M  V30 3399 H 320.608 -3.00984 -2.09294 0
M  V30 3400 H 320.256 -2.31019 -4.4681 0
M  V30 3401 H 319.956 -4.05316 -4.25433 0
M  V30 3402 H 321.48 -3.49887 -5.00412 0
M  V30 3403 H 322.894 -4.79667 -3.13995 0
M  V30 3404 H 321.291 -5.39675 -2.62432 0
M  V30 3405 H 322.361 -4.63155 -1.4358 0
M  V30 3406 N 323.704 0.605807 -1.45491 0
M  V30 3407 C 324.667 1.69836 -1.5391 0
M  V30 3408 C 325.667 1.55261 -0.418424 0
M  V30 3409 O 326.857 1.60296 -0.681965 0
M  V30 3410 C 323.989 3.09117 -1.43734 0
M  V30 3411 H 325.182 1.63738 -2.51257 0
M  V30 3412 H 322.735 0.821689 -1.32959 0
M  V30 3413 H 323.47 3.20791 -0.475788 0
M  V30 3414 H 323.255 3.21104 -2.25021 0
M  V30 3415 H 324.745 3.88696 -1.52661 0
M  V30 3416 N 325.182 1.32811 0.848464 0
M  V30 3417 C 326.43 1.23479 1.59991 0
M  V30 3418 C 326.751 -0.201853 1.93952 0
M  V30 3419 O 326.021 -1.12818 1.60153 0
M  V30 3420 H 324.601 0.454034 0.593179 0
M  V30 3421 H 327.263 1.66412 1.01455 0
M  V30 3422 H 326.359 1.82178 2.53412 0
M  V30 3423 N 326.66 -1.06551 1.16123 0
M  V30 3424 C 327.623 -2.12132 0.867906 0
M  V30 3425 C 328.623 -1.60224 -0.135944 0
M  V30 3426 O 329.813 -1.73943 0.0946422 0
M  V30 3427 C 326.945 -3.396 0.297419 0
M  V30 3428 H 328.138 -2.39586 1.80385 0
M  V30 3429 H 325.691 -1.22574 0.969812 0
M  V30 3430 H 326.426 -3.17794 -0.64633 0
M  V30 3431 H 326.211 -3.78581 1.02073 0
M  V30 3432 H 327.701 -4.17455 0.110052 0
M  V30 3433 N 328.138 -0.959301 -1.25041 0
M  V30 3434 C 329.549 -0.65667 -1.74771 0
M  V30 3435 C 329.9 0.827852 -1.77879 0
M  V30 3436 O 329.025 1.64783 -1.40269 0
M  V30 3437 C 329.62 -1.1853 -3.1739 0
M  V30 3438 C 328.179 -0.932734 -3.6466 0
M  V30 3439 C 327.326 -1.32558 -2.43564 0
M  V30 3440 H 330.277 -1.13558 -1.10862 0
M  V30 3441 H 330.298 -0.547582 -3.76539 0
M  V30 3442 H 329.81 -2.26576 -3.15095 0
M  V30 3443 H 327.911 0.13257 -3.72364 0
M  V30 3444 H 328.024 -1.57248 -4.52559 0
M  V30 3445 H 326.388 -0.743956 -2.43593 0
M  V30 3446 H 327.171 -2.41537 -2.43957 0
M  V30 3447 N 329.616 1.39756 -0.72842 0
M  V30 3448 C 330.579 2.29012 -0.0927297 0
M  V30 3449 C 331.579 1.45992 0.674025 0
M  V30 3450 O 332.769 1.66749 0.50402 0
M  V30 3451 C 329.901 3.29396 0.878137 0
M  V30 3452 H 331.094 2.86729 -0.879011 0
M  V30 3453 H 328.647 1.48293 -0.493847 0
M  V30 3454 H 329.382 2.76722 1.69101 0
M  V30 3455 H 329.167 3.907 0.331051 0
M  V30 3456 H 330.657 3.96199 1.3197 0
M  V30 3457 N 331.094 0.475555 1.50254 0
M  V30 3458 C 332.024 -0.30611 2.31485 0
M  V30 3459 C 333.005 -0.986228 1.38591 0
M  V30 3460 O 334.19 -0.982541 1.67511 0
M  V30 3461 C 331.32 -1.38588 3.1845 0
M  V30 3462 C 330.274 -0.827115 4.19932 0
M  V30 3463 C 329.6 -2.00551 4.95665 0
M  V30 3464 C 330.9 0.16463 5.2204 0
M  V30 3465 H 332.594 0.371866 2.97082 0
M  V30 3466 H 330.14 0.180282 1.42867 0
M  V30 3467 H 332.093 -1.94023 3.74076 0
M  V30 3468 H 330.817 -2.09269 2.50747 0
M  V30 3469 H 329.476 -0.294702 3.65414 0
M  V30 3470 H 329.124 -2.6994 4.2443 0
M  V30 3471 H 328.824 -1.63784 5.64313 0
M  V30 3472 H 330.348 -2.56468 5.54127 0
M  V30 3473 H 331.762 -0.300699 5.72511 0
M  V30 3474 H 330.159 0.446813 5.98434 0
M  V30 3475 H 331.229 1.08905 4.72512 0
M  V30 3476 N 332.573 -1.56217 0.208337 0
M  V30 3477 C 333.506 -2.15633 -0.746842 0
M  V30 3478 C 334.484 -1.09685 -1.20034 0
M  V30 3479 O 335.668 -1.3787 -1.28547 0
M  V30 3480 C 332.795 -2.72594 -2.01023 0
M  V30 3481 C 331.841 -3.91251 -1.69779 0
M  V30 3482 S 332.674 -5.28962 -0.834209 0
M  V30 3483 C 333.83 -5.89353 -2.10745 0
M  V30 3484 H 334.063 -2.96315 -0.241789 0
M  V30 3485 H 331.596 -1.54398 -0.00682183 0
M  V30 3486 H 333.554 -3.06053 -2.73572 0
M  V30 3487 H 332.215 -1.91929 -2.48641 0
M  V30 3488 H 331.408 -4.29562 -2.63614 0
M  V30 3489 H 331.01 -3.58869 -1.05303 0
M  V30 3490 H 333.302 -6.04522 -3.05875 0
M  V30 3491 H 334.245 -6.85661 -1.76845 0
M  V30 3492 H 334.653 -5.1807 -2.24196 0
M  V30 3493 N 334.051 0.0651679 -1.57465 0
M  V30 3494 C 335.299 0.761555 -1.87202 0
M  V30 3495 C 335.62 1.77778 -0.801243 0
M  V30 3496 O 334.89 1.95166 0.16937 0
M  V30 3497 H 333.47 0.284251 -0.690804 0
M  V30 3498 H 336.132 0.0396827 -1.9486 0
M  V30 3499 H 335.228 1.27365 -2.84929 0
M  V30 3500 N 335.529 1.53961 0.336706 0
M  V30 3501 C 336.477 1.83136 1.43401 0
M  V30 3502 C 337.471 0.702313 1.54156 0
M  V30 3503 O 338.677 0.885765 1.56698 0
M  V30 3504 H 335.052 0.580309 0.478273 0
M  V30 3505 H 337.023 2.74925 1.16012 0
M  V30 3506 C 335.772 2.06385 2.79822 0
M  V30 3507 H 335.095 2.92718 2.72316 0
M  V30 3508 H 336.535 2.30761 3.55704 0
M  V30 3509 C 334.994 0.851414 3.25964 0
M  V30 3510 O 335.524 0.0541904 4.01663 0
M  V30 3511 N 333.73 0.66672 2.82848 0
M  V30 3512 H 333.277 1.31665 2.21409 0
M  V30 3513 H 333.235 -0.143032 3.14074 0
M  V30 3514 N 337.007 -0.598083 1.45811 0
M  V30 3515 C 338.253 -1.35882 1.50545 0
M  V30 3516 C 338.586 -1.93616 0.150445 0
M  V30 3517 O 337.861 -1.75604 -0.83628 0
M  V30 3518 C 338.144 -2.49966 2.59208 0
M  V30 3519 C 337.997 -1.97367 4.04186 0
M  V30 3520 C 339.316 -3.52068 2.64076 0
M  V30 3521 H 336.435 -0.492717 0.548087 0
M  V30 3522 H 339.077 -0.673319 1.77669 0
M  V30 3523 H 337.227 -3.08443 2.3621 0
M  V30 3524 H 338.899 -1.43466 4.38423 0
M  V30 3525 H 337.142 -1.283 4.14393 0
M  V30 3526 H 337.813 -2.79649 4.75921 0
M  V30 3527 H 340.289 -3.03448 2.84708 0
M  V30 3528 H 339.165 -4.2937 3.41954 0
M  V30 3529 H 339.426 -4.08304 1.69531 0
M  V30 3530 N 338.485 -1.33259 -0.841409 0
M  V30 3531 C 339.731 -1.24757 -1.59886 0
M  V30 3532 C 340.064 0.186913 -1.93298 0
M  V30 3533 O 339.339 1.12757 -1.5848 0
M  V30 3534 C 339.622 -2.12036 -2.91055 0
M  V30 3535 C 339.475 -3.63929 -2.6434 0
M  V30 3536 C 340.794 -1.9916 -3.92458 0
M  V30 3537 H 337.913 -0.454542 -0.580138 0
M  V30 3538 H 340.555 -1.63335 -0.970647 0
M  V30 3539 H 338.705 -1.79265 -3.44669 0
M  V30 3540 H 340.377 -4.06978 -2.17178 0
M  V30 3541 H 338.62 -3.85935 -1.98082 0
M  V30 3542 H 339.291 -4.20341 -3.57796 0
M  V30 3543 H 341.767 -2.27895 -3.48143 0
M  V30 3544 H 340.643 -2.62484 -4.82072 0
M  V30 3545 H 340.904 -0.963082 -4.31482 0
M  V30 3546 N 339.963 1.05934 -1.16686 0
M  V30 3547 C 340.893 2.1546 -0.899949 0
M  V30 3548 C 341.874 1.69391 0.155154 0
M  V30 3549 O 343.059 1.94199 0.00648693 0
M  V30 3550 C 340.189 3.44939 -0.404241 0
M  V30 3551 C 339.143 4.04536 -1.39767 0
M  V30 3552 C 338.469 5.29268 -0.760216 0
M  V30 3553 C 339.769 4.42893 -2.76845 0
M  V30 3554 H 341.463 2.38046 -1.81588 0
M  V30 3555 H 339.009 1.14404 -0.874514 0
M  V30 3556 H 340.962 4.20901 -0.204971 0
M  V30 3557 H 339.686 3.21983 0.547206 0
M  V30 3558 H 338.345 3.30635 -1.58355 0
M  V30 3559 H 337.993 5.02611 0.197831 0
M  V30 3560 H 337.693 5.70101 -1.42332 0
M  V30 3561 H 339.217 6.07924 -0.57105 0
M  V30 3562 H 340.631 5.09921 -2.62019 0
M  V30 3563 H 339.028 4.94721 -3.39663 0
M  V30 3564 H 340.098 3.53584 -3.31823 0
M  V30 3565 N 341.441 0.965919 1.2453 0
M  V30 3566 C 342.687 0.637349 1.93156 0
M  V30 3567 C 343.042 -0.818261 1.74133 0
M  V30 3568 O 342.335 -1.58079 1.08266 0
M  V30 3569 C 342.529 0.945428 3.44669 0
M  V30 3570 C 342.358 2.42944 3.78429 0
M  V30 3571 C 341.128 3.08895 3.9989 0
M  V30 3572 C 343.326 3.40941 3.8505 0
M  V30 3573 N 341.308 4.47052 4.20735 0
M  V30 3574 C 342.679 4.64448 4.10717 0
M  V30 3575 C 344.734 3.35624 3.67779 0
M  V30 3576 C 343.437 5.83292 4.20907 0
M  V30 3577 C 345.463 4.53818 3.79214 0
M  V30 3578 C 344.825 5.76114 4.05304 0
M  V30 3579 H 340.924 0.284034 0.728594 0
M  V30 3580 H 343.508 1.24041 1.50073 0
M  V30 3581 H 341.679 0.371193 3.86622 0
M  V30 3582 H 343.411 0.575613 4.00586 0
M  V30 3583 H 340.166 2.59432 3.96222 0
M  V30 3584 H 340.59 5.18634 4.35141 0
M  V30 3585 H 345.232 2.4211 3.46616 0
M  V30 3586 H 342.95 6.77236 4.40883 0
M  V30 3587 H 346.536 4.51263 3.67224 0
M  V30 3588 H 345.416 6.66045 4.13949 0
M  V30 3589 N 342.919 -1.39368 0.735821 0
M  V30 3590 C 343.866 -2.30599 0.0963825 0
M  V30 3591 C 344.836 -1.49257 -0.728794 0
M  V30 3592 O 346.021 -1.77941 -0.688588 0
M  V30 3593 C 343.161 -3.35596 -0.804305 0
M  V30 3594 C 342.274 -4.31987 0.0335761 0
M  V30 3595 C 341.409 -5.24053 -0.868461 0
M  V30 3596 C 340.448 -6.12095 -0.0258776 0
M  V30 3597 N 339.585 -6.96514 -0.883893 0
M  V30 3598 H 344.425 -2.8471 0.880002 0
M  V30 3599 H 341.962 -1.40188 0.445619 0
M  V30 3600 H 343.92 -3.95062 -1.34096 0
M  V30 3601 H 342.55 -2.82938 -1.55389 0
M  V30 3602 H 341.602 -3.74133 0.68766 0
M  V30 3603 H 342.914 -4.94074 0.685036 0
M  V30 3604 H 342.068 -5.88549 -1.47293 0
M  V30 3605 H 340.807 -4.62289 -1.5537 0
M  V30 3606 H 339.812 -5.4661 0.591386 0
M  V30 3607 H 341.037 -6.75923 0.656156 0
M  V30 3608 H 338.983 -6.37318 -1.55441 0
M  V30 3609 H 338.9 -7.55448 -0.288931 0
M  V30 3610 H 340.168 -7.65439 -1.4739 0
M  V30 3611 N 344.397 -0.483516 -1.5 0
M  V30 3612 C 345.808 -0.0314176 -1.86674 0
M  V30 3613 C 346.159 1.37728 -1.39733 0
M  V30 3614 O 345.284 2.02327 -0.767635 0
M  V30 3615 C 345.879 -0.0502376 -3.38763 0
M  V30 3616 C 344.438 0.346442 -3.74802 0
M  V30 3617 C 343.585 -0.430366 -2.7394 0
M  V30 3618 H 346.536 -0.697182 -1.42566 0
M  V30 3619 H 346.557 0.749116 -3.73053 0
M  V30 3620 H 346.069 -1.07563 -3.72897 0
M  V30 3621 H 344.17 1.37572 -3.46273 0
M  V30 3622 H 344.283 0.0391486 -4.79084 0
M  V30 3623 H 342.647 0.117557 -2.54429 0
M  V30 3624 H 343.43 -1.4555 -3.10918 0
M  V30 3625 N 345.875 1.56104 -0.216619 0
M  V30 3626 C 347.1 2.0301 0.424462 0
M  V30 3627 C 347.525 1.0955 1.52907 0
M  V30 3628 O 346.883 0.0827914 1.81111 0
M  V30 3629 C 346.931 3.4819 0.937883 0
M  V30 3630 O 346.035 3.57865 2.04955 0
M  V30 3631 H 345.376 0.656925 0.0966755 0
M  V30 3632 H 347.906 2.01859 -0.33381 0
M  V30 3633 H 347.916 3.88413 1.24897 0
M  V30 3634 H 346.591 4.15699 0.129387 0
M  V30 3635 H 345.168 3.29527 1.74546 0
M  V30 3636 N 347.353 -0.0568162 1.57498 0
M  V30 3637 C 348.63 -0.786954 1.79071 0
M  V30 3638 C 349.01 -1.95028 0.80792 0
M  V30 3639 O 348.358 -2.27968 -0.155858 0
M  V30 3640 C 348.568 -1.24594 3.26002 0
M  V30 3641 C 349.916 -1.67323 3.90241 0
M  V30 3642 O 350.94 -1.34124 3.29984 0
M  V30 3643 O 349.799 -2.28842 4.9628 0
M  V30 3644 H 346.893 -0.378262 0.735423 0
M  V30 3645 H 349.439 -0.035734 1.69662 0
M  V30 3646 H 348.211 -0.41423 3.89101 0
M  V30 3647 H 347.834 -2.05803 3.40192 0
M  V30 3648 N 348.832 -1.54138 -0.328536 0
M  V30 3649 C 350.06 -1.76062 -1.08673 0
M  V30 3650 C 350.475 -0.506852 -1.81869 0
M  V30 3651 O 349.832 0.522223 -1.74869 0
M  V30 3652 C 349.883 -2.95054 -2.08866 0
M  V30 3653 O 349.604 -4.15583 -1.38644 0
M  V30 3654 C 351.105 -3.2915 -2.96943 0
M  V30 3655 H 348.325 -0.587889 -0.323461 0
M  V30 3656 H 350.869 -2.0101 -0.376175 0
M  V30 3657 H 349.024 -2.72394 -2.75464 0
M  V30 3658 H 349.438 -4.82481 -2.05699 0
M  V30 3659 H 350.912 -4.15723 -3.63151 0
M  V30 3660 H 351.389 -2.461 -3.63774 0
M  V30 3661 H 351.995 -3.53871 -2.35914 0
M  V30 3662 N 350.31 0.590341 -1.46126 0
M  V30 3663 C 351.273 1.68194 -1.55703 0
M  V30 3664 C 352.273 1.54808 -0.434868 0
M  V30 3665 O 353.463 1.59564 -0.698928 0
M  V30 3666 C 350.595 3.07575 -1.47005 0
M  V30 3667 H 351.788 1.61064 -2.52979 0
M  V30 3668 H 349.341 0.807541 -1.33823 0
M  V30 3669 H 350.076 3.20268 -0.509785 0
M  V30 3670 H 349.861 3.187 -2.28414 0
M  V30 3671 H 351.351 3.87055 -1.56776 0
M  V30 3672 N 351.788 1.33704 0.83433 0
M  V30 3673 C 352.721 1.18675 1.94914 0
M  V30 3674 C 353.699 0.0811145 1.62398 0
M  V30 3675 O 354.883 0.244186 1.86912 0
M  V30 3676 C 352.01 0.821231 3.28593 0
M  V30 3677 C 351.056 1.93501 3.80079 0
M  V30 3678 S 351.889 3.54671 4.01209 0
M  V30 3679 C 353.045 3.20136 5.37833 0
M  V30 3680 H 353.278 2.13043 2.07364 0
M  V30 3681 H 350.811 1.18598 0.988624 0
M  V30 3682 H 352.769 0.617123 4.05835 0
M  V30 3683 H 351.43 -0.103927 3.13928 0
M  V30 3684 H 350.623 1.63273 4.76821 0
M  V30 3685 H 350.225 2.09601 3.09747 0
M  V30 3686 H 352.517 2.71242 6.20833 0
M  V30 3687 H 353.46 4.15975 5.73036 0
M  V30 3688 H 353.868 2.56613 5.02802 0
M  V30 3689 N 353.266 -1.05314 1.17247 0
M  V30 3690 C 354.196 -2.1498 0.911362 0
M  V30 3691 C 355.177 -1.69471 -0.146169 0
M  V30 3692 O 356.362 -1.942 0.003812 0
M  V30 3693 C 353.492 -3.4472 0.422528 0
M  V30 3694 C 352.446 -4.03789 1.4191 0
M  V30 3695 C 351.772 -5.28858 0.788274 0
M  V30 3696 C 353.072 -4.41418 2.7919 0
M  V30 3697 H 354.766 -2.3708 1.82848 0
M  V30 3698 H 352.312 -1.13938 0.880569 0
M  V30 3699 H 354.265 -4.20787 0.227289 0
M  V30 3700 H 352.989 -3.22269 -0.530123 0
M  V30 3701 H 351.648 -3.2979 1.60106 0
M  V30 3702 H 351.296 -5.02709 -0.171173 0
M  V30 3703 H 350.996 -5.69338 1.45353 0
M  V30 3704 H 352.52 -6.07612 0.603282 0
M  V30 3705 H 353.934 -5.08524 2.64719 0
M  V30 3706 H 352.331 -4.92913 3.42282 0
M  V30 3707 H 353.401 -3.51819 3.33693 0
M  V30 3708 N 354.744 -0.972509 -1.24016 0
M  V30 3709 C 355.707 -0.511403 -2.23422 0
M  V30 3710 C 356.707 0.394679 -1.55881 0
M  V30 3711 O 357.897 0.189469 -1.73167 0
M  V30 3712 C 355.029 0.258769 -3.39916 0
M  V30 3713 H 356.222 -1.39024 -2.6573 0
M  V30 3714 H 353.775 -0.757585 -1.36713 0
M  V30 3715 H 354.51 1.1545 -3.03054 0
M  V30 3716 H 354.295 -0.391522 -3.9014 0
M  V30 3717 H 355.785 0.570244 -4.13688 0
M  V30 3718 N 356.222 1.38976 -0.743202 0
M  V30 3719 C 357.447 2.05161 -0.303936 0
M  V30 3720 C 357.872 1.55677 1.05576 0
M  V30 3721 O 357.23 0.704131 1.67068 0
M  V30 3722 C 357.278 3.59138 -0.324373 0
M  V30 3723 O 356.382 4.06668 0.685204 0
M  V30 3724 H 355.723 0.649815 -0.136518 0
M  V30 3725 H 358.253 1.77852 -1.01142 0
M  V30 3726 H 358.263 4.07639 -0.171618 0
M  V30 3727 H 356.938 3.94515 -1.31647 0
M  V30 3728 H 355.515 3.69561 0.497913 0
M  V30 3729 N 357.7 0.491464 1.49741 0
M  V30 3730 C 358.93 -0.0534375 2.06531 0
M  V30 3731 C 359.338 -1.32233 1.35318 0
M  V30 3732 O 358.681 -1.78781 0.422243 0
M  V30 3733 C 358.743 -0.387034 3.57411 0
M  V30 3734 C 358.407 0.782764 4.50246 0
M  V30 3735 C 359.404 1.67059 4.92329 0
M  V30 3736 C 357.089 0.978866 4.9267 0
M  V30 3737 C 359.083 2.73874 5.75562 0
M  V30 3738 C 356.77 2.05022 5.75682 0
M  V30 3739 C 357.768 2.92851 6.17031 0
M  V30 3740 O 357.456 3.98138 6.98385 0
M  V30 3741 H 357.188 0.0129324 0.675876 0
M  V30 3742 H 359.742 0.685238 1.93633 0
M  V30 3743 H 357.972 -1.17918 3.68283 0
M  V30 3744 H 359.661 -0.869419 3.96479 0
M  V30 3745 H 360.427 1.53086 4.60206 0
M  V30 3746 H 356.306 0.304646 4.59992 0
M  V30 3747 H 359.85 3.42458 6.07757 0
M  V30 3748 H 355.747 2.18993 6.07217 0
M  V30 3749 H 356.515 3.95374 7.16674 0
M  V30 3750 N 359.178 -1.55987 0.224894 0
M  V30 3751 C 360.141 -2.19178 -0.670348 0
M  V30 3752 C 361.141 -1.15461 -1.11917 0
M  V30 3753 O 362.331 -1.40675 -1.02743 0
M  V30 3754 C 359.463 -2.81777 -1.9187 0
M  V30 3755 H 360.656 -2.99662 -0.119364 0
M  V30 3756 H 358.209 -1.5628 -0.0247128 0
M  V30 3757 H 358.944 -2.05172 -2.51147 0
M  V30 3758 H 358.729 -3.57732 -1.60531 0
M  V30 3759 H 360.219 -3.30205 -2.55645 0
M  V30 3760 N 360.656 0.0484629 -1.57525 0
M  V30 3761 C 361.902 0.744226 -1.88651 0
M  V30 3762 C 362.235 1.76029 -0.820212 0
M  V30 3763 O 361.51 1.93782 0.166985 0
M  V30 3764 C 361.793 1.43128 -3.30434 0
M  V30 3765 C 361.646 0.43005 -4.47739 0
M  V30 3766 C 362.965 2.37031 -3.70816 0
M  V30 3767 H 360.084 0.269089 -0.68612 0
M  V30 3768 H 362.726 0.00713532 -1.89999 0
M  V30 3769 H 360.876 2.05956 -3.29415 0
M  V30 3770 H 362.548 -0.194816 -4.60888 0
M  V30 3771 H 360.791 -0.252522 -4.33064 0
M  V30 3772 H 361.462 0.948874 -5.43783 0
M  V30 3773 H 363.938 1.84263 -3.73077 0
M  V30 3774 H 362.814 2.82094 -4.70865 0
M  V30 3775 H 363.075 3.22864 -3.02012 0
M  V30 3776 N 362.134 1.5431 0.320358 0
M  V30 3777 C 363.364 1.7638 1.07582 0
M  V30 3778 C 363.772 0.513944 1.82086 0
M  V30 3779 O 363.115 -0.525123 1.76035 0
M  V30 3780 C 363.177 2.9055 2.1171 0
M  V30 3781 C 362.841 4.2934 1.56575 0
M  V30 3782 C 363.838 5.10077 1.00586 0
M  V30 3783 C 361.523 4.75893 1.60722 0
M  V30 3784 C 363.517 6.35477 0.494756 0
M  V30 3785 C 361.204 6.0126 1.09224 0
M  V30 3786 C 362.202 6.80886 0.53696 0
M  V30 3787 O 361.89 8.03894 0.0297371 0
M  V30 3788 H 361.622 0.592369 0.325692 0
M  V30 3789 H 364.176 2.02019 0.37116 0
M  V30 3790 H 362.406 2.60489 2.85801 0
M  V30 3791 H 364.095 3.00373 2.73003 0
M  V30 3792 H 364.861 4.75265 0.966869 0
M  V30 3793 H 360.74 4.13957 2.02882 0
M  V30 3794 H 364.284 6.97574 0.0606842 0
M  V30 3795 H 360.181 6.35562 1.12831 0
M  V30 3796 H 360.949 8.18372 0.14486 0
M  V30 3797 N 363.613 -0.582584 1.46437 0
M  V30 3798 C 365.029 -0.905962 1.31394 0
M  V30 3799 C 365.229 -1.99468 0.285476 0
M  V30 3800 O 364.285 -2.50566 -0.311914 0
M  V30 3801 C 365.598 -1.3232 2.70022 0
M  V30 3802 C 367.146 -1.43604 2.78113 0
M  V30 3803 C 367.621 -1.88694 4.17323 0
M  V30 3804 N 369.112 -1.95887 4.19741 0
M  V30 3805 C 369.847 -2.32051 5.24347 0
M  V30 3806 N 369.343 -2.67006 6.39281 0
M  V30 3807 N 371.136 -2.32606 5.11713 0
M  V30 3808 H 363.287 0.1366 2.1196 0
M  V30 3809 H 365.55 -0.00155736 0.947999 0
M  V30 3810 H 365.256 -0.597242 3.46592 0
M  V30 3811 H 365.13 -2.28469 3.00136 0
M  V30 3812 H 367.517 -2.15286 2.01832 0
M  V30 3813 H 367.598 -0.457059 2.51684 0
M  V30 3814 H 367.242 -1.1759 4.941 0
M  V30 3815 H 367.172 -2.8755 4.4116 0
M  V30 3816 H 369.663 -1.71362 3.36814 0
M  V30 3817 H 369.976 -2.93554 7.14875 0
M  V30 3818 H 368.321 -2.64644 6.42642 0
M  V30 3819 H 371.512 -2.04721 4.2096 0
M  V30 3820 H 371.685 -2.60462 5.93349 0
M  V30 3821 N 365.091 -1.34144 -0.827227 0
M  V30 3822 C 366.34 -1.25602 -1.5782 0
M  V30 3823 C 366.653 0.173445 -1.94829 0
M  V30 3824 O 367.859 0.380984 -2.68814 0
M  V30 3825 C 366.315 -2.20151 -2.84713 0
M  V30 3826 C 365.923 -3.68331 -2.55021 0
M  V30 3827 C 367.667 -2.20508 -3.62735 0
M  V30 3828 C 365.574 -4.54762 -3.78082 0
M  V30 3829 H 364.504 -0.466573 -0.592306 0
M  V30 3830 H 367.155 -1.59283 -0.911116 0
M  V30 3831 H 365.537 -1.79417 -3.53023 0
M  V30 3832 H 366.711 -4.17577 -1.94849 0
M  V30 3833 H 365.026 -3.7038 -1.90283 0
M  V30 3834 H 367.623 -2.82306 -4.54101 0
M  V30 3835 H 367.966 -1.20322 -3.98533 0
M  V30 3836 H 368.499 -2.59664 -3.01362 0
M  V30 3837 H 365.238 -5.55867 -3.47407 0
M  V30 3838 H 364.758 -4.10254 -4.37552 0
M  V30 3839 H 366.437 -4.69153 -4.45538 0
M  V30 3840 N 366.569 1.04691 -1.17803 0
M  V30 3841 C 367.499 2.14494 -0.92275 0
M  V30 3842 C 368.48 1.69546 0.137179 0
M  V30 3843 O 369.665 1.94195 -0.0141108 0
M  V30 3844 C 366.795 3.44491 -0.440803 0
M  V30 3845 C 365.749 4.03031 -1.4405 0
M  V30 3846 C 365.075 5.28432 -0.81631 0
M  V30 3847 C 366.375 4.39932 -2.81527 0
M  V30 3848 H 368.069 2.36107 -1.84103 0
M  V30 3849 H 365.615 1.1347 -0.886599 0
M  V30 3850 H 367.568 4.2066 -0.249602 0
M  V30 3851 H 366.292 3.22546 0.513025 0
M  V30 3852 H 364.951 3.28937 -1.61853 0
M  V30 3853 H 364.599 5.02792 0.144511 0
M  V30 3854 H 364.299 5.68559 -1.48371 0
M  V30 3855 H 365.823 6.07284 -0.635496 0
M  V30 3856 H 367.237 5.07113 -2.67412 0
M  V30 3857 H 365.634 4.9109 -3.44892 0
M  V30 3858 H 366.704 3.50045 -3.35554 0
M  V30 3859 N 368.047 0.979072 1.23499 0
M  V30 3860 C 369.463 0.687475 1.44034 0
M  V30 3861 C 369.663 -0.746801 1.8715 0
M  V30 3862 O 368.719 -1.51939 2.0167 0
M  V30 3863 C 370.032 1.68127 2.49307 0
M  V30 3864 C 371.58 1.69516 2.63122 0
M  V30 3865 C 372.055 2.67723 3.71603 0
M  V30 3866 N 373.546 2.66233 3.79044 0
M  V30 3867 C 374.281 3.38891 4.62537 0
M  V30 3868 N 373.777 4.21103 5.50131 0
M  V30 3869 N 375.57 3.27661 4.56721 0
M  V30 3870 H 367.721 1.90559 0.938135 0
M  V30 3871 H 369.984 0.821051 0.473897 0
M  V30 3872 H 369.69 2.70693 2.2454 0
M  V30 3873 H 369.564 1.46306 3.4767 0
M  V30 3874 H 371.951 0.676561 2.8724 0
M  V30 3875 H 372.032 1.95404 1.65079 0
M  V30 3876 H 371.676 3.69724 3.48233 0
M  V30 3877 H 371.606 2.39111 4.69184 0
M  V30 3878 H 374.097 2.06568 3.16446 0
M  V30 3879 H 374.41 4.73403 6.10827 0
M  V30 3880 H 372.755 4.25195 5.49759 0
M  V30 3881 H 375.946 2.62887 3.87309 0
M  V30 3882 H 376.119 3.84547 5.21562 0
M  V30 3883 N 369.525 -1.3858 0.750561 0
M  V30 3884 C 370.435 -2.34278 0.122825 0
M  V30 3885 C 371.451 -1.59116 -0.704131 0
M  V30 3886 O 372.627 -1.91326 -0.628987 0
M  V30 3887 C 369.692 -3.38221 -0.762086 0
M  V30 3888 C 368.753 -4.29227 0.078896 0
M  V30 3889 C 367.986 -5.28205 -0.763874 0
M  V30 3890 O 368.209 -5.34112 -2.00201 0
M  V30 3891 O 367.143 -6.01618 -0.18428 0
M  V30 3892 H 370.969 -2.89649 0.913088 0
M  V30 3893 H 368.554 -1.40374 0.511417 0
M  V30 3894 H 370.436 -4.01872 -1.26793 0
M  V30 3895 H 369.111 -2.85211 -1.5309 0
M  V30 3896 H 368.018 -3.68747 0.630621 0
M  V30 3897 H 369.351 -4.85484 0.810289 0
M  V30 3898 N 371.003 -0.499398 -1.49478 0
M  V30 3899 C 371.966 0.268838 -2.27618 0
M  V30 3900 C 372.966 0.895383 -1.33565 0
M  V30 3901 O 374.156 0.760164 -1.56739 0
M  V30 3902 C 371.288 1.38559 -3.11471 0
M  V30 3903 H 372.481 -0.416812 -2.96989 0
M  V30 3904 H 370.034 -0.254313 -1.54217 0
M  V30 3905 H 370.769 2.10544 -2.46661 0
M  V30 3906 H 370.554 0.941797 -3.80621 0
M  V30 3907 H 372.044 1.92678 -3.70493 0
M  V30 3908 N 372.481 1.55866 -0.233164 0
M  V30 3909 C 373.729 1.9821 0.394593 0
M  V30 3910 C 374.05 1.12234 1.59463 0
M  V30 3911 O 373.32 0.201981 1.94856 0
M  V30 3912 H 371.9 0.732034 0.148778 0
M  V30 3913 H 374.562 1.92107 -0.32876 0
M  V30 3914 H 373.658 3.03845 0.713063 0
M  V30 3915 N 373.959 -0.0401083 1.57549 0
M  V30 3916 C 374.889 -1.04384 2.08869 0
M  V30 3917 C 375.87 -1.38407 0.988817 0
M  V30 3918 O 377.055 -1.47483 1.26342 0
M  V30 3919 C 374.185 -2.34808 2.55895 0
M  V30 3920 C 373.139 -2.15057 3.70047 0
M  V30 3921 C 372.465 -3.51145 4.03239 0
M  V30 3922 C 373.765 -1.54576 4.98902 0
M  V30 3923 H 375.459 -0.616666 2.92981 0
M  V30 3924 H 373.005 -0.295184 1.40942 0
M  V30 3925 H 374.958 -3.05346 2.90417 0
M  V30 3926 H 373.682 -2.79565 1.68853 0
M  V30 3927 H 372.341 -1.46954 3.35857 0
M  V30 3928 H 371.989 -3.93529 3.13279 0
M  V30 3929 H 371.689 -3.38758 4.80122 0
M  V30 3930 H 373.213 -4.23062 4.40285 0
M  V30 3931 H 374.627 -2.15017 5.31451 0
M  V30 3932 H 373.024 -1.52796 5.80322 0
M  V30 3933 H 374.094 -0.51039 4.82206 0
M  V30 3934 N 375.437 -1.54477 -0.31217 0
M  V30 3935 C 376.848 -1.64344 -0.885891 0
M  V30 3936 C 377.199 -0.54485 -1.88483 0
M  V30 3937 O 376.324 0.320387 -2.14015 0
M  V30 3938 C 376.919 -2.97908 -1.61357 0
M  V30 3939 C 375.478 -3.09933 -2.13585 0
M  V30 3940 C 374.625 -2.59971 -0.964897 0
M  V30 3941 H 377.576 -1.58448 -0.0894528 0
M  V30 3942 H 377.597 -2.88706 -2.47848 0
M  V30 3943 H 377.109 -3.77845 -0.886277 0
M  V30 3944 H 375.21 -2.34694 -2.89395 0
M  V30 3945 H 375.323 -4.15916 -2.37804 0
M  V30 3946 H 373.687 -2.16147 -1.34731 0
M  V30 3947 H 374.47 -3.42376 -0.251742 0
M  V30 3948 N 376.915 0.57481 -1.46744 0
M  V30 3949 C 378.326 1.15695 -1.46532 0
M  V30 3950 C 378.677 1.95068 -0.210425 0
M  V30 3951 O 377.802 2.05241 0.685944 0
M  V30 3952 C 378.397 2.1048 -2.65487 0
M  V30 3953 C 376.956 2.64002 -2.68291 0
M  V30 3954 C 376.103 1.40026 -2.39349 0
M  V30 3955 H 379.054 0.362325 -1.54509 0
M  V30 3956 H 379.075 2.94074 -2.41455 0
M  V30 3957 H 378.587 1.52683 -3.56805 0
M  V30 3958 H 376.688 3.25646 -1.81067 0
M  V30 3959 H 376.801 3.06197 -3.68483 0
M  V30 3960 H 375.165 1.70106 -1.89568 0
M  V30 3961 H 375.948 0.840485 -3.32852 0
M  V30 3962 N 378.394 1.34581 0.820102 0
M  V30 3963 C 379.342 1.26401 1.95258 0
M  V30 3964 C 380.336 0.161553 1.68628 0
M  V30 3965 O 381.542 0.326703 1.7701 0
M  V30 3966 H 377.917 0.392749 0.64129 0
M  V30 3967 H 379.888 2.22105 1.99279 0
M  V30 3968 C 378.637 1.03919 3.31807 0
M  V30 3969 H 377.96 1.87984 3.52848 0
M  V30 3970 H 379.4 1.02232 4.11491 0
M  V30 3971 C 377.859 -0.257433 3.35915 0
M  V30 3972 O 378.389 -1.25784 3.81499 0
M  V30 3973 N 376.595 -0.291524 2.89134 0
M  V30 3974 H 376.142 0.523161 2.52232 0
M  V30 3975 H 376.1 -1.15883 2.92264 0
M  V30 3976 N 379.872 -1.04064 1.18357 0
M  V30 3977 C 381.121 -1.76662 0.973313 0
M  V30 3978 C 381.434 -1.89154 -0.497991 0
M  V30 3979 O 382.64 -2.58606 -0.826762 0
M  V30 3980 C 381.096 -3.17624 1.69242 0
M  V30 3981 C 380.704 -3.13225 3.20303 0
M  V30 3982 C 382.448 -3.946 1.56497 0
M  V30 3983 C 380.355 -4.49046 3.84853 0
M  V30 3984 H 379.285 -0.662214 0.36054 0
M  V30 3985 H 381.936 -1.16553 1.41731 0
M  V30 3986 H 380.318 -3.78129 1.1762 0
M  V30 3987 H 381.492 -2.62172 3.78949 0
M  V30 3988 H 379.807 -2.49749 3.33189 0
M  V30 3989 H 382.404 -4.95042 2.02084 0
M  V30 3990 H 382.747 -4.13074 0.517243 0
M  V30 3991 H 383.28 -3.4067 2.05399 0
M  V30 3992 H 380.019 -4.35777 4.89672 0
M  V30 3993 H 379.539 -5.00203 3.30994 0
M  V30 3994 H 381.218 -5.17961 3.87718 0
M  V30 3995 N 381.35 -0.985608 -1.22978 0
M  V30 3996 C 382.599 -0.652881 -1.90841 0
M  V30 3997 C 382.912 0.817842 -1.77681 0
M  V30 3998 O 384.118 1.26185 -2.40395 0
M  V30 3999 C 382.574 -1.11717 -3.42122 0
M  V30 4000 C 382.182 -2.6126 -3.63933 0
M  V30 4001 C 383.926 -0.85843 -4.1573 0
M  V30 4002 C 381.833 -3.0133 -5.08876 0
M  V30 4003 H 380.763 -0.240491 -0.714619 0
M  V30 4004 H 383.414 -1.1942 -1.39324 0
M  V30 4005 H 381.796 -0.504027 -3.92779 0
M  V30 4006 H 382.97 -3.27858 -3.23799 0
M  V30 4007 H 381.285 -2.84937 -3.03644 0
M  V30 4008 H 383.882 -1.13359 -5.22546 0
M  V30 4009 H 384.225 0.205461 -4.15793 0
M  V30 4010 H 384.758 -1.43341 -3.71077 0
M  V30 4011 H 381.497 -4.06864 -5.13947 0
M  V30 4012 H 381.017 -2.3943 -5.49939 0
M  V30 4013 H 382.696 -2.92224 -5.77247 0
M  V30 4014 N 382.828 1.3818 -0.7579 0
M  V30 4015 C 383.76 2.2901 -0.0932177 0
M  V30 4016 C 384.773 1.47958 0.679136 0
M  V30 4017 O 385.962 1.70773 0.519514 0
M  V30 4018 C 383.062 3.26953 0.89192 0
M  V30 4019 C 382.235 4.37045 0.176303 0
M  V30 4020 C 381.294 5.15148 1.07281 0
M  V30 4021 O 380.32 5.66616 0.541728 0
M  V30 4022 N 381.522 5.28542 2.40049 0
M  V30 4023 H 384.287 2.86694 -0.873303 0
M  V30 4024 H 381.848 1.50007 -0.609054 0
M  V30 4025 H 383.84 3.76083 1.49479 0
M  V30 4026 H 382.41 2.70136 1.57306 0
M  V30 4027 H 381.63 3.89493 -0.607328 0
M  V30 4028 H 382.918 5.07801 -0.318718 0
M  V30 4029 H 382.316 4.88285 2.85647 0
M  V30 4030 H 380.873 5.8103 2.95376 0
M  V30 4031 N 384.306 0.507319 1.49211 0
M  V30 4032 C 385.553 -0.0349529 2.0247 0
M  V30 4033 C 385.881 -1.36409 1.38647 0
M  V30 4034 O 385.136 -1.88841 0.513566 0
M  V30 4035 C 385.435 -0.229513 3.56662 0
M  V30 4036 C 385.101 1.02241 4.39156 0
M  V30 4037 C 383.763 1.36557 4.61417 0
M  V30 4038 C 386.115 1.85428 4.871 0
M  V30 4039 C 383.443 2.53999 5.28868 0
M  V30 4040 C 385.795 3.02028 5.55843 0
M  V30 4041 C 384.459 3.36717 5.76349 0
M  V30 4042 H 383.729 -0.0127902 0.74089 0
M  V30 4043 H 386.376 0.668756 1.79443 0
M  V30 4044 H 384.681 -1.0158 3.78403 0
M  V30 4045 H 386.378 -0.663641 3.9547 0
M  V30 4046 H 382.968 0.745124 4.22073 0
M  V30 4047 H 387.152 1.6023 4.69723 0
M  V30 4048 H 382.408 2.81105 5.42946 0
M  V30 4049 H 386.582 3.66808 5.91967 0
M  V30 4050 H 384.209 4.27821 6.28389 0
M  V30 4051 N 385.784 -1.5574 0.241426 0
M  V30 4052 C 387.03 -1.99104 -0.385406 0
M  V30 4053 C 387.363 -1.1293 -1.57988 0
M  V30 4054 O 386.638 -0.191449 -1.93555 0
M  V30 4055 C 386.921 -3.51087 -0.800616 0
M  V30 4056 C 386.774 -4.48028 0.398874 0
M  V30 4057 C 388.093 -4.08015 -1.64959 0
M  V30 4058 H 385.212 -0.723848 -0.138614 0
M  V30 4059 H 387.854 -1.86903 0.341642 0
M  V30 4060 H 386.004 -3.61615 -1.4201 0
M  V30 4061 H 387.676 -4.49487 1.03726 0
M  V30 4062 H 385.919 -4.21077 1.04293 0
M  V30 4063 H 386.59 -5.51962 0.0651056 0
M  V30 4064 H 389.066 -4.00555 -1.12672 0
M  V30 4065 H 387.942 -5.14635 -1.90898 0
M  V30 4066 H 388.203 -3.56131 -2.61961 0
M  V30 4067 N 387.262 0.0317525 -1.57568 0
M  V30 4068 C 388.673 0.578692 -1.77505 0
M  V30 4069 C 389.024 1.75749 -0.872164 0
M  V30 4070 O 388.149 2.16298 -0.0663106 0
M  V30 4071 C 388.744 1.05658 -3.21904 0
M  V30 4072 C 387.303 1.54906 -3.43047 0
M  V30 4073 C 386.45 0.485939 -2.73009 0
M  V30 4074 H 389.401 -0.194475 -1.57504 0
M  V30 4075 H 389.422 1.92404 -3.28269 0
M  V30 4076 H 388.934 0.198422 -3.87592 0
M  V30 4077 H 387.035 2.42915 -2.82529 0
M  V30 4078 H 387.148 1.59841 -4.5165 0
M  V30 4079 H 385.512 0.940354 -2.36705 0
M  V30 4080 H 386.295 -0.362709 -3.41379 0
M  V30 4081 N 388.74 1.54641 0.303973 0
M  V30 4082 C 389.703 1.84646 1.35789 0
M  V30 4083 C 390.703 0.7192 1.4382 0
M  V30 4084 O 391.893 0.987491 1.43507 0
M  V30 4085 C 389.025 2.02407 2.74307 0
M  V30 4086 H 390.218 2.78829 1.10429 0
M  V30 4087 H 387.771 1.46658 0.540487 0
M  V30 4088 H 388.506 1.10502 3.04893 0
M  V30 4089 H 388.291 2.84453 2.69868 0
M  V30 4090 H 389.781 2.27002 3.50514 0
M  V30 4091 N 390.218 -0.567019 1.47046 0
M  V30 4092 C 391.495 -1.3276 1.43646 0
M  V30 4093 C 391.875 -2.1071 0.128186 0
M  V30 4094 O 391.223 -2.10441 -0.890326 0
M  V30 4095 C 391.433 -2.2404 2.67595 0
M  V30 4096 C 392.781 -2.85372 3.14401 0
M  V30 4097 O 393.805 -2.34346 2.68254 0
M  V30 4098 O 392.664 -3.78091 3.946 0
M  V30 4099 H 389.758 -0.597293 0.571988 0
M  V30 4100 H 392.304 -0.586735 1.59234 0
M  V30 4101 H 391.076 -1.65975 3.54356 0
M  V30 4102 H 390.699 -3.05439 2.54544 0
M  V30 4103 N 391.696 -1.35014 -0.812953 0
M  V30 4104 C 392.944 -1.27678 -1.56661 0
M  V30 4105 C 393.265 0.150359 -1.94419 0
M  V30 4106 O 392.535 1.08532 -1.63088 0
M  V30 4107 H 391.115 -0.469602 -0.580933 0
M  V30 4108 H 393.777 -1.69043 -0.970076 0
M  V30 4109 H 392.873 -1.88833 -2.48492 0
M  V30 4110 N 393.175 1.03435 -1.18907 0
M  V30 4111 C 394.586 1.58195 -0.991523 0
M  V30 4112 C 394.937 1.90801 0.457081 0
M  V30 4113 O 394.062 1.70272 1.33553 0
M  V30 4114 C 394.657 2.87432 -1.79355 0
M  V30 4115 C 393.216 3.38785 -1.64017 0
M  V30 4116 C 392.363 2.12292 -1.78402 0
M  V30 4117 H 395.314 0.860299 -1.33359 0
M  V30 4118 H 395.335 3.58096 -1.28638 0
M  V30 4119 H 394.847 2.63669 -2.84781 0
M  V30 4120 H 392.948 3.67547 -0.611536 0
M  V30 4121 H 393.061 4.12186 -2.44212 0
M  V30 4122 H 391.425 2.23901 -1.2141 0
M  V30 4123 H 392.208 1.90977 -2.85277 0
M  V30 4124 N 394.653 0.992116 1.22453 0
M  V30 4125 C 395.583 0.561677 2.26644 0
M  V30 4126 C 396.564 -0.411055 1.65059 0
M  V30 4127 O 397.749 -0.301861 1.9184 0
M  V30 4128 C 394.879 -0.125247 3.47074 0
M  V30 4129 C 393.833 0.765948 4.21091 0
M  V30 4130 C 393.159 -0.0538484 5.34673 0
M  V30 4131 C 394.459 2.06242 4.79856 0
M  V30 4132 H 396.153 1.43259 2.62902 0
M  V30 4133 H 393.699 0.690283 1.26377 0
M  V30 4134 H 395.652 -0.437764 4.1912 0
M  V30 4135 H 394.376 -1.03069 3.0991 0
M  V30 4136 H 393.035 1.0621 3.50878 0
M  V30 4137 H 392.683 -0.960188 4.9375 0
M  V30 4138 H 392.383 0.539415 5.85119 0
M  V30 4139 H 393.907 -0.360477 6.09535 0
M  V30 4140 H 395.321 1.8139 5.43848 0
M  V30 4141 H 393.718 2.60444 5.40638 0
M  V30 4142 H 394.788 2.74167 3.99951 0
M  V30 4143 N 396.131 -1.37776 0.765217 0
M  V30 4144 C 397.378 -1.99849 0.326588 0
M  V30 4145 C 397.706 -1.60746 -1.09504 0
M  V30 4146 O 396.961 -0.84202 -1.76659 0
M  V30 4147 C 397.26 -3.5504 0.410053 0
M  V30 4148 C 396.926 -4.13891 1.78899 0
M  V30 4149 C 395.588 -4.29678 2.16635 0
M  V30 4150 C 397.94 -4.46236 2.69301 0
M  V30 4151 C 395.268 -4.7511 3.44221 0
M  V30 4152 C 397.62 -4.93089 3.9629 0
M  V30 4153 C 396.284 -5.07082 4.34078 0
M  V30 4154 H 395.554 -0.7313 0.119507 0
M  V30 4155 H 398.201 -1.64645 0.977968 0
M  V30 4156 H 396.506 -3.90451 -0.324878 0
M  V30 4157 H 398.203 -4.00966 0.0520699 0
M  V30 4158 H 394.793 -4.02026 1.48569 0
M  V30 4159 H 398.977 -4.3363 2.41409 0
M  V30 4160 H 394.233 -4.84129 3.73402 0
M  V30 4161 H 398.407 -5.17084 4.66472 0
M  V30 4162 H 396.034 -5.42046 5.33001 0
M  V30 4163 N 397.609 -0.515225 -1.4894 0
M  V30 4164 C 398.857 0.0241671 -2.02086 0
M  V30 4165 C 399.178 1.3616 -1.3959 0
M  V30 4166 O 398.448 1.87841 -0.556121 0
M  V30 4167 H 397.028 0.0119203 -0.746905 0
M  V30 4168 H 399.69 -0.675702 -1.82812 0
M  V30 4169 H 398.786 0.143385 -3.1177 0
M  V30 4170 N 399.087 1.5561 -0.249682 0
M  V30 4171 C 400.364 1.90932 0.424761 0
M  V30 4172 C 400.744 1.17078 1.75658 0
M  V30 4173 O 400.092 0.289176 2.26663 0
M  V30 4174 C 400.302 3.43975 0.590109 0
M  V30 4175 C 401.65 4.15281 0.884714 0
M  V30 4176 O 402.674 3.49729 0.67587 0
M  V30 4177 O 401.533 5.31236 1.28259 0
M  V30 4178 H 398.627 0.794815 0.228468 0
M  V30 4179 H 401.173 1.67135 -0.293954 0
M  V30 4180 H 399.945 3.89748 -0.34818 0
M  V30 4181 H 399.568 3.73644 1.35926 0
M  V30 4182 N 400.565 -0.0233959 1.57583 0
M  V30 4183 C 401.793 -0.724682 1.93794 0
M  V30 4184 C 402.208 -1.68588 0.849912 0
M  V30 4185 O 401.565 -1.81676 -0.173204 0
M  V30 4186 C 401.616 -1.47684 3.29957 0
M  V30 4187 O 401.337 -0.554222 4.3458 0
M  V30 4188 C 402.838 -2.27477 3.80485 0
M  V30 4189 H 400.058 -0.203317 0.639455 0
M  V30 4190 H 402.602 0.0207653 2.04489 0
M  V30 4191 H 400.757 -2.17412 3.20641 0
M  V30 4192 H 401.171 -1.08232 5.13212 0
M  V30 4193 H 402.645 -2.7564 4.78254 0
M  V30 4194 H 403.122 -3.09144 3.11972 0
M  V30 4195 H 403.728 -1.62813 3.92902 0
M  V30 4196 N 402.043 -1.548 -0.295768 0
M  V30 4197 C 403.289 -1.74588 -1.03184 0
M  V30 4198 C 403.622 -0.532962 -1.86744 0
M  V30 4199 O 402.897 0.469872 -1.88739 0
M  V30 4200 C 403.18 -3.03791 -1.93347 0
M  V30 4201 C 403.033 -4.35392 -1.12933 0
M  V30 4202 C 404.352 -3.28892 -2.92435 0
M  V30 4203 H 401.471 -0.635221 -0.373715 0
M  V30 4204 H 404.113 -1.87519 -0.30606 0
M  V30 4205 H 402.263 -2.92898 -2.55232 0
M  V30 4206 H 403.935 -4.58211 -0.532943 0
M  V30 4207 H 402.178 -4.31642 -0.432168 0
M  V30 4208 H 402.849 -5.22074 -1.79284 0
M  V30 4209 H 405.325 -3.39429 -2.4068 0
M  V30 4210 H 404.201 -4.20603 -3.52682 0
M  V30 4211 H 404.462 -2.47437 -3.6637 0
M  V30 4212 N 403.521 0.559213 -1.47345 0
M  V30 4213 C 404.749 1.34194 -1.57479 0
M  V30 4214 C 405.164 1.87463 -0.224261 0
M  V30 4215 O 404.521 1.64888 0.782185 0
M  V30 4216 C 404.572 2.51324 -2.59843 0
M  V30 4217 O 404.293 2.00256 -3.89653 0
M  V30 4218 C 405.794 3.43563 -2.80142 0
M  V30 4219 H 403.014 0.409136 -0.531835 0
M  V30 4220 H 405.558 0.677609 -1.92947 0
M  V30 4221 H 403.713 3.13699 -2.27314 0
M  V30 4222 H 404.127 2.76708 -4.4557 0
M  V30 4223 H 405.601 4.2217 -3.55635 0
M  V30 4224 H 406.078 3.9698 -1.87892 0
M  V30 4225 H 406.684 2.87005 -3.1386 0
M  V30 4226 N 404.999 1.35443 0.805782 0
M  V30 4227 C 406.224 1.32037 1.59941 0
M  V30 4228 C 406.649 -0.0994215 1.87837 0
M  V30 4229 O 406.007 -1.06648 1.46615 0
M  V30 4230 C 406.055 2.13354 2.90711 0
M  V30 4231 O 405.159 1.5148 3.83572 0
M  V30 4232 H 404.5 0.452666 0.485787 0
M  V30 4233 H 407.03 1.78496 1.00002 0
M  V30 4234 H 407.04 2.25338 3.40128 0
M  V30 4235 H 405.715 3.16572 2.69732 0
M  V30 4236 H 404.292 1.4834 3.42125 0
M  V30 4237 N 406.477 -1.02803 1.19454 0
M  V30 4238 C 407.702 -1.80378 1.02364 0
M  V30 4239 C 408.127 -1.83282 -0.423007 0
M  V30 4240 O 407.485 -1.25945 -1.30413 0
M  V30 4241 C 407.533 -3.23248 1.59821 0
M  V30 4242 O 406.637 -4.04 0.828105 0
M  V30 4243 H 405.978 -0.556799 0.361761 0
M  V30 4244 H 408.508 -1.29385 1.58495 0
M  V30 4245 H 408.518 -3.73994 1.63073 0
M  V30 4246 H 407.193 -3.2045 2.65113 0
M  V30 4247 H 405.77 -3.62635 0.86891 0
M  V30 4248 N 407.956 -0.998596 -1.21925 0
M  V30 4249 C 408.866 -0.562736 -2.27751 0
M  V30 4250 C 409.882 0.391203 -1.69545 0
M  V30 4251 O 411.058 0.256625 -1.99758 0
M  V30 4252 C 408.123 0.11012 -3.46525 0
M  V30 4253 C 407.184 -0.887495 -4.20026 0
M  V30 4254 C 406.417 -0.246654 -5.3313 0
M  V30 4255 O 406.64 0.958088 -5.62296 0
M  V30 4256 O 405.574 -0.954374 -5.94286 0
M  V30 4257 H 409.4 -1.44329 -2.67213 0
M  V30 4258 H 406.985 -0.767135 -1.28201 0
M  V30 4259 H 408.867 0.486756 -4.18579 0
M  V30 4260 H 407.542 0.965154 -3.08976 0
M  V30 4261 H 406.449 -1.31517 -3.5022 0
M  V30 4262 H 407.782 -1.71191 -4.6147 0
M  V30 4263 N 409.434 1.37368 -0.772513 0
M  V30 4264 C 410.384 2.27613 -0.132823 0
M  V30 4265 C 411.368 1.46138 0.673247 0
M  V30 4266 O 412.56 1.68686 0.536095 0
M  V30 4267 C 409.689 3.35122 0.744864 0
M  V30 4268 C 408.775 4.24044 -0.0690771 0
M  V30 4269 N 409.166 4.93355 -1.1151 0
M  V30 4270 C 407.464 4.45731 0.154782 0
M  V30 4271 C 408.165 5.59 -1.60917 0
M  V30 4272 N 407.141 5.35737 -0.921222 0
M  V30 4273 H 410.943 2.78675 -0.933681 0
M  V30 4274 H 408.457 1.50494 -0.610342 0
M  V30 4275 H 410.454 3.98683 1.21892 0
M  V30 4276 H 409.114 2.85616 1.54446 0
M  V30 4277 H 410.125 4.95785 -1.49726 0
M  V30 4278 H 406.802 4.07096 0.926224 0
M  V30 4279 H 408.192 6.24395 -2.48153 0
M  V30 4280 N 410.912 0.523116 1.48665 0
M  V30 4281 C 411.842 -0.23231 2.32342 0
M  V30 4282 C 412.823 -0.941637 1.41659 0
M  V30 4283 O 414.008 -0.928751 1.70552 0
M  V30 4284 C 411.138 -1.28387 3.22698 0
M  V30 4285 C 410.092 -0.693098 4.22351 0
M  V30 4286 C 409.418 -1.8468 5.01794 0
M  V30 4287 C 410.718 0.33063 5.21252 0
M  V30 4288 H 412.412 0.466192 2.95748 0
M  V30 4289 H 409.958 0.225643 1.42221 0
M  V30 4290 H 411.911 -1.82024 3.80059 0
M  V30 4291 H 410.635 -2.01186 2.57278 0
M  V30 4292 H 409.294 -0.178299 3.66166 0
M  V30 4293 H 408.942 -2.56301 4.32804 0
M  V30 4294 H 408.642 -1.45747 5.69238 0
M  V30 4295 H 410.166 -2.38709 5.62006 0
M  V30 4296 H 411.58 -0.118407 5.73178 0
M  V30 4297 H 409.977 0.636974 5.9671 0
M  V30 4298 H 411.047 1.23883 4.68808 0
M  V30 4299 N 412.39 -1.55475 0.257931 0
M  V30 4300 C 413.63 -2.01112 -0.365129 0
M  V30 4301 C 413.994 -1.1423 -1.54323 0
M  V30 4302 O 415.195 -1.49371 -2.23477 0
M  V30 4303 C 413.466 -3.49353 -0.754117 0
M  V30 4304 S 415.025 -4.16992 -1.36614 0
M  V30 4305 H 411.843 -0.701737 -0.114397 0
M  V30 4306 H 414.445 -1.91855 0.375747 0
M  V30 4307 H 413.149 -4.10246 0.112441 0
M  V30 4308 H 412.68 -3.6256 -1.52689 0
M  V30 4309 H 414.695 -4.19191 -2.65505 0
M  V30 4310 N 413.868 0.0150385 -1.57593 0
M  V30 4311 C 415.116 0.701613 -1.8953 0
M  V30 4312 C 415.437 1.75139 -0.857396 0
M  V30 4313 O 414.707 1.95607 0.107194 0
M  V30 4314 H 413.287 0.26213 -0.699498 0
M  V30 4315 H 415.949 -0.0223304 -1.94887 0
M  V30 4316 H 415.045 1.18236 -2.88837 0
M  V30 4317 N 415.346 1.54954 0.287554 0
M  V30 4318 C 416.595 1.74081 1.01877 0
M  V30 4319 C 416.908 0.541135 1.87966 0
M  V30 4320 O 418.114 0.614491 2.64455 0
M  V30 4321 C 416.57 3.08042 1.86113 0
M  V30 4322 C 416.178 4.35531 1.04961 0
M  V30 4323 C 417.922 3.36523 2.58752 0
M  V30 4324 C 415.829 5.60538 1.88551 0
M  V30 4325 H 414.759 0.64884 0.384087 0
M  V30 4326 H 417.41 1.81426 0.275101 0
M  V30 4327 H 415.792 2.94696 2.64519 0
M  V30 4328 H 416.966 4.59751 0.31074 0
M  V30 4329 H 415.281 4.14085 0.43843 0
M  V30 4330 H 417.878 4.27122 3.21668 0
M  V30 4331 H 418.221 2.56 3.28283 0
M  V30 4332 H 418.754 3.50901 1.87386 0
M  V30 4333 H 415.493 6.43767 1.23466 0
M  V30 4334 H 415.013 5.40483 2.60074 0
M  V30 4335 H 416.692 5.98297 2.46273 0
M  V30 4336 N 416.824 -0.551391 1.4764 0
M  V30 4337 C 417.772 -1.67896 1.60978 0
M  V30 4338 C 418.766 -1.62549 0.476877 0
M  V30 4339 O 419.972 -1.67664 0.654878 0
M  V30 4340 H 416.347 -0.555649 0.506713 0
M  V30 4341 H 418.318 -1.53784 2.55721 0
M  V30 4342 C 417.067 -3.06234 1.64669 0
M  V30 4343 H 416.39 -3.11033 2.51194 0
M  V30 4344 H 417.83 -3.84804 1.7805 0
M  V30 4345 C 416.289 -3.34737 0.381115 0
M  V30 4346 O 416.819 -3.98381 -0.515297 0
M  V30 4347 N 415.025 -2.8944 0.259354 0
M  V30 4348 H 414.572 -2.37827 0.98976 0
M  V30 4349 H 414.53 -3.08882 -0.586464 0
M  V30 4350 N 418.302 -1.35869 -0.798587 0
M  V30 4351 C 419.549 -1.29588 -1.55606 0
M  V30 4352 C 419.877 0.127456 -1.94082 0
M  V30 4353 O 419.132 1.09461 -1.62225 0
M  V30 4354 C 419.431 -2.1556 -2.85077 0
M  V30 4355 C 419.097 -3.6424 -2.65781 0
M  V30 4356 C 417.759 -4.04766 -2.60227 0
M  V30 4357 C 420.111 -4.58547 -2.47758 0
M  V30 4358 C 417.439 -5.37753 -2.34603 0
M  V30 4359 C 419.791 -5.91742 -2.23662 0
M  V30 4360 C 418.455 -6.31402 -2.16534 0
M  V30 4361 H 417.725 -0.474197 -0.569402 0
M  V30 4362 H 420.372 -1.67839 -0.922086 0
M  V30 4363 H 418.677 -1.70216 -3.52893 0
M  V30 4364 H 420.374 -2.08031 -3.42818 0
M  V30 4365 H 416.964 -3.32086 -2.70956 0
M  V30 4366 H 421.148 -4.28117 -2.51056 0
M  V30 4367 H 416.404 -5.67474 -2.2756 0
M  V30 4368 H 420.578 -6.6439 -2.08708 0
M  V30 4369 H 418.205 -7.34381 -1.96441 0
M  V30 4370 N 419.78 1.02168 -1.19998 0
M  V30 4371 C 421.008 1.79296 -1.03249 0
M  V30 4372 C 421.423 1.84103 0.418502 0
M  V30 4373 O 420.78 1.29031 1.29063 0
M  V30 4374 C 420.831 3.24007 -1.60319 0
M  V30 4375 O 420.552 3.19512 -2.99739 0
M  V30 4376 C 422.053 4.17704 -1.48453 0
M  V30 4377 H 419.273 0.564016 -0.363493 0
M  V30 4378 H 421.817 1.28639 -1.58973 0
M  V30 4379 H 419.972 3.7183 -1.08727 0
M  V30 4380 H 420.386 4.10306 -3.26725 0
M  V30 4381 H 421.86 5.17104 -1.93153 0
M  V30 4382 H 422.337 4.37029 -0.436193 0
M  V30 4383 H 422.943 3.7576 -1.99211 0
M  V30 4384 N 421.258 1.00505 1.21394 0
M  V30 4385 C 422.506 0.686415 1.90086 0
M  V30 4386 C 422.827 -0.785264 1.7849 0
M  V30 4387 O 422.097 -1.56387 1.17983 0
M  V30 4388 H 420.677 0.2509 0.703604 0
M  V30 4389 H 423.339 1.27417 1.47482 0
M  V30 4390 H 422.435 0.959621 2.96981 0
M  V30 4391 N 422.737 -1.36956 0.779787 0
M  V30 4392 C 423.962 -2.04283 0.358224 0
M  V30 4393 C 424.387 -1.58422 -1.01411 0
M  V30 4394 O 423.745 -0.748179 -1.65142 0
M  V30 4395 C 423.793 -3.58152 0.419479 0
M  V30 4396 O 422.897 -4.08342 -0.577142 0
M  V30 4397 H 422.238 -0.645967 0.153698 0
M  V30 4398 H 424.768 -1.75108 1.05822 0
M  V30 4399 H 424.778 -4.07041 0.279636 0
M  V30 4400 H 423.453 -3.90886 1.42061 0
M  V30 4401 H 422.03 -3.70751 -0.399755 0
M  V30 4402 N 424.215 -0.530993 -1.48385 0
M  V30 4403 C 425.461 0.00274135 -2.028 0
M  V30 4404 C 425.794 1.33838 -1.40716 0
M  V30 4405 O 425.069 1.86465 -0.553277 0
M  V30 4406 C 425.352 0.123676 -3.59888 0
M  V30 4407 C 425.205 -1.2372 -4.3245 0
M  V30 4408 C 426.524 0.849967 -4.31814 0
M  V30 4409 H 423.643 -0.000477758 -0.737 0
M  V30 4410 H 426.285 -0.688217 -1.77098 0
M  V30 4411 H 424.435 0.712157 -3.81917 0
M  V30 4412 H 426.107 -1.86687 -4.21836 0
M  V30 4413 H 424.35 -1.81882 -3.93829 0
M  V30 4414 H 425.021 -1.10557 -5.40815 0
M  V30 4415 H 427.497 0.350572 -4.14621 0
M  V30 4416 H 426.373 0.903486 -5.41413 0
M  V30 4417 H 426.634 1.90047 -3.99167 0
M  V30 4418 N 425.693 1.55336 -0.266172 0
M  V30 4419 C 427.104 1.85236 0.233315 0
M  V30 4420 C 427.455 1.18816 1.56132 0
M  V30 4421 O 426.58 0.473307 2.11161 0
M  V30 4422 C 427.175 3.36059 0.430113 0
M  V30 4423 C 425.734 3.66116 0.873842 0
M  V30 4424 C 424.881 2.77274 -0.0380016 0
M  V30 4425 H 427.832 1.51004 -0.488214 0
M  V30 4426 H 427.853 3.58681 1.26998 0
M  V30 4427 H 427.365 3.84373 -0.536588 0
M  V30 4428 H 425.466 3.23295 1.85233 0
M  V30 4429 H 425.579 4.73699 0.717358 0
M  V30 4430 H 423.943 2.50198 0.476759 0
M  V30 4431 H 424.726 3.284 -1.00042 0
M  V30 4432 N 427.171 -0.0066808 1.57599 0
M  V30 4433 C 428.399 -0.704087 1.94551 0
M  V30 4434 C 428.814 -1.67677 0.867746 0
M  V30 4435 O 428.171 -1.8185 -0.153925 0
M  V30 4436 C 428.222 -1.44177 3.31505 0
M  V30 4437 O 427.943 -0.508097 4.35144 0
M  V30 4438 C 429.444 -2.23429 3.82876 0
M  V30 4439 H 426.664 -0.196523 0.641576 0
M  V30 4440 H 429.208 0.042453 2.04456 0
M  V30 4441 H 427.363 -2.13999 3.22929 0
M  V30 4442 H 427.777 -1.02782 5.14331 0
M  V30 4443 H 429.251 -2.70552 4.8115 0
M  V30 4444 H 429.728 -3.05818 3.15233 0
M  V30 4445 H 430.334 -1.58636 3.94607 0
M  V30 4446 N 428.649 -1.55105 -0.279332 0
M  V30 4447 C 429.896 -1.75412 -1.01177 0
M  V30 4448 C 430.224 -0.551728 -1.86511 0
M  V30 4449 O 429.479 0.465919 -1.90073 0
M  V30 4450 C 429.778 -3.0086 -1.92919 0
M  V30 4451 C 429.444 -4.33689 -1.23387 0
M  V30 4452 C 428.106 -4.69792 -1.04159 0
M  V30 4453 C 430.458 -5.15941 -0.738562 0
M  V30 4454 C 427.786 -5.85707 -0.341166 0
M  V30 4455 C 430.138 -6.32579 -0.0517636 0
M  V30 4456 C 428.802 -6.67326 0.152292 0
M  V30 4457 H 428.072 -0.641879 -0.370233 0
M  V30 4458 H 430.719 -1.89373 -0.284627 0
M  V30 4459 H 429.024 -2.81773 -2.72234 0
M  V30 4460 H 430.721 -3.13768 -2.49701 0
M  V30 4461 H 427.311 -4.05309 -1.39364 0
M  V30 4462 H 431.495 -4.8853 -0.874764 0
M  V30 4463 H 426.751 -6.11157 -0.172287 0
M  V30 4464 H 430.925 -6.9557 0.339828 0
M  V30 4465 H 428.552 -7.56998 0.697014 0
M  V30 4466 N 430.127 0.543554 -1.4793 0
M  V30 4467 C 431.074 1.64942 -1.6144 0
M  V30 4468 C 432.044 1.59692 -0.456903 0
M  V30 4469 O 433.229 1.78321 -0.678688 0
M  V30 4470 C 430.369 3.03238 -1.64744 0
M  V30 4471 C 429.482 3.18823 -2.91506 0
M  V30 4472 C 428.617 4.47599 -2.86057 0
M  V30 4473 C 427.656 4.56664 -4.07584 0
M  V30 4474 N 426.793 5.76811 -4.00292 0
M  V30 4475 H 431.633 1.52733 -2.55884 0
M  V30 4476 H 429.17 0.7438 -1.2691 0
M  V30 4477 H 431.128 3.83339 -1.64641 0
M  V30 4478 H 429.758 3.1425 -0.738017 0
M  V30 4479 H 428.81 2.32064 -3.01414 0
M  V30 4480 H 430.122 3.21384 -3.81463 0
M  V30 4481 H 429.276 5.35975 -2.84281 0
M  V30 4482 H 428.015 4.47538 -1.93807 0
M  V30 4483 H 427.02 3.66697 -4.09651 0
M  V30 4484 H 428.245 4.58474 -5.00978 0
M  V30 4485 H 426.191 5.77673 -3.10853 0
M  V30 4486 H 426.108 5.80808 -4.8394 0
M  V30 4487 H 427.376 6.67512 -4.02553 0
M  V30 4488 N 431.605 1.3629 0.791371 0
M  V30 4489 C 432.555 1.26988 1.89362 0
M  V30 4490 C 433.539 0.161795 1.60084 0
M  V30 4491 O 434.731 0.394426 1.72549 0
M  V30 4492 C 431.86 1.05944 3.26544 0
M  V30 4493 C 430.946 2.21211 3.61838 0
M  V30 4494 N 431.337 3.46518 3.68455 0
M  V30 4495 C 429.635 2.12933 3.91887 0
M  V30 4496 C 430.336 4.2241 3.99931 0
M  V30 4497 N 429.312 3.51329 4.14812 0
M  V30 4498 H 433.114 2.21908 1.92702 0
M  V30 4499 H 430.628 1.28982 0.986787 0
M  V30 4500 H 432.625 0.973666 4.05371 0
M  V30 4501 H 431.285 0.119223 3.24481 0
M  V30 4502 H 432.296 3.80677 3.51148 0
M  V30 4503 H 428.973 1.26855 3.97761 0
M  V30 4504 H 430.363 5.30767 4.1199 0
M  V30 4505 N 433.083 -1.0153 1.20538 0
M  V30 4506 C 434.013 -2.11972 0.979295 0
M  V30 4507 C 434.994 -1.6985 -0.0921787 0
M  V30 4508 O 436.179 -1.94089 0.0655932 0
M  V30 4509 C 433.309 -3.43201 0.531984 0
M  V30 4510 C 432.263 -3.9907 1.54685 0
M  V30 4511 C 431.589 -5.26082 0.956127 0
M  V30 4512 C 432.889 -4.32313 2.93092 0
M  V30 4513 H 434.583 -2.31143 1.90298 0
M  V30 4514 H 432.129 -1.11079 0.916372 0
M  V30 4515 H 434.082 -4.1985 0.361044 0
M  V30 4516 H 432.806 -3.23792 -0.427327 0
M  V30 4517 H 431.465 -3.2453 1.70517 0
M  V30 4518 H 431.113 -5.02999 -0.0111538 0
M  V30 4519 H 430.813 -5.64426 1.63393 0
M  V30 4520 H 432.337 -6.05386 0.796284 0
M  V30 4521 H 433.751 -4.99845 2.80763 0
M  V30 4522 H 432.148 -4.81774 3.57791 0
M  V30 4523 H 433.218 -3.41025 3.44717 0
M  V30 4524 N 434.561 -1.01147 -1.20859 0
M  V30 4525 C 435.807 -0.708598 -1.90658 0
M  V30 4526 C 436.162 0.753069 -1.7705 0
M  V30 4527 O 435.455 1.53952 -1.14059 0
M  V30 4528 C 435.649 -1.0727 -3.40922 0
M  V30 4529 C 435.478 -2.56821 -3.69152 0
M  V30 4530 C 434.248 -3.23524 -3.8815 0
M  V30 4531 C 436.446 -3.54997 -3.72131 0
M  V30 4532 N 434.428 -4.62359 -4.03853 0
M  V30 4533 C 435.799 -4.79371 -3.93196 0
M  V30 4534 C 437.854 -3.49042 -3.55069 0
M  V30 4535 C 436.557 -5.98512 -3.98969 0
M  V30 4536 C 438.583 -4.67579 -3.6211 0
M  V30 4537 C 437.945 -5.9076 -3.83643 0
M  V30 4538 H 434.044 -0.31088 -0.71755 0
M  V30 4539 H 436.628 -1.29526 -1.45366 0
M  V30 4540 H 434.799 -0.51443 -3.84978 0
M  V30 4541 H 436.531 -0.723891 -3.98173 0
M  V30 4542 H 433.286 -2.73958 -3.86321 0
M  V30 4543 H 433.71 -5.34427 -4.15592 0
M  V30 4544 H 438.352 -2.54808 -3.37391 0
M  V30 4545 H 436.07 -6.93132 -4.15444 0
M  V30 4546 H 439.656 -4.64581 -3.50222 0
M  V30 4547 H 438.536 -6.8095 -3.88944 0
M  V30 4548 N 436.039 1.36541 -0.78704 0
M  V30 4549 C 436.986 2.30082 -0.181901 0
M  V30 4550 C 437.956 1.5186 0.672896 0
M  V30 4551 O 439.141 1.80374 0.622072 0
M  V30 4552 C 436.281 3.3835 0.679197 0
M  V30 4553 C 435.394 4.31565 -0.193882 0
M  V30 4554 C 434.529 5.26915 0.673364 0
M  V30 4555 C 433.568 6.11769 -0.201315 0
M  V30 4556 N 432.705 6.99315 0.624777 0
M  V30 4557 H 437.545 2.81248 -0.985064 0
M  V30 4558 H 435.082 1.38437 -0.497342 0
M  V30 4559 H 437.04 3.99767 1.19341 0
M  V30 4560 H 435.67 2.8851 1.44781 0
M  V30 4561 H 434.722 3.71323 -0.826044 0
M  V30 4562 H 436.034 4.91191 -0.867937 0
M  V30 4563 H 435.188 5.9361 1.25348 0
M  V30 4564 H 433.927 4.67737 1.38105 0
M  V30 4565 H 432.932 5.44039 -0.793849 0
M  V30 4566 H 434.157 6.73022 -0.906568 0
M  V30 4567 H 432.103 6.42648 1.3168 0
M  V30 4568 H 432.02 7.56 0.00835237 0
M  V30 4569 H 433.288 7.70382 1.18879 0
M  V30 4570 N 437.518 0.538854 1.48102 0
M  V30 4571 C 438.45 -0.256278 2.27763 0
M  V30 4572 C 439.463 -0.89633 1.35904 0
M  V30 4573 O 440.652 -0.773275 1.60881 0
M  V30 4574 C 437.752 -1.37896 3.09577 0
M  V30 4575 C 436.925 -0.839159 4.29275 0
M  V30 4576 C 435.984 -1.84405 4.9283 0
M  V30 4577 O 435.01 -1.39746 5.51779 0
M  V30 4578 N 436.212 -3.17666 4.85869 0
M  V30 4579 H 438.977 0.426968 2.96643 0
M  V30 4580 H 436.538 0.373747 1.57527 0
M  V30 4581 H 438.53 -2.04955 3.48963 0
M  V30 4582 H 437.1 -1.96572 2.4306 0
M  V30 4583 H 436.32 0.00769287 3.94199 0
M  V30 4584 H 437.608 -0.457548 5.06739 0
M  V30 4585 H 437.006 -3.56609 4.39143 0
M  V30 4586 H 435.563 -3.80334 5.29329 0
M  V30 4587 N 438.996 -1.55193 0.274407 0
M  V30 4588 C 440.242 -1.99877 -0.343086 0
M  V30 4589 C 440.575 -1.16256 -1.55558 0
M  V30 4590 O 439.85 -0.232462 -1.93106 0
M  V30 4591 C 440.133 -3.52706 -0.725965 0
M  V30 4592 C 439.986 -4.47081 0.493818 0
M  V30 4593 C 441.305 -4.11422 -1.56268 0
M  V30 4594 H 438.424 -0.726625 -0.123229 0
M  V30 4595 H 441.066 -1.86136 0.38121 0
M  V30 4596 H 439.216 -3.64546 -1.34307 0
M  V30 4597 H 440.888 -4.47186 1.13237 0
M  V30 4598 H 439.131 -4.1877 1.13201 0
M  V30 4599 H 439.802 -5.51699 0.18217 0
M  V30 4600 H 442.278 -4.02855 -1.04151 0
M  V30 4601 H 441.154 -5.18568 -1.79939 0
M  V30 4602 H 441.415 -3.61607 -2.54348 0
M  V30 4603 N 440.474 -0.00167713 -1.576 0
M  V30 4604 C 441.437 0.974046 -2.07473 0
M  V30 4605 C 442.437 1.27143 -0.984444 0
M  V30 4606 O 443.627 1.21633 -1.24703 0
M  V30 4607 C 440.759 2.29849 -2.51759 0
M  V30 4608 H 441.952 0.54262 -2.9495 0
M  V30 4609 H 439.505 0.245829 -1.54355 0
M  V30 4610 H 440.24 2.77677 -1.67529 0
M  V30 4611 H 440.025 2.09584 -3.31386 0
M  V30 4612 H 441.515 2.9984 -2.90664 0
M  V30 4613 N 441.952 1.55251 0.271103 0
M  V30 4614 C 442.884 1.84675 1.35749 0
M  V30 4615 C 443.897 0.731366 1.45447 0
M  V30 4616 O 445.086 1.00924 1.4723 0
M  V30 4617 C 442.186 1.99638 2.73857 0
M  V30 4618 C 441.359 3.30312 2.86727 0
M  V30 4619 C 440.418 3.35318 4.05522 0
M  V30 4620 O 439.444 4.08682 3.96191 0
M  V30 4621 N 440.646 2.62857 5.17577 0
M  V30 4622 H 443.411 2.78445 1.10853 0
M  V30 4623 H 440.972 1.55191 0.461218 0
M  V30 4624 H 442.964 2.00355 3.51625 0
M  V30 4625 H 441.534 1.12725 2.91568 0
M  V30 4626 H 440.754 3.42118 1.95829 0
M  V30 4627 H 442.042 4.16488 2.92258 0
M  V30 4628 H 441.44 2.02939 5.28046 0
M  V30 4629 H 439.997 2.69295 5.93568 0
M  V30 4630 N 443.43 -0.535701 1.48216 0
M  V30 4631 C 444.378 -1.66179 1.62749 0
M  V30 4632 C 445.372 -1.62034 0.49409 0
M  V30 4633 O 446.578 -1.6696 0.672624 0
M  V30 4634 H 442.953 -0.550244 0.512578 0
M  V30 4635 H 444.924 -1.51063 2.57337 0
M  V30 4636 C 443.673 -3.04471 1.67907 0
M  V30 4637 H 442.996 -3.08351 2.54479 0
M  V30 4638 H 444.436 -3.82894 1.82121 0
M  V30 4639 C 442.895 -3.34314 0.416596 0
M  V30 4640 O 443.425 -3.98905 -0.473014 0
M  V30 4641 N 441.631 -2.89149 0.290038 0
M  V30 4642 H 441.178 -2.36764 1.01493 0
M  V30 4643 H 441.136 -3.09486 -0.55367 0
M  V30 4644 N 444.908 -1.36708 -0.784132 0
M  V30 4645 C 445.838 -1.34153 -1.91116 0
M  V30 4646 C 446.819 -0.212121 -1.68772 0
M  V30 4647 O 448.004 -0.410581 -1.8981 0
M  V30 4648 C 445.134 -1.13535 -3.28218 0
M  V30 4649 C 444.088 -2.23356 -3.65097 0
M  V30 4650 C 443.414 -1.87875 -5.00607 0
M  V30 4651 C 444.714 -3.65473 -3.73131 0
M  V30 4652 H 446.408 -2.28459 -1.93512 0
M  V30 4653 H 443.954 -1.09973 -0.929618 0
M  V30 4654 H 445.907 -1.10381 -4.06687 0
M  V30 4655 H 444.631 -0.156804 -3.26223 0
M  V30 4656 H 443.29 -2.25645 -2.88929 0
M  V30 4657 H 442.938 -0.885814 -4.95139 0
M  V30 4658 H 442.638 -2.61406 -5.26252 0
M  V30 4659 H 444.162 -1.86286 -5.81489 0
M  V30 4660 H 445.576 -3.65382 -4.41779 0
M  V30 4661 H 443.973 -4.37953 -4.10265 0
M  V30 4662 H 445.043 -3.99995 -2.74102 0
M  V30 4663 N 446.386 1.0089 -1.21074 0
M  V30 4664 C 447.663 1.71834 -0.934469 0
M  V30 4665 C 448.043 2.0368 0.554753 0
M  V30 4666 O 447.391 1.70742 1.51854 0
M  V30 4667 C 447.601 2.98061 -1.8155 0
M  V30 4668 C 448.949 3.7117 -2.06199 0
M  V30 4669 O 449.973 3.08034 -1.78867 0
M  V30 4670 O 448.832 4.84721 -2.52404 0
M  V30 4671 H 445.926 0.749253 -0.35007 0
M  V30 4672 H 448.472 1.06668 -1.31985 0
M  V30 4673 H 447.244 2.70908 -2.82355 0
M  V30 4674 H 446.867 3.70968 -1.43068 0
M  V30 4675 N 447.864 1.01787 1.20321 0
M  V30 4676 C 449.28 0.732951 1.41774 0
M  V30 4677 C 449.48 -0.686883 1.89431 0
M  V30 4678 O 448.536 -1.45446 2.06402 0
M  V30 4679 C 449.849 1.75973 2.43832 0
M  V30 4680 C 451.397 1.77802 2.57596 0
M  V30 4681 C 451.872 2.7941 3.62897 0
M  V30 4682 N 453.363 2.78157 3.70382 0
M  V30 4683 C 454.098 3.53434 4.51521 0
M  V30 4684 N 453.594 4.38392 5.36455 0
M  V30 4685 N 455.387 3.42026 4.46066 0
M  V30 4686 H 447.538 1.93447 0.877035 0
M  V30 4687 H 449.801 0.835712 0.447536 0
M  V30 4688 H 449.507 2.77699 2.15815 0
M  V30 4689 H 449.381 1.57292 3.4284 0
M  V30 4690 H 451.768 0.767602 2.84942 0
M  V30 4691 H 451.849 2.00557 1.58779 0
M  V30 4692 H 451.493 3.80616 3.36295 0
M  V30 4693 H 451.423 2.53916 4.61339 0
M  V30 4694 H 453.914 2.16531 3.09714 0
M  V30 4695 H 454.227 4.92596 5.95457 0
M  V30 4696 H 452.572 4.4247 5.35953 0
M  V30 4697 H 455.763 2.75075 3.78749 0
M  V30 4698 H 455.936 4.00946 5.09064 0
M  V30 4699 N 449.342 -1.36122 0.79427 0
M  V30 4700 C 450.589 -1.99111 0.368905 0
M  V30 4701 C 450.917 -1.63032 -1.0607 0
M  V30 4702 O 450.172 -0.879303 -1.74833 0
M  V30 4703 C 450.471 -3.5409 0.48527 0
M  V30 4704 C 450.137 -4.10003 1.87638 0
M  V30 4705 C 448.799 -4.24986 2.257 0
M  V30 4706 C 451.151 -4.40423 2.78706 0
M  V30 4707 C 448.479 -4.67701 3.54221 0
M  V30 4708 C 450.831 -4.84573 4.0666 0
M  V30 4709 C 449.495 -4.97761 4.44737 0
M  V30 4710 H 448.765 -0.7286 0.134992 0
M  V30 4711 H 451.412 -1.62534 1.01267 0
M  V30 4712 H 449.717 -3.91052 -0.241984 0
M  V30 4713 H 451.414 -4.00766 0.137109 0
M  V30 4714 H 448.004 -3.98784 1.57064 0
M  V30 4715 H 452.188 -4.28412 2.50553 0
M  V30 4716 H 447.444 -4.761 3.83587 0
M  V30 4717 H 451.618 -5.07074 4.77336 0
M  V30 4718 H 449.245 -5.30618 5.44379 0
M  V30 4719 N 450.82 -0.546701 -1.47814 0
M  V30 4720 C 451.77 0.227042 -2.26867 0
M  V30 4721 C 452.754 0.894844 -1.33721 0
M  V30 4722 O 453.946 0.794887 -1.58147 0
M  V30 4723 C 451.075 1.26299 -3.19223 0
M  V30 4724 C 450.161 0.59913 -4.19847 0
M  V30 4725 N 450.552 -0.324777 -5.04756 0
M  V30 4726 C 448.85 0.854331 -4.37741 0
M  V30 4727 C 449.551 -0.709386 -5.77358 0
M  V30 4728 N 448.527 -0.0666153 -5.43559 0
M  V30 4729 H 452.329 -0.483476 -2.89896 0
M  V30 4730 H 449.843 -0.365893 -1.58224 0
M  V30 4731 H 451.84 1.83116 -3.74532 0
M  V30 4732 H 450.5 1.97471 -2.57751 0
M  V30 4733 H 451.511 -0.698351 -5.1317 0
M  V30 4734 H 448.188 1.55536 -3.87447 0
M  V30 4735 H 449.578 -1.46796 -6.55668 0
M  V30 4736 N 452.299 1.55045 -0.282633 0
M  V30 4737 C 453.527 2.04168 0.33512 0
M  V30 4738 C 453.942 1.16071 1.48906 0
M  V30 4739 O 453.299 0.182391 1.81586 0
M  V30 4740 C 453.35 3.52332 0.808957 0
M  V30 4741 O 453.071 4.37078 -0.299038 0
M  V30 4742 C 454.572 4.17375 1.49375 0
M  V30 4743 H 451.792 0.666744 0.0754543 0
M  V30 4744 H 454.336 2.00205 -0.416918 0
M  V30 4745 H 452.491 3.56715 1.51106 0
M  V30 4746 H 452.905 5.24458 0.0665514 0
M  V30 4747 H 454.379 5.22627 1.77664 0
M  V30 4748 H 454.856 3.65999 2.42778 0
M  V30 4749 H 455.462 4.17016 0.835305 0
M  V30 4750 N 453.777 0.010035 1.57597 0
M  V30 4751 C 455.024 -0.6727 1.91 0
M  V30 4752 C 455.352 -1.73219 0.884614 0
M  V30 4753 O 454.607 -1.95395 -0.109215 0
M  V30 4754 C 454.906 -1.34434 3.31153 0
M  V30 4755 C 454.572 -0.417083 4.48967 0
M  V30 4756 C 453.234 -0.161809 4.80928 0
M  V30 4757 C 455.586 0.220753 5.20732 0
M  V30 4758 C 452.914 0.739426 5.82022 0
M  V30 4759 C 455.266 1.10993 6.22787 0
M  V30 4760 C 453.93 1.37428 6.532 0
M  V30 4761 H 453.2 -0.246158 0.698918 0
M  V30 4762 H 455.847 0.0677145 1.9138 0
M  V30 4763 H 454.152 -2.15905 3.26944 0
M  V30 4764 H 455.849 -1.87883 3.54261 0
M  V30 4765 H 452.439 -0.626217 4.24001 0
M  V30 4766 H 456.623 0.0365643 4.96287 0
M  V30 4767 H 451.879 0.952139 6.03941 0
M  V30 4768 H 456.053 1.61046 6.77523 0
M  V30 4769 H 453.68 2.0743 7.31353 0
M  V30 4770 N 455.255 -1.55392 -0.262866 0
M  V30 4771 C 456.666 -1.67079 -0.833158 0
M  V30 4772 C 457.017 -0.604539 -1.86654 0
M  V30 4773 O 456.142 0.252138 -2.14926 0
M  V30 4774 C 456.737 -3.02891 -1.51797 0
M  V30 4775 C 455.296 -3.16571 -2.03617 0
M  V30 4776 C 454.443 -2.62909 -0.881701 0
M  V30 4777 H 457.394 -1.58652 -0.0389986 0
M  V30 4778 H 457.415 -2.96445 -2.38538 0
M  V30 4779 H 456.927 -3.80473 -0.765619 0
M  V30 4780 H 455.028 -2.43782 -2.81782 0
M  V30 4781 H 455.141 -4.23271 -2.24452 0
M  V30 4782 H 453.505 -2.20324 -1.27786 0
M  V30 4783 H 454.288 -3.43003 -0.14269 0
M  V30 4784 N 456.733 0.527833 -1.48498 0
M  V30 4785 C 458.149 0.856571 -1.34666 0
M  V30 4786 C 458.349 1.98271 -0.35931 0
M  V30 4787 O 457.405 2.51551 0.218703 0
M  V30 4788 C 458.718 1.22207 -2.74747 0
M  V30 4789 C 460.266 1.33183 -2.83251 0
M  V30 4790 C 460.741 1.73075 -4.24039 0
M  V30 4791 N 462.232 1.80174 -4.26722 0
M  V30 4792 C 462.967 2.1243 -5.32598 0
M  V30 4793 N 462.463 2.43096 -6.4875 0
M  V30 4794 N 464.256 2.13454 -5.19994 0
M  V30 4795 H 456.407 -0.215174 -2.11307 0
M  V30 4796 H 458.67 -0.0336281 -0.947403 0
M  V30 4797 H 458.376 0.468195 -3.4857 0
M  V30 4798 H 458.25 2.17173 -3.08409 0
M  V30 4799 H 460.637 2.07647 -2.09683 0
M  V30 4800 H 460.718 0.363333 -2.53206 0
M  V30 4801 H 460.362 0.991712 -4.98124 0
M  V30 4802 H 460.292 2.70979 -4.51529 0
M  V30 4803 H 462.783 1.58744 -3.42942 0
M  V30 4804 H 463.096 2.6682 -7.25277 0
M  V30 4805 H 461.441 2.40611 -6.52021 0
M  V30 4806 H 464.632 1.88956 -4.28268 0
M  V30 4807 H 464.805 2.38261 -6.02608 0
M  V30 4808 N 458.211 1.37122 0.776871 0
M  V30 4809 C 459.141 1.35164 1.90402 0
M  V30 4810 C 460.122 0.221069 1.68657 0
M  V30 4811 O 461.307 0.420642 1.8959 0
M  V30 4812 C 458.437 1.15274 3.27611 0
M  V30 4813 C 457.391 2.25289 3.63908 0
M  V30 4814 C 456.717 1.90527 4.99603 0
M  V30 4815 C 458.017 3.67446 3.71188 0
M  V30 4816 H 459.711 2.29482 1.92297 0
M  V30 4817 H 457.257 1.10465 0.923773 0
M  V30 4818 H 459.21 1.12536 4.06096 0
M  V30 4819 H 457.934 0.174102 3.26136 0
M  V30 4820 H 456.593 2.27174 2.87728 0
M  V30 4821 H 456.241 0.91206 4.94662 0
M  V30 4822 H 455.941 2.64193 5.24858 0
M  V30 4823 H 457.465 1.89367 5.80493 0
M  V30 4824 H 458.879 3.67719 4.39836 0
M  V30 4825 H 457.276 4.40123 4.07936 0
M  V30 4826 H 458.346 4.01443 2.71977 0
M  V30 4827 N 459.689 -1.00246 1.21608 0
M  V30 4828 C 460.652 -2.07233 0.979133 0
M  V30 4829 C 461.652 -1.6072 -0.0508219 0
M  V30 4830 O 462.842 -1.73196 0.186712 0
M  V30 4831 C 459.974 -3.37546 0.477016 0
M  V30 4832 H 461.167 -2.29687 1.92831 0
M  V30 4833 H 458.72 -1.17261 1.03342 0
M  V30 4834 H 459.455 -3.20773 -0.476966 0
M  V30 4835 H 459.24 -3.72638 1.21997 0
M  V30 4836 H 460.73 -4.16285 0.331181 0
M  V30 4837 N 461.167 -1.02423 -1.1978 0
M  V30 4838 C 462.415 -0.716569 -1.8897 0
M  V30 4839 C 462.736 0.756769 -1.79716 0
M  V30 4840 O 462.006 1.5449 -1.20456 0
M  V30 4841 H 460.586 -0.262062 -0.699523 0
M  V30 4842 H 463.248 -1.29747 -1.45436 0
M  V30 4843 H 462.344 -1.00675 -2.95417 0
M  V30 4844 N 462.645 1.35699 -0.801477 0
M  V30 4845 C 463.555 2.33661 -0.209691 0
M  V30 4846 C 464.571 1.6162 0.644591 0
M  V30 4847 O 465.747 1.93529 0.557545 0
M  V30 4848 C 462.812 3.40816 0.636033 0
M  V30 4849 C 461.873 4.28639 -0.238147 0
M  V30 4850 C 461.106 5.30676 0.567307 0
M  V30 4851 O 461.329 5.41174 1.8024 0
M  V30 4852 O 460.263 6.01887 -0.0391336 0
M  V30 4853 H 464.089 2.8606 -1.01996 0
M  V30 4854 H 461.674 1.38379 -0.563164 0
M  V30 4855 H 463.556 4.06301 1.11791 0
M  V30 4856 H 462.231 2.90696 1.42399 0
M  V30 4857 H 461.138 3.66152 -0.767044 0
M  V30 4858 H 462.471 4.82143 -0.989915 0
M  V30 4859 N 464.123 0.554532 1.47522 0
M  V30 4860 C 465.363 0.0317994 2.04375 0
M  V30 4861 C 465.727 -1.29242 1.41988 0
M  V30 4862 O 466.928 -1.90269 1.89872 0
M  V30 4863 C 465.199 -0.0623344 3.57346 0
M  V30 4864 S 466.758 -0.531578 4.35568 0
M  V30 4865 H 463.576 0.0238553 0.7106 0
M  V30 4866 H 466.178 0.74066 1.80927 0
M  V30 4867 H 464.882 0.905857 4.00278 0
M  V30 4868 H 464.413 -0.794831 3.85287 0
M  V30 4869 H 466.428 -1.79175 4.62721 0
M  V30 4870 N 465.601 -1.54893 0.290851 0
M  V30 4871 C 466.849 -1.99538 -0.320756 0
M  V30 4872 C 467.17 -1.18075 -1.55188 0
M  V30 4873 O 466.44 -0.274162 -1.93972 0
M  V30 4874 H 465.02 -0.737052 -0.121507 0
M  V30 4875 H 467.682 -1.90755 0.399832 0
M  V30 4876 H 466.778 -3.06282 -0.599802 0
M  V30 4877 N 467.08 -0.0183926 -1.57589 0
M  V30 4878 C 468.328 0.661253 -1.90976 0
M  V30 4879 C 468.649 1.73281 -0.894353 0
M  V30 4880 O 467.919 1.9579 0.0656788 0
M  V30 4881 H 466.499 0.247233 -0.704901 0
M  V30 4882 H 469.161 -0.0636639 -1.94796 0
M  V30 4883 H 468.257 1.12083 -2.9128 0
M  V30 4884 N 468.558 1.5553 0.254621 0
M  V30 4885 C 469.505 1.89666 1.31512 0
M  V30 4886 C 470.475 0.750057 1.482 0
M  V30 4887 O 471.66 1.00301 1.62309 0
M  V30 4888 C 468.8 2.19009 2.667 0
M  V30 4889 C 467.913 3.46435 2.58083 0
M  V30 4890 C 467.048 3.65386 3.85573 0
M  V30 4891 C 466.087 4.8644 3.71541 0
M  V30 4892 N 465.224 5.01952 4.90906 0
M  V30 4893 H 470.064 2.80109 1.017 0
M  V30 4894 H 467.601 1.38666 0.490938 0
M  V30 4895 H 469.559 2.34025 3.45381 0
M  V30 4896 H 468.189 1.31779 2.94676 0
M  V30 4897 H 467.241 3.39792 1.71013 0
M  V30 4898 H 468.553 4.35258 2.43622 0
M  V30 4899 H 467.707 3.80319 4.72697 0
M  V30 4900 H 466.446 2.74781 4.02922 0
M  V30 4901 H 465.451 4.71491 2.82801 0
M  V30 4902 H 466.676 5.78497 3.55694 0
M  V30 4903 H 464.622 4.14283 5.08631 0
M  V30 4904 H 464.539 5.84851 4.79046 0
M  V30 4905 H 465.807 5.21289 5.7955 0
M  V30 4906 N 470.036 -0.519951 1.48776 0
M  V30 4907 C 470.984 -1.64443 1.64503 0
M  V30 4908 C 471.978 -1.61501 0.511248 0
M  V30 4909 O 473.184 -1.66238 0.690294 0
M  V30 4910 H 469.559 -0.544776 0.518385 0
M  V30 4911 H 471.53 -1.48325 2.58925 0
M  V30 4912 C 470.279 -3.02673 1.71127 0
M  V30 4913 H 469.602 -3.05635 2.57735 0
M  V30 4914 H 471.042 -3.80941 1.86172 0
M  V30 4915 C 469.501 -3.33854 0.452032 0
M  V30 4916 O 470.031 -3.99385 -0.430678 0
M  V30 4917 N 468.237 -2.88825 0.32069 0
M  V30 4918 H 467.784 -2.35674 1.03998 0
M  V30 4919 H 467.742 -3.10056 -0.520814 0
M  V30 4920 N 471.514 -1.37532 -0.769588 0
M  V30 4921 C 472.761 -1.3286 -1.52822 0
M  V30 4922 C 473.089 0.0862597 -1.94309 0
M  V30 4923 O 472.344 1.05995 -1.6451 0
M  V30 4924 C 472.643 -2.21558 -2.8044 0
M  V30 4925 C 472.309 -3.69796 -2.57996 0
M  V30 4926 C 470.971 -4.10194 -2.51583 0
M  V30 4927 C 473.323 -4.63699 -2.37976 0
M  V30 4928 C 470.651 -5.42608 -2.23144 0
M  V30 4929 C 473.003 -5.96353 -2.1106 0
M  V30 4930 C 471.667 -6.35853 -2.03093 0
M  V30 4931 H 470.937 -0.486168 -0.559215 0
M  V30 4932 H 473.584 -1.69757 -0.886277 0
M  V30 4933 H 471.889 -1.77663 -3.49204 0
M  V30 4934 H 473.586 -2.15256 -3.38328 0
M  V30 4935 H 470.176 -3.37759 -2.63851 0
M  V30 4936 H 474.36 -4.33346 -2.41919 0
M  V30 4937 H 469.616 -5.72173 -2.15472 0
M  V30 4938 H 473.79 -6.68667 -1.94568 0
M  V30 4939 H 471.417 -7.38382 -1.8082 0
M  V30 4940 N 472.992 0.995999 -1.22138 0
M  V30 4941 C 473.942 2.06988 -0.956042 0
M  V30 4942 C 474.926 1.60636 0.0921576 0
M  V30 4943 O 476.118 1.76607 -0.117958 0
M  V30 4944 C 473.247 3.39148 -0.532335 0
M  V30 4945 C 472.333 3.92142 -1.61509 0
M  V30 4946 N 472.724 4.18397 -2.84214 0
M  V30 4947 C 471.022 4.20514 -1.48606 0
M  V30 4948 C 471.723 4.61425 -3.54206 0
M  V30 4949 N 470.699 4.64934 -2.81669 0
M  V30 4950 H 474.501 2.25223 -1.88816 0
M  V30 4951 H 472.015 1.17748 -1.11845 0
M  V30 4952 H 474.012 4.15642 -0.323574 0
M  V30 4953 H 472.672 3.22314 0.392921 0
M  V30 4954 H 473.683 4.06682 -3.20671 0
M  V30 4955 H 470.36 4.12769 -0.626762 0
M  V30 4956 H 471.75 4.90387 -4.59315 0
M  V30 4957 N 474.47 1.03057 1.19235 0
M  V30 4958 C 475.717 0.728019 1.88961 0
M  V30 4959 C 476.045 -0.743515 1.79728 0
M  V30 4960 O 475.3 -1.55729 1.1852 0
M  V30 4961 C 475.599 1.1268 3.39172 0
M  V30 4962 C 475.265 2.5969 3.68608 0
M  V30 4963 C 473.927 2.99854 3.76352 0
M  V30 4964 C 476.279 3.54793 3.81801 0
M  V30 4965 C 473.607 4.34031 3.94758 0
M  V30 4966 C 475.959 4.88675 4.0172 0
M  V30 4967 C 474.623 5.28526 4.07697 0
M  V30 4968 H 473.893 0.266401 0.691456 0
M  V30 4969 H 476.54 1.29373 1.41191 0
M  V30 4970 H 474.845 0.479722 3.88852 0
M  V30 4971 H 476.542 0.870203 3.91444 0
M  V30 4972 H 473.132 2.27575 3.63191 0
M  V30 4973 H 477.316 3.24914 3.7516 0
M  V30 4974 H 472.572 4.6444 3.97625 0
M  V30 4975 H 476.746 5.6228 4.1087 0
M  V30 4976 H 474.373 6.32506 4.21712 0
M  V30 4977 N 475.948 -1.35272 0.808662 0
M  V30 4978 C 477.194 -1.99003 0.390581 0
M  V30 4979 C 477.527 -1.63999 -1.0401 0
M  V30 4980 O 476.802 -0.904368 -1.72196 0
M  V30 4981 C 477.085 -3.55454 0.576566 0
M  V30 4982 C 476.938 -4.00249 2.05233 0
M  V30 4983 C 478.257 -4.401 0.00354277 0
M  V30 4984 H 475.376 -0.722917 0.143388 0
M  V30 4985 H 478.018 -1.6039 1.01858 0
M  V30 4986 H 476.168 -3.88477 0.0419766 0
M  V30 4987 H 477.84 -3.77626 2.64946 0
M  V30 4988 H 476.083 -3.51082 2.54801 0
M  V30 4989 H 476.754 -5.0911 2.13333 0
M  V30 4990 H 479.23 -4.13548 0.460117 0
M  V30 4991 H 478.106 -5.48656 0.163575 0
M  V30 4992 H 478.367 -4.28444 -1.09032 0
M  V30 4993 N 477.426 -0.562348 -1.47226 0
M  V30 4994 C 478.376 0.202967 -2.27095 0
M  V30 4995 C 479.36 0.880611 -1.34663 0
M  V30 4996 O 480.552 0.778069 -1.58981 0
M  V30 4997 C 477.681 1.22906 -3.20545 0
M  V30 4998 C 476.767 0.554566 -4.20459 0
M  V30 4999 N 477.158 -0.378295 -5.04383 0
M  V30 5000 C 475.456 0.807854 -4.38623 0
M  V30 5001 C 476.157 -0.770583 -5.76573 0
M  V30 5002 N 475.133 -0.124263 -5.43458 0
M  V30 5003 H 478.935 -0.514196 -2.89367 0
M  V30 5004 H 476.449 -0.382655 -1.57827 0
M  V30 5005 H 478.446 1.79134 -3.76453 0
M  V30 5006 H 477.106 1.94726 -2.59831 0
M  V30 5007 H 478.117 -0.75274 -5.124 0
M  V30 5008 H 474.794 1.51418 -3.89075 0
M  V30 5009 H 476.184 -1.53742 -6.54074 0
M  V30 5010 N 478.904 1.54736 -0.299062 0
M  V30 5011 C 480.32 1.59507 0.0543849 0
M  V30 5012 C 480.52 1.31606 1.52585 0
M  V30 5013 O 479.576 1.08853 2.27832 0
M  V30 5014 C 480.889 2.98751 -0.34181 0
M  V30 5015 C 482.437 3.1165 -0.290414 0
M  V30 5016 C 482.912 4.53199 -0.661402 0
M  V30 5017 N 484.403 4.59114 -0.613863 0
M  V30 5018 C 485.138 5.66709 -0.873417 0
M  V30 5019 N 484.634 6.82349 -1.19884 0
M  V30 5020 N 486.427 5.56369 -0.800608 0
M  V30 5021 H 478.578 1.71133 -1.25806 0
M  V30 5022 H 480.841 0.799186 -0.509908 0
M  V30 5023 H 480.547 3.24085 -1.36608 0
M  V30 5024 H 480.421 3.75961 0.305508 0
M  V30 5025 H 482.808 2.86066 0.724605 0
M  V30 5026 H 482.889 2.366 -0.972327 0
M  V30 5027 H 482.533 4.79513 -1.67422 0
M  V30 5028 H 482.463 5.26583 0.0425612 0
M  V30 5029 H 484.954 3.76053 -0.3732 0
M  V30 5030 H 485.267 7.60326 -1.38291 0
M  V30 5031 H 483.612 6.83906 -1.23685 0
M  V30 5032 H 486.803 4.64904 -0.546045 0
M  V30 5033 H 486.976 6.40139 -1.00626 0
M  V30 5034 N 480.382 0.0267497 1.57577 0
M  V30 5035 C 481.607 -0.666227 1.96408 0
M  V30 5036 C 482.032 -1.65004 0.903071 0
M  V30 5037 O 481.39 -1.80787 -0.136263 0
M  V30 5038 C 481.438 -1.35101 3.34335 0
M  V30 5039 O 480.542 -2.46623 3.30531 0
M  V30 5040 H 479.883 -0.175206 0.640468 0
M  V30 5041 H 482.413 0.0878977 2.04411 0
M  V30 5042 H 482.423 -1.70834 3.70513 0
M  V30 5043 H 481.098 -0.629844 4.11103 0
M  V30 5044 H 479.675 -2.13019 3.06068 0
M  V30 5045 N 481.861 -1.55662 -0.24637 0
M  V30 5046 C 482.824 -1.89558 -1.28842 0
M  V30 5047 C 483.824 -0.772082 -1.41052 0
M  V30 5048 O 485.014 -1.04007 -1.39743 0
M  V30 5049 C 482.146 -2.12449 -2.66605 0
M  V30 5050 H 483.339 -2.82735 -1.00004 0
M  V30 5051 H 480.892 -1.48562 -0.485684 0
M  V30 5052 H 481.627 -1.21742 -3.00582 0
M  V30 5053 H 481.412 -2.94273 -2.59125 0
M  V30 5054 H 482.902 -2.39854 -3.41847 0
M  V30 5055 N 483.339 0.512053 -1.4905 0
M  V30 5056 C 484.616 1.27337 -1.48474 0
M  V30 5057 C 484.996 2.1009 -0.206301 0
M  V30 5058 O 484.344 2.136 0.811609 0
M  V30 5059 C 484.554 2.13954 -2.75726 0
M  V30 5060 C 485.902 2.73507 -3.24776 0
M  V30 5061 O 486.926 2.24229 -2.76767 0
M  V30 5062 O 485.785 3.63186 -4.08361 0
M  V30 5063 H 482.879 0.575652 -0.593762 0
M  V30 5064 H 485.425 0.527232 -1.61302 0
M  V30 5065 H 484.197 1.52709 -3.60272 0
M  V30 5066 H 483.82 2.95782 -2.65705 0
M  V30 5067 N 484.817 1.37938 0.762283 0
M  V30 5068 C 486.063 1.33866 1.52341 0
M  V30 5069 C 486.396 -0.0738961 1.94059 0
M  V30 5070 O 485.671 -1.03326 1.64785 0
M  V30 5071 C 485.954 2.28644 2.78197 0
M  V30 5072 C 485.807 3.78722 2.42672 0
M  V30 5073 C 487.126 2.21702 3.80179 0
M  V30 5074 H 484.245 0.487593 0.55265 0
M  V30 5075 H 486.887 1.68717 0.873767 0
M  V30 5076 H 485.037 1.99055 3.33631 0
M  V30 5077 H 486.709 4.18948 1.93081 0
M  V30 5078 H 484.952 3.96827 1.75244 0
M  V30 5079 H 485.623 4.40486 3.3268 0
M  V30 5080 H 488.099 2.47805 3.34263 0
M  V30 5081 H 486.975 2.90143 4.65949 0
M  V30 5082 H 487.236 1.21301 4.25133 0
M  V30 5083 N 486.295 -0.989507 1.22664 0
M  V30 5084 C 487.205 -2.11449 1.01619 0
M  V30 5085 C 488.221 -1.73962 -0.036545 0
M  V30 5086 O 489.397 -2.00788 0.156924 0
M  V30 5087 C 486.462 -3.41465 0.600204 0
M  V30 5088 C 485.523 -3.93033 1.72695 0
M  V30 5089 C 484.756 -5.16844 1.33071 0
M  V30 5090 O 484.979 -5.7001 0.210975 0
M  V30 5091 O 483.913 -5.6225 2.14845 0
M  V30 5092 H 487.739 -2.32088 1.9588 0
M  V30 5093 H 485.324 -1.09823 1.01289 0
M  V30 5094 H 487.206 -4.19695 0.37873 0
M  V30 5095 H 485.881 -3.22178 -0.313511 0
M  V30 5096 H 484.788 -3.15961 2.00298 0
M  V30 5097 H 486.121 -4.16758 2.61865 0
M  V30 5098 N 487.773 -1.03688 -1.18687 0
M  V30 5099 C 488.998 -0.757819 -1.93059 0
M  V30 5100 C 489.423 0.678353 -1.75442 0
M  V30 5101 O 488.781 1.46938 -1.06203 0
M  V30 5102 C 488.829 -1.12423 -3.42627 0
M  V30 5103 O 487.933 -0.247505 -4.11657 0
M  V30 5104 H 487.274 -0.279245 -0.602427 0
M  V30 5105 H 489.804 -1.3857 -1.5053 0
M  V30 5106 H 489.814 -1.08454 -3.93322 0
M  V30 5107 H 488.489 -2.17049 -3.54771 0
M  V30 5108 H 487.066 -0.34649 -3.71287 0
M  V30 5109 N 489.251 1.34841 -0.815825 0
M  V30 5110 C 490.497 1.98793 -0.401129 0
M  V30 5111 C 490.83 1.64548 1.03139 0
M  V30 5112 O 490.105 0.913487 1.71714 0
M  V30 5113 C 490.388 3.55143 -0.595409 0
M  V30 5114 C 490.241 3.99155 -2.07352 0
M  V30 5115 C 491.56 4.40092 -0.0268823 0
M  V30 5116 H 488.679 0.722146 -0.14722 0
M  V30 5117 H 491.321 1.59847 -1.02707 0
M  V30 5118 H 489.471 3.8845 -0.0625779 0
M  V30 5119 H 491.143 3.76216 -2.66945 0
M  V30 5120 H 489.386 3.49726 -2.56659 0
M  V30 5121 H 490.057 5.07971 -2.1603 0
M  V30 5122 H 492.533 4.13298 -0.482042 0
M  V30 5123 H 491.409 5.48562 -0.19267 0
M  V30 5124 H 491.67 4.29016 1.06759 0
M  V30 5125 N 490.729 0.570148 1.46925 0
M  V30 5126 C 491.975 0.0510284 2.02736 0
M  V30 5127 C 492.308 -1.3006 1.44215 0
M  V30 5128 O 491.583 -1.84932 0.602521 0
M  V30 5129 C 491.866 -0.028215 3.60089 0
M  V30 5130 C 491.719 1.35142 4.29018 0
M  V30 5131 C 493.038 -0.735181 4.33916 0
M  V30 5132 H 490.157 0.0200178 0.736728 0
M  V30 5133 H 492.799 0.73493 1.75211 0
M  V30 5134 H 490.949 -0.610648 3.83671 0
M  V30 5135 H 492.621 1.97806 4.16738 0
M  V30 5136 H 490.864 1.9226 3.88868 0
M  V30 5137 H 491.535 1.24857 5.37694 0
M  V30 5138 H 494.011 -0.240519 4.15404 0
M  V30 5139 H 492.887 -0.759622 5.43618 0
M  V30 5140 H 493.148 -1.79397 4.04066 0
M  V30 5141 N 492.207 -1.54576 0.307264 0
M  V30 5142 C 493.432 -2.05139 -0.305379 0
M  V30 5143 C 493.857 -1.18278 -1.46259 0
M  V30 5144 O 493.215 -0.188243 -1.8032 0
M  V30 5145 C 493.263 -3.53066 -0.733283 0
M  V30 5146 O 492.367 -3.69206 -1.83741 0
M  V30 5147 H 491.708 -0.661444 -0.0582105 0
M  V30 5148 H 494.238 -1.99569 0.450931 0
M  V30 5149 H 494.248 -3.95034 -1.02039 0
M  V30 5150 H 492.923 -4.15746 0.113198 0
M  V30 5151 H 491.5 -3.39143 -1.55037 0
M  V30 5152 N 493.685 -0.035106 -1.57561 0
M  V30 5153 C 494.933 0.64096 -1.91667 0
M  V30 5154 C 495.254 1.72323 -0.912681 0
M  V30 5155 O 494.524 1.95849 0.0449089 0
M  V30 5156 H 493.104 0.239743 -0.707483 0
M  V30 5157 H 495.766 -0.084321 -1.94718 0
M  V30 5158 H 494.862 1.08987 -2.92452 0
M  V30 5159 N 495.163 1.55791 0.238111 0
M  V30 5160 C 496.391 1.82098 0.982233 0
M  V30 5161 C 496.806 0.612025 1.78605 0
M  V30 5162 O 496.163 -0.419381 1.77616 0
M  V30 5163 C 496.214 3.0673 1.91309 0
M  V30 5164 O 495.935 4.2296 1.14179 0
M  V30 5165 C 497.436 3.45903 2.77248 0
M  V30 5166 H 494.656 0.605748 0.288635 0
M  V30 5167 H 497.2 2.02862 0.258341 0
M  V30 5168 H 495.355 2.87991 2.59114 0
M  V30 5169 H 495.769 4.93653 1.7722 0
M  V30 5170 H 497.243 4.36189 3.38295 0
M  V30 5171 H 497.72 2.66891 3.48806 0
M  V30 5172 H 498.326 3.67024 2.14881 0
M  V30 5173 N 496.642 -0.504142 1.49319 0
M  V30 5174 C 497.572 -1.61473 1.68667 0
M  V30 5175 C 498.553 -1.61455 0.535378 0
M  V30 5176 O 499.738 -1.78245 0.770868 0
M  V30 5177 C 496.868 -2.99971 1.75028 0
M  V30 5178 C 495.822 -3.14854 2.89916 0
M  V30 5179 C 495.148 -4.54671 2.81387 0
M  V30 5180 C 496.448 -2.95176 4.30893 0
M  V30 5181 H 498.142 -1.45535 2.61648 0
M  V30 5182 H 495.688 -0.698711 1.25913 0
M  V30 5183 H 497.641 -3.77562 1.8715 0
M  V30 5184 H 496.365 -3.1699 0.786441 0
M  V30 5185 H 495.024 -2.39687 2.77391 0
M  V30 5186 H 494.672 -4.68562 1.82917 0
M  V30 5187 H 494.372 -4.6557 3.58494 0
M  V30 5188 H 495.896 -5.34327 2.95512 0
M  V30 5189 H 497.31 -3.62538 4.44116 0
M  V30 5190 H 495.707 -3.17549 5.09198 0
M  V30 5191 H 496.777 -1.91332 4.45556 0
M  V30 5192 N 498.12 -1.38341 -0.754957 0
M  V30 5193 C 499.536 -1.19508 -1.05783 0
M  V30 5194 C 499.736 -0.0428005 -2.01455 0
M  V30 5195 O 498.792 0.611861 -2.44975 0
M  V30 5196 C 500.105 -2.52091 -1.63923 0
M  V30 5197 C 501.653 -2.58762 -1.76101 0
M  V30 5198 C 502.128 -3.91517 -2.37652 0
M  V30 5199 N 503.619 -3.93049 -2.45085 0
M  V30 5200 C 504.354 -4.9253 -2.93602 0
M  V30 5201 N 503.85 -6.02408 -3.42165 0
M  V30 5202 N 505.643 -4.79921 -2.92629 0
M  V30 5203 H 497.794 -2.1206 -0.120056 0
M  V30 5204 H 500.057 -0.94089 -0.11589 0
M  V30 5205 H 499.763 -3.36858 -1.01093 0
M  V30 5206 H 499.637 -2.70388 -2.63003 0
M  V30 5207 H 502.024 -1.74391 -2.38058 0
M  V30 5208 H 502.105 -2.44333 -0.757294 0
M  V30 5209 H 501.749 -4.76309 -1.76329 0
M  V30 5210 H 501.679 -4.03256 -3.38662 0
M  V30 5211 H 504.17 -3.13685 -2.10736 0
M  V30 5212 H 504.483 -6.74248 -3.77637 0
M  V30 5213 H 502.828 -6.0603 -3.40225 0
M  V30 5214 H 506.019 -3.93194 -2.54001 0
M  V30 5215 H 506.192 -5.57601 -3.30128 0
M  V30 5216 N 499.598 0.982988 -1.23187 0
M  V30 5217 C 500.823 1.76455 -1.08988 0
M  V30 5218 C 501.248 1.84726 0.354691 0
M  V30 5219 O 500.606 1.30699 1.25649 0
M  V30 5220 C 500.654 3.17094 -1.71708 0
M  V30 5221 O 499.758 4.00648 -0.977477 0
M  V30 5222 H 499.099 0.542988 -0.382177 0
M  V30 5223 H 501.629 1.23413 -1.63188 0
M  V30 5224 H 501.639 3.67684 -1.76841 0
M  V30 5225 H 500.314 3.10389 -2.76823 0
M  V30 5226 H 498.891 3.59161 -1.0029 0
M  V30 5227 N 501.076 1.04316 1.18135 0
M  V30 5228 C 502.039 0.640794 2.2006 0
M  V30 5229 C 503.039 -0.303124 1.57917 0
M  V30 5230 O 504.229 -0.0881855 1.73977 0
M  V30 5231 C 501.361 -0.060148 3.40847 0
M  V30 5232 H 502.554 1.54281 2.57172 0
M  V30 5233 H 500.107 0.836004 1.32063 0
M  V30 5234 H 500.842 -0.975845 3.0927 0
M  V30 5235 H 500.627 0.618319 3.87194 0
M  V30 5236 H 502.117 -0.328082 4.16309 0
M  V30 5237 N 502.554 -1.34406 0.822964 0
M  V30 5238 C 503.801 -1.98284 0.411057 0
M  V30 5239 C 504.129 -1.65245 -1.02588 0
M  V30 5240 O 503.384 -0.91619 -1.72929 0
M  V30 5241 C 503.683 -3.52981 0.560268 0
M  V30 5242 C 503.349 -4.05931 1.96293 0
M  V30 5243 C 502.011 -4.20103 2.34664 0
M  V30 5244 C 504.363 -4.34412 2.87985 0
M  V30 5245 C 501.691 -4.60082 3.64062 0
M  V30 5246 C 504.043 -4.75838 4.16847 0
M  V30 5247 C 502.707 -4.88215 4.55195 0
M  V30 5248 H 501.977 -0.725573 0.150416 0
M  V30 5249 H 504.624 -1.60349 1.04692 0
M  V30 5250 H 502.929 -3.91477 -0.158982 0
M  V30 5251 H 504.626 -4.00385 0.222087 0
M  V30 5252 H 501.216 -3.95363 1.65487 0
M  V30 5253 H 505.4 -4.23001 2.59584 0
M  V30 5254 H 500.656 -4.67856 3.93599 0
M  V30 5255 H 504.83 -4.96834 4.87984 0
M  V30 5256 H 502.457 -5.18952 5.55512 0
M  V30 5257 N 504.032 -0.577932 -1.46621 0
M  V30 5258 C 504.942 0.160651 -2.34049 0
M  V30 5259 C 505.958 0.890911 -1.49462 0
M  V30 5260 O 507.134 0.855166 -1.82343 0
M  V30 5261 C 504.199 1.16447 -3.26559 0
M  V30 5262 C 503.26 0.4394 -4.27045 0
M  V30 5263 C 502.493 1.3954 -5.15135 0
M  V30 5264 O 502.716 2.63162 -5.06065 0
M  V30 5265 O 501.65 0.908585 -5.95003 0
M  V30 5266 H 505.476 -0.557057 -2.98547 0
M  V30 5267 H 503.061 -0.338369 -1.45518 0
M  V30 5268 H 504.943 1.7434 -3.83645 0
M  V30 5269 H 503.618 1.86373 -2.64663 0
M  V30 5270 H 502.525 -0.181247 -3.73661 0
M  V30 5271 H 503.858 -0.218799 -4.91713 0
M  V30 5272 N 505.51 1.54411 -0.315457 0
M  V30 5273 C 506.74 2.04536 0.291315 0
M  V30 5274 C 507.148 1.19162 1.4696 0
M  V30 5275 O 506.491 0.213199 1.82459 0
M  V30 5276 C 506.553 3.5056 0.796725 0
M  V30 5277 C 506.217 4.5627 -0.258178 0
M  V30 5278 C 507.214 5.08312 -1.09153 0
M  V30 5279 C 504.899 5.00672 -0.404036 0
M  V30 5280 C 506.893 6.03312 -2.05655 0
M  V30 5281 C 504.58 5.95488 -1.37248 0
M  V30 5282 C 505.578 6.46693 -2.19721 0
M  V30 5283 O 505.266 7.39648 -3.14921 0
M  V30 5284 H 504.998 0.672856 0.0651165 0
M  V30 5285 H 507.552 2.00244 -0.457308 0
M  V30 5286 H 505.782 3.52223 1.59612 0
M  V30 5287 H 507.471 3.83804 1.32096 0
M  V30 5288 H 508.237 4.74793 -0.98979 0
M  V30 5289 H 504.116 4.60436 0.22799 0
M  V30 5290 H 507.66 6.43203 -2.70067 0
M  V30 5291 H 503.557 6.28424 -1.47489 0
M  V30 5292 H 504.325 7.57496 -3.10067 0
M  V30 5293 N 506.988 0.0434614 1.5754 0
M  V30 5294 C 508.236 -0.630786 1.92004 0
M  V30 5295 C 508.557 -1.71836 0.921807 0
M  V30 5296 O 507.827 -1.9587 -0.034522 0
M  V30 5297 H 506.407 -0.235988 0.708745 0
M  V30 5298 H 509.069 0.0946462 1.9467 0
M  V30 5299 H 508.165 -1.07434 2.93026 0
M  V30 5300 N 508.466 -1.55915 -0.229846 0
M  V30 5301 C 509.714 -1.7819 -0.953565 0
M  V30 5302 C 510.035 -0.610504 -1.85197 0
M  V30 5303 O 509.305 0.372988 -1.92316 0
M  V30 5304 H 507.885 -0.657208 -0.355087 0
M  V30 5305 H 510.547 -1.9337 -0.243693 0
M  V30 5306 H 509.643 -2.70011 -1.56527 0
M  V30 5307 N 509.944 0.496216 -1.49584 0
M  V30 5308 C 510.876 1.61404 -1.62731 0
M  V30 5309 C 511.889 1.54613 -0.50978 0
M  V30 5310 O 513.078 1.60458 -0.782017 0
M  V30 5311 C 510.178 3.00212 -1.57245 0
M  V30 5312 C 509.351 3.32138 -2.84611 0
M  V30 5313 C 508.41 4.5038 -2.72112 0
M  V30 5314 O 507.436 4.51926 -3.46051 0
M  V30 5315 N 508.638 5.50575 -1.83977 0
M  V30 5316 H 511.403 1.50552 -2.59141 0
M  V30 5317 H 508.964 0.684182 -1.46733 0
M  V30 5318 H 510.956 3.77241 -1.4653 0
M  V30 5319 H 509.526 3.04964 -0.686729 0
M  V30 5320 H 508.746 2.4396 -3.09641 0
M  V30 5321 H 510.034 3.50268 -3.69039 0
M  V30 5322 H 509.432 5.52128 -1.23171 0
M  V30 5323 H 507.989 6.26687 -1.79182 0
M  V30 5324 N 511.423 1.38739 0.74761 0
M  V30 5325 C 512.37 1.36449 1.86146 0
M  V30 5326 C 513.34 0.226098 1.64554 0
M  V30 5327 O 514.525 0.41926 1.86137 0
M  V30 5328 C 511.665 1.2013 3.23516 0
M  V30 5329 C 510.778 2.43407 3.56899 0
M  V30 5330 C 509.913 2.19773 4.83605 0
M  V30 5331 C 508.952 3.3879 5.09792 0
M  V30 5332 N 508.089 3.14553 6.27695 0
M  V30 5333 H 512.929 2.3167 1.87438 0
M  V30 5334 H 510.466 1.15094 0.916063 0
M  V30 5335 H 512.424 1.08683 4.02795 0
M  V30 5336 H 511.054 0.285453 3.21535 0
M  V30 5337 H 510.106 2.65504 2.72418 0
M  V30 5338 H 511.418 3.32094 3.72176 0
M  V30 5339 H 510.572 2.05496 5.70838 0
M  V30 5340 H 509.311 1.28461 4.70478 0
M  V30 5341 H 508.316 3.53579 4.21025 0
M  V30 5342 H 509.541 4.30986 5.24812 0
M  V30 5343 H 507.487 2.25893 6.1588 0
M  V30 5344 H 507.404 3.96791 6.435 0
M  V30 5345 H 508.672 3.03943 7.17801 0
M  V30 5346 N 512.901 -0.976442 1.23707 0
M  V30 5347 C 514.141 -1.73331 1.08332 0
M  V30 5348 C 514.505 -1.88346 -0.372781 0
M  V30 5349 O 515.706 -2.60877 -0.647813 0
M  V30 5350 C 513.977 -3.09159 1.7932 0
M  V30 5351 S 515.536 -4.00376 1.79567 0
M  V30 5352 H 512.354 -0.596045 0.387622 0
M  V30 5353 H 514.956 -1.16625 1.56904 0
M  V30 5354 H 513.66 -2.95884 2.84395 0
M  V30 5355 H 513.191 -3.70932 1.31046 0
M  V30 5356 H 515.206 -4.88742 0.857094 0
M  V30 5357 N 514.379 -1.04941 -1.1758 0
M  V30 5358 C 515.604 -0.778253 -1.92245 0
M  V30 5359 C 516.029 0.659707 -1.76152 0
M  V30 5360 O 515.387 1.45803 -1.07755 0
M  V30 5361 C 515.435 -1.16051 -3.41416 0
M  V30 5362 O 514.539 -0.291153 -4.11371 0
M  V30 5363 H 513.88 -0.285619 -0.599431 0
M  V30 5364 H 516.41 -1.40159 -1.49052 0
M  V30 5365 H 516.42 -1.12619 -3.92149 0
M  V30 5366 H 515.095 -2.208 -3.52449 0
M  V30 5367 H 513.672 -0.385851 -3.70898 0
M  V30 5368 N 515.857 1.33968 -0.830081 0
M  V30 5369 C 516.82 2.27694 -0.26235 0
M  V30 5370 C 517.82 1.50589 0.563876 0
M  V30 5371 O 519.01 1.70028 0.378941 0
M  V30 5372 C 516.142 3.35002 0.63138 0
M  V30 5373 H 517.335 2.79419 -1.08928 0
M  V30 5374 H 514.888 1.44221 -0.602486 0
M  V30 5375 H 515.623 2.88504 1.48109 0
M  V30 5376 H 515.408 3.92079 0.0403276 0
M  V30 5377 H 516.898 4.04897 1.02217 0
M  V30 5378 N 517.335 0.585699 1.46312 0
M  V30 5379 C 518.575 0.0751432 2.04262 0
M  V30 5380 C 518.939 -1.26201 1.44697 0
M  V30 5381 O 520.14 -1.86198 1.93865 0
M  V30 5382 C 518.411 0.013478 3.57397 0
M  V30 5383 S 519.97 -0.439068 4.36598 0
M  V30 5384 H 516.788 0.0389228 0.709934 0
M  V30 5385 H 519.39 0.778871 1.79315 0
M  V30 5386 H 518.094 0.990558 3.98266 0
M  V30 5387 H 517.625 -0.712927 3.86886 0
M  V30 5388 H 519.64 -1.6932 4.66417 0
M  V30 5389 N 518.813 -1.54241 0.323641 0
M  V30 5390 C 520.038 -2.05452 -0.283605 0
M  V30 5391 C 520.463 -1.19823 -1.44997 0
M  V30 5392 O 519.821 -0.207358 -1.8011 0
M  V30 5393 C 519.869 -3.53823 -0.695795 0
M  V30 5394 O 518.973 -3.71134 -1.79815 0
M  V30 5395 H 518.314 -0.662024 -0.0511917 0
M  V30 5396 H 520.844 -1.99079 0.472073 0
M  V30 5397 H 520.854 -3.96094 -0.978434 0
M  V30 5398 H 519.529 -4.15602 0.157287 0
M  V30 5399 H 518.106 -3.40768 -1.51431 0
M  V30 5400 N 520.291 -0.0518155 -1.57515 0
M  V30 5401 C 521.707 0.304735 -1.56664 0
M  V30 5402 C 521.907 1.71395 -1.05953 0
M  V30 5403 O 520.963 2.42123 -0.716414 0
M  V30 5404 C 522.276 0.132614 -3.00407 0
M  V30 5405 C 523.824 0.20367 -3.12337 0
M  V30 5406 C 524.299 0.0600706 -4.57961 0
M  V30 5407 N 525.79 0.116326 -4.63054 0
M  V30 5408 C 526.525 0.0293363 -5.73392 0
M  V30 5409 N 526.021 -0.110038 -6.92713 0
M  V30 5410 N 527.814 0.0849651 -5.62036 0
M  V30 5411 H 519.965 -0.973056 -1.888 0
M  V30 5412 H 522.228 -0.377781 -0.869474 0
M  V30 5413 H 521.934 -0.839019 -3.41546 0
M  V30 5414 H 521.808 0.893376 -3.66468 0
M  V30 5415 H 524.195 1.16578 -2.71097 0
M  V30 5416 H 524.276 -0.587857 -2.48954 0
M  V30 5417 H 523.92 -0.898715 -4.99886 0
M  V30 5418 H 523.85 0.87075 -5.19351 0
M  V30 5419 H 526.341 0.22327 -3.7724 0
M  V30 5420 H 526.654 -0.169104 -7.72615 0
M  V30 5421 H 524.999 -0.145132 -6.94848 0
M  V30 5422 H 528.19 0.192411 -4.67704 0
M  V30 5423 H 528.363 0.0137131 -6.47999 0
M  V30 5424 N 521.769 1.56035 0.221574 0
M  V30 5425 C 522.699 1.95434 1.2778 0
M  V30 5426 C 523.68 0.822564 1.48889 0
M  V30 5427 O 524.865 1.08486 1.61072 0
M  V30 5428 C 521.995 2.27102 2.62759 0
M  V30 5429 C 520.949 3.4277 2.56306 0
M  V30 5430 C 520.275 3.60043 3.95314 0
M  V30 5431 C 521.575 4.77742 2.11093 0
M  V30 5432 H 523.269 2.83912 0.950504 0
M  V30 5433 H 520.815 1.36596 0.455791 0
M  V30 5434 H 522.768 2.53256 3.36807 0
M  V30 5435 H 521.492 1.35478 2.97176 0
M  V30 5436 H 520.151 3.16664 1.84715 0
M  V30 5437 H 519.799 2.65794 4.27039 0
M  V30 5438 H 519.499 4.37841 3.91879 0
M  V30 5439 H 521.023 3.88545 4.71025 0
M  V30 5440 H 522.437 5.03102 2.74885 0
M  V30 5441 H 520.834 5.58823 2.18716 0
M  V30 5442 H 521.904 4.731 1.06321 0
M  V30 5443 N 523.247 -0.488276 1.49845 0
M  V30 5444 C 524.477 -1.26344 1.63465 0
M  V30 5445 C 524.885 -1.86637 0.310379 0
M  V30 5446 O 524.228 -1.69184 -0.715712 0
M  V30 5447 C 524.29 -2.42407 2.65479 0
M  V30 5448 C 523.954 -2.02886 4.09495 0
M  V30 5449 C 524.951 -1.56124 4.95904 0
M  V30 5450 C 522.636 -2.12131 4.55308 0
M  V30 5451 C 524.63 -1.19129 6.26169 0
M  V30 5452 C 522.317 -1.74747 5.85582 0
M  V30 5453 C 523.315 -1.28322 6.70837 0
M  V30 5454 O 523.003 -0.914491 7.98682 0
M  V30 5455 H 522.735 -0.388921 0.552916 0
M  V30 5456 H 525.289 -0.591288 1.96705 0
M  V30 5457 H 523.519 -3.12739 2.27445 0
M  V30 5458 H 525.208 -3.04409 2.68495 0
M  V30 5459 H 525.974 -1.48417 4.61733 0
M  V30 5460 H 521.853 -2.47217 3.89107 0
M  V30 5461 H 525.397 -0.828211 6.92666 0
M  V30 5462 H 521.294 -1.82109 6.19279 0
M  V30 5463 H 522.062 -1.04485 8.11804 0
M  V30 5464 N 524.725 -1.39134 -0.740242 0
M  V30 5465 C 525.971 -1.36273 -1.50192 0
M  V30 5466 C 526.304 0.0430136 -1.94152 0
M  V30 5467 O 525.579 1.00691 -1.66408 0
M  V30 5468 C 525.862 -2.33041 -2.74525 0
M  V30 5469 C 525.715 -3.82535 -2.36617 0
M  V30 5470 C 527.034 -2.27723 -3.76604 0
M  V30 5471 H 524.153 -0.496323 -0.544823 0
M  V30 5472 H 526.795 -1.70085 -0.846815 0
M  V30 5473 H 524.945 -2.04337 -3.30422 0
M  V30 5474 H 526.617 -4.21967 -1.86391 0
M  V30 5475 H 524.86 -3.99565 -1.68909 0
M  V30 5476 H 525.531 -4.45723 -3.2563 0
M  V30 5477 H 528.007 -2.53091 -3.30279 0
M  V30 5478 H 526.883 -2.97519 -4.61274 0
M  V30 5479 H 527.144 -1.28049 -4.2315 0
M  V30 5480 N 526.204 0.969867 -1.24223 0
M  V30 5481 C 527.615 1.52717 -1.07399 0
M  V30 5482 C 527.966 1.92956 0.355298 0
M  V30 5483 O 527.091 1.77112 1.2434 0
M  V30 5484 C 527.686 2.77521 -1.94339 0
M  V30 5485 C 526.245 3.29615 -1.81744 0
M  V30 5486 C 525.392 2.02537 -1.89405 0
M  V30 5487 H 528.343 0.788399 -1.37732 0
M  V30 5488 H 528.364 3.50773 -1.47439 0
M  V30 5489 H 527.876 2.48203 -2.98357 0
M  V30 5490 H 525.977 3.63789 -0.805505 0
M  V30 5491 H 526.09 3.98661 -2.65718 0
M  V30 5492 H 524.454 2.17151 -1.33108 0
M  V30 5493 H 525.237 1.75587 -2.94999 0
M  V30 5494 N 527.682 1.05563 1.17022 0
M  V30 5495 C 528.632 0.630007 2.19123 0
M  V30 5496 C 529.616 -0.335472 1.57364 0
M  V30 5497 O 530.808 -0.1521 1.76345 0
M  V30 5498 C 527.937 0.0101676 3.43298 0
M  V30 5499 C 527.023 0.999698 4.12149 0
M  V30 5500 N 527.414 2.17251 4.56766 0
M  V30 5501 C 525.712 0.829 4.38228 0
M  V30 5502 C 526.413 2.79883 5.09942 0
M  V30 5503 N 525.389 2.07656 5.02374 0
M  V30 5504 H 529.191 1.52353 2.51328 0
M  V30 5505 H 526.705 0.926288 1.33393 0
M  V30 5506 H 528.702 -0.312541 4.15727 0
M  V30 5507 H 527.362 -0.878707 3.12584 0
M  V30 5508 H 528.373 2.55067 4.50734 0
M  V30 5509 H 525.05 -0.00850974 4.17499 0
M  V30 5510 H 526.44 3.79362 5.54558 0
M  V30 5511 N 529.16 -1.33526 0.837174 0
M  V30 5512 C 530.385 -2.0258 0.444545 0
M  V30 5513 C 530.81 -1.6258 -0.946006 0
M  V30 5514 O 530.168 -0.817548 -1.6182 0
M  V30 5515 C 530.216 -3.5605 0.571006 0
M  V30 5516 O 529.32 -4.10422 -0.403431 0
M  V30 5517 H 528.661 -0.638866 0.180958 0
M  V30 5518 H 531.191 -1.70462 1.13154 0
M  V30 5519 H 531.201 -4.05488 0.452024 0
M  V30 5520 H 529.876 -3.84509 1.58512 0
M  V30 5521 H 528.453 -3.72113 -0.242147 0
M  V30 5522 N 530.638 -0.59345 -1.46 0
M  V30 5523 C 531.568 0.121192 -2.33185 0
M  V30 5524 C 532.549 0.872977 -1.4599 0
M  V30 5525 O 533.734 0.846321 -1.74789 0
M  V30 5526 C 530.864 1.12844 -3.28456 0
M  V30 5527 C 529.818 0.4908 -4.25177 0
M  V30 5528 C 529.144 1.60529 -5.10034 0
M  V30 5529 C 530.444 -0.578949 -5.19081 0
M  V30 5530 H 532.138 -0.606767 -2.93187 0
M  V30 5531 H 529.684 -0.293242 -1.40983 0
M  V30 5532 H 531.637 1.63684 -3.88311 0
M  V30 5533 H 530.361 1.88681 -2.66584 0
M  V30 5534 H 529.02 0.00339328 -3.666 0
M  V30 5535 H 528.668 2.35359 -4.44539 0
M  V30 5536 H 528.368 1.18422 -5.75543 0
M  V30 5537 H 529.892 2.11623 -5.72755 0
M  V30 5538 H 531.306 -0.155199 -5.7309 0
M  V30 5539 H 529.703 -0.920947 -5.92991 0
M  V30 5540 H 530.773 -1.46109 -4.62364 0
M  V30 5541 N 532.116 1.54067 -0.331816 0
M  V30 5542 C 533.362 2.01713 0.261395 0
M  V30 5543 C 533.717 1.21566 1.49129 0
M  V30 5544 O 533.01 0.291867 1.89364 0
M  V30 5545 C 533.204 3.51634 0.639392 0
M  V30 5546 C 533.033 4.46295 -0.552321 0
M  V30 5547 C 531.803 4.94185 -1.05399 0
M  V30 5548 C 534.001 4.94677 -1.40711 0
M  V30 5549 N 531.983 5.7277 -2.20925 0
M  V30 5550 C 533.354 5.71267 -2.40943 0
M  V30 5551 C 535.409 4.76805 -1.43392 0
M  V30 5552 C 534.112 6.31889 -3.4367 0
M  V30 5553 C 536.138 5.38268 -2.44994 0
M  V30 5554 C 535.5 6.14716 -3.43952 0
M  V30 5555 H 531.599 0.77975 0.0592729 0
M  V30 5556 H 534.183 1.88974 -0.468726 0
M  V30 5557 H 532.354 3.64603 1.33863 0
M  V30 5558 H 534.086 3.86038 1.21478 0
M  V30 5559 H 530.841 4.69472 -0.623952 0
M  V30 5560 H 531.265 6.16737 -2.79222 0
M  V30 5561 H 535.907 4.17255 -0.682489 0
M  V30 5562 H 533.625 6.90554 -4.19715 0
M  V30 5563 H 537.211 5.26352 -2.4788 0
M  V30 5564 H 536.091 6.6143 -4.21283 0
M  V30 5565 N 533.594 0.0601682 1.57485 0
M  V30 5566 C 535.005 -0.474217 1.80577 0
M  V30 5567 C 535.356 -1.70365 0.973147 0
M  V30 5568 O 534.481 -2.15544 0.192306 0
M  V30 5569 C 535.076 -0.867102 3.27516 0
M  V30 5570 C 533.635 -1.34642 3.51495 0
M  V30 5571 C 532.782 -0.32594 2.75378 0
M  V30 5572 H 535.733 0.285973 1.56102 0
M  V30 5573 H 535.754 -1.72938 3.38929 0
M  V30 5574 H 535.266 0.0278927 3.8809 0
M  V30 5575 H 533.367 -2.2603 2.96212 0
M  V30 5576 H 533.48 -1.33237 4.60201 0
M  V30 5577 H 531.844 -0.800749 2.41785 0
M  V30 5578 H 532.627 0.561125 3.38683 0
M  V30 5579 N 535.072 -1.5615 -0.213296 0
M  V30 5580 C 536.004 -1.89586 -1.28802 0
M  V30 5581 C 537.017 -0.784844 -1.42633 0
M  V30 5582 O 538.206 -1.06319 -1.43383 0
M  V30 5583 C 535.306 -2.09665 -2.66259 0
M  V30 5584 C 534.479 -3.40726 -2.7427 0
M  V30 5585 C 533.538 -3.50137 -3.92798 0
M  V30 5586 O 532.564 -4.23105 -3.8075 0
M  V30 5587 N 533.766 -2.81886 -5.07465 0
M  V30 5588 H 536.531 -2.82368 -1.00442 0
M  V30 5589 H 534.092 -1.56796 -0.403302 0
M  V30 5590 H 536.084 -2.13268 -3.43946 0
M  V30 5591 H 534.654 -1.23469 -2.87183 0
M  V30 5592 H 533.874 -3.4915 -1.82997 0
M  V30 5593 H 535.162 -4.27048 -2.76599 0
M  V30 5594 H 534.56 -2.22397 -5.2015 0
M  V30 5595 H 533.117 -2.91139 -5.83165 0
M  V30 5596 N 536.55 0.480323 -1.50102 0
M  V30 5597 C 537.799 1.22979 -1.59872 0
M  V30 5598 C 538.112 1.93282 -0.30022 0
M  V30 5599 O 539.318 2.70086 -0.276709 0
M  V30 5600 C 537.774 2.23408 -2.82164 0
M  V30 5601 C 537.382 1.5895 -4.18854 0
M  V30 5602 C 539.126 2.99055 -3.01275 0
M  V30 5603 C 537.033 2.57611 -5.32344 0
M  V30 5604 H 535.963 0.462707 -0.59533 0
M  V30 5605 H 538.614 0.501291 -1.7652 0
M  V30 5606 H 536.996 2.99511 -2.59055 0
M  V30 5607 H 538.17 0.887 -4.52182 0
M  V30 5608 H 536.485 0.956191 -4.05273 0
M  V30 5609 H 539.082 3.72876 -3.83233 0
M  V30 5610 H 539.425 3.57897 -2.12639 0
M  V30 5611 H 539.958 2.30066 -3.24522 0
M  V30 5612 H 536.697 2.03521 -6.23105 0
M  V30 5613 H 536.217 3.26041 -5.03445 0
M  V30 5614 H 537.896 3.19627 -5.62537 0
M  V30 5615 N 538.028 1.39524 0.732853 0
M  V30 5616 C 538.975 1.38416 1.84688 0
M  V30 5617 C 539.945 0.243539 1.64305 0
M  V30 5618 O 541.13 0.438979 1.85681 0
M  V30 5619 C 538.27 1.23555 3.22224 0
M  V30 5620 C 537.383 2.47179 3.54298 0
M  V30 5621 C 536.518 2.2489 4.81246 0
M  V30 5622 C 535.557 3.44178 5.0617 0
M  V30 5623 N 534.694 3.21192 6.24323 0
M  V30 5624 H 539.534 2.33645 1.84971 0
M  V30 5625 H 537.071 1.16059 0.903804 0
M  V30 5626 H 539.029 1.12949 4.0162 0
M  V30 5627 H 537.659 0.31954 3.21215 0
M  V30 5628 H 536.711 2.68379 2.69587 0
M  V30 5629 H 538.023 3.36022 3.68633 0
M  V30 5630 H 537.177 2.11538 5.68627 0
M  V30 5631 H 535.916 1.33443 4.69089 0
M  V30 5632 H 534.921 3.58025 4.17251 0
M  V30 5633 H 536.146 4.36528 5.20212 0
M  V30 5634 H 534.092 2.32413 6.1345 0
M  V30 5635 H 534.009 4.03594 6.39256 0
M  V30 5636 H 535.277 3.1154 7.14537 0
M  V30 5637 N 539.506 -0.963266 1.24736 0
M  V30 5638 C 540.754 -1.70343 1.08755 0
M  V30 5639 C 541.075 -1.91387 -0.373619 0
M  V30 5640 O 540.345 -1.4948 -1.2662 0
M  V30 5641 H 538.925 -0.631224 0.399456 0
M  V30 5642 H 541.587 -1.15859 1.56725 0
M  V30 5643 H 540.683 -2.68616 1.58909 0
M  V30 5644 N 540.985 -1.06182 -1.16461 0
M  V30 5645 C 542.401 -0.785065 -1.38956 0
M  V30 5646 C 542.601 0.616103 -1.9185 0
M  V30 5647 O 541.657 1.37686 -2.11657 0
M  V30 5648 C 542.97 -1.84902 -2.37132 0
M  V30 5649 C 544.518 -1.8724 -2.50819 0
M  V30 5650 C 544.993 -2.92686 -3.52277 0
M  V30 5651 N 546.484 -2.91712 -3.59803 0
M  V30 5652 C 547.219 -3.69949 -4.38093 0
M  V30 5653 N 546.715 -4.58 -5.19815 0
M  V30 5654 N 548.508 -3.58346 -4.33064 0
M  V30 5655 H 540.659 -1.96569 -0.804634 0
M  V30 5656 H 542.922 -0.851747 -0.416211 0
M  V30 5657 H 542.628 -2.85518 -2.0536 0
M  V30 5658 H 542.502 -1.69908 -3.36766 0
M  V30 5659 H 544.889 -0.872827 -2.81897 0
M  V30 5660 H 544.97 -2.06311 -1.51226 0
M  V30 5661 H 544.614 -3.92835 -3.21937 0
M  V30 5662 H 544.544 -2.70864 -4.51598 0
M  V30 5663 H 547.035 -2.27876 -3.01464 0
M  V30 5664 H 547.348 -5.14357 -5.76764 0
M  V30 5665 H 545.693 -4.62056 -5.19162 0
M  V30 5666 H 548.884 -2.88943 -3.68279 0
M  V30 5667 H 549.057 -4.19563 -4.93833 0
M  V30 5668 N 542.463 1.3308 -0.844243 0
M  V30 5669 C 543.393 2.3161 -0.296493 0
M  V30 5670 C 544.374 1.59215 0.598707 0
M  V30 5671 O 545.559 1.87077 0.521134 0
M  V30 5672 C 542.689 3.43313 0.524762 0
M  V30 5673 C 541.643 4.27115 -0.275106 0
M  V30 5674 C 540.969 5.30483 0.670236 0
M  V30 5675 C 542.269 5.00443 -1.49514 0
M  V30 5676 H 543.963 2.77672 -1.11976 0
M  V30 5677 H 541.509 1.33496 -0.539899 0
M  V30 5678 H 543.462 4.11273 0.918298 0
M  V30 5679 H 542.186 2.95952 1.3813 0
M  V30 5680 H 540.845 3.60787 -0.650267 0
M  V30 5681 H 540.493 4.79379 1.52332 0
M  V30 5682 H 540.193 5.87435 0.139123 0
M  V30 5683 H 541.717 6.01308 1.06117 0
M  V30 5684 H 543.131 5.61141 -1.17447 0
M  V30 5685 H 541.528 5.67071 -1.96343 0
M  V30 5686 H 542.598 4.28906 -2.26202 0
M  V30 5687 N 543.941 0.601185 1.45683 0
M  V30 5688 C 544.871 -0.108824 2.33246 0
M  V30 5689 C 545.852 -0.865223 1.46451 0
M  V30 5690 O 547.037 -0.83704 1.75235 0
M  V30 5691 C 544.167 -1.11101 3.2905 0
M  V30 5692 C 543.121 -0.468244 4.25431 0
M  V30 5693 C 542.447 -1.57822 5.10878 0
M  V30 5694 C 543.747 0.606469 5.18767 0
M  V30 5695 H 545.441 0.622306 2.92861 0
M  V30 5696 H 542.987 0.300714 1.40825 0
M  V30 5697 H 544.94 -1.61622 3.89174 0
M  V30 5698 H 543.664 -1.87265 2.67581 0
M  V30 5699 H 542.323 0.0160484 3.66596 0
M  V30 5700 H 541.971 -2.32998 4.45781 0
M  V30 5701 H 541.671 -1.15369 5.76163 0
M  V30 5702 H 543.195 -2.08583 5.73869 0
M  V30 5703 H 544.609 0.185589 5.73 0
M  V30 5704 H 543.006 0.952381 5.92494 0
M  V30 5705 H 544.076 1.48559 4.61582 0
M  V30 5706 N 545.419 -1.53889 0.339982 0
M  V30 5707 C 546.329 -2.28604 -0.526988 0
M  V30 5708 C 547.345 -1.33578 -1.11503 0
M  V30 5709 O 548.521 -1.66612 -1.13148 0
M  V30 5710 C 545.586 -3.04164 -1.66389 0
M  V30 5711 C 544.647 -4.14809 -1.10599 0
M  V30 5712 C 543.88 -4.86756 -2.18871 0
M  V30 5713 O 544.103 -4.58343 -3.39526 0
M  V30 5714 O 543.037 -5.73289 -1.83366 0
M  V30 5715 H 546.863 -3.03594 0.0802707 0
M  V30 5716 H 544.448 -1.4903 0.105141 0
M  V30 5717 H 546.33 -3.51427 -2.32544 0
M  V30 5718 H 545.005 -2.32035 -2.25703 0
M  V30 5719 H 543.912 -3.71857 -0.409067 0
M  V30 5720 H 545.245 -4.89029 -0.557771 0
M  V30 5721 N 546.897 -0.0685191 -1.57451 0
M  V30 5722 C 547.807 0.914677 -2.16034 0
M  V30 5723 C 548.823 1.32938 -1.12265 0
M  V30 5724 O 549.999 1.40275 -1.44516 0
M  V30 5725 C 547.064 2.16519 -2.70777 0
M  V30 5726 C 546.125 1.80721 -3.89408 0
M  V30 5727 C 545.358 2.9981 -4.41531 0
M  V30 5728 O 545.581 4.13727 -3.92666 0
M  V30 5729 O 544.515 2.79817 -5.32903 0
M  V30 5730 H 548.341 0.446364 -3.00402 0
M  V30 5731 H 545.926 0.154367 -1.486 0
M  V30 5732 H 547.808 2.89856 -3.05878 0
M  V30 5733 H 546.483 2.62454 -1.89471 0
M  V30 5734 H 545.39 1.04646 -3.59166 0
M  V30 5735 H 546.723 1.39571 -4.71997 0
M  V30 5736 N 548.375 1.56261 0.205012 0
M  V30 5737 C 549.325 1.90155 1.25798 0
M  V30 5738 C 550.309 0.766227 1.41484 0
M  V30 5739 O 551.501 1.02893 1.44021 0
M  V30 5740 C 548.63 2.23603 2.60493 0
M  V30 5741 C 547.716 3.43568 2.48639 0
M  V30 5742 N 548.107 4.61747 2.06455 0
M  V30 5743 C 546.405 3.4751 2.79558 0
M  V30 5744 C 547.106 5.43907 2.06253 0
M  V30 5745 N 546.082 4.84051 2.47377 0
M  V30 5746 H 549.884 2.79031 0.922986 0
M  V30 5747 H 547.398 1.57048 0.413501 0
M  V30 5748 H 549.395 2.46067 3.36537 0
M  V30 5749 H 548.055 1.36049 2.94823 0
M  V30 5750 H 549.066 4.86598 1.77321 0
M  V30 5751 H 545.743 2.70345 3.18151 0
M  V30 5752 H 547.133 6.48542 1.75622 0
M  V30 5753 N 549.853 -0.472356 1.50355 0
M  V30 5754 C 551.078 -1.25251 1.65309 0
M  V30 5755 C 551.503 -1.85081 0.335643 0
M  V30 5756 O 550.861 -1.67227 -0.700335 0
M  V30 5757 C 550.909 -2.3379 2.74544 0
M  V30 5758 O 550.013 -3.38401 2.35709 0
M  V30 5759 H 549.354 -0.368539 0.552336 0
M  V30 5760 H 551.884 -0.562271 1.96722 0
M  V30 5761 H 551.894 -2.79121 2.97583 0
M  V30 5762 H 550.569 -1.89614 3.70161 0
M  V30 5763 H 549.146 -2.9879 2.23112 0
M  V30 5764 N 551.331 -1.39911 -0.725443 0
M  V30 5765 C 552.747 -1.21725 -1.03224 0
M  V30 5766 C 552.947 -0.0855224 -2.01318 0
M  V30 5767 O 552.003 0.55976 -2.46217 0
M  V30 5768 C 553.316 -2.55511 -1.58539 0
M  V30 5769 C 554.864 -2.62439 -1.70572 0
M  V30 5770 C 555.339 -3.9647 -2.29294 0
M  V30 5771 N 556.83 -3.98159 -2.36692 0
M  V30 5772 C 557.565 -4.98647 -2.83088 0
M  V30 5773 N 557.061 -6.0953 -3.2931 0
M  V30 5774 N 558.854 -4.8602 -2.82384 0
M  V30 5775 H 551.005 -2.12267 -0.075048 0
M  V30 5776 H 553.268 -0.943136 -0.0959066 0
M  V30 5777 H 552.974 -3.38926 -0.939249 0
M  V30 5778 H 552.848 -2.75905 -2.57208 0
M  V30 5779 H 555.235 -1.79401 -2.34306 0
M  V30 5780 H 555.316 -2.45885 -0.705297 0
M  V30 5781 H 554.96 -4.79942 -1.66186 0
M  V30 5782 H 554.89 -4.10349 -3.30032 0
M  V30 5783 H 557.381 -3.18085 -2.04035 0
M  V30 5784 H 557.694 -6.82106 -3.6325 0
M  V30 5785 H 556.039 -6.1311 -3.27294 0
M  V30 5786 H 559.23 -3.98493 -2.45603 0
M  V30 5787 H 559.403 -5.64478 -3.18226 0
M  V30 5788 N 552.809 0.956637 -1.25245 0
M  V30 5789 C 554.058 1.69537 -1.0927 0
M  V30 5790 C 554.371 1.92136 0.366503 0
M  V30 5791 O 555.577 2.63687 0.64665 0
M  V30 5792 C 554.033 3.05211 -1.9072 0
M  V30 5793 C 553.641 2.90416 -3.41119 0
M  V30 5794 C 555.385 3.82882 -1.83308 0
M  V30 5795 C 553.292 4.21468 -4.14872 0
M  V30 5796 H 552.222 0.635804 -0.405302 0
M  V30 5797 H 554.873 1.06513 -1.49423 0
M  V30 5798 H 553.255 3.69128 -1.43389 0
M  V30 5799 H 554.429 2.35444 -3.9611 0
M  V30 5800 H 552.744 2.26203 -3.49602 0
M  V30 5801 H 555.341 4.79944 -2.35706 0
M  V30 5802 H 555.684 4.0853 -0.800572 0
M  V30 5803 H 556.217 3.25711 -2.28379 0
M  V30 5804 H 552.956 4.01009 -5.18529 0
M  V30 5805 H 552.476 4.76213 -3.64665 0
M  V30 5806 H 554.155 4.90022 -4.22478 0
M  V30 5807 N 554.287 1.06798 1.15896 0
M  V30 5808 C 555.234 0.683314 2.20453 0
M  V30 5809 C 556.204 -0.32255 1.62938 0
M  V30 5810 O 557.389 -0.210276 1.89638 0
M  V30 5811 C 554.529 0.0813266 3.45004 0
M  V30 5812 C 553.642 1.13799 4.16742 0
M  V30 5813 C 552.777 0.501598 5.28826 0
M  V30 5814 C 551.816 1.54144 5.92373 0
M  V30 5815 N 550.953 0.928038 6.9594 0
M  V30 5816 H 555.793 1.57932 2.52708 0
M  V30 5817 H 553.33 0.789544 1.24115 0
M  V30 5818 H 555.288 -0.285274 4.16224 0
M  V30 5819 H 553.918 -0.77806 3.13283 0
M  V30 5820 H 552.97 1.62223 3.44075 0
M  V30 5821 H 554.282 1.92664 4.60089 0
M  V30 5822 H 553.436 0.0823162 6.06644 0
M  V30 5823 H 552.175 -0.318883 4.86656 0
M  V30 5824 H 551.18 1.97056 5.13273 0
M  V30 5825 H 552.405 2.3641 6.36621 0
M  V30 5826 H 550.351 0.12836 6.55874 0
M  V30 5827 H 550.268 1.65401 7.37685 0
M  V30 5828 H 551.536 0.534071 7.77668 0
M  V30 5829 N 555.766 -1.3263 0.851289 0
M  V30 5830 C 557.012 -1.9766 0.453694 0
M  V30 5831 C 557.345 -1.67225 -0.987396 0
M  V30 5832 O 556.62 -0.958693 -1.69232 0
M  V30 5833 C 556.903 -3.5344 0.68936 0
M  V30 5834 C 556.756 -3.93517 2.17862 0
M  V30 5835 C 558.075 -4.39866 0.143555 0
M  V30 5836 H 555.194 -0.717989 0.166314 0
M  V30 5837 H 557.836 -1.57068 1.06909 0
M  V30 5838 H 555.986 -3.88147 0.165546 0
M  V30 5839 H 557.658 -3.69006 2.76826 0
M  V30 5840 H 555.901 -3.42798 2.65841 0
M  V30 5841 H 556.572 -5.02065 2.29422 0
M  V30 5842 H 559.048 -4.11875 0.591451 0
M  V30 5843 H 557.924 -5.47858 0.338043 0
M  V30 5844 H 558.185 -4.31696 -0.953466 0
M  V30 5845 N 557.244 -0.608902 -1.45362 0
M  V30 5846 C 558.492 -0.104401 -2.0183 0
M  V30 5847 C 558.813 1.27007 -1.47967 0
M  V30 5848 O 558.083 1.83924 -0.674455 0
M  V30 5849 H 556.663 -0.0356042 -0.746151 0
M  V30 5850 H 559.325 -0.790596 -1.78145 0
M  V30 5851 H 558.421 -0.0551793 -3.12051 0
M  V30 5852 N 558.722 1.53707 -0.348139 0
M  V30 5853 C 559.999 1.93247 0.302475 0
M  V30 5854 C 560.379 1.28012 1.67857 0
M  V30 5855 O 559.727 0.43274 2.24365 0
M  V30 5856 C 559.937 3.47031 0.370159 0
M  V30 5857 C 561.285 4.20066 0.61882 0
M  V30 5858 O 562.309 3.53319 0.452087 0
M  V30 5859 O 561.168 5.38318 0.94215 0
M  V30 5860 H 558.262 0.807736 0.177458 0
M  V30 5861 H 560.808 1.64927 -0.399651 0
M  V30 5862 H 559.58 3.86745 -0.59534 0
M  V30 5863 H 559.203 3.81532 1.11888 0
M  V30 5864 N 560.2 0.0768682 1.57412 0
M  V30 5865 C 561.611 -0.455037 1.8107 0
M  V30 5866 C 561.962 -1.69323 0.991162 0
M  V30 5867 O 561.087 -2.15328 0.215156 0
M  V30 5868 C 561.682 -0.832316 3.28417 0
M  V30 5869 C 560.241 -1.30906 3.52903 0
M  V30 5870 C 559.388 -0.296714 2.75708 0
M  V30 5871 H 562.339 0.302514 1.5579 0
M  V30 5872 H 562.36 -1.69333 3.40744 0
M  V30 5873 H 561.872 0.0690532 3.88039 0
M  V30 5874 H 559.973 -2.22875 2.98592 0
M  V30 5875 H 560.086 -1.28348 4.61588 0
M  V30 5876 H 558.45 -0.775059 2.42621 0
M  V30 5877 H 559.233 0.597015 3.38069 0
M  V30 5878 N 561.678 -1.56367 -0.196722 0
M  V30 5879 C 562.641 -1.93561 -1.22746 0
M  V30 5880 C 563.641 -0.816566 -1.38524 0
M  V30 5881 O 564.831 -1.084 -1.36363 0
M  V30 5882 C 561.963 -2.20823 -2.59712 0
M  V30 5883 H 563.156 -2.85774 -0.909586 0
M  V30 5884 H 560.709 -1.50032 -0.438174 0
M  V30 5885 H 561.444 -1.31243 -2.96557 0
M  V30 5886 H 561.229 -3.02368 -2.49632 0
M  V30 5887 H 562.719 -2.50608 -3.34044 0
M  V30 5888 N 563.156 0.464375 -1.50603 0
M  V30 5889 C 564.066 1.58723 -1.72754 0
M  V30 5890 C 565.082 1.62925 -0.610844 0
M  V30 5891 O 566.258 1.8067 -0.889963 0
M  V30 5892 C 563.323 2.94897 -1.82309 0
M  V30 5893 C 562.384 3.0103 -3.06071 0
M  V30 5894 C 561.617 4.30708 -3.1516 0
M  V30 5895 O 561.84 5.2159 -2.30868 0
M  V30 5896 O 560.774 4.42571 -4.0794 0
M  V30 5897 H 564.6 1.42954 -2.67951 0
M  V30 5898 H 562.185 0.644579 -1.3478 0
M  V30 5899 H 564.067 3.75764 -1.90735 0
M  V30 5900 H 562.742 3.10851 -0.902967 0
M  V30 5901 H 561.649 2.19217 -3.03142 0
M  V30 5902 H 562.982 2.90014 -3.97684 0
M  V30 5903 N 564.634 1.40294 0.718013 0
M  V30 5904 C 565.911 1.2894 1.47084 0
M  V30 5905 C 566.291 -0.0933625 2.10893 0
M  V30 5906 O 565.639 -1.10598 1.99951 0
M  V30 5907 C 565.849 2.4264 2.50852 0
M  V30 5908 C 567.197 2.8276 3.16752 0
M  V30 5909 O 568.221 2.42215 2.61171 0
M  V30 5910 O 567.08 3.528 4.17366 0
M  V30 5911 H 564.174 0.506236 0.653952 0
M  V30 5912 H 566.72 1.52208 0.750394 0
M  V30 5913 H 565.492 3.35009 2.022 0
M  V30 5914 H 565.115 2.21129 3.30435 0
M  V30 5915 N 566.112 -0.949982 1.2575 0
M  V30 5916 C 567.359 -1.69515 1.10774 0
M  V30 5917 C 567.687 -1.91316 -0.350479 0
M  V30 5918 O 566.942 -1.48515 -1.27443 0
M  V30 5919 C 567.241 -3.08039 1.81237 0
M  V30 5920 C 566.907 -3.06023 3.31151 0
M  V30 5921 C 565.569 -3.0518 3.72047 0
M  V30 5922 C 567.921 -2.98998 4.26907 0
M  V30 5923 C 565.249 -2.95067 5.07102 0
M  V30 5924 C 567.601 -2.90426 5.61992 0
M  V30 5925 C 566.265 -2.87922 6.0221 0
M  V30 5926 H 565.535 -0.6203 0.405351 0
M  V30 5927 H 568.182 -1.10953 1.56082 0
M  V30 5928 H 566.487 -3.70172 1.28373 0
M  V30 5929 H 568.184 -3.64526 1.67098 0
M  V30 5930 H 564.774 -3.07453 2.98614 0
M  V30 5931 H 568.958 -2.98764 3.963 0
M  V30 5932 H 564.214 -2.915 5.37436 0
M  V30 5933 H 568.388 -2.83952 6.35881 0
M  V30 5934 H 566.015 -2.79841 7.06819 0
M  V30 5935 N 567.59 -1.07411 -1.15328 0
M  V30 5936 C 568.838 -0.796073 -1.85761 0
M  V30 5937 C 569.159 0.679864 -1.82764 0
M  V30 5938 O 568.429 1.49242 -1.269 0
M  V30 5939 H 567.009 -0.291495 -0.687779 0
M  V30 5940 H 569.671 -1.35799 -1.39802 0
M  V30 5941 H 568.767 -1.13114 -2.90881 0
M  V30 5942 N 569.068 1.32177 -0.85831 0
M  V30 5943 C 570.296 2.01313 -0.477582 0
M  V30 5944 C 570.711 1.6449 0.926736 0
M  V30 5945 O 570.068 0.868096 1.60531 0
M  V30 5946 C 570.119 3.56293 -0.611337 0
M  V30 5947 O 569.84 3.91794 -1.96034 0
M  V30 5948 C 571.341 4.42702 -0.230093 0
M  V30 5949 H 568.561 0.644323 -0.187322 0
M  V30 5950 H 571.105 1.68674 -1.15626 0
M  V30 5951 H 569.26 3.87395 0.0196494 0
M  V30 5952 H 569.674 4.86513 -1.95973 0
M  V30 5953 H 571.148 5.50727 -0.374674 0
M  V30 5954 H 571.625 4.3129 0.829779 0
M  V30 5955 H 572.231 4.16997 -0.836302 0
M  V30 5956 N 570.547 0.616602 1.45037 0
M  V30 5957 C 571.794 0.115331 2.02171 0
M  V30 5958 C 572.122 -1.25748 1.48383 0
M  V30 5959 O 571.377 -1.84511 0.652229 0
M  V30 5960 C 571.676 0.0356829 3.57382 0
M  V30 5961 C 571.342 1.34535 4.30362 0
M  V30 5962 C 570.004 1.70408 4.50016 0
M  V30 5963 C 572.356 2.21049 4.72003 0
M  V30 5964 C 569.684 2.92529 5.0857 0
M  V30 5965 C 572.036 3.42427 5.31908 0
M  V30 5966 C 570.7 3.78541 5.49784 0
M  V30 5967 H 569.97 0.0422024 0.739797 0
M  V30 5968 H 572.617 0.80002 1.73988 0
M  V30 5969 H 570.922 -0.732314 3.84895 0
M  V30 5970 H 572.619 -0.368463 3.99304 0
M  V30 5971 H 569.209 1.05615 4.15383 0
M  V30 5972 H 573.393 1.94632 4.56544 0
M  V30 5973 H 568.649 3.20605 5.20598 0
M  V30 5974 H 572.823 4.09709 5.63127 0
M  V30 5975 H 570.45 4.73255 5.94923 0
M  V30 5976 N 572.025 -1.5352 0.356285 0
M  V30 5977 C 573.272 -2.01117 -0.236303 0
M  V30 5978 C 573.6 -1.24381 -1.49531 0
M  V30 5979 O 572.855 -0.323057 -1.93015 0
M  V30 5980 C 573.154 -3.52607 -0.583369 0
M  V30 5981 C 572.82 -4.47151 0.58023 0
M  V30 5982 C 571.482 -4.72718 0.899528 0
M  V30 5983 C 573.834 -5.03137 1.36024 0
M  V30 5984 C 571.162 -5.51523 2.00098 0
M  V30 5985 C 573.514 -5.83145 2.45204 0
M  V30 5986 C 572.178 -6.07001 2.77679 0
M  V30 5987 H 571.448 -0.735938 -0.0864695 0
M  V30 5988 H 574.095 -1.85209 0.48683 0
M  V30 5989 H 572.4 -3.66413 -1.38739 0
M  V30 5990 H 574.097 -3.86901 -1.05397 0
M  V30 5991 H 570.687 -4.27394 0.321322 0
M  V30 5992 H 574.871 -4.83339 1.12682 0
M  V30 5993 H 570.127 -5.68229 2.25668 0
M  V30 5994 H 574.301 -6.25537 3.06067 0
M  V30 5995 H 571.928 -6.67851 3.63151 0
M  V30 5996 N 573.503 -0.0852151 -1.57369 0
M  V30 5997 C 574.728 0.592872 -1.98746 0
M  V30 5998 C 575.153 1.61538 -0.963689 0
M  V30 5999 O 574.511 1.81168 0.069071 0
M  V30 6000 C 574.559 1.22599 -3.39119 0
M  V30 6001 O 573.663 2.34185 -3.39457 0
M  V30 6002 H 573.004 0.151314 -0.646529 0
M  V30 6003 H 575.534 -0.163703 -2.03944 0
M  V30 6004 H 575.544 1.56965 -3.76598 0
M  V30 6005 H 574.219 0.476831 -4.13158 0
M  V30 6006 H 572.796 2.01512 -3.13763 0
M  V30 6007 N 574.981 1.5647 0.188427 0
M  V30 6008 C 575.944 1.9421 1.21718 0
M  V30 6009 C 576.944 0.823901 1.38089 0
M  V30 6010 O 578.134 1.09122 1.35787 0
M  V30 6011 C 575.266 2.22197 2.58537 0
M  V30 6012 H 576.459 2.86252 0.894418 0
M  V30 6013 H 574.012 1.50263 0.430211 0
M  V30 6014 H 574.747 1.32814 2.95856 0
M  V30 6015 H 574.532 3.03688 2.48025 0
M  V30 6016 H 576.022 2.52376 3.3271 0
M  V30 6017 N 576.459 -0.456382 1.50847 0
M  V30 6018 C 577.705 -1.20914 1.62811 0
M  V30 6019 C 578.038 -1.91301 0.334304 0
M  V30 6020 O 577.313 -1.82775 -0.665098 0
M  V30 6021 C 577.596 -2.24122 2.81853 0
M  V30 6022 C 577.449 -1.57944 4.21158 0
M  V30 6023 C 578.768 -3.25295 2.96431 0
M  V30 6024 H 575.887 -0.438233 0.592554 0
M  V30 6025 H 578.529 -0.50091 1.83278 0
M  V30 6026 H 576.679 -2.84524 2.64534 0
M  V30 6027 H 578.351 -1.01025 4.50102 0
M  V30 6028 H 576.594 -0.882185 4.24735 0
M  V30 6029 H 577.265 -2.33014 5.00408 0
M  V30 6030 H 579.741 -2.7493 3.12335 0
M  V30 6031 H 578.617 -3.94822 3.81322 0
M  V30 6032 H 578.878 -3.90286 2.07676 0
M  V30 6033 N 577.937 -1.40673 -0.710563 0
M  V30 6034 C 579.186 -1.38525 -1.46607 0
M  V30 6035 C 579.499 0.0077024 -1.95598 0
M  V30 6036 O 580.705 0.151792 -2.71075 0
M  V30 6037 C 579.161 -2.43489 -2.6503 0
M  V30 6038 C 578.769 -3.88619 -2.22888 0
M  V30 6039 C 580.513 -2.50456 -3.42742 0
M  V30 6040 C 578.42 -4.85168 -3.3818 0
M  V30 6041 H 577.35 -0.515092 -0.550632 0
M  V30 6042 H 580.001 -1.66431 -0.772846 0
M  V30 6043 H 578.383 -2.0869 -3.36548 0
M  V30 6044 H 579.557 -4.32588 -1.58758 0
M  V30 6045 H 577.872 -3.85174 -1.58208 0
M  V30 6046 H 580.469 -3.19776 -4.28541 0
M  V30 6047 H 580.812 -1.53665 -3.86902 0
M  V30 6048 H 581.345 -2.84271 -2.78271 0
M  V30 6049 H 578.084 -5.8331 -2.99047 0
M  V30 6050 H 577.604 -4.4586 -4.01209 0
M  V30 6051 H 579.283 -5.05225 -4.04174 0
M  V30 6052 N 579.415 0.9433 -1.26252 0
M  V30 6053 C 580.692 1.66639 -1.02424 0
M  V30 6054 C 581.072 2.06335 0.446006 0
M  V30 6055 O 580.42 1.78551 1.42589 0
M  V30 6056 C 580.63 2.88019 -1.97094 0
M  V30 6057 C 581.978 3.59718 -2.25584 0
M  V30 6058 O 583.002 2.9812 -1.94943 0
M  V30 6059 O 581.861 4.7066 -2.77743 0
M  V30 6060 H 578.955 0.729643 -0.389294 0
M  V30 6061 H 581.501 0.995218 -1.37454 0
M  V30 6062 H 580.273 2.5556 -2.96319 0
M  V30 6063 H 579.896 3.62863 -1.62532 0
M  V30 6064 N 580.893 1.08022 1.14757 0
M  V30 6065 C 581.856 0.71048 2.1791 0
M  V30 6066 C 582.856 -0.252731 1.58801 0
M  V30 6067 O 584.046 -0.0327915 1.74169 0
M  V30 6068 C 581.178 0.0483203 3.40866 0
M  V30 6069 H 582.371 1.62384 2.52134 0
M  V30 6070 H 579.924 0.877595 1.29337 0
M  V30 6071 H 580.659 -0.876959 3.12218 0
M  V30 6072 H 580.444 0.741189 3.85031 0
M  V30 6073 H 581.934 -0.195471 4.17142 0
M  V30 6074 N 582.371 -1.3172 0.865308 0
M  V30 6075 C 583.318 -2.2863 0.315736 0
M  V30 6076 C 584.288 -1.55524 -0.583213 0
M  V30 6077 O 585.473 -1.83694 -0.51585 0
M  V30 6078 C 582.613 -3.41735 -0.480773 0
M  V30 6079 C 581.726 -4.297 0.445167 0
M  V30 6080 C 580.861 -5.29944 -0.365012 0
M  V30 6081 C 579.9 -6.09554 0.557651 0
M  V30 6082 N 579.037 -7.01768 -0.215994 0
M  V30 6083 H 583.877 -2.75026 1.14736 0
M  V30 6084 H 581.414 -1.35302 0.577209 0
M  V30 6085 H 583.372 -4.06045 -0.958306 0
M  V30 6086 H 582.002 -2.96461 -1.27714 0
M  V30 6087 H 581.054 -3.65875 1.04113 0
M  V30 6088 H 582.366 -4.85295 1.15284 0
M  V30 6089 H 581.52 -5.99908 -0.905255 0
M  V30 6090 H 580.259 -4.74994 -1.106 0
M  V30 6091 H 579.264 -5.38485 1.10969 0
M  V30 6092 H 580.489 -6.66591 1.29742 0
M  V30 6093 H 578.435 -6.49232 -0.939878 0
M  V30 6094 H 578.352 -7.54762 0.432431 0
M  V30 6095 H 579.62 -7.76002 -0.737618 0
M  V30 6096 N 583.85 -0.624285 -1.44708 0
M  V30 6097 C 585.075 -0.131171 -2.06985 0
M  V30 6098 C 585.5 1.18234 -1.46295 0
M  V30 6099 O 584.858 1.72375 -0.561842 0
M  V30 6100 C 584.906 -0.0226724 -3.60593 0
M  V30 6101 O 584.01 1.02314 -3.99507 0
M  V30 6102 H 583.351 -0.0816556 -0.65896 0
M  V30 6103 H 585.88 -0.859027 -1.85693 0
M  V30 6104 H 585.891 0.170138 -4.07645 0
M  V30 6105 H 584.566 -0.981685 -4.04148 0
M  V30 6106 H 583.143 0.805452 -3.64097 0
M  V30 6107 N 585.328 1.53329 -0.364422 0
M  V30 6108 C 586.575 2.01239 0.225634 0
M  V30 6109 C 586.903 1.25172 1.48869 0
M  V30 6110 O 586.158 0.333289 1.92841 0
M  V30 6111 C 586.457 3.52911 0.564661 0
M  V30 6112 C 586.123 4.46837 -0.603936 0
M  V30 6113 C 584.785 4.72234 -0.924585 0
M  V30 6114 C 587.137 5.02409 -1.38691 0
M  V30 6115 C 584.465 5.50454 -2.0302 0
M  V30 6116 C 586.817 5.81836 -2.48293 0
M  V30 6117 C 585.481 6.0552 -2.80894 0
M  V30 6118 H 584.751 0.736386 0.0825654 0
M  V30 6119 H 587.398 1.84948 -0.496645 0
M  V30 6120 H 585.703 3.67144 1.36794 0
M  V30 6121 H 587.4 3.87455 1.03344 0
M  V30 6122 H 583.99 4.27217 -0.343983 0
M  V30 6123 H 588.174 4.82735 -1.15243 0
M  V30 6124 H 583.43 5.67024 -2.28678 0
M  V30 6125 H 587.604 6.23905 -3.0938 0
M  V30 6126 H 585.231 6.65916 -3.66688 0
M  V30 6127 N 586.806 0.0935595 1.57322 0
M  V30 6128 C 587.769 -0.851426 2.12799 0
M  V30 6129 C 588.769 -1.21187 1.0569 0
M  V30 6130 O 589.959 -1.14156 1.31583 0
M  V30 6131 C 587.091 -2.14779 2.64731 0
M  V30 6132 H 588.284 -0.369733 2.97612 0
M  V30 6133 H 585.837 -0.155417 1.55525 0
M  V30 6134 H 586.572 -2.67437 1.83434 0
M  V30 6135 H 586.357 -1.89907 3.43042 0
M  V30 6136 H 587.847 -2.82383 3.07651 0
M  V30 6137 N 588.284 -1.56567 -0.180126 0
M  V30 6138 C 589.7 -1.50488 -0.531559 0
M  V30 6139 C 589.9 -0.796267 -1.851 0
M  V30 6140 O 588.956 -0.352978 -2.50021 0
M  V30 6141 C 590.269 -2.95201 -0.572456 0
M  V30 6142 C 591.817 -3.05957 -0.660264 0
M  V30 6143 C 592.292 -4.5211 -0.732135 0
M  V30 6144 N 593.783 -4.56322 -0.795262 0
M  V30 6145 C 594.518 -5.66742 -0.871296 0
M  V30 6146 N 594.014 -6.86815 -0.908708 0
M  V30 6147 N 595.807 -5.54691 -0.909639 0
M  V30 6148 H 587.958 -2.01045 0.685165 0
M  V30 6149 H 590.221 -0.915536 0.245962 0
M  V30 6150 H 589.927 -3.50165 0.328208 0
M  V30 6151 H 589.801 -3.49369 -1.422 0
M  V30 6152 H 592.188 -2.51032 -1.55136 0
M  V30 6153 H 592.269 -2.54888 0.215783 0
M  V30 6154 H 591.913 -5.07664 0.154664 0
M  V30 6155 H 591.843 -5.00926 -1.6242 0
M  V30 6156 H 594.334 -3.69868 -0.77499 0
M  V30 6157 H 594.647 -7.66718 -0.967654 0
M  V30 6158 H 592.992 -6.89443 -0.877132 0
M  V30 6159 H 596.183 -4.59804 -0.877353 0
M  V30 6160 H 596.356 -6.40768 -0.965434 0
M  V30 6161 N 589.762 0.448376 -1.51087 0
M  V30 6162 C 591.011 1.19561 -1.62444 0
M  V30 6163 C 591.324 1.92602 -0.341151 0
M  V30 6164 O 592.53 2.69439 -0.333936 0
M  V30 6165 C 590.986 2.17373 -2.8684 0
M  V30 6166 C 590.594 1.5003 -4.22131 0
M  V30 6167 C 592.338 2.92597 -3.0755 0
M  V30 6168 C 590.245 2.46262 -5.37689 0
M  V30 6169 H 589.175 0.449975 -0.605011 0
M  V30 6170 H 591.826 0.463735 -1.77544 0
M  V30 6171 H 590.208 2.93948 -2.65349 0
M  V30 6172 H 591.382 0.790886 -4.53962 0
M  V30 6173 H 589.697 0.870011 -4.0721 0
M  V30 6174 H 592.294 3.64663 -3.91056 0
M  V30 6175 H 592.637 3.53306 -2.20183 0
M  V30 6176 H 593.17 2.23131 -3.29329 0
M  V30 6177 H 589.909 1.90258 -6.27281 0
M  V30 6178 H 589.429 3.15289 -5.10248 0
M  V30 6179 H 591.108 3.07623 -5.6919 0
M  V30 6180 N 591.24 1.41047 0.703093 0
M  V30 6181 C 592.187 1.42302 1.81711 0
M  V30 6182 C 593.157 0.278336 1.63751 0
M  V30 6183 O 594.342 0.478266 1.84709 0
M  V30 6184 C 591.482 1.30362 3.19531 0
M  V30 6185 C 590.595 2.54638 3.48975 0
M  V30 6186 C 589.73 2.35047 4.76368 0
M  V30 6187 C 588.769 3.54837 4.98756 0
M  V30 6188 N 587.906 3.34363 6.1737 0
M  V30 6189 H 592.746 2.37516 1.79973 0
M  V30 6190 H 590.283 1.1795 0.878983 0
M  V30 6191 H 592.241 1.21443 3.99134 0
M  V30 6192 H 590.871 0.387602 3.20464 0
M  V30 6193 H 589.923 2.74037 2.63833 0
M  V30 6194 H 591.235 3.43766 3.61423 0
M  V30 6195 H 590.389 2.23552 5.64012 0
M  V30 6196 H 589.128 1.43363 4.66153 0
M  V30 6197 H 588.133 3.66795 4.09563 0
M  V30 6198 H 589.358 4.47464 5.10835 0
M  V30 6199 H 587.304 2.45373 6.08382 0
M  V30 6200 H 587.221 4.17063 6.30551 0
M  V30 6201 H 588.489 3.26626 7.07768 0
M  V30 6202 N 592.718 -0.936591 1.26751 0
M  V30 6203 C 593.665 -2.03597 1.08706 0
M  V30 6204 C 594.635 -1.66097 -0.00926542 0
M  V30 6205 O 595.82 -1.90199 0.151377 0
M  V30 6206 C 592.96 -3.3727 0.73094 0
M  V30 6207 C 592.073 -3.87778 1.90399 0
M  V30 6208 C 591.208 -5.09859 1.49056 0
M  V30 6209 C 590.247 -5.5264 2.63164 0
M  V30 6210 N 589.384 -6.65921 2.22471 0
M  V30 6211 H 594.224 -2.18364 2.02784 0
M  V30 6212 H 591.761 -1.06985 1.00958 0
M  V30 6213 H 593.719 -4.14128 0.505328 0
M  V30 6214 H 592.349 -3.22337 -0.172868 0
M  V30 6215 H 591.401 -3.07279 2.2424 0
M  V30 6216 H 592.713 -4.15464 2.76028 0
M  V30 6217 H 591.867 -5.9419 1.22567 0
M  V30 6218 H 590.606 -4.8393 0.60524 0
M  V30 6219 H 589.611 -4.66863 2.90377 0
M  V30 6220 H 590.836 -5.80568 3.52303 0
M  V30 6221 H 588.782 -6.41667 1.36379 0
M  V30 6222 H 588.699 -6.93216 3.01641 0
M  V30 6223 H 589.967 -7.53616 1.99205 0
M  V30 6224 N 594.196 -1.08629 -1.14182 0
M  V30 6225 C 595.442 -0.828415 -1.85766 0
M  V30 6226 C 595.797 0.638947 -1.81481 0
M  V30 6227 O 595.09 1.46386 -1.23619 0
M  V30 6228 C 595.284 -1.28734 -3.3341 0
M  V30 6229 C 595.113 -2.79778 -3.52071 0
M  V30 6230 C 593.883 -3.47554 -3.66789 0
M  V30 6231 C 596.081 -3.77945 -3.48801 0
M  V30 6232 N 594.063 -4.87107 -3.73631 0
M  V30 6233 C 595.434 -5.03406 -3.61914 0
M  V30 6234 C 597.489 -3.70917 -3.32152 0
M  V30 6235 C 596.192 -6.22673 -3.60098 0
M  V30 6236 C 598.218 -4.89662 -3.31641 0
M  V30 6237 C 597.58 -6.13962 -3.45296 0
M  V30 6238 H 593.679 -0.355884 -0.696327 0
M  V30 6239 H 596.263 -1.38508 -1.36834 0
M  V30 6240 H 594.434 -0.75822 -3.80927 0
M  V30 6241 H 596.166 -0.975649 -3.92764 0
M  V30 6242 H 592.921 -2.97972 -3.68116 0
M  V30 6243 H 593.345 -5.59775 -3.80763 0
M  V30 6244 H 597.987 -2.75749 -3.20504 0
M  V30 6245 H 595.705 -7.1815 -3.70522 0
M  V30 6246 H 599.291 -4.85914 -3.19968 0
M  V30 6247 H 598.171 -7.04307 -3.44851 0
M  V30 6248 N 595.674 1.31259 -0.872281 0
M  V30 6249 C 596.604 2.30929 -0.345554 0
M  V30 6250 C 597.585 1.60449 0.5648 0
M  V30 6251 O 598.77 1.8814 0.481335 0
M  V30 6252 C 595.9 3.44348 0.451823 0
M  V30 6253 C 594.854 4.26435 -0.365641 0
M  V30 6254 C 594.18 5.31785 0.557562 0
M  V30 6255 C 595.48 4.97159 -1.60095 0
M  V30 6256 H 597.174 2.75234 -1.17841 0
M  V30 6257 H 594.72 1.3232 -0.568094 0
M  V30 6258 H 596.673 4.13128 0.830854 0
M  V30 6259 H 595.397 2.98816 1.31821 0
M  V30 6260 H 594.056 3.59326 -0.726649 0
M  V30 6261 H 593.704 4.82502 1.4213 0
M  V30 6262 H 593.404 5.87598 0.0144878 0
M  V30 6263 H 594.928 6.03424 0.933387 0
M  V30 6264 H 596.342 5.58523 -1.29323 0
M  V30 6265 H 594.739 5.62779 -2.08327 0
M  V30 6266 H 595.809 4.24012 -2.35249 0
M  V30 6267 N 597.152 0.631951 1.44375 0
M  V30 6268 C 598.062 -0.073674 2.34484 0
M  V30 6269 C 599.078 -0.834825 1.52665 0
M  V30 6270 O 600.254 -0.786902 1.85391 0
M  V30 6271 C 597.319 -1.04247 3.30656 0
M  V30 6272 C 596.38 -0.280602 4.28382 0
M  V30 6273 C 595.613 -1.20325 5.19959 0
M  V30 6274 O 595.836 -2.44199 5.15484 0
M  V30 6275 O 594.77 -0.687128 5.97965 0
M  V30 6276 H 598.596 0.667477 2.96274 0
M  V30 6277 H 596.181 0.392144 1.44162 0
M  V30 6278 H 598.063 -1.59981 3.89851 0
M  V30 6279 H 596.738 -1.76422 2.71398 0
M  V30 6280 H 595.645 0.319804 3.72731 0
M  V30 6281 H 596.978 0.401144 4.90563 0
M  V30 6282 N 598.631 -1.53133 0.372548 0
M  V30 6283 C 599.581 -2.22733 -0.487218 0
M  V30 6284 C 600.565 -1.22506 -1.04312 0
M  V30 6285 O 601.757 -1.47923 -0.972005 0
M  V30 6286 C 598.886 -3.02524 -1.62278 0
M  V30 6287 C 597.972 -4.10133 -1.07943 0
M  V30 6288 N 598.363 -5.05133 -0.259629 0
M  V30 6289 C 596.661 -4.24964 -1.35356 0
M  V30 6290 C 597.362 -5.81687 0.0386656 0
M  V30 6291 N 596.338 -5.40699 -0.560827 0
M  V30 6292 H 600.14 -2.93538 0.145853 0
M  V30 6293 H 597.654 -1.61389 0.180938 0
M  V30 6294 H 599.651 -3.50909 -2.25096 0
M  V30 6295 H 598.311 -2.33252 -2.25884 0
M  V30 6296 H 599.322 -5.178 0.101746 0
M  V30 6297 H 595.999 -3.66919 -1.9919 0
M  V30 6298 H 597.389 -6.68224 0.701841 0
M  V30 6299 N 600.109 -0.101901 -1.5727 0
M  V30 6300 C 601.072 0.840129 -2.13247 0
M  V30 6301 C 602.072 1.20625 -1.06331 0
M  V30 6302 O 603.262 1.13456 -1.32186 0
M  V30 6303 C 600.394 2.13372 -2.65867 0
M  V30 6304 H 601.587 0.353945 -2.97804 0
M  V30 6305 H 599.14 0.147167 -1.55606 0
M  V30 6306 H 599.875 2.66461 -1.84849 0
M  V30 6307 H 599.66 1.88085 -3.44044 0
M  V30 6308 H 601.15 2.80748 -3.09145 0
M  V30 6309 N 601.587 1.56661 0.17182 0
M  V30 6310 C 603.003 1.50768 0.52357 0
M  V30 6311 C 603.203 0.806072 1.84675 0
M  V30 6312 O 602.259 0.366233 2.4983 0
M  V30 6313 C 603.572 2.955 0.556793 0
M  V30 6314 C 605.12 3.06303 0.644029 0
M  V30 6315 C 605.595 4.52492 0.708148 0
M  V30 6316 N 607.086 4.56737 0.771051 0
M  V30 6317 C 607.821 5.67196 0.841229 0
M  V30 6318 N 607.317 6.87287 0.872272 0
M  V30 6319 N 609.11 5.55165 0.88021 0
M  V30 6320 H 601.261 2.00679 -0.695817 0
M  V30 6321 H 603.524 0.914219 -0.250814 0
M  V30 6322 H 603.23 3.49986 -0.346774 0
M  V30 6323 H 603.104 3.50119 1.40346 0
M  V30 6324 H 605.491 2.51851 1.53802 0
M  V30 6325 H 605.572 2.5477 -0.229297 0
M  V30 6326 H 605.216 5.07575 -0.181585 0
M  V30 6327 H 605.146 5.01781 1.59761 0
M  V30 6328 H 607.637 3.70274 0.755364 0
M  V30 6329 H 607.95 7.6722 0.92698 0
M  V30 6330 H 606.295 6.89898 0.840557 0
M  V30 6331 H 609.486 4.60263 0.852956 0
M  V30 6332 H 609.659 6.41271 0.931439 0
M  V30 6333 N 603.065 -0.440357 1.51323 0
M  V30 6334 C 604.29 -1.21716 1.67928 0
M  V30 6335 C 604.715 -1.84328 0.374826 0
M  V30 6336 O 604.073 -1.68675 -0.664706 0
M  V30 6337 C 604.121 -2.27914 2.79442 0
M  V30 6338 O 603.225 -3.33325 2.42834 0
M  V30 6339 H 602.566 -0.35674 0.560029 0
M  V30 6340 H 605.096 -0.520417 1.97871 0
M  V30 6341 H 605.106 -2.72746 3.03436 0
M  V30 6342 H 603.781 -1.8172 3.741 0
M  V30 6343 H 602.358 -2.9399 2.294 0
M  V30 6344 N 604.543 -1.41418 -0.695603 0
M  V30 6345 C 605.768 -1.44329 -1.48942 0
M  V30 6346 C 606.193 -0.0501579 -1.88033 0
M  V30 6347 O 605.551 0.946598 -1.54626 0
M  V30 6348 C 605.599 -2.3578 -2.72837 0
M  V30 6349 O 604.703 -1.81482 -3.70322 0
M  V30 6350 H 604.044 -0.489838 -0.44828 0
M  V30 6351 H 606.574 -1.85878 -0.855014 0
M  V30 6352 H 606.584 -2.51654 -3.21145 0
M  V30 6353 H 605.259 -3.37005 -2.43722 0
M  V30 6354 H 603.836 -1.75058 -3.29255 0
M  V30 6355 N 606.021 0.929856 -1.27246 0
M  V30 6356 C 607.432 1.49223 -1.12203 0
M  V30 6357 C 607.783 1.93989 0.293731 0
M  V30 6358 O 606.908 1.80978 1.18642 0
M  V30 6359 C 607.503 2.71198 -2.0307 0
M  V30 6360 C 606.062 3.23666 -1.92139 0
M  V30 6361 C 605.209 1.96409 -1.95752 0
M  V30 6362 H 608.16 0.744181 -1.4017 0
M  V30 6363 H 608.181 3.45905 -1.58524 0
M  V30 6364 H 607.693 2.38585 -3.06102 0
M  V30 6365 H 605.794 3.61042 -0.920834 0
M  V30 6366 H 605.907 3.90006 -2.78267 0
M  V30 6367 H 604.271 2.12806 -1.39949 0
M  V30 6368 H 605.054 1.66113 -3.00436 0
M  V30 6369 N 607.499 1.09233 1.13605 0
M  V30 6370 C 608.724 0.849067 1.89224 0
M  V30 6371 C 609.149 -0.593875 1.78479 0
M  V30 6372 O 608.507 -1.41703 1.13092 0
M  V30 6373 C 608.555 1.28642 3.36873 0
M  V30 6374 O 607.659 0.44363 4.10007 0
M  V30 6375 H 607 0.30767 0.588417 0
M  V30 6376 H 609.53 1.45595 1.43748 0
M  V30 6377 H 609.54 1.27096 3.87699 0
M  V30 6378 H 608.215 2.33729 3.44011 0
M  V30 6379 H 606.792 0.523241 3.69211 0
M  V30 6380 N 608.977 -1.30795 0.87923 0
M  V30 6381 C 609.907 -2.30742 0.357796 0
M  V30 6382 C 610.888 -1.60747 -0.556283 0
M  V30 6383 O 612.073 -1.88393 -0.47135 0
M  V30 6384 C 609.203 -3.44583 -0.433555 0
M  V30 6385 C 608.157 -4.26235 0.388251 0
M  V30 6386 C 607.483 -5.32073 -0.529352 0
M  V30 6387 C 608.783 -4.96303 1.62729 0
M  V30 6388 H 610.477 -2.74605 1.19299 0
M  V30 6389 H 608.023 -1.32017 0.575104 0
M  V30 6390 H 609.976 -4.13563 -0.808934 0
M  V30 6391 H 608.7 -2.99511 -1.30234 0
M  V30 6392 H 607.359 -3.58936 0.745695 0
M  V30 6393 H 607.007 -4.83249 -1.39569 0
M  V30 6394 H 606.707 -5.87598 0.0166741 0
M  V30 6395 H 608.231 -6.0391 -0.901373 0
M  V30 6396 H 609.645 -5.5783 1.32283 0
M  V30 6397 H 608.042 -5.61666 2.11309 0
M  V30 6398 H 609.112 -4.22758 2.37494 0
M  V30 6399 N 610.455 -0.639598 -1.44038 0
M  V30 6400 C 611.683 -0.154811 -2.0632 0
M  V30 6401 C 612.098 1.17406 -1.47856 0
M  V30 6402 O 611.455 1.72193 -0.604638 0
M  V30 6403 C 611.506 -0.0429958 -3.61474 0
M  V30 6404 O 611.227 -1.31932 -4.17763 0
M  V30 6405 C 612.728 0.469486 -4.40807 0
M  V30 6406 H 609.948 -0.0835862 -0.665773 0
M  V30 6407 H 612.492 -0.876397 -1.84769 0
M  V30 6408 H 610.647 0.629075 -3.82258 0
M  V30 6409 H 611.061 -1.16965 -5.11292 0
M  V30 6410 H 612.535 0.496712 -5.49761 0
M  V30 6411 H 613.012 1.49819 -4.12857 0
M  V30 6412 H 613.618 -0.169624 -4.24962 0
M  V30 6413 N 611.933 1.52934 -0.380664 0
M  V30 6414 C 613.182 2.00651 0.205477 0
M  V30 6415 C 613.495 1.27164 1.48623 0
M  V30 6416 O 614.701 1.65547 2.15189 0
M  V30 6417 C 613.157 3.57479 0.416726 0
M  V30 6418 C 612.765 4.39857 -0.850268 0
M  V30 6419 C 614.509 4.13509 0.959702 0
M  V30 6420 C 612.416 5.88269 -0.607773 0
M  V30 6421 H 611.346 0.749684 0.0805614 0
M  V30 6422 H 613.997 1.76508 -0.501732 0
M  V30 6423 H 612.379 3.77836 1.18557 0
M  V30 6424 H 613.553 4.31269 -1.62307 0
M  V30 6425 H 611.868 3.95005 -1.31756 0
M  V30 6426 H 614.465 5.22039 1.15669 0
M  V30 6427 H 614.808 3.69054 1.92626 0
M  V30 6428 H 615.341 3.9701 0.250645 0
M  V30 6429 H 612.08 6.3703 -1.54509 0
M  V30 6430 H 611.6 5.99667 0.126247 0
M  V30 6431 H 613.279 6.46558 -0.239014 0
M  V30 6432 N 613.412 0.11024 1.57214 0
M  V30 6433 C 614.342 -0.840002 2.17867 0
M  V30 6434 C 615.323 -1.28352 1.11624 0
M  V30 6435 O 616.508 -1.3477 1.39824 0
M  V30 6436 C 613.638 -2.09349 2.77111 0
M  V30 6437 C 612.592 -1.78807 3.8886 0
M  V30 6438 C 611.918 -3.11112 4.34872 0
M  V30 6439 C 613.218 -1.0632 5.11364 0
M  V30 6440 H 614.912 -0.334608 2.97524 0
M  V30 6441 H 612.458 -0.159502 1.43114 0
M  V30 6442 H 614.411 -2.76275 3.18198 0
M  V30 6443 H 613.135 -2.62198 1.9473 0
M  V30 6444 H 611.794 -1.14273 3.48335 0
M  V30 6445 H 611.442 -3.61877 3.49362 0
M  V30 6446 H 611.142 -2.91453 5.10224 0
M  V30 6447 H 612.666 -3.79171 4.78604 0
M  V30 6448 H 614.08 -1.63383 5.49526 0
M  V30 6449 H 612.477 -0.967876 5.92243 0
M  V30 6450 H 613.547 -0.0484569 4.84876 0
M  V30 6451 N 614.89 -1.56749 -0.16351 0
M  V30 6452 C 615.853 -1.96121 -1.18613 0
M  V30 6453 C 616.853 -0.845765 -1.36761 0
M  V30 6454 O 618.043 -1.11268 -1.34033 0
M  V30 6455 C 615.175 -2.26282 -2.54969 0
M  V30 6456 H 616.368 -2.87639 -0.848764 0
M  V30 6457 H 613.921 -1.50928 -0.406251 0
M  V30 6458 H 614.656 -1.37504 -2.93706 0
M  V30 6459 H 614.441 -3.07595 -2.43162 0
M  V30 6460 H 615.931 -2.57638 -3.28653 0
M  V30 6461 N 616.368 0.432326 -1.51554 0
M  V30 6462 C 617.616 1.17901 -1.64146 0
M  V30 6463 C 617.937 1.91604 -0.362367 0
M  V30 6464 O 617.207 1.85764 0.621968 0
M  V30 6465 H 615.787 0.438206 -0.604966 0
M  V30 6466 H 618.449 0.495172 -1.88505 0
M  V30 6467 H 617.545 1.90584 -2.47152 0
M  V30 6468 N 617.846 1.41785 0.688094 0
M  V30 6469 C 619.094 1.41264 1.4453 0
M  V30 6470 C 619.415 0.0252946 1.94984 0
M  V30 6471 O 618.685 -0.934081 1.72197 0
M  V30 6472 H 617.265 0.519998 0.536294 0
M  V30 6473 H 619.927 1.7709 0.813941 0
M  V30 6474 H 619.023 2.10439 2.30482 0
M  V30 6475 N 619.324 -0.923095 1.27737 0
M  V30 6476 C 620.271 -2.02432 1.1086 0
M  V30 6477 C 621.241 -1.66098 0.00835195 0
M  V30 6478 O 622.426 -1.90027 0.171542 0
M  V30 6479 C 619.566 -3.36476 0.766671 0
M  V30 6480 C 618.679 -3.85737 1.94501 0
M  V30 6481 C 617.814 -5.08249 1.54455 0
M  V30 6482 C 616.853 -5.49818 2.6901 0
M  V30 6483 N 615.99 -6.63524 2.29521 0
M  V30 6484 H 620.83 -2.16201 2.05089 0
M  V30 6485 H 618.367 -1.05909 1.02087 0
M  V30 6486 H 620.325 -4.13569 0.549223 0
M  V30 6487 H 618.955 -3.22502 -0.13867 0
M  V30 6488 H 618.007 -3.04883 2.27487 0
M  V30 6489 H 619.319 -4.12513 2.80419 0
M  V30 6490 H 618.473 -5.92857 1.28862 0
M  V30 6491 H 617.212 -4.83261 0.656534 0
M  V30 6492 H 616.217 -4.63757 2.95313 0
M  V30 6493 H 617.442 -5.76799 3.5844 0
M  V30 6494 H 615.388 -6.40185 1.43177 0
M  V30 6495 H 615.305 -6.89978 3.08977 0
M  V30 6496 H 616.573 -7.51461 2.07187 0
M  V30 6497 N 620.802 -1.09834 -1.13024 0
M  V30 6498 C 622.042 -0.846664 -1.8604 0
M  V30 6499 C 622.406 0.616557 -1.81831 0
M  V30 6500 O 623.607 0.984329 -2.50129 0
M  V30 6501 C 621.878 -1.37228 -3.30005 0
M  V30 6502 S 623.437 -1.25511 -4.20467 0
M  V30 6503 H 620.255 -0.30611 -0.64173 0
M  V30 6504 H 622.857 -1.40255 -1.36194 0
M  V30 6505 H 621.561 -2.43138 -3.30624 0
M  V30 6506 H 621.092 -0.81271 -3.84914 0
M  V30 6507 H 623.107 -0.208762 -4.95761 0
M  V30 6508 N 622.28 1.30327 -0.886154 0
M  V30 6509 C 623.557 1.90922 -0.425217 0
M  V30 6510 C 623.937 1.80533 1.09413 0
M  V30 6511 O 623.285 1.2233 1.92996 0
M  V30 6512 C 623.495 3.36529 -0.924638 0
M  V30 6513 C 624.843 4.13598 -0.960305 0
M  V30 6514 O 625.867 3.45377 -0.871382 0
M  V30 6515 O 624.726 5.35482 -1.09184 0
M  V30 6516 H 621.82 0.81668 -0.130238 0
M  V30 6517 H 624.366 1.38886 -0.975132 0
M  V30 6518 H 623.138 3.38181 -1.96849 0
M  V30 6519 H 622.761 3.96021 -0.353955 0
M  V30 6520 N 623.758 0.647228 1.43697 0
M  V30 6521 C 625.035 0.0883758 1.954 0
M  V30 6522 C 625.415 -1.39006 1.58873 0
M  V30 6523 O 624.763 -2.11255 0.87083 0
M  V30 6524 C 624.973 0.328263 3.47453 0
M  V30 6525 C 626.321 0.230009 4.23977 0
M  V30 6526 O 627.345 0.260496 3.55246 0
M  V30 6527 O 626.204 0.148615 5.46298 0
M  V30 6528 H 623.298 -0.0130683 0.826897 0
M  V30 6529 H 625.844 0.72005 1.53666 0
M  V30 6530 H 624.616 1.3535 3.67146 0
M  V30 6531 H 624.239 -0.336772 3.96171 0
M  V30 6532 N 625.236 -1.5273 0.388769 0
M  V30 6533 C 626.461 -2.0647 -0.19621 0
M  V30 6534 C 626.886 -1.25865 -1.39784 0
M  V30 6535 O 626.244 -0.283562 -1.79069 0
M  V30 6536 C 626.292 -3.56456 -0.5451 0
M  V30 6537 O 625.396 -3.78426 -1.63912 0
M  V30 6538 H 624.737 -0.663599 -0.023067 0
M  V30 6539 H 627.267 -1.96898 0.556084 0
M  V30 6540 H 627.277 -3.99888 -0.809557 0
M  V30 6541 H 625.952 -4.14561 0.333417 0
M  V30 6542 H 624.529 -3.46884 -1.36842 0
M  V30 6543 N 626.714 -0.118576 -1.57153 0
M  V30 6544 C 627.96 0.540326 -1.95469 0
M  V30 6545 C 628.293 1.66356 -1.00196 0
M  V30 6546 O 627.568 1.94461 -0.039104 0
M  V30 6547 C 627.851 1.07342 -3.43729 0
M  V30 6548 C 627.704 -0.0463732 -4.49776 0
M  V30 6549 C 629.023 1.96442 -3.93826 0
M  V30 6550 H 626.142 0.19494 -0.710751 0
M  V30 6551 H 628.784 -0.19405 -1.89006 0
M  V30 6552 H 626.934 1.69925 -3.49368 0
M  V30 6553 H 628.606 -0.681648 -4.56236 0
M  V30 6554 H 626.849 -0.709574 -4.27957 0
M  V30 6555 H 627.52 0.367856 -5.50773 0
M  V30 6556 H 629.996 1.43731 -3.90488 0
M  V30 6557 H 628.872 2.3066 -4.98084 0
M  V30 6558 H 629.133 2.89077 -3.34495 0
M  V30 6559 N 628.193 1.56834 0.155195 0
M  V30 6560 C 629.441 1.82536 0.867462 0
M  V30 6561 C 629.762 0.698168 1.82073 0
M  V30 6562 O 629.032 -0.280807 1.93877 0
M  V30 6563 H 627.612 0.673401 0.323327 0
M  V30 6564 H 630.274 1.94313 0.151156 0
M  V30 6565 H 629.37 2.77171 1.43466 0
M  V30 6566 N 629.671 -0.424282 1.51781 0
M  V30 6567 C 630.901 -1.19297 1.68677 0
M  V30 6568 C 631.309 -1.85152 0.389258 0
M  V30 6569 O 630.652 -1.72067 -0.643311 0
M  V30 6570 C 630.714 -2.30929 2.75521 0
M  V30 6571 C 630.378 -1.85335 4.17732 0
M  V30 6572 C 631.375 -1.34951 5.0208 0
M  V30 6573 C 629.06 -1.92629 4.63896 0
M  V30 6574 C 631.054 -0.924636 6.30658 0
M  V30 6575 C 628.741 -1.49754 5.92467 0
M  V30 6576 C 629.739 -0.997543 6.75676 0
M  V30 6577 O 629.427 -0.57492 8.01842 0
M  V30 6578 H 629.159 -0.36512 0.568914 0
M  V30 6579 H 631.713 -0.507327 1.99036 0
M  V30 6580 H 629.943 -3.02811 2.40505 0
M  V30 6581 H 631.632 -2.92748 2.81165 0
M  V30 6582 H 632.398 -1.287 4.67612 0
M  V30 6583 H 628.277 -2.30491 3.99243 0
M  V30 6584 H 631.821 -0.533682 6.95556 0
M  V30 6585 H 627.718 -1.55679 6.26446 0
M  V30 6586 H 628.486 -0.699597 8.15505 0
M  V30 6587 N 631.149 -1.42148 -0.680565 0
M  V30 6588 C 632.396 -1.4231 -1.44063 0
M  V30 6589 C 632.724 -0.037488 -1.94464 0
M  V30 6590 O 631.979 0.953184 -1.70918 0
M  V30 6591 C 632.278 -2.38945 -2.65782 0
M  V30 6592 C 631.944 -3.85455 -2.33956 0
M  V30 6593 C 630.606 -4.25364 -2.24987 0
M  V30 6594 C 632.958 -4.77895 -2.08004 0
M  V30 6595 C 630.286 -5.55701 -1.88184 0
M  V30 6596 C 632.638 -6.08568 -1.72706 0
M  V30 6597 C 631.302 -6.47482 -1.62244 0
M  V30 6598 H 630.572 -0.520748 -0.527164 0
M  V30 6599 H 633.219 -1.7505 -0.776524 0
M  V30 6600 H 631.524 -1.99511 -3.37198 0
M  V30 6601 H 633.221 -2.36336 -3.23954 0
M  V30 6602 H 629.811 -3.53855 -2.41836 0
M  V30 6603 H 633.995 -4.47854 -2.1387 0
M  V30 6604 H 629.251 -5.84718 -1.78648 0
M  V30 6605 H 633.425 -6.79688 -1.5165 0
M  V30 6606 H 631.052 -7.48387 -1.33496 0
M  V30 6607 N 632.627 0.916307 -1.28225 0
M  V30 6608 C 633.873 1.66765 -1.154 0
M  V30 6609 C 634.206 1.91912 0.297251 0
M  V30 6610 O 633.481 1.51766 1.21644 0
M  V30 6611 C 633.764 3.02715 -1.95028 0
M  V30 6612 C 633.617 2.84738 -3.48201 0
M  V30 6613 C 634.936 4.03215 -1.76369 0
M  V30 6614 H 632.055 0.605205 -0.42059 0
M  V30 6615 H 634.697 1.06255 -1.57512 0
M  V30 6616 H 632.847 3.54365 -1.59242 0
M  V30 6617 H 634.519 2.40118 -3.9388 0
M  V30 6618 H 632.762 2.19848 -3.73964 0
M  V30 6619 H 633.433 3.8127 -3.99171 0
M  V30 6620 H 635.909 3.60617 -2.07593 0
M  V30 6621 H 634.785 4.96306 -2.34459 0
M  V30 6622 H 635.046 4.36288 -0.71452 0
M  V30 6623 N 634.105 1.10431 1.1244 0
M  V30 6624 C 635.015 0.765502 2.21759 0
M  V30 6625 C 636.031 -0.236966 1.72379 0
M  V30 6626 O 637.207 -0.0757329 2.01258 0
M  V30 6627 C 634.272 0.202316 3.46109 0
M  V30 6628 C 633.333 1.26205 4.1033 0
M  V30 6629 C 632.566 0.725648 5.28744 0
M  V30 6630 O 632.789 -0.447942 5.68638 0
M  V30 6631 O 631.723 1.48555 5.83279 0
M  V30 6632 H 635.549 1.67801 2.53133 0
M  V30 6633 H 633.134 0.879443 1.20773 0
M  V30 6634 H 635.016 -0.107918 4.21262 0
M  V30 6635 H 633.691 -0.683052 3.16411 0
M  V30 6636 H 632.598 1.62514 3.36957 0
M  V30 6637 H 633.931 2.12044 4.44183 0
M  V30 6638 N 635.583 -1.29855 0.893053 0
M  V30 6639 C 636.994 -1.77946 0.564998 0
M  V30 6640 C 637.345 -1.73339 -0.919134 0
M  V30 6641 O 636.47 -1.3152 -1.71847 0
M  V30 6642 C 637.065 -3.23118 1.01883 0
M  V30 6643 C 635.624 -3.69013 0.742051 0
M  V30 6644 C 634.771 -2.50121 1.19727 0
M  V30 6645 H 637.722 -1.16611 1.07646 0
M  V30 6646 H 637.743 -3.78875 0.351249 0
M  V30 6647 H 637.255 -3.26439 2.09903 0
M  V30 6648 H 635.356 -3.71173 -0.325816 0
M  V30 6649 H 635.469 -4.60117 1.33527 0
M  V30 6650 H 633.833 -2.47128 0.616418 0
M  V30 6651 H 634.616 -2.56174 2.28538 0
M  V30 6652 N 637.061 -0.65484 -1.43351 0
M  V30 6653 C 638.301 -0.172514 -2.03671 0
M  V30 6654 C 638.665 1.19154 -1.50553 0
M  V30 6655 O 639.866 1.76737 -2.02528 0
M  V30 6656 C 638.137 -0.183982 -3.56926 0
M  V30 6657 S 639.696 0.230262 -4.38195 0
M  V30 6658 H 636.514 -0.0727503 -0.707268 0
M  V30 6659 H 639.116 -0.863537 -1.75395 0
M  V30 6660 H 637.82 -1.17945 -3.93087 0
M  V30 6661 H 637.351 0.527527 -3.89847 0
M  V30 6662 H 639.366 1.46874 -4.73965 0
M  V30 6663 N 638.539 1.52521 -0.396863 0
M  V30 6664 C 639.788 2.00857 0.184184 0
M  V30 6665 C 640.101 1.28733 1.47265 0
M  V30 6666 O 641.307 1.67821 2.13421 0
M  V30 6667 C 639.763 3.57901 0.378787 0
M  V30 6668 C 639.371 4.38931 -0.896873 0
M  V30 6669 C 641.115 4.14504 0.915789 0
M  V30 6670 C 639.022 5.87591 -0.670133 0
M  V30 6671 H 637.952 0.750496 0.0726055 0
M  V30 6672 H 640.603 1.75965 -0.520425 0
M  V30 6673 H 638.985 3.79072 1.14543 0
M  V30 6674 H 640.159 4.29524 -1.66872 0
M  V30 6675 H 638.474 3.93586 -1.35938 0
M  V30 6676 H 641.071 5.23236 1.10126 0
M  V30 6677 H 641.414 3.71076 1.88701 0
M  V30 6678 H 641.947 3.97253 0.208523 0
M  V30 6679 H 638.686 6.35355 -1.61257 0
M  V30 6680 H 638.206 5.99767 0.0626368 0
M  V30 6681 H 639.885 6.46268 -0.307577 0
M  V30 6682 N 640.017 0.126909 1.57088 0
M  V30 6683 C 641.263 -0.529952 1.95753 0
M  V30 6684 C 641.596 -1.65823 1.01077 0
M  V30 6685 O 640.871 -1.94437 0.0494162 0
M  V30 6686 C 641.154 -1.05517 3.44294 0
M  V30 6687 C 641.007 0.0702253 4.49745 0
M  V30 6688 C 642.326 -1.9435 3.94862 0
M  V30 6689 H 639.445 -0.191168 0.711775 0
M  V30 6690 H 642.087 0.204071 1.88901 0
M  V30 6691 H 640.237 -1.68069 3.50264 0
M  V30 6692 H 641.909 0.705834 4.55868 0
M  V30 6693 H 640.152 0.732259 4.27575 0
M  V30 6694 H 640.823 -0.338642 5.5096 0
M  V30 6695 H 643.299 -1.41658 3.91244 0
M  V30 6696 H 642.175 -2.28015 4.993 0
M  V30 6697 H 642.436 -2.87299 3.36024 0
M  V30 6698 N 641.495 -1.56914 -0.146875 0
M  V30 6699 C 642.405 -2.0154 -1.20079 0
M  V30 6700 C 643.421 -0.930838 -1.47008 0
M  V30 6701 O 644.597 -1.24032 -1.58676 0
M  V30 6702 C 641.662 -2.38715 -2.51428 0
M  V30 6703 C 640.723 -3.6112 -2.32145 0
M  V30 6704 C 639.956 -3.96512 -3.57231 0
M  V30 6705 O 640.179 -3.32566 -4.63418 0
M  V30 6706 O 639.113 -4.89758 -3.49887 0
M  V30 6707 H 642.939 -2.91506 -0.851924 0
M  V30 6708 H 640.524 -1.45106 -0.355607 0
M  V30 6709 H 642.406 -2.63485 -3.28867 0
M  V30 6710 H 641.081 -1.51903 -2.85845 0
M  V30 6711 H 639.988 -3.41536 -1.52656 0
M  V30 6712 H 641.321 -4.48549 -2.02644 0
M  V30 6713 N 642.974 0.416227 -1.52004 0
M  V30 6714 C 644.199 1.19029 -1.69843 0
M  V30 6715 C 644.624 1.83708 -0.404103 0
M  V30 6716 O 643.982 1.69711 0.637787 0
M  V30 6717 C 644.03 2.23439 -2.83032 0
M  V30 6718 O 643.134 3.29419 -2.48106 0
M  V30 6719 H 642.475 0.347785 -0.565634 0
M  V30 6720 H 645.005 0.488871 -1.98674 0
M  V30 6721 H 645.015 2.67884 -3.07737 0
M  V30 6722 H 643.69 1.75745 -3.76944 0
M  V30 6723 H 642.267 2.90303 -2.34048 0
M  V30 6724 N 644.452 1.42507 0.673017 0
M  V30 6725 C 645.399 1.46124 1.78651 0
M  V30 6726 C 646.369 0.313007 1.63124 0
M  V30 6727 O 647.554 0.517337 1.83653 0
M  V30 6728 C 644.694 1.3711 3.16694 0
M  V30 6729 C 643.807 2.61983 3.43495 0
M  V30 6730 C 642.942 2.45098 4.71275 0
M  V30 6731 C 641.981 3.65336 4.91117 0
M  V30 6732 N 641.118 3.47383 6.10139 0
M  V30 6733 H 645.958 2.4128 1.74895 0
M  V30 6734 H 643.495 1.19788 0.853766 0
M  V30 6735 H 645.453 1.29881 3.96468 0
M  V30 6736 H 644.083 0.45549 3.1957 0
M  V30 6737 H 643.135 2.79571 2.57961 0
M  V30 6738 H 644.447 3.51355 3.5405 0
M  V30 6739 H 643.601 2.35466 5.59143 0
M  V30 6740 H 642.34 1.53219 4.63007 0
M  V30 6741 H 641.345 3.754 4.0169 0
M  V30 6742 H 642.57 4.58199 5.01229 0
M  V30 6743 H 640.516 2.58222 6.0304 0
M  V30 6744 H 640.433 4.30344 6.21563 0
M  V30 6745 H 641.701 3.41565 7.00681 0
M  V30 6746 N 645.93 -0.909495 1.28709 0
M  V30 6747 C 647.207 -1.63865 1.06806 0
M  V30 6748 C 647.587 -2.07445 -0.391143 0
M  V30 6749 O 646.935 -1.82269 -1.37805 0
M  V30 6750 C 647.145 -2.82692 2.04661 0
M  V30 6751 C 648.493 -3.5361 2.35042 0
M  V30 6752 O 649.517 -2.92847 2.02779 0
M  V30 6753 O 648.376 -4.63131 2.90124 0
M  V30 6754 H 645.47 -0.719065 0.408502 0
M  V30 6755 H 648.016 -0.958424 1.40044 0
M  V30 6756 H 646.788 -2.47614 3.0299 0
M  V30 6757 H 646.411 -3.58426 1.72095 0
M  V30 6758 N 647.408 -1.11026 -1.11852 0
M  V30 6759 C 648.819 -0.873203 -1.65021 0
M  V30 6760 C 649.17 0.595364 -1.86949 0
M  V30 6761 O 648.295 1.45645 -1.60051 0
M  V30 6762 C 648.89 -1.57859 -2.99777 0
M  V30 6763 C 647.449 -1.38807 -3.49871 0
M  V30 6764 C 646.596 -1.62403 -2.24768 0
M  V30 6765 H 649.547 -1.26712 -0.955503 0
M  V30 6766 H 649.568 -1.02111 -3.66543 0
M  V30 6767 H 649.08 -2.6474 -2.83786 0
M  V30 6768 H 647.181 -0.341163 -3.71035 0
M  V30 6769 H 647.294 -2.13421 -4.28938 0
M  V30 6770 H 645.658 -1.04714 -2.32179 0
M  V30 6771 H 646.441 -2.70549 -2.11324 0
M  V30 6772 N 648.886 1.2938 -0.899927 0
M  V30 6773 C 649.818 2.26737 -0.335139 0
M  V30 6774 C 650.831 1.54316 0.518681 0
M  V30 6775 O 652.02 1.75313 0.335803 0
M  V30 6776 C 649.12 3.34558 0.540774 0
M  V30 6777 C 648.293 4.36455 -0.287372 0
M  V30 6778 C 647.352 5.2361 0.52141 0
M  V30 6779 O 646.378 5.69167 -0.0611735 0
M  V30 6780 N 647.58 5.50985 1.82745 0
M  V30 6781 H 650.345 2.75838 -1.17191 0
M  V30 6782 H 647.906 1.42716 -0.764438 0
M  V30 6783 H 649.898 3.89794 1.08825 0
M  V30 6784 H 648.468 2.85272 1.27823 0
M  V30 6785 H 647.688 3.80875 -1.01626 0
M  V30 6786 H 648.976 5.01573 -0.854518 0
M  V30 6787 H 648.374 5.15781 2.32349 0
M  V30 6788 H 646.931 6.09036 2.32204 0
M  V30 6789 N 650.364 0.662433 1.43002 0
M  V30 6790 C 651.274 -0.0239199 2.34588 0
M  V30 6791 C 652.29 -0.802255 1.54402 0
M  V30 6792 O 653.466 -0.747401 1.87018 0
M  V30 6793 C 650.531 -0.972098 3.32793 0
M  V30 6794 C 649.592 -0.189673 4.28881 0
M  V30 6795 C 648.825 -1.09269 5.22395 0
M  V30 6796 O 649.048 -2.33209 5.20547 0
M  V30 6797 O 647.982 -0.560136 5.99288 0
M  V30 6798 H 651.808 0.730171 2.94792 0
M  V30 6799 H 649.393 0.422635 1.43297 0
M  V30 6800 H 651.275 -1.51676 3.93157 0
M  V30 6801 H 649.95 -1.70626 2.75079 0
M  V30 6802 H 648.857 0.398794 3.71968 0
M  V30 6803 H 650.19 0.50511 4.89601 0
M  V30 6804 N 651.842 -1.52309 0.404946 0
M  V30 6805 C 653.253 -1.86585 -0.0655926 0
M  V30 6806 C 653.604 -1.3239 -1.44801 0
M  V30 6807 O 652.729 -0.6615 -2.06042 0
M  V30 6808 C 653.324 -3.38566 -0.125801 0
M  V30 6809 C 651.883 -3.72497 -0.540666 0
M  V30 6810 C 651.03 -2.75806 0.287487 0
M  V30 6811 H 653.981 -1.45995 0.622185 0
M  V30 6812 H 654.002 -3.68658 -0.941888 0
M  V30 6813 H 653.514 -3.77981 0.880473 0
M  V30 6814 H 651.615 -3.38659 -1.55373 0
M  V30 6815 H 651.728 -4.78234 -0.287956 0
M  V30 6816 H 650.092 -2.53474 -0.249561 0
M  V30 6817 H 650.875 -3.18059 1.29203 0
M  V30 6818 N 653.32 -0.135238 -1.57019 0
M  V30 6819 C 654.569 0.518694 -1.94917 0
M  V30 6820 C 654.882 1.66783 -1.0219 0
M  V30 6821 O 656.088 2.38561 -1.29619 0
M  V30 6822 C 654.544 0.974123 -3.46466 0
M  V30 6823 C 654.152 -0.147439 -4.47757 0
M  V30 6824 C 655.896 1.59851 -3.93253 0
M  V30 6825 C 653.803 0.325599 -5.90503 0
M  V30 6826 H 652.733 0.19754 -0.727663 0
M  V30 6827 H 655.384 -0.217698 -1.82204 0
M  V30 6828 H 653.766 1.76542 -3.5447 0
M  V30 6829 H 654.94 -0.924122 -4.51438 0
M  V30 6830 H 653.255 -0.679496 -4.10818 0
M  V30 6831 H 655.852 1.96385 -4.9733 0
M  V30 6832 H 656.195 2.48306 -3.3414 0
M  V30 6833 H 656.728 0.872323 -3.88118 0
M  V30 6834 H 653.467 -0.523295 -6.53408 0
M  V30 6835 H 652.987 1.06841 -5.90208 0
M  V30 6836 H 654.666 0.781498 -6.42263 0
M  V30 6837 N 654.798 1.5699 0.138552 0
M  V30 6838 C 655.731 1.94064 1.2006 0
M  V30 6839 C 656.709 0.807601 1.41126 0
M  V30 6840 O 657.893 1.06399 1.556 0
M  V30 6841 C 655.02 2.21999 2.55801 0
M  V30 6842 C 654.066 3.44617 2.5128 0
M  V30 6843 S 654.899 4.97888 1.97149 0
M  V30 6844 C 656.055 5.28954 3.34602 0
M  V30 6845 H 656.288 2.83843 0.884337 0
M  V30 6846 H 653.821 1.50507 0.344517 0
M  V30 6847 H 655.779 2.38772 3.33914 0
M  V30 6848 H 654.44 1.32869 2.84613 0
M  V30 6849 H 653.633 3.61466 3.51224 0
M  V30 6850 H 653.235 3.27129 1.8128 0
M  V30 6851 H 655.527 5.22938 4.30745 0
M  V30 6852 H 656.47 6.30346 3.22598 0
M  V30 6853 H 656.878 4.56455 3.32128 0
M  V30 6854 N 656.276 -0.40816 1.52223 0
M  V30 6855 C 657.223 -1.49737 1.75635 0
M  V30 6856 C 658.193 -1.5493 0.598824 0
M  V30 6857 O 659.378 -1.71487 0.83648 0
M  V30 6858 C 656.518 -2.87174 1.91376 0
M  V30 6859 C 655.631 -2.91283 3.19027 0
M  V30 6860 C 654.766 -4.20026 3.25195 0
M  V30 6861 C 653.805 -4.18113 4.47044 0
M  V30 6862 N 652.942 -5.38429 4.50598 0
M  V30 6863 H 657.782 -1.29075 2.68596 0
M  V30 6864 H 655.319 -0.626518 1.33091 0
M  V30 6865 H 657.277 -3.66959 1.98486 0
M  V30 6866 H 655.907 -3.06329 1.01795 0
M  V30 6867 H 654.959 -2.03984 3.21084 0
M  V30 6868 H 656.271 -2.85734 4.08849 0
M  V30 6869 H 655.425 -5.08204 3.31382 0
M  V30 6870 H 654.164 -4.28271 2.33313 0
M  V30 6871 H 653.169 -3.28325 4.41002 0
M  V30 6872 H 654.394 -4.11507 5.40221 0
M  V30 6873 H 652.34 -5.4734 3.616 0
M  V30 6874 H 652.257 -5.34879 5.34266 0
M  V30 6875 H 653.525 -6.28557 4.61016 0
M  V30 6876 N 657.755 -1.42862 -0.66545 0
M  V30 6877 C 658.665 -1.49491 -1.80803 0
M  V30 6878 C 659.681 -0.382914 -1.69734 0
M  V30 6879 O 660.857 -0.635223 -1.9112 0
M  V30 6880 C 657.922 -1.40383 -3.17007 0
M  V30 6881 C 656.983 -2.62152 -3.39963 0
M  V30 6882 C 656.216 -2.53469 -4.69669 0
M  V30 6883 O 656.439 -1.57568 -5.48205 0
M  V30 6884 O 655.373 -3.43763 -4.94075 0
M  V30 6885 H 659.199 -2.45949 -1.78165 0
M  V30 6886 H 656.784 -1.24728 -0.822387 0
M  V30 6887 H 658.666 -1.377 -3.98267 0
M  V30 6888 H 657.341 -0.470546 -3.20262 0
M  V30 6889 H 656.248 -2.70409 -2.58515 0
M  V30 6890 H 657.581 -3.54411 -3.41546 0
M  V30 6891 N 659.233 0.902656 -1.29189 0
M  V30 6892 C 660.143 2.03946 -1.15944 0
M  V30 6893 C 661.159 1.738 -0.0833803 0
M  V30 6894 O 662.335 1.9923 -0.29487 0
M  V30 6895 C 659.4 3.36519 -0.834006 0
M  V30 6896 C 658.461 3.80203 -1.9936 0
M  V30 6897 C 657.694 5.06449 -1.68359 0
M  V30 6898 O 657.917 5.67202 -0.603141 0
M  V30 6899 O 656.851 5.46114 -2.53067 0
M  V30 6900 H 660.677 2.18043 -2.11403 0
M  V30 6901 H 658.262 1.02584 -1.08613 0
M  V30 6902 H 660.144 4.16089 -0.666949 0
M  V30 6903 H 658.819 3.23573 0.0908245 0
M  V30 6904 H 657.726 3.01413 -2.21588 0
M  V30 6905 H 659.059 3.97729 -2.89952 0
M  V30 6906 N 660.711 1.11618 1.11262 0
M  V30 6907 C 661.96 0.860934 1.82403 0
M  V30 6908 C 662.273 -0.615303 1.8567 0
M  V30 6909 O 663.479 -0.986861 2.52929 0
M  V30 6910 C 661.935 1.49048 3.27586 0
M  V30 6911 C 661.543 3.00089 3.32642 0
M  V30 6912 C 663.287 1.31515 4.03614 0
M  V30 6913 C 661.194 3.56019 4.72234 0
M  V30 6914 H 660.124 0.318423 0.683464 0
M  V30 6915 H 662.775 1.34165 1.25188 0
M  V30 6916 H 661.157 0.937434 3.84744 0
M  V30 6917 H 662.331 3.61813 2.85356 0
M  V30 6918 H 660.646 3.16919 2.70096 0
M  V30 6919 H 663.243 1.70732 5.0671 0
M  V30 6920 H 663.586 0.257917 4.155 0
M  V30 6921 H 664.119 1.83694 3.52848 0
M  V30 6922 H 660.858 4.61463 4.65545 0
M  V30 6923 H 660.378 2.99066 5.19923 0
M  V30 6924 H 662.057 3.54568 5.41193 0
M  V30 6925 N 662.189 -1.289 0.906776 0
M  V30 6926 C 663.436 -1.95269 0.536326 0
M  V30 6927 C 663.764 -1.71435 -0.918711 0
M  V30 6928 O 663.019 -1.02431 -1.66752 0
M  V30 6929 C 663.318 -3.48704 0.783617 0
M  V30 6930 C 662.984 -3.92626 2.21711 0
M  V30 6931 C 661.646 -4.04329 2.60906 0
M  V30 6932 C 663.998 -4.15218 3.15029 0
M  V30 6933 C 661.326 -4.35998 3.92584 0
M  V30 6934 C 663.678 -4.48365 4.46264 0
M  V30 6935 C 662.342 -4.58278 4.85322 0
M  V30 6936 H 661.612 -0.714538 0.196256 0
M  V30 6937 H 664.259 -1.53366 1.14678 0
M  V30 6938 H 662.564 -3.91696 0.0903048 0
M  V30 6939 H 664.261 -3.98162 0.476267 0
M  V30 6940 H 660.851 -3.84038 1.90296 0
M  V30 6941 H 665.035 -4.05636 2.8596 0
M  V30 6942 H 660.291 -4.41878 4.22557 0
M  V30 6943 H 664.465 -4.64795 5.18593 0
M  V30 6944 H 662.092 -4.82573 5.87391 0
M  V30 6945 N 663.667 -0.670007 -1.42649 0
M  V30 6946 C 664.915 -0.18991 -2.01206 0
M  V30 6947 C 665.236 1.20617 -1.53221 0
M  V30 6948 O 664.506 1.80898 -0.751856 0
M  V30 6949 H 663.086 -0.0672189 -0.743969 0
M  V30 6950 H 665.748 -0.865442 -1.74631 0
M  V30 6951 H 664.844 -0.187481 -3.11536 0
M  V30 6952 N 665.145 1.52092 -0.413018 0
M  V30 6953 C 666.556 1.86617 0.0556967 0
M  V30 6954 C 666.907 1.33156 1.44097 0
M  V30 6955 O 666.032 0.672417 2.05688 0
M  V30 6956 C 666.627 3.38628 0.107844 0
M  V30 6957 C 665.186 3.72778 0.520904 0
M  V30 6958 C 664.333 2.75649 -0.302109 0
M  V30 6959 H 667.284 1.45663 -0.629919 0
M  V30 6960 H 667.305 3.69152 0.922324 0
M  V30 6961 H 666.817 3.77508 -0.900506 0
M  V30 6962 H 664.918 3.39478 1.53575 0
M  V30 6963 H 665.031 4.7838 0.262591 0
M  V30 6964 H 663.395 2.53603 0.236115 0
M  V30 6965 H 664.178 3.17369 -1.30888 0
M  V30 6966 N 666.623 0.143563 1.56945 0
M  V30 6967 C 667.869 -0.50916 1.96304 0
M  V30 6968 C 668.202 -1.64741 1.0283 0
M  V30 6969 O 667.477 -1.94374 0.0700361 0
M  V30 6970 C 667.76 -1.0186 3.45393 0
M  V30 6971 C 667.613 0.117923 4.49645 0
M  V30 6972 C 668.932 -1.90151 3.96901 0
M  V30 6973 H 666.051 -0.183608 0.713763 0
M  V30 6974 H 668.693 0.224095 1.88674 0
M  V30 6975 H 666.843 -1.64345 3.52027 0
M  V30 6976 H 668.515 0.754145 4.55094 0
M  V30 6977 H 666.758 0.777568 4.26774 0
M  V30 6978 H 667.429 -0.280187 5.51288 0
M  V30 6979 H 669.905 -1.375 3.92725 0
M  V30 6980 H 668.781 -2.22707 5.0169 0
M  V30 6981 H 669.042 -2.83718 3.39052 0
M  V30 6982 N 668.101 -1.57061 -0.130224 0
M  V30 6983 C 669.031 -2.02552 -1.16168 0
M  V30 6984 C 670.012 -0.907971 -1.4384 0
M  V30 6985 O 671.197 -1.17693 -1.54473 0
M  V30 6986 C 668.327 -2.42035 -2.49071 0
M  V30 6987 C 667.281 -3.5713 -2.35886 0
M  V30 6988 C 666.607 -3.82478 -3.7365 0
M  V30 6989 C 667.907 -4.89236 -1.8288 0
M  V30 6990 H 669.601 -2.8897 -0.783359 0
M  V30 6991 H 667.147 -1.39021 -0.375376 0
M  V30 6992 H 669.1 -2.72462 -3.21469 0
M  V30 6993 H 667.824 -1.52573 -2.88771 0
M  V30 6994 H 666.483 -3.26895 -1.65938 0
M  V30 6995 H 666.131 -2.9024 -4.10816 0
M  V30 6996 H 665.831 -4.59944 -3.65685 0
M  V30 6997 H 667.355 -4.15347 -4.47571 0
M  V30 6998 H 668.769 -5.18272 -2.45085 0
M  V30 6999 H 667.166 -5.70624 -1.85763 0
M  V30 7000 H 668.236 -4.78494 -0.785571 0
M  V30 7001 N 669.579 0.400081 -1.52437 0
M  V30 7002 C 670.804 1.17221 -1.71096 0
M  V30 7003 C 671.229 1.83269 -0.423565 0
M  V30 7004 O 670.587 1.70378 0.619751 0
M  V30 7005 C 670.635 2.20425 -2.85386 0
M  V30 7006 O 669.739 3.26769 -2.51586 0
M  V30 7007 H 669.08 0.341766 -0.569291 0
M  V30 7008 H 671.61 0.467772 -1.99181 0
M  V30 7009 H 671.62 2.64605 -3.10561 0
M  V30 7010 H 670.295 1.71737 -3.78786 0
M  V30 7011 H 668.872 2.87804 -2.37114 0
M  V30 7012 N 671.057 1.43213 0.657864 0
M  V30 7013 C 672.303 1.44798 1.41991 0
M  V30 7014 C 672.636 0.070256 1.94073 0
M  V30 7015 O 671.911 -0.908177 1.71995 0
M  V30 7016 C 672.194 2.4865 2.60471 0
M  V30 7017 C 672.047 3.95679 2.13911 0
M  V30 7018 C 673.366 2.49292 3.62686 0
M  V30 7019 H 670.485 0.527244 0.514959 0
M  V30 7020 H 673.127 1.74733 0.74621 0
M  V30 7021 H 671.277 2.23254 3.17946 0
M  V30 7022 H 672.949 4.32116 1.61472 0
M  V30 7023 H 671.192 4.08733 1.45325 0
M  V30 7024 H 671.863 4.6395 2.99089 0
M  V30 7025 H 674.339 2.71917 3.14961 0
M  V30 7026 H 673.215 3.23907 4.43143 0
M  V30 7027 H 673.476 1.52502 4.14964 0
M  V30 7028 N 672.536 -0.895792 1.29666 0
M  V30 7029 C 673.766 -1.67757 1.20586 0
M  V30 7030 C 674.174 -1.87729 -0.235432 0
M  V30 7031 O 673.517 -1.41706 -1.16898 0
M  V30 7032 C 673.579 -3.08117 1.85215 0
M  V30 7033 C 673.243 -3.1136 3.3452 0
M  V30 7034 C 674.24 -2.91217 4.30684 0
M  V30 7035 C 671.925 -3.33302 3.75786 0
M  V30 7036 C 673.919 -2.92955 5.66089 0
M  V30 7037 C 671.606 -3.3467 5.11311 0
M  V30 7038 C 672.604 -3.14519 6.06273 0
M  V30 7039 O 672.292 -3.15684 7.39323 0
M  V30 7040 H 672.024 -0.530601 0.418854 0
M  V30 7041 H 674.578 -1.12831 1.71634 0
M  V30 7042 H 672.808 -3.64661 1.28683 0
M  V30 7043 H 674.497 -3.68399 1.70403 0
M  V30 7044 H 675.263 -2.74074 4.00136 0
M  V30 7045 H 671.142 -3.48025 3.02324 0
M  V30 7046 H 674.686 -2.77145 6.40185 0
M  V30 7047 H 670.583 -3.51346 5.41504 0
M  V30 7048 H 671.351 -3.31924 7.48177 0
M  V30 7049 N 674.014 -1.12206 -1.10668 0
M  V30 7050 C 675.26 -0.877172 -1.82848 0
M  V30 7051 C 675.593 0.595571 -1.84842 0
M  V30 7052 O 674.868 1.44013 -1.30731 0
M  V30 7053 C 675.151 -1.44957 -3.29635 0
M  V30 7054 C 675.004 -2.99051 -3.35989 0
M  V30 7055 C 676.323 -1.10714 -4.25946 0
M  V30 7056 H 673.442 -0.320103 -0.663854 0
M  V30 7057 H 676.084 -1.38827 -1.2972 0
M  V30 7058 H 674.234 -1.01488 -3.7501 0
M  V30 7059 H 675.906 -3.51182 -2.99113 0
M  V30 7060 H 674.149 -3.34705 -2.75962 0
M  V30 7061 H 674.82 -3.34194 -4.39339 0
M  V30 7062 H 677.296 -1.48254 -3.88793 0
M  V30 7063 H 676.172 -1.5343 -5.2702 0
M  V30 7064 H 676.433 -0.019 -4.42096 0
M  V30 7065 N 675.492 1.28418 -0.913599 0
M  V30 7066 C 676.722 1.98817 -0.56172 0
M  V30 7067 C 677.13 1.68457 0.861321 0
M  V30 7068 O 676.473 0.933653 1.58204 0
M  V30 7069 C 676.535 3.52801 -0.690785 0
M  V30 7070 C 676.199 4.0675 -2.08334 0
M  V30 7071 C 677.196 4.20597 -3.05604 0
M  V30 7072 C 674.881 4.41445 -2.39648 0
M  V30 7073 C 676.875 4.68392 -4.32305 0
M  V30 7074 C 674.562 4.88934 -3.66588 0
M  V30 7075 C 675.56 5.02364 -4.6273 0
M  V30 7076 O 675.248 5.48817 -5.87414 0
M  V30 7077 H 674.98 0.641608 -0.212874 0
M  V30 7078 H 677.534 1.64584 -1.22887 0
M  V30 7079 H 675.764 3.86686 0.0334336 0
M  V30 7080 H 677.453 4.04422 -0.346031 0
M  V30 7081 H 678.219 3.94067 -2.8273 0
M  V30 7082 H 674.098 4.30242 -1.65567 0
M  V30 7083 H 677.642 4.7879 -5.07352 0
M  V30 7084 H 673.539 5.14904 -3.89287 0
M  V30 7085 H 674.307 5.67103 -5.90201 0
M  V30 7086 N 676.97 0.677563 1.42291 0
M  V30 7087 C 678.381 0.277912 1.8462 0
M  V30 7088 C 678.732 -1.18048 1.56714 0
M  V30 7089 O 677.857 -1.90404 1.02836 0
M  V30 7090 C 678.452 0.497619 3.35126 0
M  V30 7091 C 677.011 0.152063 3.76093 0
M  V30 7092 C 676.158 0.78872 2.65847 0
M  V30 7093 H 679.109 0.879527 1.32098 0
M  V30 7094 H 679.13 -0.24939 3.79682 0
M  V30 7095 H 678.642 1.55913 3.55405 0
M  V30 7096 H 676.743 -0.905896 3.6142 0
M  V30 7097 H 676.856 0.594514 4.75397 0
M  V30 7098 H 675.22 0.219813 2.5375 0
M  V30 7099 H 676.003 1.85374 2.88949 0
M  V30 7100 N 678.448 -1.51871 0.421078 0
M  V30 7101 C 679.725 -1.9447 -0.20993 0
M  V30 7102 C 680.105 -1.35875 -1.61558 0
M  V30 7103 O 679.453 -0.539294 -2.22045 0
M  V30 7104 C 679.663 -3.48402 -0.204165 0
M  V30 7105 C 681.011 -4.2254 -0.417696 0
M  V30 7106 O 682.035 -3.55074 -0.282999 0
M  V30 7107 O 680.894 -5.422 -0.684239 0
M  V30 7108 H 677.988 -0.815283 -0.138718 0
M  V30 7109 H 680.534 -1.62832 0.477884 0
M  V30 7110 H 679.306 -3.83464 0.779183 0
M  V30 7111 H 678.929 -3.86436 -0.935576 0
M  V30 7112 N 679.926 -0.151884 -1.56866 0
M  V30 7113 C 681.203 0.543328 -1.87902 0
M  V30 7114 C 681.583 1.82636 -1.05864 0
M  V30 7115 O 680.931 2.28028 -0.146868 0
M  V30 7116 C 681.141 0.804056 -3.39611 0
M  V30 7117 C 682.489 1.14267 -4.08935 0
M  V30 7118 O 683.513 0.893248 -3.44818 0
M  V30 7119 O 682.372 1.61229 -5.22176 0
M  V30 7120 H 679.466 0.277724 -0.778973 0
M  V30 7121 H 682.012 -0.188862 -1.68646 0
M  V30 7122 H 680.784 -0.103772 -3.91162 0
M  V30 7123 H 680.407 1.59025 -3.64413 0
M  V30 7124 N 681.404 1.57128 0.121893 0
M  V30 7125 C 682.351 2.0013 1.14964 0
M  V30 7126 C 683.321 0.872959 1.4131 0
M  V30 7127 O 684.506 1.13696 1.53225 0
M  V30 7128 C 681.646 2.40824 2.4718 0
M  V30 7129 C 680.759 3.67061 2.27794 0
M  V30 7130 C 679.894 3.96749 3.53219 0
M  V30 7131 C 678.933 5.16178 3.28978 0
M  V30 7132 N 678.07 5.41751 4.46599 0
M  V30 7133 H 682.91 2.8772 0.775947 0
M  V30 7134 H 680.447 1.42328 0.371652 0
M  V30 7135 H 682.405 2.62454 3.24305 0
M  V30 7136 H 681.035 1.56279 2.82448 0
M  V30 7137 H 680.087 3.53063 1.416 0
M  V30 7138 H 681.399 4.5434 2.05857 0
M  V30 7139 H 680.553 4.19012 4.38764 0
M  V30 7140 H 679.292 3.07941 3.78185 0
M  V30 7141 H 678.297 4.93762 2.41824 0
M  V30 7142 H 679.522 6.06561 3.05386 0
M  V30 7143 H 677.468 4.55899 4.71691 0
M  V30 7144 H 677.385 6.23347 4.27756 0
M  V30 7145 H 678.653 5.68531 5.33285 0
M  V30 7146 N 682.882 -0.391992 1.52647 0
M  V30 7147 C 684.112 -1.15692 1.71169 0
M  V30 7148 C 684.52 -1.84285 0.428444 0
M  V30 7149 O 683.863 -1.73393 -0.606669 0
M  V30 7150 C 683.925 -2.25033 2.80357 0
M  V30 7151 C 683.589 -1.76433 4.21569 0
M  V30 7152 C 684.586 -1.2427 5.0483 0
M  V30 7153 C 682.271 -1.82746 4.67877 0
M  V30 7154 C 684.265 -0.790657 6.32477 0
M  V30 7155 C 681.952 -1.37153 5.9551 0
M  V30 7156 C 682.95 -0.853997 6.7764 0
M  V30 7157 O 682.638 -0.404708 8.02881 0
M  V30 7158 H 682.37 -0.35297 0.576531 0
M  V30 7159 H 684.924 -0.464994 2.00067 0
M  V30 7160 H 683.154 -2.97641 2.46874 0
M  V30 7161 H 684.843 -2.86718 2.87311 0
M  V30 7162 H 685.609 -1.18752 4.70237 0
M  V30 7163 H 681.488 -2.21971 4.04042 0
M  V30 7164 H 685.032 -0.386024 6.96531 0
M  V30 7165 H 680.929 -1.42356 6.29607 0
M  V30 7166 H 681.697 -0.526459 8.16805 0
M  V30 7167 N 684.36 -1.4356 -0.65026 0
M  V30 7168 C 685.307 -1.48948 -1.76304 0
M  V30 7169 C 686.277 -0.338919 -1.62605 0
M  V30 7170 O 687.462 -0.54649 -1.82806 0
M  V30 7171 C 684.602 -1.42131 -3.14472 0
M  V30 7172 C 683.715 -2.67415 -3.39284 0
M  V30 7173 C 682.85 -2.52565 -4.67316 0
M  V30 7174 C 681.889 -3.73103 -4.85243 0
M  V30 7175 N 681.026 -3.57046 -6.04535 0
M  V30 7176 H 685.866 -2.44032 -1.71034 0
M  V30 7177 H 683.403 -1.21131 -0.834601 0
M  V30 7178 H 685.361 -1.36172 -3.94351 0
M  V30 7179 H 683.991 -0.506273 -3.18805 0
M  V30 7180 H 683.043 -2.8364 -2.53481 0
M  V30 7181 H 684.355 -3.56943 -3.48415 0
M  V30 7182 H 683.509 -2.44331 -5.55326 0
M  V30 7183 H 682.248 -1.60566 -4.60511 0
M  V30 7184 H 681.253 -3.81743 -3.95667 0
M  V30 7185 H 682.478 -4.66115 -4.93876 0
M  V30 7186 H 680.424 -2.67783 -5.98856 0
M  V30 7187 H 680.341 -4.40178 -6.14638 0
M  V30 7188 H 681.609 -3.52669 -6.95158 0
M  V30 7189 N 685.838 0.888903 -1.30139 0
M  V30 7190 C 686.748 2.02705 -1.18101 0
M  V30 7191 C 687.764 1.73702 -0.101809 0
M  V30 7192 O 688.94 1.98906 -0.315984 0
M  V30 7193 C 686.005 3.35616 -0.869651 0
M  V30 7194 C 685.066 3.78067 -2.03381 0
M  V30 7195 C 684.299 5.04635 -1.73721 0
M  V30 7196 O 684.522 5.66531 -0.663267 0
M  V30 7197 O 683.456 5.43399 -2.58845 0
M  V30 7198 H 687.282 2.15788 -2.13704 0
M  V30 7199 H 684.867 1.01426 -1.09695 0
M  V30 7200 H 686.749 4.15358 -0.711043 0
M  V30 7201 H 685.424 3.23651 0.0565002 0
M  V30 7202 H 684.331 2.99046 -2.24772 0
M  V30 7203 H 685.664 3.94631 -2.94155 0
M  V30 7204 N 687.317 1.12792 1.10072 0
M  V30 7205 C 688.545 0.908506 1.85886 0
M  V30 7206 C 688.96 -0.542408 1.80841 0
M  V30 7207 O 688.317 -1.37517 1.1998 0
M  V30 7208 C 688.368 1.37973 3.34134 0
M  V30 7209 O 688.089 2.77378 3.39106 0
M  V30 7210 C 689.59 1.1978 4.26811 0
M  V30 7211 H 686.81 0.3244 0.587372 0
M  V30 7212 H 689.354 1.49882 1.39125 0
M  V30 7213 H 687.509 0.832566 3.78348 0
M  V30 7214 H 687.923 2.98144 4.31521 0
M  V30 7215 H 689.397 1.57635 5.29014 0
M  V30 7216 H 689.874 0.138768 4.38981 0
M  V30 7217 H 690.48 1.73266 3.88406 0
M  V30 7218 N 688.795 -1.27931 0.920396 0
M  V30 7219 C 689.725 -2.29487 0.431024 0
M  V30 7220 C 690.706 -1.62435 -0.504861 0
M  V30 7221 O 691.891 -1.89797 -0.411176 0
M  V30 7222 C 689.021 -3.45788 -0.323709 0
M  V30 7223 C 687.975 -4.24784 0.523658 0
M  V30 7224 C 687.301 -5.33488 -0.359809 0
M  V30 7225 C 688.601 -4.90874 1.78437 0
M  V30 7226 H 690.295 -2.70671 1.27975 0
M  V30 7227 H 687.841 -1.30121 0.616813 0
M  V30 7228 H 689.794 -4.15927 -0.676952 0
M  V30 7229 H 688.518 -3.03502 -1.2064 0
M  V30 7230 H 687.177 -3.56382 0.85951 0
M  V30 7231 H 686.825 -4.87445 -1.24124 0
M  V30 7232 H 686.525 -5.87247 0.203605 0
M  V30 7233 H 688.049 -6.06472 -0.708787 0
M  V30 7234 H 689.463 -5.53339 1.49963 0
M  V30 7235 H 687.86 -5.54659 2.29071 0
M  V30 7236 H 688.93 -4.14988 2.50824 0
M  V30 7237 N 690.273 -0.685099 -1.4193 0
M  V30 7238 C 691.205 0.0258679 -2.29185 0
M  V30 7239 C 692.218 0.755076 -1.44231 0
M  V30 7240 O 693.407 0.60752 -1.67844 0
M  V30 7241 C 690.507 1.06055 -3.21878 0
M  V30 7242 C 689.68 0.403088 -4.35539 0
M  V30 7243 C 688.739 1.33895 -5.0888 0
M  V30 7244 O 687.765 0.835326 -5.63037 0
M  V30 7245 N 688.967 2.6718 -5.15359 0
M  V30 7246 H 691.732 -0.723201 -2.90843 0
M  V30 7247 H 689.293 -0.53031 -1.52968 0
M  V30 7248 H 691.285 1.68813 -3.6781 0
M  V30 7249 H 689.855 1.71126 -2.616 0
M  V30 7250 H 689.075 -0.404185 -3.92122 0
M  V30 7251 H 690.363 -0.0545098 -5.08771 0
M  V30 7252 H 689.761 3.10626 -4.72788 0
M  V30 7253 H 688.318 3.25159 -5.64903 0
M  V30 7254 N 691.751 1.51645 -0.429126 0
M  V30 7255 C 692.681 2.30434 0.377148 0
M  V30 7256 C 693.662 1.35493 1.02838 0
M  V30 7257 O 694.847 1.6441 1.03359 0
M  V30 7258 C 691.977 3.14038 1.48315 0
M  V30 7259 C 690.931 4.1719 0.955855 0
M  V30 7260 C 690.257 4.89263 2.15698 0
M  V30 7261 C 691.557 5.223 -0.00402136 0
M  V30 7262 H 693.251 2.98085 -0.280336 0
M  V30 7263 H 690.797 1.43354 -0.136265 0
M  V30 7264 H 692.75 3.67933 2.05435 0
M  V30 7265 H 691.474 2.44193 2.16881 0
M  V30 7266 H 690.133 3.64335 0.406929 0
M  V30 7267 H 689.781 4.15929 2.82864 0
M  V30 7268 H 689.481 5.59009 1.81059 0
M  V30 7269 H 691.005 5.45978 2.73387 0
M  V30 7270 H 692.419 5.71315 0.476607 0
M  V30 7271 H 690.816 5.99525 -0.26258 0
M  V30 7272 H 691.886 4.75638 -0.943236 0
M  V30 7273 N 693.229 0.160201 1.56784 0
M  V30 7274 C 694.475 -0.48831 1.96833 0
M  V30 7275 C 694.808 -1.63641 1.04571 0
M  V30 7276 O 694.083 -1.94289 0.0906481 0
M  V30 7277 C 694.366 -0.981908 3.46454 0
M  V30 7278 C 694.219 0.165607 4.49495 0
M  V30 7279 C 695.538 -1.85931 3.98896 0
M  V30 7280 H 692.657 -0.176027 0.71567 0
M  V30 7281 H 695.299 0.244093 1.88426 0
M  V30 7282 H 693.449 -1.60602 3.5375 0
M  V30 7283 H 695.121 0.802372 4.54268 0
M  V30 7284 H 693.364 0.822789 4.25926 0
M  V30 7285 H 694.035 -0.221699 5.51555 0
M  V30 7286 H 696.511 -1.33327 3.94161 0
M  V30 7287 H 695.387 -2.17373 5.04024 0
M  V30 7288 H 695.648 -2.80106 3.42042 0
M  V30 7289 N 694.707 -1.5719 -0.113559 0
M  V30 7290 C 695.984 -1.76117 -0.850999 0
M  V30 7291 C 696.364 -0.737085 -1.97814 0
M  V30 7292 O 695.712 0.237942 -2.27258 0
M  V30 7293 C 695.922 -3.21298 -1.36266 0
M  V30 7294 C 697.27 -3.83955 -1.81283 0
M  V30 7295 O 698.294 -3.24934 -1.45933 0
M  V30 7296 O 697.153 -4.87707 -2.46585 0
M  V30 7297 H 694.247 -0.721308 -0.404529 0
M  V30 7298 H 696.793 -1.69423 -0.0968756 0
M  V30 7299 H 695.565 -3.87355 -0.554235 0
M  V30 7300 H 695.188 -3.32552 -2.17933 0
M  V30 7301 N 696.185 0.383891 -1.52853 0
M  V30 7302 C 697.41 1.154 -1.7233 0
M  V30 7303 C 697.835 1.82809 -0.44298 0
M  V30 7304 O 697.193 1.71026 0.601645 0
M  V30 7305 C 697.241 2.17386 -2.87708 0
M  V30 7306 O 696.345 3.24082 -2.55038 0
M  V30 7307 H 695.686 0.335709 -0.572883 0
M  V30 7308 H 698.216 0.44662 -1.99666 0
M  V30 7309 H 698.226 2.61296 -3.1335 0
M  V30 7310 H 696.901 1.6771 -3.80587 0
M  V30 7311 H 695.478 2.85273 -2.40153 0
M  V30 7312 N 697.663 1.43903 0.642637 0
M  V30 7313 C 698.891 1.4954 1.42988 0
M  V30 7314 C 699.306 0.116588 1.8844 0
M  V30 7315 O 698.663 -0.875285 1.60141 0
M  V30 7316 C 698.714 2.45031 2.65785 0
M  V30 7317 O 698.435 3.77551 2.22232 0
M  V30 7318 C 699.936 2.60017 3.59035 0
M  V30 7319 H 697.156 0.507544 0.438907 0
M  V30 7320 H 699.7 1.88752 0.786942 0
M  V30 7321 H 697.855 2.08985 3.26196 0
M  V30 7322 H 698.269 4.29001 3.01759 0
M  V30 7323 H 699.743 3.30887 4.41835 0
M  V30 7324 H 700.22 1.64861 4.07084 0
M  V30 7325 H 700.826 2.96918 3.045 0
M  V30 7326 N 699.141 -0.881989 1.30609 0
M  V30 7327 C 700.369 -1.66711 1.22536 0
M  V30 7328 C 700.784 -1.87614 -0.2113 0
M  V30 7329 O 700.141 -1.42576 -1.13923 0
M  V30 7330 C 700.192 -3.04182 1.95335 0
M  V30 7331 O 699.913 -2.8422 3.33393 0
M  V30 7332 C 701.414 -3.98617 1.93956 0
M  V30 7333 H 698.634 -0.520124 0.423925 0
M  V30 7334 H 701.178 -1.10174 1.72285 0
M  V30 7335 H 699.333 -3.57442 1.49378 0
M  V30 7336 H 699.747 -3.71452 3.70302 0
M  V30 7337 H 701.221 -4.92433 2.49426 0
M  V30 7338 H 701.698 -4.29473 0.919198 0
M  V30 7339 H 702.304 -3.51292 2.39738 0
M  V30 7340 N 700.619 -1.13374 -1.09472 0
M  V30 7341 C 701.844 -0.918711 -1.85942 0
M  V30 7342 C 702.269 0.527225 -1.8056 0
M  V30 7343 O 701.627 1.37408 -1.18274 0
M  V30 7344 C 701.675 -1.41056 -3.31867 0
M  V30 7345 O 700.779 -0.595496 -4.08078 0
M  V30 7346 H 700.12 -0.329297 -0.576593 0
M  V30 7347 H 702.65 -1.50829 -1.38245 0
M  V30 7348 H 702.66 -1.41398 -3.82715 0
M  V30 7349 H 701.335 -2.46335 -3.35099 0
M  V30 7350 H 699.912 -0.659911 -3.67014 0
M  V30 7351 N 702.098 1.27442 -0.927168 0
M  V30 7352 C 703.328 1.9821 -0.582775 0
M  V30 7353 C 703.736 1.69361 0.843406 0
M  V30 7354 O 703.079 0.950381 1.57205 0
M  V30 7355 C 703.141 3.52048 -0.728165 0
M  V30 7356 C 702.805 4.04518 -2.12637 0
M  V30 7357 C 703.802 4.17332 -3.10048 0
M  V30 7358 C 701.487 4.38879 -2.44317 0
M  V30 7359 C 703.481 4.6378 -4.37249 0
M  V30 7360 C 701.168 4.85018 -3.71753 0
M  V30 7361 C 702.166 4.97428 -4.68033 0
M  V30 7362 O 701.854 5.42556 -5.93202 0
M  V30 7363 H 701.586 0.639314 -0.219667 0
M  V30 7364 H 704.14 1.63272 -1.24626 0
M  V30 7365 H 702.37 3.86699 -0.00758143 0
M  V30 7366 H 704.059 4.04033 -0.388906 0
M  V30 7367 H 704.825 3.91046 -2.86894 0
M  V30 7368 H 700.704 4.28462 -1.70121 0
M  V30 7369 H 704.248 4.73382 -5.12402 0
M  V30 7370 H 700.145 5.10746 -3.94726 0
M  V30 7371 H 700.913 5.60811 -5.96182 0
M  V30 7372 N 703.576 0.692616 1.41565 0
M  V30 7373 C 704.824 0.221896 2.00878 0
M  V30 7374 C 705.145 -1.18164 1.5512 0
M  V30 7375 O 704.415 -1.79679 0.78054 0
M  V30 7376 H 702.995 0.0790463 0.742806 0
M  V30 7377 H 705.657 0.893115 1.73232 0
M  V30 7378 H 704.753 0.23702 3.11199 0
M  V30 7379 N 705.054 -1.51416 0.437162 0
M  V30 7380 C 705.984 -2.30631 -0.364922 0
M  V30 7381 C 706.965 -1.36037 -1.02118 0
M  V30 7382 O 708.15 -1.64956 -1.02485 0
M  V30 7383 C 705.28 -3.1482 -1.46648 0
M  V30 7384 C 704.234 -4.17691 -0.933717 0
M  V30 7385 C 703.56 -4.904 -2.13101 0
M  V30 7386 C 704.86 -5.2229 0.0317201 0
M  V30 7387 H 706.554 -2.97932 0.29614 0
M  V30 7388 H 704.1 -1.4328 0.143865 0
M  V30 7389 H 706.053 -3.69017 -2.03481 0
M  V30 7390 H 704.777 -2.4534 -2.15583 0
M  V30 7391 H 703.436 -3.64545 -0.387602 0
M  V30 7392 H 703.084 -4.17423 -2.80654 0
M  V30 7393 H 702.784 -5.59962 -1.78092 0
M  V30 7394 H 704.308 -5.4742 -2.70487 0
M  V30 7395 H 705.722 -5.7156 -0.446302 0
M  V30 7396 H 704.119 -5.99378 0.29437 0
M  V30 7397 H 705.189 -4.75131 0.968447 0
M  V30 7398 N 706.532 -0.168513 -1.56696 0
M  V30 7399 C 707.76 0.483503 -2.01171 0
M  V30 7400 C 708.175 1.56994 -1.04872 0
M  V30 7401 O 707.532 1.82434 -0.0491337 0
M  V30 7402 C 707.583 1.0644 -3.45475 0
M  V30 7403 O 707.304 0.0213375 -4.38095 0
M  V30 7404 C 708.805 1.79493 -4.05336 0
M  V30 7405 H 706.025 0.124002 -0.659443 0
M  V30 7406 H 708.569 -0.269419 -2.02717 0
M  V30 7407 H 706.724 1.76784 -3.44712 0
M  V30 7408 H 707.138 0.449837 -5.22567 0
M  V30 7409 H 708.612 2.15401 -5.08238 0
M  V30 7410 H 709.089 2.68889 -3.47269 0
M  V30 7411 H 709.695 1.13798 -4.09793 0
M  V30 7412 N 708.01 1.57248 0.105221 0
M  V30 7413 C 709.258 1.85204 0.808951 0
M  V30 7414 C 709.579 0.75574 1.7976 0
M  V30 7415 O 708.849 -0.218984 1.94672 0
M  V30 7416 H 707.429 0.683346 0.301739 0
M  V30 7417 H 710.091 1.94695 0.0892605 0
M  V30 7418 H 709.187 2.81595 1.34575 0
M  V30 7419 N 709.488 -0.375779 1.53054 0
M  V30 7420 C 710.451 -1.44254 1.7811 0
M  V30 7421 C 711.451 -1.47018 0.651328 0
M  V30 7422 O 712.641 -1.47957 0.919472 0
M  V30 7423 C 709.773 -2.8345 1.89391 0
M  V30 7424 H 710.966 -1.23316 2.73374 0
M  V30 7425 H 708.519 -0.608312 1.43977 0
M  V30 7426 H 709.254 -3.09716 0.961589 0
M  V30 7427 H 709.039 -2.82844 2.71555 0
M  V30 7428 H 710.529 -3.60722 2.10404 0
M  V30 7429 N 710.966 -1.44241 -0.634997 0
M  V30 7430 C 712.212 -1.47038 -1.39669 0
M  V30 7431 C 712.545 -0.101122 -1.93937 0
M  V30 7432 O 711.82 0.880699 -1.73418 0
M  V30 7433 C 712.103 -2.52763 -2.56482 0
M  V30 7434 C 711.956 -3.99032 -2.07589 0
M  V30 7435 C 713.275 -2.55031 -3.58674 0
M  V30 7436 H 710.394 -0.53537 -0.506506 0
M  V30 7437 H 713.036 -1.75898 -0.718317 0
M  V30 7438 H 711.186 -2.28284 -3.14354 0
M  V30 7439 H 712.858 -4.3463 -1.54577 0
M  V30 7440 H 711.101 -4.10994 -1.38804 0
M  V30 7441 H 711.772 -4.68649 -2.91671 0
M  V30 7442 H 714.248 -2.76893 -3.10595 0
M  V30 7443 H 713.124 -3.30916 -4.37934 0
M  V30 7444 H 713.385 -1.59085 -4.12486 0
M  V30 7445 N 712.444 0.87505 -1.31075 0
M  V30 7446 C 713.691 1.62768 -1.20469 0
M  V30 7447 C 714.019 1.93034 0.23834 0
M  V30 7448 O 713.274 1.55693 1.18567 0
M  V30 7449 C 713.573 2.96948 -1.98888 0
M  V30 7450 C 713.239 2.86195 -3.4843 0
M  V30 7451 C 711.901 2.82969 -3.89207 0
M  V30 7452 C 714.253 2.73599 -4.43614 0
M  V30 7453 C 711.581 2.64999 -5.23443 0
M  V30 7454 C 713.933 2.57166 -5.77969 0
M  V30 7455 C 712.597 2.52321 -6.17973 0
M  V30 7456 H 711.867 0.595611 -0.440827 0
M  V30 7457 H 714.514 1.01665 -1.62285 0
M  V30 7458 H 712.819 3.62058 -1.49737 0
M  V30 7459 H 714.516 3.54164 -1.88067 0
M  V30 7460 H 711.106 2.8952 -3.16032 0
M  V30 7461 H 715.29 2.7515 -4.13045 0
M  V30 7462 H 710.546 2.5967 -5.53517 0
M  V30 7463 H 714.72 2.46396 -6.51354 0
M  V30 7464 H 712.347 2.38156 -7.21932 0
M  V30 7465 N 713.922 1.13953 1.08869 0
M  V30 7466 C 715.147 0.928559 1.85452 0
M  V30 7467 C 715.572 -0.517642 1.80837 0
M  V30 7468 O 714.93 -1.36779 1.19001 0
M  V30 7469 C 714.978 1.42814 3.31114 0
M  V30 7470 O 714.082 0.617129 4.07756 0
M  V30 7471 H 713.423 0.33235 0.574839 0
M  V30 7472 H 715.953 1.5156 1.37443 0
M  V30 7473 H 715.963 1.43425 3.8196 0
M  V30 7474 H 714.638 2.48109 3.33788 0
M  V30 7475 H 713.215 0.679365 3.66659 0
M  V30 7476 N 715.4 -1.26948 0.933913 0
M  V30 7477 C 716.332 -2.25768 0.395137 0
M  V30 7478 C 717.345 -1.55637 -0.477585 0
M  V30 7479 O 718.534 -1.76142 -0.289204 0
M  V30 7480 C 715.634 -3.35874 -0.451882 0
M  V30 7481 C 714.807 -4.3554 0.40299 0
M  V30 7482 C 713.866 -5.24809 -0.3824 0
M  V30 7483 O 712.892 -5.68805 0.212057 0
M  V30 7484 N 714.094 -5.55636 -1.68072 0
M  V30 7485 H 716.859 -2.72634 1.24463 0
M  V30 7486 H 714.42 -1.40639 0.802008 0
M  V30 7487 H 716.412 -3.92542 -0.984516 0
M  V30 7488 H 714.982 -2.8856 -1.20215 0
M  V30 7489 H 714.202 -3.78047 1.11688 0
M  V30 7490 H 715.49 -4.99131 0.987201 0
M  V30 7491 H 714.888 -5.2176 -2.18592 0
M  V30 7492 H 713.445 -6.14978 -2.15975 0
M  V30 7493 N 716.879 -0.700114 -1.41195 0
M  V30 7494 C 718.156 -0.160836 -1.94938 0
M  V30 7495 C 718.536 1.33014 -1.63922 0
M  V30 7496 O 717.884 2.07878 -0.948636 0
M  V30 7497 C 718.094 -0.456991 -3.45995 0
M  V30 7498 C 719.442 -0.387207 -4.22831 0
M  V30 7499 O 720.466 -0.392164 -3.54035 0
M  V30 7500 O 719.325 -0.351267 -5.4537 0
M  V30 7501 H 716.419 -0.0176304 -0.826812 0
M  V30 7502 H 718.965 -0.776586 -1.50888 0
M  V30 7503 H 717.737 -1.48884 -3.61869 0
M  V30 7504 H 717.36 0.189503 -3.97148 0
M  V30 7505 N 718.357 1.51182 -0.445186 0
M  V30 7506 C 719.304 2.27939 0.362291 0
M  V30 7507 C 720.274 1.31864 1.01 0
M  V30 7508 O 721.459 1.60776 1.02741 0
M  V30 7509 C 718.599 3.13016 1.45311 0
M  V30 7510 C 717.712 4.24093 0.822757 0
M  V30 7511 C 716.847 4.96467 1.88928 0
M  V30 7512 C 715.886 5.99454 1.23778 0
M  V30 7513 N 715.023 6.65206 2.24602 0
M  V30 7514 H 719.863 2.965 -0.29862 0
M  V30 7515 H 717.4 1.46237 -0.15911 0
M  V30 7516 H 719.358 3.60673 2.09692 0
M  V30 7517 H 717.988 2.46553 2.08354 0
M  V30 7518 H 717.04 3.80341 0.0670364 0
M  V30 7519 H 718.352 4.97853 0.307184 0
M  V30 7520 H 717.506 5.47712 2.60953 0
M  V30 7521 H 716.245 4.22355 2.4386 0
M  V30 7522 H 715.25 5.47494 0.503042 0
M  V30 7523 H 716.475 6.75527 0.695694 0
M  V30 7524 H 714.421 5.93901 2.78599 0
M  V30 7525 H 714.338 7.34756 1.77958 0
M  V30 7526 H 715.606 7.21078 2.96085 0
M  V30 7527 N 719.835 0.176821 1.56605 0
M  V30 7528 C 721.112 -0.513365 1.88743 0
M  V30 7529 C 721.492 -1.80929 1.08757 0
M  V30 7530 O 720.84 -2.27765 0.183127 0
M  V30 7531 C 721.05 -0.749925 3.40848 0
M  V30 7532 C 722.398 -1.07747 4.10701 0
M  V30 7533 O 723.422 -0.838277 3.46196 0
M  V30 7534 O 722.281 -1.52901 5.24675 0
M  V30 7535 H 719.375 -0.265296 0.783292 0
M  V30 7536 H 721.921 0.215669 1.68324 0
M  V30 7537 H 720.693 0.16599 3.90948 0
M  V30 7538 H 720.316 -1.53208 3.66897 0
M  V30 7539 N 721.313 -1.57302 -0.09688 0
M  V30 7540 C 722.559 -1.86273 -0.801885 0
M  V30 7541 C 722.892 -0.765694 -1.78468 0
M  V30 7542 O 722.167 0.226495 -1.93177 0
M  V30 7543 C 722.45 -3.25876 -1.53221 0
M  V30 7544 C 722.303 -4.46205 -0.567529 0
M  V30 7545 C 723.622 -3.63352 -2.48321 0
M  V30 7546 H 720.741 -0.67752 -0.29006 0
M  V30 7547 H 723.383 -1.89887 -0.0655577 0
M  V30 7548 H 721.533 -3.22926 -2.15988 0
M  V30 7549 H 723.205 -4.6127 0.0529982 0
M  V30 7550 H 721.448 -4.33636 0.119233 0
M  V30 7551 H 722.119 -5.40608 -1.11564 0
M  V30 7552 H 724.595 -3.67234 -1.95648 0
M  V30 7553 H 723.471 -4.61968 -2.9644 0
M  V30 7554 H 723.732 -2.91941 -3.31998 0
M  V30 7555 N 722.791 0.367657 -1.53252 0
M  V30 7556 C 724.037 1.11216 -1.69584 0
M  V30 7557 C 724.37 1.89026 -0.445269 0
M  V30 7558 O 723.645 1.86342 0.557404 0
M  V30 7559 C 723.928 2.07308 -2.94441 0
M  V30 7560 C 723.781 1.3312 -4.2965 0
M  V30 7561 C 725.1 3.07459 -3.14892 0
M  V30 7562 H 722.219 0.40294 -0.617096 0
M  V30 7563 H 724.861 0.393201 -1.85887 0
M  V30 7564 H 723.011 2.68617 -2.80673 0
M  V30 7565 H 724.683 0.746111 -4.55226 0
M  V30 7566 H 722.926 0.633051 -4.29156 0
M  V30 7567 H 723.597 2.03443 -5.13142 0
M  V30 7568 H 726.073 2.56252 -3.27832 0
M  V30 7569 H 724.949 3.71919 -4.03693 0
M  V30 7570 H 725.21 3.77514 -2.30077 0
M  V30 7571 N 724.269 1.44576 0.627338 0
M  V30 7572 C 725.201 1.47724 1.75243 0
M  V30 7573 C 726.214 0.370193 1.58535 0
M  V30 7574 O 727.403 0.636151 1.66779 0
M  V30 7575 C 724.503 1.2991 3.13012 0
M  V30 7576 C 723.676 2.5393 3.56143 0
M  V30 7577 C 722.735 2.30961 4.72804 0
M  V30 7578 O 721.761 3.04469 4.80923 0
M  V30 7579 N 722.963 1.34261 5.6476 0
M  V30 7580 H 725.728 2.44718 1.73012 0
M  V30 7581 H 723.289 1.40064 0.812022 0
M  V30 7582 H 725.281 1.12385 3.88782 0
M  V30 7583 H 723.851 0.412668 3.09864 0
M  V30 7584 H 723.071 2.86707 2.70542 0
M  V30 7585 H 724.359 3.36411 3.81713 0
M  V30 7586 H 723.757 0.735573 5.60897 0
M  V30 7587 H 722.314 1.22713 6.40144 0
M  V30 7588 N 725.747 -0.868086 1.31537 0
M  V30 7589 C 726.657 -2.00801 1.21311 0
M  V30 7590 C 727.673 -1.73518 0.129431 0
M  V30 7591 O 728.849 -1.98378 0.347588 0
M  V30 7592 C 725.914 -3.3419 0.922935 0
M  V30 7593 C 724.975 -3.74783 2.0937 0
M  V30 7594 C 724.208 -5.01807 1.81728 0
M  V30 7595 O 724.431 -5.65404 0.753313 0
M  V30 7596 O 723.365 -5.39213 2.67457 0
M  V30 7597 H 727.191 -2.12361 2.17109 0
M  V30 7598 H 724.776 -0.996684 1.11295 0
M  V30 7599 H 726.658 -4.14174 0.777033 0
M  V30 7600 H 725.333 -3.237 -0.00500301 0
M  V30 7601 H 724.24 -2.95432 2.29501 0
M  V30 7602 H 725.573 -3.89902 3.00396 0
M  V30 7603 N 727.225 -1.14528 -1.08264 0
M  V30 7604 C 728.188 -0.83632 -2.13397 0
M  V30 7605 C 729.188 0.159715 -1.60005 0
M  V30 7606 O 730.378 -0.0688098 -1.74064 0
M  V30 7607 C 727.51 -0.246973 -3.40004 0
M  V30 7608 H 728.703 -1.76808 -2.42237 0
M  V30 7609 H 726.256 -0.951509 -1.24 0
M  V30 7610 H 726.991 0.693436 -3.168 0
M  V30 7611 H 726.776 -0.964412 -3.80055 0
M  V30 7612 H 728.266 -0.0480679 -4.17572 0
M  V30 7613 N 728.703 1.26451 -0.940633 0
M  V30 7614 C 729.931 1.97868 -0.604642 0
M  V30 7615 C 730.346 1.70051 0.820251 0
M  V30 7616 O 729.703 0.96843 1.54686 0
M  V30 7617 C 729.754 3.51684 -0.836689 0
M  V30 7618 O 729.475 3.78533 -2.20554 0
M  V30 7619 C 730.976 4.40343 -0.511169 0
M  V30 7620 H 728.196 0.631105 -0.227919 0
M  V30 7621 H 730.74 1.60979 -1.26119 0
M  V30 7622 H 728.895 3.86736 -0.226759 0
M  V30 7623 H 729.309 4.73065 -2.26517 0
M  V30 7624 H 730.783 5.47229 -0.724157 0
M  V30 7625 H 731.26 4.35694 0.553815 0
M  V30 7626 H 731.866 4.10834 -1.0998 0
M  V30 7627 N 730.181 0.707592 1.40822 0
M  V30 7628 C 731.128 0.0499029 2.30746 0
M  V30 7629 C 732.098 -0.758718 1.47759 0
M  V30 7630 O 733.283 -0.724299 1.76518 0
M  V30 7631 C 730.423 -0.871756 3.33908 0
M  V30 7632 C 729.536 -0.0534655 4.31967 0
M  V30 7633 C 728.671 -0.973869 5.22197 0
M  V30 7634 C 727.71 -0.149194 6.11918 0
M  V30 7635 N 726.847 -1.02404 6.94592 0
M  V30 7636 H 731.687 0.822461 2.86426 0
M  V30 7637 H 729.224 0.417285 1.41057 0
M  V30 7638 H 731.182 -1.42028 3.9228 0
M  V30 7639 H 729.812 -1.61058 2.7975 0
M  V30 7640 H 728.864 0.612142 3.75442 0
M  V30 7641 H 730.176 0.585354 4.95353 0
M  V30 7642 H 729.33 -1.59121 5.85462 0
M  V30 7643 H 728.069 -1.64652 4.59065 0
M  V30 7644 H 727.074 0.481137 5.47691 0
M  V30 7645 H 728.299 0.519841 6.77107 0
M  V30 7646 H 726.245 -1.6825 6.34057 0
M  V30 7647 H 726.162 -0.441076 7.54712 0
M  V30 7648 H 727.43 -1.62782 7.62314 0
M  V30 7649 N 731.66 -1.50943 0.453197 0
M  V30 7650 C 732.906 -2.02512 -0.108082 0
M  V30 7651 C 733.239 -1.33574 -1.40967 0
M  V30 7652 O 732.514 -0.455671 -1.89087 0
M  V30 7653 C 732.797 -3.58759 -0.310453 0
M  V30 7654 C 732.65 -4.38293 1.0109 0
M  V30 7655 C 733.969 -4.26816 -1.07313 0
M  V30 7656 H 731.088 -0.73603 -0.0378064 0
M  V30 7657 H 733.73 -1.80433 0.595295 0
M  V30 7658 H 731.88 -3.77702 -0.909582 0
M  V30 7659 H 733.552 -4.30964 1.64523 0
M  V30 7660 H 731.795 -4.02745 1.61179 0
M  V30 7661 H 732.466 -5.45828 0.82315 0
M  V30 7662 H 734.942 -4.1224 -0.565473 0
M  V30 7663 H 733.818 -5.35989 -1.1835 0
M  V30 7664 H 734.079 -3.88757 -2.10525 0
M  V30 7665 N 733.138 -0.185124 -1.56509 0
M  V30 7666 C 734.068 0.735098 -2.21627 0
M  V30 7667 C 735.049 1.2288 -1.1762 0
M  V30 7668 O 736.234 1.27945 -1.46095 0
M  V30 7669 C 733.364 1.95889 -2.86783 0
M  V30 7670 C 732.318 1.6005 -3.96948 0
M  V30 7671 C 731.644 2.90009 -4.4922 0
M  V30 7672 C 732.944 0.818008 -5.15855 0
M  V30 7673 H 734.638 0.192274 -2.98782 0
M  V30 7674 H 732.184 0.0910393 -1.43712 0
M  V30 7675 H 734.137 2.60779 -3.31017 0
M  V30 7676 H 732.861 2.52608 -2.07018 0
M  V30 7677 H 731.52 0.975237 -3.5339 0
M  V30 7678 H 731.168 3.44797 -3.6623 0
M  V30 7679 H 730.868 2.66778 -5.23549 0
M  V30 7680 H 732.392 3.55904 -4.9615 0
M  V30 7681 H 733.806 1.36979 -5.56695 0
M  V30 7682 H 732.203 0.684207 -5.96187 0
M  V30 7683 H 733.273 -0.182939 -4.84555 0
M  V30 7684 N 734.616 1.57351 0.0885366 0
M  V30 7685 C 736.032 1.53331 0.442916 0
M  V30 7686 C 736.232 0.902831 1.80142 0
M  V30 7687 O 735.288 0.498147 2.47537 0
M  V30 7688 C 736.601 2.98036 0.399372 0
M  V30 7689 C 738.149 3.09286 0.480759 0
M  V30 7690 C 738.624 4.5561 0.467296 0
M  V30 7691 N 740.115 4.60182 0.52786 0
M  V30 7692 C 740.85 5.70857 0.539388 0
M  V30 7693 N 740.346 6.90944 0.506729 0
M  V30 7694 N 742.139 5.59051 0.584691 0
M  V30 7695 H 734.29 1.96709 -0.801215 0
M  V30 7696 H 736.553 0.899639 -0.298922 0
M  V30 7697 H 736.259 3.47656 -0.531806 0
M  V30 7698 H 736.133 3.57066 1.21589 0
M  V30 7699 H 738.52 2.5965 1.40236 0
M  V30 7700 H 738.601 2.53197 -0.364023 0
M  V30 7701 H 738.245 5.05899 -0.450384 0
M  V30 7702 H 738.175 5.09544 1.32938 0
M  V30 7703 H 740.666 3.73757 0.558028 0
M  V30 7704 H 740.979 7.71055 0.518989 0
M  V30 7705 H 739.324 6.93384 0.473675 0
M  V30 7706 H 742.515 4.64138 0.607781 0
M  V30 7707 H 742.688 6.45307 0.590206 0
M  V30 7708 N 736.094 -0.359525 1.53444 0
M  V30 7709 C 737.042 -1.46104 1.80987 0
M  V30 7710 C 738.036 -1.55181 0.679351 0
M  V30 7711 O 739.242 -1.57995 0.862405 0
M  V30 7712 H 735.617 -0.486835 0.573145 0
M  V30 7713 H 737.588 -1.2008 2.73173 0
M  V30 7714 C 736.337 -2.82855 2.02208 0
M  V30 7715 H 735.66 -2.76631 2.88644 0
M  V30 7716 H 737.1 -3.59091 2.25455 0
M  V30 7717 C 735.559 -3.27192 0.802931 0
M  V30 7718 O 736.089 -4.017 -0.00544286 0
M  V30 7719 N 734.295 -2.83807 0.624657 0
M  V30 7720 H 733.842 -2.23339 1.28364 0
M  V30 7721 H 733.8 -3.13828 -0.189641 0
M  V30 7722 N 737.572 -1.44907 -0.619662 0
M  V30 7723 C 738.535 -1.52282 -1.71297 0
M  V30 7724 C 739.535 -0.40359 -1.55653 0
M  V30 7725 O 740.725 -0.666638 -1.6094 0
M  V30 7726 C 737.857 -1.40778 -3.10474 0
M  V30 7727 H 739.05 -2.49683 -1.66128 0
M  V30 7728 H 736.603 -1.32168 -0.834339 0
M  V30 7729 H 737.338 -0.445156 -3.2123 0
M  V30 7730 H 737.123 -2.21947 -3.23237 0
M  V30 7731 H 738.613 -1.48946 -3.90135 0
M  V30 7732 N 739.05 0.861098 -1.31996 0
M  V30 7733 C 740.013 1.95068 -1.20338 0
M  V30 7734 C 741.013 1.60289 -0.128114 0
M  V30 7735 O 742.203 1.70048 -0.378044 0
M  V30 7736 C 739.335 3.30153 -0.849205 0
M  V30 7737 H 740.528 2.06833 -2.17164 0
M  V30 7738 H 738.081 1.05049 -1.15734 0
M  V30 7739 H 738.816 3.24087 0.117508 0
M  V30 7740 H 738.601 3.56771 -1.62655 0
M  V30 7741 H 740.091 4.10025 -0.791782 0
M  V30 7742 N 740.528 1.15101 1.07655 0
M  V30 7743 C 741.776 0.922149 1.79836 0
M  V30 7744 C 742.097 -0.552346 1.87014 0
M  V30 7745 O 741.367 -1.40145 1.3688 0
M  V30 7746 H 739.947 0.338182 0.666064 0
M  V30 7747 H 742.609 1.45107 1.30115 0
M  V30 7748 H 741.705 1.32883 2.82398 0
M  V30 7749 N 742.006 -1.2595 0.947325 0
M  V30 7750 C 742.954 -2.28152 0.452687 0
M  V30 7751 C 743.948 -1.62655 -0.473239 0
M  V30 7752 O 745.154 -1.76549 -0.350774 0
M  V30 7753 H 741.529 -0.741049 0.12787 0
M  V30 7754 H 743.5 -2.67267 1.32707 0
M  V30 7755 C 742.249 -3.46719 -0.26098 0
M  V30 7756 H 741.572 -3.97345 0.442352 0
M  V30 7757 H 743.012 -4.20135 -0.571208 0
M  V30 7758 C 741.471 -3.02605 -1.48094 0
M  V30 7759 O 742.001 -3.07979 -2.57899 0
M  V30 7760 N 740.207 -2.57877 -1.33969 0
M  V30 7761 H 739.754 -2.53704 -0.446295 0
M  V30 7762 H 739.712 -2.28725 -2.15713 0
M  V30 7763 N 743.484 -0.715051 -1.40445 0
M  V30 7764 C 744.731 -0.254328 -2.00897 0
M  V30 7765 C 745.059 1.15228 -1.56693 0
M  V30 7766 O 744.314 1.7958 -0.777786 0
M  V30 7767 C 744.613 -0.281791 -3.56287 0
M  V30 7768 C 744.279 -1.63862 -4.20071 0
M  V30 7769 C 742.941 -2.01003 -4.37208 0
M  V30 7770 C 745.293 -2.53039 -4.55654 0
M  V30 7771 C 742.621 -3.26869 -4.8721 0
M  V30 7772 C 744.973 -3.78256 -5.07055 0
M  V30 7773 C 743.637 -4.15515 -5.22401 0
M  V30 7774 H 742.907 -0.0930652 -0.735133 0
M  V30 7775 H 745.554 -0.917977 -1.68064 0
M  V30 7776 H 743.859 0.465428 -3.89026 0
M  V30 7777 H 745.556 0.0925158 -4.00893 0
M  V30 7778 H 742.146 -1.33979 -4.07121 0
M  V30 7779 H 746.33 -2.2562 -4.42051 0
M  V30 7780 H 741.586 -3.55706 -4.97276 0
M  V30 7781 H 745.76 -4.47528 -5.33565 0
M  V30 7782 H 743.387 -5.13114 -5.60909 0
M  V30 7783 N 744.962 1.50701 -0.461195 0
M  V30 7784 C 746.192 2.06381 0.0950376 0
M  V30 7785 C 746.6 1.32627 1.34933 0
M  V30 7786 O 745.943 0.386137 1.79596 0
M  V30 7787 C 746.005 3.56558 0.458965 0
M  V30 7788 C 745.669 4.51732 -0.691891 0
M  V30 7789 C 746.666 4.95594 -1.57105 0
M  V30 7790 C 744.351 4.94542 -0.879407 0
M  V30 7791 C 746.345 5.80963 -2.62223 0
M  V30 7792 C 744.032 5.79695 -1.93382 0
M  V30 7793 C 745.03 6.22806 -2.80359 0
M  V30 7794 O 744.718 7.06265 -3.83986 0
M  V30 7795 H 744.45 0.676 0.000687488 0
M  V30 7796 H 747.004 1.94974 -0.646087 0
M  V30 7797 H 745.234 3.65832 1.25314 0
M  V30 7798 H 746.923 3.94647 0.949124 0
M  V30 7799 H 747.689 4.63197 -1.43783 0
M  V30 7800 H 743.568 4.60513 -0.211907 0
M  V30 7801 H 747.112 6.14533 -3.30143 0
M  V30 7802 H 743.009 6.11506 -2.06715 0
M  V30 7803 H 743.777 7.24494 -3.80855 0
M  V30 7804 N 746.441 0.193421 1.56409 0
M  V30 7805 C 747.69 -0.445995 1.96707 0
M  V30 7806 C 748.003 -1.62876 1.08309 0
M  V30 7807 O 749.209 -2.33586 1.38383 0
M  V30 7808 C 747.665 -0.844863 3.49843 0
M  V30 7809 C 747.273 0.31352 4.46902 0
M  V30 7810 C 749.017 -1.45146 3.98915 0
M  V30 7811 C 746.924 -0.106214 5.91305 0
M  V30 7812 H 745.854 -0.170398 0.734493 0
M  V30 7813 H 748.505 0.285172 1.81271 0
M  V30 7814 H 746.887 -1.63265 3.60778 0
M  V30 7815 H 748.061 1.09103 4.47698 0
M  V30 7816 H 746.376 0.8315 4.08014 0
M  V30 7817 H 748.973 -1.77792 5.04276 0
M  V30 7818 H 749.316 -2.35734 3.43126 0
M  V30 7819 H 749.849 -0.727675 3.91088 0
M  V30 7820 H 746.588 0.765442 6.51016 0
M  V30 7821 H 746.108 -0.848623 5.93766 0
M  V30 7822 H 747.787 -0.542588 6.44721 0
M  V30 7823 N 747.919 -1.57396 -0.0801906 0
M  V30 7824 C 748.867 -2.04136 -1.11495 0
M  V30 7825 C 749.861 -0.945137 -1.40583 0
M  V30 7826 O 751.067 -1.13028 -1.40088 0
M  V30 7827 H 747.442 -0.65076 -0.37685 0
M  V30 7828 H 749.413 -2.90205 -0.694526 0
M  V30 7829 C 748.162 -2.49399 -2.42272 0
M  V30 7830 H 747.485 -3.33339 -2.20737 0
M  V30 7831 H 748.925 -2.85864 -3.13142 0
M  V30 7832 C 747.384 -1.37341 -3.07635 0
M  V30 7833 O 747.914 -0.710829 -3.95361 0
M  V30 7834 N 746.12 -1.12064 -2.68123 0
M  V30 7835 H 745.667 -1.66126 -1.96875 0
M  V30 7836 H 745.625 -0.372916 -3.12181 0
M  V30 7837 N 749.397 0.351382 -1.53633 0
M  V30 7838 C 750.674 1.10903 -1.6112 0
M  V30 7839 C 751.054 2.06725 -0.427556 0
M  V30 7840 O 750.402 2.20992 0.580916 0
M  V30 7841 C 750.612 1.83561 -2.96827 0
M  V30 7842 C 751.96 2.37587 -3.51906 0
M  V30 7843 O 752.984 1.93669 -2.9895 0
M  V30 7844 O 751.843 3.17913 -4.44515 0
M  V30 7845 H 748.937 0.509558 -0.651368 0
M  V30 7846 H 751.483 0.353504 -1.65977 0
M  V30 7847 H 750.255 1.1371 -3.74414 0
M  V30 7848 H 749.878 2.6599 -2.95525 0
M  V30 7849 N 750.875 1.45233 0.611969 0
M  V30 7850 C 751.822 1.5357 1.72293 0
M  V30 7851 C 752.792 0.381912 1.6165 0
M  V30 7852 O 753.977 0.594765 1.81293 0
M  V30 7853 C 751.117 1.50419 3.10593 0
M  V30 7854 C 750.23 2.76316 3.32074 0
M  V30 7855 C 749.365 2.64866 4.60456 0
M  V30 7856 C 748.404 3.85838 4.7518 0
M  V30 7857 N 747.541 3.72949 5.94856 0
M  V30 7858 H 752.381 2.4848 1.64504 0
M  V30 7859 H 749.918 1.23302 0.802191 0
M  V30 7860 H 751.876 1.4658 3.90602 0
M  V30 7861 H 750.506 0.590621 3.17351 0
M  V30 7862 H 749.558 2.90261 2.45872 0
M  V30 7863 H 750.87 3.66055 3.38829 0
M  V30 7864 H 750.024 2.58969 5.48653 0
M  V30 7865 H 748.763 1.72719 4.56092 0
M  V30 7866 H 747.768 3.92099 3.85407 0
M  V30 7867 H 748.993 4.79045 4.81344 0
M  V30 7868 H 746.939 2.83567 5.91545 0
M  V30 7869 H 746.856 4.56319 6.02751 0
M  V30 7870 H 748.124 3.70976 6.85563 0
M  V30 7871 N 752.353 -0.854086 1.3245 0
M  V30 7872 C 753.578 -1.64597 1.26185 0
M  V30 7873 C 754.003 -1.87357 -0.167074 0
M  V30 7874 O 753.361 -1.42675 -1.11864 0
M  V30 7875 C 753.409 -2.98213 2.02734 0
M  V30 7876 O 752.513 -3.88784 1.37554 0
M  V30 7877 H 751.854 -0.50179 0.434859 0
M  V30 7878 H 754.384 -1.06372 1.74775 0
M  V30 7879 H 754.394 -3.4803 2.1293 0
M  V30 7880 H 753.069 -2.80969 3.06642 0
M  V30 7881 H 751.646 -3.4725 1.3591 0
M  V30 7882 N 753.831 -1.1567 -1.07043 0
M  V30 7883 C 755.059 -0.957471 -1.83412 0
M  V30 7884 C 755.474 0.494271 -1.82215 0
M  V30 7885 O 754.831 1.34288 -1.23584 0
M  V30 7886 C 754.882 -1.46784 -3.30359 0
M  V30 7887 O 754.603 -2.86271 -3.31633 0
M  V30 7888 C 756.104 -1.31054 -4.23485 0
M  V30 7889 H 753.324 -0.33986 -0.578564 0
M  V30 7890 H 755.868 -1.53518 -1.35102 0
M  V30 7891 H 754.023 -0.932586 -3.76007 0
M  V30 7892 H 754.437 -3.0948 -4.23465 0
M  V30 7893 H 755.911 -1.71605 -5.24648 0
M  V30 7894 H 756.388 -0.255107 -4.38458 0
M  V30 7895 H 756.994 -1.83503 -3.83676 0
M  V30 7896 N 755.309 1.25446 -0.953992 0
M  V30 7897 C 756.557 1.92762 -0.607227 0
M  V30 7898 C 756.878 1.7509 0.858399 0
M  V30 7899 O 756.148 1.11416 1.61132 0
M  V30 7900 H 754.728 0.713377 -0.221591 0
M  V30 7901 H 757.39 1.52625 -1.21209 0
M  V30 7902 H 756.486 3.00695 -0.835998 0
M  V30 7903 N 756.787 0.722489 1.40064 0
M  V30 7904 C 758.012 0.273446 2.05589 0
M  V30 7905 C 758.437 -1.07875 1.54093 0
M  V30 7906 O 757.795 -1.68095 0.679252 0
M  V30 7907 C 757.843 0.271023 3.5958 0
M  V30 7908 O 756.947 -0.745499 4.05606 0
M  V30 7909 H 756.288 0.126856 0.65177 0
M  V30 7910 H 758.818 0.984906 1.79334 0
M  V30 7911 H 758.828 0.111084 4.07849 0
M  V30 7912 H 757.503 1.25776 3.96425 0
M  V30 7913 H 756.08 -0.552719 3.68781 0
M  V30 7914 N 758.265 -1.50454 0.469181 0
M  V30 7915 C 759.514 -2.01507 -0.0881425 0
M  V30 7916 C 759.827 -1.35613 -1.40956 0
M  V30 7917 O 761.033 -1.77812 -2.05171 0
M  V30 7918 C 759.489 -3.59301 -0.207596 0
M  V30 7919 C 759.097 -4.34152 1.10527 0
M  V30 7920 C 760.841 -4.18401 -0.716981 0
M  V30 7921 C 758.748 -5.83725 0.949717 0
M  V30 7922 H 757.678 -0.753106 -0.0367156 0
M  V30 7923 H 760.329 -1.73282 0.603788 0
M  V30 7924 H 758.711 -3.84106 -0.963265 0
M  V30 7925 H 759.885 -4.21073 1.87175 0
M  V30 7926 H 758.2 -3.86652 1.54562 0
M  V30 7927 H 760.797 -5.27895 -0.850363 0
M  V30 7928 H 761.14 -3.79657 -1.70782 0
M  V30 7929 H 761.673 -3.97796 -0.0187511 0
M  V30 7930 H 758.412 -6.26938 1.91387 0
M  V30 7931 H 757.932 -5.99383 0.223591 0
M  V30 7932 H 759.611 -6.44065 0.61557 0
M  V30 7933 N 759.743 -0.201713 -1.56304 0
M  V30 7934 C 760.989 0.435952 -1.98059 0
M  V30 7935 C 761.322 1.60811 -1.08873 0
M  V30 7936 O 760.597 1.9398 -0.142128 0
M  V30 7937 C 760.88 0.889706 -3.48936 0
M  V30 7938 C 760.733 -0.284725 -4.48898 0
M  V30 7939 C 762.052 1.7529 -4.03685 0
M  V30 7940 H 759.171 0.15699 -0.720085 0
M  V30 7941 H 761.813 -0.293965 -1.87712 0
M  V30 7942 H 759.963 1.51166 -3.57884 0
M  V30 7943 H 761.635 -0.922531 -4.51981 0
M  V30 7944 H 759.878 -0.935427 -4.23594 0
M  V30 7945 H 760.549 0.0753865 -5.51949 0
M  V30 7946 H 763.025 1.2283 -3.97558 0
M  V30 7947 H 761.901 2.03933 -5.0961 0
M  V30 7948 H 762.162 2.70939 -3.49348 0
M  V30 7949 N 761.222 1.57436 0.0718424 0
M  V30 7950 C 762.47 1.86878 0.769484 0
M  V30 7951 C 762.791 0.7937 1.78116 0
M  V30 7952 O 762.061 -0.177642 1.95093 0
M  V30 7953 H 760.641 0.689593 0.287177 0
M  V30 7954 H 763.303 1.94841 0.0479427 0
M  V30 7955 H 762.399 2.84387 1.28572 0
M  V30 7956 N 762.7 -0.34323 1.53817 0
M  V30 7957 C 763.632 -1.44216 1.78141 0
M  V30 7958 C 764.645 -1.48701 0.662721 0
M  V30 7959 O 765.834 -1.51778 0.939458 0
M  V30 7960 C 762.934 -2.82872 1.86646 0
M  V30 7961 C 762.107 -3.01824 3.16577 0
M  V30 7962 C 761.166 -4.20723 3.16036 0
M  V30 7963 O 760.192 -4.14824 3.89756 0
M  V30 7964 N 761.394 -5.29276 2.38427 0
M  V30 7965 H 764.159 -1.23721 2.72971 0
M  V30 7966 H 761.72 -0.53311 1.52871 0
M  V30 7967 H 763.712 -3.60588 1.83735 0
M  V30 7968 H 762.282 -2.96509 0.990014 0
M  V30 7969 H 761.502 -2.11575 3.3261 0
M  V30 7970 H 762.79 -3.11369 4.02402 0
M  V30 7971 H 762.188 -5.36938 1.78085 0
M  V30 7972 H 760.745 -6.05484 2.41313 0
M  V30 7973 N 764.178 -1.45556 -0.604258 0
M  V30 7974 C 765.11 -1.50494 -1.72871 0
M  V30 7975 C 766.123 -0.395368 -1.57926 0
M  V30 7976 O 767.312 -0.662603 -1.65746 0
M  V30 7977 C 764.412 -1.34874 -3.10906 0
M  V30 7978 C 763.585 -2.59564 -3.52058 0
M  V30 7979 C 762.644 -2.38453 -4.6907 0
M  V30 7980 O 761.67 -3.12082 -4.76018 0
M  V30 7981 N 762.872 -1.43229 -5.62553 0
M  V30 7982 H 765.637 -2.4744 -1.69097 0
M  V30 7983 H 763.198 -1.41338 -0.789636 0
M  V30 7984 H 765.19 -1.18556 -3.86945 0
M  V30 7985 H 763.76 -0.461913 -3.09168 0
M  V30 7986 H 762.98 -2.90974 -2.65946 0
M  V30 7987 H 764.268 -3.42441 -3.76313 0
M  V30 7988 H 763.666 -0.824714 -5.59656 0
M  V30 7989 H 762.223 -1.32882 -6.38111 0
M  V30 7990 N 765.656 0.84705 -1.32902 0
M  V30 7991 C 767.067 1.41785 -1.21466 0
M  V30 7992 C 767.418 1.95464 0.169767 0
M  V30 7993 O 766.543 1.88157 1.06892 0
M  V30 7994 C 767.138 2.57734 -2.19906 0
M  V30 7995 C 765.697 3.10791 -2.12334 0
M  V30 7996 C 764.844 1.83562 -2.07847 0
M  V30 7997 H 767.795 0.653532 -1.44619 0
M  V30 7998 H 767.816 3.35123 -1.80202 0
M  V30 7999 H 767.328 2.18635 -3.20656 0
M  V30 8000 H 765.429 3.54455 -1.14858 0
M  V30 8001 H 765.542 3.71519 -3.02506 0
M  V30 8002 H 763.906 2.03475 -1.53199 0
M  V30 8003 H 764.689 1.4667 -3.10392 0
M  V30 8004 N 767.134 1.16236 1.06428 0
M  V30 8005 C 768.381 0.943034 1.79201 0
M  V30 8006 C 768.709 -0.529243 1.87161 0
M  V30 8007 O 767.964 -1.40874 1.35842 0
M  V30 8008 C 768.263 1.51396 3.2375 0
M  V30 8009 C 767.929 3.00833 3.35873 0
M  V30 8010 C 766.591 3.41626 3.38888 0
M  V30 8011 C 768.943 3.96825 3.37904 0
M  V30 8012 C 766.271 4.77033 3.4155 0
M  V30 8013 C 768.623 5.32116 3.42104 0
M  V30 8014 C 767.287 5.72392 3.43401 0
M  V30 8015 H 766.557 0.34508 0.655744 0
M  V30 8016 H 769.204 1.44929 1.25171 0
M  V30 8017 H 767.509 0.929114 3.80624 0
M  V30 8018 H 769.206 1.31996 3.78653 0
M  V30 8019 H 765.796 2.68306 3.3423 0
M  V30 8020 H 769.98 3.66376 3.34787 0
M  V30 8021 H 765.236 5.07569 3.40858 0
M  V30 8022 H 769.41 6.06286 3.42623 0
M  V30 8023 H 767.037 6.77296 3.45216 0
M  V30 8024 N 768.612 -1.24939 0.960631 0
M  V30 8025 C 769.86 -1.92437 0.617441 0
M  V30 8026 C 770.181 -1.75543 -0.849101 0
M  V30 8027 O 769.451 -1.12269 -1.60538 0
M  V30 8028 H 768.031 -0.712192 0.225371 0
M  V30 8029 H 770.693 -1.5198 1.22017 0
M  V30 8030 H 769.789 -3.00247 0.851933 0
M  V30 8031 N 770.09 -0.729906 -1.39679 0
M  V30 8032 C 771.338 -0.275077 -2.00219 0
M  V30 8033 C 771.659 1.1401 -1.58199 0
M  V30 8034 O 770.929 1.77546 -0.827904 0
M  V30 8035 H 769.509 -0.0987127 -0.740449 0
M  V30 8036 H 772.171 -0.93873 -1.70804 0
M  V30 8037 H 771.267 -0.319446 -3.10461 0
M  V30 8038 N 771.568 1.50203 -0.477153 0
M  V30 8039 C 772.531 2.27194 0.302599 0
M  V30 8040 C 773.531 1.32221 0.915112 0
M  V30 8041 O 774.721 1.55593 0.783348 0
M  V30 8042 C 771.853 3.0938 1.43167 0
M  V30 8043 H 773.046 2.97575 -0.372678 0
M  V30 8044 H 770.599 1.54578 -0.231392 0
M  V30 8045 H 771.334 2.43509 2.14182 0
M  V30 8046 H 771.119 3.79181 0.998197 0
M  V30 8047 H 772.609 3.67592 1.98157 0
M  V30 8048 N 773.046 0.209999 1.56195 0
M  V30 8049 C 774.462 -0.145598 1.58934 0
M  V30 8050 C 774.662 -1.59868 1.22656 0
M  V30 8051 O 773.718 -2.33689 0.956336 0
M  V30 8052 C 775.031 0.170243 3.00218 0
M  V30 8053 C 776.579 0.111548 3.12801 0
M  V30 8054 C 777.054 0.400904 4.56242 0
M  V30 8055 N 778.545 0.350058 4.61875 0
M  V30 8056 C 779.28 0.547598 5.70779 0
M  V30 8057 N 778.776 0.806291 6.88092 0
M  V30 8058 N 780.569 0.480827 5.6004 0
M  V30 8059 H 772.72 1.15804 1.78054 0
M  V30 8060 H 774.983 0.463326 0.827063 0
M  V30 8061 H 774.689 1.17833 3.31373 0
M  V30 8062 H 774.563 -0.520208 3.73596 0
M  V30 8063 H 776.95 -0.887162 2.81449 0
M  V30 8064 H 777.031 0.835302 2.41777 0
M  V30 8065 H 776.675 1.397 4.8831 0
M  V30 8066 H 776.605 -0.34391 5.25476 0
M  V30 8067 H 779.096 0.157334 3.77572 0
M  V30 8068 H 779.409 0.945433 7.66995 0
M  V30 8069 H 777.754 0.843355 6.89864 0
M  V30 8070 H 780.945 0.279037 4.67268 0
M  V30 8071 H 781.118 0.638189 6.4485 0
M  V30 8072 N 774.524 -1.57472 -0.0634922 0
M  V30 8073 C 775.487 -2.03268 -1.059 0
M  V30 8074 C 776.487 -0.931028 -1.31105 0
M  V30 8075 O 777.677 -1.19567 -1.26686 0
M  V30 8076 C 774.809 -2.42039 -2.40062 0
M  V30 8077 H 776.002 -2.92454 -0.664119 0
M  V30 8078 H 773.555 -1.53206 -0.309444 0
M  V30 8079 H 774.29 -1.55904 -2.84367 0
M  V30 8080 H 774.075 -3.22437 -2.23108 0
M  V30 8081 H 775.565 -2.78017 -3.11603 0
M  V30 8082 N 776.003 0.335068 -1.53997 0
M  V30 8083 C 777.228 1.09859 -1.75914 0
M  V30 8084 C 777.653 1.81308 -0.500915 0
M  V30 8085 O 777.011 1.72854 0.54693 0
M  V30 8086 C 777.059 2.08122 -2.94478 0
M  V30 8087 O 776.163 3.15805 -2.65219 0
M  V30 8088 H 775.504 0.317313 -0.583274 0
M  V30 8089 H 778.034 0.382872 -2.00986 0
M  V30 8090 H 778.044 2.51195 -3.21504 0
M  V30 8091 H 776.719 1.55517 -3.8573 0
M  V30 8092 H 775.296 2.77489 -2.49107 0
M  V30 8093 N 777.481 1.45874 0.596531 0
M  V30 8094 C 778.729 1.5017 1.35253 0
M  V30 8095 C 779.05 0.149246 1.94428 0
M  V30 8096 O 778.32 -0.82268 1.77789 0
M  V30 8097 H 776.9 0.553052 0.502138 0
M  V30 8098 H 779.562 1.81908 0.699671 0
M  V30 8099 H 778.658 2.24671 2.16632 0
M  V30 8100 N 778.959 -0.83999 1.33349 0
M  V30 8101 C 780.187 -1.62728 1.27778 0
M  V30 8102 C 780.602 -1.88191 -0.151505 0
M  V30 8103 O 779.959 -1.46128 -1.09329 0
M  V30 8104 C 780.01 -2.97813 2.04913 0
M  V30 8105 O 779.731 -2.73469 3.42266 0
M  V30 8106 C 781.232 -3.92245 2.0654 0
M  V30 8107 H 778.452 -0.506374 0.440257 0
M  V30 8108 H 780.996 -1.04637 1.75703 0
M  V30 8109 H 779.151 -3.52509 1.60674 0
M  V30 8110 H 779.565 -3.59483 3.81932 0
M  V30 8111 H 781.039 -4.84249 2.64966 0
M  V30 8112 H 781.516 -4.26332 1.05537 0
M  V30 8113 H 782.122 -3.43487 2.50793 0
M  V30 8114 N 780.437 -1.16799 -1.0581 0
M  V30 8115 C 781.385 -0.875111 -2.1551 0
M  V30 8116 C 782.379 0.157781 -1.68664 0
M  V30 8117 O 783.585 0.011297 -1.79996 0
M  V30 8118 H 779.96 -0.26542 -0.703602 0
M  V30 8119 H 781.931 -1.8076 -2.37421 0
M  V30 8120 C 780.68 -0.39802 -3.45414 0
M  V30 8121 H 780.003 -1.18425 -3.81858 0
M  V30 8122 H 781.443 -0.231913 -4.23365 0
M  V30 8123 C 779.902 0.88327 -3.25115 0
M  V30 8124 O 780.432 1.95145 -3.51114 0
M  V30 8125 N 778.638 0.828961 -2.78526 0
M  V30 8126 H 778.185 -0.0405029 -2.57568 0
M  V30 8127 H 778.143 1.68673 -2.65324 0
M  V30 8128 N 781.915 1.24427 -0.967243 0
M  V30 8129 C 783.192 1.87831 -0.545776 0
M  V30 8130 C 783.572 1.87126 0.977099 0
M  V30 8131 O 782.92 1.34357 1.84826 0
M  V30 8132 C 783.13 3.29967 -1.13679 0
M  V30 8133 C 784.478 4.06654 -1.22139 0
M  V30 8134 O 785.502 3.39136 -1.08926 0
M  V30 8135 O 784.361 5.27455 -1.43017 0
M  V30 8136 H 781.455 0.806745 -0.181912 0
M  V30 8137 H 784.001 1.32403 -1.06148 0
M  V30 8138 H 782.773 3.24977 -2.17958 0
M  V30 8139 H 782.396 3.92969 -0.605093 0
M  V30 8140 N 783.393 0.737304 1.3929 0
M  V30 8141 C 784.34 0.0988364 2.30588 0
M  V30 8142 C 785.31 -0.727206 1.49335 0
M  V30 8143 O 786.495 -0.686694 1.78014 0
M  V30 8144 C 783.635 -0.800734 3.35682 0
M  V30 8145 C 782.748 0.0381731 4.31983 0
M  V30 8146 C 781.883 -0.862884 5.24145 0
M  V30 8147 C 780.922 -0.0193639 6.12097 0
M  V30 8148 N 780.059 -0.87648 6.96608 0
M  V30 8149 H 784.899 0.883031 2.84617 0
M  V30 8150 H 782.436 0.447111 1.4014 0
M  V30 8151 H 784.394 -1.33676 3.95205 0
M  V30 8152 H 783.024 -1.55088 2.83103 0
M  V30 8153 H 782.076 0.691641 3.74059 0
M  V30 8154 H 783.388 0.690294 4.94 0
M  V30 8155 H 782.542 -1.46667 5.88705 0
M  V30 8156 H 781.281 -1.54878 4.62454 0
M  V30 8157 H 780.286 0.597202 5.46547 0
M  V30 8158 H 781.511 0.663348 6.75852 0
M  V30 8159 H 779.457 -1.54762 6.37483 0
M  V30 8160 H 779.374 -0.280892 7.55478 0
M  V30 8161 H 780.642 -1.46575 7.65595 0
M  V30 8162 N 784.871 -1.49948 0.485112 0
M  V30 8163 C 786.282 -1.8667 0.0334041 0
M  V30 8164 C 786.633 -1.3988 -1.37579 0
M  V30 8165 O 785.758 -0.769788 -2.02245 0
M  V30 8166 C 786.353 -3.38757 0.0538426 0
M  V30 8167 C 784.912 -3.74839 -0.342453 0
M  V30 8168 C 784.059 -2.73894 0.433281 0
M  V30 8169 H 787.01 -1.42492 0.698699 0
M  V30 8170 H 787.031 -3.73132 -0.745146 0
M  V30 8171 H 786.543 -3.72782 1.07959 0
M  V30 8172 H 784.644 -3.46419 -1.37203 0
M  V30 8173 H 784.757 -4.79088 -0.0340503 0
M  V30 8174 H 783.121 -2.54441 -0.114849 0
M  V30 8175 H 783.904 -3.10763 1.45881 0
M  V30 8176 N 786.349 -0.21828 -1.56081 0
M  V30 8177 C 787.597 0.413488 -1.97825 0
M  V30 8178 C 787.918 1.60527 -1.10707 0
M  V30 8179 O 787.188 1.9504 -0.183378 0
M  V30 8180 H 785.768 0.155757 -0.730581 0
M  V30 8181 H 788.43 -0.310413 -1.92412 0
M  V30 8182 H 787.526 0.742024 -3.03151 0
M  V30 8183 N 787.827 1.57504 0.0551401 0
M  V30 8184 C 789.075 1.87684 0.74962 0
M  V30 8185 C 789.396 0.812547 1.77264 0
M  V30 8186 O 788.666 -0.15694 1.9527 0
M  V30 8187 H 787.246 0.6926 0.279846 0
M  V30 8188 H 789.908 1.94881 0.0272745 0
M  V30 8189 H 789.004 2.85734 1.25548 0
M  V30 8190 N 789.305 -0.326896 1.54172 0
M  V30 8191 C 790.716 -0.901533 1.63491 0
M  V30 8192 C 791.067 -1.88994 0.52684 0
M  V30 8193 O 790.192 -2.137 -0.340794 0
M  V30 8194 C 790.787 -1.64192 2.96355 0
M  V30 8195 C 789.346 -2.16533 3.07881 0
M  V30 8196 C 788.493 -0.98966 2.59039 0
M  V30 8197 H 791.444 -0.104568 1.58355 0
M  V30 8198 H 791.465 -2.50592 2.86328 0
M  V30 8199 H 790.977 -0.922291 3.76982 0
M  V30 8200 H 789.078 -2.91622 2.31922 0
M  V30 8201 H 789.191 -2.41762 4.13628 0
M  V30 8202 H 787.555 -1.36787 2.14852 0
M  V30 8203 H 788.338 -0.284401 3.4212 0
M  V30 8204 N 790.784 -1.46188 -0.588786 0
M  V30 8205 C 791.734 -1.5271 -1.69303 0
M  V30 8206 C 792.718 -0.388578 -1.56137 0
M  V30 8207 O 793.91 -0.636616 -1.65155 0
M  V30 8208 C 791.039 -1.51457 -3.08084 0
M  V30 8209 C 790.125 -2.70581 -3.26568 0
M  V30 8210 N 790.516 -3.9555 -3.15236 0
M  V30 8211 C 788.814 -2.66676 -3.57491 0
M  V30 8212 C 789.515 -4.75157 -3.35561 0
M  V30 8213 N 788.491 -4.06927 -3.60432 0
M  V30 8214 H 792.293 -2.47136 -1.59063 0
M  V30 8215 H 789.807 -1.41743 -0.792632 0
M  V30 8216 H 791.804 -1.54216 -3.87328 0
M  V30 8217 H 790.464 -0.581036 -3.19459 0
M  V30 8218 H 791.475 -4.2689 -2.93232 0
M  V30 8219 H 788.152 -1.82317 -3.75588 0
M  V30 8220 H 789.542 -5.84126 -3.32034 0
M  V30 8221 N 792.262 0.832906 -1.33792 0
M  V30 8222 C 793.492 1.61813 -1.28453 0
M  V30 8223 C 793.9 1.88639 0.145595 0
M  V30 8224 O 793.243 1.47122 1.10004 0
M  V30 8225 C 793.305 2.98929 -1.99704 0
M  V30 8226 C 792.969 2.95045 -3.48995 0
M  V30 8227 C 793.966 2.70337 -4.44088 0
M  V30 8228 C 791.651 3.14993 -3.91261 0
M  V30 8229 C 793.645 2.65612 -5.79421 0
M  V30 8230 C 791.332 3.09893 -5.26697 0
M  V30 8231 C 792.33 2.85235 -6.20588 0
M  V30 8232 O 792.018 2.8005 -7.53543 0
M  V30 8233 H 791.75 0.510013 -0.443693 0
M  V30 8234 H 794.304 1.04514 -1.76822 0
M  V30 8235 H 792.534 3.58106 -1.45935 0
M  V30 8236 H 794.223 3.59849 -1.87786 0
M  V30 8237 H 794.989 2.54671 -4.12756 0
M  V30 8238 H 790.868 3.33204 -3.18584 0
M  V30 8239 H 794.412 2.46285 -6.52679 0
M  V30 8240 H 790.309 3.2511 -5.5765 0
M  V30 8241 H 791.077 2.95849 -7.63162 0
M  V30 8242 N 793.74 1.17359 1.05189 0
M  V30 8243 C 794.989 0.956412 1.77583 0
M  V30 8244 C 795.302 -0.516018 1.88671 0
M  V30 8245 O 796.508 -0.851401 2.57805 0
M  V30 8246 C 794.964 1.66203 3.19225 0
M  V30 8247 C 794.572 3.17299 3.16267 0
M  V30 8248 C 796.316 1.52725 3.96075 0
M  V30 8249 C 794.223 3.8055 4.52698 0
M  V30 8250 H 793.153 0.354204 0.665624 0
M  V30 8251 H 795.804 1.40612 1.17901 0
M  V30 8252 H 794.186 1.14006 3.79234 0
M  V30 8253 H 795.36 3.76431 2.65776 0
M  V30 8254 H 793.675 3.3079 2.52917 0
M  V30 8255 H 796.272 1.97351 4.96947 0
M  V30 8256 H 796.615 0.477803 4.13549 0
M  V30 8257 H 797.148 2.02139 3.42614 0
M  V30 8258 H 793.887 4.85492 4.4043 0
M  V30 8259 H 793.407 3.26206 5.03339 0
M  V30 8260 H 795.086 3.82757 5.21638 0
M  V30 8261 N 795.218 -1.23913 0.973828 0
M  V30 8262 C 796.148 -2.27453 0.527969 0
M  V30 8263 C 797.129 -1.6443 -0.435513 0
M  V30 8264 O 798.314 -1.9137 -0.330306 0
M  V30 8265 C 795.444 -3.4685 -0.176757 0
M  V30 8266 C 794.398 -4.22181 0.703352 0
M  V30 8267 C 793.724 -5.34534 -0.133215 0
M  V30 8268 C 795.024 -4.82865 1.99096 0
M  V30 8269 H 796.718 -2.65 1.3934 0
M  V30 8270 H 794.264 -1.27388 0.671446 0
M  V30 8271 H 796.217 -4.18424 -0.499934 0
M  V30 8272 H 794.941 -3.08346 -1.07659 0
M  V30 8273 H 793.6 -3.52416 1.00989 0
M  V30 8274 H 793.248 -4.92271 -1.03338 0
M  V30 8275 H 792.948 -5.85855 0.452494 0
M  V30 8276 H 794.472 -6.08933 -0.450924 0
M  V30 8277 H 795.886 -5.46481 1.73297 0
M  V30 8278 H 794.283 -5.44444 2.52389 0
M  V30 8279 H 795.353 -4.03977 2.68199 0
M  V30 8280 N 796.696 -0.74468 -1.38897 0
M  V30 8281 C 798.112 -0.421302 -1.53939 0
M  V30 8282 C 798.312 1.06668 -1.70951 0
M  V30 8283 O 797.368 1.85278 -1.71547 0
M  V30 8284 C 798.681 -1.21278 -2.75159 0
M  V30 8285 C 800.229 -1.20196 -2.89001 0
M  V30 8286 C 800.704 -1.97621 -4.13171 0
M  V30 8287 N 802.195 -1.94836 -4.2023 0
M  V30 8288 C 802.93 -2.51545 -5.15279 0
M  V30 8289 N 802.426 -3.1693 -6.16058 0
M  V30 8290 N 804.219 -2.41524 -5.07565 0
M  V30 8291 H 796.37 -1.70914 -1.26103 0
M  V30 8292 H 798.633 -0.724058 -0.611919 0
M  V30 8293 H 798.339 -2.26609 -2.68963 0
M  V30 8294 H 798.213 -0.823677 -3.68097 0
M  V30 8295 H 800.6 -0.156742 -2.94683 0
M  V30 8296 H 800.681 -1.63051 -1.97099 0
M  V30 8297 H 800.325 -3.02149 -4.0825 0
M  V30 8298 H 800.255 -1.52166 -5.04136 0
M  V30 8299 H 802.746 -1.4721 -3.48048 0
M  V30 8300 H 803.059 -3.57644 -6.85062 0
M  V30 8301 H 801.404 -3.21023 -6.16417 0
M  V30 8302 H 804.595 -1.90077 -4.27771 0
M  V30 8303 H 804.768 -2.86016 -5.81462 0
M  V30 8304 N 798.174 1.49689 -0.493057 0
M  V30 8305 C 799.42 2.03347 0.0463792 0
M  V30 8306 C 799.775 1.36671 1.35421 0
M  V30 8307 O 799.068 0.4907 1.8521 0
M  V30 8308 C 799.262 3.56427 0.263536 0
M  V30 8309 C 799.091 4.3794 -1.02169 0
M  V30 8310 C 797.861 4.8025 -1.57125 0
M  V30 8311 C 800.059 4.77 -1.9229 0
M  V30 8312 N 798.041 5.46162 -2.80321 0
M  V30 8313 C 799.412 5.42549 -3.00067 0
M  V30 8314 C 801.467 4.58945 -1.93064 0
M  V30 8315 C 800.17 5.91954 -4.08635 0
M  V30 8316 C 802.196 5.09306 -3.00602 0
M  V30 8317 C 801.558 5.74849 -4.07097 0
M  V30 8318 H 797.657 0.781644 -0.0236097 0
M  V30 8319 H 800.241 1.82949 -0.666151 0
M  V30 8320 H 798.412 3.76725 0.945118 0
M  V30 8321 H 800.144 3.96729 0.79927 0
M  V30 8322 H 796.899 4.60228 -1.11746 0
M  V30 8323 H 797.323 5.83711 -3.42944 0
M  V30 8324 H 801.965 4.07685 -1.12039 0
M  V30 8325 H 799.683 6.4224 -4.90463 0
M  V30 8326 H 803.269 4.97152 -3.0221 0
M  V30 8327 H 802.149 6.13113 -4.88939 0
M  V30 8328 N 799.652 0.226554 1.55963 0
M  V30 8329 C 800.88 -0.408507 2.02827 0
M  V30 8330 C 801.295 -1.52994 1.10627 0
M  V30 8331 O 800.652 -1.82126 0.116809 0
M  V30 8332 C 800.703 -0.93545 3.49187 0
M  V30 8333 O 800.424 0.141273 4.37872 0
M  V30 8334 C 801.925 -1.64325 4.11719 0
M  V30 8335 H 799.145 -0.099442 0.66359 0
M  V30 8336 H 801.689 0.344471 2.01578 0
M  V30 8337 H 799.844 -1.63868 3.51036 0
M  V30 8338 H 800.258 -0.25558 5.23877 0
M  V30 8339 H 801.732 -1.9639 5.15883 0
M  V30 8340 H 802.209 -2.55815 3.57009 0
M  V30 8341 H 802.815 -0.9851 4.13734 0
M  V30 8342 N 801.13 -1.57531 -0.0467866 0
M  V30 8343 C 802.355 -1.93087 -0.757123 0
M  V30 8344 C 802.78 -0.825116 -1.69037 0
M  V30 8345 O 802.138 0.220449 -1.79955 0
M  V30 8346 C 802.186 -3.27669 -1.5055 0
M  V30 8347 O 801.29 -3.18667 -2.61773 0
M  V30 8348 H 800.631 -0.631597 -0.204892 0
M  V30 8349 H 803.161 -2.04599 -0.00755232 0
M  V30 8350 H 803.171 -3.6214 -1.87932 0
M  V30 8351 H 801.846 -4.07717 -0.820931 0
M  V30 8352 H 800.423 -2.95798 -2.27064 0
M  V30 8353 N 802.608 0.318715 -1.54344 0
M  V30 8354 C 804.019 0.89285 -1.63967 0
M  V30 8355 C 804.37 1.88712 -0.536855 0
M  V30 8356 O 803.495 2.13877 0.329457 0
M  V30 8357 C 804.09 1.62618 -2.97222 0
M  V30 8358 C 802.649 2.14897 -3.09025 0
M  V30 8359 C 801.796 0.975909 -2.5956 0
M  V30 8360 H 804.747 0.0961687 -1.58408 0
M  V30 8361 H 804.768 2.4907 -2.87653 0
M  V30 8362 H 804.28 0.902286 -3.77466 0
M  V30 8363 H 802.381 2.90387 -2.33465 0
M  V30 8364 H 802.494 2.39565 -4.14904 0
M  V30 8365 H 800.858 1.35646 -2.15574 0
M  V30 8366 H 801.641 0.266253 -3.42266 0
M  V30 8367 N 804.086 1.46499 0.581025 0
M  V30 8368 C 805.018 1.53225 1.70455 0
M  V30 8369 C 806.031 0.420443 1.57277 0
M  V30 8370 O 807.22 0.688888 1.64671 0
M  V30 8371 C 804.32 1.39803 3.08721 0
M  V30 8372 C 803.493 2.65132 3.47884 0
M  V30 8373 C 802.552 2.45886 4.65217 0
M  V30 8374 O 801.578 3.19615 4.70993 0
M  V30 8375 N 802.78 1.5216 5.60203 0
M  V30 8376 H 805.545 2.50098 1.65139 0
M  V30 8377 H 803.106 1.42576 0.76705 0
M  V30 8378 H 805.098 1.24697 3.8501 0
M  V30 8379 H 803.668 0.51104 3.08394 0
M  V30 8380 H 802.888 2.95169 2.61284 0
M  V30 8381 H 804.176 3.48385 3.70817 0
M  V30 8382 H 803.574 0.913646 5.58273 0
M  V30 8383 H 802.131 1.43017 6.35916 0
M  V30 8384 N 805.565 -0.825799 1.34232 0
M  V30 8385 C 806.811 -1.58419 1.26614 0
M  V30 8386 C 807.144 -1.93503 -0.164341 0
M  V30 8387 O 806.419 -1.59785 -1.109 0
M  V30 8388 C 806.702 -2.8856 2.15418 0
M  V30 8389 C 806.555 -2.60075 3.66989 0
M  V30 8390 C 807.874 -3.90107 2.03726 0
M  V30 8391 H 804.993 -0.574794 0.461282 0
M  V30 8392 H 807.635 -0.951519 1.64457 0
M  V30 8393 H 805.785 -3.42553 1.83275 0
M  V30 8394 H 807.457 -2.12414 4.09485 0
M  V30 8395 H 805.7 -1.93565 3.88221 0
M  V30 8396 H 806.371 -3.52866 4.24488 0
M  V30 8397 H 808.847 -3.45459 2.31942 0
M  V30 8398 H 807.723 -4.78976 2.68092 0
M  V30 8399 H 807.984 -4.30329 1.01337 0
M  V30 8400 N 807.043 -1.17915 -1.04565 0
M  V30 8401 C 808.292 -0.965816 -1.77073 0
M  V30 8402 C 808.605 0.506005 -1.88942 0
M  V30 8403 O 809.811 0.837717 -2.58253 0
M  V30 8404 C 808.267 -1.67894 -3.18339 0
M  V30 8405 C 807.875 -3.18972 -3.1458 0
M  V30 8406 C 809.619 -1.54823 -3.9526 0
M  V30 8407 C 807.526 -3.82946 -4.50674 0
M  V30 8408 H 806.456 -0.357729 -0.663736 0
M  V30 8409 H 809.107 -1.41235 -1.17153 0
M  V30 8410 H 807.489 -1.16016 -3.78624 0
M  V30 8411 H 808.663 -3.77835 -2.63776 0
M  V30 8412 H 806.978 -3.32127 -2.51159 0
M  V30 8413 H 809.575 -1.99984 -4.95894 0
M  V30 8414 H 809.918 -0.499727 -4.1329 0
M  V30 8415 H 810.451 -2.03953 -3.41538 0
M  V30 8416 H 807.19 -4.8782 -4.37849 0
M  V30 8417 H 806.71 -3.2887 -5.01602 0
M  V30 8418 H 808.389 -3.85518 -5.196 0
M  V30 8419 N 808.521 1.23394 -0.980386 0
M  V30 8420 C 809.468 2.24859 -0.520298 0
M  V30 8421 C 810.438 1.60144 0.440821 0
M  V30 8422 O 811.623 1.87593 0.348369 0
M  V30 8423 C 808.763 3.44675 0.171145 0
M  V30 8424 C 807.876 4.23947 -0.830233 0
M  V30 8425 C 807.011 5.31079 -0.113597 0
M  V30 8426 C 806.05 6.02058 -1.10419 0
M  V30 8427 N 805.187 7.00862 -0.416709 0
M  V30 8428 H 810.027 2.63579 -1.39032 0
M  V30 8429 H 807.564 1.29556 -0.696682 0
M  V30 8430 H 809.522 4.13024 0.588838 0
M  V30 8431 H 808.152 3.06755 1.00504 0
M  V30 8432 H 807.204 3.55016 -1.36631 0
M  V30 8433 H 808.516 4.72945 -1.58508 0
M  V30 8434 H 807.67 6.05622 0.36146 0
M  V30 8435 H 806.409 4.83022 0.673854 0
M  V30 8436 H 805.414 5.26307 -1.59 0
M  V30 8437 H 806.639 6.52203 -1.8923 0
M  V30 8438 H 804.585 6.55057 0.351535 0
M  V30 8439 H 804.502 7.47804 -1.11021 0
M  V30 8440 H 805.77 7.79492 0.0359606 0
M  V30 8441 N 809.999 0.752036 1.385 0
M  V30 8442 C 810.909 0.125318 2.34265 0
M  V30 8443 C 811.925 -0.702437 1.59191 0
M  V30 8444 O 813.101 -0.626951 1.91393 0
M  V30 8445 C 810.166 -0.758486 3.38301 0
M  V30 8446 C 809.227 0.0834636 4.29219 0
M  V30 8447 C 808.46 -0.758252 5.28286 0
M  V30 8448 O 808.683 -1.99632 5.34325 0
M  V30 8449 O 807.617 -0.177878 6.01637 0
M  V30 8450 H 811.443 0.91617 2.89551 0
M  V30 8451 H 809.028 0.512911 1.4032 0
M  V30 8452 H 810.91 -1.26365 4.02007 0
M  V30 8453 H 809.585 -1.52786 2.85374 0
M  V30 8454 H 808.492 0.634545 3.68679 0
M  V30 8455 H 809.825 0.815455 4.85398 0
M  V30 8456 N 811.477 -1.49425 0.500989 0
M  V30 8457 C 812.705 -2.06861 -0.0403443 0
M  V30 8458 C 813.12 -1.36132 -1.30819 0
M  V30 8459 O 812.477 -0.439647 -1.77125 0
M  V30 8460 C 812.528 -3.6027 -0.297902 0
M  V30 8461 O 812.249 -4.28338 0.919686 0
M  V30 8462 C 813.75 -4.34419 -0.882876 0
M  V30 8463 H 810.97 -0.670688 0.0204619 0
M  V30 8464 H 813.514 -1.92207 0.698342 0
M  V30 8465 H 811.669 -3.74627 -0.98657 0
M  V30 8466 H 812.083 -5.2004 0.682528 0
M  V30 8467 H 813.557 -5.42631 -1.01268 0
M  V30 8468 H 814.034 -3.96898 -1.88066 0
M  V30 8469 H 814.64 -4.24669 -0.231677 0
M  V30 8470 N 812.955 -0.234822 -1.55841 0
M  V30 8471 C 813.905 0.68346 -2.17515 0
M  V30 8472 C 814.889 1.14798 -1.1274 0
M  V30 8473 O 816.081 1.09976 -1.38688 0
M  V30 8474 C 813.21 1.88551 -2.86886 0
M  V30 8475 C 812.296 1.44006 -3.98903 0
M  V30 8476 N 812.687 0.708034 -5.0082 0
M  V30 8477 C 810.985 1.7263 -4.11236 0
M  V30 8478 C 811.686 0.479036 -5.79724 0
M  V30 8479 N 810.662 1.03968 -5.33565 0
M  V30 8480 H 814.464 0.115897 -2.93671 0
M  V30 8481 H 811.978 -0.0366273 -1.62359 0
M  V30 8482 H 813.975 2.55425 -3.2949 0
M  V30 8483 H 812.635 2.45742 -2.12229 0
M  V30 8484 H 813.646 0.359363 -5.16652 0
M  V30 8485 H 810.323 2.31046 -3.47741 0
M  V30 8486 H 811.713 -0.104514 -6.71819 0
M  V30 8487 N 814.433 1.57553 0.0384317 0
M  V30 8488 C 815.38 2.05942 1.04194 0
M  V30 8489 C 816.35 0.946637 1.36484 0
M  V30 8490 O 817.535 1.21658 1.46983 0
M  V30 8491 C 814.675 2.53588 2.34066 0
M  V30 8492 C 813.788 3.7862 2.08017 0
M  V30 8493 C 812.923 4.14915 3.31692 0
M  V30 8494 C 811.962 5.32891 3.01155 0
M  V30 8495 N 811.099 5.64662 4.17254 0
M  V30 8496 H 815.939 2.91429 0.622341 0
M  V30 8497 H 813.476 1.44098 0.295684 0
M  V30 8498 H 815.434 2.79276 3.09937 0
M  V30 8499 H 814.064 1.71031 2.73767 0
M  V30 8500 H 813.116 3.60073 1.22686 0
M  V30 8501 H 814.428 4.64613 1.81484 0
M  V30 8502 H 813.582 4.41681 4.15936 0
M  V30 8503 H 812.321 3.27555 3.6133 0
M  V30 8504 H 811.326 5.05887 2.15311 0
M  V30 8505 H 812.551 6.21896 2.72804 0
M  V30 8506 H 810.497 4.80261 4.46861 0
M  V30 8507 H 810.414 6.45145 3.94112 0
M  V30 8508 H 811.682 5.96 5.02399 0
M  V30 8509 N 815.911 -0.310526 1.54511 0
M  V30 8510 C 817.322 -0.884142 1.64438 0
M  V30 8511 C 817.673 -1.88425 0.546855 0
M  V30 8512 O 816.798 -2.14049 -0.31811 0
M  V30 8513 C 817.393 -1.6104 2.9808 0
M  V30 8514 C 815.952 -2.13255 3.1016 0
M  V30 8515 C 815.099 -0.96213 2.60074 0
M  V30 8516 H 818.05 -0.0877666 1.58457 0
M  V30 8517 H 818.071 -2.47541 2.8897 0
M  V30 8518 H 817.583 -0.882255 3.77939 0
M  V30 8519 H 815.684 -2.89145 2.35002 0
M  V30 8520 H 815.797 -2.37361 4.16169 0
M  V30 8521 H 814.161 -1.34501 2.16291 0
M  V30 8522 H 814.944 -0.248098 3.42402 0
M  V30 8523 N 817.389 -1.46805 -0.573248 0
M  V30 8524 C 818.319 -1.60951 -1.69165 0
M  V30 8525 C 819.3 -0.45948 -1.63777 0
M  V30 8526 O 820.485 -0.68688 -1.81647 0
M  V30 8527 C 817.615 -1.60844 -3.07809 0
M  V30 8528 C 816.569 -2.74913 -3.28035 0
M  V30 8529 C 815.895 -2.59871 -4.67302 0
M  V30 8530 C 817.195 -4.16654 -3.14955 0
M  V30 8531 H 818.889 -2.54574 -1.57582 0
M  V30 8532 H 816.435 -1.22516 -0.756686 0
M  V30 8533 H 818.388 -1.69334 -3.85881 0
M  V30 8534 H 817.112 -0.637714 -3.20314 0
M  V30 8535 H 815.771 -2.65908 -2.52366 0
M  V30 8536 H 815.419 -1.60861 -4.76585 0
M  V30 8537 H 815.119 -3.36386 -4.81786 0
M  V30 8538 H 816.643 -2.70265 -5.4753 0
M  V30 8539 H 818.057 -4.26721 -3.82861 0
M  V30 8540 H 816.454 -4.93831 -3.40956 0
M  V30 8541 H 817.524 -4.36146 -2.11908 0
M  V30 8542 N 818.867 0.818669 -1.34668 0
M  V30 8543 C 820.115 1.57201 -1.27013 0
M  V30 8544 C 820.436 1.94354 0.158599 0
M  V30 8545 O 819.706 1.62626 1.09223 0
M  V30 8546 H 818.286 0.582919 -0.467135 0
M  V30 8547 H 820.948 0.977234 -1.6863 0
M  V30 8548 H 820.044 2.49291 -1.87778 0
M  V30 8549 N 820.346 1.18468 1.03938 0
M  V30 8550 C 821.623 0.890435 1.74157 0
M  V30 8551 C 822.003 -0.606409 2.02203 0
M  V30 8552 O 821.351 -1.5615 1.66822 0
M  V30 8553 C 821.561 1.73906 3.02585 0
M  V30 8554 C 822.909 1.96686 3.76297 0
M  V30 8555 O 823.933 1.70969 3.12487 0
M  V30 8556 O 822.792 2.39986 4.90988 0
M  V30 8557 H 819.886 0.330889 0.757919 0
M  V30 8558 H 822.432 1.29228 1.09992 0
M  V30 8559 H 821.204 2.75369 2.78006 0
M  V30 8560 H 820.827 1.33581 3.74489 0
M  V30 8561 N 821.824 -1.22873 0.986916 0
M  V30 8562 C 823.07 -1.92047 0.670042 0
M  V30 8563 C 823.425 -1.75497 -0.788587 0
M  V30 8564 O 822.718 -1.10934 -1.56218 0
M  V30 8565 C 822.912 -3.43014 1.00379 0
M  V30 8566 C 822.741 -3.74251 2.49332 0
M  V30 8567 C 821.511 -3.94589 3.15638 0
M  V30 8568 C 823.709 -3.79208 3.47428 0
M  V30 8569 N 821.691 -4.13086 4.54129 0
M  V30 8570 C 823.062 -4.02775 4.71352 0
M  V30 8571 C 825.117 -3.62029 3.41818 0
M  V30 8572 C 823.82 -4.10946 5.90352 0
M  V30 8573 C 825.846 -3.71457 4.60189 0
M  V30 8574 C 825.208 -3.95468 5.82911 0
M  V30 8575 H 821.307 -0.723668 0.29636 0
M  V30 8576 H 823.891 -1.47946 1.26571 0
M  V30 8577 H 822.062 -3.85936 0.436762 0
M  V30 8578 H 823.794 -3.99551 0.643522 0
M  V30 8579 H 820.549 -3.91762 2.66119 0
M  V30 8580 H 820.973 -4.26275 5.25945 0
M  V30 8581 H 825.615 -3.42457 2.47958 0
M  V30 8582 H 823.333 -4.29324 6.84621 0
M  V30 8583 H 826.919 -3.59511 4.57431 0
M  V30 8584 H 825.799 -4.02584 6.72975 0
M  V30 8585 N 823.302 -0.75937 -1.38099 0
M  V30 8586 C 824.527 -0.327859 -2.04792 0
M  V30 8587 C 824.952 1.03752 -1.56899 0
M  V30 8588 O 824.31 1.66235 -0.723581 0
M  V30 8589 C 824.358 -0.366264 -3.58735 0
M  V30 8590 O 823.462 0.637697 -4.0744 0
M  V30 8591 H 822.803 -0.144092 -0.648177 0
M  V30 8592 H 825.333 -1.03211 -1.7666 0
M  V30 8593 H 825.343 -0.219179 -4.07411 0
M  V30 8594 H 824.018 -1.36243 -3.92951 0
M  V30 8595 H 822.595 0.454749 -3.70117 0
M  V30 8596 N 824.78 1.49157 -0.508906 0
M  V30 8597 C 826.01 2.06579 0.0293308 0
M  V30 8598 C 826.418 1.36852 1.30645 0
M  V30 8599 O 825.761 0.443079 1.78276 0
M  V30 8600 C 825.823 3.57838 0.345296 0
M  V30 8601 C 825.487 4.49302 -0.835256 0
M  V30 8602 C 826.484 4.90345 -1.72793 0
M  V30 8603 C 824.169 4.91494 -1.0363 0
M  V30 8604 C 826.163 5.72327 -2.80573 0
M  V30 8605 C 823.85 5.7325 -2.11726 0
M  V30 8606 C 824.848 6.13572 -3.00032 0
M  V30 8607 O 824.536 6.93691 -4.06261 0
M  V30 8608 H 824.268 0.675679 -0.0208193 0
M  V30 8609 H 826.822 1.9282 -0.707789 0
M  V30 8610 H 825.052 3.69634 1.13612 0
M  V30 8611 H 826.741 3.97467 0.823089 0
M  V30 8612 H 827.507 4.58388 -1.58446 0
M  V30 8613 H 823.386 4.59605 -0.358308 0
M  V30 8614 H 826.93 6.03719 -3.49527 0
M  V30 8615 H 822.827 6.0462 -2.26065 0
M  V30 8616 H 823.595 7.12011 -4.03711 0
M  V30 8617 N 826.258 0.243083 1.55714 0
M  V30 8618 C 827.221 -0.644723 2.19945 0
M  V30 8619 C 828.221 -1.10562 1.16759 0
M  V30 8620 O 829.411 -1.01095 1.41865 0
M  V30 8621 C 826.543 -1.88569 2.83997 0
M  V30 8622 H 827.736 -0.0843839 2.99781 0
M  V30 8623 H 825.289 -0.00647246 1.56299 0
M  V30 8624 H 826.024 -2.48736 2.08089 0
M  V30 8625 H 825.809 -1.56345 3.59581 0
M  V30 8626 H 827.299 -2.51774 3.33166 0
M  V30 8627 N 827.736 -1.57571 -0.0300757 0
M  V30 8628 C 828.966 -1.93204 -0.731828 0
M  V30 8629 C 829.374 -0.841156 -1.69473 0
M  V30 8630 O 828.717 0.191231 -1.82702 0
M  V30 8631 C 828.779 -3.2463 -1.54453 0
M  V30 8632 C 828.443 -4.50862 -0.746507 0
M  V30 8633 C 829.44 -5.19879 -0.0472309 0
M  V30 8634 C 827.125 -4.9738 -0.701347 0
M  V30 8635 C 829.119 -6.33692 0.686518 0
M  V30 8636 C 826.806 -6.11089 0.036148 0
M  V30 8637 C 827.804 -6.791 0.728841 0
M  V30 8638 O 827.492 -7.90635 1.45436 0
M  V30 8639 H 827.224 -0.6423 -0.210775 0
M  V30 8640 H 829.778 -2.05398 0.00804194 0
M  V30 8641 H 828.008 -3.0876 -2.32818 0
M  V30 8642 H 829.697 -3.45597 -2.1288 0
M  V30 8643 H 830.463 -4.84945 -0.0731582 0
M  V30 8644 H 826.342 -4.44288 -1.23001 0
M  V30 8645 H 829.886 -6.86711 1.22773 0
M  V30 8646 H 825.783 -6.45468 0.064002 0
M  V30 8647 H 826.551 -8.06988 1.36794 0
M  V30 8648 N 829.214 0.302327 -1.54673 0
M  V30 8649 C 830.147 1.39738 -1.80412 0
M  V30 8650 C 831.125 1.48813 -0.655241 0
M  V30 8651 O 832.309 1.65895 -0.89505 0
M  V30 8652 C 829.436 2.7766 -1.93966 0
M  V30 8653 C 828.482 2.86014 -3.16383 0
M  V30 8654 S 829.315 2.48246 -4.74483 0
M  V30 8655 C 830.471 3.88198 -4.90971 0
M  V30 8656 H 830.704 1.17696 -2.73011 0
M  V30 8657 H 828.237 0.500364 -1.46068 0
M  V30 8658 H 830.195 3.571 -2.0246 0
M  V30 8659 H 828.856 2.96971 -1.02307 0
M  V30 8660 H 828.049 3.87174 -3.22664 0
M  V30 8661 H 827.651 2.14568 -3.06328 0
M  V30 8662 H 829.943 4.83181 -4.74913 0
M  V30 8663 H 830.886 3.86887 -5.93063 0
M  V30 8664 H 831.294 3.78139 -4.19131 0
M  V30 8665 N 830.692 1.47107 0.565454 0
M  V30 8666 C 831.624 1.55024 1.6882 0
M  V30 8667 C 832.637 0.4371 1.56822 0
M  V30 8668 O 833.826 0.706315 1.63931 0
M  V30 8669 C 830.926 1.43069 3.0722 0
M  V30 8670 C 830.099 2.68807 3.45053 0
M  V30 8671 C 829.158 2.50806 4.62583 0
M  V30 8672 O 828.184 3.24593 4.67577 0
M  V30 8673 N 829.386 1.58093 5.58558 0
M  V30 8674 H 832.151 2.51836 1.62477 0
M  V30 8675 H 829.712 1.43382 0.751885 0
M  V30 8676 H 831.704 1.28773 3.83666 0
M  V30 8677 H 830.274 0.543721 3.07835 0
M  V30 8678 H 829.494 2.97923 2.58138 0
M  V30 8679 H 830.782 3.52298 3.67101 0
M  V30 8680 H 830.18 0.972807 5.57273 0
M  V30 8681 H 828.737 1.49753 6.34364 0
M  V30 8682 O 832.209 -0.709987 1.45057 0
M  V30 8683 H 832.9 -1.36112 1.37816 0
M  V30 END ATOM
M  V30 BEGIN BOND
M  V30 END BOND
M  V30 END CTAB
M  END
$$$$
