drugbank_target|P30084 Enoyl-CoA hydratase, mitochondrial (DB02563; DB02910; DB03059; DB04117; DB09568)
 OpenBabel12092120543D

  0  0  0     0  0            999 V3000
M  V30 BEGIN CTAB
M  V30 COUNTS 4441 4475 0 0 0
M  V30 BEGIN ATOM
M  V30 1 H -0.908 1.98254 -0.117106 0
M  V30 2 N 0 1.576 0 0
M  V30 3 C 0.933 2.03868 1.02534 0
M  V30 4 C 1.911 0.928543 1.3348 0
M  V30 5 O 3.095 1.19667 1.45644 0
M  V30 6 C 0.222 2.43627 2.35294 0
M  V30 7 C -0.732 3.65373 2.2001 0
M  V30 8 S 0.101 5.13292 1.52614 0
M  V30 9 C 1.257 5.56322 2.86805 0
M  V30 10 H 1.49 2.90518 0.631377 0
M  V30 11 H -0.977 1.52953 0.210867 0
M  V30 12 H 0.981 2.67203 3.11629 0
M  V30 13 H -0.358 1.57376 2.7183 0
M  V30 14 H -1.165 3.90944 3.18086 0
M  V30 15 H -1.563 3.418 1.51819 0
M  V30 16 H 0.729 5.58782 3.83104 0
M  V30 17 H 1.672 6.56266 2.65933 0
M  V30 18 H 2.08 4.83886 2.90714 0
M  V30 19 N 1.4781 -0.272755 1.55222 0
M  V30 20 C 2.4411 -1.32041 1.87344 0
M  V30 21 C 3.4411 -1.42342 0.74803 0
M  V30 22 O 4.6311 -1.41488 1.0162 0
M  V30 23 C 1.7631 -2.70173 2.07893 0
M  V30 24 H 2.9561 -1.04789 2.80997 0
M  V30 25 H 0.5091 -0.51083 1.47717 0
M  V30 26 H 1.2441 -3.02605 1.16622 0
M  V30 27 H 1.0291 -2.64082 2.89833 0
M  V30 28 H 2.5191 -3.45869 2.34017 0
M  V30 29 N 2.9562 -1.48159 -0.537278 0
M  V30 30 C 3.9192 -1.61665 -1.62472 0
M  V30 31 C 4.9192 -0.490395 -1.5314 0
M  V30 32 O 6.1092 -0.755998 -1.5694 0
M  V30 33 C 3.2412 -1.57997 -3.02076 0
M  V30 34 H 4.4342 -2.58621 -1.51839 0
M  V30 35 H 1.9872 -1.36647 -0.758771 0
M  V30 36 H 2.7222 -0.624913 -3.18222 0
M  V30 37 H 2.5072 -2.39755 -3.10258 0
M  V30 38 H 3.9972 -1.70627 -3.81151 0
M  V30 39 N 4.4343 0.785586 -1.36625 0
M  V30 40 C 5.3643 1.91259 -1.33949 0
M  V30 41 C 6.3453 1.68795 -0.210325 0
M  V30 42 O 7.5303 1.89854 -0.408561 0
M  V30 43 C 4.6603 3.28339 -1.13186 0
M  V30 44 C 3.6143 3.65335 -2.22967 0
M  V30 45 C 2.9403 5.00806 -1.87342 0
M  V30 46 C 4.2403 3.7352 -3.65075 0
M  V30 47 H 5.9343 1.93755 -2.28253 0
M  V30 48 H 3.4803 0.930788 -1.09874 0
M  V30 49 H 5.4333 4.06804 -1.09948 0
M  V30 50 H 4.1573 3.2624 -0.153332 0
M  V30 51 H 2.8163 2.89169 -2.25337 0
M  V30 52 H 2.4643 4.95233 -0.880545 0
M  V30 53 H 2.1643 5.26529 -2.60846 0
M  V30 54 H 3.6883 5.81687 -1.85667 0
M  V30 55 H 5.1023 4.42168 -3.64911 0
M  V30 56 H 3.4993 4.10731 -4.37516 0
M  V30 57 H 4.5693 2.74527 -3.99703 0
M  V30 58 N 5.9124 1.20967 1.01018 0
M  V30 59 C 7.3284 0.965905 1.27053 0
M  V30 60 C 7.5284 -0.350785 1.98423 0
M  V30 61 O 6.5844 -1.07773 2.28344 0
M  V30 62 C 7.8974 2.15294 2.09926 0
M  V30 63 C 9.4454 2.19463 2.23171 0
M  V30 64 C 9.9204 3.3767 3.09424 0
M  V30 65 N 11.4114 3.37724 3.17012 0
M  V30 66 C 12.1464 4.25837 3.83993 0
M  V30 67 N 11.6424 5.24138 4.53047 0
M  V30 68 N 13.4354 4.1366 3.80581 0
M  V30 69 H 5.5864 2.0565 0.531194 0
M  V30 70 H 7.8494 0.90024 0.297106 0
M  V30 71 H 7.5554 3.10684 1.64828 0
M  V30 72 H 7.4294 2.13923 3.10672 0
M  V30 73 H 9.8164 1.24632 2.6749 0
M  V30 74 H 9.8974 2.2488 1.21912 0
M  V30 75 H 9.5414 4.32791 2.65808 0
M  V30 76 H 9.4714 3.29491 4.10784 0
M  V30 77 H 11.9624 2.6658 2.6785 0
M  V30 78 H 12.2754 5.87684 5.01844 0
M  V30 79 H 10.6204 5.28068 4.5185 0
M  V30 80 H 13.8114 3.36127 3.25785 0
M  V30 81 H 13.9844 4.82538 4.32505 0
M  V30 82 N 7.3905 -1.2043 1.01659 0
M  V30 83 C 8.6365 -1.90079 0.706963 0
M  V30 84 C 8.9695 -1.78648 -0.761474 0
M  V30 85 O 8.2445 -1.17069 -1.55323 0
M  V30 86 C 8.5275 -3.41469 1.14327 0
M  V30 87 C 8.3805 -3.61833 2.67201 0
M  V30 88 C 9.6995 -4.34261 0.714529 0
M  V30 89 H 6.8185 -0.690254 0.2583 0
M  V30 90 H 9.4605 -1.41826 1.26433 0
M  V30 91 H 7.6105 -3.82696 0.669056 0
M  V30 92 H 9.2825 -3.2986 3.22475 0
M  V30 93 H 7.5255 -3.05304 3.08175 0
M  V30 94 H 8.1965 -4.67955 2.92783 0
M  V30 95 H 10.6725 -4.00682 1.12221 0
M  V30 96 H 9.5485 -5.38806 1.04784 0
M  V30 97 H 9.8095 -4.40431 -0.383799 0
M  V30 98 N 8.8686 -0.792821 -1.36206 0
M  V30 99 C 9.7986 -0.207853 -2.32573 0
M  V30 100 C 10.7796 0.659055 -1.56813 0
M  V30 101 O 11.9646 0.592176 -1.84951 0
M  V30 102 C 9.0946 0.655449 -3.41059 0
M  V30 103 C 8.0486 -0.111842 -4.27854 0
M  V30 104 C 7.3746 0.872274 -5.27537 0
M  V30 105 C 8.6746 -1.30299 -5.05786 0
M  V30 106 H 10.3686 -1.01294 -2.81744 0
M  V30 107 H 7.9146 -0.48854 -1.3546 0
M  V30 108 H 9.8676 1.07464 -4.07467 0
M  V30 109 H 8.5916 1.49328 -2.90463 0
M  V30 110 H 7.2506 -0.512053 -3.63006 0
M  V30 111 H 6.8986 1.70523 -4.73214 0
M  V30 112 H 6.5986 0.363291 -5.86476 0
M  V30 113 H 8.1226 1.28996 -5.96818 0
M  V30 114 H 9.5366 -0.959379 -5.65216 0
M  V30 115 H 7.9336 -1.7455 -5.74154 0
M  V30 116 H 9.0036 -2.09663 -4.37229 0
M  V30 117 N 10.3467 1.47872 -0.545128 0
M  V30 118 C 11.2767 2.32661 0.197793 0
M  V30 119 C 12.2577 1.43041 0.920504 0
M  V30 120 O 13.4427 1.71912 0.90333 0
M  V30 121 C 10.5727 3.24569 1.23582 0
M  V30 122 C 9.5267 4.23333 0.630323 0
M  V30 123 C 8.8527 5.0448 1.77211 0
M  V30 124 C 10.1527 5.20704 -0.407974 0
M  V30 125 H 11.8467 2.95024 -0.510045 0
M  V30 126 H 9.3927 1.4187 -0.246731 0
M  V30 127 H 11.3457 3.8272 1.76362 0
M  V30 128 H 10.0697 2.60236 1.97344 0
M  V30 129 H 8.7287 3.6639 0.123922 0
M  V30 130 H 8.3767 4.36561 2.49847 0
M  V30 131 H 8.0767 5.71339 1.37281 0
M  V30 132 H 9.6007 5.65487 2.3034 0
M  V30 133 H 11.0147 5.7329 0.033305 0
M  V30 134 H 9.4117 5.95699 -0.725486 0
M  V30 135 H 10.4817 4.66917 -1.30828 0
M  V30 136 N 11.8248 0.280983 1.55075 0
M  V30 137 C 13.0498 -0.340154 2.04592 0
M  V30 138 C 13.4748 -1.48246 1.15779 0
M  V30 139 O 12.8328 -1.80614 0.15761 0
M  V30 140 C 12.8808 -0.793104 3.5177 0
M  V30 141 O 11.9848 -1.89981 3.66034 0
M  V30 142 H 11.3258 -0.0694289 0.66036 0
M  V30 143 H 13.8558 0.416993 2.00306 0
M  V30 144 H 13.8658 -1.08729 3.93245 0
M  V30 145 H 12.5408 0.0426163 4.15878 0
M  V30 146 H 11.1178 -1.60771 3.36463 0
M  V30 147 N 13.3029 -1.57598 0.00835791 0
M  V30 148 C 14.5429 -1.92788 -0.679136 0
M  V30 149 C 14.9069 -0.883378 -1.70471 0
M  V30 150 O 16.1079 -1.12079 -2.44319 0
M  V30 151 C 14.3789 -3.32994 -1.29807 0
M  V30 152 S 15.9379 -3.90082 -2.00952 0
M  V30 153 H 12.7559 -0.67475 -0.224127 0
M  V30 154 H 15.3579 -1.95385 0.0670497 0
M  V30 155 H 14.0619 -4.06846 -0.538922 0
M  V30 156 H 13.5929 -3.33791 -2.082 0
M  V30 157 H 15.6079 -3.71834 -3.28563 0
M  V30 158 N 14.781 0.264519 -1.55364 0
M  V30 159 C 16.027 0.99646 -1.76631 0
M  V30 160 C 16.36 1.85632 -0.570478 0
M  V30 161 O 15.635 1.89647 0.43175 0
M  V30 162 C 15.918 1.87187 -3.07625 0
M  V30 163 C 15.771 1.04138 -4.37579 0
M  V30 164 C 17.09 2.85749 -3.34717 0
M  V30 165 H 14.209 0.360841 -0.642622 0
M  V30 166 H 16.851 0.268218 -1.88097 0
M  V30 167 H 15.001 2.49279 -2.9798 0
M  V30 168 H 16.673 0.440517 -4.59192 0
M  V30 169 H 14.916 0.345115 -4.32425 0
M  V30 170 H 15.587 1.68729 -5.2558 0
M  V30 171 H 18.063 2.33793 -3.4421 0
M  V30 172 H 16.939 3.44136 -4.27623 0
M  V30 173 H 17.2 3.61311 -2.54768 0
M  V30 174 N 16.2591 1.48442 0.529413 0
M  V30 175 C 17.6751 1.34575 0.858004 0
M  V30 176 C 17.8751 0.3572 1.98309 0
M  V30 177 O 16.9311 -0.221379 2.51528 0
M  V30 178 C 18.2441 2.74617 1.22499 0
M  V30 179 C 19.7921 2.83109 1.33484 0
M  V30 180 C 20.2671 4.23854 1.73526 0
M  V30 181 N 21.7581 4.2653 1.80628 0
M  V30 182 C 22.4931 5.32372 2.12997 0
M  V30 183 N 21.9891 6.48491 2.43786 0
M  V30 184 N 23.7821 5.19766 2.14008 0
M  V30 185 H 15.9331 2.1133 -0.212925 0
M  V30 186 H 18.1961 0.947439 -0.0326199 0
M  V30 187 H 17.9021 3.4852 0.471905 0
M  V30 188 H 17.7761 3.08177 2.17501 0
M  V30 189 H 20.1631 2.09462 2.0787 0
M  V30 190 H 20.2441 2.53168 0.366027 0
M  V30 191 H 19.8881 4.98018 0.997013 0
M  V30 192 H 19.8181 4.5124 2.71459 0
M  V30 193 H 22.3091 3.42772 1.59108 0
M  V30 194 H 22.6221 7.24993 2.67592 0
M  V30 195 H 20.9671 6.51765 2.41304 0
M  V30 196 H 24.1581 4.28066 1.89412 0
M  V30 197 H 24.3311 6.02354 2.38902 0
M  V30 198 N 17.7372 -0.778329 1.37039 0
M  V30 199 C 18.9852 -1.53361 1.31623 0
M  V30 200 C 19.3062 -1.94739 -0.100831 0
M  V30 201 O 18.5762 -1.65797 -1.04347 0
M  V30 202 H 17.1562 -0.568794 0.484234 0
M  V30 203 H 19.8182 -0.926742 1.71457 0
M  V30 204 H 18.9142 -2.43606 1.95096 0
M  V30 205 N 19.2153 -1.21501 -1.00376 0
M  V30 206 C 20.6263 -1.03146 -1.55621 0
M  V30 207 C 20.9773 0.408375 -1.91903 0
M  V30 208 O 20.1023 1.29177 -1.73616 0
M  V30 209 C 20.6973 -1.86612 -2.82775 0
M  V30 210 C 19.2563 -1.72586 -3.34501 0
M  V30 211 C 18.4033 -1.83747 -2.07683 0
M  V30 212 H 21.3543 -1.35505 -0.826081 0
M  V30 213 H 21.3753 -1.3771 -3.54706 0
M  V30 214 H 20.8873 -2.91399 -2.56336 0
M  V30 215 H 18.9883 -0.704877 -3.65872 0
M  V30 216 H 19.1013 -2.54623 -4.05837 0
M  V30 217 H 17.4653 -1.27069 -2.20739 0
M  V30 218 H 18.2483 -2.90044 -1.83655 0
M  V30 219 N 20.6934 1.19889 -1.02296 0
M  V30 220 C 21.6234 2.25141 -0.619174 0
M  V30 221 C 22.6044 1.66051 0.368915 0
M  V30 222 O 23.7894 1.92546 0.252941 0
M  V30 223 C 20.9194 3.4728 0.0368783 0
M  V30 224 C 19.8734 4.19005 -0.872865 0
M  V30 225 C 19.1994 5.34637 -0.0822402 0
M  V30 226 C 20.4994 4.74452 -2.18387 0
M  V30 227 H 22.1934 2.59171 -1.49903 0
M  V30 228 H 19.7394 1.24579 -0.722222 0
M  V30 229 H 21.6924 4.20098 0.330958 0
M  V30 230 H 20.4164 3.12433 0.95149 0
M  V30 231 H 19.0754 3.48061 -1.15105 0
M  V30 232 H 18.7234 4.96034 0.83422 0
M  V30 233 H 18.4234 5.83557 -0.688149 0
M  V30 234 H 19.9474 6.10255 0.205238 0
M  V30 235 H 21.3614 5.39055 -1.95172 0
M  V30 236 H 19.7584 5.33834 -2.74119 0
M  V30 237 H 20.8284 3.92844 -2.84257 0
M  V30 238 N 22.1715 0.800033 1.35784 0
M  V30 239 C 23.5875 0.482977 1.52117 0
M  V30 240 C 23.7875 -0.996948 1.75109 0
M  V30 241 O 22.8435 -1.78216 1.78872 0
M  V30 242 C 24.1565 1.32264 2.70049 0
M  V30 243 C 25.7045 1.31742 2.83924 0
M  V30 244 C 26.1795 2.14106 4.04874 0
M  V30 245 N 27.6705 2.11607 4.12039 0
M  V30 246 C 28.4055 2.72099 5.04727 0
M  V30 247 N 27.9015 3.41492 6.02789 0
M  V30 248 N 29.6945 2.61776 4.97423 0
M  V30 249 H 21.8455 1.75856 1.19115 0
M  V30 250 H 24.1085 0.748122 0.582252 0
M  V30 251 H 23.8145 2.37261 2.59616 0
M  V30 252 H 23.6885 0.971303 3.6448 0
M  V30 253 H 26.0755 0.275333 2.93813 0
M  V30 254 H 26.1565 1.70859 1.9037 0
M  V30 255 H 25.8005 3.18351 3.95746 0
M  V30 256 H 25.7305 1.72353 4.97596 0
M  V30 257 H 28.2215 1.61112 3.41835 0
M  V30 258 H 28.5345 3.84953 6.70098 0
M  V30 259 H 26.8795 3.45596 6.02983 0
M  V30 260 H 30.0705 2.07157 4.19766 0
M  V30 261 H 30.2435 3.0921 5.69468 0
M  V30 262 N 23.6496 -1.47581 0.552962 0
M  V30 263 C 25.0606 -1.86324 0.118463 0
M  V30 264 C 25.4116 -1.46006 -1.3106 0
M  V30 265 O 24.5366 -0.861182 -1.98526 0
M  V30 266 C 25.1316 -3.3816 0.20821 0
M  V30 267 C 23.6906 -3.7601 -0.171226 0
M  V30 268 C 22.8376 -2.71634 0.557686 0
M  V30 269 H 25.7886 -1.39159 0.762928 0
M  V30 270 H 25.8096 -3.76141 -0.574278 0
M  V30 271 H 25.3216 -3.67473 1.24841 0
M  V30 272 H 23.4226 -3.52313 -1.21269 0
M  V30 273 H 23.5356 -4.78745 0.184379 0
M  V30 274 H 21.8996 -2.547 0.00125792 0
M  V30 275 H 22.6826 -3.0379 1.59896 0
M  V30 276 N 25.1277 -0.289203 -1.54924 0
M  V30 277 C 26.5387 0.205791 -1.85562 0
M  V30 278 C 26.8897 1.54351 -1.2112 0
M  V30 279 O 26.0147 2.10435 -0.504601 0
M  V30 280 C 26.6097 0.380177 -3.3666 0
M  V30 281 C 25.1687 0.819395 -3.67373 0
M  V30 282 C 24.3157 -0.079159 -2.77187 0
M  V30 283 H 27.2667 -0.510577 -1.50262 0
M  V30 284 H 27.2877 1.21659 -3.60526 0
M  V30 285 H 26.7997 -0.593589 -3.83534 0
M  V30 286 H 24.9007 1.80413 -3.26009 0
M  V30 287 H 25.0137 0.646957 -4.74712 0
M  V30 288 H 23.3777 0.439565 -2.50878 0
M  V30 289 H 24.1607 -1.04906 -3.26878 0
M  V30 290 N 26.6058 1.57591 -0.0167156 0
M  V30 291 C 27.8518 1.91567 0.665582 0
M  V30 292 C 28.1848 0.892298 1.72487 0
M  V30 293 O 27.4598 -0.0867127 1.94307 0
M  V30 294 C 27.7428 3.36069 1.29342 0
M  V30 295 C 27.5958 4.49135 0.244541 0
M  V30 296 C 28.9148 3.803 2.21495 0
M  V30 297 H 26.0338 0.69666 0.240488 0
M  V30 298 H 28.6758 1.89866 -0.0714356 0
M  V30 299 H 26.8258 3.3765 1.92158 0
M  V30 300 H 28.4978 4.59689 -0.385228 0
M  V30 301 H 26.7408 4.3165 -0.431379 0
M  V30 302 H 27.4118 5.47242 0.723207 0
M  V30 303 H 29.8878 3.80377 1.68678 0
M  V30 304 H 28.7638 4.82127 2.62382 0
M  V30 305 H 29.0248 3.15104 3.101 0
M  V30 306 N 28.0839 -0.256276 1.55502 0
M  V30 307 C 29.4999 -0.604325 1.47716 0
M  V30 308 C 29.6999 -1.88763 0.705039 0
M  V30 309 O 28.7559 -2.51445 0.230613 0
M  V30 310 C 30.0689 -0.715756 2.92057 0
M  V30 311 C 31.6169 -0.808706 3.02372 0
M  V30 312 C 32.0919 -0.951777 4.48001 0
M  V30 313 N 33.5829 -1.01688 4.519 0
M  V30 314 C 34.3179 -1.14668 5.61817 0
M  V30 315 N 33.8139 -1.24261 6.81565 0
M  V30 316 N 35.6069 -1.1791 5.49594 0
M  V30 317 H 27.7579 0.586291 2.04148 0
M  V30 318 H 30.0209 0.201015 0.926443 0
M  V30 319 H 29.7269 0.157027 3.51349 0
M  V30 320 H 29.6009 -1.59071 3.42018 0
M  V30 321 H 31.9879 -1.67195 2.43166 0
M  V30 322 H 32.0689 0.0912063 2.55637 0
M  V30 323 H 31.7129 -0.0931291 5.07815 0
M  V30 324 H 31.6429 -1.86659 4.92408 0
M  V30 325 H 34.1339 -0.954468 3.65648 0
M  V30 326 H 34.4469 -1.34046 7.61086 0
M  V30 327 H 32.7919 -1.21236 6.84344 0
M  V30 328 H 35.9829 -1.10057 4.54978 0
M  V30 329 H 36.1559 -1.27681 6.35296 0
M  V30 330 N 29.562 -1.4872 -0.521534 0
M  V30 331 C 30.802 -1.58771 -1.28729 0
M  V30 332 C 31.166 -0.259394 -1.9024 0
M  V30 333 O 32.367 -0.234942 -2.67771 0
M  V30 334 C 30.638 -2.70039 -2.34124 0
M  V30 335 S 32.197 -2.9991 -3.20312 0
M  V30 336 H 29.015 -0.560251 -0.437767 0
M  V30 337 H 31.617 -1.86283 -0.593188 0
M  V30 338 H 30.321 -3.65101 -1.87429 0
M  V30 339 H 29.852 -2.44455 -3.08229 0
M  V30 340 H 31.867 -2.39855 -4.34378 0
M  V30 341 N 31.0401 0.771051 -1.3745 0
M  V30 342 C 32.4511 1.34737 -1.29239 0
M  V30 343 C 32.8021 1.96109 0.0596908 0
M  V30 344 O 31.9271 1.93865 0.961534 0
M  V30 345 C 32.5221 2.44973 -2.34037 0
M  V30 346 C 31.0811 2.98372 -2.29458 0
M  V30 347 C 30.2281 1.71595 -2.17831 0
M  V30 348 H 33.1791 0.571256 -1.48062 0
M  V30 349 H 33.2001 3.24471 -1.98744 0
M  V30 350 H 32.7121 2.00276 -3.32432 0
M  V30 351 H 30.8131 3.47443 -1.34589 0
M  V30 352 H 30.9261 3.53939 -3.229 0
M  V30 353 H 29.2901 1.94547 -1.64388 0
M  V30 354 H 30.0731 1.29001 -3.18141 0
M  V30 355 N 32.5182 1.22032 0.997298 0
M  V30 356 C 33.4812 0.987909 2.06816 0
M  V30 357 C 34.4812 -0.0440084 1.6074 0
M  V30 358 O 35.6712 0.194053 1.73116 0
M  V30 359 C 32.8032 0.49132 3.37341 0
M  V30 360 H 33.9962 1.93803 2.28868 0
M  V30 361 H 31.5492 1.03838 1.16822 0
M  V30 362 H 32.2842 -0.463364 3.20973 0
M  V30 363 H 32.0692 1.23575 3.72118 0
M  V30 364 H 33.5592 0.348824 4.16141 0
M  V30 365 N 33.9963 -1.19345 1.0293 0
M  V30 366 C 35.2423 -1.89585 0.736824 0
M  V30 367 C 35.5973 -1.78148 -0.726703 0
M  V30 368 O 34.8903 -1.16332 -1.52242 0
M  V30 369 C 35.0843 -3.39292 1.12319 0
M  V30 370 C 34.9133 -3.65298 2.62273 0
M  V30 371 C 33.6833 -3.83304 3.29251 0
M  V30 372 C 35.8813 -3.6682 3.60482 0
M  V30 373 N 33.8633 -3.96944 4.68304 0
M  V30 374 C 35.2343 -3.86037 4.85155 0
M  V30 375 C 37.2893 -3.49848 3.54275 0
M  V30 376 C 35.9923 -3.9004 6.04369 0
M  V30 377 C 38.0183 -3.55129 4.72903 0
M  V30 378 C 37.3803 -3.74831 5.9639 0
M  V30 379 H 33.4793 -0.712856 0.321497 0
M  V30 380 H 36.0633 -1.43427 1.31669 0
M  V30 381 H 34.2343 -3.84172 0.571524 0
M  V30 382 H 35.9663 -3.97055 0.78292 0
M  V30 383 H 32.7213 -3.82211 2.79663 0
M  V30 384 H 33.1453 -4.07613 5.40538 0
M  V30 385 H 37.7873 -3.33572 2.59788 0
M  V30 386 H 35.5053 -4.05108 6.99223 0
M  V30 387 H 39.0913 -3.43287 4.69729 0
M  V30 388 H 37.9713 -3.78792 6.86649 0
M  V30 389 N 35.4744 -0.807222 -1.35358 0
M  V30 390 C 36.8904 -0.491038 -1.51858 0
M  V30 391 C 37.0904 0.987648 -1.75635 0
M  V30 392 O 36.1464 1.77265 -1.79815 0
M  V30 393 C 37.4594 -1.33695 -2.69344 0
M  V30 394 C 39.0074 -1.33246 -2.83222 0
M  V30 395 C 39.4824 -2.1625 -4.03733 0
M  V30 396 N 40.9734 -2.1379 -4.10911 0
M  V30 397 C 41.7084 -2.74772 -5.03277 0
M  V30 398 N 41.2044 -3.44684 -6.0097 0
M  V30 399 N 42.9974 -2.6441 -4.96028 0
M  V30 400 H 35.1484 -1.76485 -1.18181 0
M  V30 401 H 37.4114 -0.751199 -0.578276 0
M  V30 402 H 37.1174 -2.38634 -2.58354 0
M  V30 403 H 36.9914 -0.990618 -3.6396 0
M  V30 404 H 39.3784 -0.290911 -2.93663 0
M  V30 405 H 39.4594 -1.71866 -1.89461 0
M  V30 406 H 39.1034 -3.20445 -3.94052 0
M  V30 407 H 39.0334 -1.74989 -4.96675 0
M  V30 408 H 41.5244 -1.62923 -3.40976 0
M  V30 409 H 41.8374 -3.88501 -6.68047 0
M  V30 410 H 40.1824 -3.48788 -6.01142 0
M  V30 411 H 43.3734 -2.0938 -4.18662 0
M  V30 412 H 43.5464 -3.12225 -5.6782 0
M  V30 413 N 36.9525 1.47285 -0.560781 0
M  V30 414 C 38.3635 1.86258 -0.128343 0
M  V30 415 C 38.7145 1.46699 1.30284 0
M  V30 416 O 37.8395 0.871698 1.98067 0
M  V30 417 C 38.4345 3.38044 -0.22614 0
M  V30 418 C 36.9935 3.76096 0.151283 0
M  V30 419 C 36.1405 2.71335 -0.572084 0
M  V30 420 H 39.0915 1.38752 -0.770297 0
M  V30 421 H 39.1125 3.76441 0.554322 0
M  V30 422 H 38.6245 3.66806 -1.26788 0
M  V30 423 H 36.7255 3.52951 1.19399 0
M  V30 424 H 36.8385 4.78641 -0.209765 0
M  V30 425 H 35.2025 2.54696 -0.0147653 0
M  V30 426 H 35.9855 3.02938 -1.61504 0
M  V30 427 N 38.4306 0.297415 1.54768 0
M  V30 428 C 39.6776 -0.312913 2.00068 0
M  V30 429 C 40.0056 -1.54171 1.18582 0
M  V30 430 O 39.2606 -1.94108 0.249133 0
M  V30 431 C 39.5596 -0.717561 3.50123 0
M  V30 432 C 39.2256 0.409095 4.4904 0
M  V30 433 C 37.8876 0.718399 4.75807 0
M  V30 434 C 40.2396 1.16717 5.07963 0
M  V30 435 C 37.5676 1.78896 5.5876 0
M  V30 436 C 39.9196 2.22762 5.92081 0
M  V30 437 C 38.5836 2.54303 6.1716 0
M  V30 438 H 37.8536 -0.114503 0.7321 0
M  V30 439 H 40.5006 0.415767 1.86932 0
M  V30 440 H 38.8056 -1.52627 3.60849 0
M  V30 441 H 40.5026 -1.20091 3.82595 0
M  V30 442 H 37.0926 0.157918 4.28309 0
M  V30 443 H 41.2766 0.941466 4.87289 0
M  V30 444 H 36.5326 2.0381 5.7643 0
M  V30 445 H 40.7066 2.81962 6.36765 0
M  V30 446 H 38.3336 3.3739 6.81229 0
M  V30 447 N 39.9087 -1.5758 0.0250728 0
M  V30 448 C 40.8717 -2.08896 -0.943139 0
M  V30 449 C 41.8717 -1.00321 -1.25668 0
M  V30 450 O 43.0617 -1.26495 -1.19769 0
M  V30 451 C 40.1937 -2.55143 -2.26086 0
M  V30 452 H 41.3867 -2.95723 -0.498775 0
M  V30 453 H 38.9397 -1.54703 -0.222888 0
M  V30 454 H 39.6747 -1.71633 -2.75159 0
M  V30 455 H 39.4597 -3.34461 -2.04641 0
M  V30 456 H 40.9497 -2.95083 -2.95492 0
M  V30 457 N 41.3868 0.248026 -1.55636 0
M  V30 458 C 42.6118 0.998028 -1.81808 0
M  V30 459 C 43.0368 1.78207 -0.601979 0
M  V30 460 O 42.3948 1.75653 0.448961 0
M  V30 461 C 42.4428 1.9125 -3.05705 0
M  V30 462 O 41.5468 3.00406 -2.82542 0
M  V30 463 H 40.8878 0.284045 -0.600179 0
M  V30 464 H 43.4178 0.269357 -2.02819 0
M  V30 465 H 43.4278 2.32737 -3.35108 0
M  V30 466 H 42.1028 1.33602 -3.93857 0
M  V30 467 H 40.6798 2.63056 -2.64303 0
M  V30 468 N 42.8649 1.48995 0.513639 0
M  V30 469 C 44.1129 1.57531 1.26604 0
M  V30 470 C 44.4339 0.258236 1.93283 0
M  V30 471 O 43.7039 -0.721502 1.8213 0
M  V30 472 H 42.2839 0.580387 0.470276 0
M  V30 473 H 44.9459 1.85552 0.596373 0
M  V30 474 H 44.0419 2.36486 2.03669 0
M  V30 475 N 44.343 -0.763751 1.37857 0
M  V30 476 C 45.306 -1.85889 1.34081 0
M  V30 477 C 46.306 -1.58949 0.243277 0
M  V30 478 O 47.496 -1.66882 0.499589 0
M  V30 479 C 44.628 -3.23176 1.08489 0
M  V30 480 H 45.821 -1.90648 2.31502 0
M  V30 481 H 43.374 -0.964367 1.23003 0
M  V30 482 H 44.109 -3.24091 0.116318 0
M  V30 483 H 43.894 -3.44124 1.8794 0
M  V30 484 H 45.384 -4.03254 1.08517 0
M  V30 485 N 45.8211 -1.22559 -0.990812 0
M  V30 486 C 46.7691 -0.994798 -2.10253 0
M  V30 487 C 47.7631 0.0627798 -1.69284 0
M  V30 488 O 48.9691 -0.0898392 -1.79776 0
M  V30 489 H 45.3441 -0.304527 -0.687581 0
M  V30 490 H 47.3151 -1.93812 -2.26891 0
M  V30 491 C 46.0641 -0.591439 -3.42633 0
M  V30 492 H 45.3871 -1.3969 -3.74602 0
M  V30 493 H 46.8271 -0.469385 -4.21394 0
M  V30 494 C 45.2861 0.699232 -3.29564 0
M  V30 495 O 45.8161 1.75112 -3.61523 0
M  V30 496 N 44.0221 0.671182 -2.82743 0
M  V30 497 H 43.5691 -0.185136 -2.56934 0
M  V30 498 H 43.5271 1.53502 -2.7438 0
M  V30 499 N 47.2992 1.18797 -1.03562 0
M  V30 500 C 48.5462 1.8865 -0.736023 0
M  V30 501 C 48.8742 1.80041 0.735889 0
M  V30 502 O 48.1292 1.19179 1.55225 0
M  V30 503 C 48.4282 3.38692 -1.14117 0
M  V30 504 C 48.0942 3.67504 -2.6125 0
M  V30 505 C 46.7562 3.75078 -3.01447 0
M  V30 506 C 49.1082 3.80293 -3.56408 0
M  V30 507 C 46.4362 3.92915 -4.35701 0
M  V30 508 C 48.7882 3.99645 -4.90374 0
M  V30 509 C 47.4522 4.05453 -5.30249 0
M  V30 510 H 46.7222 0.690321 -0.26933 0
M  V30 511 H 49.3692 1.40641 -1.29971 0
M  V30 512 H 47.6742 3.88645 -0.496202 0
M  V30 513 H 49.3712 3.91072 -0.886789 0
M  V30 514 H 45.9612 3.62223 -2.29113 0
M  V30 515 H 50.1452 3.73779 -3.26501 0
M  V30 516 H 45.4012 3.95653 -4.66121 0
M  V30 517 H 49.5752 4.08482 -5.64017 0
M  V30 518 H 47.2022 4.19027 -6.34288 0
M  V30 519 N 48.7773 0.814389 1.34928 0
M  V30 520 C 49.6873 0.231978 2.3345 0
M  V30 521 C 50.7033 -0.629139 1.62228 0
M  V30 522 O 51.8793 -0.539052 1.94052 0
M  V30 523 C 48.9443 -0.603482 3.41407 0
M  V30 524 C 48.0053 0.279037 4.28392 0
M  V30 525 C 47.2383 -0.516643 5.31193 0
M  V30 526 O 47.4613 -1.75068 5.4287 0
M  V30 527 O 46.3953 0.0965652 6.01823 0
M  V30 528 H 50.2213 1.04721 2.85074 0
M  V30 529 H 47.8063 0.576343 1.37836 0
M  V30 530 H 49.6883 -1.07908 4.0735 0
M  V30 531 H 48.3633 -1.39618 2.92042 0
M  V30 532 H 47.2703 0.801948 3.65403 0
M  V30 533 H 48.6033 1.03588 4.81176 0
M  V30 534 N 50.2554 -1.46986 0.568584 0
M  V30 535 C 51.4854 -2.0653 0.0539173 0
M  V30 536 C 51.8934 -1.42004 -1.25026 0
M  V30 537 O 51.2364 -0.514541 -1.76347 0
M  V30 538 C 51.2984 -3.58938 -0.200854 0
M  V30 539 C 50.9624 -4.45572 1.01559 0
M  V30 540 C 51.9594 -4.82986 1.92407 0
M  V30 541 C 49.6444 -4.8692 1.23346 0
M  V30 542 C 51.6384 -5.60559 3.03402 0
M  V30 543 C 49.3254 -5.64255 2.34649 0
M  V30 544 C 50.3234 -6.00986 3.24507 0
M  V30 545 O 50.0114 -6.76761 4.33878 0
M  V30 546 H 49.7434 -0.674292 0.0480234 0
M  V30 547 H 52.2974 -1.89812 0.784896 0
M  V30 548 H 50.5274 -3.73911 -0.986279 0
M  V30 549 H 52.2164 -4.0046 -0.662294 0
M  V30 550 H 52.9824 -4.51633 1.76785 0
M  V30 551 H 48.8614 -4.57789 0.543178 0
M  V30 552 H 52.4054 -5.89147 3.73565 0
M  V30 553 H 48.3024 -5.95021 2.5024 0
M  V30 554 H 49.0704 -6.95168 4.32068 0
M  V30 555 N 51.7335 -0.305618 -1.54608 0
M  V30 556 C 52.9825 0.303098 -1.9941 0
M  V30 557 C 53.2955 1.54648 -1.19764 0
M  V30 558 O 54.5015 2.23007 -1.54855 0
M  V30 559 C 52.9575 0.590588 -3.55021 0
M  V30 560 C 52.5655 -0.634719 -4.43481 0
M  V30 561 C 54.3095 1.16025 -4.08336 0
M  V30 562 C 52.2165 -0.320126 -5.90533 0
M  V30 563 H 51.1465 0.117031 -0.744862 0
M  V30 564 H 53.7975 -0.415045 -1.78745 0
M  V30 565 H 52.1795 1.36845 -3.71604 0
M  V30 566 H 53.3535 -1.41079 -4.38672 0
M  V30 567 H 51.6685 -1.12333 -4.00962 0
M  V30 568 H 54.2655 1.40994 -5.15776 0
M  V30 569 H 54.6085 2.10397 -3.5922 0
M  V30 570 H 55.1415 0.443985 -3.95315 0
M  V30 571 H 51.8805 -1.23254 -6.43808 0
M  V30 572 H 51.4005 0.418579 -5.98338 0
M  V30 573 H 53.0795 0.0766241 -6.46955 0
M  V30 574 N 53.2116 1.57565 -0.0334293 0
M  V30 575 C 54.4606 1.91155 0.643639 0
M  V30 576 C 54.7736 0.91192 1.73042 0
M  V30 577 O 55.9796 1.13923 2.46442 0
M  V30 578 C 54.4356 3.39443 1.1961 0
M  V30 579 C 54.0436 4.47774 0.142381 0
M  V30 580 C 55.7876 3.82094 1.84944 0
M  V30 581 C 53.6946 5.87162 0.706727 0
M  V30 582 H 52.6246 0.713368 0.244176 0
M  V30 583 H 55.2756 1.8323 -0.0994323 0
M  V30 584 H 53.6576 3.42313 1.99092 0
M  V30 585 H 54.8316 4.56469 -0.630296 0
M  V30 586 H 53.1466 4.14352 -0.412446 0
M  V30 587 H 55.7436 4.83591 2.2813 0
M  V30 588 H 56.0866 3.17386 2.69392 0
M  V30 589 H 56.6196 3.81665 1.12145 0
M  V30 590 H 53.3586 6.55424 -0.0997178 0
M  V30 591 H 52.8786 5.82064 1.44779 0
M  V30 592 H 54.5576 6.35866 1.19514 0
M  V30 593 N 54.6897 -0.239769 1.55765 0
M  V30 594 C 55.6527 -1.28038 1.90103 0
M  V30 595 C 56.6527 -1.40723 0.778055 0
M  V30 596 O 57.8427 -1.39301 1.04599 0
M  V30 597 C 54.9747 -2.65702 2.13577 0
M  V30 598 H 56.1677 -0.988048 2.83157 0
M  V30 599 H 53.7207 -0.479382 1.48767 0
M  V30 600 H 54.4557 -3.00063 1.23015 0
M  V30 601 H 54.2407 -2.57875 2.95369 0
M  V30 602 H 55.7307 -3.40828 2.41301 0
M  V30 603 N 56.1678 -1.49265 -0.50573 0
M  V30 604 C 57.0778 -1.68312 -1.63427 0
M  V30 605 C 58.0938 -0.565682 -1.64548 0
M  V30 606 O 59.2698 -0.839801 -1.83055 0
M  V30 607 C 56.3348 -1.74107 -2.99813 0
M  V30 608 C 55.3958 -2.97653 -3.09356 0
M  V30 609 C 54.6288 -3.03163 -4.39236 0
M  V30 610 O 54.8518 -2.16396 -5.27758 0
M  V30 611 O 53.7858 -3.9558 -4.53652 0
M  V30 612 H 57.6118 -2.63907 -1.50289 0
M  V30 613 H 55.1968 -1.32951 -0.681502 0
M  V30 614 H 57.0788 -1.803 -3.80881 0
M  V30 615 H 55.7538 -0.816901 -3.13223 0
M  V30 616 H 54.6608 -2.96981 -2.27493 0
M  V30 617 H 55.9938 -3.89535 -3.00871 0
M  V30 618 N 57.6459 0.756429 -1.3826 0
M  V30 619 C 58.5929 1.87011 -1.35261 0
M  V30 620 C 59.5629 1.64695 -0.215616 0
M  V30 621 O 60.7479 1.864 -0.407399 0
M  V30 622 C 57.8879 3.24275 -1.18068 0
M  V30 623 C 57.0009 3.58442 -2.41129 0
M  V30 624 C 56.1359 4.84994 -2.16689 0
M  V30 625 C 55.1749 5.11939 -3.35537 0
M  V30 626 N 54.3119 6.29685 -3.10549 0
M  V30 627 H 59.1519 1.8891 -2.30472 0
M  V30 628 H 56.6889 0.923373 -1.14509 0
M  V30 629 H 58.6469 4.03479 -1.06116 0
M  V30 630 H 57.2769 3.21711 -0.264973 0
M  V30 631 H 56.3289 2.74103 -2.63764 0
M  V30 632 H 57.6409 3.74283 -3.29717 0
M  V30 633 H 56.7949 5.72135 -2.01857 0
M  V30 634 H 55.5339 4.71286 -1.25462 0
M  V30 635 H 54.5389 4.23268 -3.50891 0
M  V30 636 H 55.7639 5.27546 -4.27635 0
M  V30 637 H 53.7099 6.17306 -2.21967 0
M  V30 638 H 53.6269 6.46014 -3.92686 0
M  V30 639 H 54.8949 7.19722 -2.99367 0
M  V30 640 N 59.124 1.23083 0.984299 0
M  V30 641 C 60.54 0.992637 1.24975 0
M  V30 642 C 60.74 -0.308618 1.99123 0
M  V30 643 O 59.796 -1.02905 2.30579 0
M  V30 644 C 61.109 2.19698 2.05312 0
M  V30 645 C 62.657 2.24147 2.18465 0
M  V30 646 C 63.132 3.44157 3.02192 0
M  V30 647 N 64.623 3.44372 3.09777 0
M  V30 648 C 65.358 4.33886 3.74874 0
M  V30 649 N 64.854 5.3363 4.41827 0
M  V30 650 N 66.647 4.21639 3.71721 0
M  V30 651 H 58.798 2.06731 0.487453 0
M  V30 652 H 61.061 0.906339 0.277944 0
M  V30 653 H 60.767 3.1411 1.58201 0
M  V30 654 H 60.641 2.20465 3.06064 0
M  V30 655 H 63.028 1.30277 2.64786 0
M  V30 656 H 63.109 2.27415 1.17115 0
M  V30 657 H 62.753 4.38332 2.56568 0
M  V30 658 H 62.683 3.3813 4.03702 0
M  V30 659 H 65.174 2.72201 2.62135 0
M  V30 660 H 65.487 5.98196 4.89266 0
M  V30 661 H 63.832 5.37534 4.40548 0
M  V30 662 H 67.023 3.42962 3.18582 0
M  V30 663 H 67.196 4.91604 4.22173 0
M  V30 664 N 60.6021 -1.18246 1.0419 0
M  V30 665 C 61.8501 -1.87886 0.744543 0
M  V30 666 C 62.1711 -1.8082 -0.730006 0
M  V30 667 O 61.4411 -1.22736 -1.52685 0
M  V30 668 H 60.0211 -0.695556 0.272417 0
M  V30 669 H 62.6831 -1.43494 1.31892 0
M  V30 670 H 61.7791 -2.9389 1.05049 0
M  V30 671 N 62.0802 -0.821533 -1.34494 0
M  V30 672 C 63.0272 -0.240397 -2.29545 0
M  V30 673 C 63.9972 0.634031 -1.53523 0
M  V30 674 O 65.1822 0.575966 -1.81899 0
M  V30 675 C 62.3222 0.592869 -3.39969 0
M  V30 676 C 61.4352 -0.30365 -4.30932 0
M  V30 677 C 60.5702 0.539049 -5.28458 0
M  V30 678 C 59.6092 -0.356942 -6.11058 0
M  V30 679 N 58.7462 0.446603 -7.00678 0
M  V30 680 H 63.5862 -1.05632 -2.7865 0
M  V30 681 H 61.1232 -0.532413 -1.37127 0
M  V30 682 H 63.0812 1.09129 -4.02675 0
M  V30 683 H 61.7112 1.37392 -2.92102 0
M  V30 684 H 60.7632 -0.920276 -3.691 0
M  V30 685 H 62.0752 -0.992661 -4.88823 0
M  V30 686 H 61.2292 1.102 -5.96608 0
M  V30 687 H 59.9682 1.26157 -4.71101 0
M  V30 688 H 58.9732 -0.932047 -5.41842 0
M  V30 689 H 60.1982 -1.07755 -6.70497 0
M  V30 690 H 58.1442 1.15282 -6.45791 0
M  V30 691 H 58.0612 -0.184048 -7.55776 0
M  V30 692 H 59.3292 0.992352 -7.73158 0
M  V30 693 N 63.5583 1.46682 -0.576371 0
M  V30 694 C 64.5063 2.31953 0.17335 0
M  V30 695 C 65.5003 1.44098 0.89062 0
M  V30 696 O 66.7063 1.60759 0.809728 0
M  V30 697 H 63.0813 0.748273 0.0747727 0
M  V30 698 H 65.0523 2.93007 -0.564738 0
M  V30 699 C 63.8013 3.27142 1.17786 0
M  V30 700 H 63.1243 3.94719 0.635361 0
M  V30 701 H 64.5643 3.896 1.67296 0
M  V30 702 C 63.0233 2.52036 2.23561 0
M  V30 703 O 63.5533 2.27877 3.3081 0
M  V30 704 N 61.7593 2.12709 1.97998 0
M  V30 705 H 61.3063 2.32557 1.10792 0
M  V30 706 H 61.2643 1.62776 2.68982 0
M  V30 707 N 65.0364 0.313813 1.54444 0
M  V30 708 C 65.9844 -0.572171 2.25453 0
M  V30 709 C 66.9784 -1.12657 1.2651 0
M  V30 710 O 68.1844 -1.07573 1.44319 0
M  V30 711 H 64.5594 -0.203146 0.724041 0
M  V30 712 H 66.5304 0.0491145 2.9836 0
M  V30 713 C 65.2794 -1.72626 3.0182 0
M  V30 714 H 64.6024 -1.30891 3.77767 0
M  V30 715 H 66.0424 -2.32199 3.54767 0
M  V30 716 C 64.5014 -2.63806 2.09542 0
M  V30 717 O 65.0314 -3.65256 1.67185 0
M  V30 718 N 63.2374 -2.31824 1.75232 0
M  V30 719 H 62.7844 -1.49368 2.09873 0
M  V30 720 H 62.7424 -2.93095 1.13767 0
M  V30 721 N 66.5145 -1.57545 0.0417849 0
M  V30 722 C 67.7425 -1.96624 -0.643928 0
M  V30 723 C 68.1575 -0.918897 -1.64929 0
M  V30 724 O 67.5145 0.0979323 -1.82237 0
M  V30 725 C 67.5655 -3.35781 -1.33914 0
M  V30 726 O 67.2865 -4.365 -0.374048 0
M  V30 727 C 68.7875 -3.89566 -2.1155 0
M  V30 728 H 66.0075 -0.647316 -0.176702 0
M  V30 729 H 68.5515 -2.04229 0.105304 0
M  V30 730 H 66.7065 -3.29357 -2.03968 0
M  V30 731 H 67.1205 -5.17248 -0.869179 0
M  V30 732 H 68.5945 -4.89242 -2.55628 0
M  V30 733 H 69.0715 -3.24488 -2.9598 0
M  V30 734 H 69.6775 -3.99298 -1.46427 0
M  V30 735 N 67.9926 0.231505 -1.5589 0
M  V30 736 C 69.2386 0.95877 -1.78705 0
M  V30 737 C 69.5716 1.8438 -0.609725 0
M  V30 738 O 68.8466 1.90521 0.391426 0
M  V30 739 C 69.1296 1.8062 -3.11526 0
M  V30 740 C 68.9826 0.948328 -4.39689 0
M  V30 741 C 70.3016 2.78585 -3.40703 0
M  V30 742 H 67.4206 0.347129 -0.650131 0
M  V30 743 H 70.0626 0.228259 -1.88624 0
M  V30 744 H 68.2126 2.42902 -3.03201 0
M  V30 745 H 69.8846 0.343016 -4.60023 0
M  V30 746 H 68.1276 0.253314 -4.3306 0
M  V30 747 H 68.7986 1.57543 -5.29041 0
M  V30 748 H 71.2746 2.26439 -3.49091 0
M  V30 749 H 70.1506 3.34988 -4.34826 0
M  V30 750 H 70.4116 3.55825 -2.62375 0
M  V30 751 N 69.4707 1.49531 0.497807 0
M  V30 752 C 70.7187 1.58865 1.24926 0
M  V30 753 C 71.0397 0.278721 1.92998 0
M  V30 754 O 70.3097 -0.702144 1.82885 0
M  V30 755 H 68.8897 0.585343 0.464094 0
M  V30 756 H 71.5517 1.86174 0.57666 0
M  V30 757 H 70.6477 2.38633 2.01149 0
M  V30 758 N 70.9488 -0.749086 1.3866 0
M  V30 759 C 71.8788 -1.8764 1.38973 0
M  V30 760 C 72.8598 -1.68178 0.255004 0
M  V30 761 O 74.0448 -1.88704 0.458754 0
M  V30 762 C 71.1748 -3.25222 1.21851 0
M  V30 763 C 70.1288 -3.59295 2.32575 0
M  V30 764 C 69.4548 -4.95663 2.00555 0
M  V30 765 C 70.7548 -3.63709 3.7485 0
M  V30 766 H 72.4488 -1.87635 2.3331 0
M  V30 767 H 69.9948 -0.901329 1.12303 0
M  V30 768 H 71.9478 -4.03746 1.20695 0
M  V30 769 H 70.6718 -3.25719 0.239775 0
M  V30 770 H 69.3308 -2.83093 2.32925 0
M  V30 771 H 68.9788 -4.92724 1.01154 0
M  V30 772 H 68.6788 -5.19429 2.74714 0
M  V30 773 H 70.2028 -5.7656 2.01024 0
M  V30 774 H 71.6168 -4.32338 3.76506 0
M  V30 775 H 70.0138 -3.98986 4.48252 0
M  V30 776 H 71.0838 -2.63834 4.06841 0
M  V30 777 N 72.4269 -1.23603 -0.977757 0
M  V30 778 C 73.6759 -1.06377 -1.71368 0
M  V30 779 C 73.9889 0.399062 -1.91486 0
M  V30 780 O 75.1949 0.691312 -2.62551 0
M  V30 781 C 73.6509 -1.85512 -3.08404 0
M  V30 782 C 73.2589 -3.36141 -2.96164 0
M  V30 783 C 75.0029 -1.76783 -3.85938 0
M  V30 784 C 72.9099 -4.07659 -4.28449 0
M  V30 785 H 71.8399 -0.394452 -0.642591 0
M  V30 786 H 74.4909 -1.47594 -1.09034 0
M  V30 787 H 72.8729 -1.37103 -3.71509 0
M  V30 788 H 74.0469 -3.92056 -2.42133 0
M  V30 789 H 72.3619 -3.45712 -2.32104 0
M  V30 790 H 74.9589 -2.27526 -4.83876 0
M  V30 791 H 75.3019 -0.731116 -4.0983 0
M  V30 792 H 75.8349 -2.22818 -3.2954 0
M  V30 793 H 72.5739 -5.11648 -4.09752 0
M  V30 794 H 72.0939 -3.5653 -4.82334 0
M  V30 795 H 73.7729 -4.141 -4.97122 0
M  V30 796 N 73.905 1.17692 -1.04816 0
M  V30 797 C 74.837 2.21103 -0.603822 0
M  V30 798 C 75.85 1.59411 0.33046 0
M  V30 799 O 77.039 1.7807 0.12379 0
M  V30 800 C 74.139 3.38623 0.136898 0
M  V30 801 C 73.312 4.29888 -0.807137 0
M  V30 802 C 72.371 5.26088 -0.10836 0
M  V30 803 O 71.397 5.64353 -0.741232 0
M  V30 804 N 72.599 5.68882 1.15558 0
M  V30 805 H 75.364 2.59848 -1.49329 0
M  V30 806 H 72.925 1.32553 -0.929587 0
M  V30 807 H 74.917 4.00009 0.614401 0
M  V30 808 H 73.487 2.98508 0.927993 0
M  V30 809 H 72.707 3.65993 -1.46434 0
M  V30 810 H 73.995 4.87759 -1.44807 0
M  V30 811 H 73.393 5.39861 1.69015 0
M  V30 812 H 71.95 6.32429 1.57722 0
M  V30 813 N 75.3831 0.828654 1.34056 0
M  V30 814 C 76.3131 0.269443 2.3194 0
M  V30 815 C 77.2941 -0.617247 1.58506 0
M  V30 816 O 78.4791 -0.542931 1.86456 0
M  V30 817 C 75.6091 -0.564793 3.42677 0
M  V30 818 C 74.5631 0.225241 4.27407 0
M  V30 819 C 73.8891 -0.7321 5.29664 0
M  V30 820 C 75.1891 1.43663 5.02154 0
M  V30 821 H 76.8831 1.08728 2.7896 0
M  V30 822 H 74.4291 0.524283 1.34117 0
M  V30 823 H 76.3821 -0.966233 4.10173 0
M  V30 824 H 75.1061 -1.41574 2.9432 0
M  V30 825 H 73.7651 0.608117 3.61521 0
M  V30 826 H 73.4131 -1.57916 4.77568 0
M  V30 827 H 73.1131 -0.20767 5.87233 0
M  V30 828 H 74.6371 -1.13128 6.00029 0
M  V30 829 H 76.0511 1.1089 5.62473 0
M  V30 830 H 74.4481 1.89711 5.69324 0
M  V30 831 H 75.5181 2.21181 4.31517 0
M  V30 832 N 76.8612 -1.46375 0.584142 0
M  V30 833 C 77.8092 -2.32042 -0.161047 0
M  V30 834 C 78.8032 -1.44569 -0.882966 0
M  V30 835 O 80.0092 -1.61186 -0.801191 0
M  V30 836 H 76.3842 -0.748659 -0.0708033 0
M  V30 837 H 78.3552 -2.92704 0.580269 0
M  V30 838 C 77.1042 -3.27762 -1.1605 0
M  V30 839 H 76.4272 -3.95051 -0.614419 0
M  V30 840 H 77.8672 -3.90481 -1.65228 0
M  V30 841 C 76.3262 -2.53218 -2.22221 0
M  V30 842 O 76.8562 -2.29628 -3.29597 0
M  V30 843 N 75.0622 -2.13756 -1.96868 0
M  V30 844 H 74.6092 -2.33142 -1.09557 0
M  V30 845 H 74.5672 -1.642 -2.68115 0
M  V30 846 N 78.3393 -0.321999 -1.54275 0
M  V30 847 C 79.7553 0.0306999 -1.5957 0
M  V30 848 C 79.9553 1.50614 -1.33857 0
M  V30 849 O 79.0113 2.2619 -1.12223 0
M  V30 850 C 80.3243 -0.386122 -2.98211 0
M  V30 851 C 81.8723 -0.336647 -3.11184 0
M  V30 852 C 82.3473 -0.728607 -4.52167 0
M  V30 853 N 83.8383 -0.681952 -4.58152 0
M  V30 854 C 84.5733 -0.957449 -5.6535 0
M  V30 855 N 84.0693 -1.3 -6.80494 0
M  V30 856 N 85.8623 -0.883113 -5.55119 0
M  V30 857 H 78.0133 -1.28332 -1.69247 0
M  V30 858 H 80.2763 -0.521716 -0.791528 0
M  V30 859 H 79.9823 -1.41404 -3.22022 0
M  V30 860 H 79.8563 0.249662 -3.76373 0
M  V30 861 H 82.2433 0.682058 -2.8711 0
M  V30 862 H 82.3243 -1.00734 -2.3513 0
M  V30 863 H 81.9683 -1.74522 -4.76974 0
M  V30 864 H 81.8983 -0.0356152 -5.26588 0
M  V30 865 H 84.3893 -0.428985 -3.75457 0
M  V30 866 H 84.7023 -1.49563 -7.58189 0
M  V30 867 H 83.0473 -1.33824 -6.81994 0
M  V30 868 H 86.2383 -0.615001 -4.64042 0
M  V30 869 H 86.4113 -1.10118 -6.38575 0
M  V30 870 N 79.8174 1.5752 -0.0501392 0
M  V30 871 C 81.2284 1.80271 0.485705 0
M  V30 872 C 81.5794 0.96228 1.70981 0
M  V30 873 O 80.7044 0.178578 2.15662 0
M  V30 874 C 81.2994 3.26957 0.887938 0
M  V30 875 C 79.8584 3.5063 1.36877 0
M  V30 876 C 79.0054 2.75165 0.343468 0
M  V30 877 H 81.9564 1.56281 -0.276028 0
M  V30 878 H 81.9774 3.37821 1.75093 0
M  V30 879 H 81.4894 3.881 -0.0031809 0
M  V30 880 H 79.5904 2.94766 2.27911 0
M  V30 881 H 79.7034 4.59343 1.36164 0
M  V30 882 H 78.0674 2.4127 0.816128 0
M  V30 883 H 78.8504 3.39034 -0.539548 0
M  V30 884 N 81.2955 -0.223234 1.56011 0
M  V30 885 C 82.2425 -1.27664 1.92277 0
M  V30 886 C 83.2125 -1.46659 0.779763 0
M  V30 887 O 84.3975 -1.60256 1.03551 0
M  V30 888 C 81.5375 -2.62234 2.24338 0
M  V30 889 C 80.6505 -2.51051 3.51564 0
M  V30 890 C 79.7855 -3.78133 3.7308 0
M  V30 891 C 78.8245 -3.61665 4.93827 0
M  V30 892 N 77.9615 -4.80693 5.11741 0
M  V30 893 H 82.8015 -0.960358 2.82101 0
M  V30 894 H 80.3385 -0.462901 1.39627 0
M  V30 895 H 82.2965 -3.40596 2.40936 0
M  V30 896 H 80.9265 -2.91961 1.3769 0
M  V30 897 H 79.9785 -1.64132 3.43169 0
M  V30 898 H 81.2905 -2.34803 4.40079 0
M  V30 899 H 80.4445 -4.64938 3.89766 0
M  V30 900 H 79.1835 -3.97304 2.82844 0
M  V30 901 H 78.1885 -2.73244 4.77093 0
M  V30 902 H 79.4135 -3.43966 5.85546 0
M  V30 903 H 77.3595 -5.00181 4.24446 0
M  V30 904 H 77.2765 -4.67165 5.94384 0
M  V30 905 H 78.5445 -5.6893 5.3286 0
M  V30 906 N 82.7736 -1.49793 -0.48987 0
M  V30 907 C 83.7366 -1.66752 -1.57246 0
M  V30 908 C 84.7366 -0.538867 -1.51502 0
M  V30 909 O 85.9266 -0.805545 -1.54456 0
M  V30 910 C 83.0586 -1.67528 -2.96896 0
M  V30 911 H 84.2516 -2.63321 -1.43534 0
M  V30 912 H 81.8046 -1.38992 -0.714914 0
M  V30 913 H 82.5396 -0.725837 -3.16073 0
M  V30 914 H 82.3246 -2.49504 -3.02473 0
M  V30 915 H 83.8146 -1.82667 -3.7553 0
M  V30 916 N 84.2517 0.741722 -1.39055 0
M  V30 917 C 85.1817 1.869 -1.39966 0
M  V30 918 C 86.1627 1.6804 -0.26392 0
M  V30 919 O 87.3477 1.88458 -0.468755 0
M  V30 920 C 84.4777 3.24572 -1.23574 0
M  V30 921 C 83.4317 3.58056 -2.34477 0
M  V30 922 C 82.7577 4.94593 -2.0318 0
M  V30 923 C 84.0577 3.61716 -3.76774 0
M  V30 924 H 85.7517 1.86395 -2.34302 0
M  V30 925 H 83.2977 0.895361 -1.1278 0
M  V30 926 H 85.2507 4.031 -1.22834 0
M  V30 927 H 83.9747 3.25587 -0.257045 0
M  V30 928 H 82.6337 2.81854 -2.34423 0
M  V30 929 H 82.2817 4.92181 -1.03765 0
M  V30 930 H 81.9817 5.17964 -2.77465 0
M  V30 931 H 83.5057 5.75486 -2.04079 0
M  V30 932 H 84.9197 4.30335 -3.78794 0
M  V30 933 H 83.3167 3.96603 -4.50362 0
M  V30 934 H 84.3867 2.61672 -4.08235 0
M  V30 935 N 85.7298 1.2412 0.971189 0
M  V30 936 C 86.6778 1.02812 2.08644 0
M  V30 937 C 87.6718 -0.0358403 1.69362 0
M  V30 938 O 88.8778 0.118429 1.7961 0
M  V30 939 H 85.2528 0.315428 0.682649 0
M  V30 940 H 87.2238 1.97397 2.23779 0
M  V30 941 C 85.9728 0.645874 3.41649 0
M  V30 942 H 85.2958 1.45632 3.72332 0
M  V30 943 H 86.7358 0.536366 4.20594 0
M  V30 944 C 85.1948 -0.646713 3.30635 0
M  V30 945 O 85.7248 -1.69338 3.64263 0
M  V30 946 N 83.9308 -0.626115 2.83775 0
M  V30 947 H 83.4778 0.225988 2.56607 0
M  V30 948 H 83.4358 -1.49117 2.76788 0
M  V30 949 N 87.2079 -1.17134 1.05439 0
M  V30 950 C 88.1709 -2.19439 0.661764 0
M  V30 951 C 89.1709 -1.58199 -0.288042 0
M  V30 952 O 90.3609 -1.74053 -0.0715803 0
M  V30 953 C 87.4929 -3.40889 -0.0276209 0
M  V30 954 H 88.6859 -2.55688 1.56728 0
M  V30 955 H 86.2389 -1.31259 0.848567 0
M  V30 956 H 86.9739 -3.10187 -0.94629 0
M  V30 957 H 86.7589 -3.86586 0.655238 0
M  V30 958 H 88.2489 -4.16603 -0.288342 0
M  V30 959 N 88.686 -0.835752 -1.33615 0
M  V30 960 C 89.616 -0.281739 -2.31794 0
M  V30 961 C 90.597 0.608833 -1.58831 0
M  V30 962 O 91.782 0.533035 -1.86741 0
M  V30 963 C 88.912 0.546612 -3.42971 0
M  V30 964 C 87.866 -0.247904 -4.27281 0
M  V30 965 C 87.192 0.704001 -5.30045 0
M  V30 966 C 88.492 -1.46324 -5.01385 0
M  V30 967 H 90.186 -1.10206 -2.78379 0
M  V30 968 H 87.732 -0.531388 -1.33837 0
M  V30 969 H 89.685 0.944467 -4.1068 0
M  V30 970 H 88.409 1.40011 -2.95067 0
M  V30 971 H 87.068 -0.627281 -3.61194 0
M  V30 972 H 86.716 1.55381 -4.78399 0
M  V30 973 H 86.416 0.176524 -5.87335 0
M  V30 974 H 87.94 1.09944 -6.0062 0
M  V30 975 H 89.354 -1.13871 -5.61877 0
M  V30 976 H 87.751 -1.92728 -5.6831 0
M  V30 977 H 88.821 -2.23467 -4.30338 0
M  V30 978 N 90.1641 1.46063 -0.591896 0
M  V30 979 C 91.4041 2.04228 -0.0838014 0
M  V30 980 C 91.7681 1.45231 1.25587 0
M  V30 981 O 92.9691 1.94653 1.85375 0
M  V30 982 C 91.2401 3.57389 -0.0286282 0
M  V30 983 S 92.7991 4.3678 0.420557 0
M  V30 984 H 89.6171 0.709762 -0.0419319 0
M  V30 985 H 92.2191 1.78983 -0.786465 0
M  V30 986 H 90.9231 3.97843 -1.00743 0
M  V30 987 H 90.4541 3.87185 0.69652 0
M  V30 988 H 92.4691 4.67131 1.67341 0
M  V30 989 N 91.6422 0.330177 1.54103 0
M  V30 990 C 92.9192 -0.325007 1.92881 0
M  V30 991 C 93.2992 -1.6934 1.26045 0
M  V30 992 O 92.6472 -2.24855 0.406526 0
M  V30 993 C 92.8572 -0.410634 3.46576 0
M  V30 994 C 94.2052 -0.667801 4.19316 0
M  V30 995 O 95.2292 -0.49329 3.52768 0
M  V30 996 O 94.0882 -1.00491 5.37181 0
M  V30 997 H 91.1822 -0.186873 0.80561 0
M  V30 998 H 93.7282 0.380376 1.65382 0
M  V30 999 H 92.5002 0.550164 3.87413 0
M  V30 1000 H 92.1232 -1.16333 3.802 0
M  V30 1001 N 93.1203 -1.57491 0.0584922 0
M  V30 1002 C 94.3683 -1.92597 -0.612436 0
M  V30 1003 C 94.6893 -0.938162 -1.70949 0
M  V30 1004 O 93.9593 0.0158301 -1.95894 0
M  V30 1005 H 92.5393 -0.710964 -0.229214 0
M  V30 1006 H 95.2013 -1.94571 0.113218 0
M  V30 1007 H 94.2973 -2.94038 -1.04633 0
M  V30 1008 N 94.5984 0.214957 -1.56127 0
M  V30 1009 C 95.5284 1.2695 -1.95974 0
M  V30 1010 C 96.5094 1.48539 -0.828868 0
M  V30 1011 O 97.6944 1.60611 -1.09168 0
M  V30 1012 C 94.8244 2.61794 -2.28214 0
M  V30 1013 C 93.7784 2.54851 -3.43853 0
M  V30 1014 C 93.1044 3.93785 -3.61715 0
M  V30 1015 C 94.4044 2.09065 -4.78632 0
M  V30 1016 H 96.0984 0.93846 -2.84312 0
M  V30 1017 H 93.6444 0.449996 -1.36788 0
M  V30 1018 H 95.5974 3.35731 -2.54682 0
M  V30 1019 H 94.3214 2.96599 -1.36736 0
M  V30 1020 H 92.9804 1.8337 -3.17444 0
M  V30 1021 H 92.6284 4.25908 -2.67602 0
M  V30 1022 H 92.3284 3.90019 -4.39498 0
M  V30 1023 H 93.8524 4.69374 -3.90539 0
M  V30 1024 H 95.2664 2.7275 -5.04262 0
M  V30 1025 H 93.6634 2.16346 -5.59745 0
M  V30 1026 H 94.7334 1.04315 -4.73547 0
M  V30 1027 N 96.0765 1.50051 0.48192 0
M  V30 1028 C 97.3255 1.59741 1.23149 0
M  V30 1029 C 97.6385 0.298163 1.93314 0
M  V30 1030 O 98.8445 0.273835 2.70116 0
M  V30 1031 C 97.3005 2.81926 2.23708 0
M  V30 1032 C 96.9085 4.18685 1.59396 0
M  V30 1033 C 98.6525 3.00956 2.99375 0
M  V30 1034 C 96.5595 5.3207 2.58178 0
M  V30 1035 H 95.4895 0.594838 0.46334 0
M  V30 1036 H 98.1405 1.76467 0.503169 0
M  V30 1037 H 96.5225 2.58736 2.99786 0
M  V30 1038 H 97.6965 4.52088 0.891811 0
M  V30 1039 H 96.0115 4.05171 0.960503 0
M  V30 1040 H 98.6085 3.82836 3.73283 0
M  V30 1041 H 98.9515 2.12258 3.58123 0
M  V30 1042 H 99.4845 3.24277 2.30411 0
M  V30 1043 H 96.2235 6.22888 2.04184 0
M  V30 1044 H 95.7435 5.03098 3.26577 0
M  V30 1045 H 97.4225 5.62196 3.20225 0
M  V30 1046 N 97.5546 -0.734337 1.39446 0
M  V30 1047 C 98.8316 -1.48579 1.27215 0
M  V30 1048 C 99.2116 -2.1077 -0.117968 0
M  V30 1049 O 98.5596 -1.98646 -1.12924 0
M  V30 1050 C 98.7696 -2.53667 2.39696 0
M  V30 1051 C 100.118 -3.20031 2.79044 0
M  V30 1052 O 101.142 -2.6398 2.39151 0
M  V30 1053 O 100.001 -4.21455 3.47905 0
M  V30 1054 H 97.0946 -0.659816 0.49857 0
M  V30 1055 H 99.6406 -0.768106 1.51322 0
M  V30 1056 H 98.4126 -2.06096 3.32626 0
M  V30 1057 H 98.0356 -3.32994 2.17258 0
M  V30 1058 N 99.0327 -1.24633 -0.964593 0
M  V30 1059 C 99.9427 -1.05859 -2.09359 0
M  V30 1060 C 100.959 0.00148855 -1.74 0
M  V30 1061 O 102.135 -0.197346 -2.00431 0
M  V30 1062 C 99.1997 -0.668879 -3.40187 0
M  V30 1063 C 98.2607 -1.80578 -3.89474 0
M  V30 1064 C 97.4937 -1.43457 -5.14058 0
M  V30 1065 O 97.7167 -0.325775 -5.69469 0
M  V30 1066 O 96.6507 -2.2613 -5.57807 0
M  V30 1067 H 100.477 -2.00516 -2.28094 0
M  V30 1068 H 98.0617 -1.03481 -1.0776 0
M  V30 1069 H 99.9437 -0.463211 -4.18846 0
M  V30 1070 H 98.6187 0.248536 -3.22744 0
M  V30 1071 H 97.5257 -2.06623 -3.11862 0
M  V30 1072 H 98.8587 -2.70208 -4.11398 0
M  V30 1073 N 100.511 1.16574 -1.06058 0
M  V30 1074 C 101.441 2.23057 -0.690488 0
M  V30 1075 C 102.422 1.67141 0.315901 0
M  V30 1076 O 103.607 1.93253 0.191556 0
M  V30 1077 C 100.737 3.47222 -0.073625 0
M  V30 1078 C 99.6908 4.16016 -1.00573 0
M  V30 1079 C 99.0168 5.34104 -0.252289 0
M  V30 1080 C 100.317 4.67264 -2.33371 0
M  V30 1081 H 102.011 2.54271 -1.58072 0
M  V30 1082 H 99.5568 1.22218 -0.76149 0
M  V30 1083 H 101.51 4.20939 0.19714 0
M  V30 1084 H 100.234 3.15302 0.85161 0
M  V30 1085 H 98.8928 3.44223 -1.2612 0
M  V30 1086 H 98.5408 4.98437 0.675988 0
M  V30 1087 H 98.2408 5.81072 -0.873455 0
M  V30 1088 H 99.7648 6.10599 0.0109857 0
M  V30 1089 H 101.179 5.32573 -2.12223 0
M  V30 1090 H 99.5758 5.24843 -2.90963 0
M  V30 1091 H 100.646 3.83602 -2.96611 0
M  V30 1092 N 101.989 0.842826 1.3317 0
M  V30 1093 C 102.937 0.267495 2.31057 0
M  V30 1094 C 103.931 -0.602682 1.58316 0
M  V30 1095 O 105.137 -0.491803 1.73151 0
M  V30 1096 H 101.512 0.0677813 0.748939 0
M  V30 1097 H 103.483 1.10754 2.77085 0
M  V30 1098 C 102.232 -0.539331 3.43492 0
M  V30 1099 H 101.555 0.12095 3.99617 0
M  V30 1100 H 102.995 -0.90767 4.14171 0
M  V30 1101 C 101.454 -1.71981 2.89697 0
M  V30 1102 O 101.984 -2.81862 2.86211 0
M  V30 1103 N 100.19 -1.54299 2.46252 0
M  V30 1104 H 99.7369 -0.649143 2.49287 0
M  V30 1105 H 99.6949 -2.33431 2.10612 0
M  V30 1106 N 103.467 -1.45747 0.599634 0
M  V30 1107 C 104.399 -2.28628 -0.161879 0
M  V30 1108 C 105.412 -1.39494 -0.839367 0
M  V30 1109 O 106.601 -1.63941 -0.706089 0
M  V30 1110 C 103.701 -3.15014 -1.24976 0
M  V30 1111 C 102.874 -4.32378 -0.660935 0
M  V30 1112 C 101.933 -5.00033 -1.63869 0
M  V30 1113 O 100.959 -5.57085 -1.1681 0
M  V30 1114 N 102.161 -4.98589 -2.97303 0
M  V30 1115 H 104.926 -2.94624 0.549265 0
M  V30 1116 H 102.487 -1.55847 0.438565 0
M  V30 1117 H 104.479 -3.5714 -1.9035 0
M  V30 1118 H 103.049 -2.5098 -1.86354 0
M  V30 1119 H 102.269 -3.9383 0.170688 0
M  V30 1120 H 103.557 -5.08197 -0.247619 0
M  V30 1121 H 102.955 -4.53514 -3.38145 0
M  V30 1122 H 101.512 -5.44603 -3.58121 0
M  V30 1123 N 104.945 -0.338344 -1.53925 0
M  V30 1124 C 105.908 0.508299 -2.23493 0
M  V30 1125 C 106.908 1.03175 -1.23335 0
M  V30 1126 O 108.098 0.921826 -1.47811 0
M  V30 1127 C 105.23 1.70754 -2.95052 0
M  V30 1128 H 106.423 -0.100058 -2.99733 0
M  V30 1129 H 103.976 -0.0896198 -1.56043 0
M  V30 1130 H 104.711 2.35474 -2.22986 0
M  V30 1131 H 104.496 1.33946 -3.68512 0
M  V30 1132 H 105.986 2.30818 -3.48013 0
M  V30 1133 N 106.423 1.57458 -0.0668435 0
M  V30 1134 C 107.353 2.15468 0.899764 0
M  V30 1135 C 108.334 1.08042 1.31381 0
M  V30 1136 O 109.519 1.36054 1.38574 0
M  V30 1137 C 106.649 2.71232 2.16911 0
M  V30 1138 C 105.603 3.83781 1.89463 0
M  V30 1139 C 104.929 4.26127 3.22986 0
M  V30 1140 C 106.229 5.08238 1.20381 0
M  V30 1141 H 107.923 2.96488 0.416529 0
M  V30 1142 H 105.469 1.4262 0.198908 0
M  V30 1143 H 107.422 3.10458 2.84945 0
M  V30 1144 H 106.146 1.87426 2.67468 0
M  V30 1145 H 104.805 3.45051 1.23836 0
M  V30 1146 H 104.453 3.39249 3.71374 0
M  V30 1147 H 104.153 5.01993 3.05413 0
M  V30 1148 H 105.677 4.67966 3.92225 0
M  V30 1149 H 107.091 5.44811 1.78475 0
M  V30 1150 H 105.488 5.89349 1.13083 0
M  V30 1151 H 106.558 4.84558 0.182153 0
M  V30 1152 N 107.901 -0.206675 1.56239 0
M  V30 1153 C 108.848 -1.25617 1.93621 0
M  V30 1154 C 109.818 -1.45824 0.795274 0
M  V30 1155 O 111.003 -1.59148 1.05245 0
M  V30 1156 C 108.143 -2.59839 2.27107 0
M  V30 1157 C 107.256 -2.47308 3.54207 0
M  V30 1158 C 106.391 -3.74155 3.7707 0
M  V30 1159 C 105.43 -3.56407 4.97635 0
M  V30 1160 N 104.567 -4.75238 5.1681 0
M  V30 1161 H 109.407 -0.930383 2.83104 0
M  V30 1162 H 106.944 -0.448065 1.4011 0
M  V30 1163 H 108.902 -3.38021 2.44535 0
M  V30 1164 H 107.532 -2.90485 1.40778 0
M  V30 1165 H 106.584 -1.60483 3.4489 0
M  V30 1166 H 107.896 -2.30122 4.42544 0
M  V30 1167 H 107.05 -4.60778 3.94675 0
M  V30 1168 H 105.789 -3.94282 2.87042 0
M  V30 1169 H 104.794 -2.68168 4.79964 0
M  V30 1170 H 106.019 -3.37736 5.89161 0
M  V30 1171 H 103.965 -4.95651 4.29728 0
M  V30 1172 H 103.882 -4.60835 5.99306 0
M  V30 1173 H 105.15 -5.63246 5.38864 0
M  V30 1174 N 109.379 -1.50304 -0.473955 0
M  V30 1175 C 110.607 -1.64902 -1.24959 0
M  V30 1176 C 111.022 -0.331198 -1.85872 0
M  V30 1177 O 110.379 0.68652 -1.69095 0
M  V30 1178 C 110.43 -2.73803 -2.36038 0
M  V30 1179 O 110.151 -4.00477 -1.77624 0
M  V30 1180 C 111.652 -2.99349 -3.26964 0
M  V30 1181 H 108.872 -0.554383 -0.378022 0
M  V30 1182 H 111.416 -1.9651 -0.566054 0
M  V30 1183 H 109.571 -2.44898 -3.00173 0
M  V30 1184 H 109.985 -4.60678 -2.5075 0
M  V30 1185 H 111.459 -3.79217 -4.01121 0
M  V30 1186 H 111.936 -2.10307 -3.85574 0
M  V30 1187 H 112.542 -3.29774 -2.68569 0
M  V30 1188 N 110.857 0.726932 -1.39834 0
M  V30 1189 C 112.104 1.48664 -1.37496 0
M  V30 1190 C 112.432 1.94482 0.0264678 0
M  V30 1191 O 111.687 1.67692 1.00886 0
M  V30 1192 C 111.986 2.73495 -2.30077 0
M  V30 1193 C 111.652 2.46502 -3.77555 0
M  V30 1194 C 110.314 2.3885 -4.17737 0
M  V30 1195 C 112.666 2.23604 -4.70798 0
M  V30 1196 C 109.994 2.06352 -5.49214 0
M  V30 1197 C 112.346 1.92622 -6.02561 0
M  V30 1198 C 111.01 1.83444 -6.41798 0
M  V30 1199 H 110.28 0.544001 -0.503135 0
M  V30 1200 H 112.927 0.833657 -1.72402 0
M  V30 1201 H 111.232 3.43575 -1.88317 0
M  V30 1202 H 112.929 3.31549 -2.25558 0
M  V30 1203 H 109.519 2.5334 -3.45712 0
M  V30 1204 H 113.703 2.28479 -4.40581 0
M  V30 1205 H 108.959 1.97776 -5.78528 0
M  V30 1206 H 113.133 1.73914 -6.74334 0
M  V30 1207 H 110.76 1.58029 -7.43593 0
M  V30 1208 N 112.336 1.25143 0.95797 0
M  V30 1209 C 113.246 1.06968 2.08794 0
M  V30 1210 C 114.262 0.00773911 1.73998 0
M  V30 1211 O 115.438 0.207972 2.00323 0
M  V30 1212 C 112.503 0.68691 3.39827 0
M  V30 1213 C 111.564 1.82641 3.88511 0
M  V30 1214 C 110.797 1.46181 5.1329 0
M  V30 1215 O 111.02 0.355971 5.69288 0
M  V30 1216 O 109.954 2.29085 5.566 0
M  V30 1217 H 113.78 2.01723 2.27027 0
M  V30 1218 H 111.365 1.04051 1.07209 0
M  V30 1219 H 113.247 0.485417 4.18595 0
M  V30 1220 H 111.922 -0.231417 3.22872 0
M  V30 1221 H 110.829 2.08274 3.10762 0
M  V30 1222 H 112.162 2.72386 4.09959 0
M  V30 1223 N 113.814 -1.1601 1.06675 0
M  V30 1224 C 114.724 -2.24156 0.692179 0
M  V30 1225 C 115.74 -1.71507 -0.293513 0
M  V30 1226 O 116.916 -2.009 -0.141861 0
M  V30 1227 C 113.981 -3.46587 0.0884131 0
M  V30 1228 C 113.042 -4.14257 1.12646 0
M  V30 1229 C 112.275 -5.30844 0.551416 0
M  V30 1230 O 112.498 -5.66858 -0.634656 0
M  V30 1231 O 111.432 -5.87848 1.29298 0
M  V30 1232 H 115.258 -2.58513 1.59388 0
M  V30 1233 H 112.843 -1.23599 0.83926 0
M  V30 1234 H 114.725 -4.20679 -0.246361 0
M  V30 1235 H 113.4 -3.13994 -0.786712 0
M  V30 1236 H 112.307 -3.42118 1.51348 0
M  V30 1237 H 113.64 -4.50914 1.97325 0
M  V30 1238 N 115.292 -0.849877 -1.32721 0
M  V30 1239 C 116.569 -0.372405 -1.92022 0
M  V30 1240 C 116.949 1.1435 -1.77447 0
M  V30 1241 O 116.297 1.96296 -1.16962 0
M  V30 1242 C 116.507 -0.831482 -3.3895 0
M  V30 1243 C 117.855 -0.845882 -4.16089 0
M  V30 1244 O 118.879 -0.775806 -3.47649 0
M  V30 1245 O 117.738 -0.943753 -5.38289 0
M  V30 1246 H 114.832 -0.107667 -0.819961 0
M  V30 1247 H 117.378 -0.93646 -1.41522 0
M  V30 1248 H 116.15 -1.87448 -3.4348 0
M  V30 1249 H 115.773 -0.24461 -3.96847 0
M  V30 1250 N 116.77 1.45427 -0.607355 0
M  V30 1251 C 118.181 1.85756 -0.187535 0
M  V30 1252 C 118.532 1.5077 1.25551 0
M  V30 1253 O 117.657 0.93427 1.95193 0
M  V30 1254 C 118.252 3.37154 -0.333572 0
M  V30 1255 C 116.811 3.76387 0.0315542 0
M  V30 1256 C 115.958 2.69377 -0.658117 0
M  V30 1257 H 118.909 1.36231 -0.81405 0
M  V30 1258 H 118.93 3.78014 0.43428 0
M  V30 1259 H 118.442 3.62586 -1.38393 0
M  V30 1260 H 116.543 3.56571 1.0811 0
M  V30 1261 H 116.656 4.77731 -0.361935 0
M  V30 1262 H 115.02 2.5452 -0.0957873 0
M  V30 1263 H 115.803 2.97646 -1.7106 0
M  V30 1264 N 118.248 0.346503 1.53744 0
M  V30 1265 C 119.211 -0.496439 2.23759 0
M  V30 1266 C 120.211 -1.0252 1.2388 0
M  V30 1267 O 121.401 -0.913974 1.48297 0
M  V30 1268 C 118.533 -1.69187 2.95954 0
M  V30 1269 H 119.726 0.115952 2.99676 0
M  V30 1270 H 117.279 0.0978939 1.55993 0
M  V30 1271 H 118.014 -2.34288 2.24231 0
M  V30 1272 H 117.799 -1.31989 3.69217 0
M  V30 1273 H 119.289 -2.28969 3.49232 0
M  V30 1274 N 119.726 -1.57421 0.075193 0
M  V30 1275 C 120.972 -1.93905 -0.594025 0
M  V30 1276 C 121.305 -0.955701 -1.69056 0
M  V30 1277 O 120.58 0.0145373 -1.94495 0
M  V30 1278 C 120.863 -3.40638 -1.1678 0
M  V30 1279 C 120.716 -4.49733 -0.0776792 0
M  V30 1280 C 122.035 -3.88259 -2.07228 0
M  V30 1281 H 119.154 -0.705105 -0.214466 0
M  V30 1282 H 121.796 -1.8947 0.141854 0
M  V30 1283 H 119.946 -3.44549 -1.79494 0
M  V30 1284 H 121.618 -4.57942 0.555573 0
M  V30 1285 H 119.861 -4.29751 0.591286 0
M  V30 1286 H 120.532 -5.49549 -0.519603 0
M  V30 1287 H 123.008 -3.86376 -1.54445 0
M  V30 1288 H 121.884 -4.91533 -2.44308 0
M  V30 1289 H 122.145 -3.26396 -2.98191 0
M  V30 1290 N 121.204 0.198386 -1.56346 0
M  V30 1291 C 122.452 0.91747 -1.80075 0
M  V30 1292 C 122.773 1.83929 -0.647692 0
M  V30 1293 O 122.043 1.93029 0.334166 0
M  V30 1294 H 120.623 0.341774 -0.664228 0
M  V30 1295 H 123.285 0.204684 -1.93822 0
M  V30 1296 H 122.381 1.51055 -2.7311 0
M  V30 1297 N 122.682 1.50554 0.465978 0
M  V30 1298 C 123.645 1.69233 1.54574 0
M  V30 1299 C 124.645 0.562901 1.50626 0
M  V30 1300 O 125.835 0.830016 1.53155 0
M  V30 1301 C 122.967 1.7223 2.94193 0
M  V30 1302 H 124.16 2.65571 1.39327 0
M  V30 1303 H 121.713 1.40111 0.692711 0
M  V30 1304 H 122.448 0.77603 3.14878 0
M  V30 1305 H 122.233 2.54285 2.98466 0
M  V30 1306 H 123.723 1.88618 3.72576 0
M  V30 1307 N 124.16 -0.719506 1.40217 0
M  V30 1308 C 125.409 -1.47486 1.37589 0
M  V30 1309 C 125.722 -1.9559 -0.0201568 0
M  V30 1310 O 126.928 -2.70973 -0.169049 0
M  V30 1311 C 125.384 -2.66575 2.41796 0
M  V30 1312 C 124.992 -2.25358 3.87192 0
M  V30 1313 C 126.736 -3.4433 2.48269 0
M  V30 1314 C 124.643 -3.41262 4.83005 0
M  V30 1315 H 123.573 -0.553901 0.511576 0
M  V30 1316 H 126.224 -0.783427 1.65936 0
M  V30 1317 H 124.606 -3.3787 2.06543 0
M  V30 1318 H 125.78 -1.61509 4.31569 0
M  V30 1319 H 124.095 -1.60657 3.84159 0
M  V30 1320 H 126.692 -4.30569 3.17041 0
M  V30 1321 H 127.035 -3.87872 1.51198 0
M  V30 1322 H 127.568 -2.80076 2.82493 0
M  V30 1323 H 124.307 -3.02755 5.81394 0
M  V30 1324 H 123.827 -4.0404 4.43297 0
M  V30 1325 H 125.506 -4.07383 5.02641 0
M  V30 1326 N 125.638 -1.25649 -0.95132 0
M  V30 1327 C 126.884 -1.10757 -1.69884 0
M  V30 1328 C 127.217 0.350061 -1.91019 0
M  V30 1329 O 126.492 1.25783 -1.48354 0
M  V30 1330 C 126.775 -1.86606 -3.07978 0
M  V30 1331 C 126.628 -3.40217 -2.94232 0
M  V30 1332 C 127.947 -1.65182 -4.07925 0
M  V30 1333 H 125.066 -0.40374 -0.616574 0
M  V30 1334 H 127.708 -1.54521 -1.10558 0
M  V30 1335 H 125.858 -1.49409 -3.58621 0
M  V30 1336 H 127.53 -3.87108 -2.50889 0
M  V30 1337 H 125.773 -3.67759 -2.30078 0
M  V30 1338 H 126.444 -3.88505 -3.92133 0
M  V30 1339 H 128.92 -1.9757 -3.66204 0
M  V30 1340 H 127.796 -2.20683 -5.02583 0
M  V30 1341 H 128.057 -0.593933 -4.38092 0
M  V30 1342 N 127.117 1.15442 -1.07289 0
M  V30 1343 C 128.047 2.22312 -0.714107 0
M  V30 1344 C 129.028 1.67467 0.298155 0
M  V30 1345 O 130.213 1.93445 0.171048 0
M  V30 1346 C 127.343 3.47124 -0.110448 0
M  V30 1347 C 126.297 4.14926 -1.04979 0
M  V30 1348 C 125.623 5.33807 -0.308924 0
M  V30 1349 C 126.923 4.64762 -2.38314 0
M  V30 1350 H 128.617 2.5258 -1.6076 0
M  V30 1351 H 126.163 1.21404 -0.77441 0
M  V30 1352 H 128.116 4.21124 0.152482 0
M  V30 1353 H 126.84 3.16187 0.81812 0
M  V30 1354 H 125.499 3.42866 -1.29764 0
M  V30 1355 H 125.147 4.99126 0.623084 0
M  V30 1356 H 124.847 5.80113 -0.935036 0
M  V30 1357 H 126.371 6.10576 -0.0537771 0
M  V30 1358 H 127.785 5.30292 -2.1786 0
M  V30 1359 H 126.182 5.21728 -2.96514 0
M  V30 1360 H 127.252 3.80434 -3.00663 0
M  V30 1361 N 128.595 0.856903 1.32268 0
M  V30 1362 C 129.823 0.475439 2.01363 0
M  V30 1363 C 130.238 -0.928486 1.64392 0
M  V30 1364 O 129.595 -1.60624 0.866387 0
M  V30 1365 C 129.646 0.607545 3.56358 0
M  V30 1366 O 129.367 1.95617 3.92002 0
M  V30 1367 C 130.868 0.225382 4.42727 0
M  V30 1368 H 128.088 0.186636 0.644521 0
M  V30 1369 H 130.632 1.15446 1.68797 0
M  V30 1370 H 128.787 -0.0237719 3.87393 0
M  V30 1371 H 129.201 1.95455 4.86721 0
M  V30 1372 H 130.675 0.368813 5.50767 0
M  V30 1373 H 131.152 -0.834369 4.31202 0
M  V30 1374 H 131.758 0.831864 4.17085 0
M  V30 1375 N 130.073 -1.45103 0.615059 0
M  V30 1376 C 131.321 -2.01784 0.112955 0
M  V30 1377 C 131.642 -1.48504 -1.26378 0
M  V30 1378 O 130.912 -0.682245 -1.83636 0
M  V30 1379 H 129.492 -0.745993 0.0387668 0
M  V30 1380 H 132.154 -1.77808 0.798141 0
M  V30 1381 H 131.25 -3.12025 0.0684069 0
M  V30 1382 N 131.551 -0.354651 -1.53558 0
M  V30 1383 C 132.799 0.237972 -2.00694 0
M  V30 1384 C 133.12 1.50173 -1.24391 0
M  V30 1385 O 132.39 1.92673 -0.354135 0
M  V30 1386 H 130.97 0.0909256 -0.741446 0
M  V30 1387 H 133.632 -0.478368 -1.88938 0
M  V30 1388 H 132.728 0.47264 -3.085 0
M  V30 1389 N 133.029 1.57378 -0.0835403 0
M  V30 1390 C 134.306 1.85363 0.624507 0
M  V30 1391 C 134.686 0.978239 1.87066 0
M  V30 1392 O 134.034 0.0475908 2.2845 0
M  V30 1393 C 134.244 3.35795 0.950947 0
M  V30 1394 C 135.592 4.03581 1.31939 0
M  V30 1395 O 136.616 3.40609 1.04232 0
M  V30 1396 O 135.475 5.14672 1.83779 0
M  V30 1397 H 132.569 0.766162 0.311329 0
M  V30 1398 H 135.115 1.69307 -0.115362 0
M  V30 1399 H 133.887 3.91244 0.0663899 0
M  V30 1400 H 133.51 3.57154 1.74719 0
M  V30 1401 N 134.507 -0.190092 1.56449 0
M  V30 1402 C 135.454 -1.23557 1.94942 0
M  V30 1403 C 136.424 -1.44972 0.810696 0
M  V30 1404 O 137.609 -1.58023 1.06927 0
M  V30 1405 C 134.749 -2.57416 2.2985 0
M  V30 1406 C 133.862 -2.43537 3.5681 0
M  V30 1407 C 132.997 -3.70134 3.81017 0
M  V30 1408 C 132.036 -3.51109 5.01387 0
M  V30 1409 N 131.173 -4.6973 5.21822 0
M  V30 1410 H 136.013 -0.900304 2.84075 0
M  V30 1411 H 133.55 -0.43318 1.40577 0
M  V30 1412 H 135.508 -3.35409 2.48106 0
M  V30 1413 H 134.138 -2.88975 1.43852 0
M  V30 1414 H 133.19 -1.56816 3.46573 0
M  V30 1415 H 134.502 -2.25415 4.4496 0
M  V30 1416 H 133.656 -4.56566 3.9954 0
M  V30 1417 H 132.395 -3.91215 2.91207 0
M  V30 1418 H 131.4 -2.63063 4.82782 0
M  V30 1419 H 132.625 -3.31468 5.9271 0
M  V30 1420 H 130.571 -4.91065 4.34961 0
M  V30 1421 H 130.488 -4.54452 6.0416 0
M  V30 1422 H 131.756 -5.57499 5.44808 0
M  V30 1423 N 135.985 -1.50799 -0.457987 0
M  V30 1424 C 136.948 -1.7005 -1.53674 0
M  V30 1425 C 137.948 -0.570881 -1.50325 0
M  V30 1426 O 139.138 -0.838126 -1.52712 0
M  V30 1427 C 136.27 -1.73788 -2.93276 0
M  V30 1428 H 137.463 -2.66306 -1.37917 0
M  V30 1429 H 135.016 -1.40477 -0.685271 0
M  V30 1430 H 135.751 -0.792717 -3.14462 0
M  V30 1431 H 135.536 -2.55864 -2.97113 0
M  V30 1432 H 137.026 -1.90591 -3.71571 0
M  V30 1433 N 137.463 0.71206 -1.40597 0
M  V30 1434 C 138.71 1.47197 -1.39065 0
M  V30 1435 C 139.038 1.94499 0.00583891 0
M  V30 1436 O 138.293 1.68752 0.99102 0
M  V30 1437 C 138.592 2.71039 -2.32965 0
M  V30 1438 C 138.258 2.42484 -3.80148 0
M  V30 1439 C 136.92 2.34406 -4.20247 0
M  V30 1440 C 139.272 2.18598 -4.73143 0
M  V30 1441 C 136.6 2.00516 -5.51371 0
M  V30 1442 C 138.952 1.8622 -6.0457 0
M  V30 1443 C 137.616 1.76626 -6.43708 0
M  V30 1444 H 136.886 0.538634 -0.508876 0
M  V30 1445 H 139.533 0.815325 -1.73276 0
M  V30 1446 H 137.838 3.41558 -1.91951 0
M  V30 1447 H 139.535 3.29138 -2.29061 0
M  V30 1448 H 136.125 2.49659 -3.4838 0
M  V30 1449 H 140.309 2.23793 -4.42979 0
M  V30 1450 H 135.565 1.91628 -5.80593 0
M  V30 1451 H 139.739 1.66752 -6.76141 0
M  V30 1452 H 137.366 1.50133 -7.45228 0
M  V30 1453 N 138.941 1.26152 0.944643 0
M  V30 1454 C 139.904 1.07474 2.0244 0
M  V30 1455 C 140.904 0.0242064 1.60782 0
M  V30 1456 O 142.094 0.267302 1.72137 0
M  V30 1457 C 139.226 0.633956 3.34953 0
M  V30 1458 H 140.419 2.03336 2.20442 0
M  V30 1459 H 137.972 1.087 1.12312 0
M  V30 1460 H 138.707 -0.326811 3.22649 0
M  V30 1461 H 138.492 1.39247 3.66542 0
M  V30 1462 H 139.982 0.52501 4.14287 0
M  V30 1463 N 140.419 -1.14872 1.07899 0
M  V30 1464 C 141.382 -2.17986 0.708161 0
M  V30 1465 C 142.382 -1.58775 -0.25442 0
M  V30 1466 O 143.572 -1.74166 -0.034645 0
M  V30 1467 C 140.704 -3.40871 0.0446929 0
M  V30 1468 H 141.897 -2.52306 1.62116 0
M  V30 1469 H 139.45 -1.2943 0.876218 0
M  V30 1470 H 140.185 -3.12124 -0.880281 0
M  V30 1471 H 139.97 -3.8511 0.737091 0
M  V30 1472 H 141.46 -4.17121 -0.19991 0
M  V30 1473 N 141.898 -0.863906 -1.31812 0
M  V30 1474 C 143.146 -0.470904 -1.96537 0
M  V30 1475 C 143.467 0.978771 -1.68657 0
M  V30 1476 O 142.737 1.6853 -0.998717 0
M  V30 1477 H 141.317 -0.171148 -0.72713 0
M  V30 1478 H 143.979 -1.10236 -1.60729 0
M  V30 1479 H 143.075 -0.623616 -3.05806 0
M  V30 1480 N 143.376 1.44774 -0.622745 0
M  V30 1481 C 144.339 2.29069 0.0774015 0
M  V30 1482 C 145.339 1.4059 0.780461 0
M  V30 1483 O 146.529 1.62551 0.626322 0
M  V30 1484 C 143.661 3.21974 1.12006 0
M  V30 1485 H 144.854 2.92459 -0.663901 0
M  V30 1486 H 142.407 1.51548 -0.382486 0
M  V30 1487 H 143.142 2.63417 1.89162 0
M  V30 1488 H 142.927 3.87168 0.619951 0
M  V30 1489 H 144.417 3.85318 1.60995 0
M  V30 1490 N 144.854 0.36279 1.53368 0
M  V30 1491 C 146.131 -0.284021 1.93527 0
M  V30 1492 C 146.511 -1.66628 1.29608 0
M  V30 1493 O 145.859 -2.23942 0.45413 0
M  V30 1494 C 146.069 -0.337028 3.47369 0
M  V30 1495 C 147.417 -0.578708 4.20638 0
M  V30 1496 O 148.441 -0.418352 3.53735 0
M  V30 1497 O 147.3 -0.89074 5.39192 0
M  V30 1498 H 144.394 -0.169743 0.809393 0
M  V30 1499 H 146.94 0.41537 1.64538 0
M  V30 1500 H 145.712 0.632217 3.86159 0
M  V30 1501 H 145.335 -1.08243 3.82582 0
M  V30 1502 N 146.332 -1.57332 0.0918853 0
M  V30 1503 C 147.581 -1.93412 -0.572249 0
M  V30 1504 C 147.894 -0.975515 -1.69538 0
M  V30 1505 O 149.1 -1.22991 -2.42045 0
M  V30 1506 C 147.556 -3.43648 -1.0693 0
M  V30 1507 C 147.164 -4.47994 0.0239049 0
M  V30 1508 C 148.908 -3.88695 -1.70635 0
M  V30 1509 C 146.815 -5.89381 -0.488319 0
M  V30 1510 H 145.745 -0.721939 -0.217532 0
M  V30 1511 H 148.396 -1.82735 0.167369 0
M  V30 1512 H 146.778 -3.49466 -1.8625 0
M  V30 1513 H 147.952 -4.53815 0.799277 0
M  V30 1514 H 146.267 -4.12536 0.565946 0
M  V30 1515 H 148.864 -4.91725 -2.10025 0
M  V30 1516 H 149.207 -3.27166 -2.57426 0
M  V30 1517 H 149.74 -3.85564 -0.979023 0
M  V30 1518 H 146.479 -6.54602 0.342906 0
M  V30 1519 H 145.999 -5.87037 -1.23077 0
M  V30 1520 H 147.678 -6.39863 -0.958317 0
M  V30 1521 N 147.81 0.181792 -1.56548 0
M  V30 1522 C 148.757 1.22521 -1.95595 0
M  V30 1523 C 149.727 1.4454 -0.818373 0
M  V30 1524 O 150.912 1.57454 -1.07763 0
M  V30 1525 C 148.052 2.56193 -2.31212 0
M  V30 1526 C 147.165 2.41641 -3.58097 0
M  V30 1527 C 146.3 3.68108 -3.82975 0
M  V30 1528 C 145.339 3.48445 -5.03242 0
M  V30 1529 N 144.476 4.66956 -5.24306 0
M  V30 1530 H 149.316 0.885226 -2.84548 0
M  V30 1531 H 146.853 0.425718 -1.40805 0
M  V30 1532 H 148.811 3.34088 -2.49882 0
M  V30 1533 H 147.441 2.88208 -1.45382 0
M  V30 1534 H 146.493 1.54976 -3.474 0
M  V30 1535 H 147.805 2.23052 -4.46149 0
M  V30 1536 H 146.959 4.54441 -4.01956 0
M  V30 1537 H 145.698 3.89666 -2.93278 0
M  V30 1538 H 144.703 2.60499 -4.8417 0
M  V30 1539 H 145.928 3.2832 -5.9446 0
M  V30 1540 H 143.874 4.88752 -4.37559 0
M  V30 1541 H 143.791 4.51242 -6.06561 0
M  V30 1542 H 145.059 5.54602 -5.47756 0
M  V30 1543 N 149.288 1.51039 0.449983 0
M  V30 1544 C 150.198 1.74261 1.57067 0
M  V30 1545 C 151.214 0.626363 1.62335 0
M  V30 1546 O 152.39 0.907162 1.79812 0
M  V30 1547 C 149.455 1.85114 2.93144 0
M  V30 1548 C 148.516 3.0893 2.98095 0
M  V30 1549 C 147.749 3.19256 4.27681 0
M  V30 1550 O 147.972 2.35835 5.19363 0
M  V30 1551 O 146.906 4.12144 4.38658 0
M  V30 1552 H 150.732 2.69303 1.40391 0
M  V30 1553 H 148.317 1.35389 0.631688 0
M  V30 1554 H 150.199 1.94311 3.73926 0
M  V30 1555 H 148.874 0.932588 3.09975 0
M  V30 1556 H 147.781 3.0522 2.16314 0
M  V30 1557 H 149.114 4.00433 2.86206 0
M  V30 1558 N 150.766 -0.704594 1.40972 0
M  V30 1559 C 151.699 -1.82861 1.36518 0
M  V30 1560 C 152.677 -1.6091 0.23382 0
M  V30 1561 O 153.861 -1.83778 0.419271 0
M  V30 1562 C 150.988 -3.1939 1.12729 0
M  V30 1563 C 150.034 -3.60148 2.28463 0
M  V30 1564 S 150.867 -3.65994 3.90907 0
M  V30 1565 C 152.023 -5.05264 3.69403 0
M  V30 1566 H 152.256 -1.86361 2.3164 0
M  V30 1567 H 149.789 -0.872439 1.27389 0
M  V30 1568 H 151.747 -3.98211 0.996893 0
M  V30 1569 H 150.408 -3.1351 0.192427 0
M  V30 1570 H 149.601 -4.59309 2.07489 0
M  V30 1571 H 149.203 -2.88612 2.37863 0
M  V30 1572 H 151.495 -5.92504 3.28551 0
M  V30 1573 H 152.438 -5.31278 4.68134 0
M  V30 1574 H 152.846 -4.76377 3.02862 0
M  V30 1575 N 152.244 -1.26651 -0.937939 0
M  V30 1576 C 153.176 -1.04283 -2.04102 0
M  V30 1577 C 154.189 -0.00221014 -1.628 0
M  V30 1578 O 155.378 -0.242645 -1.76843 0
M  V30 1579 C 152.478 -0.557846 -3.34277 0
M  V30 1580 C 151.651 -1.66843 -4.04329 0
M  V30 1581 C 150.71 -1.18095 -5.12777 0
M  V30 1582 O 149.736 -1.87865 -5.37304 0
M  V30 1583 N 150.938 -0.0311006 -5.80492 0
M  V30 1584 H 153.703 -1.9927 -2.23856 0
M  V30 1585 H 151.264 -1.1808 -1.10764 0
M  V30 1586 H 153.256 -0.215836 -4.04124 0
M  V30 1587 H 151.826 0.298523 -3.11171 0
M  V30 1588 H 151.046 -2.18123 -3.28353 0
M  V30 1589 H 152.334 -2.41408 -4.47883 0
M  V30 1590 H 151.732 0.551486 -5.63005 0
M  V30 1591 H 150.289 0.251809 -6.51313 0
M  V30 1592 N 153.722 1.14298 -1.08507 0
M  V30 1593 C 154.67 2.21483 -0.710483 0
M  V30 1594 C 155.664 1.66998 0.284234 0
M  V30 1595 O 156.87 1.79401 0.146692 0
M  V30 1596 H 153.245 0.721578 -0.211729 0
M  V30 1597 H 155.216 2.50348 -1.62384 0
M  V30 1598 C 153.965 3.4743 -0.137007 0
M  V30 1599 H 153.288 3.89686 -0.893592 0
M  V30 1600 H 154.728 4.2391 0.0872789 0
M  V30 1601 C 153.187 3.17548 1.12538 0
M  V30 1602 O 153.717 3.35437 2.21009 0
M  V30 1603 N 151.923 2.71499 1.03617 0
M  V30 1604 H 151.47 2.57143 0.153403 0
M  V30 1605 H 151.428 2.51881 1.88158 0
M  V30 1606 N 155.201 0.870884 1.31352 0
M  V30 1607 C 156.131 0.343096 2.30966 0
M  V30 1608 C 157.112 -0.566507 1.60389 0
M  V30 1609 O 158.297 -0.483336 1.88089 0
M  V30 1610 C 155.427 -0.455487 3.443 0
M  V30 1611 C 154.381 0.361103 4.26474 0
M  V30 1612 C 153.707 -0.563221 5.31725 0
M  V30 1613 C 155.007 1.59566 4.97329 0
M  V30 1614 H 156.701 1.17548 2.75359 0
M  V30 1615 H 154.247 0.566686 1.32381 0
M  V30 1616 H 156.2 -0.83525 4.13039 0
M  V30 1617 H 154.924 -1.32139 2.98675 0
M  V30 1618 H 153.583 0.722825 3.59403 0
M  V30 1619 H 153.231 -1.42643 4.82351 0
M  V30 1620 H 152.931 -0.0207409 5.87596 0
M  V30 1621 H 154.455 -0.939808 6.03324 0
M  V30 1622 H 155.869 1.28728 5.58661 0
M  V30 1623 H 154.266 2.07728 5.63 0
M  V30 1624 H 155.336 2.34798 4.24262 0
M  V30 1625 N 156.679 -1.44442 0.630414 0
M  V30 1626 C 157.904 -2.06927 0.139944 0
M  V30 1627 C 158.329 -1.46795 -1.17613 0
M  V30 1628 O 157.687 -0.569144 -1.72135 0
M  V30 1629 C 157.735 -3.6058 0.0379581 0
M  V30 1630 O 156.839 -3.99937 -1.0062 0
M  V30 1631 H 156.18 -0.658608 0.0844483 0
M  V30 1632 H 158.71 -1.85327 0.866891 0
M  V30 1633 H 158.72 -4.07714 -0.152856 0
M  V30 1634 H 157.395 -4.03728 0.998809 0
M  V30 1635 H 155.972 -3.64436 -0.79001 0
M  V30 1636 N 158.157 -0.370918 -1.53173 0
M  V30 1637 C 159.404 0.217102 -2.01333 0
M  V30 1638 C 159.732 1.48338 -1.25802 0
M  V30 1639 O 158.987 1.92698 -0.34146 0
M  V30 1640 C 159.286 0.549696 -3.53147 0
M  V30 1641 C 158.952 -0.622872 -4.46577 0
M  V30 1642 C 157.614 -0.944595 -4.71838 0
M  V30 1643 C 159.966 -1.40819 -5.01816 0
M  V30 1644 C 157.294 -2.05351 -5.49589 0
M  V30 1645 C 159.646 -2.50757 -5.80778 0
M  V30 1646 C 158.31 -2.83458 -6.04324 0
M  V30 1647 H 157.58 0.0794431 -0.736729 0
M  V30 1648 H 160.227 -0.504481 -1.84736 0
M  V30 1649 H 158.532 1.35237 -3.6772 0
M  V30 1650 H 160.229 1.017 -3.87889 0
M  V30 1651 H 156.819 -0.36209 -4.27068 0
M  V30 1652 H 161.003 -1.17289 -4.82242 0
M  V30 1653 H 156.259 -2.3108 -5.6605 0
M  V30 1654 H 160.433 -3.12022 -6.22588 0
M  V30 1655 H 158.06 -3.69508 -6.64355 0
M  V30 1656 N 159.635 1.57281 -0.100228 0
M  V30 1657 C 160.567 2.11342 0.886972 0
M  V30 1658 C 161.58 1.05182 1.24261 0
M  V30 1659 O 162.769 1.32613 1.19483 0
M  V30 1660 C 159.869 2.5825 2.19454 0
M  V30 1661 C 159.042 3.88302 2.01346 0
M  V30 1662 C 158.101 4.21004 3.15661 0
M  V30 1663 O 157.127 4.9014 2.89398 0
M  V30 1664 N 158.329 3.76818 4.41575 0
M  V30 1665 H 161.094 2.96668 0.425216 0
M  V30 1666 H 158.655 1.61678 0.0847334 0
M  V30 1667 H 160.647 2.7717 2.94888 0
M  V30 1668 H 159.217 1.77907 2.57037 0
M  V30 1669 H 158.437 3.7848 1.10212 0
M  V30 1670 H 159.725 4.73375 1.8653 0
M  V30 1671 H 159.123 3.2102 4.65792 0
M  V30 1672 H 157.68 4.00882 5.13942 0
M  V30 1673 N 161.113 -0.173488 1.56642 0
M  V30 1674 C 162.39 -0.917617 1.7274 0
M  V30 1675 C 162.77 -2.00484 0.661027 0
M  V30 1676 O 162.118 -2.26184 -0.32453 0
M  V30 1677 C 162.328 -1.48433 3.15862 0
M  V30 1678 C 163.676 -1.95809 3.76754 0
M  V30 1679 O 164.7 -1.58231 3.19126 0
M  V30 1680 O 163.559 -2.65024 4.77938 0
M  V30 1681 H 160.653 -0.431772 0.705338 0
M  V30 1682 H 163.199 -0.161487 1.6893 0
M  V30 1683 H 161.971 -0.701715 3.84957 0
M  V30 1684 H 161.594 -2.30471 3.23989 0
M  V30 1685 N 162.591 -1.51276 -0.441967 0
M  V30 1686 C 163.831 -1.65372 -1.20132 0
M  V30 1687 C 164.195 -0.359871 -1.88597 0
M  V30 1688 O 165.396 -0.376551 -2.66149 0
M  V30 1689 C 163.667 -2.8207 -2.1948 0
M  V30 1690 S 165.226 -3.16467 -3.03964 0
M  V30 1691 H 162.044 -0.582669 -0.407453 0
M  V30 1692 H 164.646 -1.89166 -0.493609 0
M  V30 1693 H 163.35 -3.74523 -1.67812 0
M  V30 1694 H 162.881 -2.6045 -2.94838 0
M  V30 1695 H 164.896 -2.62543 -4.21053 0
M  V30 1696 N 164.069 0.697108 -1.41344 0
M  V30 1697 C 165.299 1.48377 -1.43763 0
M  V30 1698 C 165.707 1.89156 -0.0408726 0
M  V30 1699 O 165.05 1.57239 0.949812 0
M  V30 1700 C 165.112 2.7781 -2.2817 0
M  V30 1701 C 164.776 2.59244 -3.76353 0
M  V30 1702 C 165.773 2.25292 -4.68551 0
M  V30 1703 C 163.458 2.74933 -4.20378 0
M  V30 1704 C 165.452 2.07264 -6.02761 0
M  V30 1705 C 163.139 2.56521 -5.54653 0
M  V30 1706 C 164.137 2.22737 -6.4566 0
M  V30 1707 O 163.825 2.04485 -7.77458 0
M  V30 1708 H 163.557 0.463842 -0.491759 0
M  V30 1709 H 166.111 0.865934 -1.86255 0
M  V30 1710 H 164.341 3.41995 -1.8049 0
M  V30 1711 H 166.03 3.39608 -2.22309 0
M  V30 1712 H 166.796 2.12787 -4.35829 0
M  V30 1713 H 162.675 3.00213 -3.49848 0
M  V30 1714 H 166.219 1.80817 -6.73759 0
M  V30 1715 H 162.116 2.68616 -5.86955 0
M  V30 1716 H 162.884 2.1926 -7.88586 0
M  V30 1717 N 165.547 1.27147 0.931209 0
M  V30 1718 C 166.772 1.16191 1.71797 0
M  V30 1719 C 167.197 -0.278004 1.86034 0
M  V30 1720 O 166.555 -1.20137 1.35782 0
M  V30 1721 C 166.603 1.84673 3.09723 0
M  V30 1722 O 165.707 1.14231 3.96264 0
M  V30 1723 H 165.048 0.404303 0.526721 0
M  V30 1724 H 167.578 1.68152 1.1656 0
M  V30 1725 H 167.588 1.91893 3.60057 0
M  V30 1726 H 166.263 2.89421 2.98677 0
M  V30 1727 H 164.84 1.15056 3.54706 0
M  V30 1728 N 167.025 -1.13721 1.09112 0
M  V30 1729 C 168.25 -1.89314 0.847053 0
M  V30 1730 C 168.675 -1.78416 -0.595774 0
M  V30 1731 O 168.033 -1.12942 -1.41823 0
M  V30 1732 C 168.081 -3.3701 1.28284 0
M  V30 1733 O 167.185 -4.10054 0.439267 0
M  V30 1734 H 166.526 -0.588745 0.307044 0
M  V30 1735 H 169.056 -1.43902 1.45442 0
M  V30 1736 H 169.066 -3.87834 1.26683 0
M  V30 1737 H 167.741 -3.4426 2.33363 0
M  V30 1738 H 166.318 -3.69266 0.519312 0
M  V30 1739 N 168.503 -0.877838 -1.30888 0
M  V30 1740 C 169.45 -0.337538 -2.28318 0
M  V30 1741 C 170.42 0.568346 -1.56074 0
M  V30 1742 O 171.605 0.498298 -1.84178 0
M  V30 1743 C 168.745 0.448142 -3.42178 0
M  V30 1744 C 167.858 -0.48615 -4.29256 0
M  V30 1745 C 166.993 0.314427 -5.30269 0
M  V30 1746 C 166.032 -0.615791 -6.08995 0
M  V30 1747 N 165.169 0.14902 -7.01942 0
M  V30 1748 H 170.009 -1.17356 -2.73919 0
M  V30 1749 H 167.546 -0.590094 -1.34745 0
M  V30 1750 H 169.504 0.919517 -4.06941 0
M  V30 1751 H 168.134 1.24879 -2.97666 0
M  V30 1752 H 167.186 -1.076 -3.64865 0
M  V30 1753 H 168.498 -1.19909 -4.84173 0
M  V30 1754 H 167.652 0.847969 -6.00745 0
M  V30 1755 H 166.391 1.06062 -4.76027 0
M  V30 1756 H 165.396 -1.16102 -5.37401 0
M  V30 1757 H 166.621 -1.36097 -6.65323 0
M  V30 1758 H 164.567 0.877884 -6.50099 0
M  V30 1759 H 164.484 -0.504433 -7.54315 0
M  V30 1760 H 165.752 0.663537 -7.76671 0
M  V30 1761 N 169.982 1.44106 -0.638065 0
M  V30 1762 C 171.229 2.01978 -0.14533 0
M  V30 1763 C 171.557 1.50234 1.23532 0
M  V30 1764 O 170.812 0.679548 1.83523 0
M  V30 1765 C 171.111 3.5729 -0.0887327 0
M  V30 1766 C 170.777 4.28317 -1.40909 0
M  V30 1767 C 169.439 4.47437 -1.77069 0
M  V30 1768 C 171.791 4.6867 -2.28031 0
M  V30 1769 C 169.119 5.04171 -3.00047 0
M  V30 1770 C 171.471 5.26766 -3.50286 0
M  V30 1771 C 170.135 5.44104 -3.86661 0
M  V30 1772 H 169.405 0.739089 -0.0531801 0
M  V30 1773 H 172.052 1.72781 -0.825761 0
M  V30 1774 H 170.357 3.8594 0.675095 0
M  V30 1775 H 172.054 3.99807 0.309145 0
M  V30 1776 H 168.644 4.1377 -1.1177 0
M  V30 1777 H 172.828 4.53604 -2.01388 0
M  V30 1778 H 168.084 5.15782 -3.28298 0
M  V30 1779 H 172.258 5.56983 -4.18023 0
M  V30 1780 H 169.885 5.87832 -4.82034 0
M  V30 1781 N 171.46 0.379036 1.52974 0
M  V30 1782 C 172.39 -0.452706 2.29069 0
M  V30 1783 C 173.371 -1.07237 1.32039 0
M  V30 1784 O 174.556 -1.08708 1.60923 0
M  V30 1785 C 171.686 -1.5856 3.08992 0
M  V30 1786 C 170.64 -1.0925 4.13822 0
M  V30 1787 C 169.966 -2.31668 4.81907 0
M  V30 1788 C 171.266 -0.167702 5.22031 0
M  V30 1789 H 172.96 0.182181 2.98845 0
M  V30 1790 H 170.506 0.0890592 1.43724 0
M  V30 1791 H 172.459 -2.1742 3.6098 0
M  V30 1792 H 171.183 -2.24792 2.36931 0
M  V30 1793 H 169.842 -0.526494 3.628 0
M  V30 1794 H 169.49 -2.96386 4.06404 0
M  V30 1795 H 169.19 -1.9934 5.52754 0
M  V30 1796 H 170.714 -2.91189 5.36695 0
M  V30 1797 H 172.128 -0.664186 5.6944 0
M  V30 1798 H 170.525 0.0653265 6.00064 0
M  V30 1799 H 171.595 0.786347 4.78482 0
M  V30 1800 N 172.938 -1.57226 0.108567 0
M  V30 1801 C 173.885 -2.14756 -0.845481 0
M  V30 1802 C 174.855 -1.06971 -1.27068 0
M  V30 1803 O 176.04 -1.34827 -1.35005 0
M  V30 1804 C 173.18 -2.74298 -2.09415 0
M  V30 1805 C 172.293 -3.96358 -1.71826 0
M  V30 1806 C 171.428 -4.44021 -2.9158 0
M  V30 1807 C 170.467 -5.58637 -2.50181 0
M  V30 1808 N 169.604 -6.01091 -3.62814 0
M  V30 1809 H 174.444 -2.95961 -0.348035 0
M  V30 1810 H 171.981 -1.46226 -0.160106 0
M  V30 1811 H 173.939 -3.06945 -2.82561 0
M  V30 1812 H 172.569 -1.95801 -2.56636 0
M  V30 1813 H 171.621 -3.69939 -0.885947 0
M  V30 1814 H 172.933 -4.79504 -1.37394 0
M  V30 1815 H 172.087 -4.78522 -3.72963 0
M  V30 1816 H 170.826 -3.59803 -3.29231 0
M  V30 1817 H 169.831 -5.23751 -1.67228 0
M  V30 1818 H 171.056 -6.44613 -2.13659 0
M  V30 1819 H 169.002 -5.19817 -4.00158 0
M  V30 1820 H 168.919 -6.79066 -3.32273 0
M  V30 1821 H 170.187 -6.40227 -4.44668 0
M  V30 1822 N 174.416 0.165178 -1.56732 0
M  V30 1823 C 175.366 1.20917 -1.93295 0
M  V30 1824 C 176.35 1.39488 -0.801985 0
M  V30 1825 O 177.542 1.41356 -1.06525 0
M  V30 1826 C 174.671 2.54718 -2.3016 0
M  V30 1827 C 173.757 2.39815 -3.49785 0
M  V30 1828 N 174.148 1.94637 -4.66851 0
M  V30 1829 C 172.446 2.70623 -3.54513 0
M  V30 1830 C 173.147 1.92344 -5.4898 0
M  V30 1831 N 172.123 2.34978 -4.9019 0
M  V30 1832 H 175.925 0.851675 -2.81289 0
M  V30 1833 H 173.439 0.373399 -1.58049 0
M  V30 1834 H 175.436 3.30165 -2.54552 0
M  V30 1835 H 174.096 2.91265 -1.43508 0
M  V30 1836 H 175.107 1.6488 -4.90953 0
M  V30 1837 H 171.784 3.11167 -2.78354 0
M  V30 1838 H 173.174 1.5906 -6.52801 0
M  V30 1839 N 175.894 1.51508 0.433938 0
M  V30 1840 C 177.14 1.65549 1.18173 0
M  V30 1841 C 177.495 0.368751 1.88833 0
M  V30 1842 O 176.788 -0.635616 1.8075 0
M  V30 1843 C 176.982 2.79928 2.22205 0
M  V30 1844 C 176.811 4.19601 1.61756 0
M  V30 1845 C 175.581 4.85489 1.40101 0
M  V30 1846 C 177.779 5.02574 1.09194 0
M  V30 1847 N 175.761 6.09266 0.752859 0
M  V30 1848 C 177.132 6.17381 0.569255 0
M  V30 1849 C 179.187 4.88079 0.984025 0
M  V30 1850 C 177.89 7.19282 -0.0507472 0
M  V30 1851 C 179.916 5.90191 0.377912 0
M  V30 1852 C 179.278 7.04272 -0.134216 0
M  V30 1853 H 175.377 0.659653 0.419979 0
M  V30 1854 H 177.961 1.88746 0.477818 0
M  V30 1855 H 176.132 2.5839 2.89982 0
M  V30 1856 H 177.864 2.83132 2.89168 0
M  V30 1857 H 174.619 4.43417 1.66369 0
M  V30 1858 H 175.043 6.75528 0.446123 0
M  V30 1859 H 179.685 4.00131 1.36583 0
M  V30 1860 H 177.403 8.06876 -0.444676 0
M  V30 1861 H 180.989 5.81045 0.296269 0
M  V30 1862 H 179.869 7.81933 -0.59585 0
M  V30 1863 N 177.372 -0.689602 1.41712 0
M  V30 1864 C 178.649 -1.44457 1.31877 0
M  V30 1865 C 179.029 -2.11039 -0.0508537 0
M  V30 1866 O 178.377 -2.02138 -1.06547 0
M  V30 1867 C 178.587 -2.45913 2.47645 0
M  V30 1868 C 179.935 -3.10991 2.89084 0
M  V30 1869 O 180.959 -2.56238 2.47428 0
M  V30 1870 O 179.818 -4.10174 3.61137 0
M  V30 1871 H 176.912 -0.64362 0.519309 0
M  V30 1872 H 179.458 -0.719576 1.53689 0
M  V30 1873 H 178.23 -1.95409 3.39015 0
M  V30 1874 H 177.853 -3.25913 2.27742 0
M  V30 1875 N 178.85 -1.27639 -0.924453 0
M  V30 1876 C 179.8 -1.07295 -2.01176 0
M  V30 1877 C 180.784 5.77352e-05 -1.609 0
M  V30 1878 O 181.976 -0.218855 -1.75642 0
M  V30 1879 C 179.105 -0.725592 -3.35544 0
M  V30 1880 C 178.191 -1.83691 -3.82254 0
M  V30 1881 N 178.582 -3.07697 -4.01443 0
M  V30 1882 C 176.88 -1.72433 -4.11319 0
M  V30 1883 C 177.581 -3.80037 -4.40394 0
M  V30 1884 N 176.557 -3.0782 -4.48049 0
M  V30 1885 H 180.359 -2.01399 -2.14046 0
M  V30 1886 H 177.873 -1.18401 -1.11153 0
M  V30 1887 H 179.87 -0.560959 -4.13109 0
M  V30 1888 H 178.53 0.207782 -3.24034 0
M  V30 1889 H 179.541 -3.43424 -3.8766 0
M  V30 1890 H 176.218 -0.862005 -4.08504 0
M  V30 1891 H 177.608 -4.86632 -4.63291 0
M  V30 1892 N 180.328 1.1314 -1.09713 0
M  V30 1893 C 181.258 2.20748 -0.761102 0
M  V30 1894 C 182.239 1.68061 0.262566 0
M  V30 1895 O 183.424 1.93765 0.129977 0
M  V30 1896 C 180.554 3.46812 -0.184054 0
M  V30 1897 C 179.508 4.12606 -1.13757 0
M  V30 1898 C 178.834 5.33031 -0.422083 0
M  V30 1899 C 180.134 4.59603 -2.48118 0
M  V30 1900 H 181.828 2.49113 -1.66082 0
M  V30 1901 H 179.374 1.19734 -0.799987 0
M  V30 1902 H 181.327 4.21353 0.0631215 0
M  V30 1903 H 180.051 3.17851 0.750868 0
M  V30 1904 H 178.71 3.40036 -1.37007 0
M  V30 1905 H 178.358 5.00335 0.517072 0
M  V30 1906 H 178.058 5.77999 -1.05788 0
M  V30 1907 H 179.582 6.10325 -0.183277 0
M  V30 1908 H 180.996 5.25552 -2.29059 0
M  V30 1909 H 179.393 5.15321 -3.07514 0
M  V30 1910 H 180.463 3.73971 -3.08665 0
M  V30 1911 N 181.806 0.884767 1.30421 0
M  V30 1912 C 183.034 0.518044 2.0031 0
M  V30 1913 C 183.449 -0.893408 1.66324 0
M  V30 1914 O 182.806 -1.5875 0.900262 0
M  V30 1915 C 182.857 0.682997 3.54989 0
M  V30 1916 O 182.578 2.03888 3.87764 0
M  V30 1917 C 184.079 0.31924 4.42149 0
M  V30 1918 H 181.299 0.200265 0.640418 0
M  V30 1919 H 183.843 1.19001 1.6631 0
M  V30 1920 H 181.998 0.0584052 3.87356 0
M  V30 1921 H 182.412 2.05735 4.82466 0
M  V30 1922 H 183.886 0.485555 5.4986 0
M  V30 1923 H 184.363 -0.742717 4.32875 0
M  V30 1924 H 184.969 0.920147 4.15227 0
M  V30 1925 N 183.284 -1.43765 0.645699 0
M  V30 1926 C 184.216 -2.29027 -0.0890605 0
M  V30 1927 C 185.229 -1.42093 -0.794563 0
M  V30 1928 O 186.418 -1.66104 -0.653575 0
M  V30 1929 C 183.518 -3.18831 -1.14891 0
M  V30 1930 C 182.691 -4.34261 -0.523043 0
M  V30 1931 C 181.75 -5.04994 -1.47878 0
M  V30 1932 O 180.776 -5.6052 -0.990277 0
M  V30 1933 N 181.978 -5.07795 -2.81291 0
M  V30 1934 H 184.743 -2.92727 0.64272 0
M  V30 1935 H 182.304 -1.54373 0.487924 0
M  V30 1936 H 184.296 -3.63015 -1.78892 0
M  V30 1937 H 182.866 -2.56782 -1.78275 0
M  V30 1938 H 182.086 -3.93088 0.295896 0
M  V30 1939 H 183.374 -5.08728 -0.0858147 0
M  V30 1940 H 182.772 -4.64042 -3.23546 0
M  V30 1941 H 181.329 -5.55721 -3.40614 0
M  V30 1942 N 184.763 -0.387143 -1.52771 0
M  V30 1943 C 186.009 0.196025 -2.0185 0
M  V30 1944 C 186.342 1.46641 -1.27319 0
M  V30 1945 O 185.617 1.90889 -0.373032 0
M  V30 1946 C 185.9 0.466136 -3.5707 0
M  V30 1947 C 185.753 -0.819385 -4.42274 0
M  V30 1948 C 187.072 1.25768 -4.21747 0
M  V30 1949 H 184.191 0.0697708 -0.73369 0
M  V30 1950 H 186.833 -0.516286 -1.82851 0
M  V30 1951 H 184.983 1.07293 -3.7339 0
M  V30 1952 H 186.655 -1.4563 -4.37709 0
M  V30 1953 H 184.898 -1.43517 -4.09372 0
M  V30 1954 H 185.569 -0.585065 -5.48891 0
M  V30 1955 H 188.045 0.744167 -4.09391 0
M  V30 1956 H 186.921 1.41541 -5.30337 0
M  V30 1957 H 187.182 2.27228 -3.79236 0
M  V30 1958 N 186.241 1.57166 -0.116904 0
M  V30 1959 C 187.188 2.15202 0.83408 0
M  V30 1960 C 188.158 1.07644 1.26499 0
M  V30 1961 O 189.343 1.35541 1.34288 0
M  V30 1962 C 186.483 2.75405 2.07957 0
M  V30 1963 C 185.596 3.97264 1.69721 0
M  V30 1964 C 184.731 4.45561 2.89221 0
M  V30 1965 C 183.77 5.59956 2.47215 0
M  V30 1966 N 182.907 6.03006 3.59622 0
M  V30 1967 H 187.747 2.96141 0.332335 0
M  V30 1968 H 185.284 1.46309 0.152349 0
M  V30 1969 H 187.242 3.08439 2.80929 0
M  V30 1970 H 185.872 1.97159 2.55594 0
M  V30 1971 H 184.924 3.70404 0.866316 0
M  V30 1972 H 186.236 4.80226 1.34849 0
M  V30 1973 H 185.39 4.80493 3.7042 0
M  V30 1974 H 184.129 3.61544 3.27318 0
M  V30 1975 H 183.134 5.2463 1.64448 0
M  V30 1976 H 184.359 6.45738 2.10238 0
M  V30 1977 H 182.305 5.21931 3.97396 0
M  V30 1978 H 182.222 6.80819 3.28667 0
M  V30 1979 H 183.49 6.42576 4.41267 0
M  V30 1980 N 187.719 -0.156864 1.56817 0
M  V30 1981 C 188.666 -1.19394 1.97519 0
M  V30 1982 C 189.636 -1.4322 0.841265 0
M  V30 1983 O 190.821 -1.55719 1.10255 0
M  V30 1984 C 187.961 -2.52483 2.35258 0
M  V30 1985 C 187.074 -2.35914 3.61896 0
M  V30 1986 C 186.209 -3.61969 3.88782 0
M  V30 1987 C 185.248 -3.40395 5.08722 0
M  V30 1988 N 184.385 -4.58556 5.31668 0
M  V30 1989 H 189.225 -0.839845 2.85921 0
M  V30 1990 H 186.762 -0.403264 1.41464 0
M  V30 1991 H 188.72 -3.30071 2.55165 0
M  V30 1992 H 187.35 -2.85859 1.49949 0
M  V30 1993 H 186.402 -1.49429 3.49821 0
M  V30 1994 H 187.714 -2.15926 4.49641 0
M  V30 1995 H 186.868 -4.47989 4.09135 0
M  V30 1996 H 185.607 -3.84951 2.9944 0
M  V30 1997 H 184.612 -2.52763 4.88253 0
M  V30 1998 H 185.837 -3.18822 5.99608 0
M  V30 1999 H 183.783 -4.81729 4.45279 0
M  V30 2000 H 183.7 -4.41535 6.13664 0
M  V30 2001 H 184.968 -5.45817 5.5651 0
M  V30 2002 N 189.197 -1.51736 -0.425897 0
M  V30 2003 C 190.608 -1.5732 -1.00536 0
M  V30 2004 C 190.959 -0.403537 -1.92005 0
M  V30 2005 O 190.084 0.478256 -2.11049 0
M  V30 2006 C 190.679 -2.85119 -1.8301 0
M  V30 2007 C 189.238 -2.93236 -2.35987 0
M  V30 2008 C 188.385 -2.52098 -1.15508 0
M  V30 2009 H 191.336 -1.57348 -0.206739 0
M  V30 2010 H 191.357 -2.69526 -2.68581 0
M  V30 2011 H 190.869 -3.7023 -1.16411 0
M  V30 2012 H 188.97 -2.12581 -3.06007 0
M  V30 2013 H 189.083 -3.9713 -2.68001 0
M  V30 2014 H 187.447 -2.05558 -1.50393 0
M  V30 2015 H 188.23 -3.39565 -0.505014 0
M  V30 2016 N 190.675 0.682077 -1.42076 0
M  V30 2017 C 191.921 1.44428 -1.42367 0
M  V30 2018 C 192.254 1.94164 -0.0373056 0
M  V30 2019 O 191.529 1.70429 0.937239 0
M  V30 2020 C 191.812 2.64654 -2.44194 0
M  V30 2021 C 191.665 2.20596 -3.91991 0
M  V30 2022 C 192.984 3.66865 -2.431 0
M  V30 2023 H 190.103 0.523834 -0.518428 0
M  V30 2024 H 192.745 0.77576 -1.73442 0
M  V30 2025 H 190.895 3.2169 -2.17826 0
M  V30 2026 H 192.567 1.68783 -4.29313 0
M  V30 2027 H 190.81 1.52242 -4.06208 0
M  V30 2028 H 191.481 3.06921 -4.58807 0
M  V30 2029 H 193.957 3.19531 -2.66532 0
M  V30 2030 H 192.833 4.48577 -3.16339 0
M  V30 2031 H 193.094 4.17493 -1.45437 0
M  V30 2032 N 192.153 1.28127 0.917671 0
M  V30 2033 C 193.402 1.14432 1.66097 0
M  V30 2034 C 193.715 -0.307247 1.93172 0
M  V30 2035 O 194.921 -0.565259 2.65551 0
M  V30 2036 C 193.377 2.00015 2.99202 0
M  V30 2037 C 192.985 3.49889 2.79789 0
M  V30 2038 C 194.729 1.94996 3.77064 0
M  V30 2039 C 192.636 4.27636 4.08511 0
M  V30 2040 H 191.566 0.424662 0.62304 0
M  V30 2041 H 194.217 1.52628 1.01868 0
M  V30 2042 H 192.599 1.54672 3.64544 0
M  V30 2043 H 193.773 4.03162 2.23152 0
M  V30 2044 H 192.088 3.56392 2.15345 0
M  V30 2045 H 194.685 2.50354 4.72469 0
M  V30 2046 H 195.028 0.925819 4.05875 0
M  V30 2047 H 195.561 2.38287 3.18534 0
M  V30 2048 H 192.3 5.30615 3.84874 0
M  V30 2049 H 191.82 3.79137 4.64774 0
M  V30 2050 H 193.499 4.37346 4.76799 0
M  V30 2051 N 193.631 -1.12557 1.10312 0
M  V30 2052 C 194.594 -2.16434 0.75424 0
M  V30 2053 C 195.594 -1.59278 -0.220685 0
M  V30 2054 O 196.784 -1.742 0.00230591 0
M  V30 2055 C 193.916 -3.40699 0.116987 0
M  V30 2056 H 195.109 -2.48811 1.67431 0
M  V30 2057 H 192.662 -1.27542 0.903475 0
M  V30 2058 H 193.397 -3.13921 -0.813877 0
M  V30 2059 H 193.182 -3.83459 0.818613 0
M  V30 2060 H 194.672 -4.17451 -0.111387 0
M  V30 2061 N 195.109 -0.891671 -1.2995 0
M  V30 2062 C 196.072 -0.36828 -2.26222 0
M  V30 2063 C 197.072 0.493014 -1.53056 0
M  V30 2064 O 198.262 0.299213 -1.71611 0
M  V30 2065 C 195.394 0.47442 -3.37583 0
M  V30 2066 H 196.587 -1.21844 -2.74033 0
M  V30 2067 H 194.14 -0.669107 -1.41254 0
M  V30 2068 H 194.875 1.34489 -2.95099 0
M  V30 2069 H 194.66 -0.142615 -3.91841 0
M  V30 2070 H 196.15 0.83218 -4.09224 0
M  V30 2071 N 196.587 1.43421 -0.653314 0
M  V30 2072 C 197.833 2.02111 -0.166992 0
M  V30 2073 C 198.166 1.51423 1.21592 0
M  V30 2074 O 197.441 0.707389 1.8118 0
M  V30 2075 C 197.724 3.5966 -0.177948 0
M  V30 2076 C 197.577 4.20579 -1.59478 0
M  V30 2077 C 198.896 4.37413 0.4856 0
M  V30 2078 H 196.015 0.734374 -0.0621557 0
M  V30 2079 H 198.657 1.70717 -0.834016 0
M  V30 2080 H 196.807 3.86537 0.390032 0
M  V30 2081 H 198.479 4.04732 -2.21336 0
M  V30 2082 H 196.722 3.77226 -2.14204 0
M  V30 2083 H 197.393 5.29665 -1.5543 0
M  V30 2084 H 199.869 4.161 0.00234528 0
M  V30 2085 H 198.745 5.47075 0.447207 0
M  V30 2086 H 199.006 4.13672 1.55974 0
M  V30 2087 N 198.065 0.39524 1.52563 0
M  V30 2088 C 199.013 -0.451859 2.28169 0
M  V30 2089 C 200.007 -1.05792 1.32304 0
M  V30 2090 O 201.213 -0.997718 1.49818 0
M  V30 2091 H 197.588 -0.164481 0.733792 0
M  V30 2092 H 199.559 0.207199 2.9768 0
M  V30 2093 C 198.308 -1.56385 3.10546 0
M  V30 2094 H 197.631 -1.10682 3.84174 0
M  V30 2095 H 199.071 -2.13067 3.66577 0
M  V30 2096 C 197.53 -2.52328 2.23231 0
M  V30 2097 O 198.06 -3.5588 1.86312 0
M  V30 2098 N 196.266 -2.22209 1.87274 0
M  V30 2099 H 195.813 -1.38033 2.17496 0
M  V30 2100 H 195.771 -2.86652 1.29143 0
M  V30 2101 N 199.544 -1.57102 0.125237 0
M  V30 2102 C 200.792 -1.95021 -0.530198 0
M  V30 2103 C 201.113 -1.00982 -1.66816 0
M  V30 2104 O 200.383 -0.0672693 -1.95784 0
M  V30 2105 H 198.963 -0.720046 -0.198853 0
M  V30 2106 H 201.625 -1.93916 0.19564 0
M  V30 2107 H 200.721 -2.98211 -0.920681 0
M  V30 2108 N 201.022 0.148545 -1.56898 0
M  V30 2109 C 202.252 0.875118 -1.8715 0
M  V30 2110 C 202.66 1.75322 -0.711262 0
M  V30 2111 O 202.003 1.80745 0.328151 0
M  V30 2112 C 202.065 1.7844 -3.12089 0
M  V30 2113 C 201.729 1.08361 -4.43967 0
M  V30 2114 C 202.726 0.438247 -5.1805 0
M  V30 2115 C 200.411 1.07358 -4.90693 0
M  V30 2116 C 202.405 -0.20779 -6.37061 0
M  V30 2117 C 200.092 0.42373 -6.09629 0
M  V30 2118 C 201.09 -0.215829 -6.82659 0
M  V30 2119 O 200.778 -0.855378 -7.99336 0
M  V30 2120 H 200.51 0.258504 -0.624621 0
M  V30 2121 H 203.064 0.14652 -2.04877 0
M  V30 2122 H 201.294 2.55389 -2.90367 0
M  V30 2123 H 202.983 2.38279 -3.286 0
M  V30 2124 H 203.749 0.437817 -4.8302 0
M  V30 2125 H 199.628 1.5608 -4.33774 0
M  V30 2126 H 203.172 -0.70758 -6.94002 0
M  V30 2127 H 199.069 0.421822 -6.4412 0
M  V30 2128 H 199.837 -0.756892 -8.14993 0
M  V30 2129 N 202.5 1.5196 0.417844 0
M  V30 2130 C 203.463 1.74065 1.49111 0
M  V30 2131 C 204.463 0.610537 1.48758 0
M  V30 2132 O 205.653 0.87832 1.50437 0
M  V30 2133 C 202.785 1.81502 2.88565 0
M  V30 2134 H 203.978 2.69869 1.30807 0
M  V30 2135 H 201.531 1.42244 0.647785 0
M  V30 2136 H 202.266 0.875813 3.1225 0
M  V30 2137 H 202.051 2.63651 2.90225 0
M  V30 2138 H 203.541 2.00376 3.66387 0
M  V30 2139 N 203.978 -0.674533 1.42435 0
M  V30 2140 C 205.225 -1.43459 1.42919 0
M  V30 2141 C 205.553 -1.94446 0.0457312 0
M  V30 2142 O 204.808 -1.7132 -0.94593 0
M  V30 2143 C 205.107 -2.64767 2.40069 0
M  V30 2144 C 204.773 -2.3232 3.86443 0
M  V30 2145 C 203.435 -2.23182 4.26314 0
M  V30 2146 C 205.787 -2.05977 4.78773 0
M  V30 2147 C 203.115 -1.85827 5.56494 0
M  V30 2148 C 205.467 -1.70125 6.09295 0
M  V30 2149 C 204.131 -1.59498 6.48164 0
M  V30 2150 H 203.401 -0.524952 0.522978 0
M  V30 2151 H 206.048 -0.769097 1.75377 0
M  V30 2152 H 204.353 -3.36349 2.00939 0
M  V30 2153 H 206.05 -3.22949 2.37707 0
M  V30 2154 H 202.64 -2.40334 3.54877 0
M  V30 2155 H 206.824 -2.11969 4.48757 0
M  V30 2156 H 202.08 -1.76168 5.8547 0
M  V30 2157 H 206.254 -1.48767 6.80324 0
M  V30 2158 H 203.881 -1.30322 7.48946 0
M  V30 2159 N 205.456 -1.28612 -0.910864 0
M  V30 2160 C 206.704 -1.15705 -1.65701 0
M  V30 2161 C 207.025 0.29416 -1.92769 0
M  V30 2162 O 206.295 1.20331 -1.54588 0
M  V30 2163 H 204.875 -0.425216 -0.614167 0
M  V30 2164 H 207.537 -1.61381 -1.0928 0
M  V30 2165 H 206.633 -1.6988 -2.61815 0
M  V30 2166 N 206.934 1.1197 -1.10907 0
M  V30 2167 C 208.182 1.83225 -0.852819 0
M  V30 2168 C 208.503 1.84769 0.623341 0
M  V30 2169 O 207.773 1.3143 1.45269 0
M  V30 2170 H 206.353 0.67849 -0.312507 0
M  V30 2171 H 209.015 1.3556 -1.40033 0
M  V30 2172 H 208.111 2.87265 -1.22005 0
M  V30 2173 N 208.412 0.89855 1.29475 0
M  V30 2174 C 209.66 0.522847 1.9522 0
M  V30 2175 C 209.981 -0.93371 1.71192 0
M  V30 2176 O 209.251 -1.65823 1.04305 0
M  V30 2177 H 207.831 0.190366 0.722336 0
M  V30 2178 H 210.493 1.14459 1.5775 0
M  V30 2179 H 209.589 0.704476 3.04045 0
M  V30 2180 N 209.89 -1.43072 0.660911 0
M  V30 2181 C 211.13 -2.03596 0.181146 0
M  V30 2182 C 211.494 -1.51057 -1.18515 0
M  V30 2183 O 212.695 -2.03275 -1.75877 0
M  V30 2184 C 210.966 -3.56845 0.19911 0
M  V30 2185 S 212.525 -4.38289 -0.211684 0
M  V30 2186 H 209.343 -0.706954 0.0757479 0
M  V30 2187 H 211.945 -1.75027 0.870965 0
M  V30 2188 H 210.649 -3.92583 1.1961 0
M  V30 2189 H 210.18 -3.90067 -0.510996 0
M  V30 2190 H 212.195 -4.74583 -1.44863 0
M  V30 2191 N 211.368 -0.403325 -1.52352 0
M  V30 2192 C 212.278 0.432009 -2.30588 0
M  V30 2193 C 213.294 1.05884 -1.38075 0
M  V30 2194 O 214.47 1.06161 -1.71148 0
M  V30 2195 C 211.535 1.53669 -3.10784 0
M  V30 2196 C 210.596 0.933525 -4.19027 0
M  V30 2197 C 209.829 1.98557 -4.9539 0
M  V30 2198 O 210.052 3.20283 -4.71991 0
M  V30 2199 O 208.986 1.59504 -5.80381 0
M  V30 2200 H 212.812 -0.205739 -3.03002 0
M  V30 2201 H 210.397 -0.166675 -1.48467 0
M  V30 2202 H 212.279 2.17814 -3.60742 0
M  V30 2203 H 210.954 2.15915 -2.41169 0
M  V30 2204 H 209.861 0.254954 -3.7323 0
M  V30 2205 H 211.194 0.35508 -4.90918 0
M  V30 2206 N 212.846 1.57033 -0.133567 0
M  V30 2207 C 213.776 2.1909 0.807567 0
M  V30 2208 C 214.757 1.13517 1.26681 0
M  V30 2209 O 215.942 1.41809 1.32679 0
M  V30 2210 C 213.072 2.80188 2.05212 0
M  V30 2211 C 212.026 3.91471 1.73015 0
M  V30 2212 C 211.352 4.39443 3.04622 0
M  V30 2213 C 212.652 5.12886 0.987168 0
M  V30 2214 H 214.346 2.97988 0.290403 0
M  V30 2215 H 211.892 1.43335 0.138239 0
M  V30 2216 H 213.845 3.22264 2.71521 0
M  V30 2217 H 212.569 1.98601 2.59278 0
M  V30 2218 H 211.228 3.49993 1.0909 0
M  V30 2219 H 210.876 3.54695 3.56651 0
M  V30 2220 H 210.576 5.14495 2.83847 0
M  V30 2221 H 212.1 4.8418 3.72024 0
M  V30 2222 H 213.514 5.51891 1.55208 0
M  V30 2223 H 211.911 5.93615 0.87985 0
M  V30 2224 H 212.981 4.84894 -0.0235286 0
M  V30 2225 N 214.325 -0.140222 1.56975 0
M  V30 2226 C 215.288 -1.15689 1.97861 0
M  V30 2227 C 216.288 -1.3549 0.865974 0
M  V30 2228 O 217.478 -1.32367 1.13246 0
M  V30 2229 C 214.61 -2.51582 2.30042 0
M  V30 2230 H 215.803 -0.805971 2.88867 0
M  V30 2231 H 213.356 -0.383801 1.51515 0
M  V30 2232 H 214.091 -2.91632 1.41849 0
M  V30 2233 H 213.876 -2.38569 3.11171 0
M  V30 2234 H 215.366 -3.24792 2.62488 0
M  V30 2235 N 215.803 -1.52179 -0.40978 0
M  V30 2236 C 216.736 -1.70196 -1.52015 0
M  V30 2237 C 217.714 -0.549542 -1.53032 0
M  V30 2238 O 218.898 -0.776815 -1.71749 0
M  V30 2239 C 216.025 -1.74069 -2.90547 0
M  V30 2240 C 215.071 -2.95601 -3.07445 0
M  V30 2241 S 215.904 -4.55956 -2.80827 0
M  V30 2242 C 217.06 -4.62614 -4.21591 0
M  V30 2243 H 217.293 -2.64109 -1.36504 0
M  V30 2244 H 214.826 -1.4221 -0.601312 0
M  V30 2245 H 216.784 -1.76985 -3.70387 0
M  V30 2246 H 215.445 -0.812835 -3.034 0
M  V30 2247 H 214.638 -2.94791 -4.08796 0
M  V30 2248 H 214.24 -2.90569 -2.35469 0
M  V30 2249 H 216.532 -4.39951 -5.15218 0
M  V30 2250 H 217.475 -5.64548 -4.27424 0
M  V30 2251 H 217.883 -3.91654 -4.06531 0
M  V30 2252 N 217.281 0.66697 -1.42791 0
M  V30 2253 C 218.214 1.79177 -1.41318 0
M  V30 2254 C 219.192 1.60234 -0.276401 0
M  V30 2255 O 220.376 1.82602 -0.46785 0
M  V30 2256 C 217.503 3.16289 -1.21157 0
M  V30 2257 C 216.549 3.53964 -2.37932 0
M  V30 2258 S 217.382 3.55501 -4.00474 0
M  V30 2259 C 218.538 4.95292 -3.8267 0
M  V30 2260 H 218.771 1.80153 -2.365 0
M  V30 2261 H 216.304 0.838357 -1.29657 0
M  V30 2262 H 218.262 3.95428 -1.10212 0
M  V30 2263 H 216.923 3.1289 -0.275481 0
M  V30 2264 H 216.116 4.53646 -2.19594 0
M  V30 2265 H 215.718 2.82204 -2.45432 0
M  V30 2266 H 218.01 5.83584 -3.44145 0
M  V30 2267 H 218.953 5.18679 -4.82055 0
M  V30 2268 H 219.361 4.68179 -3.15386 0
M  V30 2269 N 218.759 1.29093 0.90403 0
M  V30 2270 C 219.999 1.18076 1.66845 0
M  V30 2271 C 220.363 -0.26436 1.90171 0
M  V30 2272 O 221.564 -0.497423 2.64157 0
M  V30 2273 C 219.835 1.96722 2.98388 0
M  V30 2274 S 221.394 2.0219 3.89441 0
M  V30 2275 H 218.212 0.421104 0.572881 0
M  V30 2276 H 220.814 1.63322 1.07453 0
M  V30 2277 H 219.518 3.00866 2.7912 0
M  V30 2278 H 219.049 1.52064 3.62823 0
M  V30 2279 H 221.064 1.13545 4.83034 0
M  V30 2280 N 220.237 -1.11381 1.11499 0
M  V30 2281 C 221.514 -1.7955 0.775965 0
M  V30 2282 C 221.894 -1.97859 -0.73588 0
M  V30 2283 O 221.242 -1.56376 -1.66609 0
M  V30 2284 C 221.452 -3.13196 1.53977 0
M  V30 2285 C 222.8 -3.88227 1.71944 0
M  V30 2286 O 223.824 -3.22887 1.50407 0
M  V30 2287 O 222.683 -5.05477 2.07738 0
M  V30 2288 H 219.777 -0.777728 0.28119 0
M  V30 2289 H 222.323 -1.18118 1.21845 0
M  V30 2290 H 221.095 -2.95229 2.56818 0
M  V30 2291 H 220.718 -3.82342 1.09088 0
M  V30 2292 N 221.715 -0.905404 -1.28997 0
M  V30 2293 C 222.964 -0.530191 -1.94607 0
M  V30 2294 C 223.277 0.929185 -1.72121 0
M  V30 2295 O 224.483 1.41218 -2.31883 0
M  V30 2296 C 222.939 -0.897333 -3.48534 0
M  V30 2297 C 222.547 -2.37587 -3.79811 0
M  V30 2298 C 224.291 -0.592304 -4.20347 0
M  V30 2299 C 222.198 -2.68357 -5.27009 0
M  V30 2300 H 221.128 -0.194558 -0.728466 0
M  V30 2301 H 223.779 -1.10318 -1.46636 0
M  V30 2302 H 222.161 -0.253214 -3.9519 0
M  V30 2303 H 223.335 -3.06602 -3.43994 0
M  V30 2304 H 221.65 -2.6505 -3.2115 0
M  V30 2305 H 224.247 -0.798975 -5.28697 0
M  V30 2306 H 224.59 0.469474 -4.13644 0
M  V30 2307 H 225.123 -1.19452 -3.79442 0
M  V30 2308 H 221.862 -3.73355 -5.38782 0
M  V30 2309 H 221.382 -2.03971 -5.64053 0
M  V30 2310 H 223.061 -2.54922 -5.94663 0
M  V30 2311 N 223.193 1.4272 -0.668489 0
M  V30 2312 C 224.442 2.00846 -0.185389 0
M  V30 2313 C 224.755 1.53442 1.21305 0
M  V30 2314 O 225.961 2.03944 1.79218 0
M  V30 2315 C 224.417 3.58805 -0.280591 0
M  V30 2316 C 224.025 4.15198 -1.68268 0
M  V30 2317 C 225.769 4.24255 0.14412 0
M  V30 2318 C 223.676 5.655 -1.73099 0
M  V30 2319 H 222.606 0.751145 -0.0655475 0
M  V30 2320 H 225.257 1.63516 -0.832752 0
M  V30 2321 H 223.639 3.93608 0.434553 0
M  V30 2322 H 224.813 3.91866 -2.42441 0
M  V30 2323 H 223.128 3.62176 -2.05469 0
M  V30 2324 H 225.725 5.34547 0.128086 0
M  V30 2325 H 226.068 3.99277 1.17827 0
M  V30 2326 H 226.601 3.94389 -0.519798 0
M  V30 2327 H 223.34 5.95268 -2.74475 0
M  V30 2328 H 222.86 5.90842 -1.03274 0
M  V30 2329 H 224.539 6.29808 -1.48158 0
M  V30 2330 N 224.671 0.411399 1.52136 0
M  V30 2331 C 225.901 -0.16284 2.05957 0
M  V30 2332 C 226.309 -1.3922 1.28119 0
M  V30 2333 O 225.652 -1.80768 0.326881 0
M  V30 2334 C 225.714 -0.575946 3.54856 0
M  V30 2335 C 225.378 0.542998 4.53763 0
M  V30 2336 C 226.375 1.40726 5.00492 0
M  V30 2337 C 224.06 0.716337 4.97166 0
M  V30 2338 C 226.054 2.4298 5.8927 0
M  V30 2339 C 223.741 1.74218 5.8574 0
M  V30 2340 C 224.739 2.59731 6.31687 0
M  V30 2341 O 224.427 3.60558 7.18507 0
M  V30 2342 H 224.159 -0.0229125 0.675612 0
M  V30 2343 H 226.713 0.581634 1.96993 0
M  V30 2344 H 224.943 -1.37274 3.61515 0
M  V30 2345 H 226.632 -1.07836 3.91313 0
M  V30 2346 H 227.398 1.28476 4.67674 0
M  V30 2347 H 223.277 0.0603857 4.6096 0
M  V30 2348 H 226.821 3.0976 6.25055 0
M  V30 2349 H 222.718 1.86498 6.17971 0
M  V30 2350 H 223.486 3.56829 7.36624 0
M  V30 2351 N 226.149 -1.5696 0.141893 0
M  V30 2352 C 227.112 -2.15316 -0.785587 0
M  V30 2353 C 228.112 -1.09366 -1.1788 0
M  V30 2354 O 229.302 -1.35031 -1.10056 0
M  V30 2355 C 226.434 -2.71211 -2.06537 0
M  V30 2356 H 227.627 -2.98608 -0.278041 0
M  V30 2357 H 225.18 -1.5593 -0.107519 0
M  V30 2358 H 225.915 -1.91571 -2.6167 0
M  V30 2359 H 225.7 -3.4872 -1.79268 0
M  V30 2360 H 227.19 -3.16189 -2.72789 0
M  V30 2361 N 227.627 0.131896 -1.57047 0
M  V30 2362 C 228.875 0.840269 -1.83804 0
M  V30 2363 C 229.196 1.81017 -0.72512 0
M  V30 2364 O 228.466 1.94272 0.251995 0
M  V30 2365 H 227.046 0.313294 -0.678127 0
M  V30 2366 H 229.708 0.122294 -1.94516 0
M  V30 2367 H 228.804 1.39335 -2.79271 0
M  V30 2368 N 229.106 1.52395 0.401703 0
M  V30 2369 C 230.016 1.7917 1.51444 0
M  V30 2370 C 231.032 0.677691 1.6026 0
M  V30 2371 O 232.208 0.963909 1.76835 0
M  V30 2372 C 229.273 1.94347 2.87107 0
M  V30 2373 C 228.334 3.18257 2.88116 0
M  V30 2374 C 227.567 3.32701 4.17308 0
M  V30 2375 O 227.79 2.52238 5.11598 0
M  V30 2376 O 226.724 4.25891 4.25324 0
M  V30 2377 H 230.55 2.73633 1.31752 0
M  V30 2378 H 228.135 1.3733 0.588296 0
M  V30 2379 H 230.017 2.06109 3.67555 0
M  V30 2380 H 228.692 1.03073 3.06851 0
M  V30 2381 H 227.599 3.11947 2.06494 0
M  V30 2382 H 228.932 4.09336 2.73322 0
M  V30 2383 N 230.584 -0.659388 1.43143 0
M  V30 2384 C 231.531 -1.77249 1.47822 0
M  V30 2385 C 232.501 -1.62818 0.328558 0
M  V30 2386 O 233.686 -1.83151 0.534838 0
M  V30 2387 C 230.826 -3.15371 1.40126 0
M  V30 2388 C 229.939 -3.4098 2.65249 0
M  V30 2389 C 229.074 -4.68915 2.49584 0
M  V30 2390 C 228.113 -4.87608 3.70006 0
M  V30 2391 N 227.25 -6.06796 3.53189 0
M  V30 2392 H 232.09 -1.72584 2.42938 0
M  V30 2393 H 229.627 -0.842297 1.20598 0
M  V30 2394 H 231.585 -3.9521 1.33659 0
M  V30 2395 H 230.215 -3.19121 0.485964 0
M  V30 2396 H 229.267 -2.55282 2.8202 0
M  V30 2397 H 230.579 -3.50681 3.54717 0
M  V30 2398 H 229.733 -5.56871 2.4079 0
M  V30 2399 H 228.472 -4.61524 1.5763 0
M  V30 2400 H 227.477 -3.9809 3.79215 0
M  V30 2401 H 228.702 -4.96834 4.62961 0
M  V30 2402 H 226.648 -6.00549 2.63965 0
M  V30 2403 H 226.565 -6.17428 4.36255 0
M  V30 2404 H 227.833 -6.9739 3.48236 0
M  V30 2405 N 232.062 -1.29571 -0.897171 0
M  V30 2406 C 233.025 -1.14913 -1.98312 0
M  V30 2407 C 234.025 -0.0838629 -1.60581 0
M  V30 2408 O 235.215 -0.331006 -1.71026 0
M  V30 2409 C 232.347 -0.757835 -3.3237 0
M  V30 2410 H 233.54 -2.11377 -2.12743 0
M  V30 2411 H 231.093 -1.12793 -1.08201 0
M  V30 2412 H 231.828 0.206837 -3.2364 0
M  V30 2413 H 231.613 -1.52755 -3.61121 0
M  V30 2414 H 233.103 -0.678408 -4.12053 0
M  V30 2415 N 233.54 1.10788 -1.12088 0
M  V30 2416 C 234.472 2.16816 -0.743213 0
M  V30 2417 C 235.485 1.6119 0.228412 0
M  V30 2418 O 236.674 1.78497 0.0102931 0
M  V30 2419 C 233.774 3.38809 -0.0787313 0
M  V30 2420 C 232.947 4.23885 -1.0789 0
M  V30 2421 C 232.006 5.24334 -0.442713 0
M  V30 2422 O 231.032 5.58497 -1.09864 0
M  V30 2423 N 232.234 5.75079 0.791457 0
M  V30 2424 H 234.999 2.49825 -1.65552 0
M  V30 2425 H 232.56 1.26373 -1.012 0
M  V30 2426 H 234.552 4.03107 0.358766 0
M  V30 2427 H 233.122 3.03805 0.736275 0
M  V30 2428 H 232.342 3.55939 -1.69414 0
M  V30 2429 H 233.63 4.77562 -1.75533 0
M  V30 2430 H 233.028 5.49517 1.3434 0
M  V30 2431 H 231.585 6.4118 1.17183 0
M  V30 2432 N 235.018 0.912232 1.28515 0
M  V30 2433 C 236.265 0.544599 1.95039 0
M  V30 2434 C 236.593 -0.911435 1.71823 0
M  V30 2435 O 235.848 -1.66317 1.03137 0
M  V30 2436 C 236.147 0.798392 3.48368 0
M  V30 2437 C 235.813 2.23374 3.91682 0
M  V30 2438 C 234.475 2.62617 4.03219 0
M  V30 2439 C 236.827 3.16786 4.13879 0
M  V30 2440 C 234.155 3.94429 4.3433 0
M  V30 2441 C 236.507 4.48161 4.46469 0
M  V30 2442 C 235.171 4.8726 4.56217 0
M  V30 2443 H 234.441 0.199283 0.7137 0
M  V30 2444 H 237.088 1.15327 1.52879 0
M  V30 2445 H 235.393 0.106908 3.91654 0
M  V30 2446 H 237.09 0.493141 3.97956 0
M  V30 2447 H 233.68 1.91922 3.83228 0
M  V30 2448 H 237.864 2.87677 4.0442 0
M  V30 2449 H 233.12 4.24426 4.40082 0
M  V30 2450 H 237.294 5.20559 4.62592 0
M  V30 2451 H 234.921 5.89431 4.80078 0
M  V30 2452 N 236.496 -1.42363 0.676048 0
M  V30 2453 C 237.459 -2.29199 0.00766941 0
M  V30 2454 C 238.459 -1.43389 -0.727745 0
M  V30 2455 O 239.649 -1.64764 -0.56556 0
M  V30 2456 C 236.781 -3.2591 -0.999785 0
M  V30 2457 H 237.974 -2.89794 0.771988 0
M  V30 2458 H 235.527 -1.50024 0.438468 0
M  V30 2459 H 236.262 -2.70256 -1.79255 0
M  V30 2460 H 236.047 -3.89202 -0.475829 0
M  V30 2461 H 237.537 -3.91028 -1.46583 0
M  V30 2462 N 237.974 -0.419461 -1.51915 0
M  V30 2463 C 238.906 0.43646 -2.25006 0
M  V30 2464 C 239.919 1.00149 -1.28351 0
M  V30 2465 O 241.108 0.898674 -1.54227 0
M  V30 2466 C 238.208 1.6206 -2.9764 0
M  V30 2467 C 237.381 1.17763 -4.21249 0
M  V30 2468 C 236.44 2.22985 -4.76617 0
M  V30 2469 O 235.466 1.83151 -5.38929 0
M  V30 2470 N 236.668 3.55271 -4.59089 0
M  V30 2471 H 239.433 -0.18989 -2.99098 0
M  V30 2472 H 236.994 -0.247386 -1.59999 0
M  V30 2473 H 238.986 2.32038 -3.31573 0
M  V30 2474 H 237.556 2.15266 -2.2667 0
M  V30 2475 H 236.776 0.305582 -3.93014 0
M  V30 2476 H 238.064 0.858781 -5.015 0
M  V30 2477 H 237.462 3.90377 -4.09417 0
M  V30 2478 H 236.019 4.21195 -4.97432 0
M  V30 2479 N 239.452 1.56882 -0.150215 0
M  V30 2480 C 240.863 1.82995 0.370076 0
M  V30 2481 C 241.214 1.06907 1.64515 0
M  V30 2482 O 240.339 0.315369 2.1409 0
M  V30 2483 C 240.934 3.31942 0.678208 0
M  V30 2484 C 239.493 3.58625 1.14301 0
M  V30 2485 C 238.64 2.76792 0.167778 0
M  V30 2486 H 241.591 1.54209 -0.374858 0
M  V30 2487 H 241.612 3.48272 1.53254 0
M  V30 2488 H 241.124 3.87294 -0.249991 0
M  V30 2489 H 239.225 3.08664 2.08704 0
M  V30 2490 H 239.338 4.67073 1.06676 0
M  V30 2491 H 237.702 2.45972 0.661037 0
M  V30 2492 H 238.485 3.34916 -0.754069 0
M  V30 2493 N 240.93 -0.123565 1.57115 0
M  V30 2494 C 241.84 -1.17074 2.033 0
M  V30 2495 C 242.856 -1.4561 0.952559 0
M  V30 2496 O 244.032 -1.56817 1.26374 0
M  V30 2497 C 241.097 -2.47857 2.42421 0
M  V30 2498 C 240.158 -2.26758 3.64526 0
M  V30 2499 C 239.391 -3.51305 4.01771 0
M  V30 2500 O 239.614 -4.5843 3.39409 0
M  V30 2501 O 238.548 -3.42578 4.94898 0
M  V30 2502 H 242.374 -0.808555 2.92739 0
M  V30 2503 H 239.959 -0.334027 1.45618 0
M  V30 2504 H 241.841 -3.2492 2.68338 0
M  V30 2505 H 240.516 -2.83558 1.5613 0
M  V30 2506 H 239.423 -1.47569 3.43765 0
M  V30 2507 H 240.756 -1.95963 4.51508 0
M  V30 2508 N 242.408 -1.52605 -0.393616 0
M  V30 2509 C 243.657 -1.66649 -1.13627 0
M  V30 2510 C 243.97 -0.410364 -1.91247 0
M  V30 2511 O 245.176 -0.430854 -2.68059 0
M  V30 2512 C 243.632 -2.9449 -2.06891 0
M  V30 2513 C 243.24 -4.27266 -1.34714 0
M  V30 2514 C 244.984 -3.17899 -2.81319 0
M  V30 2515 C 242.891 -5.46217 -2.26717 0
M  V30 2516 H 241.821 -0.62084 -0.427871 0
M  V30 2517 H 244.472 -1.791 -0.399428 0
M  V30 2518 H 242.854 -2.75774 -2.84191 0
M  V30 2519 H 244.028 -4.56518 -0.626714 0
M  V30 2520 H 242.343 -4.10081 -0.722643 0
M  V30 2521 H 244.94 -4.03949 -3.50328 0
M  V30 2522 H 245.283 -2.32777 -3.45139 0
M  V30 2523 H 245.816 -3.37159 -2.11113 0
M  V30 2524 H 242.555 -6.33733 -1.67521 0
M  V30 2525 H 242.075 -5.21283 -2.96689 0
M  V30 2526 H 243.754 -5.7991 -2.86903 0
M  V30 2527 N 243.887 0.651787 -1.4349 0
M  V30 2528 C 244.817 1.77621 -1.51569 0
M  V30 2529 C 245.798 1.66022 -0.370253 0
M  V30 2530 O 246.983 1.85095 -0.587658 0
M  V30 2531 C 244.113 3.16056 -1.43966 0
M  V30 2532 C 243.067 3.4242 -2.56774 0
M  V30 2533 C 242.393 4.8067 -2.34223 0
M  V30 2534 C 243.693 3.37023 -3.99015 0
M  V30 2535 H 245.387 1.71117 -2.45681 0
M  V30 2536 H 242.933 0.821825 -1.18246 0
M  V30 2537 H 244.886 3.94472 -1.48221 0
M  V30 2538 H 243.61 3.23293 -0.463586 0
M  V30 2539 H 242.269 2.66375 -2.51873 0
M  V30 2540 H 241.917 4.84585 -1.34856 0
M  V30 2541 H 241.617 4.9927 -3.09844 0
M  V30 2542 H 243.141 5.61342 -2.40265 0
M  V30 2543 H 244.555 4.05374 -4.05395 0
M  V30 2544 H 242.952 3.67159 -4.74673 0
M  V30 2545 H 244.022 2.3518 -4.2405 0
M  V30 2546 N 245.365 1.30045 0.890287 0
M  V30 2547 C 246.614 1.17929 1.63633 0
M  V30 2548 C 246.927 -0.266204 1.9378 0
M  V30 2549 O 248.133 -0.508804 2.6669 0
M  V30 2550 C 246.589 2.06317 2.94892 0
M  V30 2551 C 246.197 3.55745 2.72305 0
M  V30 2552 C 247.941 2.0295 3.72843 0
M  V30 2553 C 245.848 4.36205 3.99348 0
M  V30 2554 H 244.778 0.437782 0.613892 0
M  V30 2555 H 247.429 1.54754 0.986075 0
M  V30 2556 H 245.811 1.6237 3.61182 0
M  V30 2557 H 246.985 4.07805 2.1455 0
M  V30 2558 H 245.3 3.6088 2.07737 0
M  V30 2559 H 247.897 2.60319 4.67053 0
M  V30 2560 H 248.24 1.0117 4.0382 0
M  V30 2561 H 248.773 2.4499 3.13408 0
M  V30 2562 H 245.512 5.38659 3.73533 0
M  V30 2563 H 245.032 3.8891 4.56628 0
M  V30 2564 H 246.711 4.47362 4.67415 0
M  V30 2565 N 246.843 -1.10192 1.12674 0
M  V30 2566 C 248.091 -1.81845 0.881861 0
M  V30 2567 C 248.412 -1.85737 -0.593867 0
M  V30 2568 O 247.682 -1.33724 -1.4316 0
M  V30 2569 H 246.262 -0.673432 0.323261 0
M  V30 2570 H 248.924 -1.33316 1.42172 0
M  V30 2571 H 248.02 -2.85288 1.2656 0
M  V30 2572 N 248.321 -0.919034 -1.28029 0
M  V30 2573 C 249.549 -0.570971 -1.98866 0
M  V30 2574 C 249.964 0.848996 -1.68634 0
M  V30 2575 O 249.321 1.56307 -0.942036 0
M  V30 2576 C 249.372 -0.776876 -3.53054 0
M  V30 2577 O 249.093 -2.14097 -3.82222 0
M  V30 2578 C 250.594 -0.436356 -4.41147 0
M  V30 2579 H 247.814 -0.217175 -0.634883 0
M  V30 2580 H 250.358 -1.23368 -1.63097 0
M  V30 2581 H 248.513 -0.161085 -3.87065 0
M  V30 2582 H 248.927 -2.18455 -4.76841 0
M  V30 2583 H 250.401 -0.63117 -5.4838 0
M  V30 2584 H 250.878 0.627686 -4.34692 0
M  V30 2585 H 251.484 -1.02991 -4.12641 0
M  V30 2586 N 249.799 1.42003 -0.683588 0
M  V30 2587 C 251.048 2.00638 -0.206681 0
M  V30 2588 C 251.361 1.5472 1.19671 0
M  V30 2589 O 252.567 2.05833 1.77045 0
M  V30 2590 C 251.023 3.58487 -0.318632 0
M  V30 2591 C 250.631 4.1339 -1.72663 0
M  V30 2592 C 252.375 4.24384 0.0991141 0
M  V30 2593 C 250.282 5.63633 -1.79087 0
M  V30 2594 H 249.212 0.750408 -0.0735107 0
M  V30 2595 H 251.863 1.62624 -0.850048 0
M  V30 2596 H 250.245 3.94047 0.392781 0
M  V30 2597 H 251.419 3.89273 -2.46583 0
M  V30 2598 H 249.734 3.59976 -2.09299 0
M  V30 2599 H 252.331 5.34652 0.0713833 0
M  V30 2600 H 252.674 4.00505 1.13586 0
M  V30 2601 H 253.207 3.93816 -0.561599 0
M  V30 2602 H 249.946 5.92323 -2.80774 0
M  V30 2603 H 249.466 5.89714 -1.09535 0
M  V30 2604 H 251.145 6.28201 -1.5483 0
M  V30 2605 N 251.277 0.427512 1.51691 0
M  V30 2606 C 252.688 -0.0378867 1.86662 0
M  V30 2607 C 253.039 -1.42819 1.34525 0
M  V30 2608 O 252.164 -2.05037 0.692014 0
M  V30 2609 C 252.759 -0.0755266 3.38716 0
M  V30 2610 C 251.318 -0.485309 3.73258 0
M  V30 2611 C 250.465 0.328399 2.75349 0
M  V30 2612 H 253.416 0.64379 1.45055 0
M  V30 2613 H 253.437 -0.887056 3.70016 0
M  V30 2614 H 252.949 0.936487 3.76632 0
M  V30 2615 H 251.05 -1.50329 3.40928 0
M  V30 2616 H 251.163 -0.21693 4.78609 0
M  V30 2617 H 249.527 -0.211905 2.53817 0
M  V30 2618 H 250.31 1.3391 3.16106 0
M  V30 2619 N 252.755 -1.56801 0.158532 0
M  V30 2620 C 254.003 -1.96102 -0.488712 0
M  V30 2621 C 254.324 -1.04498 -1.64636 0
M  V30 2622 O 253.594 -0.108783 -1.95598 0
M  V30 2623 H 252.174 -0.724102 -0.183535 0
M  V30 2624 H 254.836 -1.93457 0.236728 0
M  V30 2625 H 253.932 -3.00097 -0.857219 0
M  V30 2626 N 254.233 0.115231 -1.57178 0
M  V30 2627 C 255.196 1.12526 -1.99676 0
M  V30 2628 C 256.196 1.34095 -0.88742 0
M  V30 2629 O 257.386 1.30548 -1.15337 0
M  V30 2630 C 254.518 2.4789 -2.34015 0
M  V30 2631 H 255.711 0.759912 -2.90113 0
M  V30 2632 H 253.264 0.359648 -1.52106 0
M  V30 2633 H 253.999 2.89339 -1.4647 0
M  V30 2634 H 253.784 2.33588 -3.14927 0
M  V30 2635 H 255.274 3.20575 -2.67622 0
M  V30 2636 N 255.711 1.52812 0.385517 0
M  V30 2637 C 256.959 1.67694 1.12797 0
M  V30 2638 C 257.28 0.421115 1.90399 0
M  V30 2639 O 256.55 -0.564551 1.87589 0
M  V30 2640 H 255.13 0.618155 0.419396 0
M  V30 2641 H 257.792 1.89938 0.436972 0
M  V30 2642 H 256.888 2.52896 1.82894 0
M  V30 2643 N 257.189 -0.644168 1.43834 0
M  V30 2644 C 258.437 -1.40117 1.45642 0
M  V30 2645 C 258.758 -1.94814 0.0852413 0
M  V30 2646 O 258.028 -1.74988 -0.880688 0
M  V30 2647 H 256.608 -0.52005 0.536243 0
M  V30 2648 H 259.27 -0.7591 1.7951 0
M  V30 2649 H 258.366 -2.23902 2.17427 0
M  V30 2650 N 258.668 -1.30515 -0.883378 0
M  V30 2651 C 259.896 -1.22359 -1.66841 0
M  V30 2652 C 260.311 0.213296 -1.87591 0
M  V30 2653 O 259.668 1.14075 -1.42454 0
M  V30 2654 C 259.719 -1.95011 -3.04389 0
M  V30 2655 O 259.44 -3.3309 -2.84575 0
M  V30 2656 C 260.941 -1.93532 -3.98824 0
M  V30 2657 H 258.161 -0.423371 -0.520575 0
M  V30 2658 H 260.705 -1.72167 -1.10357 0
M  V30 2659 H 258.86 -1.48997 -3.57601 0
M  V30 2660 H 259.274 -3.69907 -3.71846 0
M  V30 2661 H 260.748 -2.48902 -4.92699 0
M  V30 2662 H 261.225 -0.914627 -4.29571 0
M  V30 2663 H 261.831 -2.39364 -3.51547 0
M  V30 2664 N 260.146 1.09593 -1.13257 0
M  V30 2665 C 261.078 2.16015 -0.766167 0
M  V30 2666 C 262.091 1.61423 0.211303 0
M  V30 2667 O 263.28 1.78498 -0.00863946 0
M  V30 2668 C 260.38 3.38706 -0.114662 0
M  V30 2669 C 259.553 4.22717 -1.12379 0
M  V30 2670 C 258.612 5.23835 -0.498301 0
M  V30 2671 O 257.638 5.573 -1.15781 0
M  V30 2672 N 258.84 5.75886 0.730417 0
M  V30 2673 H 261.605 2.48055 -1.68193 0
M  V30 2674 H 259.166 1.25292 -1.02535 0
M  V30 2675 H 261.158 4.03464 0.315991 0
M  V30 2676 H 259.728 3.04569 0.704011 0
M  V30 2677 H 258.948 3.54122 -1.73179 0
M  V30 2678 H 260.236 4.75673 -1.80589 0
M  V30 2679 H 259.634 5.50911 1.28504 0
M  V30 2680 H 258.191 6.42387 1.10376 0
M  V30 2681 N 261.624 0.925811 1.2754 0
M  V30 2682 C 263.04 0.625767 1.46821 0
M  V30 2683 C 263.24 -0.825506 1.83814 0
M  V30 2684 O 262.296 -1.60356 1.95044 0
M  V30 2685 C 263.609 1.57402 2.56213 0
M  V30 2686 C 265.157 1.58204 2.70075 0
M  V30 2687 C 265.632 2.51721 3.82623 0
M  V30 2688 N 267.123 2.49917 3.89994 0
M  V30 2689 C 267.858 3.18968 4.76494 0
M  V30 2690 N 267.354 3.97391 5.67496 0
M  V30 2691 N 269.147 3.07996 4.70208 0
M  V30 2692 H 261.298 1.86409 1.01811 0
M  V30 2693 H 263.561 0.800213 0.508295 0
M  V30 2694 H 263.267 2.60925 2.35819 0
M  V30 2695 H 263.141 1.31428 3.53563 0
M  V30 2696 H 265.528 0.554124 2.89851 0
M  V30 2697 H 265.609 1.88226 1.73218 0
M  V30 2698 H 265.253 3.54622 3.63601 0
M  V30 2699 H 265.183 2.18996 4.78903 0
M  V30 2700 H 267.674 1.9296 3.24923 0
M  V30 2701 H 267.987 4.4707 6.30356 0
M  V30 2702 H 266.332 4.01495 5.67298 0
M  V30 2703 H 269.523 2.46223 3.9811 0
M  V30 2704 H 269.696 3.6208 5.37403 0
M  V30 2705 N 263.102 -1.41638 0.69111 0
M  V30 2706 C 264.032 -2.3347 0.037248 0
M  V30 2707 C 265.013 -1.51575 -0.771947 0
M  V30 2708 O 266.198 -1.80126 -0.72582 0
M  V30 2709 C 263.328 -3.35354 -0.903064 0
M  V30 2710 C 262.282 -4.27526 -0.201288 0
M  V30 2711 C 261.608 -5.19747 -1.25565 0
M  V30 2712 C 262.908 -5.13959 0.929689 0
M  V30 2713 H 264.602 -2.88397 0.804227 0
M  V30 2714 H 262.148 -1.38669 0.388189 0
M  V30 2715 H 264.101 -3.98519 -1.36969 0
M  V30 2716 H 262.825 -2.78767 -1.70166 0
M  V30 2717 H 261.484 -3.65779 0.245265 0
M  V30 2718 H 261.132 -4.59479 -2.04666 0
M  V30 2719 H 260.832 -5.8225 -0.791128 0
M  V30 2720 H 262.356 -5.85789 -1.72288 0
M  V30 2721 H 263.77 -5.70718 0.543546 0
M  V30 2722 H 262.167 -5.85379 1.32103 0
M  V30 2723 H 263.237 -4.51389 1.77133 0
M  V30 2724 N 264.58 -0.43555 -1.51462 0
M  V30 2725 C 265.808 0.130242 -2.0649 0
M  V30 2726 C 266.223 1.36614 -1.30315 0
M  V30 2727 O 265.58 1.78869 -0.362223 0
M  V30 2728 C 265.631 0.454253 -3.58635 0
M  V30 2729 O 265.352 -0.73259 -4.31931 0
M  V30 2730 C 266.853 1.07091 -4.3017 0
M  V30 2731 H 264.073 0.00871669 -0.670943 0
M  V30 2732 H 266.617 -0.614117 -1.95061 0
M  V30 2733 H 264.772 1.14851 -3.69984 0
M  V30 2734 H 265.186 -0.455787 -5.22516 0
M  V30 2735 H 266.66 1.24764 -5.37716 0
M  V30 2736 H 267.137 2.05144 -3.88346 0
M  V30 2737 H 267.743 0.416089 -4.2326 0
M  V30 2738 N 266.058 1.56714 -0.166846 0
M  V30 2739 C 267.474 1.58473 0.189372 0
M  V30 2740 C 267.674 1.18201 1.63189 0
M  V30 2741 O 266.73 0.891528 2.36237 0
M  V30 2742 C 268.043 3.00573 -0.0873872 0
M  V30 2743 C 269.591 3.1299 -0.0252443 0
M  V30 2744 C 270.066 4.57174 -0.274934 0
M  V30 2745 N 271.557 4.62665 -0.222553 0
M  V30 2746 C 272.292 5.72072 -0.389985 0
M  V30 2747 N 271.788 6.90054 -0.616229 0
M  V30 2748 N 273.581 5.61153 -0.326202 0
M  V30 2749 H 265.732 1.8118 -1.10849 0
M  V30 2750 H 267.995 0.839525 -0.440342 0
M  V30 2751 H 267.701 3.34497 -1.0865 0
M  V30 2752 H 267.575 3.72019 0.623037 0
M  V30 2753 H 269.962 2.78895 0.96444 0
M  V30 2754 H 270.043 2.43989 -0.768309 0
M  V30 2755 H 269.687 4.91976 -1.26181 0
M  V30 2756 H 269.617 5.24328 0.48869 0
M  V30 2757 H 272.108 3.77863 -0.0531512 0
M  V30 2758 H 272.421 7.69311 -0.733559 0
M  V30 2759 H 270.766 6.91927 -0.652791 0
M  V30 2760 H 273.957 4.67859 -0.150072 0
M  V30 2761 H 274.13 6.46364 -0.460116 0
M  V30 2762 N 267.536 -0.106894 1.57237 0
M  V30 2763 C 268.499 -1.11466 2.0027 0
M  V30 2764 C 269.499 -1.33623 0.894519 0
M  V30 2765 O 270.689 -1.29935 1.16028 0
M  V30 2766 C 267.821 -2.46646 2.35327 0
M  V30 2767 H 269.014 -0.744516 2.90512 0
M  V30 2768 H 266.567 -0.351576 1.52295 0
M  V30 2769 H 267.302 -2.88558 1.48003 0
M  V30 2770 H 267.087 -2.31915 3.16161 0
M  V30 2771 H 268.577 -3.19151 2.69318 0
M  V30 2772 N 269.014 -1.53014 -0.377408 0
M  V30 2773 C 270.26 -1.68872 -1.12294 0
M  V30 2774 C 270.593 -0.433224 -1.89306 0
M  V30 2775 O 269.868 0.569258 -1.85983 0
M  V30 2776 C 270.151 -2.93115 -2.09179 0
M  V30 2777 C 270.004 -4.28794 -1.35853 0
M  V30 2778 C 271.323 -3.12928 -3.09458 0
M  V30 2779 H 268.442 -0.614518 -0.406862 0
M  V30 2780 H 271.084 -1.85633 -0.40503 0
M  V30 2781 H 269.234 -2.78956 -2.70399 0
M  V30 2782 H 270.906 -4.54742 -0.775082 0
M  V30 2783 H 269.149 -4.28744 -0.660364 0
M  V30 2784 H 269.82 -5.11837 -2.06706 0
M  V30 2785 H 272.296 -3.26194 -2.58334 0
M  V30 2786 H 271.172 -4.01316 -3.74482 0
M  V30 2787 H 271.433 -2.27669 -3.78971 0
M  V30 2788 N 270.492 0.636531 -1.44174 0
M  V30 2789 C 271.74 1.39343 -1.46383 0
M  V30 2790 C 272.061 1.94766 -0.0955715 0
M  V30 2791 O 271.331 1.75452 0.871395 0
M  V30 2792 H 269.911 0.517199 -0.538994 0
M  V30 2793 H 272.573 0.74957 -1.7991 0
M  V30 2794 H 271.669 2.22746 -2.18611 0
M  V30 2795 N 271.97 1.30982 0.876444 0
M  V30 2796 C 272.917 1.18085 1.98304 0
M  V30 2797 C 273.887 0.0682263 1.6596 0
M  V30 2798 O 275.072 0.239937 1.89285 0
M  V30 2799 C 272.212 0.887475 3.33493 0
M  V30 2800 C 271.325 2.08281 3.78475 0
M  V30 2801 C 270.46 1.72678 5.0235 0
M  V30 2802 C 269.499 2.88657 5.39762 0
M  V30 2803 N 268.636 2.53292 6.54819 0
M  V30 2804 H 273.476 2.1275 2.08666 0
M  V30 2805 H 271.013 1.05839 1.02159 0
M  V30 2806 H 272.971 0.697961 4.1132 0
M  V30 2807 H 271.601 -0.022315 3.22792 0
M  V30 2808 H 270.653 2.3833 2.96484 0
M  V30 2809 H 271.965 2.95108 4.02135 0
M  V30 2810 H 271.119 1.50151 5.87826 0
M  V30 2811 H 269.858 0.830327 4.8058 0
M  V30 2812 H 268.863 3.1184 4.52809 0
M  V30 2813 H 270.088 3.79002 5.63502 0
M  V30 2814 H 268.034 1.66163 6.34607 0
M  V30 2815 H 267.951 3.3365 6.7839 0
M  V30 2816 H 269.219 2.34143 7.43503 0
M  V30 2817 N 273.449 -1.08991 1.13837 0
M  V30 2818 C 274.674 -1.85551 0.926585 0
M  V30 2819 C 275.099 -1.80782 -0.519566 0
M  V30 2820 O 274.457 -1.18855 -1.36906 0
M  V30 2821 C 274.505 -3.31266 1.42462 0
M  V30 2822 O 273.609 -4.07822 0.612789 0
M  V30 2823 H 272.95 -0.575192 0.331738 0
M  V30 2824 H 275.48 -1.37604 1.51414 0
M  V30 2825 H 275.49 -3.82112 1.43019 0
M  V30 2826 H 274.165 -3.34052 2.47754 0
M  V30 2827 H 272.742 -3.66731 0.675463 0
M  V30 2828 N 274.927 -0.932562 -1.27047 0
M  V30 2829 C 275.857 -0.452902 -2.29066 0
M  V30 2830 C 276.838 0.489338 -1.62909 0
M  V30 2831 O 278.023 0.393046 -1.90181 0
M  V30 2832 C 275.153 0.290698 -3.46081 0
M  V30 2833 C 274.107 -0.564168 -4.24265 0
M  V30 2834 C 273.433 0.308886 -5.33807 0
M  V30 2835 C 274.733 -1.83112 -4.89149 0
M  V30 2836 H 276.427 -1.30552 -2.69437 0
M  V30 2837 H 273.973 -0.629201 -1.29526 0
M  V30 2838 H 275.926 0.637233 -4.16554 0
M  V30 2839 H 274.65 1.17738 -3.0464 0
M  V30 2840 H 273.309 -0.893477 -3.55545 0
M  V30 2841 H 272.957 1.19467 -4.88607 0
M  V30 2842 H 272.657 -0.259633 -5.87026 0
M  V30 2843 H 274.181 0.650884 -6.07121 0
M  V30 2844 H 275.595 -1.55236 -5.51883 0
M  V30 2845 H 273.992 -2.34353 -5.52448 0
M  V30 2846 H 275.062 -2.54772 -4.12576 0
M  V30 2847 N 276.405 1.4127 -0.698611 0
M  V30 2848 C 277.368 2.29158 -0.044132 0
M  V30 2849 C 278.368 1.44529 0.704841 0
M  V30 2850 O 279.558 1.65643 0.539276 0
M  V30 2851 C 276.69 3.27459 0.947809 0
M  V30 2852 H 277.883 2.88529 -0.817994 0
M  V30 2853 H 275.436 1.49307 -0.46228 0
M  V30 2854 H 276.171 2.73073 1.74933 0
M  V30 2855 H 275.956 3.8991 0.41385 0
M  V30 2856 H 277.446 3.93311 1.40344 0
M  V30 2857 N 277.883 0.443576 1.51229 0
M  V30 2858 C 278.816 -0.410089 2.24485 0
M  V30 2859 C 279.794 -1.01949 1.26669 0
M  V30 2860 O 280.978 -1.06075 1.55821 0
M  V30 2861 C 278.105 -1.57211 3.00004 0
M  V30 2862 C 277.151 -1.08279 4.12526 0
M  V30 2863 S 277.984 -0.0197476 5.35496 0
M  V30 2864 C 279.14 -1.18629 6.14555 0
M  V30 2865 H 279.373 0.211832 2.96544 0
M  V30 2866 H 276.906 0.228156 1.52705 0
M  V30 2867 H 278.864 -2.23825 3.44111 0
M  V30 2868 H 277.525 -2.16547 2.27522 0
M  V30 2869 H 276.718 -1.95193 4.64667 0
M  V30 2870 H 276.32 -0.494797 3.70713 0
M  V30 2871 H 278.612 -2.10344 6.4402 0
M  V30 2872 H 279.555 -0.70472 7.04584 0
M  V30 2873 H 279.963 -1.42768 5.46148 0
M  V30 2874 N 279.361 -1.56624 0.175154 0
M  V30 2875 C 280.271 -2.21741 -0.766042 0
M  V30 2876 C 281.287 -1.21023 -1.25018 0
M  V30 2877 O 282.463 -1.53697 -1.3015 0
M  V30 2878 C 279.528 -2.84839 -1.97655 0
M  V30 2879 C 278.589 -4.00769 -1.53892 0
M  V30 2880 C 277.822 -4.60849 -2.69173 0
M  V30 2881 O 278.045 -4.19823 -3.86141 0
M  V30 2882 O 276.979 -5.50655 -2.43028 0
M  V30 2883 H 280.805 -3.02738 -0.241585 0
M  V30 2884 H 278.39 -1.49305 -0.053222 0
M  V30 2885 H 280.272 -3.24834 -2.68442 0
M  V30 2886 H 278.947 -2.06836 -2.48999 0
M  V30 2887 H 277.854 -3.65436 -0.80044 0
M  V30 2888 H 279.187 -4.80376 -1.07236 0
M  V30 2889 N 280.839 0.0985539 -1.57292 0
M  V30 2890 C 281.772 1.15082 -1.97057 0
M  V30 2891 C 282.75 1.39025 -0.843255 0
M  V30 2892 O 283.934 1.52842 -1.10325 0
M  V30 2893 C 281.061 2.50069 -2.28437 0
M  V30 2894 C 280.107 2.42428 -3.509 0
M  V30 2895 S 280.94 1.84414 -5.02744 0
M  V30 2896 C 282.096 3.21032 -5.37298 0
M  V30 2897 H 282.329 0.811815 -2.86002 0
M  V30 2898 H 279.862 0.306102 -1.51335 0
M  V30 2899 H 281.82 3.27729 -2.47192 0
M  V30 2900 H 280.481 2.8114 -1.40069 0
M  V30 2901 H 279.674 3.41911 -3.70288 0
M  V30 2902 H 279.276 1.72896 -3.31637 0
M  V30 2903 H 281.568 4.17297 -5.33731 0
M  V30 2904 H 282.511 3.06452 -6.38352 0
M  V30 2905 H 282.919 3.20404 -4.64759 0
M  V30 2906 N 282.317 1.53212 0.369288 0
M  V30 2907 C 283.563 1.69466 1.11397 0
M  V30 2908 C 283.896 0.443257 1.89074 0
M  V30 2909 O 283.171 -0.559386 1.86282 0
M  V30 2910 C 283.454 2.9422 2.07621 0
M  V30 2911 C 283.307 4.29508 1.33577 0
M  V30 2912 C 284.626 3.14565 3.07794 0
M  V30 2913 H 281.745 0.616667 0.403597 0
M  V30 2914 H 284.387 1.85845 0.395179 0
M  V30 2915 H 282.537 2.80387 2.68916 0
M  V30 2916 H 284.209 4.55147 0.750955 0
M  V30 2917 H 282.452 4.29088 0.637618 0
M  V30 2918 H 283.123 5.12926 2.03989 0
M  V30 2919 H 285.599 3.2756 2.56601 0
M  V30 2920 H 284.475 4.03297 3.72348 0
M  V30 2921 H 284.736 2.29675 3.77759 0
M  V30 2922 N 283.795 -0.628877 1.44509 0
M  V30 2923 C 284.725 -1.75187 1.54376 0
M  V30 2924 C 285.706 -1.65411 0.396618 0
M  V30 2925 O 286.891 -1.84137 0.617031 0
M  V30 2926 C 284.021 -3.13725 1.48976 0
M  V30 2927 C 282.975 -3.38291 2.62189 0
M  V30 2928 C 282.301 -4.76883 2.41841 0
M  V30 2929 C 283.601 -3.30632 4.04326 0
M  V30 2930 H 285.295 -1.67187 2.48373 0
M  V30 2931 H 282.841 -0.802909 1.19538 0
M  V30 2932 H 284.794 -3.92064 1.54478 0
M  V30 2933 H 283.518 -3.22515 0.514961 0
M  V30 2934 H 282.177 -2.62334 2.56079 0
M  V30 2935 H 281.825 -4.82378 1.42548 0
M  V30 2936 H 281.525 -4.94278 3.17747 0
M  V30 2937 H 283.049 -5.57449 2.49165 0
M  V30 2938 H 284.463 -3.98873 4.11793 0
M  V30 2939 H 282.86 -3.59561 4.80454 0
M  V30 2940 H 283.93 -2.28404 4.27738 0
M  V30 2941 N 285.273 -1.31445 -0.869486 0
M  V30 2942 C 286.501 -1.24122 -1.65534 0
M  V30 2943 C 286.916 0.193387 -1.87807 0
M  V30 2944 O 286.273 1.12557 -1.43656 0
M  V30 2945 C 286.324 -1.98229 -3.02304 0
M  V30 2946 O 286.045 -3.3609 -2.81026 0
M  V30 2947 C 287.546 -1.97751 -3.96749 0
M  V30 2948 H 284.766 -0.428868 -0.516055 0
M  V30 2949 H 287.31 -1.73328 -1.08525 0
M  V30 2950 H 285.465 -1.52782 -3.56001 0
M  V30 2951 H 285.879 -3.7383 -3.67902 0
M  V30 2952 H 287.353 -2.54114 -4.90031 0
M  V30 2953 H 287.83 -0.960137 -4.28577 0
M  V30 2954 H 288.436 -2.43079 -3.48988 0
M  V30 2955 N 286.751 1.08385 -1.14413 0
M  V30 2956 C 287.999 1.80419 -0.910679 0
M  V30 2957 C 288.32 1.86658 0.564243 0
M  V30 2958 O 287.59 1.35985 1.41014 0
M  V30 2959 H 286.17 0.668204 -0.333934 0
M  V30 2960 H 288.832 1.31037 -1.44275 0
M  V30 2961 H 287.928 2.83238 -1.31082 0
M  V30 2962 N 288.23 0.939286 1.26551 0
M  V30 2963 C 289.507 0.5038 1.89001 0
M  V30 2964 C 289.887 -1.01854 1.84903 0
M  V30 2965 O 289.235 -1.87773 1.30206 0
M  V30 2966 C 289.445 1.063 3.32417 0
M  V30 2967 C 290.793 1.13051 4.09273 0
M  V30 2968 O 291.817 1.01345 3.41479 0
M  V30 2969 O 290.676 1.31233 5.30509 0
M  V30 2970 H 287.77 0.163897 0.810597 0
M  V30 2971 H 290.316 1.03173 1.34735 0
M  V30 2972 H 289.088 2.10665 3.29752 0
M  V30 2973 H 288.711 0.517408 3.94219 0
M  V30 2974 N 289.708 -1.40897 0.706093 0
M  V30 2975 C 291.124 -1.55042 0.37869 0
M  V30 2976 C 291.324 -1.67944 -1.11342 0
M  V30 2977 O 290.38 -1.66372 -1.89938 0
M  V30 2978 C 291.693 -2.78398 1.13643 0
M  V30 2979 C 293.241 -2.92206 1.12181 0
M  V30 2980 C 293.716 -4.18463 1.86152 0
M  V30 2981 N 295.207 -4.25443 1.83173 0
M  V30 2982 C 295.942 -5.2202 2.37239 0
M  V30 2983 N 295.438 -6.24563 2.99821 0
M  V30 2984 N 297.231 -5.14033 2.27435 0
M  V30 2985 H 289.382 -1.30769 1.67372 0
M  V30 2986 H 291.645 -0.631653 0.706907 0
M  V30 2987 H 291.351 -2.7511 2.19106 0
M  V30 2988 H 291.225 -3.70228 0.721853 0
M  V30 2989 H 293.612 -2.95004 0.0754171 0
M  V30 2990 H 293.693 -2.01521 1.57554 0
M  V30 2991 H 293.337 -4.16427 2.90776 0
M  V30 2992 H 293.267 -5.08141 1.38206 0
M  V30 2993 H 295.758 -3.51976 1.37556 0
M  V30 2994 H 296.071 -6.94665 3.38616 0
M  V30 2995 H 294.416 -6.25035 3.03902 0
M  V30 2996 H 297.607 -4.3285 1.78208 0
M  V30 2997 H 297.78 -5.89129 2.69873 0
M  V30 2998 N 291.186 -0.45159 -1.50991 0
M  V30 2999 C 292.435 0.111653 -2.01391 0
M  V30 3000 C 292.748 1.42529 -1.33959 0
M  V30 3001 O 293.954 2.07232 -1.75405 0
M  V30 3002 C 292.41 0.249514 -3.59034 0
M  V30 3003 C 292.018 -1.05453 -4.35412 0
M  V30 3004 C 293.762 0.765762 -4.17536 0
M  V30 3005 C 291.669 -0.881529 -5.84793 0
M  V30 3006 H 290.599 0.0455022 -0.752626 0
M  V30 3007 H 293.25 -0.583524 -1.73975 0
M  V30 3008 H 291.632 1.00803 -3.82955 0
M  V30 3009 H 292.806 -1.82248 -4.23229 0
M  V30 3010 H 291.121 -1.50039 -3.88429 0
M  V30 3011 H 293.718 0.911913 -5.26866 0
M  V30 3012 H 294.061 1.75201 -3.77638 0
M  V30 3013 H 294.594 0.0651744 -3.97747 0
M  V30 3014 H 291.333 -1.84057 -6.29129 0
M  V30 3015 H 290.853 -0.153625 -5.99603 0
M  V30 3016 H 292.532 -0.540363 -6.4474 0
M  V30 3017 N 292.664 1.56529 -0.183458 0
M  V30 3018 C 293.889 2.02064 0.467428 0
M  V30 3019 C 294.314 1.06282 1.55196 0
M  V30 3020 O 293.672 0.0443565 1.81246 0
M  V30 3021 C 293.72 3.46122 1.01153 0
M  V30 3022 O 292.824 3.53437 2.12499 0
M  V30 3023 H 292.165 0.654726 0.110588 0
M  V30 3024 H 294.695 2.02521 -0.290917 0
M  V30 3025 H 294.705 3.85676 1.33108 0
M  V30 3026 H 293.38 4.15331 0.217533 0
M  V30 3027 H 291.957 3.2575 1.81497 0
M  V30 3028 N 294.142 -0.090211 1.57342 0
M  V30 3029 C 295.105 -1.09335 2.01441 0
M  V30 3030 C 296.105 -1.32666 0.908641 0
M  V30 3031 O 297.295 -1.28697 1.174 0
M  V30 3032 C 294.427 -2.44136 2.3793 0
M  V30 3033 H 295.62 -0.713662 2.91285 0
M  V30 3034 H 293.173 -0.335404 1.52659 0
M  V30 3035 H 293.908 -2.86972 1.51055 0
M  V30 3036 H 293.693 -2.28548 3.18603 0
M  V30 3037 H 295.183 -3.16277 2.72688 0
M  V30 3038 N 295.62 -1.53406 -0.361157 0
M  V30 3039 C 296.552 -1.76446 -1.46286 0
M  V30 3040 C 297.565 -0.645322 -1.49464 0
M  V30 3041 O 298.754 -0.921681 -1.52864 0
M  V30 3042 C 295.854 -1.83332 -2.85031 0
M  V30 3043 C 295.027 -3.13033 -3.05498 0
M  V30 3044 C 294.086 -3.11104 -4.24383 0
M  V30 3045 O 293.112 -3.84888 -4.19344 0
M  V30 3046 N 294.314 -2.32234 -5.32022 0
M  V30 3047 H 297.079 -2.71508 -1.26899 0
M  V30 3048 H 294.64 -1.52238 -0.550915 0
M  V30 3049 H 296.632 -1.79514 -3.62708 0
M  V30 3050 H 295.202 -0.955342 -2.97644 0
M  V30 3051 H 294.422 -3.30119 -2.15442 0
M  V30 3052 H 295.71 -3.9874 -3.16044 0
M  V30 3053 H 295.108 -1.71807 -5.38979 0
M  V30 3054 H 293.665 -2.3423 -6.08259 0
M  V30 3055 N 297.098 0.621204 -1.44841 0
M  V30 3056 C 298.375 1.38 -1.38619 0
M  V30 3057 C 298.755 2.11041 -0.0498935 0
M  V30 3058 O 298.103 2.06992 0.967816 0
M  V30 3059 C 298.313 2.33817 -2.59096 0
M  V30 3060 C 299.661 2.96844 -3.03593 0
M  V30 3061 O 300.685 2.44141 -2.59371 0
M  V30 3062 O 299.544 3.92476 -3.80296 0
M  V30 3063 H 296.638 0.61811 -0.549426 0
M  V30 3064 H 299.184 0.645429 -1.56947 0
M  V30 3065 H 297.956 1.79012 -3.47952 0
M  V30 3066 H 297.579 3.14676 -2.43032 0
M  V30 3067 N 298.576 1.31904 0.862503 0
M  V30 3068 C 299.539 1.20131 1.95195 0
M  V30 3069 C 300.539 0.126409 1.60302 0
M  V30 3070 O 301.729 0.376234 1.70089 0
M  V30 3071 C 298.861 0.845691 3.30244 0
M  V30 3072 H 300.054 2.16943 2.07064 0
M  V30 3073 H 297.607 1.15622 1.05172 0
M  V30 3074 H 298.342 -0.120957 3.24074 0
M  V30 3075 H 298.127 1.62276 3.56944 0
M  V30 3076 H 299.617 0.787418 4.10109 0
M  V30 3077 N 300.054 -1.07777 1.14986 0
M  V30 3078 C 301.001 -2.14867 0.842672 0
M  V30 3079 C 301.971 -1.6486 -0.202552 0
M  V30 3080 O 303.156 -1.90668 -0.0710568 0
M  V30 3081 C 300.296 -3.43486 0.333363 0
M  V30 3082 C 299.409 -4.07306 1.43965 0
M  V30 3083 C 298.544 -5.23744 0.886914 0
M  V30 3084 C 297.583 -5.79517 1.97043 0
M  V30 3085 N 296.72 -6.87291 1.4344 0
M  V30 3086 H 301.56 -2.40485 1.75986 0
M  V30 3087 H 299.097 -1.1801 0.878179 0
M  V30 3088 H 301.055 -4.17195 0.0198163 0
M  V30 3089 H 299.685 -3.18133 -0.546916 0
M  V30 3090 H 298.737 -3.31293 1.86946 0
M  V30 3091 H 300.049 -4.44771 2.25788 0
M  V30 3092 H 299.203 -6.04419 0.525651 0
M  V30 3093 H 297.942 -4.87685 0.0377957 0
M  V30 3094 H 296.947 -4.97491 2.34057 0
M  V30 3095 H 298.172 -6.17632 2.82325 0
M  V30 3096 H 296.118 -6.5318 0.607567 0
M  V30 3097 H 296.035 -7.23617 2.18895 0
M  V30 3098 H 297.303 -7.71682 1.10124 0
M  V30 3099 N 301.532 -0.945985 -1.26051 0
M  V30 3100 C 302.464 -0.416662 -2.25381 0
M  V30 3101 C 303.477 0.462712 -1.56086 0
M  V30 3102 O 304.666 0.272383 -1.7641 0
M  V30 3103 C 301.766 0.419812 -3.3629 0
M  V30 3104 C 300.939 -0.444531 -4.35135 0
M  V30 3105 C 299.998 0.332305 -5.2515 0
M  V30 3106 O 299.024 -0.266324 -5.68577 0
M  V30 3107 N 300.226 1.62763 -5.57215 0
M  V30 3108 H 302.991 -1.27059 -2.71433 0
M  V30 3109 H 300.552 -0.815392 -1.39868 0
M  V30 3110 H 302.544 0.947013 -3.93464 0
M  V30 3111 H 301.114 1.17456 -2.89694 0
M  V30 3112 H 300.334 -1.15291 -3.76964 0
M  V30 3113 H 301.622 -1.03478 -4.98166 0
M  V30 3114 H 301.02 2.13603 -5.23823 0
M  V30 3115 H 299.577 2.10097 -6.17011 0
M  V30 3116 N 303.011 1.40521 -0.713556 0
M  V30 3117 C 303.974 2.29098 -0.0684347 0
M  V30 3118 C 304.974 1.45268 0.689472 0
M  V30 3119 O 306.164 1.66205 0.521677 0
M  V30 3120 C 303.296 3.28446 0.913024 0
M  V30 3121 H 304.489 2.87645 -0.84855 0
M  V30 3122 H 302.042 1.48809 -0.47809 0
M  V30 3123 H 302.777 2.74913 1.72027 0
M  V30 3124 H 302.562 3.90327 0.372472 0
M  V30 3125 H 304.052 3.94777 1.36165 0
M  V30 3126 N 304.489 0.459591 1.5075 0
M  V30 3127 C 305.737 -0.0991532 2.01857 0
M  V30 3128 C 306.058 -1.41247 1.34441 0
M  V30 3129 O 305.328 -1.89775 0.486022 0
M  V30 3130 H 303.908 -0.039633 0.745948 0
M  V30 3131 H 306.57 0.607387 1.85194 0
M  V30 3132 H 305.666 -0.258998 3.11023 0
M  V30 3133 N 305.967 -1.56429 0.191757 0
M  V30 3134 C 306.897 -2.21937 -0.725696 0
M  V30 3135 C 307.878 -1.1814 -1.2238 0
M  V30 3136 O 309.063 -1.46636 -1.27325 0
M  V30 3137 C 306.193 -2.87611 -1.94672 0
M  V30 3138 C 305.147 -3.97623 -1.58366 0
M  V30 3139 C 304.473 -4.50446 -2.88102 0
M  V30 3140 C 305.773 -5.16197 -0.796133 0
M  V30 3141 H 307.467 -2.98861 -0.179606 0
M  V30 3142 H 305.013 -1.43749 -0.0849464 0
M  V30 3143 H 306.966 -3.3212 -2.59373 0
M  V30 3144 H 305.69 -2.08087 -2.51728 0
M  V30 3145 H 304.349 -3.53801 -0.960247 0
M  V30 3146 H 303.997 -3.67688 -3.43241 0
M  V30 3147 H 303.697 -5.24675 -2.64556 0
M  V30 3148 H 305.221 -4.97654 -3.53798 0
M  V30 3149 H 306.635 -5.57271 -1.34618 0
M  V30 3150 H 305.032 -5.96471 -0.658928 0
M  V30 3151 H 306.102 -4.84473 0.203478 0
M  V30 3152 N 307.445 0.0818655 -1.57387 0
M  V30 3153 C 308.691 0.784074 -1.8703 0
M  V30 3154 C 309.024 1.77729 -0.782689 0
M  V30 3155 O 308.299 1.93384 0.208051 0
M  V30 3156 C 308.582 1.50105 -3.27323 0
M  V30 3157 C 308.435 0.524925 -4.46727 0
M  V30 3158 C 309.754 2.44843 -3.65705 0
M  V30 3159 H 306.873 0.283582 -0.680257 0
M  V30 3160 H 309.515 0.0474352 -1.89941 0
M  V30 3161 H 307.665 2.12897 -3.24972 0
M  V30 3162 H 309.337 -0.0970111 -4.61198 0
M  V30 3163 H 307.58 -0.160606 -4.33503 0
M  V30 3164 H 308.251 1.064 -5.41648 0
M  V30 3165 H 310.727 1.92135 -3.69085 0
M  V30 3166 H 309.603 2.92018 -4.64776 0
M  V30 3167 H 309.864 3.29197 -2.95096 0
M  V30 3168 N 308.923 1.53595 0.353017 0
M  V30 3169 C 310.148 1.7462 1.11904 0
M  V30 3170 C 310.573 0.479721 1.8188 0
M  V30 3171 O 309.931 -0.567066 1.72204 0
M  V30 3172 C 309.979 2.92029 2.11545 0
M  V30 3173 O 309.083 2.61516 3.18878 0
M  V30 3174 H 308.424 0.579531 0.324099 0
M  V30 3175 H 310.954 2.00525 0.406301 0
M  V30 3176 H 310.964 3.18551 2.5493 0
M  V30 3177 H 309.639 3.83888 1.60008 0
M  V30 3178 H 308.216 2.45852 2.80377 0
M  V30 3179 N 310.401 -0.613514 1.45168 0
M  V30 3180 C 311.348 -1.72456 1.53387 0
M  V30 3181 C 312.318 -1.6169 0.380191 0
M  V30 3182 O 313.503 -1.81356 0.592836 0
M  V30 3183 C 310.643 -3.10753 1.50088 0
M  V30 3184 C 309.756 -3.32368 2.75963 0
M  V30 3185 C 308.891 -4.60737 2.64376 0
M  V30 3186 C 307.93 -4.7559 3.85332 0
M  V30 3187 N 307.067 -5.95253 3.72315 0
M  V30 3188 H 311.907 -1.64768 2.48305 0
M  V30 3189 H 309.444 -0.803503 1.23216 0
M  V30 3190 H 311.402 -3.90758 1.46164 0
M  V30 3191 H 310.032 -3.17413 0.587243 0
M  V30 3192 H 309.084 -2.4618 2.89999 0
M  V30 3193 H 310.396 -3.39218 3.65695 0
M  V30 3194 H 309.55 -5.48928 2.58385 0
M  V30 3195 H 308.289 -4.56275 1.72233 0
M  V30 3196 H 307.294 -3.85824 3.91688 0
M  V30 3197 H 308.519 -4.81854 4.78533 0
M  V30 3198 H 306.465 -5.91847 2.82937 0
M  V30 3199 H 306.382 -6.03236 4.55677 0
M  V30 3200 H 307.65 -6.85958 3.70246 0
M  V30 3201 N 311.879 -1.3236 -0.855495 0
M  V30 3202 C 313.128 -1.22226 -1.60448 0
M  V30 3203 C 313.441 0.214733 -1.94418 0
M  V30 3204 O 314.647 0.437917 -2.67945 0
M  V30 3205 C 313.103 -2.14063 -2.89318 0
M  V30 3206 C 312.711 -3.62839 -2.62777 0
M  V30 3207 C 314.455 -2.12764 -3.67331 0
M  V30 3208 C 312.362 -4.4664 -3.87643 0
M  V30 3209 H 311.292 -0.453904 -0.602069 0
M  V30 3210 H 313.943 -1.57314 -0.944698 0
M  V30 3211 H 312.325 -1.71889 -3.5675 0
M  V30 3212 H 313.499 -4.1335 -2.03662 0
M  V30 3213 H 311.814 -3.66261 -1.98096 0
M  V30 3214 H 314.411 -2.72611 -4.59987 0
M  V30 3215 H 314.754 -1.11841 -4.00995 0
M  V30 3216 H 315.287 -2.53214 -3.06802 0
M  V30 3217 H 312.026 -5.48373 -3.5912 0
M  V30 3218 H 311.546 -4.0088 -4.46156 0
M  V30 3219 H 313.225 -4.59597 -4.55389 0
M  V30 3220 N 313.357 1.07166 -1.15556 0
M  V30 3221 C 314.597 1.81391 -0.94216 0
M  V30 3222 C 314.961 1.84788 0.521272 0
M  V30 3223 O 316.162 2.54904 0.85307 0
M  V30 3224 C 314.433 3.22431 -1.54185 0
M  V30 3225 S 315.992 4.13379 -1.47183 0
M  V30 3226 H 312.81 0.624963 -0.339031 0
M  V30 3227 H 315.412 1.28725 -1.4714 0
M  V30 3228 H 314.116 3.17548 -2.59984 0
M  V30 3229 H 313.647 3.80172 -1.01156 0
M  V30 3230 H 315.662 4.94007 -0.466004 0
M  V30 3231 N 314.835 0.952656 1.25548 0
M  V30 3232 C 316.246 0.647392 1.75116 0
M  V30 3233 C 316.597 -0.837274 1.77438 0
M  V30 3234 O 315.722 -1.65525 1.39393 0
M  V30 3235 C 316.317 1.16845 3.18014 0
M  V30 3236 C 314.876 0.913382 3.6515 0
M  V30 3237 C 314.023 1.31265 2.44264 0
M  V30 3238 H 316.974 1.12968 1.11462 0
M  V30 3239 H 316.995 0.527606 3.76824 0
M  V30 3240 H 316.507 2.24902 3.16292 0
M  V30 3241 H 314.608 -0.152316 3.72289 0
M  V30 3242 H 314.721 1.54845 4.53387 0
M  V30 3243 H 313.085 0.731028 2.43984 0
M  V30 3244 H 313.868 2.40239 2.45234 0
M  V30 3245 N 316.313 -1.40141 0.720998 0
M  V30 3246 C 317.559 -2.01084 0.263231 0
M  V30 3247 C 317.892 -1.57052 -1.14229 0
M  V30 3248 O 317.167 -0.793027 -1.77599 0
M  V30 3249 C 317.45 -3.58401 0.349344 0
M  V30 3250 C 317.303 -4.12491 1.79363 0
M  V30 3251 C 318.622 -4.39231 -0.276351 0
M  V30 3252 H 315.741 -0.730572 0.0971228 0
M  V30 3253 H 318.383 -1.66543 0.914518 0
M  V30 3254 H 316.533 -3.87958 -0.205165 0
M  V30 3255 H 318.205 -3.93711 2.40394 0
M  V30 3256 H 316.448 -3.66576 2.31958 0
M  V30 3257 H 317.119 -5.21646 1.80524 0
M  V30 3258 H 319.595 -4.15637 0.196184 0
M  V30 3259 H 318.471 -5.48586 -0.185681 0
M  V30 3260 H 318.732 -4.20643 -1.36059 0
M  V30 3261 N 317.792 -0.46758 -1.50504 0
M  V30 3262 C 318.702 0.33382 -2.32213 0
M  V30 3263 C 319.718 0.999323 -1.42441 0
M  V30 3264 O 320.894 0.988068 -1.75497 0
M  V30 3265 C 317.959 1.4035 -3.17022 0
M  V30 3266 C 317.02 0.754961 -4.2261 0
M  V30 3267 C 316.253 1.77367 -5.03365 0
M  V30 3268 O 316.476 2.99976 -4.8515 0
M  V30 3269 O 315.41 1.34744 -5.86624 0
M  V30 3270 H 319.236 -0.334067 -3.01857 0
M  V30 3271 H 316.821 -0.229496 -1.47627 0
M  V30 3272 H 318.703 2.02318 -3.69656 0
M  V30 3273 H 317.378 2.05492 -2.5011 0
M  V30 3274 H 316.285 0.0964244 -3.73976 0
M  V30 3275 H 317.618 0.146545 -4.91982 0
M  V30 3276 N 319.27 1.56325 -0.20005 0
M  V30 3277 C 320.498 2.02105 0.442874 0
M  V30 3278 C 320.913 1.08014 1.5485 0
M  V30 3279 O 320.27 0.0858797 1.82298 0
M  V30 3280 C 320.321 3.47549 0.994583 0
M  V30 3281 O 320.042 4.38049 -0.0669322 0
M  V30 3282 C 321.543 4.0887 1.7129 0
M  V30 3283 H 318.763 0.661807 0.110691 0
M  V30 3284 H 321.307 2.02134 -0.310207 0
M  V30 3285 H 319.462 3.48204 1.69803 0
M  V30 3286 H 319.876 5.23368 0.344462 0
M  V30 3287 H 321.35 5.12475 2.05118 0
M  V30 3288 H 321.827 3.52615 2.61838 0
M  V30 3289 H 322.433 4.12002 1.05518 0
M  V30 3290 N 320.748 -0.0735177 1.57428 0
M  V30 3291 C 321.678 -1.0879 2.06608 0
M  V30 3292 C 322.659 -1.40473 0.959237 0
M  V30 3293 O 323.844 -1.5013 1.23185 0
M  V30 3294 C 320.974 -2.40183 2.50857 0
M  V30 3295 C 319.928 -2.22858 3.65402 0
M  V30 3296 C 319.254 -3.59619 3.957 0
M  V30 3297 C 320.554 -1.65123 4.95511 0
M  V30 3298 H 322.248 -0.678673 2.91607 0
M  V30 3299 H 319.794 -0.325013 1.40284 0
M  V30 3300 H 321.747 -3.11437 2.83874 0
M  V30 3301 H 320.471 -2.83083 1.62885 0
M  V30 3302 H 319.13 -1.54045 3.32664 0
M  V30 3303 H 318.778 -4.00086 3.04861 0
M  V30 3304 H 318.478 -3.48866 4.72828 0
M  V30 3305 H 320.002 -4.32306 4.31212 0
M  V30 3306 H 321.416 -2.26241 5.26771 0
M  V30 3307 H 319.813 -1.65071 5.7695 0
M  V30 3308 H 320.883 -0.612559 4.81015 0
M  V30 3309 N 322.226 -1.5378 -0.344866 0
M  V30 3310 C 323.472 -1.71216 -1.08687 0
M  V30 3311 C 323.805 -0.473281 -1.88345 0
M  V30 3312 O 323.08 0.52968 -1.87149 0
M  V30 3313 C 323.363 -2.97486 -2.02914 0
M  V30 3314 C 323.216 -4.31579 -1.26727 0
M  V30 3315 C 324.535 -3.19422 -3.0275 0
M  V30 3316 H 321.654 -0.62301 -0.393735 0
M  V30 3317 H 324.296 -1.8645 -0.365563 0
M  V30 3318 H 322.446 -2.84629 -2.64421 0
M  V30 3319 H 324.118 -4.56284 -0.67845 0
M  V30 3320 H 322.361 -4.30049 -0.569273 0
M  V30 3321 H 323.032 -5.16106 -1.95803 0
M  V30 3322 H 325.508 -3.316 -2.51357 0
M  V30 3323 H 324.384 -4.09169 -3.65885 0
M  V30 3324 H 324.645 -2.35656 -3.74057 0
M  V30 3325 N 323.704 0.605807 -1.45491 0
M  V30 3326 C 324.614 1.74466 -1.56839 0
M  V30 3327 C 325.63 1.68006 -0.452772 0
M  V30 3328 O 326.806 1.8833 -0.713708 0
M  V30 3329 C 323.871 3.10931 -1.53371 0
M  V30 3330 C 322.932 3.28832 -2.75986 0
M  V30 3331 C 322.165 4.58787 -2.72673 0
M  V30 3332 O 322.388 5.4122 -1.80102 0
M  V30 3333 O 321.322 4.79438 -3.63899 0
M  V30 3334 H 325.148 1.67843 -2.53106 0
M  V30 3335 H 322.733 0.770108 -1.28022 0
M  V30 3336 H 324.615 3.92233 -1.54051 0
M  V30 3337 H 323.29 3.18042 -0.602572 0
M  V30 3338 H 322.197 2.47112 -2.80867 0
M  V30 3339 H 323.53 3.26599 -3.68231 0
M  V30 3340 N 325.182 1.32811 0.848464 0
M  V30 3341 C 326.092 1.24278 1.98978 0
M  V30 3342 C 327.108 0.155176 1.73307 0
M  V30 3343 O 328.284 0.376999 1.9784 0
M  V30 3344 C 325.349 0.972444 3.32783 0
M  V30 3345 C 324.41 2.14911 3.71634 0
M  V30 3346 C 323.643 1.89157 4.99054 0
M  V30 3347 O 323.866 0.837165 5.64223 0
M  V30 3348 O 322.8 2.75433 5.35183 0
M  V30 3349 H 326.626 2.20238 2.09115 0
M  V30 3350 H 324.211 1.12762 0.980052 0
M  V30 3351 H 326.093 0.838432 4.12975 0
M  V30 3352 H 324.768 0.043051 3.23671 0
M  V30 3353 H 323.675 2.33862 2.91992 0
M  V30 3354 H 325.008 3.06151 3.85399 0
M  V30 3355 N 326.66 -1.06551 1.16123 0
M  V30 3356 C 327.623 -2.12132 0.867906 0
M  V30 3357 C 328.623 -1.60224 -0.135944 0
M  V30 3358 O 329.813 -1.73943 0.0946422 0
M  V30 3359 C 326.945 -3.396 0.297419 0
M  V30 3360 H 328.138 -2.39586 1.80385 0
M  V30 3361 H 325.691 -1.22574 0.969812 0
M  V30 3362 H 326.426 -3.17794 -0.64633 0
M  V30 3363 H 326.211 -3.78581 1.02073 0
M  V30 3364 H 327.701 -4.17455 0.110052 0
M  V30 3365 N 328.138 -0.959301 -1.25041 0
M  V30 3366 C 329.387 -0.612254 -1.92183 0
M  V30 3367 C 329.7 0.855347 -1.75907 0
M  V30 3368 O 330.906 1.31256 -2.37664 0
M  V30 3369 C 329.362 -1.04435 -3.44414 0
M  V30 3370 C 328.97 -2.53482 -3.69393 0
M  V30 3371 C 330.714 -0.770055 -4.17457 0
M  V30 3372 C 328.621 -2.90468 -5.15153 0
M  V30 3373 H 327.551 -0.225279 -0.719559 0
M  V30 3374 H 330.202 -1.16438 -1.41825 0
M  V30 3375 H 328.584 -0.4206 -3.9376 0
M  V30 3376 H 329.758 -3.20916 -3.30681 0
M  V30 3377 H 328.073 -2.78432 -3.0962 0
M  V30 3378 H 330.67 -1.02249 -5.24832 0
M  V30 3379 H 331.013 0.293611 -4.15263 0
M  V30 3380 H 331.546 -1.35437 -3.74034 0
M  V30 3381 H 328.285 -3.95871 -5.22462 0
M  V30 3382 H 327.805 -2.27711 -5.54894 0
M  V30 3383 H 329.484 -2.79914 -5.83315 0
M  V30 3384 N 329.616 1.39756 -0.72842 0
M  V30 3385 C 330.548 2.29157 -0.0446202 0
M  V30 3386 C 331.561 1.46484 0.710367 0
M  V30 3387 O 332.75 1.69632 0.55562 0
M  V30 3388 C 329.85 3.24987 0.961071 0
M  V30 3389 C 329.023 4.36572 0.268967 0
M  V30 3390 C 328.082 5.12756 1.18184 0
M  V30 3391 O 327.108 5.6534 0.661794 0
M  V30 3392 N 328.31 5.23331 2.51206 0
M  V30 3393 H 331.075 2.88482 -0.812295 0
M  V30 3394 H 328.636 1.51265 -0.577098 0
M  V30 3395 H 330.628 3.72827 1.57423 0
M  V30 3396 H 329.198 2.66739 1.63 0
M  V30 3397 H 328.418 3.90694 -0.524574 0
M  V30 3398 H 329.706 5.08363 -0.210934 0
M  V30 3399 H 329.104 4.82116 2.9594 0
M  V30 3400 H 327.661 5.74634 3.07634 0
M  V30 3401 N 331.094 0.475555 1.50254 0
M  V30 3402 C 332.334 -0.0765802 2.04256 0
M  V30 3403 C 332.698 -1.36587 1.34937 0
M  V30 3404 O 333.899 -2.00066 1.79519 0
M  V30 3405 C 332.17 -0.251668 3.56513 0
M  V30 3406 S 333.729 -0.761716 4.32138 0
M  V30 3407 H 330.547 -0.0138456 0.710865 0
M  V30 3408 H 333.149 0.643714 1.84598 0
M  V30 3409 H 331.853 0.692404 4.04517 0
M  V30 3410 H 331.384 -0.997946 3.80532 0
M  V30 3411 H 333.399 -2.03451 4.52573 0
M  V30 3412 N 332.573 -1.56217 0.208337 0
M  V30 3413 C 333.536 -2.18455 -0.693557 0
M  V30 3414 C 334.536 -1.14268 -1.13135 0
M  V30 3415 O 335.726 -1.39577 -1.0423 0
M  V30 3416 C 332.858 -2.79727 -1.94848 0
M  V30 3417 H 334.051 -2.99519 -0.15114 0
M  V30 3418 H 331.604 -1.56245 -0.041287 0
M  V30 3419 H 332.339 -2.02497 -2.53309 0
M  V30 3420 H 332.124 -3.56009 -1.64316 0
M  V30 3421 H 333.614 -3.27475 -2.59133 0
M  V30 3422 N 334.051 0.0651679 -1.57465 0
M  V30 3423 C 334.961 1.09448 -2.07505 0
M  V30 3424 C 335.977 1.41974 -1.00595 0
M  V30 3425 O 337.153 1.52018 -1.32107 0
M  V30 3426 C 334.218 2.38689 -2.51453 0
M  V30 3427 C 333.279 2.13073 -3.72691 0
M  V30 3428 C 332.512 3.36152 -4.14533 0
M  V30 3429 O 332.735 4.45517 -3.56189 0
M  V30 3430 O 331.669 3.23974 -5.07272 0
M  V30 3431 H 335.495 0.69935 -2.95538 0
M  V30 3432 H 333.08 0.279752 -1.46757 0
M  V30 3433 H 334.962 3.14736 -2.80212 0
M  V30 3434 H 333.637 2.77568 -1.66546 0
M  V30 3435 H 332.544 1.34709 -3.49005 0
M  V30 3436 H 333.877 1.79071 -4.5847 0
M  V30 3437 N 335.529 1.53961 0.336706 0
M  V30 3438 C 336.476 1.82428 1.41381 0
M  V30 3439 C 337.446 0.670444 1.51968 0
M  V30 3440 O 338.631 0.915565 1.67398 0
M  V30 3441 C 335.771 2.04564 2.77934 0
M  V30 3442 C 334.884 3.32267 2.76084 0
M  V30 3443 C 334.019 3.44434 4.04399 0
M  V30 3444 C 333.058 4.66061 3.96804 0
M  V30 3445 N 332.195 4.75224 5.16823 0
M  V30 3446 H 337.035 2.74324 1.16405 0
M  V30 3447 H 334.572 1.35869 0.563752 0
M  V30 3448 H 336.53 2.15388 3.57301 0
M  V30 3449 H 335.16 1.15974 3.01247 0
M  V30 3450 H 334.212 3.3025 1.88784 0
M  V30 3451 H 335.524 4.21733 2.66351 0
M  V30 3452 H 334.678 3.54728 4.92192 0
M  V30 3453 H 333.417 2.53037 4.16921 0
M  V30 3454 H 332.422 4.55838 3.07396 0
M  V30 3455 H 333.647 5.58829 3.85858 0
M  V30 3456 H 331.593 3.86739 5.29876 0
M  V30 3457 H 331.51 5.58636 5.09374 0
M  V30 3458 H 332.778 4.89835 6.06367 0
M  V30 3459 N 337.007 -0.598083 1.45811 0
M  V30 3460 C 338.256 -1.35295 1.49594 0
M  V30 3461 C 338.569 -1.95057 0.145679 0
M  V30 3462 O 339.775 -2.71431 0.0612099 0
M  V30 3463 C 338.231 -2.45124 2.63519 0
M  V30 3464 C 337.839 -1.91732 4.04899 0
M  V30 3465 C 339.583 -3.2205 2.76558 0
M  V30 3466 C 337.49 -2.991 5.1019 0
M  V30 3467 H 336.42 -0.508552 0.556679 0
M  V30 3468 H 339.071 -0.639977 1.71978 0
M  V30 3469 H 337.453 -3.19149 2.34435 0
M  V30 3470 H 338.627 -1.24352 4.43704 0
M  V30 3471 H 336.942 -1.27522 3.96393 0
M  V30 3472 H 339.539 -4.0215 3.52391 0
M  V30 3473 H 339.882 -3.73663 1.83526 0
M  V30 3474 H 340.415 -2.55127 3.05213 0
M  V30 3475 H 337.154 -2.52393 6.04961 0
M  V30 3476 H 336.674 -3.65017 4.75944 0
M  V30 3477 H 338.353 -3.63318 5.35359 0
M  V30 3478 N 338.485 -1.33259 -0.841409 0
M  V30 3479 C 339.448 -1.23221 -1.9326 0
M  V30 3480 C 340.448 -0.151895 -1.60081 0
M  V30 3481 O 341.638 -0.403246 -1.69468 0
M  V30 3482 C 338.77 -0.898123 -3.28856 0
M  V30 3483 H 339.963 -2.2021 -2.03587 0
M  V30 3484 H 337.516 -1.17281 -1.03319 0
M  V30 3485 H 338.251 0.0693841 -3.24226 0
M  V30 3486 H 338.036 -1.67934 -3.54317 0
M  V30 3487 H 339.526 -0.852563 -4.08805 0
M  V30 3488 N 339.963 1.05934 -1.16686 0
M  V30 3489 C 341.188 1.83029 -0.975455 0
M  V30 3490 C 341.613 1.82096 0.471452 0
M  V30 3491 O 340.971 1.22443 1.33706 0
M  V30 3492 C 341.019 3.27372 -1.51195 0
M  V30 3493 O 340.123 4.06054 -0.720701 0
M  V30 3494 H 339.464 0.566194 -0.346872 0
M  V30 3495 H 341.994 1.33541 -1.55009 0
M  V30 3496 H 342.004 3.78186 -1.53099 0
M  V30 3497 H 340.679 3.27366 -2.56523 0
M  V30 3498 H 339.256 3.64812 -0.772458 0
M  V30 3499 N 341.441 0.965919 1.2453 0
M  V30 3500 C 342.389 0.486506 2.27455 0
M  V30 3501 C 343.383 -0.449041 1.6334 0
M  V30 3502 O 344.589 -0.324527 1.7705 0
M  V30 3503 H 340.964 0.138857 0.739069 0
M  V30 3504 H 342.935 1.3666 2.65267 0
M  V30 3505 C 341.684 -0.209481 3.47068 0
M  V30 3506 H 341.007 0.50129 3.96645 0
M  V30 3507 H 342.447 -0.508775 4.20936 0
M  V30 3508 C 340.906 -1.43586 3.0477 0
M  V30 3509 O 341.436 -2.53299 3.11773 0
M  V30 3510 N 339.642 -1.30126 2.59838 0
M  V30 3511 H 339.189 -0.408583 2.54339 0
M  V30 3512 H 339.147 -2.12294 2.31902 0
M  V30 3513 N 342.919 -1.39368 0.735821 0
M  V30 3514 C 344.144 -2.05319 0.293052 0
M  V30 3515 C 344.569 -1.55115 -1.064 0
M  V30 3516 O 343.927 -0.695261 -1.67439 0
M  V30 3517 C 343.975 -3.59305 0.305323 0
M  V30 3518 O 343.079 -4.06299 -0.706761 0
M  V30 3519 H 342.42 -0.650529 0.13307 0
M  V30 3520 H 344.95 -1.78386 1.00197 0
M  V30 3521 H 344.96 -4.07724 0.149997 0
M  V30 3522 H 343.635 -3.95207 1.29553 0
M  V30 3523 H 342.212 -3.69292 -0.517504 0
M  V30 3524 N 344.397 -0.483516 -1.5 0
M  V30 3525 C 345.344 0.304164 -2.28787 0
M  V30 3526 C 346.314 0.976114 -1.34392 0
M  V30 3527 O 347.499 0.986156 -1.63339 0
M  V30 3528 C 344.639 1.37298 -3.16612 0
M  V30 3529 C 343.752 0.714561 -4.26049 0
M  V30 3530 C 342.887 1.76232 -5.01114 0
M  V30 3531 C 341.926 1.08483 -6.0241 0
M  V30 3532 N 341.063 2.076 -6.70706 0
M  V30 3533 H 345.903 -0.373981 -2.95644 0
M  V30 3534 H 343.44 -0.196275 -1.45785 0
M  V30 3535 H 345.398 2.00445 -3.65893 0
M  V30 3536 H 344.028 2.02012 -2.51776 0
M  V30 3537 H 343.08 -0.0297798 -3.80388 0
M  V30 3538 H 344.392 0.180383 -4.98474 0
M  V30 3539 H 343.546 2.46929 -5.54176 0
M  V30 3540 H 342.285 2.33033 -4.28424 0
M  V30 3541 H 341.29 0.363545 -5.48597 0
M  V30 3542 H 342.515 0.523551 -6.77079 0
M  V30 3543 H 340.461 2.63394 -6.00799 0
M  V30 3544 H 340.378 1.59201 -7.39047 0
M  V30 3545 H 341.646 2.77639 -7.2838 0
M  V30 3546 N 345.875 1.56104 -0.216619 0
M  V30 3547 C 347.124 1.97348 0.416744 0
M  V30 3548 C 347.437 1.10715 1.6125 0
M  V30 3549 O 348.643 1.41836 2.31506 0
M  V30 3550 C 347.099 3.51059 0.792835 0
M  V30 3551 C 346.707 4.46387 -0.379828 0
M  V30 3552 C 348.451 4.01026 1.39208 0
M  V30 3553 C 346.358 5.91397 0.0184223 0
M  V30 3554 H 345.288 0.736942 0.159475 0
M  V30 3555 H 347.939 1.80827 -0.31205 0
M  V30 3556 H 346.321 3.63162 1.57891 0
M  V30 3557 H 347.495 4.46029 -1.15737 0
M  V30 3558 H 345.81 4.06734 -0.891979 0
M  V30 3559 H 348.407 5.0686 1.70286 0
M  V30 3560 H 348.75 3.46587 2.30614 0
M  V30 3561 H 349.283 3.92125 0.669537 0
M  V30 3562 H 346.022 6.49807 -0.862002 0
M  V30 3563 H 345.542 5.94961 0.760384 0
M  V30 3564 H 347.221 6.45455 0.446818 0
M  V30 3565 N 347.353 -0.0568162 1.57498 0
M  V30 3566 C 348.599 -0.75422 1.88253 0
M  V30 3567 C 348.932 -1.76461 0.810865 0
M  V30 3568 O 348.207 -1.93691 -0.177259 0
M  V30 3569 C 348.49 -1.44878 3.2967 0
M  V30 3570 C 348.343 -0.453789 4.47505 0
M  V30 3571 C 349.662 -2.38994 3.69554 0
M  V30 3572 H 346.781 -0.272724 0.684683 0
M  V30 3573 H 349.423 -0.0172113 1.89992 0
M  V30 3574 H 347.573 -2.077 3.28318 0
M  V30 3575 H 349.245 0.170371 4.60985 0
M  V30 3576 H 347.488 0.229552 4.33192 0
M  V30 3577 H 348.159 -0.977699 5.43273 0
M  V30 3578 H 350.635 -1.86239 3.72095 0
M  V30 3579 H 349.511 -2.84587 4.69363 0
M  V30 3580 H 349.772 -3.24461 3.00296 0
M  V30 3581 N 348.832 -1.54138 -0.328536 0
M  V30 3582 C 350.078 -1.7236 -1.06865 0
M  V30 3583 C 350.411 -0.493231 -1.87832 0
M  V30 3584 O 349.686 0.5098 -1.877 0
M  V30 3585 C 349.969 -2.99621 -1.99747 0
M  V30 3586 C 349.822 -4.32899 -1.22143 0
M  V30 3587 C 351.141 -3.22615 -2.99345 0
M  V30 3588 H 348.26 -0.627151 -0.387105 0
M  V30 3589 H 350.902 -1.86827 -0.345767 0
M  V30 3590 H 349.052 -2.87418 -2.61387 0
M  V30 3591 H 350.724 -4.56978 -0.630017 0
M  V30 3592 H 348.967 -4.30628 -0.523628 0
M  V30 3593 H 349.638 -5.18154 -1.90318 0
M  V30 3594 H 352.114 -3.34248 -2.47826 0
M  V30 3595 H 350.99 -4.13027 -3.61524 0
M  V30 3596 H 351.251 -2.3961 -3.71536 0
M  V30 3597 N 350.31 0.590341 -1.46126 0
M  V30 3598 C 351.273 1.68194 -1.55703 0
M  V30 3599 C 352.273 1.54808 -0.434868 0
M  V30 3600 O 353.463 1.59564 -0.698928 0
M  V30 3601 C 350.595 3.07575 -1.47005 0
M  V30 3602 H 351.788 1.61064 -2.52979 0
M  V30 3603 H 349.341 0.807541 -1.33823 0
M  V30 3604 H 350.076 3.20268 -0.509785 0
M  V30 3605 H 349.861 3.187 -2.28414 0
M  V30 3606 H 351.351 3.87055 -1.56776 0
M  V30 3607 N 351.788 1.33704 0.83433 0
M  V30 3608 C 352.721 1.18675 1.94914 0
M  V30 3609 C 353.699 0.0811145 1.62398 0
M  V30 3610 O 354.883 0.244186 1.86912 0
M  V30 3611 C 352.01 0.821231 3.28593 0
M  V30 3612 C 351.056 1.93501 3.80079 0
M  V30 3613 S 351.889 3.54671 4.01209 0
M  V30 3614 C 353.045 3.20136 5.37833 0
M  V30 3615 H 353.278 2.13043 2.07364 0
M  V30 3616 H 350.811 1.18598 0.988624 0
M  V30 3617 H 352.769 0.617123 4.05835 0
M  V30 3618 H 351.43 -0.103927 3.13928 0
M  V30 3619 H 350.623 1.63273 4.76821 0
M  V30 3620 H 350.225 2.09601 3.09747 0
M  V30 3621 H 352.517 2.71242 6.20833 0
M  V30 3622 H 353.46 4.15975 5.73036 0
M  V30 3623 H 353.868 2.56613 5.02802 0
M  V30 3624 N 353.266 -1.05314 1.17247 0
M  V30 3625 C 354.229 -2.112 0.890357 0
M  V30 3626 C 355.229 -1.60359 -0.118943 0
M  V30 3627 O 356.419 -1.73833 0.113086 0
M  V30 3628 C 353.551 -3.39266 0.333422 0
M  V30 3629 H 354.744 -2.37659 1.82916 0
M  V30 3630 H 352.297 -1.21538 0.982758 0
M  V30 3631 H 353.032 -3.18462 -0.612587 0
M  V30 3632 H 352.817 -3.77477 1.06082 0
M  V30 3633 H 354.307 -4.17315 0.154322 0
M  V30 3634 N 354.744 -0.972509 -1.24016 0
M  V30 3635 C 355.691 -0.505969 -2.25186 0
M  V30 3636 C 356.661 0.451009 -1.5986 0
M  V30 3637 O 357.846 0.360307 -1.87367 0
M  V30 3638 C 354.986 0.193089 -3.44559 0
M  V30 3639 C 354.099 -0.803222 -4.24467 0
M  V30 3640 C 353.234 -0.0797793 -5.3114 0
M  V30 3641 C 352.273 -1.06583 -6.02749 0
M  V30 3642 N 351.41 -0.372074 -7.01113 0
M  V30 3643 H 356.25 -1.37351 -2.64459 0
M  V30 3644 H 353.787 -0.688419 -1.29997 0
M  V30 3645 H 355.745 0.615125 -4.1264 0
M  V30 3646 H 354.375 1.02455 -3.06109 0
M  V30 3647 H 353.427 -1.34368 -3.55878 0
M  V30 3648 H 354.739 -1.55494 -4.73944 0
M  V30 3649 H 353.893 0.400015 -6.0538 0
M  V30 3650 H 352.632 0.704597 -4.82583 0
M  V30 3651 H 351.637 -1.55645 -5.27309 0
M  V30 3652 H 352.862 -1.85074 -6.53395 0
M  V30 3653 H 350.808 0.393238 -6.5482 0
M  V30 3654 H 350.725 -1.06258 -7.48495 0
M  V30 3655 H 351.993 0.0855932 -7.79453 0
M  V30 3656 N 356.222 1.38976 -0.743202 0
M  V30 3657 C 357.132 2.3434 -0.110399 0
M  V30 3658 C 358.148 1.58741 0.712559 0
M  V30 3659 O 359.324 1.9099 0.639125 0
M  V30 3660 C 356.389 3.37812 0.780012 0
M  V30 3661 C 355.45 4.29263 -0.0561319 0
M  V30 3662 C 354.683 5.27793 0.791875 0
M  V30 3663 O 354.906 5.33043 2.03031 0
M  V30 3664 O 353.84 6.01512 0.216183 0
M  V30 3665 H 357.666 2.90129 -0.897714 0
M  V30 3666 H 355.251 1.40643 -0.503966 0
M  V30 3667 H 357.133 4.01194 1.28923 0
M  V30 3668 H 355.808 2.84395 1.546 0
M  V30 3669 H 354.715 3.69076 -0.611056 0
M  V30 3670 H 356.048 4.85907 -0.784531 0
M  V30 3671 N 357.7 0.491464 1.49741 0
M  V30 3672 C 358.925 -0.0557177 2.07325 0
M  V30 3673 C 359.35 -1.30925 1.35056 0
M  V30 3674 O 358.708 -1.76733 0.404365 0
M  V30 3675 C 358.756 -0.302074 3.59333 0
M  V30 3676 O 357.86 -1.37868 3.88672 0
M  V30 3677 H 357.201 0.0219956 0.663636 0
M  V30 3678 H 359.731 0.688352 1.92673 0
M  V30 3679 H 359.741 -0.536464 4.04458 0
M  V30 3680 H 358.416 0.61383 4.11345 0
M  V30 3681 H 356.993 -1.12999 3.55367 0
M  V30 3682 N 359.178 -1.55987 0.224894 0
M  V30 3683 C 360.424 -1.98684 -0.406502 0
M  V30 3684 C 360.757 -1.11248 -1.59177 0
M  V30 3685 O 360.032 -0.170909 -1.93748 0
M  V30 3686 C 360.315 -3.50218 -0.837808 0
M  V30 3687 C 360.168 -4.48426 0.351332 0
M  V30 3688 C 361.487 -4.06243 -1.69278 0
M  V30 3689 H 358.606 -0.722337 -0.146283 0
M  V30 3690 H 361.248 -1.87255 0.321799 0
M  V30 3691 H 359.398 -3.60089 -1.45837 0
M  V30 3692 H 361.07 -4.50562 0.989526 0
M  V30 3693 H 359.313 -4.22159 0.998207 0
M  V30 3694 H 359.984 -5.52 0.00655905 0
M  V30 3695 H 362.46 -3.99337 -1.16914 0
M  V30 3696 H 361.336 -5.12581 -1.96346 0
M  V30 3697 H 361.597 -3.53332 -2.65723 0
M  V30 3698 N 360.656 0.0484629 -1.57525 0
M  V30 3699 C 361.604 1.07359 -2.06341 0
M  V30 3700 C 362.598 1.3865 -0.973269 0
M  V30 3701 O 363.804 1.37783 -1.15827 0
M  V30 3702 H 360.179 0.363662 -0.65822 0
M  V30 3703 H 362.15 0.635916 -2.91545 0
M  V30 3704 C 360.899 2.37198 -2.54229 0
M  V30 3705 H 360.222 2.13977 -3.37719 0
M  V30 3706 H 361.662 3.07319 -2.92115 0
M  V30 3707 C 360.121 3.04805 -1.43511 0
M  V30 3708 O 360.651 3.93848 -0.79034 0
M  V30 3709 N 358.857 2.65811 -1.17444 0
M  V30 3710 H 358.404 1.93488 -1.70059 0
M  V30 3711 H 358.362 3.11366 -0.435737 0
M  V30 3712 N 362.134 1.5431 0.320358 0
M  V30 3713 C 363.097 1.83195 1.3774 0
M  V30 3714 C 364.097 0.703906 1.44575 0
M  V30 3715 O 365.287 0.972214 1.44546 0
M  V30 3716 C 362.419 1.99487 2.76438 0
M  V30 3717 H 363.612 2.77642 1.1338 0
M  V30 3718 H 361.165 1.46076 0.556012 0
M  V30 3719 H 361.9 1.07262 3.06048 0
M  V30 3720 H 361.685 2.81575 2.7287 0
M  V30 3721 H 363.175 2.23271 3.52902 0
M  V30 3722 N 363.613 -0.582584 1.46437 0
M  V30 3723 C 364.576 -1.67366 1.56592 0
M  V30 3724 C 365.576 -1.54575 0.443072 0
M  V30 3725 O 366.766 -1.59191 0.707381 0
M  V30 3726 C 363.898 -3.06791 1.48634 0
M  V30 3727 H 365.091 -1.5972 2.5383 0
M  V30 3728 H 362.644 -0.800432 1.34249 0
M  V30 3729 H 363.379 -3.19993 0.526763 0
M  V30 3730 H 363.164 -3.17484 2.30101 0
M  V30 3731 H 364.654 -3.86218 1.58826 0
M  V30 3732 N 365.091 -1.34144 -0.827227 0
M  V30 3733 C 366.338 -1.26258 -1.58319 0
M  V30 3734 C 366.666 0.168595 -1.93768 0
M  V30 3735 O 365.921 1.12877 -1.59866 0
M  V30 3736 C 366.22 -2.09464 -2.89585 0
M  V30 3737 C 365.886 -3.58521 -2.73448 0
M  V30 3738 C 364.548 -3.99155 -2.68754 0
M  V30 3739 C 366.9 -4.53189 -2.57428 0
M  V30 3740 C 364.228 -5.32656 -2.45957 0
M  V30 3741 C 366.58 -5.86864 -2.36163 0
M  V30 3742 C 365.244 -6.26667 -2.29879 0
M  V30 3743 H 364.514 -0.462013 -0.579332 0
M  V30 3744 H 367.161 -1.65845 -0.95748 0
M  V30 3745 H 365.466 -1.62692 -3.56425 0
M  V30 3746 H 367.163 -2.00712 -3.47154 0
M  V30 3747 H 363.753 -3.26264 -2.77939 0
M  V30 3748 H 367.937 -4.22696 -2.60081 0
M  V30 3749 H 363.193 -5.62519 -2.39546 0
M  V30 3750 H 367.367 -6.59813 -2.22754 0
M  V30 3751 H 364.994 -7.30049 -2.11975 0
M  V30 3752 N 366.569 1.04691 -1.17803 0
M  V30 3753 C 367.479 2.16057 -0.914151 0
M  V30 3754 C 368.495 1.73589 0.119503 0
M  V30 3755 O 369.671 2.01308 -0.0609468 0
M  V30 3756 C 366.736 3.4394 -0.436603 0
M  V30 3757 C 365.797 4.00825 -1.53746 0
M  V30 3758 C 365.03 5.22604 -1.0826 0
M  V30 3759 O 365.253 5.70367 0.0612244 0
M  V30 3760 O 364.187 5.7186 -1.87775 0
M  V30 3761 H 368.013 2.41169 -1.84584 0
M  V30 3762 H 365.598 1.1453 -0.959334 0
M  V30 3763 H 367.48 4.21024 -0.178057 0
M  V30 3764 H 366.155 3.20316 0.466869 0
M  V30 3765 H 365.062 3.25158 -1.84995 0
M  V30 3766 H 366.395 4.28778 -2.41683 0
M  V30 3767 N 368.047 0.979072 1.23499 0
M  V30 3768 C 368.98 0.463027 2.23453 0
M  V30 3769 C 369.958 -0.469128 1.55685 0
M  V30 3770 O 371.142 -0.397882 1.84253 0
M  V30 3771 C 368.269 -0.330308 3.37086 0
M  V30 3772 C 367.315 0.545795 4.22993 0
M  V30 3773 S 368.148 1.99285 4.97037 0
M  V30 3774 C 369.304 1.20862 6.1412 0
M  V30 3775 H 369.537 1.31005 2.6688 0
M  V30 3776 H 367.07 0.784965 1.32957 0
M  V30 3777 H 369.028 -0.782027 4.02982 0
M  V30 3778 H 367.689 -1.15244 2.92194 0
M  V30 3779 H 366.882 -0.0638928 5.03959 0
M  V30 3780 H 366.484 0.933705 3.62157 0
M  V30 3781 H 368.776 0.469284 6.75873 0
M  V30 3782 H 369.719 1.99307 6.79472 0
M  V30 3783 H 370.127 0.727992 5.59786 0
M  V30 3784 N 369.525 -1.3858 0.750561 0
M  V30 3785 C 370.753 -2.04471 0.316098 0
M  V30 3786 C 371.168 -1.56606 -1.05452 0
M  V30 3787 O 370.525 -0.737784 -1.66922 0
M  V30 3788 C 370.576 -3.60025 0.326275 0
M  V30 3789 O 370.297 -4.06133 1.6428 0
M  V30 3790 C 371.798 -4.43131 -0.122429 0
M  V30 3791 H 369.018 -0.65717 0.135528 0
M  V30 3792 H 371.562 -1.77329 1.01857 0
M  V30 3793 H 369.717 -3.86014 -0.327431 0
M  V30 3794 H 370.131 -5.00547 1.56693 0
M  V30 3795 H 371.605 -5.51963 -0.0641473 0
M  V30 3796 H 372.082 -4.23333 -1.16988 0
M  V30 3797 H 372.688 -4.22323 0.50229 0
M  V30 3798 N 371.003 -0.499398 -1.49478 0
M  V30 3799 C 371.933 0.269244 -2.31943 0
M  V30 3800 C 372.914 0.964054 -1.40143 0
M  V30 3801 O 374.099 0.955767 -1.69052 0
M  V30 3802 C 371.229 1.33504 -3.20615 0
M  V30 3803 C 370.183 0.760202 -4.21195 0
M  V30 3804 C 369.509 1.9264 -4.98792 0
M  V30 3805 C 370.809 -0.247661 -5.21712 0
M  V30 3806 H 372.503 -0.419082 -2.96452 0
M  V30 3807 H 370.049 -0.202988 -1.42562 0
M  V30 3808 H 372.002 1.88048 -3.77115 0
M  V30 3809 H 370.726 2.05253 -2.54045 0
M  V30 3810 H 369.385 0.23653 -3.65836 0
M  V30 3811 H 369.033 2.63154 -4.28671 0
M  V30 3812 H 368.733 1.54785 -5.66847 0
M  V30 3813 H 370.257 2.4762 -5.58137 0
M  V30 3814 H 371.671 0.209579 -5.72917 0
M  V30 3815 H 370.068 -0.541962 -5.97648 0
M  V30 3816 H 371.138 -1.16409 -4.7072 0
M  V30 3817 N 372.481 1.55866 -0.233164 0
M  V30 3818 C 373.709 2.02998 0.399905 0
M  V30 3819 C 374.124 1.11274 1.52524 0
M  V30 3820 O 373.481 0.124528 1.82075 0
M  V30 3821 C 373.532 3.4958 0.920639 0
M  V30 3822 O 373.253 4.37808 -0.159834 0
M  V30 3823 C 374.754 4.12411 1.62578 0
M  V30 3824 H 371.974 0.664006 0.0966281 0
M  V30 3825 H 374.518 2.0143 -0.353013 0
M  V30 3826 H 372.673 3.51727 1.62379 0
M  V30 3827 H 373.087 5.23981 0.23337 0
M  V30 3828 H 374.561 5.16711 1.94201 0
M  V30 3829 H 375.038 3.5809 2.54299 0
M  V30 3830 H 375.644 4.14148 0.967553 0
M  V30 3831 N 373.959 -0.0401083 1.57549 0
M  V30 3832 C 374.869 -1.06133 2.0922 0
M  V30 3833 C 375.885 -1.40356 1.0284 0
M  V30 3834 O 377.061 -1.49897 1.34509 0
M  V30 3835 C 374.126 -2.34658 2.55218 0
M  V30 3836 C 373.187 -2.07117 3.76033 0
M  V30 3837 C 372.42 -3.29514 4.19829 0
M  V30 3838 O 372.643 -4.39794 3.63232 0
M  V30 3839 O 371.577 -3.15863 5.12362 0
M  V30 3840 H 375.403 -0.652244 2.96613 0
M  V30 3841 H 372.988 -0.256368 1.47184 0
M  V30 3842 H 374.87 -3.10239 2.85184 0
M  V30 3843 H 373.545 -2.74883 1.70941 0
M  V30 3844 H 372.452 -1.29139 3.51104 0
M  V30 3845 H 373.785 -1.71754 4.61261 0
M  V30 3846 N 375.437 -1.54477 -0.31217 0
M  V30 3847 C 376.685 -1.72884 -1.04668 0
M  V30 3848 C 377.006 -0.511477 -1.88173 0
M  V30 3849 O 376.276 0.474407 -1.90069 0
M  V30 3850 H 374.856 -0.637461 -0.389425 0
M  V30 3851 H 377.518 -1.91807 -0.345852 0
M  V30 3852 H 376.614 -2.61334 -1.70619 0
M  V30 3853 N 376.915 0.57481 -1.46744 0
M  V30 3854 C 378.14 1.36341 -1.56288 0
M  V30 3855 C 378.565 1.86954 -0.207347 0
M  V30 3856 O 377.923 1.62006 0.813871 0
M  V30 3857 C 377.971 2.52147 -2.57787 0
M  V30 3858 O 377.075 3.53834 -2.11838 0
M  V30 3859 H 376.416 0.405713 -0.525636 0
M  V30 3860 H 378.946 0.696453 -1.92382 0
M  V30 3861 H 378.956 2.98958 -2.77648 0
M  V30 3862 H 377.631 2.14663 -3.5622 0
M  V30 3863 H 376.208 3.1345 -2.01999 0
M  V30 3864 N 378.394 1.34581 0.820102 0
M  V30 3865 C 379.341 1.2639 1.93117 0
M  V30 3866 C 380.311 0.138554 1.65521 0
M  V30 3867 O 381.496 0.320004 1.88097 0
M  V30 3868 C 378.636 1.02812 3.29429 0
M  V30 3869 C 377.749 2.24146 3.693 0
M  V30 3870 C 376.884 1.93829 4.94574 0
M  V30 3871 C 375.923 3.1129 5.27034 0
M  V30 3872 N 375.06 2.80838 6.43486 0
M  V30 3873 H 379.9 2.21408 1.99455 0
M  V30 3874 H 377.437 1.10077 0.975784 0
M  V30 3875 H 379.395 0.871788 4.0799 0
M  V30 3876 H 378.025 0.114612 3.22596 0
M  V30 3877 H 377.077 2.50691 2.86109 0
M  V30 3878 H 378.389 3.11899 3.89257 0
M  V30 3879 H 377.543 1.74948 5.80929 0
M  V30 3880 H 376.282 1.03341 4.76626 0
M  V30 3881 H 375.287 3.30764 4.39175 0
M  V30 3882 H 376.512 4.02561 5.4692 0
M  V30 3883 H 374.458 1.92929 6.26988 0
M  V30 3884 H 374.375 3.62123 6.63629 0
M  V30 3885 H 375.643 2.65467 7.32903 0
M  V30 3886 N 379.872 -1.04064 1.18357 0
M  V30 3887 C 380.802 -2.14001 0.934113 0
M  V30 3888 C 381.783 -1.69616 -0.128186 0
M  V30 3889 O 382.968 -1.94185 0.0244093 0
M  V30 3890 C 380.098 -3.44253 0.459066 0
M  V30 3891 C 379.052 -4.02261 1.46185 0
M  V30 3892 C 378.378 -5.27992 0.844322 0
M  V30 3893 C 379.678 -4.38432 2.83856 0
M  V30 3894 H 381.372 -2.35127 1.85352 0
M  V30 3895 H 378.918 -1.12998 0.892604 0
M  V30 3896 H 380.871 -4.20522 0.271907 0
M  V30 3897 H 379.595 -3.22813 -0.495912 0
M  V30 3898 H 378.254 -3.28074 1.63595 0
M  V30 3899 H 377.902 -5.02862 -0.117845 0
M  V30 3900 H 377.602 -5.67765 1.51384 0
M  V30 3901 H 379.126 -6.06938 0.667693 0
M  V30 3902 H 380.54 -5.05688 2.70098 0
M  V30 3903 H 378.937 -4.89254 3.47491 0
M  V30 3904 H 380.007 -3.4826 3.37406 0
M  V30 3905 N 381.35 -0.985608 -1.22978 0
M  V30 3906 C 382.26 -0.538548 -2.28335 0
M  V30 3907 C 383.276 0.409163 -1.69121 0
M  V30 3908 O 384.452 0.277797 -1.99475 0
M  V30 3909 C 381.517 0.146867 -3.46389 0
M  V30 3910 C 380.578 -0.842896 -4.20944 0
M  V30 3911 C 379.811 -0.190095 -5.33361 0
M  V30 3912 O 380.034 1.01767 -5.61248 0
M  V30 3913 O 378.968 -0.891289 -5.95264 0
M  V30 3914 H 382.794 -1.41487 -2.68729 0
M  V30 3915 H 380.379 -0.753495 -1.29007 0
M  V30 3916 H 382.261 0.531125 -4.1804 0
M  V30 3917 H 380.936 0.997871 -3.07935 0
M  V30 3918 H 379.843 -1.27795 -3.51595 0
M  V30 3919 H 381.176 -1.66287 -4.6326 0
M  V30 3920 N 382.828 1.3818 -0.7579 0
M  V30 3921 C 383.775 2.30416 -0.133057 0
M  V30 3922 C 384.745 1.50398 0.704957 0
M  V30 3923 O 385.93 1.79014 0.660192 0
M  V30 3924 C 383.07 3.36834 0.750813 0
M  V30 3925 C 382.183 4.31879 -0.102297 0
M  V30 3926 C 381.318 5.25368 0.784979 0
M  V30 3927 C 380.357 6.12058 -0.0715046 0
M  V30 3928 N 379.494 6.97832 0.772972 0
M  V30 3929 H 384.334 2.83274 -0.925186 0
M  V30 3930 H 381.871 1.39461 -0.467866 0
M  V30 3931 H 383.829 3.97145 1.27794 0
M  V30 3932 H 382.459 2.85374 1.50868 0
M  V30 3933 H 381.511 3.72991 -0.747095 0
M  V30 3934 H 382.823 4.92921 -0.763552 0
M  V30 3935 H 381.977 5.90818 1.37911 0
M  V30 3936 H 380.716 4.64703 1.47996 0
M  V30 3937 H 379.721 5.456 -0.678272 0
M  V30 3938 H 380.946 6.74793 -0.763606 0
M  V30 3939 H 378.892 6.3971 1.45282 0
M  V30 3940 H 378.809 7.55812 0.168709 0
M  V30 3941 H 380.077 7.67687 1.35194 0
M  V30 3942 N 384.306 0.507319 1.49211 0
M  V30 3943 C 385.253 -0.267728 2.29242 0
M  V30 3944 C 386.223 -0.954609 1.35928 0
M  V30 3945 O 387.408 -0.960046 1.64887 0
M  V30 3946 C 384.548 -1.32243 3.18756 0
M  V30 3947 C 383.661 -0.64669 4.27132 0
M  V30 3948 C 382.796 -1.68238 5.03855 0
M  V30 3949 C 381.835 -0.98885 6.0406 0
M  V30 3950 N 380.972 -1.96903 6.73924 0
M  V30 3951 H 385.812 0.420968 2.95012 0
M  V30 3952 H 383.349 0.219443 1.45454 0
M  V30 3953 H 385.307 -1.94599 3.69036 0
M  V30 3954 H 383.937 -1.97981 2.54958 0
M  V30 3955 H 382.989 0.0902926 3.80293 0
M  V30 3956 H 384.301 -0.101058 4.98698 0
M  V30 3957 H 383.455 -2.38081 5.58034 0
M  V30 3958 H 382.194 -2.26187 4.32077 0
M  V30 3959 H 381.199 -0.276222 5.49106 0
M  V30 3960 H 382.424 -0.415767 6.77826 0
M  V30 3961 H 380.37 -2.53803 6.04913 0
M  V30 3962 H 380.287 -1.47423 7.41487 0
M  V30 3963 H 381.555 -2.66015 7.32705 0
M  V30 3964 N 385.784 -1.5574 0.241426 0
M  V30 3965 C 386.714 -2.24133 -0.654722 0
M  V30 3966 C 387.695 -1.21974 -1.1856 0
M  V30 3967 O 388.88 -1.50612 -1.22595 0
M  V30 3968 C 386.01 -2.93659 -1.85423 0
M  V30 3969 C 384.964 -4.0246 -1.45636 0
M  V30 3970 C 384.29 -4.59383 -2.73626 0
M  V30 3971 C 385.59 -5.18468 -0.631506 0
M  V30 3972 H 387.284 -2.99281 -0.0844353 0
M  V30 3973 H 384.83 -1.43947 -0.0391707 0
M  V30 3974 H 386.783 -3.40203 -2.48676 0
M  V30 3975 H 385.507 -2.15991 -2.44981 0
M  V30 3976 H 384.166 -3.56676 -0.847202 0
M  V30 3977 H 383.814 -3.78422 -3.3137 0
M  V30 3978 H 383.514 -5.32826 -2.4773 0
M  V30 3979 H 385.038 -5.08658 -3.37786 0
M  V30 3980 H 386.452 -5.61272 -1.1682 0
M  V30 3981 H 384.849 -5.98266 -0.468831 0
M  V30 3982 H 385.919 -4.8358 0.357506 0
M  V30 3983 N 387.262 0.0317525 -1.57568 0
M  V30 3984 C 388.509 0.723104 -1.89149 0
M  V30 3985 C 388.837 1.75504 -0.838377 0
M  V30 3986 O 388.092 1.95037 0.160982 0
M  V30 3987 C 388.391 1.43167 -3.27472 0
M  V30 3988 C 388.057 0.535972 -4.47703 0
M  V30 3989 C 386.719 0.289262 -4.8033 0
M  V30 3990 C 389.071 -0.0826125 -5.21135 0
M  V30 3991 C 386.399 -0.584853 -5.83778 0
M  V30 3992 C 388.751 -0.944414 -6.25511 0
M  V30 3993 C 387.415 -1.20061 -6.56614 0
M  V30 3994 H 386.685 0.264602 -0.692146 0
M  V30 3995 H 389.332 -0.0169496 -1.91492 0
M  V30 3996 H 387.637 2.24497 -3.21105 0
M  V30 3997 H 389.334 1.97209 -3.49155 0
M  V30 3998 H 385.924 0.738414 -4.22191 0
M  V30 3999 H 390.108 0.0950302 -4.96209 0
M  V30 4000 H 385.364 -0.79168 -6.06253 0
M  V30 4001 H 389.538 -1.43026 -6.81554 0
M  V30 4002 H 387.165 -1.87967 -7.36595 0
M  V30 4003 N 388.74 1.54641 0.303973 0
M  V30 4004 C 389.97 1.77511 1.05705 0
M  V30 4005 C 390.378 0.533228 1.81531 0
M  V30 4006 O 389.721 -0.506423 1.76582 0
M  V30 4007 C 389.783 2.92779 2.08617 0
M  V30 4008 C 389.447 4.30977 1.52013 0
M  V30 4009 C 390.444 5.11115 0.9517 0
M  V30 4010 C 388.129 4.77571 1.55665 0
M  V30 4011 C 390.123 6.35966 0.427327 0
M  V30 4012 C 387.81 6.02384 1.02841 0
M  V30 4013 C 388.808 6.81417 0.464713 0
M  V30 4014 O 388.496 8.03881 -0.0555283 0
M  V30 4015 H 388.228 0.59579 0.319391 0
M  V30 4016 H 390.782 2.02401 0.349712 0
M  V30 4017 H 389.012 2.63506 2.83022 0
M  V30 4018 H 390.701 3.03252 2.69802 0
M  V30 4019 H 391.467 4.76264 0.916407 0
M  V30 4020 H 387.346 4.16085 1.9848 0
M  V30 4021 H 390.89 6.97599 -0.0133062 0
M  V30 4022 H 386.787 6.36723 1.06084 0
M  V30 4023 H 387.555 8.18479 0.0580522 0
M  V30 4024 N 390.218 -0.567019 1.47046 0
M  V30 4025 C 391.443 -1.3551 1.57009 0
M  V30 4026 C 391.868 -1.86841 0.217259 0
M  V30 4027 O 391.226 -1.62435 -0.805268 0
M  V30 4028 C 391.274 -2.50777 2.5912 0
M  V30 4029 O 390.378 -3.52706 2.13711 0
M  V30 4030 H 389.719 -0.402919 0.52778 0
M  V30 4031 H 392.249 -0.686241 1.92748 0
M  V30 4032 H 392.259 -2.97481 2.79229 0
M  V30 4033 H 390.934 -2.12771 3.57353 0
M  V30 4034 H 389.511 -3.12374 2.03659 0
M  V30 4035 N 391.696 -1.35014 -0.812953 0
M  V30 4036 C 392.924 -1.31031 -1.6012 0
M  V30 4037 C 393.339 0.113558 -1.88458 0
M  V30 4038 O 392.696 1.06363 -1.48301 0
M  V30 4039 C 392.747 -2.10872 -2.93624 0
M  V30 4040 O 392.468 -3.47706 -2.66518 0
M  V30 4041 C 393.969 -2.14401 -3.88004 0
M  V30 4042 H 391.189 -0.45037 -0.497401 0
M  V30 4043 H 393.733 -1.77775 -1.01076 0
M  V30 4044 H 391.888 -1.67744 -3.492 0
M  V30 4045 H 392.302 -3.89097 -3.51715 0
M  V30 4046 H 393.776 -2.74669 -4.78812 0
M  V30 4047 H 394.253 -1.14105 -4.24119 0
M  V30 4048 H 394.859 -2.57662 -3.38364 0
M  V30 4049 N 393.175 1.03435 -1.18907 0
M  V30 4050 C 394.422 1.76743 -0.988334 0
M  V30 4051 C 394.75 1.88447 0.481441 0
M  V30 4052 O 394.005 1.39383 1.37371 0
M  V30 4053 C 394.304 3.19792 -1.59586 0
M  V30 4054 C 393.97 3.28108 -3.09283 0
M  V30 4055 C 392.632 3.30084 -3.5014 0
M  V30 4056 C 394.984 3.27696 -4.05296 0
M  V30 4057 C 392.312 3.29299 -4.85571 0
M  V30 4058 C 394.664 3.28451 -5.4065 0
M  V30 4059 C 393.328 3.28723 -5.80946 0
M  V30 4060 H 392.598 0.64675 -0.361657 0
M  V30 4061 H 395.245 1.21442 -1.48068 0
M  V30 4062 H 393.55 3.78136 -1.02568 0
M  V30 4063 H 395.247 3.75171 -1.41589 0
M  V30 4064 H 391.837 3.27294 -2.76725 0
M  V30 4065 H 396.021 3.25354 -3.74778 0
M  V30 4066 H 391.277 3.2783 -5.16079 0
M  V30 4067 H 395.451 3.27082 -6.14809 0
M  V30 4068 H 393.078 3.27868 -6.85862 0
M  V30 4069 N 394.653 0.992116 1.22453 0
M  V30 4070 C 395.616 0.546883 2.2258 0
M  V30 4071 C 396.616 -0.369829 1.56489 0
M  V30 4072 O 397.806 -0.161896 1.73446 0
M  V30 4073 C 394.938 -0.204659 3.40285 0
M  V30 4074 H 396.131 1.43234 2.63484 0
M  V30 4075 H 393.684 0.779239 1.3549 0
M  V30 4076 H 394.419 -1.10614 3.04853 0
M  V30 4077 H 394.204 0.45354 3.89468 0
M  V30 4078 H 395.694 -0.504358 4.14543 0
M  V30 4079 N 396.131 -1.37776 0.765217 0
M  V30 4080 C 397.359 -2.04124 0.337767 0
M  V30 4081 C 397.774 -1.57715 -1.03785 0
M  V30 4082 O 397.131 -0.755447 -1.6613 0
M  V30 4083 C 397.182 -3.59658 0.364442 0
M  V30 4084 O 396.903 -4.04367 1.68579 0
M  V30 4085 C 398.404 -4.43236 -0.0754221 0
M  V30 4086 H 395.624 -0.655696 0.142491 0
M  V30 4087 H 398.168 -1.76238 1.03732 0
M  V30 4088 H 396.323 -3.86339 -0.286471 0
M  V30 4089 H 396.737 -4.98857 1.61993 0
M  V30 4090 H 398.211 -5.52 -0.00560067 0
M  V30 4091 H 398.688 -4.2455 -1.12491 0
M  V30 4092 H 399.294 -4.21767 0.547055 0
M  V30 4093 N 397.609 -0.515225 -1.4894 0
M  V30 4094 C 398.886 0.0879088 -1.95402 0
M  V30 4095 C 399.266 1.52745 -1.45712 0
M  V30 4096 O 398.614 2.18238 -0.677093 0
M  V30 4097 C 398.824 -0.0141055 -3.48997 0
M  V30 4098 C 400.172 0.152646 -4.24326 0
M  V30 4099 O 401.196 0.0604025 -3.56149 0
M  V30 4100 O 400.055 0.34384 -5.45417 0
M  V30 4101 H 397.149 0.0874636 -0.822362 0
M  V30 4102 H 399.695 -0.578775 -1.59525 0
M  V30 4103 H 398.467 -1.01745 -3.77841 0
M  V30 4104 H 398.09 0.692091 -3.9153 0
M  V30 4105 N 399.087 1.5561 -0.249682 0
M  V30 4106 C 400.364 1.90932 0.424761 0
M  V30 4107 C 400.744 1.17078 1.75658 0
M  V30 4108 O 400.092 0.289176 2.26663 0
M  V30 4109 C 400.302 3.43975 0.590109 0
M  V30 4110 C 401.65 4.15281 0.884714 0
M  V30 4111 O 402.674 3.49729 0.67587 0
M  V30 4112 O 401.533 5.31236 1.28259 0
M  V30 4113 H 398.627 0.794815 0.228468 0
M  V30 4114 H 401.173 1.67135 -0.293954 0
M  V30 4115 H 399.945 3.89748 -0.34818 0
M  V30 4116 H 399.568 3.73644 1.35926 0
M  V30 4117 N 400.565 -0.0233959 1.57583 0
M  V30 4118 C 401.981 -0.379134 1.55031 0
M  V30 4119 C 402.181 -1.76255 0.976548 0
M  V30 4120 O 401.237 -2.45266 0.600078 0
M  V30 4121 C 402.55 -0.275792 2.99433 0
M  V30 4122 C 404.098 -0.352458 3.11009 0
M  V30 4123 C 404.573 -0.278501 4.57152 0
M  V30 4124 N 406.064 -0.337123 4.61972 0
M  V30 4125 C 406.799 -0.302876 5.726 0
M  V30 4126 N 406.295 -0.220589 6.92449 0
M  V30 4127 N 408.088 -0.353023 5.6099 0
M  V30 4128 H 400.239 0.881869 1.93227 0
M  V30 4129 H 402.502 0.335867 0.886509 0
M  V30 4130 H 402.208 0.675108 3.4516 0
M  V30 4131 H 402.082 -1.06721 3.61788 0
M  V30 4132 H 404.469 -1.29379 2.65226 0
M  V30 4133 H 404.55 0.468409 2.51475 0
M  V30 4134 H 404.194 0.659189 5.03604 0
M  V30 4135 H 404.124 -1.11755 5.14605 0
M  V30 4136 H 406.615 -0.403002 3.75745 0
M  V30 4137 H 406.928 -0.199713 7.72542 0
M  V30 4138 H 405.273 -0.186555 6.9475 0
M  V30 4139 H 408.464 -0.415339 4.66254 0
M  V30 4140 H 408.637 -0.322866 6.47195 0
M  V30 4141 N 402.043 -1.548 -0.295768 0
M  V30 4142 C 402.99 -1.86113 -1.36494 0
M  V30 4143 C 403.96 -0.7105 -1.50137 0
M  V30 4144 O 405.145 -0.959626 -1.64912 0
M  V30 4145 C 402.285 -2.11861 -2.72413 0
M  V30 4146 C 401.398 -3.39471 -2.67177 0
M  V30 4147 C 400.533 -3.55035 -3.95125 0
M  V30 4148 C 399.572 -4.76418 -3.84308 0
M  V30 4149 N 398.709 -4.8876 -5.04042 0
M  V30 4150 H 403.549 -2.77314 -1.09091 0
M  V30 4151 H 401.086 -1.37315 -0.52753 0
M  V30 4152 H 403.044 -2.24786 -3.51464 0
M  V30 4153 H 401.674 -1.2392 -2.98066 0
M  V30 4154 H 400.726 -3.35139 -1.79962 0
M  V30 4155 H 402.038 -4.28646 -2.55076 0
M  V30 4156 H 401.192 -3.67653 -4.82614 0
M  V30 4157 H 399.931 -2.64002 -4.10066 0
M  V30 4158 H 398.936 -4.63827 -2.95202 0
M  V30 4159 H 400.161 -5.68863 -3.70906 0
M  V30 4160 H 398.107 -4.00652 -5.19436 0
M  V30 4161 H 398.024 -5.71945 -4.94384 0
M  V30 4162 H 399.292 -5.0574 -5.93167 0
M  V30 4163 N 403.521 0.559213 -1.47345 0
M  V30 4164 C 404.431 1.69388 -1.62311 0
M  V30 4165 C 405.447 1.6648 -0.505993 0
M  V30 4166 O 406.623 1.85964 -0.773262 0
M  V30 4167 C 403.688 3.05894 -1.63185 0
M  V30 4168 C 402.749 3.19885 -2.86307 0
M  V30 4169 C 401.982 4.49879 -2.87131 0
M  V30 4170 O 402.205 5.35217 -1.97229 0
M  V30 4171 O 401.139 4.67618 -3.78968 0
M  V30 4172 H 404.965 1.59706 -2.58317 0
M  V30 4173 H 402.55 0.728989 -1.30407 0
M  V30 4174 H 404.432 3.87133 -1.66451 0
M  V30 4175 H 403.107 3.15964 -0.70345 0
M  V30 4176 H 402.014 2.38052 -2.88587 0
M  V30 4177 H 403.347 3.14718 -3.78435 0
M  V30 4178 N 404.999 1.35443 0.805782 0
M  V30 4179 C 406.247 1.28507 1.55982 0
M  V30 4180 C 406.568 -0.140046 1.94496 0
M  V30 4181 O 405.838 -1.07666 1.63661 0
M  V30 4182 H 404.418 0.472676 0.578434 0
M  V30 4183 H 407.08 1.69555 0.961098 0
M  V30 4184 H 406.176 1.90148 2.47488 0
M  V30 4185 N 406.477 -1.02803 1.19454 0
M  V30 4186 C 407.41 -2.107 0.876396 0
M  V30 4187 C 408.388 -1.61741 -0.166897 0
M  V30 4188 O 409.572 -1.88451 -0.0430195 0
M  V30 4189 C 406.699 -3.37262 0.311758 0
M  V30 4190 C 405.745 -4.05093 1.33424 0
M  V30 4191 S 406.578 -4.50498 2.89503 0
M  V30 4192 C 407.734 -5.80277 2.34584 0
M  V30 4193 H 407.967 -2.37362 1.79016 0
M  V30 4194 H 405.5 -1.15755 1.02177 0
M  V30 4195 H 407.458 -4.10499 -0.00748752 0
M  V30 4196 H 406.119 -3.08693 -0.58032 0
M  V30 4197 H 405.312 -4.9611 0.888302 0
M  V30 4198 H 404.914 -3.3803 1.60037 0
M  V30 4199 H 407.206 -6.54873 1.73633 0
M  V30 4200 H 408.149 -6.29651 3.23952 0
M  V30 4201 H 408.557 -5.3599 1.77131 0
M  V30 4202 N 407.956 -0.998596 -1.21925 0
M  V30 4203 C 409.184 -0.696286 -1.94832 0
M  V30 4204 C 409.599 0.740032 -1.73692 0
M  V30 4205 O 408.956 1.5 -1.03953 0
M  V30 4206 C 409.007 -0.999833 -3.47398 0
M  V30 4207 O 408.728 -2.37972 -3.67833 0
M  V30 4208 C 410.229 -0.716025 -4.37479 0
M  V30 4209 H 407.449 -0.257111 -0.619786 0
M  V30 4210 H 409.993 -1.33491 -1.54921 0
M  V30 4211 H 408.148 -0.406918 -3.85257 0
M  V30 4212 H 408.562 -2.48338 -4.61983 0
M  V30 4213 H 410.036 -0.978642 -5.43256 0
M  V30 4214 H 410.513 0.349968 -4.37803 0
M  V30 4215 H 411.119 -1.29025 -4.05256 0
M  V30 4216 N 409.434 1.37368 -0.772513 0
M  V30 4217 C 410.397 2.28601 -0.165541 0
M  V30 4218 C 411.397 1.48062 0.627238 0
M  V30 4219 O 412.587 1.68268 0.450715 0
M  V30 4220 C 409.719 3.32023 0.772897 0
M  V30 4221 H 410.912 2.83787 -0.969787 0
M  V30 4222 H 408.465 1.46647 -0.540775 0
M  V30 4223 H 409.2 2.81962 1.60212 0
M  V30 4224 H 408.985 3.91555 0.206585 0
M  V30 4225 H 410.475 4.00197 1.19298 0
M  V30 4226 N 410.912 0.523116 1.48665 0
M  V30 4227 C 412.159 -0.0134763 2.02496 0
M  V30 4228 C 412.487 -1.3493 1.40086 0
M  V30 4229 O 411.742 -1.88286 0.533567 0
M  V30 4230 C 412.041 -0.191671 3.56886 0
M  V30 4231 C 411.707 1.06893 4.38046 0
M  V30 4232 C 410.369 1.41443 4.59943 0
M  V30 4233 C 412.721 1.90584 4.85106 0
M  V30 4234 C 410.049 2.59594 5.26144 0
M  V30 4235 C 412.401 3.07907 5.52609 0
M  V30 4236 C 411.065 3.42811 5.72745 0
M  V30 4237 H 410.335 -0.00493133 0.740984 0
M  V30 4238 H 412.982 0.687751 1.78724 0
M  V30 4239 H 411.287 -0.97561 3.79459 0
M  V30 4240 H 412.984 -0.621659 3.96152 0
M  V30 4241 H 409.574 0.789848 4.21259 0
M  V30 4242 H 413.758 1.65203 4.67997 0
M  V30 4243 H 409.014 2.86847 5.39934 0
M  V30 4244 H 413.188 3.73066 5.88043 0
M  V30 4245 H 410.815 4.34462 6.23816 0
M  V30 4246 N 412.39 -1.55475 0.257931 0
M  V30 4247 C 413.636 -1.99502 -0.364266 0
M  V30 4248 C 413.969 -1.146 -1.56782 0
M  V30 4249 O 413.244 -0.211968 -1.93342 0
M  V30 4250 C 413.527 -3.51917 -0.763333 0
M  V30 4251 C 413.38 -4.4758 0.446371 0
M  V30 4252 C 414.699 -4.09742 -1.60623 0
M  V30 4253 H 411.818 -0.725277 -0.130929 0
M  V30 4254 H 414.46 -1.8653 0.361446 0
M  V30 4255 H 412.61 -3.63101 -1.38166 0
M  V30 4256 H 414.282 -4.48362 1.08487 0
M  V30 4257 H 412.525 -4.19947 1.08753 0
M  V30 4258 H 413.196 -5.51862 0.123645 0
M  V30 4259 H 415.672 -4.01727 -1.08418 0
M  V30 4260 H 414.548 -5.16631 -1.85429 0
M  V30 4261 H 414.809 -3.58889 -2.58169 0
M  V30 4262 N 413.868 0.0150385 -1.57593 0
M  V30 4263 C 414.778 1.02791 -2.10882 0
M  V30 4264 C 415.794 1.38702 -1.0506 0
M  V30 4265 O 416.97 1.47739 -1.36877 0
M  V30 4266 C 414.035 2.30568 -2.58919 0
M  V30 4267 C 413.096 2.01108 -3.79281 0
M  V30 4268 C 412.329 3.22794 -4.25018 0
M  V30 4269 O 412.552 4.33959 -3.70183 0
M  V30 4270 O 411.486 3.07672 -5.17322 0
M  V30 4271 H 415.312 0.604973 -2.97613 0
M  V30 4272 H 412.897 0.23292 -1.47573 0
M  V30 4273 H 414.779 3.05662 -2.90084 0
M  V30 4274 H 413.454 2.72129 -1.75293 0
M  V30 4275 H 412.361 1.23537 -3.53114 0
M  V30 4276 H 413.694 1.64394 -4.63935 0
M  V30 4277 N 415.346 1.54954 0.287554 0
M  V30 4278 C 416.293 1.86834 1.35505 0
M  V30 4279 C 417.263 0.718452 1.49758 0
M  V30 4280 O 418.448 0.968358 1.644 0
M  V30 4281 C 415.588 2.13303 2.71286 0
M  V30 4282 C 414.701 3.40883 2.65373 0
M  V30 4283 C 413.836 3.57125 3.93236 0
M  V30 4284 C 412.875 4.78449 3.81776 0
M  V30 4285 N 412.012 4.91426 5.01443 0
M  V30 4286 H 416.852 2.77889 1.07619 0
M  V30 4287 H 414.389 1.37593 0.520241 0
M  V30 4288 H 416.347 2.26646 3.50267 0
M  V30 4289 H 414.977 1.25499 2.97405 0
M  V30 4290 H 414.029 3.36088 1.78182 0
M  V30 4291 H 415.341 4.29993 2.52799 0
M  V30 4292 H 414.495 3.70207 4.80658 0
M  V30 4293 H 413.234 2.66173 4.0866 0
M  V30 4294 H 412.239 4.65386 2.92738 0
M  V30 4295 H 413.464 5.70822 3.67884 0
M  V30 4296 H 411.41 4.03401 5.17304 0
M  V30 4297 H 411.327 5.74559 4.91343 0
M  V30 4298 H 412.595 5.08879 5.90477 0
M  V30 4299 N 416.824 -0.551391 1.4764 0
M  V30 4300 C 418.24 -0.877887 1.33287 0
M  V30 4301 C 418.44 -1.98817 0.327721 0
M  V30 4302 O 417.496 -2.51171 -0.258695 0
M  V30 4303 C 418.809 -1.26563 2.72768 0
M  V30 4304 C 420.357 -1.37673 2.81097 0
M  V30 4305 C 420.832 -1.79799 4.21232 0
M  V30 4306 N 422.323 -1.8694 4.23802 0
M  V30 4307 C 423.058 -2.20876 5.29151 0
M  V30 4308 N 422.554 -2.53386 6.448 0
M  V30 4309 N 424.347 -2.217 5.16532 0
M  V30 4310 H 416.498 0.18153 2.11623 0
M  V30 4311 H 418.761 0.0185514 0.947818 0
M  V30 4312 H 418.467 -0.523591 3.47781 0
M  V30 4313 H 418.341 -2.22052 3.04915 0
M  V30 4314 H 420.728 -2.10956 2.06353 0
M  V30 4315 H 420.809 -0.40357 2.52596 0
M  V30 4316 H 420.453 -1.07083 4.96483 0
M  V30 4317 H 420.383 -2.78128 4.4716 0
M  V30 4318 H 422.874 -1.64179 3.40373 0
M  V30 4319 H 423.187 -2.78325 7.20941 0
M  V30 4320 H 421.532 -2.50953 6.48111 0
M  V30 4321 H 424.723 -1.95745 4.25207 0
M  V30 4322 H 424.896 -2.47818 5.98741 0
M  V30 4323 N 418.302 -1.35869 -0.798587 0
M  V30 4324 C 419.249 -1.29446 -1.91082 0
M  V30 4325 C 420.219 -0.16487 -1.6528 0
M  V30 4326 O 421.404 -0.349888 -1.87564 0
M  V30 4327 C 418.544 -1.0804 -3.27752 0
M  V30 4328 C 417.657 -2.29993 -3.65687 0
M  V30 4329 C 416.792 -2.01673 -4.91428 0
M  V30 4330 C 415.831 -3.19636 -5.22015 0
M  V30 4331 N 414.968 -2.91039 -6.38937 0
M  V30 4332 H 419.808 -2.24553 -1.95907 0
M  V30 4333 H 417.345 -1.11615 -0.958148 0
M  V30 4334 H 419.303 -0.936586 -4.06551 0
M  V30 4335 H 417.933 -0.16592 -3.22373 0
M  V30 4336 H 416.985 -2.55211 -2.82085 0
M  V30 4337 H 418.297 -3.18052 -3.84245 0
M  V30 4338 H 417.451 -1.84168 -5.78072 0
M  V30 4339 H 416.19 -1.10911 -4.74921 0
M  V30 4340 H 415.195 -3.37709 -4.33858 0
M  V30 4341 H 416.42 -4.11211 -5.40447 0
M  V30 4342 H 414.366 -2.0288 -6.2384 0
M  V30 4343 H 414.283 -3.72635 -6.57784 0
M  V30 4344 H 415.551 -2.77093 -7.28587 0
M  V30 4345 N 419.78 1.02168 -1.19998 0
M  V30 4346 C 420.743 2.08765 -0.94604 0
M  V30 4347 C 421.743 1.60618 0.0763846 0
M  V30 4348 O 422.933 1.73472 -0.159135 0
M  V30 4349 C 420.065 3.38262 -0.423255 0
M  V30 4350 H 421.258 2.32726 -1.89153 0
M  V30 4351 H 418.811 1.1889 -1.01464 0
M  V30 4352 H 419.546 3.19974 0.527938 0
M  V30 4353 H 419.331 3.74532 -1.16053 0
M  V30 4354 H 420.821 4.16759 -0.264911 0
M  V30 4355 N 421.258 1.00505 1.21394 0
M  V30 4356 C 422.206 0.558623 2.25792 0
M  V30 4357 C 423.2 -0.396848 1.64686 0
M  V30 4358 O 424.406 -0.268035 1.77993 0
M  V30 4359 H 420.781 0.1623 0.734277 0
M  V30 4360 H 422.752 1.4503 2.60785 0
M  V30 4361 C 421.501 -0.0989574 3.47559 0
M  V30 4362 H 420.824 0.627225 3.94849 0
M  V30 4363 H 422.264 -0.3746 4.22342 0
M  V30 4364 C 420.723 -1.33817 3.09184 0
M  V30 4365 O 421.253 -2.43252 3.19674 0
M  V30 4366 N 419.459 -1.21793 2.63846 0
M  V30 4367 H 419.006 -0.32746 2.5551 0
M  V30 4368 H 418.964 -2.04809 2.38539 0
M  V30 4369 N 422.737 -1.36956 0.779787 0
M  V30 4370 C 423.984 -1.99491 0.347766 0
M  V30 4371 C 424.312 -1.61898 -1.07793 0
M  V30 4372 O 423.567 -0.86071 -1.75756 0
M  V30 4373 C 423.866 -3.54585 0.447686 0
M  V30 4374 C 423.532 -4.1197 1.83279 0
M  V30 4375 C 422.194 -4.27356 2.2118 0
M  V30 4376 C 424.546 -4.43354 2.74019 0
M  V30 4377 C 421.874 -4.71432 3.4924 0
M  V30 4378 C 424.226 -4.88858 4.01497 0
M  V30 4379 C 422.89 -5.0245 4.39432 0
M  V30 4380 H 422.16 -0.729991 0.127257 0
M  V30 4381 H 424.807 -1.63599 0.995376 0
M  V30 4382 H 423.112 -3.90773 -0.283447 0
M  V30 4383 H 424.809 -4.00888 0.0945948 0
M  V30 4384 H 421.399 -4.00428 1.52825 0
M  V30 4385 H 425.583 -4.31045 2.45995 0
M  V30 4386 H 420.839 -4.80141 3.78516 0
M  V30 4387 H 425.013 -5.12108 4.71931 0
M  V30 4388 H 422.64 -5.36362 5.38721 0
M  V30 4389 N 424.215 -0.530993 -1.48385 0
M  V30 4390 C 425.162 0.231223 -2.29639 0
M  V30 4391 C 426.132 0.932864 -1.37429 0
M  V30 4392 O 427.317 0.933692 -1.66394 0
M  V30 4393 C 424.457 1.27155 -3.2082 0
M  V30 4394 C 423.57 0.578655 -4.28107 0
M  V30 4395 C 422.705 1.602 -5.06467 0
M  V30 4396 C 421.744 0.892625 -6.05556 0
M  V30 4397 N 420.881 1.86157 -6.76971 0
M  V30 4398 H 425.721 -0.467848 -2.94305 0
M  V30 4399 H 423.258 -0.242556 -1.45086 0
M  V30 4400 H 425.216 1.88703 -3.72085 0
M  V30 4401 H 423.846 1.939 -2.58075 0
M  V30 4402 H 422.898 -0.150782 -3.80101 0
M  V30 4403 H 424.21 0.0217065 -4.98795 0
M  V30 4404 H 423.364 2.29173 -5.61751 0
M  V30 4405 H 422.103 2.19285 -4.35621 0
M  V30 4406 H 421.108 0.188829 -5.49476 0
M  V30 4407 H 422.333 0.307878 -6.78402 0
M  V30 4408 H 420.279 2.44147 -6.08875 0
M  V30 4409 H 420.196 1.35608 -7.43738 0
M  V30 4410 H 421.464 2.54325 -7.36844 0
M  V30 4411 N 425.693 1.55336 -0.266172 0
M  V30 4412 C 426.97 1.91372 0.404486 0
M  V30 4413 C 427.35 1.18935 1.74407 0
M  V30 4414 O 426.698 0.3132 2.26343 0
M  V30 4415 C 426.908 3.44581 0.553593 0
M  V30 4416 C 428.256 4.16196 0.840618 0
M  V30 4417 O 429.28 3.50426 0.638739 0
M  V30 4418 O 428.139 5.32567 1.22618 0
M  V30 4419 H 425.233 0.797194 0.220025 0
M  V30 4420 H 427.779 1.66813 -0.311664 0
M  V30 4421 H 426.551 3.89357 -0.389498 0
M  V30 4422 H 426.174 3.75065 1.31955 0
M  V30 4423 N 427.171 -0.0066808 1.57599 0
M  V30 4424 C 428.103 -1.02827 2.04839 0
M  V30 4425 C 429.116 -1.31108 0.965113 0
M  V30 4426 O 430.305 -1.28202 1.24203 0
M  V30 4427 C 427.405 -2.36464 2.42771 0
M  V30 4428 C 426.578 -2.27219 3.73751 0
M  V30 4429 C 425.637 -3.43489 3.98625 0
M  V30 4430 O 424.663 -3.21976 4.69382 0
M  V30 4431 N 425.865 -4.66116 3.46 0
M  V30 4432 H 428.63 -0.625455 2.93101 0
M  V30 4433 H 426.191 -0.194198 1.60731 0
M  V30 4434 H 428.183 -3.13008 2.56531 0
M  V30 4435 H 426.753 -2.68512 1.60063 0
M  V30 4436 H 425.973 -1.35629 3.70133 0
M  V30 4437 H 427.261 -2.18208 4.59633 0
M  V30 4438 H 426.659 -4.86493 2.88688 0
M  V30 4439 H 425.216 -5.39949 3.65101 0
M  V30 4440 O 428.688 -1.6081 -0.149083 0
M  V30 4441 H 429.379 -1.77145 -0.783536 0
M  V30 END ATOM
M  V30 BEGIN BOND
M  V30 END BOND
M  V30 END CTAB
M  END
$$$$
