drugbank_target|P30041 Peroxiredoxin-6 (DB03814; DB09130)
 OpenBabel12092120573D

  0  0  0     0  0            999 V3000
M  V30 BEGIN CTAB
M  V30 COUNTS 3566 3609 0 0 0
M  V30 BEGIN ATOM
M  V30 1 H -0.908 1.98254 -0.117106 0
M  V30 2 N 0 1.576 0 0
M  V30 3 C 0.933 2.03868 1.02534 0
M  V30 4 C 1.911 0.928543 1.3348 0
M  V30 5 O 3.095 1.19667 1.45644 0
M  V30 6 C 0.222 2.43627 2.35294 0
M  V30 7 C -0.732 3.65373 2.2001 0
M  V30 8 S 0.101 5.13292 1.52614 0
M  V30 9 C 1.257 5.56322 2.86805 0
M  V30 10 H 1.49 2.90518 0.631377 0
M  V30 11 H -0.977 1.52953 0.210867 0
M  V30 12 H 0.981 2.67203 3.11629 0
M  V30 13 H -0.358 1.57376 2.7183 0
M  V30 14 H -1.165 3.90944 3.18086 0
M  V30 15 H -1.563 3.418 1.51819 0
M  V30 16 H 0.729 5.58782 3.83104 0
M  V30 17 H 1.672 6.56266 2.65933 0
M  V30 18 H 2.08 4.83886 2.90714 0
M  V30 19 N 1.4781 -0.272755 1.55222 0
M  V30 20 C 2.8891 -0.84378 1.66545 0
M  V30 21 C 3.2401 -1.87035 0.592641 0
M  V30 22 O 2.3651 -2.14761 -0.265818 0
M  V30 23 C 2.9601 -1.53723 3.01918 0
M  V30 24 C 1.5191 -2.05628 3.15268 0
M  V30 25 C 0.6661 -0.898424 2.62343 0
M  V30 26 H 3.6171 -0.0490998 1.58624 0
M  V30 27 H 3.6381 -2.40421 2.94921 0
M  V30 28 H 3.1501 -0.78983 3.79978 0
M  V30 29 H 1.2511 -2.83329 2.41983 0
M  V30 30 H 1.3641 -2.27142 4.21833 0
M  V30 31 H -0.2719 -1.29186 2.19506 0
M  V30 32 H 0.5111 -0.164528 3.42906 0
M  V30 33 N 2.9562 -1.48159 -0.537278 0
M  V30 34 C 4.2042 -1.55497 -1.29094 0
M  V30 35 C 4.5252 -0.227454 -1.93669 0
M  V30 36 O 3.7952 0.750386 -1.80959 0
M  V30 37 H 2.3752 -0.572832 -0.47945 0
M  V30 38 H 5.0372 -1.84579 -0.625818 0
M  V30 39 H 4.1332 -2.33216 -2.07405 0
M  V30 40 N 4.4343 0.785586 -1.36625 0
M  V30 41 C 5.6823 1.54057 -1.30808 0
M  V30 42 C 6.0033 1.94683 0.111157 0
M  V30 43 O 5.2733 1.65241 1.05224 0
M  V30 44 H 3.8533 0.571354 -0.481211 0
M  V30 45 H 6.5153 0.935821 -1.70963 0
M  V30 46 H 5.6113 2.44637 -1.93801 0
M  V30 47 N 5.9124 1.20967 1.01018 0
M  V30 48 C 6.8424 0.988272 2.11555 0
M  V30 49 C 7.8234 -0.0849778 1.69888 0
M  V30 50 O 9.0084 0.0738202 1.9406 0
M  V30 51 C 6.1384 0.546528 3.42973 0
M  V30 52 C 5.0924 1.56375 3.9841 0
M  V30 53 C 4.4184 0.97842 5.25672 0
M  V30 54 C 5.7184 2.94922 4.31066 0
M  V30 55 H 7.4124 1.91276 2.30334 0
M  V30 56 H 4.9584 0.921073 1.1069 0
M  V30 57 H 6.9114 0.378839 4.19694 0
M  V30 58 H 5.6354 -0.413598 3.23971 0
M  V30 59 H 4.2944 1.71891 3.23804 0
M  V30 60 H 3.9424 0.0101688 5.02999 0
M  V30 61 H 3.6424 1.65784 5.63728 0
M  V30 62 H 5.1664 0.821939 6.05043 0
M  V30 63 H 6.5804 2.8288 4.9865 0
M  V30 64 H 4.9774 3.5983 4.80253 0
M  V30 65 H 6.0474 3.4616 3.39561 0
M  V30 66 N 7.3905 -1.2043 1.01659 0
M  V30 67 C 8.3205 -2.25466 0.607226 0
M  V30 68 C 9.3015 -1.65853 -0.377716 0
M  V30 69 O 10.4865 -1.92409 -0.263149 0
M  V30 70 C 7.6165 -3.47256 -0.0552949 0
M  V30 71 C 6.5705 -4.19462 0.850632 0
M  V30 72 C 5.8965 -5.34673 0.0538859 0
M  V30 73 C 7.1965 -4.75603 2.15868 0
M  V30 74 H 8.8905 -2.59962 1.48526 0
M  V30 75 H 6.4365 -1.2496 0.715605 0
M  V30 76 H 8.3895 -4.19917 -0.353233 0
M  V30 77 H 7.1135 -3.11924 -0.968045 0
M  V30 78 H 5.7725 -3.48667 1.13257 0
M  V30 79 H 5.4205 -4.95585 -0.860514 0
M  V30 80 H 5.1205 -5.83913 0.657192 0
M  V30 81 H 6.6445 -6.10138 -0.237598 0
M  V30 82 H 8.0585 -5.40083 1.92311 0
M  V30 83 H 6.4555 -5.3528 2.71284 0
M  V30 84 H 7.5255 -3.94346 2.82169 0
M  V30 85 N 8.8686 -0.792821 -1.36206 0
M  V30 86 C 9.7986 -0.207853 -2.32573 0
M  V30 87 C 10.7796 0.659055 -1.56813 0
M  V30 88 O 11.9646 0.592176 -1.84951 0
M  V30 89 C 9.0946 0.655449 -3.41059 0
M  V30 90 C 8.0486 -0.111842 -4.27854 0
M  V30 91 C 7.3746 0.872274 -5.27537 0
M  V30 92 C 8.6746 -1.30299 -5.05786 0
M  V30 93 H 10.3686 -1.01294 -2.81744 0
M  V30 94 H 7.9146 -0.48854 -1.3546 0
M  V30 95 H 9.8676 1.07464 -4.07467 0
M  V30 96 H 8.5916 1.49328 -2.90463 0
M  V30 97 H 7.2506 -0.512053 -3.63006 0
M  V30 98 H 6.8986 1.70523 -4.73214 0
M  V30 99 H 6.5986 0.363291 -5.86476 0
M  V30 100 H 8.1226 1.28996 -5.96818 0
M  V30 101 H 9.5366 -0.959379 -5.65216 0
M  V30 102 H 7.9336 -1.7455 -5.74154 0
M  V30 103 H 9.0036 -2.09663 -4.37229 0
M  V30 104 N 10.3467 1.47872 -0.545128 0
M  V30 105 C 11.5947 2.02093 -0.016553 0
M  V30 106 C 11.9157 1.42305 1.3332 0
M  V30 107 O 11.1857 0.593853 1.86682 0
M  V30 108 H 9.7657 0.746993 -0.00313038 0
M  V30 109 H 12.4277 1.81414 -0.712397 0
M  V30 110 H 11.5237 3.11996 0.0805422 0
M  V30 111 N 11.8248 0.280983 1.55075 0
M  V30 112 C 13.1018 -0.386207 1.91749 0
M  V30 113 C 13.4818 -1.73264 1.20594 0
M  V30 114 O 12.8298 -2.26034 0.334784 0
M  V30 115 C 13.0398 -0.520687 3.45094 0
M  V30 116 C 14.3878 -0.800865 4.16979 0
M  V30 117 O 15.4118 -0.605271 3.5102 0
M  V30 118 O 14.2708 -1.1753 5.33712 0
M  V30 119 H 11.3648 -0.212408 0.799257 0
M  V30 120 H 13.9108 0.327568 1.66509 0
M  V30 121 H 12.6828 0.426633 3.88967 0
M  V30 122 H 12.3058 -1.2837 3.76307 0
M  V30 123 N 13.3029 -1.57598 0.00835791 0
M  V30 124 C 14.5489 -1.91211 -0.675732 0
M  V30 125 C 14.8819 -0.883139 -1.72958 0
M  V30 126 O 14.1569 0.097016 -1.94258 0
M  V30 127 C 14.4399 -3.35379 -1.31123 0
M  V30 128 C 14.2929 -4.48999 -0.268356 0
M  V30 129 C 15.6119 -3.7912 -2.23508 0
M  V30 130 H 12.7309 -0.695374 -0.244179 0
M  V30 131 H 15.3729 -1.89901 0.0613655 0
M  V30 132 H 13.5229 -3.36626 -1.93946 0
M  V30 133 H 15.1949 -4.59887 0.360844 0
M  V30 134 H 13.4379 -4.31873 0.408482 0
M  V30 135 H 14.1089 -5.46851 -0.752218 0
M  V30 136 H 16.5849 -3.79477 -1.70693 0
M  V30 137 H 15.4609 -4.80729 -2.64936 0
M  V30 138 H 15.7219 -3.13455 -3.11766 0
M  V30 139 N 14.781 0.264519 -1.55364 0
M  V30 140 C 15.744 1.31046 -1.88042 0
M  V30 141 C 16.744 1.41943 -0.755569 0
M  V30 142 O 17.934 1.40947 -1.02369 0
M  V30 143 C 15.066 2.69067 -2.09323 0
M  V30 144 H 16.259 1.03297 -2.81549 0
M  V30 145 H 13.812 0.502989 -1.47986 0
M  V30 146 H 14.547 3.01982 -1.18226 0
M  V30 147 H 14.332 2.62542 -2.91229 0
M  V30 148 H 15.822 3.44623 -2.35848 0
M  V30 149 N 16.2591 1.48442 0.529413 0
M  V30 150 C 17.6701 1.5002 1.11134 0
M  V30 151 C 18.0211 0.27031 1.94329 0
M  V30 152 O 17.1461 -0.622507 2.07253 0
M  V30 153 C 17.7411 2.71834 2.02217 0
M  V30 154 C 16.3001 2.76283 2.55627 0
M  V30 155 C 15.4471 2.43542 1.326 0
M  V30 156 H 18.3981 1.5555 0.314641 0
M  V30 157 H 18.4191 2.50384 2.8651 0
M  V30 158 H 17.9311 3.61331 1.41639 0
M  V30 159 H 16.0321 1.90995 3.19924 0
M  V30 160 H 16.1451 3.77725 2.94721 0
M  V30 161 H 14.5091 1.94709 1.64196 0
M  V30 162 H 15.2921 3.3528 0.737734 0
M  V30 163 N 17.7372 -0.778329 1.37039 0
M  V30 164 C 18.6852 -1.91278 1.32345 0
M  V30 165 C 19.6792 -1.68051 0.213331 0
M  V30 166 O 20.8852 -1.75922 0.38098 0
M  V30 167 H 17.2602 -0.628909 0.412283 0
M  V30 168 H 19.2312 -1.92355 2.28127 0
M  V30 169 C 17.9802 -3.28455 1.14073 0
M  V30 170 H 17.3032 -3.46901 1.98746 0
M  V30 171 H 18.7432 -4.08152 1.14837 0
M  V30 172 C 17.2022 -3.36548 -0.154015 0
M  V30 173 O 17.7322 -3.85186 -1.13993 0
M  V30 174 N 15.9382 -2.89894 -0.202475 0
M  V30 175 H 15.4852 -2.50504 0.600476 0
M  V30 176 H 15.4432 -2.9569 -1.06841 0
M  V30 177 N 19.2153 -1.21501 -1.00376 0
M  V30 178 C 20.4623 -1.03299 -1.74171 0
M  V30 179 C 20.7903 0.433326 -1.89612 0
M  V30 180 O 20.0453 1.33779 -1.42834 0
M  V30 181 C 20.3443 -1.67673 -3.15627 0
M  V30 182 C 20.0103 -3.17533 -3.2013 0
M  V30 183 C 18.6723 -3.58427 -3.21067 0
M  V30 184 C 21.0243 -4.13504 -3.17275 0
M  V30 185 C 18.3523 -4.93794 -3.16835 0
M  V30 186 C 20.7043 -5.48834 -3.14585 0
M  V30 187 C 19.3683 -5.89123 -3.13831 0
M  V30 188 H 18.6383 -0.377999 -0.637336 0
M  V30 189 H 21.2853 -1.51111 -1.17634 0
M  V30 190 H 19.5903 -1.12158 -3.75404 0
M  V30 191 H 21.2873 -1.51091 -3.71446 0
M  V30 192 H 17.8773 -2.84965 -3.20145 0
M  V30 193 H 22.0613 -3.82936 -3.15711 0
M  V30 194 H 17.3173 -5.24255 -3.1459 0
M  V30 195 H 21.4913 -6.22934 -3.1133 0
M  V30 196 H 19.1183 -6.93984 -3.10307 0
M  V30 197 N 20.6934 1.19889 -1.02296 0
M  V30 198 C 21.6034 2.26571 -0.608508 0
M  V30 199 C 22.6194 1.70299 0.356964 0
M  V30 200 O 23.7954 2.00235 0.216326 0
M  V30 201 C 20.8604 3.46677 0.0402814 0
M  V30 202 C 19.9214 4.18153 -0.97194 0
M  V30 203 C 19.1544 5.32525 -0.354016 0
M  V30 204 O 19.3774 5.64112 0.844604 0
M  V30 205 O 18.3114 5.92242 -1.07391 0
M  V30 206 H 22.1374 2.64251 -1.49684 0
M  V30 207 H 19.7224 1.26629 -0.792809 0
M  V30 208 H 21.6044 4.19475 0.402324 0
M  V30 209 H 20.2794 3.10858 0.902707 0
M  V30 210 H 19.1864 3.47499 -1.38546 0
M  V30 211 H 20.5194 4.57927 -1.80454 0
M  V30 212 N 22.1715 0.800033 1.35784 0
M  V30 213 C 23.1345 0.211565 2.28221 0
M  V30 214 C 24.1345 -0.59728 1.49296 0
M  V30 215 O 25.3245 -0.416721 1.69142 0
M  V30 216 C 22.4565 -0.705846 3.33513 0
M  V30 217 H 23.6495 1.02677 2.81776 0
M  V30 218 H 21.2025 0.570211 1.45528 0
M  V30 219 H 21.9375 -1.54498 2.85133 0
M  V30 220 H 21.7225 -0.127655 3.91892 0
M  V30 221 H 23.2125 -1.11211 4.02519 0
M  V30 222 N 23.6496 -1.47581 0.552962 0
M  V30 223 C 24.5976 -2.31648 -0.21023 0
M  V30 224 C 25.5916 -1.42663 -0.913432 0
M  V30 225 O 26.7976 -1.5945 -0.835201 0
M  V30 226 H 23.1726 -0.746989 -0.0866676 0
M  V30 227 H 25.1436 -2.93869 0.518051 0
M  V30 228 C 23.8926 -3.25226 -1.22976 0
M  V30 229 H 23.2156 -3.93658 -0.698077 0
M  V30 230 H 24.6556 -3.86889 -1.73473 0
M  V30 231 C 23.1146 -2.48448 -2.27542 0
M  V30 232 O 23.6446 -2.22585 -3.34393 0
M  V30 233 N 21.8506 -2.09532 -2.01357 0
M  V30 234 H 21.3976 -2.30765 -1.14478 0
M  V30 235 H 21.3556 -1.58476 -2.71538 0
M  V30 236 N 25.1277 -0.289203 -1.54924 0
M  V30 237 C 26.3557 0.326463 -2.04308 0
M  V30 238 C 26.7707 1.48413 -1.16701 0
M  V30 239 O 26.1277 1.81507 -0.190087 0
M  V30 240 C 26.1787 0.794014 -3.52672 0
M  V30 241 O 25.8997 -0.317564 -4.36948 0
M  V30 242 C 27.4007 1.47605 -4.18004 0
M  V30 243 H 24.6207 0.0726272 -0.667058 0
M  V30 244 H 27.1647 -0.425401 -2.00026 0
M  V30 245 H 25.3197 1.49593 -3.57352 0
M  V30 246 H 25.7337 0.0443186 -5.24481 0
M  V30 247 H 27.2077 1.75447 -5.23376 0
M  V30 248 H 27.6847 2.41224 -3.67025 0
M  V30 249 H 28.2907 0.81762 -4.17367 0
M  V30 250 N 26.6058 1.57591 -0.0167156 0
M  V30 251 C 27.8338 1.95575 0.675128 0
M  V30 252 C 28.2488 0.892542 1.6637 0
M  V30 253 O 27.6058 -0.126912 1.82058 0
M  V30 254 C 27.6568 3.33608 1.39239 0
M  V30 255 O 27.3778 4.3585 0.443444 0
M  V30 256 C 28.8788 3.86151 2.17721 0
M  V30 257 H 26.0988 0.644423 0.186978 0
M  V30 258 H 28.6428 2.0437 -0.0728 0
M  V30 259 H 26.7978 3.2607 2.09182 0
M  V30 260 H 27.2118 5.158 0.951358 0
M  V30 261 H 28.6858 4.85114 2.63379 0
M  V30 262 H 29.1628 3.19738 3.01105 0
M  V30 263 H 29.7688 3.96918 1.52761 0
M  V30 264 N 28.0839 -0.256276 1.55502 0
M  V30 265 C 29.3299 -0.987079 1.77157 0
M  V30 266 C 29.6629 -1.85327 0.580315 0
M  V30 267 O 28.9379 -1.89874 -0.421686 0
M  V30 268 C 29.2209 -1.85553 3.08613 0
M  V30 269 C 29.0739 -1.01816 4.38125 0
M  V30 270 C 30.3929 -2.8397 3.36228 0
M  V30 271 H 27.5119 -0.357428 0.644526 0
M  V30 272 H 30.1539 -0.258239 1.88237 0
M  V30 273 H 28.3039 -2.47695 2.99298 0
M  V30 274 H 29.9759 -0.416159 4.59419 0
M  V30 275 H 28.2189 -0.322178 4.32602 0
M  V30 276 H 28.8899 -1.65939 5.26468 0
M  V30 277 H 31.3659 -2.31964 3.45445 0
M  V30 278 H 30.2419 -3.41864 4.29442 0
M  V30 279 H 30.5029 -3.59955 2.56681 0
M  V30 280 N 29.562 -1.4872 -0.521534 0
M  V30 281 C 30.81 -1.56857 -1.27437 0
M  V30 282 C 31.131 -0.247982 -1.93417 0
M  V30 283 O 30.401 0.731151 -1.81744 0
M  V30 284 H 28.981 -0.577885 -0.473347 0
M  V30 285 H 31.643 -1.85233 -0.606205 0
M  V30 286 H 30.739 -2.35402 -2.0492 0
M  V30 287 N 31.0401 0.771051 -1.3745 0
M  V30 288 C 32.4561 1.07171 -1.18265 0
M  V30 289 C 32.6561 2.01491 -0.019287 0
M  V30 290 O 31.7121 2.44244 0.640408 0
M  V30 291 C 33.0251 1.66854 -2.50161 0
M  V30 292 C 34.5731 1.79109 -2.56689 0
M  V30 293 C 35.0481 2.42205 -3.88717 0
M  V30 294 N 36.5391 2.49655 -3.90162 0
M  V30 295 C 37.2741 2.9933 -4.8907 0
M  V30 296 N 36.7701 3.49172 -5.98374 0
M  V30 297 N 38.5631 2.9821 -4.76474 0
M  V30 298 H 30.7141 0.144796 -2.11906 0
M  V30 299 H 32.9771 0.126863 -0.939473 0
M  V30 300 H 32.6831 1.05017 -3.35655 0
M  V30 301 H 32.5571 2.6614 -2.673 0
M  V30 302 H 34.9441 2.40077 -1.71601 0
M  V30 303 H 35.0251 0.785757 -2.43433 0
M  V30 304 H 34.6691 1.81875 -4.74219 0
M  V30 305 H 34.5991 3.43345 -3.99276 0
M  V30 306 H 37.0901 2.14383 -3.11205 0
M  V30 307 H 37.4031 3.8548 -6.69795 0
M  V30 308 H 35.7481 3.47275 -6.02018 0
M  V30 309 H 38.9391 2.58572 -3.90203 0
M  V30 310 H 39.1121 3.36613 -5.53711 0
M  V30 311 N 32.5182 1.22032 0.997298 0
M  V30 312 C 33.7672 1.03637 1.73038 0
M  V30 313 C 34.0802 -0.429475 1.90827 0
M  V30 314 O 35.2862 -0.732995 2.61418 0
M  V30 315 C 33.7422 1.80582 3.11317 0
M  V30 316 C 33.3502 3.31387 3.01474 0
M  V30 317 C 35.0942 1.70621 3.88701 0
M  V30 318 C 33.0012 4.00791 4.3488 0
M  V30 319 H 31.9312 0.384179 0.648785 0
M  V30 320 H 34.5822 1.4584 1.11368 0
M  V30 321 H 32.9642 1.31175 3.73643 0
M  V30 322 H 34.1382 3.88155 2.4834 0
M  V30 323 H 32.4532 3.41976 2.37575 0
M  V30 324 H 35.0502 2.19799 4.87434 0
M  V30 325 H 35.3932 0.665823 4.10941 0
M  V30 326 H 35.9262 2.17547 3.33044 0
M  V30 327 H 32.6652 5.05064 4.1784 0
M  V30 328 H 32.1852 3.48811 4.87945 0
M  V30 329 H 33.8642 4.06139 5.03647 0
M  V30 330 N 33.9963 -1.19345 1.0293 0
M  V30 331 C 35.4123 -1.41069 0.746446 0
M  V30 332 C 35.6123 -1.90078 -0.668776 0
M  V30 333 O 34.6683 -2.0778 -1.4347 0
M  V30 334 C 35.9813 -2.42141 1.78292 0
M  V30 335 C 37.5293 -2.55887 1.80252 0
M  V30 336 C 38.0043 -3.60214 2.8286 0
M  V30 337 N 39.4953 -3.67711 2.81679 0
M  V30 338 C 40.2303 -4.48128 3.57727 0
M  V30 339 N 39.7263 -5.32248 4.43491 0
M  V30 340 N 41.5193 -4.42782 3.46267 0
M  V30 341 H 33.6703 -0.858536 1.94275 0
M  V30 342 H 35.9333 -0.439541 0.839945 0
M  V30 343 H 35.6393 -2.13155 2.79746 0
M  V30 344 H 35.5133 -3.41323 1.60557 0
M  V30 345 H 37.9003 -2.84196 0.794757 0
M  V30 346 H 37.9813 -1.56858 2.02062 0
M  V30 347 H 37.6253 -3.32647 3.83807 0
M  V30 348 H 37.5553 -4.58895 2.58307 0
M  V30 349 H 40.0463 -3.07634 2.19476 0
M  V30 350 H 40.3593 -5.90729 4.98256 0
M  V30 351 H 38.7043 -5.31707 4.47564 0
M  V30 352 H 41.8953 -3.76107 2.78677 0
M  V30 353 H 42.0683 -5.05215 4.05785 0
M  V30 354 N 35.4744 -0.807222 -1.35358 0
M  V30 355 C 36.7214 -0.387888 -1.9875 0
M  V30 356 C 37.0494 1.04509 -1.64037 0
M  V30 357 O 36.3044 1.73986 -0.895946 0
M  V30 358 C 36.6034 -0.519036 -3.53611 0
M  V30 359 C 36.2694 -1.91542 -4.08194 0
M  V30 360 C 34.9314 -2.29745 -4.22813 0
M  V30 361 C 37.2834 -2.82896 -4.37744 0
M  V30 362 C 34.6114 -3.58668 -4.643 0
M  V30 363 C 36.9634 -4.11265 -4.8067 0
M  V30 364 C 35.6274 -4.49466 -4.93494 0
M  V30 365 H 34.8974 -0.141938 -0.727279 0
M  V30 366 H 37.5444 -1.02814 -1.6156 0
M  V30 367 H 35.8494 0.204658 -3.91265 0
M  V30 368 H 37.5464 -0.175345 -4.00616 0
M  V30 369 H 34.1364 -1.60862 -3.97268 0
M  V30 370 H 38.3204 -2.54629 -4.26002 0
M  V30 371 H 33.5764 -3.88113 -4.72418 0
M  V30 372 H 37.7504 -4.82153 -5.02496 0
M  V30 373 H 35.3774 -5.49418 -5.25399 0
M  V30 374 N 36.9525 1.47285 -0.560781 0
M  V30 375 C 37.9025 2.27073 0.205384 0
M  V30 376 C 38.8865 1.34569 0.882044 0
M  V30 377 O 40.0785 1.58899 0.77976 0
M  V30 378 C 37.2075 3.20414 1.23247 0
M  V30 379 C 36.2935 4.20399 0.559041 0
M  V30 380 N 36.6845 5.04423 -0.372927 0
M  V30 381 C 34.9825 4.38536 0.812522 0
M  V30 382 C 35.6835 5.76655 -0.764446 0
M  V30 383 N 34.6595 5.43471 -0.11848 0
M  V30 384 H 38.4615 2.89422 -0.511117 0
M  V30 385 H 35.9755 1.57868 -0.380975 0
M  V30 386 H 37.9725 3.76262 1.79534 0
M  V30 387 H 36.6325 2.59623 1.95002 0
M  V30 388 H 37.6435 5.1248 -0.747287 0
M  V30 389 H 34.3205 3.88913 1.51832 0
M  V30 390 H 35.7105 6.54238 -1.53045 0
M  V30 391 N 38.4306 0.297415 1.54768 0
M  V30 392 C 39.7076 -0.365847 1.92148 0
M  V30 393 C 40.0876 -1.71975 1.22424 0
M  V30 394 O 39.4356 -2.25666 0.358739 0
M  V30 395 C 39.6456 -0.484056 3.45627 0
M  V30 396 C 40.9936 -0.756594 4.17805 0
M  V30 397 O 42.0176 -0.568007 3.51642 0
M  V30 398 O 40.8766 -1.11863 5.34929 0
M  V30 399 H 37.9706 -0.203919 0.801465 0
M  V30 400 H 40.5166 0.34521 1.66152 0
M  V30 401 H 39.2886 0.467865 3.88493 0
M  V30 402 H 38.9116 -1.24372 3.77647 0
M  V30 403 N 39.9087 -1.5758 0.0250728 0
M  V30 404 C 41.1557 -1.91633 -0.654444 0
M  V30 405 C 41.4837 -0.901103 -1.72367 0
M  V30 406 O 40.7387 0.0905647 -1.9549 0
M  V30 407 C 41.0377 -3.32421 -1.31268 0
M  V30 408 C 40.7037 -4.49344 -0.374223 0
M  V30 409 C 39.3657 -4.8106 -0.115911 0
M  V30 410 C 41.7177 -5.20498 0.270432 0
M  V30 411 C 39.0457 -5.8129 0.79493 0
M  V30 412 C 41.3977 -6.21699 1.1693 0
M  V30 413 C 40.0617 -6.51859 1.43655 0
M  V30 414 H 39.3317 -0.701236 -0.239478 0
M  V30 415 H 41.9787 -1.91307 0.0859734 0
M  V30 416 H 40.2837 -3.28989 -2.12775 0
M  V30 417 H 41.9807 -3.56038 -1.84494 0
M  V30 418 H 38.5707 -4.24579 -0.58573 0
M  V30 419 H 42.7547 -4.96229 0.0839194 0
M  V30 420 H 38.0107 -6.03005 1.00973 0
M  V30 421 H 42.1847 -6.75955 1.67504 0
M  V30 422 H 39.8117 -7.2934 2.144 0
M  V30 423 N 41.3868 0.248026 -1.55636 0
M  V30 424 C 42.3168 1.31079 -1.93237 0
M  V30 425 C 43.2978 1.50264 -0.797174 0
M  V30 426 O 44.4828 1.62891 -1.05737 0
M  V30 427 C 41.6128 2.66575 -2.22609 0
M  V30 428 C 40.5668 2.62087 -3.3837 0
M  V30 429 C 39.8928 4.01369 -3.53281 0
M  V30 430 C 41.1928 2.19171 -4.7409 0
M  V30 431 H 42.8868 0.998556 -2.82257 0
M  V30 432 H 40.4328 0.47891 -1.35803 0
M  V30 433 H 42.3858 3.41057 -2.47503 0
M  V30 434 H 41.1098 2.99432 -1.30414 0
M  V30 435 H 39.7688 1.90063 -3.13483 0
M  V30 436 H 39.4168 4.31489 -2.58508 0
M  V30 437 H 39.1168 3.99254 -4.31127 0
M  V30 438 H 40.6408 4.77552 -3.80495 0
M  V30 439 H 42.0548 2.83384 -4.98363 0
M  V30 440 H 40.4518 2.2817 -5.5503 0
M  V30 441 H 41.5218 1.14336 -4.71227 0
M  V30 442 N 42.8649 1.48995 0.513639 0
M  V30 443 C 44.1129 1.57531 1.26604 0
M  V30 444 C 44.4339 0.258236 1.93283 0
M  V30 445 O 43.7039 -0.721502 1.8213 0
M  V30 446 H 42.2839 0.580387 0.470276 0
M  V30 447 H 44.9459 1.85552 0.596373 0
M  V30 448 H 44.0419 2.36486 2.03669 0
M  V30 449 N 44.343 -0.763751 1.37857 0
M  V30 450 C 45.62 -1.51244 1.24035 0
M  V30 451 C 46 -2.10472 -0.162649 0
M  V30 452 O 45.348 -1.96206 -1.17112 0
M  V30 453 C 45.558 -2.58694 2.34261 0
M  V30 454 C 46.906 -3.25878 2.72193 0
M  V30 455 O 47.93 -2.68993 2.33497 0
M  V30 456 O 46.789 -4.2874 3.38887 0
M  V30 457 H 43.883 -0.670243 0.484462 0
M  V30 458 H 46.429 -0.800031 1.49658 0
M  V30 459 H 45.201 -2.13105 3.2818 0
M  V30 460 H 44.824 -3.37527 2.10146 0
M  V30 461 N 45.8211 -1.22559 -0.990812 0
M  V30 462 C 47.0461 -1.07862 -1.77145 0
M  V30 463 C 47.4711 0.366447 -1.84496 0
M  V30 464 O 46.8291 1.26478 -1.29896 0
M  V30 465 C 46.8771 -1.69686 -3.18181 0
M  V30 466 O 45.9811 -0.951946 -4.01263 0
M  V30 467 H 45.3221 -0.378712 -0.545411 0
M  V30 468 H 47.8521 -1.62399 -1.2445 0
M  V30 469 H 47.8621 -1.74496 -3.68802 0
M  V30 470 H 46.5371 -2.74841 -3.12146 0
M  V30 471 H 45.1141 -0.980011 -3.59792 0
M  V30 472 N 47.2992 1.18797 -1.03562 0
M  V30 473 C 48.5452 1.89192 -0.746867 0
M  V30 474 C 48.9002 1.78531 0.717245 0
M  V30 475 O 48.1932 1.17137 1.51622 0
M  V30 476 C 48.3872 3.38692 -1.14117 0
M  V30 477 C 48.2162 3.63902 -2.64207 0
M  V30 478 C 46.9862 3.81553 -3.31279 0
M  V30 479 C 49.1842 3.64903 -3.62423 0
M  V30 480 N 47.1662 3.94455 -4.70402 0
M  V30 481 C 48.5372 3.83458 -4.87196 0
M  V30 482 C 50.5922 3.47965 -3.56125 0
M  V30 483 C 49.2952 3.86829 -6.06429 0
M  V30 484 C 51.3212 3.52616 -4.7478 0
M  V30 485 C 50.6832 3.71663 -5.9837 0
M  V30 486 H 46.7822 0.711141 -0.325273 0
M  V30 487 H 49.3662 1.42727 -1.32428 0
M  V30 488 H 47.5372 3.83864 -0.591889 0
M  V30 489 H 49.2692 3.96634 -0.803966 0
M  V30 490 H 46.0242 3.80723 -2.81686 0
M  V30 491 H 46.4482 4.0474 -5.42692 0
M  V30 492 H 51.0902 3.32189 -2.61553 0
M  V30 493 H 48.8082 4.01395 -7.01362 0
M  V30 494 H 52.3942 3.40791 -4.71543 0
M  V30 495 H 51.2742 3.75145 -6.88648 0
M  V30 496 N 48.7773 0.814389 1.34928 0
M  V30 497 C 50.0253 0.397636 1.9815 0
M  V30 498 C 50.3463 -1.04069 1.64908 0
M  V30 499 O 49.6163 -1.72121 0.93548 0
M  V30 500 H 48.1963 0.144043 0.732981 0
M  V30 501 H 50.8583 1.04195 1.6471 0
M  V30 502 H 49.9543 0.509688 3.0791 0
M  V30 503 N 50.2554 -1.46986 0.568584 0
M  V30 504 C 51.5044 -2.01646 0.0465894 0
M  V30 505 C 51.8174 -1.44721 -1.31587 0
M  V30 506 O 53.0234 -1.91113 -1.92842 0
M  V30 507 C 51.4794 -3.59885 0.032752 0
M  V30 508 C 51.0874 -4.25804 1.39266 0
M  V30 509 C 52.8314 -4.22255 -0.436038 0
M  V30 510 C 50.7384 -5.76081 1.33732 0
M  V30 511 H 49.6684 -0.753876 0.013647 0
M  V30 512 H 52.3194 -1.68864 0.718131 0
M  V30 513 H 50.7014 -3.8968 -0.704669 0
M  V30 514 H 51.8754 -4.07637 2.1487 0
M  V30 515 H 50.1904 -3.7547 1.80032 0
M  V30 516 H 52.7874 -5.32394 -0.49602 0
M  V30 517 H 53.1304 -3.90212 -1.45053 0
M  V30 518 H 53.6634 -3.97033 0.246877 0
M  V30 519 H 50.4024 -6.12761 2.32817 0
M  V30 520 H 49.9224 -5.96553 0.623267 0
M  V30 521 H 51.6014 -6.38518 1.0442 0
M  V30 522 N 51.7335 -0.305618 -1.54608 0
M  V30 523 C 52.6635 0.561482 -2.26649 0
M  V30 524 C 53.6445 1.13415 -1.26772 0
M  V30 525 O 54.8295 1.16262 -1.55553 0
M  V30 526 C 51.9595 1.73122 -3.01075 0
M  V30 527 C 50.9135 1.2887 -4.08138 0
M  V30 528 C 50.2395 2.54396 -4.70305 0
M  V30 529 C 51.5395 0.416578 -5.20636 0
M  V30 530 H 53.2335 -0.0393902 -2.99374 0
M  V30 531 H 50.7795 -0.020385 -1.43986 0
M  V30 532 H 52.7325 2.34396 -3.50195 0
M  V30 533 H 51.4565 2.3584 -2.25936 0
M  V30 534 H 50.1155 0.698991 -3.59875 0
M  V30 535 H 49.7635 3.15439 -3.918 0
M  V30 536 H 49.4635 2.25486 -5.42614 0
M  V30 537 H 50.9875 3.16464 -5.2219 0
M  V30 538 H 52.4015 0.935116 -5.65622 0
M  V30 539 H 50.7985 0.221046 -5.99693 0
M  V30 540 H 51.8685 -0.557162 -4.81688 0
M  V30 541 N 53.2116 1.57565 -0.0334293 0
M  V30 542 C 54.4586 1.91978 0.644272 0
M  V30 543 C 54.7866 0.910231 1.71887 0
M  V30 544 O 54.0416 -0.0801961 1.95536 0
M  V30 545 C 54.3406 3.33112 1.29504 0
M  V30 546 C 54.0066 4.49537 0.350388 0
M  V30 547 C 52.6686 4.81115 0.0903974 0
M  V30 548 C 55.0206 5.20347 -0.298032 0
M  V30 549 C 52.3486 5.8086 -0.825746 0
M  V30 550 C 54.7006 6.2107 -1.20226 0
M  V30 551 C 53.3646 6.51088 -1.4711 0
M  V30 552 H 52.6346 0.702496 0.235756 0
M  V30 553 H 55.2816 1.91259 -0.0961176 0
M  V30 554 H 53.5866 3.30113 2.11028 0
M  V30 555 H 55.2836 3.57011 1.82603 0
M  V30 556 H 51.8736 4.24883 0.563205 0
M  V30 557 H 56.0576 4.96178 -0.110234 0
M  V30 558 H 51.3136 6.02461 -1.04169 0
M  V30 559 H 55.4876 6.75057 -1.71086 0
M  V30 560 H 53.1146 7.28193 -2.18264 0
M  V30 561 N 54.6897 -0.239769 1.55765 0
M  V30 562 C 55.9147 -0.988373 1.82335 0
M  V30 563 C 56.3397 -1.77886 0.611421 0
M  V30 564 O 55.6977 -1.75889 -0.439639 0
M  V30 565 C 55.7457 -1.89627 3.06715 0
M  V30 566 O 54.8497 -2.98904 2.84131 0
M  V30 567 H 54.1907 -0.280858 0.601677 0
M  V30 568 H 56.7207 -0.258597 2.02959 0
M  V30 569 H 56.7307 -2.30957 3.36338 0
M  V30 570 H 55.4057 -1.31511 3.9456 0
M  V30 571 H 53.9827 -2.61651 2.65694 0
M  V30 572 N 56.1678 -1.49265 -0.50573 0
M  V30 573 C 57.1178 -1.6198 -1.60457 0
M  V30 574 C 58.1018 -0.47568 -1.53708 0
M  V30 575 O 59.2938 -0.728392 -1.61318 0
M  V30 576 C 56.4228 -1.68526 -2.99089 0
M  V30 577 C 55.5088 -2.885 -3.10852 0
M  V30 578 N 55.8998 -4.12635 -2.92517 0
M  V30 579 C 54.1978 -2.86338 -3.41945 0
M  V30 580 C 54.8988 -4.93258 -3.08337 0
M  V30 581 N 53.8748 -4.26533 -3.37003 0
M  V30 582 H 57.6768 -2.55681 -1.44928 0
M  V30 583 H 55.1908 -1.45972 -0.711752 0
M  V30 584 H 57.1878 -1.75732 -3.78053 0
M  V30 585 H 55.8478 -0.759584 -3.1569 0
M  V30 586 H 56.8588 -4.42689 -2.68787 0
M  V30 587 H 53.5358 -2.03129 -3.64753 0
M  V30 588 H 54.9258 -6.01856 -2.98695 0
M  V30 589 N 57.6459 0.756429 -1.3826 0
M  V30 590 C 59.0569 1.33359 -1.30661 0
M  V30 591 C 59.4079 1.96161 0.0388875 0
M  V30 592 O 58.5329 1.94874 0.940918 0
M  V30 593 C 59.1279 2.42477 -2.36622 0
M  V30 594 C 57.6869 2.95922 -2.3261 0
M  V30 595 C 56.8339 1.69275 -2.19639 0
M  V30 596 H 59.7849 0.55552 -1.4866 0
M  V30 597 H 59.8059 3.22345 -2.02174 0
M  V30 598 H 59.3179 1.96739 -3.34538 0
M  V30 599 H 57.4189 3.45996 -1.38267 0
M  V30 600 H 57.5319 3.50494 -3.26636 0
M  V30 601 H 55.8959 1.92793 -1.66442 0
M  V30 602 H 56.6789 1.25619 -3.19491 0
M  V30 603 N 59.124 1.23083 0.984299 0
M  V30 604 C 60.54 0.992637 1.24975 0
M  V30 605 C 60.74 -0.308618 1.99123 0
M  V30 606 O 59.796 -1.02905 2.30579 0
M  V30 607 C 61.109 2.19698 2.05312 0
M  V30 608 C 62.657 2.24147 2.18465 0
M  V30 609 C 63.132 3.44157 3.02192 0
M  V30 610 N 64.623 3.44372 3.09777 0
M  V30 611 C 65.358 4.33886 3.74874 0
M  V30 612 N 64.854 5.3363 4.41827 0
M  V30 613 N 66.647 4.21639 3.71721 0
M  V30 614 H 58.798 2.06731 0.487453 0
M  V30 615 H 61.061 0.906339 0.277944 0
M  V30 616 H 60.767 3.1411 1.58201 0
M  V30 617 H 60.641 2.20465 3.06064 0
M  V30 618 H 63.028 1.30277 2.64786 0
M  V30 619 H 63.109 2.27415 1.17115 0
M  V30 620 H 62.753 4.38332 2.56568 0
M  V30 621 H 62.683 3.3813 4.03702 0
M  V30 622 H 65.174 2.72201 2.62135 0
M  V30 623 H 65.487 5.98196 4.89266 0
M  V30 624 H 63.832 5.37534 4.40548 0
M  V30 625 H 67.023 3.42962 3.18582 0
M  V30 626 H 67.196 4.91604 4.22173 0
M  V30 627 N 60.6021 -1.18246 1.0419 0
M  V30 628 C 61.8791 -1.84121 0.660208 0
M  V30 629 C 62.2591 -1.92778 -0.860221 0
M  V30 630 O 61.6071 -1.45464 -1.76217 0
M  V30 631 C 61.8171 -3.22355 1.33747 0
M  V30 632 C 63.1651 -3.98376 1.46906 0
M  V30 633 O 64.1891 -3.31799 1.29568 0
M  V30 634 O 63.0481 -5.17665 1.75171 0
M  V30 635 H 60.1421 -0.794036 0.231161 0
M  V30 636 H 62.6881 -1.25628 1.14087 0
M  V30 637 H 61.4601 -3.10964 2.37522 0
M  V30 638 H 61.0831 -3.88506 0.845515 0
M  V30 639 N 62.0802 -0.821533 -1.34494 0
M  V30 640 C 63.3272 -0.408946 -1.98328 0
M  V30 641 C 63.6552 1.02764 -1.65136 0
M  V30 642 O 62.9102 1.73026 -0.914349 0
M  V30 643 C 63.2092 -0.556512 -3.53041 0
M  V30 644 C 62.8752 -1.95861 -4.0614 0
M  V30 645 C 61.5372 -2.34217 -4.20352 0
M  V30 646 C 63.8892 -2.87523 -4.34718 0
M  V30 647 C 61.2172 -3.63572 -4.6047 0
M  V30 648 C 63.5692 -4.1634 -4.76281 0
M  V30 649 C 62.2332 -4.54675 -4.88699 0
M  V30 650 H 61.5032 -0.149644 -0.725732 0
M  V30 651 H 64.1502 -1.04521 -1.6046 0
M  V30 652 H 62.4552 0.163148 -3.9146 0
M  V30 653 H 64.1522 -0.217826 -4.00408 0
M  V30 654 H 60.7422 -1.65066 -3.95539 0
M  V30 655 H 64.9262 -2.59133 -4.23277 0
M  V30 656 H 60.1822 -3.93101 -4.68275 0
M  V30 657 H 64.3562 -4.87455 -4.97354 0
M  V30 658 H 61.9832 -5.54959 -5.19542 0
M  V30 659 N 63.5583 1.46682 -0.576371 0
M  V30 660 C 64.7863 2.06798 -0.0649635 0
M  V30 661 C 65.2013 1.42612 1.23723 0
M  V30 662 O 64.5583 0.529203 1.74659 0
M  V30 663 C 64.6093 3.6132 0.114202 0
M  V30 664 O 64.3303 4.23104 -1.13644 0
M  V30 665 C 65.8313 4.38349 0.66069 0
M  V30 666 H 63.0513 0.668778 -0.0545616 0
M  V30 667 H 65.5953 1.88404 -0.795237 0
M  V30 668 H 63.7503 3.79162 0.794673 0
M  V30 669 H 64.1643 5.15894 -0.946253 0
M  V30 670 H 65.6383 5.47081 0.73526 0
M  V30 671 H 66.1153 4.05953 1.67627 0
M  V30 672 H 66.7213 4.25297 0.0152951 0
M  V30 673 N 65.0364 0.313813 1.54444 0
M  V30 674 C 66.4474 -0.176243 1.85866 0
M  V30 675 C 66.7984 -1.52405 1.23561 0
M  V30 676 O 65.9234 -2.09605 0.538016 0
M  V30 677 C 66.5184 -0.32657 3.37222 0
M  V30 678 C 65.0774 -0.760846 3.6863 0
M  V30 679 C 64.2244 0.123247 2.77026 0
M  V30 680 H 67.1754 0.534418 1.49431 0
M  V30 681 H 67.1964 -1.15908 3.62416 0
M  V30 682 H 66.7084 0.654531 3.82541 0
M  V30 683 H 64.8094 -1.75204 3.28838 0
M  V30 684 H 64.9224 -0.571353 4.75681 0
M  V30 685 H 63.2864 -0.399597 2.51546 0
M  V30 686 H 64.0694 1.10094 3.25168 0
M  V30 687 N 66.5145 -1.57545 0.0417849 0
M  V30 688 C 67.7605 -1.92601 -0.635021 0
M  V30 689 C 68.0935 -0.919627 -1.71045 0
M  V30 690 O 67.3685 0.0557892 -1.9442 0
M  V30 691 C 67.6515 -3.38085 -1.23979 0
M  V30 692 C 67.5045 -4.49467 -0.173057 0
M  V30 693 C 68.8235 -3.83776 -2.15416 0
M  V30 694 H 65.9425 -0.700397 -0.229374 0
M  V30 695 H 68.5845 -1.89728 0.101633 0
M  V30 696 H 66.7345 -3.40664 -1.86762 0
M  V30 697 H 68.4065 -4.59018 0.458312 0
M  V30 698 H 66.6495 -4.30909 0.499996 0
M  V30 699 H 67.3205 -5.48323 -0.636054 0
M  V30 700 H 69.7965 -3.83013 -1.62605 0
M  V30 701 H 68.6725 -4.8624 -2.54679 0
M  V30 702 H 68.9335 -3.19998 -3.05047 0
M  V30 703 N 67.9926 0.231505 -1.5589 0
M  V30 704 C 69.2326 0.964533 -1.80211 0
M  V30 705 C 69.5966 1.81926 -0.613744 0
M  V30 706 O 70.7976 2.58526 -0.736045 0
M  V30 707 C 69.0686 1.78956 -3.09369 0
M  V30 708 S 70.6276 2.57959 -3.54969 0
M  V30 709 H 67.4456 0.324173 -0.632798 0
M  V30 710 H 70.0476 0.230985 -1.94131 0
M  V30 711 H 68.7516 1.15161 -3.93911 0
M  V30 712 H 68.2826 2.56559 -2.9823 0
M  V30 713 H 70.2976 3.81309 -3.17519 0
M  V30 714 N 69.4707 1.49531 0.497807 0
M  V30 715 C 70.6987 1.62893 1.27567 0
M  V30 716 C 71.1137 0.301585 1.86376 0
M  V30 717 O 70.4707 -0.713335 1.67982 0
M  V30 718 C 70.5217 2.70013 2.40364 0
M  V30 719 O 70.2427 3.976 1.83972 0
M  V30 720 C 71.7437 2.94109 3.31685 0
M  V30 721 H 68.9637 0.548298 0.386794 0
M  V30 722 H 71.5077 1.95584 0.597245 0
M  V30 723 H 69.6627 2.40092 3.04031 0
M  V30 724 H 70.0767 4.56631 2.58047 0
M  V30 725 H 71.5507 3.72788 4.07104 0
M  V30 726 H 72.0277 2.04147 3.88871 0
M  V30 727 H 72.6337 3.2546 2.73781 0
M  V30 728 N 70.9488 -0.749086 1.3866 0
M  V30 729 C 72.1768 -1.53834 1.38358 0
M  V30 730 C 72.5918 -1.88783 -0.0255219 0
M  V30 731 O 71.9488 -1.53101 -0.993292 0
M  V30 732 C 71.9998 -2.83468 2.2434 0
M  V30 733 O 71.7208 -2.50008 3.5976 0
M  V30 734 C 73.2218 -3.7758 2.32267 0
M  V30 735 H 70.4418 -0.47585 0.473083 0
M  V30 736 H 72.9858 -0.926726 1.82297 0
M  V30 737 H 71.1408 -3.40995 1.83851 0
M  V30 738 H 71.5548 -3.33182 4.05081 0
M  V30 739 H 73.0288 -4.65478 2.96706 0
M  V30 740 H 73.5058 -4.18334 1.33765 0
M  V30 741 H 74.1118 -3.25976 2.73166 0
M  V30 742 N 72.4269 -1.23603 -0.977757 0
M  V30 743 C 73.3369 -1.03632 -2.1047 0
M  V30 744 C 74.3529 0.0199435 -1.73989 0
M  V30 745 O 75.5289 -0.176076 -2.00629 0
M  V30 746 C 72.5939 -0.63276 -3.40877 0
M  V30 747 C 71.6549 -1.76437 -3.91367 0
M  V30 748 C 70.8879 -1.37997 -5.15551 0
M  V30 749 O 71.1109 -0.265357 -5.69782 0
M  V30 750 O 70.0449 -2.20201 -5.60174 0
M  V30 751 H 73.8709 -1.98086 -2.30208 0
M  V30 752 H 71.4559 -1.02332 -1.08851 0
M  V30 753 H 73.3379 -0.418761 -4.19314 0
M  V30 754 H 72.0129 0.282754 -3.22463 0
M  V30 755 H 70.9199 -2.03304 -3.14036 0
M  V30 756 H 72.2529 -2.6583 -4.14241 0
M  V30 757 N 73.905 1.17692 -1.04816 0
M  V30 758 C 74.835 2.23777 -0.666791 0
M  V30 759 C 75.816 1.66796 0.33361 0
M  V30 760 O 77.001 1.93039 0.212042 0
M  V30 761 C 74.131 3.47281 -0.0367933 0
M  V30 762 C 73.085 4.17059 -0.961546 0
M  V30 763 C 72.411 5.34342 -0.195626 0
M  V30 764 C 73.711 4.69713 -2.28402 0
M  V30 765 H 75.405 2.55933 -1.55367 0
M  V30 766 H 72.951 1.23019 -0.748484 0
M  V30 767 H 74.904 4.20706 0.241775 0
M  V30 768 H 73.628 3.14381 0.885004 0
M  V30 769 H 72.287 3.45541 -1.22462 0
M  V30 770 H 71.935 4.97692 0.728816 0
M  V30 771 H 71.635 5.81966 -0.811775 0
M  V30 772 H 73.159 6.10553 0.0757473 0
M  V30 773 H 74.573 5.34794 -2.06563 0
M  V30 774 H 72.97 5.279 -2.8538 0
M  V30 775 H 74.04 3.86726 -2.92525 0
M  V30 776 N 75.3831 0.828654 1.34056 0
M  V30 777 C 76.6311 0.41863 1.97717 0
M  V30 778 C 76.9521 -1.02314 1.66002 0
M  V30 779 O 76.2221 -1.71119 0.953683 0
M  V30 780 H 74.8021 0.151809 0.731412 0
M  V30 781 H 77.4641 1.05936 1.63596 0
M  V30 782 H 76.5601 0.542318 3.07352 0
M  V30 783 N 76.8612 -1.46375 0.584142 0
M  V30 784 C 78.2772 -1.57694 0.245929 0
M  V30 785 C 78.4772 -1.57903 -1.25175 0
M  V30 786 O 77.5332 -1.49676 -2.03355 0
M  V30 787 C 78.8462 -2.87028 0.896402 0
M  V30 788 C 80.3942 -3.00662 0.870127 0
M  V30 789 C 80.8692 -4.32734 1.50017 0
M  V30 790 N 82.3602 -4.39436 1.46458 0
M  V30 791 C 83.0952 -5.40248 1.92144 0
M  V30 792 N 82.5912 -6.47726 2.4581 0
M  V30 793 N 84.3842 -5.31459 1.83052 0
M  V30 794 H 76.5352 -1.44483 1.55687 0
M  V30 795 H 78.7982 -0.689291 0.650831 0
M  V30 796 H 78.5042 -2.9269 1.95002 0
M  V30 797 H 78.3782 -3.75014 0.405486 0
M  V30 798 H 80.7652 -2.94581 -0.174871 0
M  V30 799 H 80.8462 -2.14148 1.39908 0
M  V30 800 H 80.4902 -4.39573 2.54437 0
M  V30 801 H 80.4202 -5.18025 0.946432 0
M  V30 802 H 82.9112 -3.62367 1.07231 0
M  V30 803 H 83.2242 -7.20863 2.78525 0
M  V30 804 H 81.5692 -6.48542 2.49836 0
M  V30 805 H 84.7602 -4.46396 1.40883 0
M  V30 806 H 84.9332 -6.09881 2.18973 0
M  V30 807 N 78.3393 -0.321999 -1.54275 0
M  V30 808 C 79.3023 0.531975 -2.22941 0
M  V30 809 C 80.3023 1.04478 -1.22234 0
M  V30 810 O 81.4923 0.937452 -1.46825 0
M  V30 811 C 78.6243 1.73874 -2.93224 0
M  V30 812 H 79.8173 -0.0682612 -2.99822 0
M  V30 813 H 77.3703 -0.0730644 -1.56129 0
M  V30 814 H 78.1053 2.37825 -2.20476 0
M  V30 815 H 77.8903 1.37847 -3.6707 0
M  V30 816 H 79.3803 2.34496 -3.45545 0
M  V30 817 N 79.8174 1.5752 -0.0501392 0
M  V30 818 C 80.7804 2.1037 0.909786 0
M  V30 819 C 81.7804 1.02308 1.24056 0
M  V30 820 O 82.9704 1.28385 1.17741 0
M  V30 821 C 80.1024 2.58708 2.21998 0
M  V30 822 H 81.2954 2.96479 0.451665 0
M  V30 823 H 78.8484 1.55038 0.198248 0
M  V30 824 H 79.5834 1.75989 2.72394 0
M  V30 825 H 79.3684 3.37675 1.99295 0
M  V30 826 H 80.8584 2.99747 2.9076 0
M  V30 827 N 81.2955 -0.223234 1.56011 0
M  V30 828 C 82.2425 -1.27664 1.92277 0
M  V30 829 C 83.2125 -1.46659 0.779763 0
M  V30 830 O 84.3975 -1.60256 1.03551 0
M  V30 831 C 81.5375 -2.62234 2.24338 0
M  V30 832 C 80.6505 -2.51051 3.51564 0
M  V30 833 C 79.7855 -3.78133 3.7308 0
M  V30 834 C 78.8245 -3.61665 4.93827 0
M  V30 835 N 77.9615 -4.80693 5.11741 0
M  V30 836 H 82.8015 -0.960358 2.82101 0
M  V30 837 H 80.3385 -0.462901 1.39627 0
M  V30 838 H 82.2965 -3.40596 2.40936 0
M  V30 839 H 80.9265 -2.91961 1.3769 0
M  V30 840 H 79.9785 -1.64132 3.43169 0
M  V30 841 H 81.2905 -2.34803 4.40079 0
M  V30 842 H 80.4445 -4.64938 3.89766 0
M  V30 843 H 79.1835 -3.97304 2.82844 0
M  V30 844 H 78.1885 -2.73244 4.77093 0
M  V30 845 H 79.4135 -3.43966 5.85546 0
M  V30 846 H 77.3595 -5.00181 4.24446 0
M  V30 847 H 77.2765 -4.67165 5.94384 0
M  V30 848 H 78.5445 -5.6893 5.3286 0
M  V30 849 N 82.7736 -1.49793 -0.48987 0
M  V30 850 C 83.7036 -1.70201 -1.59856 0
M  V30 851 C 84.6846 -0.55076 -1.60937 0
M  V30 852 O 85.8696 -0.787841 -1.77501 0
M  V30 853 C 82.9996 -1.77882 -2.98287 0
M  V30 854 C 81.9536 -2.92907 -3.12073 0
M  V30 855 C 81.2796 -2.85712 -4.51965 0
M  V30 856 C 82.5796 -4.3369 -2.91051 0
M  V30 857 H 84.2736 -2.63025 -1.43032 0
M  V30 858 H 81.8196 -1.26574 -0.686664 0
M  V30 859 H 83.7726 -1.90744 -3.75759 0
M  V30 860 H 82.4966 -0.816653 -3.16225 0
M  V30 861 H 81.1556 -2.79665 -2.37029 0
M  V30 862 H 80.8036 -1.8738 -4.66795 0
M  V30 863 H 80.5036 -3.62921 -4.62128 0
M  V30 864 H 82.0276 -3.00598 -5.31482 0
M  V30 865 H 83.4416 -4.47555 -3.58284 0
M  V30 866 H 81.8386 -5.12205 -3.12675 0
M  V30 867 H 82.9086 -4.47362 -1.87071 0
M  V30 868 N 84.2517 0.741722 -1.39055 0
M  V30 869 C 85.2147 1.83733 -1.37021 0
M  V30 870 C 86.2147 1.58542 -0.268534 0
M  V30 871 O 87.4047 1.66067 -0.526076 0
M  V30 872 C 84.5367 3.2141 -1.13617 0
M  V30 873 H 85.7297 1.86941 -2.34506 0
M  V30 874 H 83.2827 0.944676 -1.24521 0
M  V30 875 H 84.0177 3.23865 -0.167863 0
M  V30 876 H 83.8027 3.4109 -1.93391 0
M  V30 877 H 85.2927 4.01477 -1.14918 0
M  V30 878 N 85.7298 1.2412 0.971189 0
M  V30 879 C 87.1408 1.07236 1.52831 0
M  V30 880 C 87.4918 -0.357352 1.92918 0
M  V30 881 O 86.6168 -1.24528 1.76979 0
M  V30 882 C 87.2118 1.94043 2.77728 0
M  V30 883 C 85.7708 1.81394 3.29808 0
M  V30 884 C 84.9178 1.89189 2.02738 0
M  V30 885 H 87.8688 1.37648 0.789864 0
M  V30 886 H 87.8898 1.47066 3.5093 0
M  V30 887 H 87.4018 2.98093 2.4852 0
M  V30 888 H 85.5028 0.801634 3.63874 0
M  V30 889 H 85.6158 2.65294 3.98944 0
M  V30 890 H 83.9798 1.32877 2.17292 0
M  V30 891 H 84.7628 2.94812 1.759 0
M  V30 892 N 87.2079 -1.17134 1.05439 0
M  V30 893 C 88.1179 -2.24878 0.668365 0
M  V30 894 C 89.1339 -1.71186 -0.311687 0
M  V30 895 O 90.3099 -2.00738 -0.163161 0
M  V30 896 C 87.3749 -3.46662 0.051648 0
M  V30 897 C 86.4359 -4.15429 1.08246 0
M  V30 898 C 85.6689 -5.31399 0.495082 0
M  V30 899 O 85.8919 -5.66153 -0.694743 0
M  V30 900 O 84.8259 -5.89187 1.23056 0
M  V30 901 H 88.6519 -2.60189 1.56637 0
M  V30 902 H 86.2369 -1.24482 0.826104 0
M  V30 903 H 88.1189 -4.20394 -0.290966 0
M  V30 904 H 86.7939 -3.13142 -0.819971 0
M  V30 905 H 85.7009 -3.43704 1.47711 0
M  V30 906 H 87.0339 -4.52982 1.92532 0
M  V30 907 N 88.686 -0.835752 -1.33615 0
M  V30 908 C 89.933 -0.429959 -1.97883 0
M  V30 909 C 90.261 1.01006 -1.66217 0
M  V30 910 O 89.516 1.72047 -0.93265 0
M  V30 911 C 89.815 -0.593925 -3.52431 0
M  V30 912 C 89.481 -2.00158 -4.04039 0
M  V30 913 C 88.143 -2.38662 -4.17844 0
M  V30 914 C 90.495 -2.92117 -4.31644 0
M  V30 915 C 87.823 -3.68435 -4.56588 0
M  V30 916 C 90.175 -4.21368 -4.71838 0
M  V30 917 C 88.839 -4.59833 -4.83849 0
M  V30 918 H 88.109 -0.157333 -0.724104 0
M  V30 919 H 90.756 -1.06217 -1.59343 0
M  V30 920 H 89.061 0.121619 -3.91611 0
M  V30 921 H 90.758 -0.260282 -4.00154 0
M  V30 922 H 87.348 -1.69252 -3.93766 0
M  V30 923 H 91.532 -2.63608 -4.20505 0
M  V30 924 H 86.788 -3.98046 -4.64079 0
M  V30 925 H 90.962 -4.92703 -4.92155 0
M  V30 926 H 88.589 -5.60438 -5.13627 0
M  V30 927 N 90.1641 1.46063 -0.591896 0
M  V30 928 C 91.1271 2.28854 0.125973 0
M  V30 929 C 92.1271 1.38903 0.810107 0
M  V30 930 O 93.3171 1.61186 0.66066 0
M  V30 931 C 90.4491 3.19526 1.1881 0
M  V30 932 H 91.6421 2.93802 -0.601717 0
M  V30 933 H 89.1951 1.52325 -0.350254 0
M  V30 934 H 89.9301 2.59345 1.94707 0
M  V30 935 H 89.7151 3.85766 0.701936 0
M  V30 936 H 91.2051 3.81817 1.69132 0
M  V30 937 N 91.6422 0.330177 1.54103 0
M  V30 938 C 92.5892 -0.532762 2.24567 0
M  V30 939 C 93.5592 -1.10635 1.23892 0
M  V30 940 O 94.7442 -1.14546 1.5259 0
M  V30 941 C 91.8842 -1.6845 3.01195 0
M  V30 942 C 90.9972 -1.13951 4.167 0
M  V30 943 C 90.1322 -2.25746 4.80845 0
M  V30 944 C 89.1712 -1.6853 5.88442 0
M  V30 945 N 88.3082 -2.74014 6.46421 0
M  V30 946 H 93.1482 0.0746905 2.97906 0
M  V30 947 H 90.6852 0.048632 1.4702 0
M  V30 948 H 92.6432 -2.36234 3.43874 0
M  V30 949 H 91.2732 -2.26314 2.30178 0
M  V30 950 H 90.3252 -0.35301 3.78758 0
M  V30 951 H 91.6372 -0.680892 4.94131 0
M  V30 952 H 90.7912 -3.01422 5.26526 0
M  V30 953 H 89.5302 -2.74947 4.0281 0
M  V30 954 H 88.5352 -0.913543 5.42157 0
M  V30 955 H 89.7602 -1.20198 6.68378 0
M  V30 956 H 87.7062 -3.22494 5.71256 0
M  V30 957 H 87.6232 -2.32735 7.19285 0
M  V30 958 H 88.8912 -3.49499 6.96757 0
M  V30 959 N 93.1203 -1.57491 0.0584922 0
M  V30 960 C 94.5363 -1.56792 -0.298091 0
M  V30 961 C 94.7363 -1.06679 -1.70944 0
M  V30 962 O 93.7923 -0.726672 -2.41818 0
M  V30 963 C 95.1053 -3.00461 -0.119879 0
M  V30 964 C 96.6533 -3.1242 -0.190428 0
M  V30 965 C 97.1283 -4.57982 -0.0406567 0
M  V30 966 N 98.6193 -4.63099 -0.0966958 0
M  V30 967 C 99.3543 -5.734 -0.00502943 0
M  V30 968 N 98.8503 -6.9266 0.139402 0
M  V30 969 N 100.643 -5.62067 -0.0611391 0
M  V30 970 H 92.7943 -1.88386 0.98105 0
M  V30 971 H 95.0573 -0.867865 0.381463 0
M  V30 972 H 94.7633 -3.41187 0.85349 0
M  V30 973 H 94.6373 -3.66843 -0.877833 0
M  V30 974 H 97.0243 -2.71589 -1.15427 0
M  V30 975 H 97.1053 -2.48702 0.598405 0
M  V30 976 H 96.7493 -4.995 0.919897 0
M  V30 977 H 96.6793 -5.19715 -0.848727 0
M  V30 978 H 99.1703 -3.77331 -0.207277 0
M  V30 979 H 99.4833 -7.72536 0.201855 0
M  V30 980 H 97.8283 -6.94781 0.174586 0
M  V30 981 H 101.019 -4.67782 -0.172583 0
M  V30 982 H 101.192 -6.47999 0.0137562 0
M  V30 983 N 94.5984 0.214957 -1.56127 0
M  V30 984 C 95.5464 1.28601 -1.93816 0
M  V30 985 C 96.5404 1.48175 -0.821016 0
M  V30 986 O 97.7464 1.49271 -1.0059 0
M  V30 987 H 94.1214 0.431302 -0.616022 0
M  V30 988 H 96.0924 0.940991 -2.83175 0
M  V30 989 C 94.8414 2.62779 -2.27689 0
M  V30 990 H 94.1644 2.48527 -3.13168 0
M  V30 991 H 95.6044 3.36517 -2.57939 0
M  V30 992 C 94.0634 3.18285 -1.10436 0
M  V30 993 O 94.5934 4.00002 -0.368945 0
M  V30 994 N 92.7994 2.7675 -0.886433 0
M  V30 995 H 92.3464 2.10404 -1.48619 0
M  V30 996 H 92.3044 3.14229 -0.103656 0
M  V30 997 N 96.0765 1.50051 0.48192 0
M  V30 998 C 97.3225 1.60736 1.2366 0
M  V30 999 C 97.6555 0.301786 1.91841 0
M  V30 1000 O 96.9305 -0.696025 1.8162 0
M  V30 1001 C 97.2135 2.78009 2.28874 0
M  V30 1002 C 97.0665 4.18416 1.65069 0
M  V30 1003 C 98.3855 2.90867 3.30279 0
M  V30 1004 H 95.5045 0.585031 0.448228 0
M  V30 1005 H 98.1465 1.82402 0.531946 0
M  V30 1006 H 96.2965 2.59667 2.88973 0
M  V30 1007 H 97.9685 4.48322 1.0865 0
M  V30 1008 H 96.2115 4.23177 0.954148 0
M  V30 1009 H 96.8825 4.96381 2.41474 0
M  V30 1010 H 99.3585 3.07623 2.80191 0
M  V30 1011 H 98.2345 3.74566 4.01238 0
M  V30 1012 H 98.4955 2.01021 3.93755 0
M  V30 1013 N 97.5546 -0.734337 1.39446 0
M  V30 1014 C 98.5016 -1.84835 1.38219 0
M  V30 1015 C 99.4716 -1.64331 0.24179 0
M  V30 1016 O 100.657 -1.85728 0.437002 0
M  V30 1017 C 97.7966 -3.22355 1.23212 0
M  V30 1018 C 96.9096 -3.5456 2.46801 0
M  V30 1019 C 96.0446 -4.81485 2.24377 0
M  V30 1020 C 95.0836 -5.06536 3.43639 0
M  V30 1021 N 94.2206 -6.24665 3.20528 0
M  V30 1022 H 99.0606 -1.85219 2.33448 0
M  V30 1023 H 96.5976 -0.905039 1.15963 0
M  V30 1024 H 98.5556 -4.0174 1.12522 0
M  V30 1025 H 97.1856 -3.21248 0.316121 0
M  V30 1026 H 96.2376 -2.69872 2.68092 0
M  V30 1027 H 97.5496 -3.6899 3.3563 0
M  V30 1028 H 96.7036 -5.68852 2.10933 0
M  V30 1029 H 95.4426 -4.6923 1.32944 0
M  V30 1030 H 94.4476 -4.17632 3.5758 0
M  V30 1031 H 95.6726 -5.20676 4.35974 0
M  V30 1032 H 93.6186 -6.13696 2.3176 0
M  V30 1033 H 93.5356 -6.39685 4.02913 0
M  V30 1034 H 94.8036 -7.14868 3.10779 0
M  V30 1035 N 99.0327 -1.24633 -0.964593 0
M  V30 1036 C 99.9627 -1.06611 -2.07741 0
M  V30 1037 C 100.944 0.0218666 -1.70086 0
M  V30 1038 O 102.129 -0.145793 -1.93652 0
M  V30 1039 C 99.2587 -0.673444 -3.40708 0
M  V30 1040 C 98.2127 -1.71054 -3.92332 0
M  V30 1041 C 97.5387 -1.17285 -5.21678 0
M  V30 1042 C 98.8387 -3.10718 -4.19824 0
M  V30 1043 H 100.533 -1.99693 -2.23076 0
M  V30 1044 H 98.0787 -0.96152 -1.07195 0
M  V30 1045 H 100.032 -0.534345 -4.17998 0
M  V30 1046 H 98.7557 0.293073 -3.25282 0
M  V30 1047 H 97.4147 -1.83791 -3.17201 0
M  V30 1048 H 97.0627 -0.196847 -5.02615 0
M  V30 1049 H 96.7627 -1.86592 -5.57187 0
M  V30 1050 H 98.2867 -1.04593 -6.01575 0
M  V30 1051 H 99.7007 -3.01192 -4.87808 0
M  V30 1052 H 98.0977 -3.77406 -4.66567 0
M  V30 1053 H 99.1677 -3.58524 -3.26479 0
M  V30 1054 N 100.511 1.16574 -1.06058 0
M  V30 1055 C 101.76 1.86385 -0.770944 0
M  V30 1056 C 102.073 1.82448 0.705129 0
M  V30 1057 O 103.279 2.47815 1.10905 0
M  V30 1058 C 101.735 3.34466 -1.32893 0
M  V30 1059 C 101.343 3.46883 -2.83507 0
M  V30 1060 C 103.087 4.09548 -1.11672 0
M  V30 1061 C 100.994 4.89036 -3.32562 0
M  V30 1062 H 99.9238 0.698181 -0.284709 0
M  V30 1063 H 102.575 1.31583 -1.27899 0
M  V30 1064 H 100.957 3.88859 -0.748662 0
M  V30 1065 H 102.131 3.02663 -3.47465 0
M  V30 1066 H 100.446 2.85232 -3.03368 0
M  V30 1067 H 103.043 5.14434 -1.45814 0
M  V30 1068 H 103.386 4.16264 -0.0549535 0
M  V30 1069 H 103.919 3.61387 -1.66265 0
M  V30 1070 H 100.658 4.87499 -4.38207 0
M  V30 1071 H 100.178 5.3389 -2.73351 0
M  V30 1072 H 101.857 5.57843 -3.2775 0
M  V30 1073 N 101.989 0.842826 1.3317 0
M  V30 1074 C 102.952 0.284065 2.27433 0
M  V30 1075 C 103.952 -0.54948 1.5112 0
M  V30 1076 O 105.142 -0.362699 1.70382 0
M  V30 1077 C 102.274 -0.599384 3.35589 0
M  V30 1078 H 103.467 1.11589 2.78366 0
M  V30 1079 H 101.02 0.616221 1.4364 0
M  V30 1080 H 101.755 -1.45349 2.89904 0
M  V30 1081 H 101.54 -0.00291266 3.921 0
M  V30 1082 H 103.03 -0.983488 4.05854 0
M  V30 1083 N 103.467 -1.45747 0.599634 0
M  V30 1084 C 104.397 -2.33235 -0.111306 0
M  V30 1085 C 105.378 -1.46359 -0.866781 0
M  V30 1086 O 106.563 -1.75146 -0.838904 0
M  V30 1087 C 103.693 -3.28932 -1.11451 0
M  V30 1088 C 102.647 -4.25381 -0.472772 0
M  V30 1089 C 101.973 -5.1071 -1.58365 0
M  V30 1090 C 103.273 -5.18831 0.600948 0
M  V30 1091 H 104.967 -2.92927 0.61919 0
M  V30 1092 H 102.513 -1.40857 0.299215 0
M  V30 1093 H 104.466 -3.89002 -1.62036 0
M  V30 1094 H 103.19 -2.67381 -1.8755 0
M  V30 1095 H 101.849 -3.66598 0.0121472 0
M  V30 1096 H 101.497 -4.45533 -2.33473 0
M  V30 1097 H 101.197 -5.7604 -1.15982 0
M  V30 1098 H 102.721 -5.73647 -2.09194 0
M  V30 1099 H 104.135 -5.73019 0.179491 0
M  V30 1100 H 102.532 -5.92595 0.946076 0
M  V30 1101 H 103.602 -4.6174 1.48068 0
M  V30 1102 N 104.945 -0.338344 -1.53925 0
M  V30 1103 C 106.17 0.263987 -2.05713 0
M  V30 1104 C 106.595 1.43847 -1.21201 0
M  V30 1105 O 105.953 1.79904 -0.224535 0
M  V30 1106 C 106.001 0.662 -3.54471 0
M  V30 1107 O 105.105 1.76265 -3.72833 0
M  V30 1108 H 104.446 0.0448722 -0.662482 0
M  V30 1109 H 106.976 -0.491048 -1.9862 0
M  V30 1110 H 106.986 0.940594 -3.9701 0
M  V30 1111 H 105.661 -0.196937 -4.15433 0
M  V30 1112 H 104.238 1.48173 -3.42198 0
M  V30 1113 N 106.423 1.57458 -0.0668435 0
M  V30 1114 C 107.672 1.92477 0.602947 0
M  V30 1115 C 107.985 0.948419 1.71068 0
M  V30 1116 O 109.191 1.19124 2.43971 0
M  V30 1117 C 107.647 3.41903 1.12383 0
M  V30 1118 C 107.255 4.47975 0.04737 0
M  V30 1119 C 108.999 3.85931 1.76797 0
M  V30 1120 C 106.906 5.88529 0.582022 0
M  V30 1121 H 105.836 0.718387 0.22899 0
M  V30 1122 H 108.487 1.82978 -0.138276 0
M  V30 1123 H 106.869 3.46459 1.91787 0
M  V30 1124 H 108.043 4.55029 -0.726978 0
M  V30 1125 H 106.358 4.13384 -0.500243 0
M  V30 1126 H 108.955 4.88322 2.17821 0
M  V30 1127 H 109.298 3.23029 2.62599 0
M  V30 1128 H 109.831 3.83958 1.04024 0
M  V30 1129 H 106.57 6.55065 -0.238721 0
M  V30 1130 H 106.09 5.85004 1.324 0
M  V30 1131 H 107.769 6.38258 1.05999 0
M  V30 1132 N 107.901 -0.206675 1.56239 0
M  V30 1133 C 109.178 -0.954051 1.70755 0
M  V30 1134 C 109.558 -2.01841 0.618353 0
M  V30 1135 O 108.906 -2.25444 -0.372434 0
M  V30 1136 C 109.116 -1.551 3.12642 0
M  V30 1137 C 110.464 -2.03757 3.72516 0
M  V30 1138 O 111.488 -1.64965 3.15698 0
M  V30 1139 O 110.347 -2.75103 4.72208 0
M  V30 1140 H 107.441 -0.446636 0.696021 0
M  V30 1141 H 109.987 -0.197283 1.68549 0
M  V30 1142 H 108.759 -0.783212 3.83382 0
M  V30 1143 H 108.382 -2.37291 3.19028 0
M  V30 1144 N 109.379 -1.50304 -0.473955 0
M  V30 1145 C 110.604 -1.65175 -1.25427 0
M  V30 1146 C 111.029 -0.333673 -1.85117 0
M  V30 1147 O 110.387 0.702114 -1.67153 0
M  V30 1148 C 110.435 -2.74295 -2.34082 0
M  V30 1149 O 109.539 -2.35349 -3.38651 0
M  V30 1150 H 108.88 -0.551944 -0.369126 0
M  V30 1151 H 111.41 -1.96662 -0.564364 0
M  V30 1152 H 111.42 -2.97285 -2.79438 0
M  V30 1153 H 110.095 -3.69959 -1.90008 0
M  V30 1154 H 108.672 -2.22794 -2.99027 0
M  V30 1155 N 110.857 0.726932 -1.39834 0
M  V30 1156 C 112.103 1.48884 -1.377 0
M  V30 1157 C 112.436 1.94185 0.0244852 0
M  V30 1158 O 111.711 1.67361 0.990986 0
M  V30 1159 C 111.994 2.72288 -2.3565 0
M  V30 1160 C 111.847 2.32956 -3.84775 0
M  V30 1161 C 113.166 3.74414 -2.31306 0
M  V30 1162 H 110.285 0.540062 -0.5015 0
M  V30 1163 H 112.927 0.830547 -1.70886 0
M  V30 1164 H 111.077 3.28457 -2.07481 0
M  V30 1165 H 112.749 1.82356 -4.23726 0
M  V30 1166 H 110.992 1.65088 -4.01159 0
M  V30 1167 H 111.663 3.21362 -4.4881 0
M  V30 1168 H 114.139 3.27849 -2.56231 0
M  V30 1169 H 113.015 4.58414 -3.01907 0
M  V30 1170 H 113.276 4.21909 -1.32081 0
M  V30 1171 N 112.336 1.25143 0.95797 0
M  V30 1172 C 113.246 1.06968 2.08794 0
M  V30 1173 C 114.262 0.00773911 1.73998 0
M  V30 1174 O 115.438 0.207972 2.00323 0
M  V30 1175 C 112.503 0.68691 3.39827 0
M  V30 1176 C 111.564 1.82641 3.88511 0
M  V30 1177 C 110.797 1.46181 5.1329 0
M  V30 1178 O 111.02 0.355971 5.69288 0
M  V30 1179 O 109.954 2.29085 5.566 0
M  V30 1180 H 113.78 2.01723 2.27027 0
M  V30 1181 H 111.365 1.04051 1.07209 0
M  V30 1182 H 113.247 0.485417 4.18595 0
M  V30 1183 H 111.922 -0.231417 3.22872 0
M  V30 1184 H 110.829 2.08274 3.10762 0
M  V30 1185 H 112.162 2.72386 4.09959 0
M  V30 1186 N 113.814 -1.1601 1.06675 0
M  V30 1187 C 115.091 -1.82679 0.699114 0
M  V30 1188 C 115.471 -1.94559 -0.819137 0
M  V30 1189 O 114.819 -1.49169 -1.73092 0
M  V30 1190 C 115.029 -3.19445 1.40555 0
M  V30 1191 C 116.377 -3.95171 1.55323 0
M  V30 1192 O 117.401 -3.28976 1.36577 0
M  V30 1193 O 116.26 -5.13833 1.86112 0
M  V30 1194 H 113.354 -0.788954 0.247951 0
M  V30 1195 H 115.9 -1.23179 1.16726 0
M  V30 1196 H 114.672 -3.05856 2.44065 0
M  V30 1197 H 114.295 -3.86625 0.927733 0
M  V30 1198 N 115.292 -0.849877 -1.32721 0
M  V30 1199 C 116.242 -0.262892 -2.26479 0
M  V30 1200 C 117.226 0.588493 -1.49752 0
M  V30 1201 O 118.418 0.438659 -1.71478 0
M  V30 1202 C 115.547 0.551818 -3.38836 0
M  V30 1203 C 114.633 -0.311689 -4.22953 0
M  V30 1204 N 115.024 -1.39567 -4.86163 0
M  V30 1205 C 113.322 -0.100611 -4.45887 0
M  V30 1206 C 114.023 -1.92651 -5.48872 0
M  V30 1207 N 112.999 -1.22637 -5.29586 0
M  V30 1208 H 116.801 -1.09166 -2.72873 0
M  V30 1209 H 114.315 -0.695486 -1.46754 0
M  V30 1210 H 116.312 0.988713 -4.05006 0
M  V30 1211 H 114.972 1.37844 -2.93988 0
M  V30 1212 H 115.983 -1.77859 -4.86402 0
M  V30 1213 H 112.66 0.691681 -4.11731 0
M  V30 1214 H 114.05 -2.83487 -6.09167 0
M  V30 1215 N 116.77 1.45427 -0.607355 0
M  V30 1216 C 117.7 2.3329 0.0989352 0
M  V30 1217 C 118.681 1.46816 0.859007 0
M  V30 1218 O 119.866 1.75588 0.829604 0
M  V30 1219 C 116.996 3.29518 1.09705 0
M  V30 1220 C 115.95 4.25626 0.450206 0
M  V30 1221 C 115.276 5.11542 1.55655 0
M  V30 1222 C 116.576 5.18505 -0.628455 0
M  V30 1223 H 118.27 2.92595 -0.634716 0
M  V30 1224 H 115.816 1.40696 -0.306681 0
M  V30 1225 H 117.769 3.89855 1.59971 0
M  V30 1226 H 116.493 2.68372 1.86129 0
M  V30 1227 H 115.152 3.66586 -0.0315886 0
M  V30 1228 H 114.8 4.46765 2.31107 0
M  V30 1229 H 114.5 5.76647 1.12925 0
M  V30 1230 H 116.024 5.74748 2.06148 0
M  V30 1231 H 117.438 5.72916 -0.209877 0
M  V30 1232 H 115.835 5.92085 -0.977489 0
M  V30 1233 H 116.905 4.60948 -1.50514 0
M  V30 1234 N 118.248 0.346503 1.53744 0
M  V30 1235 C 119.211 -0.496439 2.23759 0
M  V30 1236 C 120.211 -1.0252 1.2388 0
M  V30 1237 O 121.401 -0.913974 1.48297 0
M  V30 1238 C 118.533 -1.69187 2.95954 0
M  V30 1239 H 119.726 0.115952 2.99676 0
M  V30 1240 H 117.279 0.0978939 1.55993 0
M  V30 1241 H 118.014 -2.34288 2.24231 0
M  V30 1242 H 117.799 -1.31989 3.69217 0
M  V30 1243 H 119.289 -2.28969 3.49232 0
M  V30 1244 N 119.726 -1.57421 0.075193 0
M  V30 1245 C 120.972 -1.94716 -0.587998 0
M  V30 1246 C 121.327 -0.955205 -1.67014 0
M  V30 1247 O 120.62 0.0219842 -1.91587 0
M  V30 1248 C 120.814 -3.36428 -1.20626 0
M  V30 1249 C 120.643 -4.49317 -0.185541 0
M  V30 1250 C 119.413 -5.04772 0.23099 0
M  V30 1251 C 121.611 -5.11036 0.57854 0
M  V30 1252 N 119.593 -6.01204 1.24206 0
M  V30 1253 C 120.964 -6.02998 1.44199 0
M  V30 1254 C 123.019 -4.93844 0.634237 0
M  V30 1255 C 121.722 -6.79614 2.3562 0
M  V30 1256 C 123.748 -5.71106 1.53597 0
M  V30 1257 C 123.11 -6.6272 2.38709 0
M  V30 1258 H 119.209 -0.759536 -0.186089 0
M  V30 1259 H 121.793 -1.94097 0.153128 0
M  V30 1260 H 119.964 -3.37778 -1.9173 0
M  V30 1261 H 121.696 -3.60951 -1.8302 0
M  V30 1262 H 118.451 -4.73353 -0.152807 0
M  V30 1263 H 118.875 -6.54119 1.74521 0
M  V30 1264 H 123.517 -4.22799 -0.00960004 0
M  V30 1265 H 121.235 -7.49934 3.01038 0
M  V30 1266 H 124.821 -5.59824 1.58394 0
M  V30 1267 H 123.701 -7.2146 3.07352 0
M  V30 1268 N 121.204 0.198386 -1.56346 0
M  V30 1269 C 122.429 0.939682 -1.84891 0
M  V30 1270 C 122.854 1.76202 -0.658369 0
M  V30 1271 O 122.212 1.76993 0.392851 0
M  V30 1272 C 122.26 1.81428 -3.11635 0
M  V30 1273 O 121.364 2.91265 -2.91956 0
M  V30 1274 H 120.705 0.264807 -0.608912 0
M  V30 1275 H 123.235 0.204695 -2.03573 0
M  V30 1276 H 123.245 2.21958 -3.42343 0
M  V30 1277 H 121.92 1.21004 -3.97908 0
M  V30 1278 H 120.497 2.54514 -2.72538 0
M  V30 1279 N 122.682 1.50554 0.465978 0
M  V30 1280 C 123.629 1.6979 1.56333 0
M  V30 1281 C 124.599 0.539239 1.57103 0
M  V30 1282 O 125.784 0.770401 1.74555 0
M  V30 1283 C 122.924 1.80273 2.94271 0
M  V30 1284 C 122.037 3.07674 3.0325 0
M  V30 1285 C 121.172 3.08922 4.32135 0
M  V30 1286 C 120.211 4.30755 4.34875 0
M  V30 1287 N 119.348 4.29714 5.55239 0
M  V30 1288 H 124.188 2.63472 1.39235 0
M  V30 1289 H 121.725 1.30602 0.676873 0
M  V30 1290 H 123.683 1.84332 3.74269 0
M  V30 1291 H 122.313 0.900258 3.09992 0
M  V30 1292 H 121.365 3.13062 2.16094 0
M  V30 1293 H 122.677 3.97642 3.01135 0
M  V30 1294 H 121.831 3.11738 5.20485 0
M  V30 1295 H 120.57 2.16792 4.36866 0
M  V30 1296 H 119.575 4.28146 3.44922 0
M  V30 1297 H 120.8 5.24117 4.31831 0
M  V30 1298 H 118.746 3.4044 5.60746 0
M  V30 1299 H 118.663 5.13456 5.54886 0
M  V30 1300 H 119.931 4.36683 6.457 0
M  V30 1301 N 124.16 -0.719506 1.40217 0
M  V30 1302 C 125.437 -1.47221 1.28784 0
M  V30 1303 C 125.817 -2.10883 -0.0956067 0
M  V30 1304 O 125.165 -1.99833 -1.10811 0
M  V30 1305 C 125.375 -2.5111 2.42373 0
M  V30 1306 C 126.723 -3.17053 2.82423 0
M  V30 1307 O 127.747 -2.61429 2.41937 0
M  V30 1308 O 126.606 -4.17742 3.52355 0
M  V30 1309 H 123.7 -0.654491 0.50554 0
M  V30 1310 H 126.246 -0.752014 1.52128 0
M  V30 1311 H 125.018 -2.02556 3.34793 0
M  V30 1312 H 124.641 -3.3067 2.20778 0
M  V30 1313 N 125.638 -1.25649 -0.95132 0
M  V30 1314 C 126.887 -1.09988 -1.69073 0
M  V30 1315 C 127.2 0.358355 -1.92289 0
M  V30 1316 O 128.406 0.635466 -2.63958 0
M  V30 1317 C 126.862 -1.92012 -3.044 0
M  V30 1318 C 126.47 -3.42347 -2.88968 0
M  V30 1319 C 128.214 -1.8493 -3.82101 0
M  V30 1320 C 126.121 -4.16655 -4.19705 0
M  V30 1321 H 125.051 -0.407993 -0.63408 0
M  V30 1322 H 127.702 -1.49873 -1.05879 0
M  V30 1323 H 126.084 -1.44952 -3.68517 0
M  V30 1324 H 127.258 -3.97104 -2.33762 0
M  V30 1325 H 125.573 -3.50557 -2.24719 0
M  V30 1326 H 128.17 -2.37739 -4.78941 0
M  V30 1327 H 128.513 -0.817883 -4.08187 0
M  V30 1328 H 129.046 -2.29758 -3.2474 0
M  V30 1329 H 125.785 -5.20224 -3.98807 0
M  V30 1330 H 125.305 -3.66681 -4.74663 0
M  V30 1331 H 126.984 -4.24551 -4.88227 0
M  V30 1332 N 127.117 1.15442 -1.07289 0
M  V30 1333 C 128.065 2.22225 -0.686952 0
M  V30 1334 C 129.059 1.66688 0.30193 0
M  V30 1335 O 130.265 1.79236 0.165712 0
M  V30 1336 H 126.64 0.723783 -0.204064 0
M  V30 1337 H 128.611 2.52056 -1.5972 0
M  V30 1338 C 127.36 3.47556 -0.100149 0
M  V30 1339 H 126.683 3.90612 -0.852211 0
M  V30 1340 H 128.123 4.23794 0.132235 0
M  V30 1341 C 126.582 3.16337 1.159 0
M  V30 1342 O 127.112 3.33074 2.24555 0
M  V30 1343 N 125.318 2.70385 1.06491 0
M  V30 1344 H 124.865 2.56966 0.180668 0
M  V30 1345 H 124.823 2.49871 1.90819 0
M  V30 1346 N 128.595 0.856903 1.32268 0
M  V30 1347 C 129.558 0.308171 2.27119 0
M  V30 1348 C 130.558 -0.533421 1.51695 0
M  V30 1349 O 131.748 -0.344607 1.70757 0
M  V30 1350 C 128.88 -0.563757 3.36206 0
M  V30 1351 H 130.073 1.14535 2.77167 0
M  V30 1352 H 127.626 0.631421 1.42978 0
M  V30 1353 H 128.361 -1.42266 2.91429 0
M  V30 1354 H 128.146 0.0386749 3.92081 0
M  V30 1355 H 129.636 -0.940386 4.06874 0
M  V30 1356 N 130.073 -1.45103 0.615059 0
M  V30 1357 C 131.303 -2.06254 0.119596 0
M  V30 1358 C 131.711 -1.4591 -1.20445 0
M  V30 1359 O 131.054 -0.570384 -1.7462 0
M  V30 1360 C 131.116 -3.59396 -0.0865591 0
M  V30 1361 C 130.78 -4.42116 1.15683 0
M  V30 1362 C 131.777 -4.7662 2.07676 0
M  V30 1363 C 129.462 -4.82749 1.38775 0
M  V30 1364 C 131.456 -5.50622 3.21082 0
M  V30 1365 C 129.143 -5.56504 2.52481 0
M  V30 1366 C 130.141 -5.90358 3.43463 0
M  V30 1367 O 129.829 -6.62615 4.55189 0
M  V30 1368 H 129.561 -0.672423 0.0694512 0
M  V30 1369 H 132.115 -1.87219 0.844885 0
M  V30 1370 H 130.345 -3.76859 -0.866823 0
M  V30 1371 H 132.034 -4.02365 -0.534555 0
M  V30 1372 H 132.8 -4.4578 1.91063 0
M  V30 1373 H 128.679 -4.55829 0.688545 0
M  V30 1374 H 132.223 -5.76965 3.92119 0
M  V30 1375 H 128.12 -5.86759 2.69043 0
M  V30 1376 H 128.888 -6.81071 4.53966 0
M  V30 1377 N 131.551 -0.354651 -1.53558 0
M  V30 1378 C 132.499 0.512195 -2.26891 0
M  V30 1379 C 133.493 1.09263 -1.29452 0
M  V30 1380 O 134.699 1.03709 -1.47121 0
M  V30 1381 H 131.074 0.183878 -0.729173 0
M  V30 1382 H 133.045 -0.128202 -2.98124 0
M  V30 1383 C 131.794 1.64563 -3.06291 0
M  V30 1384 H 131.117 1.20829 -3.81104 0
M  V30 1385 H 132.557 2.22711 -3.60799 0
M  V30 1386 C 131.016 2.58158 -2.16462 0
M  V30 1387 O 131.546 3.60695 -1.76811 0
M  V30 1388 N 129.752 2.27096 -1.81317 0
M  V30 1389 H 129.299 1.43751 -2.1376 0
M  V30 1390 H 129.257 2.89975 -1.21498 0
M  V30 1391 N 133.029 1.57378 -0.0835403 0
M  V30 1392 C 134.269 1.95808 0.586381 0
M  V30 1393 C 134.633 0.963706 1.66062 0
M  V30 1394 O 135.834 1.23608 2.38693 0
M  V30 1395 C 134.105 3.38808 1.13771 0
M  V30 1396 S 135.664 3.99225 1.82112 0
M  V30 1397 H 132.482 0.684675 0.191679 0
M  V30 1398 H 135.084 1.94843 -0.160194 0
M  V30 1399 H 133.788 4.08954 0.344197 0
M  V30 1400 H 133.319 3.43344 1.92038 0
M  V30 1401 H 135.334 3.87087 3.10449 0
M  V30 1402 N 134.507 -0.190092 1.56449 0
M  V30 1403 C 135.417 -1.25591 1.98152 0
M  V30 1404 C 136.433 -1.49519 0.889944 0
M  V30 1405 O 137.609 -1.62036 1.19609 0
M  V30 1406 C 134.674 -2.57916 2.3169 0
M  V30 1407 C 133.735 -2.42015 3.5458 0
M  V30 1408 C 132.968 -3.6803 3.8651 0
M  V30 1409 O 133.191 -4.72413 3.1966 0
M  V30 1410 O 132.125 -3.6326 4.79923 0
M  V30 1411 H 135.951 -0.931988 2.89046 0
M  V30 1412 H 133.536 -0.395488 1.4407 0
M  V30 1413 H 135.418 -3.36008 2.54316 0
M  V30 1414 H 134.093 -2.89925 1.43963 0
M  V30 1415 H 133 -1.62017 3.37196 0
M  V30 1416 H 134.333 -2.14937 4.4279 0
M  V30 1417 N 135.985 -1.50799 -0.457987 0
M  V30 1418 C 136.895 -1.73426 -1.57989 0
M  V30 1419 C 137.911 -0.617745 -1.62665 0
M  V30 1420 O 139.087 -0.897614 -1.80291 0
M  V30 1421 C 136.152 -1.83557 -2.94122 0
M  V30 1422 C 135.213 -3.07345 -2.99729 0
M  V30 1423 C 134.446 -3.16983 -4.29368 0
M  V30 1424 O 134.669 -2.33077 -5.20607 0
M  V30 1425 O 133.603 -4.09812 -4.40837 0
M  V30 1426 H 137.429 -2.68555 -1.41817 0
M  V30 1427 H 135.014 -1.35052 -0.638859 0
M  V30 1428 H 136.896 -1.92326 -3.74952 0
M  V30 1429 H 135.571 -0.916137 -3.10465 0
M  V30 1430 H 134.478 -3.04068 -2.1793 0
M  V30 1431 H 135.811 -3.9891 -2.88326 0
M  V30 1432 N 137.463 0.71206 -1.40597 0
M  V30 1433 C 138.874 1.29135 -1.34837 0
M  V30 1434 C 139.225 1.96186 -0.0235395 0
M  V30 1435 O 138.35 1.97768 0.878444 0
M  V30 1436 C 138.945 2.34827 -2.44217 0
M  V30 1437 C 137.504 2.88371 -2.41907 0
M  V30 1438 C 136.651 1.62202 -2.24913 0
M  V30 1439 H 139.602 0.507944 -1.50352 0
M  V30 1440 H 139.623 3.15749 -2.12327 0
M  V30 1441 H 139.135 1.85996 -3.40627 0
M  V30 1442 H 137.236 3.41422 -1.49204 0
M  V30 1443 H 137.349 3.39925 -3.37621 0
M  V30 1444 H 135.713 1.874 -1.72492 0
M  V30 1445 H 136.496 1.15391 -3.23326 0
M  V30 1446 N 138.941 1.26152 0.944643 0
M  V30 1447 C 140.169 1.14259 1.72489 0
M  V30 1448 C 140.584 -0.302555 1.8636 0
M  V30 1449 O 139.941 -1.20741 1.36849 0
M  V30 1450 C 139.992 1.80266 3.13347 0
M  V30 1451 O 139.713 3.19133 3.00143 0
M  V30 1452 C 141.214 1.74283 4.07603 0
M  V30 1453 H 138.434 0.398051 0.540181 0
M  V30 1454 H 140.978 1.66706 1.18446 0
M  V30 1455 H 139.133 1.31766 3.64303 0
M  V30 1456 H 139.547 3.51744 3.89071 0
M  V30 1457 H 141.021 2.25111 5.04013 0
M  V30 1458 H 141.498 0.708631 4.33446 0
M  V30 1459 H 142.104 2.22319 3.62567 0
M  V30 1460 N 140.419 -1.14872 1.07899 0
M  V30 1461 C 141.329 -2.2341 0.715915 0
M  V30 1462 C 142.345 -1.71808 -0.275306 0
M  V30 1463 O 143.521 -2.01039 -0.120545 0
M  V30 1464 C 140.586 -3.46474 0.125168 0
M  V30 1465 C 139.647 -4.13039 1.17034 0
M  V30 1466 C 138.88 -5.30229 0.607688 0
M  V30 1467 O 139.103 -5.675 -0.574497 0
M  V30 1468 O 138.037 -5.86444 1.35526 0
M  V30 1469 H 141.863 -2.56808 1.62121 0
M  V30 1470 H 139.448 -1.22702 0.852322 0
M  V30 1471 H 141.33 -4.20917 -0.201729 0
M  V30 1472 H 140.005 -3.14811 -0.753364 0
M  V30 1473 H 138.912 -3.40493 1.54968 0
M  V30 1474 H 140.245 -4.48796 2.02097 0
M  V30 1475 N 141.898 -0.863906 -1.31812 0
M  V30 1476 C 142.845 -0.313303 -2.28664 0
M  V30 1477 C 143.815 0.584868 -1.55462 0
M  V30 1478 O 145 0.517805 -1.83639 0
M  V30 1479 C 142.14 0.48441 -3.41683 0
M  V30 1480 C 141.253 -0.440594 -4.29747 0
M  V30 1481 C 140.388 0.370652 -5.29905 0
M  V30 1482 C 139.427 -0.551164 -6.09613 0
M  V30 1483 N 138.564 0.223462 -7.01744 0
M  V30 1484 H 143.404 -1.14444 -2.75148 0
M  V30 1485 H 140.941 -0.575769 -1.35364 0
M  V30 1486 H 142.899 0.962627 -4.05943 0
M  V30 1487 H 141.529 1.28029 -2.96325 0
M  V30 1488 H 140.581 -1.03724 -3.65986 0
M  V30 1489 H 141.893 -1.14767 -4.85417 0
M  V30 1490 H 141.047 0.911638 -5.99812 0
M  V30 1491 H 139.786 1.11105 -4.74876 0
M  V30 1492 H 138.791 -1.10396 -5.38603 0
M  V30 1493 H 140.016 -1.29032 -6.66729 0
M  V30 1494 H 137.962 0.946787 -6.49132 0
M  V30 1495 H 137.879 -0.424399 -7.54808 0
M  V30 1496 H 139.147 0.745876 -7.75923 0
M  V30 1497 N 143.376 1.44774 -0.622745 0
M  V30 1498 C 144.306 2.33382 0.0741861 0
M  V30 1499 C 145.287 1.47719 0.843387 0
M  V30 1500 O 146.472 1.76458 0.810934 0
M  V30 1501 C 143.602 3.30663 1.06204 0
M  V30 1502 C 142.556 4.26079 0.405037 0
M  V30 1503 C 141.882 5.13165 1.5022 0
M  V30 1504 C 143.182 5.1781 -0.683414 0
M  V30 1505 H 144.876 2.91905 -0.665713 0
M  V30 1506 H 142.422 1.40363 -0.321587 0
M  V30 1507 H 144.375 3.9153 1.55827 0
M  V30 1508 H 143.099 2.70331 1.83272 0
M  V30 1509 H 141.758 3.66532 -0.0704683 0
M  V30 1510 H 141.406 4.49191 2.26355 0
M  V30 1511 H 141.106 5.77812 1.06803 0
M  V30 1512 H 142.63 5.76902 2.00041 0
M  V30 1513 H 144.044 5.72661 -0.270631 0
M  V30 1514 H 142.441 5.91015 -1.04023 0
M  V30 1515 H 143.511 4.59326 -1.55395 0
M  V30 1516 N 144.854 0.36279 1.53368 0
M  V30 1517 C 146.265 -0.117022 1.86333 0
M  V30 1518 C 146.616 -1.48397 1.28347 0
M  V30 1519 O 145.741 -2.07787 0.604428 0
M  V30 1520 C 146.336 -0.21912 3.38091 0
M  V30 1521 C 144.895 -0.643184 3.70864 0
M  V30 1522 C 144.042 0.211318 2.76494 0
M  V30 1523 H 146.993 0.581687 1.47655 0
M  V30 1524 H 147.014 -1.04319 3.6592 0
M  V30 1525 H 146.526 0.775902 3.80265 0
M  V30 1526 H 144.627 -1.64654 3.34245 0
M  V30 1527 H 144.74 -0.41973 4.77258 0
M  V30 1528 H 143.104 -0.319367 2.5269 0
M  V30 1529 H 143.887 1.20383 3.21501 0
M  V30 1530 N 146.332 -1.57332 0.0918853 0
M  V30 1531 C 147.579 -1.94236 -0.572577 0
M  V30 1532 C 147.907 -0.973398 -1.6839 0
M  V30 1533 O 147.162 0.00756912 -1.95699 0
M  V30 1534 C 147.461 -3.37689 -1.17051 0
M  V30 1535 C 147.127 -4.50527 -0.183304 0
M  V30 1536 C 145.789 -4.81119 0.0882276 0
M  V30 1537 C 148.141 -5.18883 0.49095 0
M  V30 1538 C 145.469 -5.77395 1.04076 0
M  V30 1539 C 147.821 -6.1618 1.43193 0
M  V30 1540 C 146.485 -6.45179 1.71173 0
M  V30 1541 H 145.755 -0.710762 -0.209521 0
M  V30 1542 H 148.402 -1.9077 0.167036 0
M  V30 1543 H 146.707 -3.37718 -1.9863 0
M  V30 1544 H 148.404 -3.63543 -1.69227 0
M  V30 1545 H 144.994 -4.26681 -0.405124 0
M  V30 1546 H 149.178 -4.95427 0.294312 0
M  V30 1547 H 144.434 -5.98179 1.26457 0
M  V30 1548 H 148.608 -6.68243 1.96023 0
M  V30 1549 H 146.235 -7.1959 2.4514 0
M  V30 1550 N 147.81 0.181792 -1.56548 0
M  V30 1551 C 149.221 0.745244 -1.71181 0
M  V30 1552 C 149.572 1.83262 -0.70068 0
M  V30 1553 O 148.697 2.15946 0.140154 0
M  V30 1554 C 149.292 1.35859 -3.10367 0
M  V30 1555 C 147.851 1.86898 -3.2672 0
M  V30 1556 C 146.998 0.743942 -2.67134 0
M  V30 1557 H 149.949 -0.0434661 -1.5864 0
M  V30 1558 H 149.97 2.22817 -3.08436 0
M  V30 1559 H 149.482 0.566948 -3.83937 0
M  V30 1560 H 147.583 2.68738 -2.5809 0
M  V30 1561 H 147.696 2.02162 -4.34359 0
M  V30 1562 H 146.06 1.16169 -2.26665 0
M  V30 1563 H 146.843 -0.035676 -3.43281 0
M  V30 1564 N 149.288 1.51039 0.449983 0
M  V30 1565 C 150.537 1.62317 1.19733 0
M  V30 1566 C 150.85 0.339101 1.92638 0
M  V30 1567 O 152.056 0.331069 2.69474 0
M  V30 1568 C 150.512 2.86608 2.17678 0
M  V30 1569 C 150.12 4.21972 1.50479 0
M  V30 1570 C 151.864 3.07239 2.92924 0
M  V30 1571 C 149.771 5.37426 2.46834 0
M  V30 1572 H 148.701 0.604532 0.450619 0
M  V30 1573 H 151.352 1.77494 0.465625 0
M  V30 1574 H 149.734 2.65037 2.94231 0
M  V30 1575 H 150.908 4.53878 0.795716 0
M  V30 1576 H 149.223 4.07117 0.874344 0
M  V30 1577 H 151.82 3.90668 3.65079 0
M  V30 1578 H 152.163 2.19807 3.5354 0
M  V30 1579 H 152.696 3.29091 2.23481 0
M  V30 1580 H 149.435 6.27079 1.90926 0
M  V30 1581 H 148.955 5.09912 3.15832 0
M  V30 1582 H 150.634 5.68862 3.08228 0
M  V30 1583 N 150.766 -0.704594 1.40972 0
M  V30 1584 C 152.015 -1.46018 1.39146 0
M  V30 1585 C 152.328 -1.956 0.000589254 0
M  V30 1586 O 153.534 -2.71137 -0.1403 0
M  V30 1587 C 151.99 -2.63996 2.4461 0
M  V30 1588 C 151.598 -2.21238 3.89561 0
M  V30 1589 C 153.342 -3.41677 2.51907 0
M  V30 1590 C 151.249 -3.3612 4.86598 0
M  V30 1591 H 150.179 -0.548444 0.517422 0
M  V30 1592 H 152.83 -0.765784 1.66757 0
M  V30 1593 H 151.212 -3.3566 2.10115 0
M  V30 1594 H 152.386 -1.56923 4.33257 0
M  V30 1595 H 150.701 -1.56574 3.85841 0
M  V30 1596 H 153.298 -4.27182 3.2159 0
M  V30 1597 H 153.641 -3.86247 1.55303 0
M  V30 1598 H 154.174 -2.77064 2.85448 0
M  V30 1599 H 150.913 -2.96572 5.84573 0
M  V30 1600 H 150.433 -3.99315 4.47557 0
M  V30 1601 H 152.112 -4.02029 5.06934 0
M  V30 1602 N 152.244 -1.26651 -0.937939 0
M  V30 1603 C 153.521 -1.0313 -1.66204 0
M  V30 1604 C 153.901 0.437256 -2.06522 0
M  V30 1605 O 153.249 1.41831 -1.79154 0
M  V30 1606 C 153.459 -1.98314 -2.87181 0
M  V30 1607 C 154.807 -2.27107 -3.58758 0
M  V30 1608 O 155.831 -1.96205 -2.97291 0
M  V30 1609 O 154.69 -2.79736 -4.69479 0
M  V30 1610 H 151.784 -0.392384 -0.727986 0
M  V30 1611 H 154.33 -1.37874 -0.989382 0
M  V30 1612 H 153.102 -2.97399 -2.54302 0
M  V30 1613 H 152.725 -1.64068 -3.6217 0
M  V30 1614 N 153.722 1.14298 -1.08507 0
M  V30 1615 C 154.999 1.81544 -0.728088 0
M  V30 1616 C 155.379 1.95838 0.78808 0
M  V30 1617 O 154.727 1.51904 1.70697 0
M  V30 1618 C 154.937 3.17169 -1.45619 0
M  V30 1619 C 156.285 3.9265 -1.61591 0
M  V30 1620 O 157.309 3.26762 -1.41793 0
M  V30 1621 O 156.168 5.10807 -1.94263 0
M  V30 1622 H 153.262 0.78491 -0.260471 0
M  V30 1623 H 155.808 1.21307 -1.18671 0
M  V30 1624 H 154.58 3.01934 -2.489 0
M  V30 1625 H 154.203 3.851 -0.989124 0
M  V30 1626 N 155.201 0.870884 1.31352 0
M  V30 1627 C 156.617 0.562932 1.49343 0
M  V30 1628 C 156.817 -0.902725 1.80148 0
M  V30 1629 O 155.873 -1.68484 1.88067 0
M  V30 1630 C 157.186 1.46393 2.62659 0
M  V30 1631 C 158.734 1.46607 2.76542 0
M  V30 1632 C 159.209 2.35266 3.92955 0
M  V30 1633 N 160.7 2.33151 4.00243 0
M  V30 1634 C 161.435 2.98471 4.89594 0
M  V30 1635 N 160.931 3.72964 5.8384 0
M  V30 1636 N 162.724 2.87775 4.82848 0
M  V30 1637 H 154.875 1.81923 1.09626 0
M  V30 1638 H 157.138 0.777934 0.541777 0
M  V30 1639 H 156.844 2.50689 2.46674 0
M  V30 1640 H 156.718 1.16314 3.58819 0
M  V30 1641 H 159.105 0.43069 2.9194 0
M  V30 1642 H 159.186 1.8071 1.81046 0
M  V30 1643 H 158.83 3.38881 3.78315 0
M  V30 1644 H 158.76 1.98487 4.87761 0
M  V30 1645 H 161.251 1.79006 3.32814 0
M  V30 1646 H 161.564 4.19932 6.4875 0
M  V30 1647 H 159.909 3.77073 5.83816 0
M  V30 1648 H 163.1 2.29116 4.08195 0
M  V30 1649 H 163.273 3.38961 5.52277 0
M  V30 1650 N 156.679 -1.44442 0.630414 0
M  V30 1651 C 157.627 -2.32437 -0.0871428 0
M  V30 1652 C 158.621 -1.47304 -0.836525 0
M  V30 1653 O 159.827 -1.63653 -0.749506 0
M  V30 1654 H 156.202 -0.750533 -0.0469495 0
M  V30 1655 H 158.173 -2.90709 0.673096 0
M  V30 1656 C 156.922 -3.31288 -1.05563 0
M  V30 1657 H 156.245 -3.96805 -0.488426 0
M  V30 1658 H 157.685 -3.9554 -1.52721 0
M  V30 1659 C 156.144 -2.6016 -2.14052 0
M  V30 1660 O 156.674 -2.39997 -3.22124 0
M  V30 1661 N 154.88 -2.19911 -1.89967 0
M  V30 1662 H 154.427 -2.36509 -1.02085 0
M  V30 1663 H 154.385 -1.72646 -2.62756 0
M  V30 1664 N 158.157 -0.370918 -1.53173 0
M  V30 1665 C 159.573 -0.0200818 -1.59587 0
M  V30 1666 C 159.773 1.46279 -1.38581 0
M  V30 1667 O 158.829 2.22506 -1.19363 0
M  V30 1668 C 160.142 -0.4808 -2.96831 0
M  V30 1669 C 161.69 -0.435477 -3.09956 0
M  V30 1670 C 162.165 -0.872092 -4.4962 0
M  V30 1671 N 163.656 -0.827364 -4.55751 0
M  V30 1672 C 164.391 -1.13683 -5.62018 0
M  V30 1673 N 163.887 -1.51584 -6.76014 0
M  V30 1674 N 165.68 -1.05927 -5.52029 0
M  V30 1675 H 157.831 -1.33652 -1.65079 0
M  V30 1676 H 160.094 -0.546634 -0.774529 0
M  V30 1677 H 159.8 -1.51577 -3.1736 0
M  V30 1678 H 159.674 0.129796 -3.76977 0
M  V30 1679 H 162.061 0.590371 -2.89134 0
M  V30 1680 H 162.142 -1.08164 -2.31806 0
M  V30 1681 H 161.786 -1.89608 -4.71181 0
M  V30 1682 H 161.716 -0.203127 -5.26208 0
M  V30 1683 H 164.207 -0.548216 -3.73902 0
M  V30 1684 H 164.52 -1.73609 -7.53047 0
M  V30 1685 H 162.865 -1.55454 -6.77391 0
M  V30 1686 H 166.056 -0.762321 -4.61851 0
M  V30 1687 H 166.229 -1.30378 -6.34749 0
M  V30 1688 N 159.635 1.57281 -0.100228 0
M  V30 1689 C 160.545 2.17833 0.870965 0
M  V30 1690 C 161.561 1.14921 1.30649 0
M  V30 1691 O 162.737 1.47313 1.37335 0
M  V30 1692 C 159.802 2.75085 2.1102 0
M  V30 1693 C 158.863 3.9297 1.72838 0
M  V30 1694 C 158.096 4.47482 2.90854 0
M  V30 1695 O 158.319 4.00922 4.05731 0
M  V30 1696 O 157.253 5.38433 2.69023 0
M  V30 1697 H 161.079 3.0124 0.38575 0
M  V30 1698 H 158.664 1.48881 0.124397 0
M  V30 1699 H 160.546 3.11656 2.83634 0
M  V30 1700 H 159.221 1.94721 2.58584 0
M  V30 1701 H 158.128 3.61201 0.973883 0
M  V30 1702 H 159.461 4.74713 1.30033 0
M  V30 1703 N 161.113 -0.173488 1.56642 0
M  V30 1704 C 162.043 -1.2171 1.99271 0
M  V30 1705 C 163.024 -1.46289 0.867959 0
M  V30 1706 O 164.209 -1.5766 1.13388 0
M  V30 1707 C 161.339 -2.55651 2.35074 0
M  V30 1708 C 160.293 -2.45645 3.50489 0
M  V30 1709 C 159.619 -3.84056 3.72028 0
M  V30 1710 C 160.919 -1.96302 4.84007 0
M  V30 1711 H 162.613 -0.86275 2.867 0
M  V30 1712 H 160.159 -0.413571 1.37933 0
M  V30 1713 H 162.112 -3.2886 2.63494 0
M  V30 1714 H 160.836 -2.92869 1.44552 0
M  V30 1715 H 159.495 -1.7489 3.22194 0
M  V30 1716 H 159.143 -4.18664 2.788 0
M  V30 1717 H 158.843 -3.7823 4.49684 0
M  V30 1718 H 160.367 -4.58854 4.02846 0
M  V30 1719 H 161.781 -2.59284 5.11317 0
M  V30 1720 H 160.178 -2.01429 5.65284 0
M  V30 1721 H 161.248 -0.917226 4.76146 0
M  V30 1722 N 162.591 -1.51276 -0.441967 0
M  V30 1723 C 163.554 -1.7167 -1.51862 0
M  V30 1724 C 164.554 -0.586793 -1.49711 0
M  V30 1725 O 165.744 -0.854276 -1.51815 0
M  V30 1726 C 162.876 -1.76889 -2.91416 0
M  V30 1727 H 164.069 -2.67754 -1.35084 0
M  V30 1728 H 161.622 -1.41196 -0.670333 0
M  V30 1729 H 162.357 -0.826026 -3.13604 0
M  V30 1730 H 162.142 -2.59001 -2.94382 0
M  V30 1731 H 163.632 -1.94522 -3.69528 0
M  V30 1732 N 164.069 0.697108 -1.41344 0
M  V30 1733 C 165.318 1.45279 -1.39918 0
M  V30 1734 C 165.631 1.95597 -0.0109624 0
M  V30 1735 O 166.837 2.71208 0.125919 0
M  V30 1736 C 165.293 2.62695 -2.46007 0
M  V30 1737 C 164.901 2.19169 -3.90729 0
M  V30 1738 C 166.645 3.40336 -2.53715 0
M  V30 1739 C 164.552 3.33535 -4.88373 0
M  V30 1740 H 163.482 0.545692 -0.520323 0
M  V30 1741 H 166.133 0.756929 -1.67161 0
M  V30 1742 H 164.515 3.34541 -2.11892 0
M  V30 1743 H 165.689 1.54623 -4.34083 0
M  V30 1744 H 164.004 1.54525 -3.86666 0
M  V30 1745 H 166.601 4.2547 -3.2385 0
M  V30 1746 H 166.944 3.85418 -1.5735 0
M  V30 1747 H 167.477 2.75546 -2.86913 0
M  V30 1748 H 164.216 2.93468 -5.86137 0
M  V30 1749 H 163.736 3.96936 -4.49668 0
M  V30 1750 H 165.415 3.99335 -5.09059 0
M  V30 1751 N 165.547 1.27147 0.931209 0
M  V30 1752 C 166.477 1.12081 2.04842 0
M  V30 1753 C 167.458 0.0232364 1.70084 0
M  V30 1754 O 168.643 0.197085 1.93197 0
M  V30 1755 C 165.773 0.76354 3.38803 0
M  V30 1756 C 164.727 1.81396 3.87659 0
M  V30 1757 C 164.053 1.31075 5.18385 0
M  V30 1758 C 165.353 3.21739 4.11438 0
M  V30 1759 H 167.047 2.05537 2.17703 0
M  V30 1760 H 164.593 0.989603 1.04608 0
M  V30 1761 H 166.546 0.644982 4.16435 0
M  V30 1762 H 165.27 -0.206727 3.25945 0
M  V30 1763 H 163.929 1.92136 3.12217 0
M  V30 1764 H 163.577 0.330037 5.01916 0
M  V30 1765 H 163.277 2.013 5.52044 0
M  V30 1766 H 164.801 1.20506 5.98591 0
M  V30 1767 H 166.215 3.14019 4.79651 0
M  V30 1768 H 164.612 3.89644 4.56397 0
M  V30 1769 H 165.682 3.67054 3.16859 0
M  V30 1770 N 167.025 -1.13721 1.09112 0
M  V30 1771 C 167.955 -2.21148 0.749385 0
M  V30 1772 C 168.936 -1.6792 -0.271475 0
M  V30 1773 O 170.121 -1.93693 -0.140251 0
M  V30 1774 C 167.251 -3.46905 0.165659 0
M  V30 1775 C 166.205 -4.13203 1.11567 0
M  V30 1776 C 165.531 -5.33248 0.393809 0
M  V30 1777 C 166.831 -4.60912 2.45678 0
M  V30 1778 H 168.525 -2.4999 1.64758 0
M  V30 1779 H 166.071 -1.20156 0.793626 0
M  V30 1780 H 168.024 -4.21313 -0.085466 0
M  V30 1781 H 166.748 -3.17449 -0.767714 0
M  V30 1782 H 165.407 -3.40758 1.35202 0
M  V30 1783 H 165.055 -5.00054 -0.543599 0
M  V30 1784 H 164.755 -5.78552 1.02721 0
M  V30 1785 H 166.279 -6.10413 0.150908 0
M  V30 1786 H 167.693 -5.26759 2.26269 0
M  V30 1787 H 166.09 -5.16944 3.04776 0
M  V30 1788 H 167.16 -3.75603 3.06677 0
M  V30 1789 N 168.503 -0.877838 -1.30888 0
M  V30 1790 C 169.751 -0.491723 -1.96027 0
M  V30 1791 C 170.072 0.960827 -1.69685 0
M  V30 1792 O 169.342 1.67462 -1.01654 0
M  V30 1793 H 167.922 -0.17885 -0.725273 0
M  V30 1794 H 170.584 -1.11935 -1.59551 0
M  V30 1795 H 169.68 -0.656016 -3.05128 0
M  V30 1796 N 169.982 1.44106 -0.638065 0
M  V30 1797 C 170.915 2.27924 0.112161 0
M  V30 1798 C 171.893 1.38945 0.844574 0
M  V30 1799 O 173.077 1.68386 0.847248 0
M  V30 1800 C 170.204 3.18029 1.16512 0
M  V30 1801 C 169.25 4.23163 0.532458 0
M  V30 1802 S 170.083 5.31131 -0.682666 0
M  V30 1803 C 171.239 6.24805 0.37013 0
M  V30 1804 H 171.472 2.91205 -0.598887 0
M  V30 1805 H 169.005 1.48394 -0.426441 0
M  V30 1806 H 170.963 3.70492 1.76766 0
M  V30 1807 H 169.624 2.53955 1.8484 0
M  V30 1808 H 168.817 4.86252 1.32571 0
M  V30 1809 H 168.419 3.74 0.00437644 0
M  V30 1810 H 170.711 6.66042 1.24071 0
M  V30 1811 H 171.654 7.07741 -0.225349 0
M  V30 1812 H 172.062 5.60154 0.699141 0
M  V30 1813 N 171.46 0.379036 1.52974 0
M  V30 1814 C 172.39 -0.452706 2.29069 0
M  V30 1815 C 173.371 -1.07237 1.32039 0
M  V30 1816 O 174.556 -1.08708 1.60923 0
M  V30 1817 C 171.686 -1.5856 3.08992 0
M  V30 1818 C 170.64 -1.0925 4.13822 0
M  V30 1819 C 169.966 -2.31668 4.81907 0
M  V30 1820 C 171.266 -0.167702 5.22031 0
M  V30 1821 H 172.96 0.182181 2.98845 0
M  V30 1822 H 170.506 0.0890592 1.43724 0
M  V30 1823 H 172.459 -2.1742 3.6098 0
M  V30 1824 H 171.183 -2.24792 2.36931 0
M  V30 1825 H 169.842 -0.526494 3.628 0
M  V30 1826 H 169.49 -2.96386 4.06404 0
M  V30 1827 H 169.19 -1.9934 5.52754 0
M  V30 1828 H 170.714 -2.91189 5.36695 0
M  V30 1829 H 172.128 -0.664186 5.6944 0
M  V30 1830 H 170.525 0.0653265 6.00064 0
M  V30 1831 H 171.595 0.786347 4.78482 0
M  V30 1832 N 172.938 -1.57226 0.108567 0
M  V30 1833 C 174.215 -1.86333 -0.594939 0
M  V30 1834 C 174.595 -1.00788 -1.85486 0
M  V30 1835 O 173.943 -0.0839293 -2.28346 0
M  V30 1836 C 174.153 -3.37265 -0.897405 0
M  V30 1837 C 175.501 -4.05629 -1.25501 0
M  V30 1838 O 176.525 -3.42224 -0.987998 0
M  V30 1839 O 175.384 -5.17531 -1.75567 0
M  V30 1840 H 172.478 -0.771018 -0.2991 0
M  V30 1841 H 175.024 -1.69102 0.142283 0
M  V30 1842 H 173.796 -3.913 -0.00413806 0
M  V30 1843 H 173.419 -3.59889 -1.69014 0
M  V30 1844 N 174.416 0.165178 -1.56732 0
M  V30 1845 C 175.827 0.727046 -1.71962 0
M  V30 1846 C 176.178 1.82508 -0.720078 0
M  V30 1847 O 175.303 2.16082 0.117242 0
M  V30 1848 C 175.898 1.32559 -3.11791 0
M  V30 1849 C 174.457 1.83422 -3.28684 0
M  V30 1850 C 173.604 0.715567 -2.67908 0
M  V30 1851 H 176.555 -0.0602896 -1.58585 0
M  V30 1852 H 176.576 2.19533 -3.10782 0
M  V30 1853 H 176.088 0.526195 -3.84516 0
M  V30 1854 H 174.189 2.65986 -2.60926 0
M  V30 1855 H 174.302 1.97543 -4.36478 0
M  V30 1856 H 172.666 1.13758 -2.27884 0
M  V30 1857 H 173.449 -0.0720836 -3.43224 0
M  V30 1858 N 175.894 1.51508 0.433938 0
M  V30 1859 C 176.857 1.72473 1.50949 0
M  V30 1860 C 177.857 0.594725 1.49398 0
M  V30 1861 O 179.047 0.862315 1.5136 0
M  V30 1862 C 176.179 1.78431 2.90474 0
M  V30 1863 H 177.372 2.68467 1.33662 0
M  V30 1864 H 174.925 1.41549 0.662836 0
M  V30 1865 H 175.66 0.842645 3.13161 0
M  V30 1866 H 175.445 2.60558 2.93005 0
M  V30 1867 H 176.935 1.96479 3.68491 0
M  V30 1868 N 177.372 -0.689602 1.41712 0
M  V30 1869 C 178.282 -1.83314 1.46401 0
M  V30 1870 C 179.298 -1.7036 0.35405 0
M  V30 1871 O 180.474 -1.92171 0.602692 0
M  V30 1872 C 177.539 -3.19344 1.34982 0
M  V30 1873 C 176.6 -3.44363 2.56344 0
M  V30 1874 C 175.833 -4.73904 2.45461 0
M  V30 1875 O 176.056 -5.508 1.48241 0
M  V30 1876 O 174.99 -4.99839 3.35328 0
M  V30 1877 H 178.816 -1.82314 2.42889 0
M  V30 1878 H 176.401 -0.843438 1.23315 0
M  V30 1879 H 178.283 -4.00547 1.3092 0
M  V30 1880 H 176.958 -3.21014 0.41612 0
M  V30 1881 H 175.865 -2.63067 2.65982 0
M  V30 1882 H 177.198 -3.47512 3.48563 0
M  V30 1883 N 178.85 -1.27639 -0.924453 0
M  V30 1884 C 179.797 -1.10644 -2.0255 0
M  V30 1885 C 180.767 -0.00658438 -1.66099 0
M  V30 1886 O 181.952 -0.16952 -1.90045 0
M  V30 1887 C 179.092 -0.76309 -3.36557 0
M  V30 1888 C 178.205 -1.94091 -3.85944 0
M  V30 1889 C 177.34 -1.53914 -5.08413 0
M  V30 1890 C 176.379 -2.68425 -5.50104 0
M  V30 1891 N 175.516 -2.28815 -6.63768 0
M  V30 1892 H 180.356 -2.04858 -2.16419 0
M  V30 1893 H 177.893 -1.01974 -1.06017 0
M  V30 1894 H 179.851 -0.544822 -4.13627 0
M  V30 1895 H 178.481 0.142102 -3.22487 0
M  V30 1896 H 177.533 -2.27162 -3.05125 0
M  V30 1897 H 178.845 -2.7998 -4.12811 0
M  V30 1898 H 177.999 -1.28231 -5.92994 0
M  V30 1899 H 176.738 -0.651391 -4.8333 0
M  V30 1900 H 175.743 -2.94819 -4.64071 0
M  V30 1901 H 176.968 -3.57826 -5.7718 0
M  V30 1902 H 174.914 -1.42495 -6.40337 0
M  V30 1903 H 174.831 -3.08242 -6.90306 0
M  V30 1904 H 176.099 -2.06387 -7.51681 0
M  V30 1905 N 180.328 1.1314 -1.09713 0
M  V30 1906 C 181.605 1.80762 -0.747302 0
M  V30 1907 C 181.985 1.96663 0.767265 0
M  V30 1908 O 181.333 1.53706 1.69076 0
M  V30 1909 C 181.543 3.15606 -1.48975 0
M  V30 1910 C 182.891 3.90914 -1.65746 0
M  V30 1911 O 183.915 3.25239 -1.45251 0
M  V30 1912 O 182.774 5.08718 -1.9967 0
M  V30 1913 H 179.868 0.782103 -0.268782 0
M  V30 1914 H 182.414 1.20041 -1.19951 0
M  V30 1915 H 181.186 2.99278 -2.52088 0
M  V30 1916 H 180.809 3.84029 -1.02991 0
M  V30 1917 N 181.806 0.884767 1.30421 0
M  V30 1918 C 182.716 0.355398 2.31892 0
M  V30 1919 C 183.732 -0.542261 1.65335 0
M  V30 1920 O 184.908 -0.435432 1.96637 0
M  V30 1921 C 181.973 -0.421661 3.44126 0
M  V30 1922 C 181.034 0.505727 4.26311 0
M  V30 1923 C 180.267 -0.234343 5.33185 0
M  V30 1924 O 180.49 -1.46045 5.51386 0
M  V30 1925 O 179.424 0.415443 6.00465 0
M  V30 1926 H 183.25 1.19685 2.79122 0
M  V30 1927 H 180.835 0.648596 1.34587 0
M  V30 1928 H 182.717 -0.861641 4.12497 0
M  V30 1929 H 181.392 -1.23942 2.99032 0
M  V30 1930 H 180.299 0.994513 3.60639 0
M  V30 1931 H 181.632 1.28948 4.75009 0
M  V30 1932 N 183.284 -1.43765 0.645699 0
M  V30 1933 C 184.231 -2.30745 -0.0504648 0
M  V30 1934 C 185.201 -1.4432 -0.822241 0
M  V30 1935 O 186.386 -1.73202 -0.800358 0
M  V30 1936 C 183.526 -3.29802 -1.0161 0
M  V30 1937 C 182.639 -4.31326 -0.241219 0
M  V30 1938 C 181.774 -5.17469 -1.19998 0
M  V30 1939 C 180.813 -6.10691 -0.415094 0
M  V30 1940 N 179.95 -6.89483 -1.32506 0
M  V30 1941 H 184.79 -2.8973 0.697155 0
M  V30 1942 H 182.327 -1.42738 0.355563 0
M  V30 1943 H 184.285 -3.85734 -1.58949 0
M  V30 1944 H 182.915 -2.72483 -1.73069 0
M  V30 1945 H 181.967 -3.77749 0.448334 0
M  V30 1946 H 183.279 -4.9743 0.369437 0
M  V30 1947 H 182.433 -5.7799 -1.84424 0
M  V30 1948 H 181.172 -4.51473 -1.84455 0
M  V30 1949 H 180.177 -5.49265 0.242565 0
M  V30 1950 H 181.402 -6.78727 0.224966 0
M  V30 1951 H 179.348 -6.26142 -1.95657 0
M  V30 1952 H 179.265 -7.52081 -0.768783 0
M  V30 1953 H 180.533 -7.54516 -1.9577 0
M  V30 1954 N 184.763 -0.387143 -1.52771 0
M  V30 1955 C 186.011 0.195349 -2.01154 0
M  V30 1956 C 186.332 1.475 -1.27549 0
M  V30 1957 O 185.602 1.91878 -0.394924 0
M  V30 1958 H 184.182 0.075178 -0.743207 0
M  V30 1959 H 186.844 -0.518337 -1.87881 0
M  V30 1960 H 185.94 0.407096 -3.09434 0
M  V30 1961 N 186.241 1.57166 -0.116904 0
M  V30 1962 C 187.174 2.10912 0.871291 0
M  V30 1963 C 188.152 1.025 1.26224 0
M  V30 1964 O 189.336 1.3014 1.36366 0
M  V30 1965 C 186.463 2.6041 2.16574 0
M  V30 1966 C 185.509 3.80687 1.92302 0
M  V30 1967 S 186.342 5.23199 1.14119 0
M  V30 1968 C 187.498 5.76064 2.44748 0
M  V30 1969 H 187.731 2.94401 0.414138 0
M  V30 1970 H 185.264 1.54096 0.096829 0
M  V30 1971 H 187.222 2.89583 2.9095 0
M  V30 1972 H 185.883 1.77106 2.59408 0
M  V30 1973 H 185.076 4.13462 2.8821 0
M  V30 1974 H 184.678 3.5212 1.26047 0
M  V30 1975 H 186.97 5.8566 3.406 0
M  V30 1976 H 187.913 6.74184 2.16521 0
M  V30 1977 H 188.321 5.04117 2.54019 0
M  V30 1978 N 187.719 -0.156864 1.56817 0
M  V30 1979 C 189.13 -0.717916 1.72345 0
M  V30 1980 C 189.481 -1.82124 0.729747 0
M  V30 1981 O 188.606 -2.16141 -0.105781 0
M  V30 1982 C 189.201 -1.30904 3.12489 0
M  V30 1983 C 187.76 -1.81676 3.29653 0
M  V30 1984 C 186.907 -0.701349 2.68284 0
M  V30 1985 H 189.858 0.0686989 1.58551 0
M  V30 1986 H 189.879 -2.17882 3.11942 0
M  V30 1987 H 189.391 -0.505796 3.8479 0
M  V30 1988 H 187.492 -2.64598 2.62333 0
M  V30 1989 H 187.605 -1.95226 4.3752 0
M  V30 1990 H 185.969 -1.12548 2.28484 0
M  V30 1991 H 186.752 0.0902846 3.43181 0
M  V30 1992 N 189.197 -1.51736 -0.425897 0
M  V30 1993 C 190.443 -1.65214 -1.1761 0
M  V30 1994 C 190.776 -0.372778 -1.90589 0
M  V30 1995 O 190.051 0.628139 -1.84078 0
M  V30 1996 C 190.334 -2.86312 -2.18398 0
M  V30 1997 C 190.187 -4.24254 -1.49426 0
M  V30 1998 C 191.506 -3.02925 -3.19256 0
M  V30 1999 H 188.625 -0.601263 -0.426206 0
M  V30 2000 H 191.267 -1.8425 -0.463882 0
M  V30 2001 H 189.417 -2.70213 -2.79137 0
M  V30 2002 H 191.089 -4.52046 -0.919362 0
M  V30 2003 H 189.332 -4.26426 -0.796432 0
M  V30 2004 H 190.003 -5.05001 -2.22885 0
M  V30 2005 H 192.479 -3.1781 -2.68581 0
M  V30 2006 H 191.355 -3.89199 -3.8706 0
M  V30 2007 H 191.616 -2.15497 -3.86023 0
M  V30 2008 N 190.675 0.682077 -1.42076 0
M  V30 2009 C 191.903 1.47057 -1.4554 0
M  V30 2010 C 192.318 1.8869 -0.0645779 0
M  V30 2011 O 191.675 1.57666 0.919115 0
M  V30 2012 C 191.726 2.72442 -2.37609 0
M  V30 2013 O 191.447 2.32559 -3.71279 0
M  V30 2014 C 192.948 3.66069 -2.50017 0
M  V30 2015 H 190.168 0.452737 -0.495248 0
M  V30 2016 H 192.712 0.838695 -1.8651 0
M  V30 2017 H 190.867 3.31835 -1.9991 0
M  V30 2018 H 191.281 3.13475 -4.20516 0
M  V30 2019 H 192.755 4.50792 -3.18576 0
M  V30 2020 H 193.232 4.11476 -1.53572 0
M  V30 2021 H 193.838 3.12572 -2.88407 0
M  V30 2022 N 192.153 1.28127 0.917671 0
M  V30 2023 C 193.116 1.11744 2.00115 0
M  V30 2024 C 194.116 0.0583052 1.60694 0
M  V30 2025 O 195.306 0.303755 1.71531 0
M  V30 2026 C 192.438 0.704862 3.33533 0
M  V30 2027 H 193.631 2.07966 2.16079 0
M  V30 2028 H 191.184 1.11058 1.09981 0
M  V30 2029 H 191.919 -0.258299 3.2327 0
M  V30 2030 H 191.704 1.4699 3.63505 0
M  V30 2031 H 193.194 0.612768 4.1308 0
M  V30 2032 N 193.631 -1.12557 1.10312 0
M  V30 2033 C 195.047 -1.36036 0.834649 0
M  V30 2034 C 195.247 -1.93946 -0.546539 0
M  V30 2035 O 194.303 -2.16484 -1.29966 0
M  V30 2036 C 195.616 -2.30312 1.9333 0
M  V30 2037 C 197.164 -2.43906 1.9616 0
M  V30 2038 C 197.639 -3.41496 3.05195 0
M  V30 2039 N 199.13 -3.49053 3.04494 0
M  V30 2040 C 199.865 -4.24471 3.85502 0
M  V30 2041 N 199.361 -5.02966 4.76442 0
M  V30 2042 N 201.154 -4.19864 3.73725 0
M  V30 2043 H 193.305 -0.733246 1.99342 0
M  V30 2044 H 195.568 -0.385234 0.866198 0
M  V30 2045 H 195.274 -1.94933 2.92735 0
M  V30 2046 H 195.148 -3.30421 1.81939 0
M  V30 2047 H 197.535 -2.78567 0.973886 0
M  V30 2048 H 197.616 -1.4369 2.11629 0
M  V30 2049 H 197.26 -3.07565 4.04186 0
M  V30 2050 H 197.19 -4.41539 2.86968 0
M  V30 2051 H 199.681 -2.93053 2.38596 0
M  V30 2052 H 199.994 -5.57846 5.34815 0
M  V30 2053 H 198.339 -5.02167 4.80472 0
M  V30 2054 H 201.53 -3.57623 3.02032 0
M  V30 2055 H 201.703 -4.78386 4.37093 0
M  V30 2056 N 195.109 -0.891671 -1.2995 0
M  V30 2057 C 196.355 -0.514261 -1.96171 0
M  V30 2058 C 196.688 0.935506 -1.70182 0
M  V30 2059 O 195.963 1.66204 -1.01028 0
M  V30 2060 C 196.246 -0.797719 -3.51153 0
M  V30 2061 C 196.099 -2.2986 -3.86632 0
M  V30 2062 C 197.418 -0.278749 -4.39216 0
M  V30 2063 H 194.537 -0.188314 -0.712535 0
M  V30 2064 H 197.179 -1.11689 -1.53706 0
M  V30 2065 H 195.329 -0.284826 -3.87455 0
M  V30 2066 H 197.001 -2.88042 -3.60319 0
M  V30 2067 H 195.244 -2.76257 -3.34462 0
M  V30 2068 H 195.915 -2.44753 -4.94773 0
M  V30 2069 H 198.391 -0.717825 -4.09862 0
M  V30 2070 H 197.267 -0.506353 -5.46559 0
M  V30 2071 H 197.528 0.820266 -4.34424 0
M  V30 2072 N 196.587 1.43421 -0.653314 0
M  V30 2073 C 197.833 2.02111 -0.166992 0
M  V30 2074 C 198.166 1.51423 1.21592 0
M  V30 2075 O 197.441 0.707389 1.8118 0
M  V30 2076 C 197.724 3.5966 -0.177948 0
M  V30 2077 C 197.577 4.20579 -1.59478 0
M  V30 2078 C 198.896 4.37413 0.4856 0
M  V30 2079 H 196.015 0.734374 -0.0621557 0
M  V30 2080 H 198.657 1.70717 -0.834016 0
M  V30 2081 H 196.807 3.86537 0.390032 0
M  V30 2082 H 198.479 4.04732 -2.21336 0
M  V30 2083 H 196.722 3.77226 -2.14204 0
M  V30 2084 H 197.393 5.29665 -1.5543 0
M  V30 2085 H 199.869 4.161 0.00234528 0
M  V30 2086 H 198.745 5.47075 0.447207 0
M  V30 2087 H 199.006 4.13672 1.55974 0
M  V30 2088 N 198.065 0.39524 1.52563 0
M  V30 2089 C 199.312 -0.185044 2.01653 0
M  V30 2090 C 199.64 -1.46317 1.28146 0
M  V30 2091 O 198.895 -1.9213 0.372074 0
M  V30 2092 C 199.194 -0.493444 3.53977 0
M  V30 2093 C 198.86 0.69384 4.4553 0
M  V30 2094 C 197.522 1.01954 4.70275 0
M  V30 2095 C 199.874 1.48785 4.99512 0
M  V30 2096 C 197.202 2.14069 5.46252 0
M  V30 2097 C 199.554 2.59965 5.76716 0
M  V30 2098 C 198.218 2.93037 5.99738 0
M  V30 2099 H 197.488 -0.0677123 0.7379 0
M  V30 2100 H 200.135 0.533807 1.8391 0
M  V30 2101 H 198.44 -1.29369 3.69825 0
M  V30 2102 H 200.137 -0.955163 3.89458 0
M  V30 2103 H 196.727 0.429987 4.26438 0
M  V30 2104 H 200.911 1.24946 4.80315 0
M  V30 2105 H 196.167 2.40056 5.62302 0
M  V30 2106 H 200.341 3.21887 6.17545 0
M  V30 2107 H 197.968 3.8003 6.58393 0
M  V30 2108 N 199.544 -1.57102 0.125237 0
M  V30 2109 C 200.79 -1.95697 -0.532035 0
M  V30 2110 C 201.123 -1.009 -1.6593 0
M  V30 2111 O 200.398 -0.047347 -1.94442 0
M  V30 2112 C 200.681 -3.44181 -1.05884 0
M  V30 2113 C 200.534 -4.49752 0.0654392 0
M  V30 2114 C 201.853 -3.94655 -1.9477 0
M  V30 2115 H 198.972 -0.711571 -0.191925 0
M  V30 2116 H 201.614 -1.88923 0.20206 0
M  V30 2117 H 199.764 -3.50085 -1.68442 0
M  V30 2118 H 201.436 -4.55943 0.700982 0
M  V30 2119 H 199.679 -4.27653 0.727709 0
M  V30 2120 H 200.35 -5.50924 -0.344505 0
M  V30 2121 H 202.826 -3.91094 -1.42074 0
M  V30 2122 H 201.702 -4.99057 -2.28546 0
M  V30 2123 H 201.963 -3.35718 -2.87656 0
M  V30 2124 N 201.022 0.148545 -1.56898 0
M  V30 2125 C 202.269 0.861418 -1.83264 0
M  V30 2126 C 202.597 1.81239 -0.705883 0
M  V30 2127 O 201.852 1.93305 0.305212 0
M  V30 2128 C 202.151 1.67064 -3.1595 0
M  V30 2129 C 201.817 0.866591 -4.42494 0
M  V30 2130 C 200.479 0.644762 -4.76861 0
M  V30 2131 C 202.831 0.30418 -5.20312 0
M  V30 2132 C 200.159 -0.15021 -5.86508 0
M  V30 2133 C 202.511 -0.477824 -6.30793 0
M  V30 2134 C 201.175 -0.710244 -6.63711 0
M  V30 2135 H 200.445 0.315215 -0.670612 0
M  V30 2136 H 203.092 0.125142 -1.91091 0
M  V30 2137 H 201.397 2.47698 -3.03567 0
M  V30 2138 H 203.094 2.22566 -3.33565 0
M  V30 2139 H 199.684 1.04955 -4.15551 0
M  V30 2140 H 203.868 0.462844 -4.94137 0
M  V30 2141 H 199.124 -0.339796 -6.10455 0
M  V30 2142 H 203.298 -0.92076 -6.90286 0
M  V30 2143 H 200.925 -1.3281 -7.48509 0
M  V30 2144 N 202.5 1.5196 0.417844 0
M  V30 2145 C 203.748 1.65263 1.16329 0
M  V30 2146 C 204.069 0.380634 1.91249 0
M  V30 2147 O 203.339 -0.604214 1.86349 0
M  V30 2148 H 201.919 0.60912 0.432414 0
M  V30 2149 H 204.581 1.88969 0.477162 0
M  V30 2150 H 203.677 2.4896 1.88217 0
M  V30 2151 N 203.978 -0.674533 1.42435 0
M  V30 2152 C 205.389 -1.25514 1.38214 0
M  V30 2153 C 205.74 -1.96055 0.0755464 0
M  V30 2154 O 204.865 -2.00028 -0.8257 0
M  V30 2155 C 205.46 -2.28269 2.50357 0
M  V30 2156 C 204.019 -2.81856 2.49467 0
M  V30 2157 C 203.166 -1.56182 2.29134 0
M  V30 2158 H 206.117 -0.467902 1.51646 0
M  V30 2159 H 206.138 -3.10009 2.20624 0
M  V30 2160 H 205.65 -1.769 3.45439 0
M  V30 2161 H 203.751 -3.37346 1.58204 0
M  V30 2162 H 203.864 -3.30854 3.46515 0
M  V30 2163 H 202.228 -1.82761 1.774 0
M  V30 2164 H 203.011 -1.06778 3.26272 0
M  V30 2165 N 205.456 -1.28612 -0.910864 0
M  V30 2166 C 206.733 -1.06632 -1.63979 0
M  V30 2167 C 207.113 0.393351 -2.07403 0
M  V30 2168 O 206.461 1.37999 -1.82122 0
M  V30 2169 C 206.671 -2.0436 -2.8291 0
M  V30 2170 C 208.019 -2.34666 -3.5386 0
M  V30 2171 O 209.043 -2.02467 -2.93062 0
M  V30 2172 O 207.902 -2.89631 -4.63439 0
M  V30 2173 H 204.996 -0.407737 -0.7195 0
M  V30 2174 H 207.542 -1.39942 -0.959914 0
M  V30 2175 H 206.314 -3.02727 -2.47936 0
M  V30 2176 H 205.937 -1.71714 -3.58609 0
M  V30 2177 N 206.934 1.1197 -1.10907 0
M  V30 2178 C 207.881 2.17846 -0.762345 0
M  V30 2179 C 208.851 1.63995 0.263599 0
M  V30 2180 O 210.036 1.90273 0.141773 0
M  V30 2181 C 207.176 3.44487 -0.205651 0
M  V30 2182 C 206.289 4.12369 -1.28748 0
M  V30 2183 C 205.424 5.26674 -0.691919 0
M  V30 2184 C 204.463 5.86431 -1.75399 0
M  V30 2185 N 203.6 6.92142 -1.17833 0
M  V30 2186 H 208.44 2.46851 -1.6694 0
M  V30 2187 H 205.977 1.21188 -0.833776 0
M  V30 2188 H 207.935 4.16981 0.135037 0
M  V30 2189 H 206.565 3.15884 0.664613 0
M  V30 2190 H 205.617 3.38003 -1.74522 0
M  V30 2191 H 206.929 4.52844 -2.09125 0
M  V30 2192 H 206.083 6.05953 -0.300963 0
M  V30 2193 H 204.822 4.8749 0.143232 0
M  V30 2194 H 203.827 5.05835 -2.15432 0
M  V30 2195 H 205.052 6.27685 -2.59208 0
M  V30 2196 H 202.998 6.54985 -0.364725 0
M  V30 2197 H 202.915 7.31242 -1.91887 0
M  V30 2198 H 204.183 7.75237 -0.81408 0
M  V30 2199 N 208.412 0.89855 1.29475 0
M  V30 2200 C 209.359 0.373819 2.27753 0
M  V30 2201 C 210.329 -0.543444 1.56958 0
M  V30 2202 O 211.514 -0.468934 1.84948 0
M  V30 2203 C 208.654 -0.393648 3.42848 0
M  V30 2204 C 207.767 0.554379 4.28428 0
M  V30 2205 C 206.902 -0.230026 5.30702 0
M  V30 2206 C 205.941 0.712599 6.07938 0
M  V30 2207 N 205.078 -0.0373283 7.0209 0
M  V30 2208 H 209.918 1.21699 2.72017 0
M  V30 2209 H 207.455 0.611456 1.33789 0
M  V30 2210 H 209.413 -0.85466 4.08352 0
M  V30 2211 H 208.043 -1.20128 2.99615 0
M  V30 2212 H 207.095 1.13391 3.63107 0
M  V30 2213 H 208.407 1.27597 4.82204 0
M  V30 2214 H 207.561 -0.752288 6.02018 0
M  V30 2215 H 206.3 -0.984758 4.77654 0
M  V30 2216 H 205.305 1.24637 5.35486 0
M  V30 2217 H 206.53 1.46664 6.63074 0
M  V30 2218 H 204.476 -0.774348 6.51414 0
M  V30 2219 H 204.393 0.624374 7.53417 0
M  V30 2220 H 205.661 -0.539891 7.77628 0
M  V30 2221 N 209.89 -1.43072 0.660911 0
M  V30 2222 C 210.82 -2.33497 -0.0122829 0
M  V30 2223 C 211.801 -1.49903 -0.803925 0
M  V30 2224 O 212.986 -1.78546 -0.763864 0
M  V30 2225 C 210.116 -3.33363 -0.973994 0
M  V30 2226 C 209.07 -4.27003 -0.291928 0
M  V30 2227 C 208.396 -5.16967 -1.36562 0
M  V30 2228 C 209.696 -5.15816 0.820462 0
M  V30 2229 H 211.39 -2.90038 0.742873 0
M  V30 2230 H 208.936 -1.39461 0.358688 0
M  V30 2231 H 210.889 -3.95524 -1.45392 0
M  V30 2232 H 209.613 -2.75095 -1.7604 0
M  V30 2233 H 208.272 -3.66217 0.167623 0
M  V30 2234 H 207.92 -4.55034 -2.14366 0
M  V30 2235 H 207.62 -5.80441 -0.914454 0
M  V30 2236 H 209.144 -5.82003 -1.84675 0
M  V30 2237 H 210.558 -5.71742 0.422366 0
M  V30 2238 H 208.955 -5.8805 1.19656 0
M  V30 2239 H 210.025 -4.55045 1.67518 0
M  V30 2240 N 211.368 -0.403325 -1.52352 0
M  V30 2241 C 212.315 0.425011 -2.26853 0
M  V30 2242 C 213.285 1.04598 -1.29029 0
M  V30 2243 O 214.47 1.07135 -1.57882 0
M  V30 2244 C 211.61 1.53888 -3.08889 0
M  V30 2245 C 210.723 0.939396 -4.21663 0
M  V30 2246 C 209.858 2.02547 -4.91068 0
M  V30 2247 C 208.897 1.40263 -5.95813 0
M  V30 2248 N 208.034 2.4286 -6.58759 0
M  V30 2249 H 212.874 -0.21674 -2.97211 0
M  V30 2250 H 210.411 -0.118722 -1.4662 0
M  V30 2251 H 212.369 2.19558 -3.54753 0
M  V30 2252 H 210.999 2.15074 -2.40714 0
M  V30 2253 H 210.051 0.171898 -3.80011 0
M  V30 2254 H 211.363 0.44436 -4.96817 0
M  V30 2255 H 210.517 2.75958 -5.40308 0
M  V30 2256 H 209.256 2.55415 -4.15469 0
M  V30 2257 H 208.261 0.653833 -5.45898 0
M  V30 2258 H 209.486 0.881719 -6.73352 0
M  V30 2259 H 207.432 2.94871 -5.85992 0
M  V30 2260 H 207.349 1.98152 -7.2957 0
M  V30 2261 H 208.617 3.15858 -7.12639 0
M  V30 2262 N 212.846 1.57033 -0.133567 0
M  V30 2263 C 213.776 2.1909 0.807567 0
M  V30 2264 C 214.757 1.13517 1.26681 0
M  V30 2265 O 215.942 1.41809 1.32679 0
M  V30 2266 C 213.072 2.80188 2.05212 0
M  V30 2267 C 212.026 3.91471 1.73015 0
M  V30 2268 C 211.352 4.39443 3.04622 0
M  V30 2269 C 212.652 5.12886 0.987168 0
M  V30 2270 H 214.346 2.97988 0.290403 0
M  V30 2271 H 211.892 1.43335 0.138239 0
M  V30 2272 H 213.845 3.22264 2.71521 0
M  V30 2273 H 212.569 1.98601 2.59278 0
M  V30 2274 H 211.228 3.49993 1.0909 0
M  V30 2275 H 210.876 3.54695 3.56651 0
M  V30 2276 H 210.576 5.14495 2.83847 0
M  V30 2277 H 212.1 4.8418 3.72024 0
M  V30 2278 H 213.514 5.51891 1.55208 0
M  V30 2279 H 211.911 5.93615 0.87985 0
M  V30 2280 H 212.981 4.84894 -0.0235286 0
M  V30 2281 N 214.325 -0.140222 1.56975 0
M  V30 2282 C 215.55 -0.870414 1.88251 0
M  V30 2283 C 215.975 -1.73637 0.723312 0
M  V30 2284 O 215.333 -1.78329 -0.32689 0
M  V30 2285 C 215.381 -1.69737 3.18154 0
M  V30 2286 O 214.485 -2.80229 3.02565 0
M  V30 2287 H 213.826 -0.242025 0.61832 0
M  V30 2288 H 216.356 -0.128999 2.04193 0
M  V30 2289 H 216.366 -2.09099 3.50345 0
M  V30 2290 H 215.041 -1.06152 4.02125 0
M  V30 2291 H 213.618 -2.44224 2.81796 0
M  V30 2292 N 215.803 -1.52179 -0.40978 0
M  V30 2293 C 217.052 -1.65434 -1.15388 0
M  V30 2294 C 217.365 -0.390056 -1.91671 0
M  V30 2295 O 218.571 -0.402399 -2.68501 0
M  V30 2296 C 217.027 -2.92279 -2.10003 0
M  V30 2297 C 216.635 -4.25813 -1.39239 0
M  V30 2298 C 218.379 -3.14897 -2.84675 0
M  V30 2299 C 216.286 -5.43782 -2.32498 0
M  V30 2300 H 215.216 -0.616267 -0.434432 0
M  V30 2301 H 217.867 -1.78666 -0.418401 0
M  V30 2302 H 216.249 -2.72744 -2.871 0
M  V30 2303 H 217.423 -4.55828 -0.675099 0
M  V30 2304 H 215.738 -4.09292 -0.766097 0
M  V30 2305 H 218.335 -4.0021 -3.54593 0
M  V30 2306 H 218.678 -2.29103 -3.47588 0
M  V30 2307 H 219.211 -3.34901 -2.14677 0
M  V30 2308 H 215.95 -6.3192 -1.74233 0
M  V30 2309 H 215.47 -5.18106 -3.02201 0
M  V30 2310 H 217.149 -5.76834 -2.93038 0
M  V30 2311 N 217.281 0.66697 -1.42791 0
M  V30 2312 C 218.211 1.79218 -1.49677 0
M  V30 2313 C 219.192 1.66405 -0.352623 0
M  V30 2314 O 220.377 1.85708 -0.567993 0
M  V30 2315 C 217.507 3.17565 -1.40605 0
M  V30 2316 C 216.461 3.45124 -2.53127 0
M  V30 2317 C 215.787 4.83127 -2.29112 0
M  V30 2318 C 217.087 3.41236 -3.95418 0
M  V30 2319 H 218.781 1.73713 -2.43853 0
M  V30 2320 H 216.327 0.83432 -1.17367 0
M  V30 2321 H 218.28 3.96022 -1.44029 0
M  V30 2322 H 217.004 3.23767 -0.429271 0
M  V30 2323 H 215.663 2.69031 -2.49034 0
M  V30 2324 H 215.311 4.85988 -1.29709 0
M  V30 2325 H 215.011 5.02528 -3.04531 0
M  V30 2326 H 216.535 5.63859 -2.34297 0
M  V30 2327 H 217.949 4.09651 -4.01073 0
M  V30 2328 H 216.346 3.72173 -4.70752 0
M  V30 2329 H 217.416 2.39665 -4.21532 0
M  V30 2330 N 218.759 1.29093 0.90403 0
M  V30 2331 C 219.989 1.19516 1.68522 0
M  V30 2332 C 220.397 -0.24738 1.87576 0
M  V30 2333 O 219.74 -1.17798 1.40959 0
M  V30 2334 C 219.802 1.83249 3.0929 0
M  V30 2335 C 219.466 3.32531 3.13484 0
M  V30 2336 C 220.463 4.28821 2.93953 0
M  V30 2337 C 218.148 3.73656 3.35688 0
M  V30 2338 C 220.142 5.64212 2.96553 0
M  V30 2339 C 217.829 5.0917 3.37919 0
M  V30 2340 C 218.827 6.04258 3.18373 0
M  V30 2341 O 218.515 7.37298 3.20385 0
M  V30 2342 H 218.247 0.415467 0.533257 0
M  V30 2343 H 220.801 1.70912 1.13922 0
M  V30 2344 H 219.031 1.26358 3.65473 0
M  V30 2345 H 220.72 1.68054 3.69476 0
M  V30 2346 H 221.486 3.98382 2.76616 0
M  V30 2347 H 217.365 3.00101 3.49943 0
M  V30 2348 H 220.909 6.38407 2.81216 0
M  V30 2349 H 216.806 5.39256 3.54787 0
M  V30 2350 H 217.574 7.46048 3.36681 0
M  V30 2351 N 220.237 -1.11381 1.11499 0
M  V30 2352 C 221.648 -1.6465 0.880191 0
M  V30 2353 C 221.999 -1.87199 -0.587434 0
M  V30 2354 O 221.124 -1.60667 -1.44966 0
M  V30 2355 C 221.719 -2.99105 1.59128 0
M  V30 2356 C 220.278 -3.49279 1.40289 0
M  V30 2357 C 219.425 -2.24077 1.63354 0
M  V30 2358 H 222.376 -0.950123 1.27116 0
M  V30 2359 H 222.397 -3.66107 1.03664 0
M  V30 2360 H 221.909 -2.82661 2.65941 0
M  V30 2361 H 220.01 -3.70887 0.356888 0
M  V30 2362 H 220.123 -4.2803 2.15238 0
M  V30 2363 H 218.487 -2.31733 1.05698 0
M  V30 2364 H 219.27 -2.10175 2.71443 0
M  V30 2365 N 221.715 -0.905404 -1.28997 0
M  V30 2366 C 222.678 -0.392253 -2.25819 0
M  V30 2367 C 223.678 0.476753 -1.5357 0
M  V30 2368 O 224.868 0.280994 -1.71919 0
M  V30 2369 C 222 0.438588 -3.38067 0
M  V30 2370 H 223.193 -1.24743 -2.72725 0
M  V30 2371 H 220.746 -0.684051 -1.40536 0
M  V30 2372 H 221.481 1.31352 -2.96508 0
M  V30 2373 H 221.266 -0.184167 -3.91667 0
M  V30 2374 H 222.756 0.78873 -4.10084 0
M  V30 2375 N 223.193 1.4272 -0.668489 0
M  V30 2376 C 224.421 2.05966 -0.196348 0
M  V30 2377 C 224.836 1.50191 1.14403 0
M  V30 2378 O 224.193 0.639208 1.7094 0
M  V30 2379 C 224.244 3.61314 -0.115815 0
M  V30 2380 O 223.965 4.1502 -1.40322 0
M  V30 2381 C 225.466 4.41663 0.380579 0
M  V30 2382 H 222.686 0.663954 -0.0969829 0
M  V30 2383 H 225.23 1.82966 -0.913446 0
M  V30 2384 H 223.385 3.83448 0.551931 0
M  V30 2385 H 223.799 5.08832 -1.27243 0
M  V30 2386 H 225.273 5.5065 0.385848 0
M  V30 2387 H 225.75 4.15792 1.41471 0
M  V30 2388 H 226.356 4.24534 -0.255209 0
M  V30 2389 N 224.671 0.411399 1.52136 0
M  V30 2390 C 225.899 -0.163076 2.06256 0
M  V30 2391 C 226.314 -1.3867 1.28125 0
M  V30 2392 O 225.671 -1.79423 0.333721 0
M  V30 2393 C 225.722 -0.511252 3.57867 0
M  V30 2394 O 225.443 0.66378 4.33042 0
M  V30 2395 C 226.944 -1.13921 4.28412 0
M  V30 2396 H 224.164 -0.0193897 0.67072 0
M  V30 2397 H 226.708 0.583007 1.96013 0
M  V30 2398 H 224.863 -1.20723 3.6811 0
M  V30 2399 H 225.277 0.372601 5.23175 0
M  V30 2400 H 226.751 -1.33302 5.35663 0
M  V30 2401 H 227.228 -2.11296 3.85033 0
M  V30 2402 H 227.834 -0.483373 4.22544 0
M  V30 2403 N 226.149 -1.5696 0.141893 0
M  V30 2404 C 227.397 -1.95573 -0.509484 0
M  V30 2405 C 227.718 -1.02746 -1.65736 0
M  V30 2406 O 226.988 -0.0880311 -1.95702 0
M  V30 2407 H 225.568 -0.722115 -0.191205 0
M  V30 2408 H 228.23 -1.93697 0.216196 0
M  V30 2409 H 227.326 -2.99171 -0.889 0
M  V30 2410 N 227.627 0.131896 -1.57047 0
M  V30 2411 C 229.043 0.485031 -1.52051 0
M  V30 2412 C 229.243 1.82563 -0.85281 0
M  V30 2413 O 228.299 2.48817 -0.429694 0
M  V30 2414 C 229.612 0.481409 -2.96821 0
M  V30 2415 C 231.16 0.565868 -3.07842 0
M  V30 2416 C 231.635 0.592762 -4.54148 0
M  V30 2417 N 233.126 0.654564 -4.58552 0
M  V30 2418 C 233.861 0.696608 -5.69153 0
M  V30 2419 N 233.357 0.697078 -6.89284 0
M  V30 2420 N 235.15 0.738639 -5.57226 0
M  V30 2421 H 227.301 -0.746664 -1.98843 0
M  V30 2422 H 229.564 -0.273999 -0.90754 0
M  V30 2423 H 229.27 -0.435731 -3.4899 0
M  V30 2424 H 229.144 1.3139 -3.53577 0
M  V30 2425 H 231.531 1.47343 -2.55684 0
M  V30 2426 H 231.612 -0.29406 -2.54104 0
M  V30 2427 H 231.256 -0.310701 -5.06949 0
M  V30 2428 H 231.186 1.46939 -5.05684 0
M  V30 2429 H 233.677 0.660887 -3.72076 0
M  V30 2430 H 233.99 0.731426 -7.69331 0
M  V30 2431 H 232.335 0.66471 -6.91814 0
M  V30 2432 H 235.526 0.735545 -4.62285 0
M  V30 2433 H 235.699 0.767938 -6.43434 0
M  V30 2434 N 229.106 1.52395 0.401703 0
M  V30 2435 C 230.054 1.7689 1.51039 0
M  V30 2436 C 231.048 0.636298 1.56996 0
M  V30 2437 O 232.254 0.818507 1.60314 0
M  V30 2438 H 228.629 0.559502 0.502456 0
M  V30 2439 H 230.6 2.69757 1.27568 0
M  V30 2440 C 229.349 1.94331 2.88324 0
M  V30 2441 H 228.672 2.80905 2.84486 0
M  V30 2442 H 230.112 2.15466 3.65172 0
M  V30 2443 C 228.571 0.712396 3.29282 0
M  V30 2444 O 229.101 -0.116218 4.01532 0
M  V30 2445 N 227.307 0.546154 2.85422 0
M  V30 2446 H 226.854 1.22156 2.26794 0
M  V30 2447 H 226.812 -0.276113 3.13185 0
M  V30 2448 N 230.584 -0.659388 1.43143 0
M  V30 2449 C 231.831 -1.41935 1.44433 0
M  V30 2450 C 232.159 -1.94387 0.0663522 0
M  V30 2451 O 231.414 -1.72314 -0.927706 0
M  V30 2452 C 231.713 -2.62206 2.42864 0
M  V30 2453 C 231.379 -2.28208 3.88886 0
M  V30 2454 C 230.041 -2.18647 4.28657 0
M  V30 2455 C 232.393 -2.00887 4.8093 0
M  V30 2456 C 229.721 -1.79914 5.58433 0
M  V30 2457 C 232.073 -1.63653 6.11065 0
M  V30 2458 C 230.737 -1.52614 6.49819 0
M  V30 2459 H 230.007 -0.519376 0.528517 0
M  V30 2460 H 232.654 -0.750453 1.76183 0
M  V30 2461 H 230.959 -3.34199 2.04495 0
M  V30 2462 H 232.656 -3.2041 2.41119 0
M  V30 2463 H 229.246 -2.36557 3.57406 0
M  V30 2464 H 233.43 -2.07198 4.5098 0
M  V30 2465 H 228.686 -1.69948 5.87305 0
M  V30 2466 H 232.86 -1.41543 6.81864 0
M  V30 2467 H 230.487 -1.22371 7.50286 0
M  V30 2468 N 232.062 -1.29571 -0.897171 0
M  V30 2469 C 233.339 -1.08365 -1.62839 0
M  V30 2470 C 233.719 0.371331 -2.07808 0
M  V30 2471 O 233.067 1.3606 -1.83576 0
M  V30 2472 C 233.277 -2.0735 -2.80726 0
M  V30 2473 C 234.625 -2.38406 -3.51351 0
M  V30 2474 O 235.649 -2.05564 -2.90898 0
M  V30 2475 O 234.508 -2.9453 -4.60341 0
M  V30 2476 H 231.602 -0.415345 -0.715134 0
M  V30 2477 H 234.148 -1.40952 -0.945018 0
M  V30 2478 H 232.92 -3.05339 -2.44711 0
M  V30 2479 H 232.543 -1.75507 -3.56767 0
M  V30 2480 N 233.54 1.10788 -1.12088 0
M  V30 2481 C 234.45 2.20599 -0.798338 0
M  V30 2482 C 235.466 1.72712 0.21135 0
M  V30 2483 O 236.642 2.01348 0.0458477 0
M  V30 2484 C 233.707 3.45771 -0.253674 0
M  V30 2485 C 232.768 4.08411 -1.32283 0
M  V30 2486 C 232.001 5.27608 -0.80406 0
M  V30 2487 O 232.224 5.69241 0.363478 0
M  V30 2488 O 231.158 5.8101 -1.57198 0
M  V30 2489 H 234.984 2.50614 -1.7154 0
M  V30 2490 H 232.569 1.19454 -0.897275 0
M  V30 2491 H 234.451 4.21376 0.0453691 0
M  V30 2492 H 233.126 3.1739 0.636005 0
M  V30 2493 H 232.033 3.34507 -1.67499 0
M  V30 2494 H 233.366 4.40986 -2.18614 0
M  V30 2495 N 235.018 0.912232 1.28515 0
M  V30 2496 C 236.267 0.540504 1.94323 0
M  V30 2497 C 236.58 -0.920044 1.72611 0
M  V30 2498 O 237.786 -1.39986 2.32629 0
M  V30 2499 C 236.242 0.915803 3.48053 0
M  V30 2500 C 235.85 2.39598 3.78546 0
M  V30 2501 C 237.594 0.614588 4.20027 0
M  V30 2502 C 235.501 2.71148 5.25578 0
M  V30 2503 H 234.431 0.198418 0.727424 0
M  V30 2504 H 237.082 1.11094 1.46049 0
M  V30 2505 H 235.464 0.274168 3.9505 0
M  V30 2506 H 236.638 3.08422 3.42364 0
M  V30 2507 H 234.953 2.66749 3.1974 0
M  V30 2508 H 237.55 0.827002 5.28266 0
M  V30 2509 H 237.893 -0.447531 4.13887 0
M  V30 2510 H 238.426 1.21462 3.78803 0
M  V30 2511 H 235.165 3.76207 5.36794 0
M  V30 2512 H 234.685 2.0696 5.62963 0
M  V30 2513 H 236.364 2.58072 5.93302 0
M  V30 2514 N 236.496 -1.42363 0.676048 0
M  V30 2515 C 237.426 -2.33497 0.0124832 0
M  V30 2516 C 238.407 -1.50748 -0.787981 0
M  V30 2517 O 239.592 -1.79346 -0.744884 0
M  V30 2518 C 236.722 -3.34377 -0.938582 0
M  V30 2519 C 235.676 -4.27289 -0.246622 0
M  V30 2520 C 235.002 -5.18386 -1.31071 0
M  V30 2521 C 236.302 -5.14916 0.875125 0
M  V30 2522 H 237.996 -2.89233 0.773593 0
M  V30 2523 H 235.542 -1.39073 0.37346 0
M  V30 2524 H 237.495 -3.97044 -1.41188 0
M  V30 2525 H 236.219 -2.76947 -1.73113 0
M  V30 2526 H 234.878 -3.66018 0.206456 0
M  V30 2527 H 234.526 -4.57282 -2.09528 0
M  V30 2528 H 234.226 -5.81378 -0.852839 0
M  V30 2529 H 235.75 -5.83929 -1.78492 0
M  V30 2530 H 237.164 -5.71262 0.482983 0
M  V30 2531 H 235.561 -5.86747 1.25887 0
M  V30 2532 H 236.631 -4.53242 1.72335 0
M  V30 2533 N 237.974 -0.419461 -1.51915 0
M  V30 2534 C 239.39 -0.0708431 -1.59443 0
M  V30 2535 C 239.59 1.41796 -1.43164 0
M  V30 2536 O 238.646 2.18596 -1.26381 0
M  V30 2537 C 239.959 -0.574991 -2.95151 0
M  V30 2538 C 241.507 -0.533867 -3.08413 0
M  V30 2539 C 241.982 -1.01469 -4.46618 0
M  V30 2540 N 243.473 -0.971939 -4.52888 0
M  V30 2541 C 244.208 -1.31505 -5.58116 0
M  V30 2542 N 243.704 -1.73014 -6.70849 0
M  V30 2543 N 245.497 -1.23436 -5.48379 0
M  V30 2544 H 237.648 -1.38836 -1.60743 0
M  V30 2545 H 239.911 -0.570998 -0.756747 0
M  V30 2546 H 239.617 -1.61597 -3.12377 0
M  V30 2547 H 239.491 0.00979777 -3.77199 0
M  V30 2548 H 241.878 0.498086 -2.90866 0
M  V30 2549 H 241.959 -1.15484 -2.28248 0
M  V30 2550 H 241.603 -2.04502 -4.6491 0
M  V30 2551 H 241.533 -0.370433 -5.25295 0
M  V30 2552 H 244.024 -0.666893 -3.71969 0
M  V30 2553 H 244.337 -1.97479 -7.47143 0
M  V30 2554 H 242.682 -1.76926 -6.72103 0
M  V30 2555 H 245.873 -0.908869 -4.59192 0
M  V30 2556 H 246.046 -1.50506 -6.30279 0
M  V30 2557 N 239.452 1.56882 -0.150215 0
M  V30 2558 C 240.698 1.96518 0.500834 0
M  V30 2559 C 241.031 1.03527 1.64304 0
M  V30 2560 O 240.306 0.0782751 1.94342 0
M  V30 2561 C 240.589 3.45822 1.00395 0
M  V30 2562 C 240.442 4.49591 -0.136983 0
M  V30 2563 C 241.761 3.97704 1.88467 0
M  V30 2564 H 238.88 0.714535 0.18058 0
M  V30 2565 H 241.522 1.88577 -0.232091 0
M  V30 2566 H 239.672 3.5272 1.62851 0
M  V30 2567 H 241.344 4.5477 -0.77343 0
M  V30 2568 H 239.587 4.26441 -0.795652 0
M  V30 2569 H 240.258 5.51402 0.256815 0
M  V30 2570 H 242.734 3.93304 1.35834 0
M  V30 2571 H 241.61 5.0263 2.20578 0
M  V30 2572 H 241.871 3.40252 2.82279 0
M  V30 2573 N 240.93 -0.123565 1.57115 0
M  V30 2574 C 242.176 -0.833386 1.84885 0
M  V30 2575 C 242.509 -1.79742 0.735292 0
M  V30 2576 O 241.784 -1.92764 -0.25925 0
M  V30 2577 C 242.067 -1.5873 3.23228 0
M  V30 2578 C 241.92 -0.643183 4.45178 0
M  V30 2579 C 243.239 -2.54453 3.59085 0
M  V30 2580 H 240.358 -0.301518 0.6725 0
M  V30 2581 H 243 -0.097778 1.89748 0
M  V30 2582 H 241.15 -2.21438 3.19214 0
M  V30 2583 H 242.822 -0.0253015 4.61293 0
M  V30 2584 H 241.065 0.0456139 4.33776 0
M  V30 2585 H 241.736 -1.20724 5.38637 0
M  V30 2586 H 244.212 -2.01853 3.63861 0
M  V30 2587 H 243.088 -3.04238 4.5687 0
M  V30 2588 H 243.349 -3.36906 2.86264 0
M  V30 2589 N 242.408 -1.52605 -0.393616 0
M  V30 2590 C 243.657 -1.66649 -1.13627 0
M  V30 2591 C 243.97 -0.410364 -1.91247 0
M  V30 2592 O 245.176 -0.430854 -2.68059 0
M  V30 2593 C 243.632 -2.9449 -2.06891 0
M  V30 2594 C 243.24 -4.27266 -1.34714 0
M  V30 2595 C 244.984 -3.17899 -2.81319 0
M  V30 2596 C 242.891 -5.46217 -2.26717 0
M  V30 2597 H 241.821 -0.62084 -0.427871 0
M  V30 2598 H 244.472 -1.791 -0.399428 0
M  V30 2599 H 242.854 -2.75774 -2.84191 0
M  V30 2600 H 244.028 -4.56518 -0.626714 0
M  V30 2601 H 242.343 -4.10081 -0.722643 0
M  V30 2602 H 244.94 -4.03949 -3.50328 0
M  V30 2603 H 245.283 -2.32777 -3.45139 0
M  V30 2604 H 245.816 -3.37159 -2.11113 0
M  V30 2605 H 242.555 -6.33733 -1.67521 0
M  V30 2606 H 242.075 -5.21283 -2.96689 0
M  V30 2607 H 243.754 -5.7991 -2.86903 0
M  V30 2608 N 243.887 0.651787 -1.4349 0
M  V30 2609 C 245.112 1.44434 -1.48841 0
M  V30 2610 C 245.537 1.8779 -0.107955 0
M  V30 2611 O 244.895 1.57464 0.898602 0
M  V30 2612 C 244.943 2.65458 -2.44059 0
M  V30 2613 O 244.047 3.64566 -1.92784 0
M  V30 2614 H 243.388 0.433005 -0.503391 0
M  V30 2615 H 245.918 0.797451 -1.88419 0
M  V30 2616 H 245.928 3.13255 -2.6141 0
M  V30 2617 H 244.603 2.33244 -3.4434 0
M  V30 2618 H 243.18 3.23716 -1.851 0
M  V30 2619 N 245.365 1.30045 0.890287 0
M  V30 2620 C 246.295 1.18541 2.01172 0
M  V30 2621 C 247.276 0.0773356 1.69924 0
M  V30 2622 O 248.461 0.25845 1.92473 0
M  V30 2623 C 245.591 0.870941 3.36202 0
M  V30 2624 C 244.545 1.93637 3.81692 0
M  V30 2625 C 243.871 1.475 5.13953 0
M  V30 2626 C 245.171 3.34666 4.00994 0
M  V30 2627 H 246.865 2.12359 2.11054 0
M  V30 2628 H 244.411 1.02238 1.01407 0
M  V30 2629 H 246.364 0.777141 4.14172 0
M  V30 2630 H 245.088 -0.102926 3.26438 0
M  V30 2631 H 243.747 2.01972 3.05946 0
M  V30 2632 H 243.395 0.489551 5.00612 0
M  V30 2633 H 243.095 2.1876 5.4536 0
M  V30 2634 H 244.619 1.39489 5.94454 0
M  V30 2635 H 246.033 3.2912 4.69417 0
M  V30 2636 H 244.43 4.03966 4.43769 0
M  V30 2637 H 245.5 3.76949 3.05021 0
M  V30 2638 N 246.843 -1.10192 1.12674 0
M  V30 2639 C 247.775 -2.16418 0.754701 0
M  V30 2640 C 248.788 -1.61309 -0.21986 0
M  V30 2641 O 249.977 -1.785 -0.000826841 0
M  V30 2642 C 247.077 -3.38762 0.096698 0
M  V30 2643 C 246.25 -4.23307 1.10136 0
M  V30 2644 C 245.309 -5.24092 0.470513 0
M  V30 2645 O 244.335 -5.57906 1.12824 0
M  V30 2646 N 245.537 -5.75491 -0.760948 0
M  V30 2647 H 248.302 -2.48943 1.66875 0
M  V30 2648 H 245.863 -1.25834 1.01869 0
M  V30 2649 H 247.855 -4.03291 -0.337384 0
M  V30 2650 H 246.425 -3.04192 -0.720153 0
M  V30 2651 H 245.645 -3.55036 1.71299 0
M  V30 2652 H 246.933 -4.76624 1.78064 0
M  V30 2653 H 246.331 -5.50222 -1.31424 0
M  V30 2654 H 244.888 -6.41792 -1.13781 0
M  V30 2655 N 248.321 -0.919034 -1.28029 0
M  V30 2656 C 249.251 -0.428581 -2.29533 0
M  V30 2657 C 250.232 0.50659 -1.62381 0
M  V30 2658 O 251.417 0.413195 -1.89753 0
M  V30 2659 C 248.547 0.327388 -3.45753 0
M  V30 2660 C 247.501 -0.519137 -4.2484 0
M  V30 2661 C 246.827 0.365486 -5.33449 0
M  V30 2662 C 248.127 -1.77914 -4.91064 0
M  V30 2663 H 249.821 -1.27687 -2.70807 0
M  V30 2664 H 247.367 -0.615428 -1.30186 0
M  V30 2665 H 249.32 0.681378 -4.15855 0
M  V30 2666 H 248.044 1.20963 -3.03374 0
M  V30 2667 H 246.703 -0.855717 -3.56473 0
M  V30 2668 H 246.351 1.24642 -4.87312 0
M  V30 2669 H 246.051 -0.197356 -5.87268 0
M  V30 2670 H 247.575 0.715241 -6.06396 0
M  V30 2671 H 248.989 -1.49374 -5.53498 0
M  V30 2672 H 247.386 -2.2848 -5.54903 0
M  V30 2673 H 248.456 -2.50382 -4.15255 0
M  V30 2674 N 249.799 1.42003 -0.683588 0
M  V30 2675 C 251.027 2.05746 -0.218182 0
M  V30 2676 C 251.442 1.51396 1.12804 0
M  V30 2677 O 250.799 0.657303 1.70252 0
M  V30 2678 C 250.85 3.61171 -0.154131 0
M  V30 2679 O 250.571 4.13508 -1.44716 0
M  V30 2680 C 252.072 4.42042 0.333713 0
M  V30 2681 H 249.292 0.662888 -0.10402 0
M  V30 2682 H 251.836 1.81987 -0.9328 0
M  V30 2683 H 249.991 3.84012 0.511231 0
M  V30 2684 H 250.405 5.07453 -1.32632 0
M  V30 2685 H 251.879 5.51028 0.327423 0
M  V30 2686 H 252.356 4.17269 1.37053 0
M  V30 2687 H 252.962 4.24239 -0.300222 0
M  V30 2688 N 251.277 0.427512 1.51691 0
M  V30 2689 C 252.24 -0.377132 2.26076 0
M  V30 2690 C 253.24 -0.958089 1.29141 0
M  V30 2691 O 254.43 -0.83408 1.52934 0
M  V30 2692 C 251.562 -1.53262 3.04506 0
M  V30 2693 H 252.755 0.27464 2.9864 0
M  V30 2694 H 250.308 0.180445 1.55255 0
M  V30 2695 H 251.043 -2.22072 2.36335 0
M  V30 2696 H 250.828 -1.12232 3.75694 0
M  V30 2697 H 252.318 -2.10135 3.60878 0
M  V30 2698 N 252.755 -1.56801 0.158532 0
M  V30 2699 C 253.665 -2.20916 -0.789518 0
M  V30 2700 C 254.681 -1.1969 -1.26294 0
M  V30 2701 O 255.857 -1.52308 -1.31773 0
M  V30 2702 C 252.922 -2.82727 -2.00665 0
M  V30 2703 C 251.983 -3.99114 -1.58134 0
M  V30 2704 C 251.216 -4.57968 -2.74045 0
M  V30 2705 O 251.439 -4.15704 -3.90572 0
M  V30 2706 O 250.373 -5.48047 -2.48855 0
M  V30 2707 H 254.199 -3.02464 -0.273681 0
M  V30 2708 H 251.784 -1.4924 -0.0690548 0
M  V30 2709 H 253.666 -3.21968 -2.71872 0
M  V30 2710 H 252.341 -2.04184 -2.51179 0
M  V30 2711 H 251.248 -3.64567 -0.839155 0
M  V30 2712 H 252.581 -4.79212 -1.12325 0
M  V30 2713 N 254.233 0.115231 -1.57178 0
M  V30 2714 C 255.18 1.14115 -2.00615 0
M  V30 2715 C 256.15 1.40939 -0.878941 0
M  V30 2716 O 257.335 1.52741 -1.14345 0
M  V30 2717 C 254.475 2.46156 -2.4187 0
M  V30 2718 C 253.588 2.26236 -3.68024 0
M  V30 2719 C 252.723 3.51534 -3.98243 0
M  V30 2720 C 251.762 3.26787 -5.17568 0
M  V30 2721 N 250.899 4.44298 -5.43639 0
M  V30 2722 H 255.739 0.763743 -2.88047 0
M  V30 2723 H 253.276 0.365615 -1.42484 0
M  V30 2724 H 255.234 3.23189 -2.63827 0
M  V30 2725 H 253.864 2.81783 -1.57475 0
M  V30 2726 H 252.916 1.40102 -3.5366 0
M  V30 2727 H 254.228 2.03929 -4.55208 0
M  V30 2728 H 253.382 4.36984 -4.20868 0
M  V30 2729 H 252.121 3.76876 -3.09541 0
M  V30 2730 H 251.126 2.39729 -4.94783 0
M  V30 2731 H 252.351 3.02812 -6.0785 0
M  V30 2732 H 250.297 4.69754 -4.57895 0
M  V30 2733 H 250.214 4.25109 -6.25154 0
M  V30 2734 H 251.482 5.3087 -5.70786 0
M  V30 2735 N 255.711 1.52812 0.385517 0
M  V30 2736 C 257.127 1.4214 0.725829 0
M  V30 2737 C 257.327 0.544589 1.94001 0
M  V30 2738 O 256.383 0.0193693 2.52493 0
M  V30 2739 C 257.696 2.85042 0.957668 0
M  V30 2740 C 259.244 2.94543 1.05892 0
M  V30 2741 C 259.719 4.38464 1.32337 0
M  V30 2742 N 261.21 4.41804 1.39151 0
M  V30 2743 C 261.945 5.5025 1.61285 0
M  V30 2744 N 261.441 6.68775 1.80866 0
M  V30 2745 N 263.234 5.37798 1.63492 0
M  V30 2746 H 255.385 2.08338 -0.413383 0
M  V30 2747 H 257.648 0.940016 -0.122775 0
M  V30 2748 H 257.354 3.51431 0.137568 0
M  V30 2749 H 257.228 3.27505 1.87137 0
M  V30 2750 H 259.615 2.28321 1.86959 0
M  V30 2751 H 259.696 2.55504 0.123057 0
M  V30 2752 H 259.34 5.05254 0.517793 0
M  V30 2753 H 259.27 4.75059 2.27214 0
M  V30 2754 H 261.761 3.56377 1.25713 0
M  V30 2755 H 262.074 7.47197 1.97271 0
M  V30 2756 H 260.419 6.71797 1.78083 0
M  V30 2757 H 263.61 4.44171 1.47749 0
M  V30 2758 H 263.783 6.22382 1.80402 0
M  V30 2759 N 257.189 -0.644168 1.43834 0
M  V30 2760 C 258.435 -1.40603 1.46146 0
M  V30 2761 C 258.768 -1.93997 0.0887717 0
M  V30 2762 O 258.043 -1.72854 -0.891724 0
M  V30 2763 C 258.326 -2.58086 2.51124 0
M  V30 2764 C 258.179 -2.10126 3.97702 0
M  V30 2765 C 259.498 -3.60291 2.52742 0
M  V30 2766 H 256.617 -0.509905 0.532134 0
M  V30 2767 H 259.259 -0.729502 1.75437 0
M  V30 2768 H 257.409 -3.15801 2.26278 0
M  V30 2769 H 259.081 -1.57342 4.33637 0
M  V30 2770 H 257.324 -1.41419 4.10101 0
M  V30 2771 H 257.995 -2.94649 4.66783 0
M  V30 2772 H 260.471 -3.12352 2.7491 0
M  V30 2773 H 259.347 -4.40032 3.28121 0
M  V30 2774 H 259.608 -4.1349 1.56455 0
M  V30 2775 N 258.668 -1.30515 -0.883378 0
M  V30 2776 C 259.631 -1.1701 -1.97082 0
M  V30 2777 C 260.631 -0.10089 -1.60483 0
M  V30 2778 O 261.821 -0.349127 -1.70666 0
M  V30 2779 C 258.953 -0.793045 -3.31547 0
M  V30 2780 H 260.146 -2.13622 -2.10489 0
M  V30 2781 H 257.699 -1.13935 -1.06998 0
M  V30 2782 H 258.434 0.172499 -3.23841 0
M  V30 2783 H 258.219 -1.56576 -3.5948 0
M  V30 2784 H 259.709 -0.722073 -4.1131 0
M  V30 2785 N 260.146 1.09593 -1.13257 0
M  V30 2786 C 261.374 1.855 -0.916378 0
M  V30 2787 C 261.789 1.81069 0.534738 0
M  V30 2788 O 261.146 1.20562 1.37007 0
M  V30 2789 C 261.197 3.33546 -1.39388 0
M  V30 2790 O 260.918 3.37927 -2.78813 0
M  V30 2791 C 262.419 4.26299 -1.21588 0
M  V30 2792 H 259.639 0.585991 -0.326887 0
M  V30 2793 H 262.183 1.38488 -1.5047 0
M  V30 2794 H 260.338 3.77992 -0.848597 0
M  V30 2795 H 260.752 4.30254 -2.9997 0
M  V30 2796 H 262.226 5.28341 -1.59876 0
M  V30 2797 H 262.703 4.38918 -0.157376 0
M  V30 2798 H 263.309 3.87668 -1.7491 0
M  V30 2799 N 261.624 0.925811 1.2754 0
M  V30 2800 C 263.035 0.610102 1.7645 0
M  V30 2801 C 263.386 -0.874723 1.75622 0
M  V30 2802 O 262.511 -1.68444 1.35851 0
M  V30 2803 C 263.106 1.10073 3.20421 0
M  V30 2804 C 261.665 0.835723 3.67005 0
M  V30 2805 C 260.812 1.26054 2.46993 0
M  V30 2806 H 263.763 1.10579 1.13833 0
M  V30 2807 H 263.784 0.447557 3.77859 0
M  V30 2808 H 263.296 2.18143 3.20991 0
M  V30 2809 H 261.397 -0.231249 3.71882 0
M  V30 2810 H 261.51 1.45193 4.56569 0
M  V30 2811 H 259.874 0.679111 2.45479 0
M  V30 2812 H 260.657 2.34984 2.50275 0
M  V30 2813 N 263.102 -1.41638 0.69111 0
M  V30 2814 C 264.348 -2.01598 0.220519 0
M  V30 2815 C 264.681 -1.54594 -1.17535 0
M  V30 2816 O 263.956 -0.755177 -1.79241 0
M  V30 2817 C 264.239 -3.59062 0.273243 0
M  V30 2818 C 264.092 -4.16203 1.70573 0
M  V30 2819 C 265.411 -4.38546 -0.369457 0
M  V30 2820 H 262.53 -0.732468 0.0816045 0
M  V30 2821 H 265.172 -1.68445 0.878986 0
M  V30 2822 H 263.322 -3.87435 -0.287411 0
M  V30 2823 H 264.994 -3.98722 2.31989 0
M  V30 2824 H 263.237 -3.71414 2.2413 0
M  V30 2825 H 263.908 -5.25358 1.69419 0
M  V30 2826 H 266.384 -4.1596 0.107977 0
M  V30 2827 H 265.26 -5.48069 -0.302002 0
M  V30 2828 H 265.521 -4.17662 -1.44951 0
M  V30 2829 N 264.58 -0.43555 -1.51462 0
M  V30 2830 C 265.857 0.191364 -1.94662 0
M  V30 2831 C 266.237 1.60254 -1.37411 0
M  V30 2832 O 265.585 2.2152 -0.560458 0
M  V30 2833 C 265.795 0.17091 -3.48581 0
M  V30 2834 C 267.143 0.377357 -4.2292 0
M  V30 2835 O 268.167 0.249104 -3.55328 0
M  V30 2836 O 267.026 0.63247 -5.42828 0
M  V30 2837 H 264.12 0.130932 -0.816569 0
M  V30 2838 H 266.666 -0.4934 -1.62369 0
M  V30 2839 H 265.438 -0.815738 -3.82703 0
M  V30 2840 H 265.061 0.898659 -3.87311 0
M  V30 2841 N 266.058 1.56714 -0.166846 0
M  V30 2842 C 267.304 1.97813 0.473473 0
M  V30 2843 C 267.659 1.05095 1.61161 0
M  V30 2844 O 266.952 0.0897541 1.9139 0
M  V30 2845 C 267.146 3.42889 1.00806 0
M  V30 2846 C 266.975 4.49635 -0.0767392 0
M  V30 2847 C 265.745 5.02566 -0.524894 0
M  V30 2848 C 267.943 5.06793 -0.875504 0
M  V30 2849 N 265.925 5.9294 -1.59047 0
M  V30 2850 C 267.296 5.93565 -1.79111 0
M  V30 2851 C 269.351 4.89306 -0.921083 0
M  V30 2852 C 268.054 6.64721 -2.74843 0
M  V30 2853 C 270.08 5.61179 -1.86633 0
M  V30 2854 C 269.442 6.47675 -2.76942 0
M  V30 2855 H 265.541 0.769093 0.141489 0
M  V30 2856 H 268.125 1.92874 -0.266031 0
M  V30 2857 H 266.296 3.48382 1.7171 0
M  V30 2858 H 268.028 3.71008 1.61664 0
M  V30 2859 H 264.783 4.73439 -0.123432 0
M  V30 2860 H 265.207 6.42831 -2.12361 0
M  V30 2861 H 269.849 4.22136 -0.23692 0
M  V30 2862 H 267.567 7.31107 -3.44249 0
M  V30 2863 H 271.153 5.49636 -1.90764 0
M  V30 2864 H 270.033 7.02313 -3.48893 0
M  V30 2865 N 267.536 -0.106894 1.57237 0
M  V30 2866 C 268.483 -1.13049 2.01217 0
M  V30 2867 C 269.453 -1.40471 0.886403 0
M  V30 2868 O 270.638 -1.52133 1.15153 0
M  V30 2869 C 267.778 -2.4487 2.43172 0
M  V30 2870 C 266.891 -2.24281 3.69218 0
M  V30 2871 C 266.026 -3.49417 4.00101 0
M  V30 2872 C 265.065 -3.24038 5.19294 0
M  V30 2873 N 264.202 -4.41409 5.45988 0
M  V30 2874 H 269.042 -0.748456 2.88448 0
M  V30 2875 H 266.579 -0.358054 1.42676 0
M  V30 2876 H 268.537 -3.21786 2.65537 0
M  V30 2877 H 267.167 -2.80944 1.58967 0
M  V30 2878 H 266.219 -1.38224 3.54398 0
M  V30 2879 H 267.531 -2.01512 4.56283 0
M  V30 2880 H 266.685 -4.34746 4.2318 0
M  V30 2881 H 265.424 -3.75229 3.11535 0
M  V30 2882 H 264.429 -2.37102 4.96047 0
M  V30 2883 H 265.654 -2.99584 6.09447 0
M  V30 2884 H 263.6 -4.67319 4.60379 0
M  V30 2885 H 263.517 -4.21788 6.274 0
M  V30 2886 H 264.785 -5.27836 5.73593 0
M  V30 2887 N 269.014 -1.53014 -0.377408 0
M  V30 2888 C 270.291 -1.59215 -1.13622 0
M  V30 2889 C 270.671 -0.392407 -2.07421 0
M  V30 2890 O 270.019 0.618342 -2.19975 0
M  V30 2891 C 270.229 -2.93669 -1.88573 0
M  V30 2892 C 271.577 -3.47822 -2.43526 0
M  V30 2893 O 272.601 -2.9562 -1.98715 0
M  V30 2894 O 271.46 -4.39055 -3.25412 0
M  V30 2895 H 268.554 -0.642625 -0.52054 0
M  V30 2896 H 271.1 -1.65353 -0.381625 0
M  V30 2897 H 269.872 -3.7243 -1.20048 0
M  V30 2898 H 269.495 -2.90968 -2.70968 0
M  V30 2899 N 270.492 0.636531 -1.44174 0
M  V30 2900 C 271.74 1.39343 -1.46383 0
M  V30 2901 C 272.061 1.94766 -0.0955715 0
M  V30 2902 O 271.331 1.75452 0.871395 0
M  V30 2903 H 269.911 0.517199 -0.538994 0
M  V30 2904 H 272.573 0.74957 -1.7991 0
M  V30 2905 H 271.669 2.22746 -2.18611 0
M  V30 2906 N 271.97 1.30982 0.876444 0
M  V30 2907 C 273.247 1.10942 1.61094 0
M  V30 2908 C 273.627 -0.338223 2.08373 0
M  V30 2909 O 272.975 -1.33122 1.85717 0
M  V30 2910 C 273.185 2.11789 2.77392 0
M  V30 2911 C 274.533 2.43965 3.47514 0
M  V30 2912 O 275.557 2.10166 2.87591 0
M  V30 2913 O 274.416 3.01817 4.55597 0
M  V30 2914 H 271.51 0.42667 0.708436 0
M  V30 2915 H 274.056 1.42438 0.922474 0
M  V30 2916 H 272.828 3.09194 2.39823 0
M  V30 2917 H 272.451 1.81161 3.5393 0
M  V30 2918 N 273.449 -1.08991 1.13837 0
M  V30 2919 C 274.674 -1.85551 0.926585 0
M  V30 2920 C 275.099 -1.80782 -0.519566 0
M  V30 2921 O 274.457 -1.18855 -1.36906 0
M  V30 2922 C 274.505 -3.31266 1.42462 0
M  V30 2923 O 273.609 -4.07822 0.612789 0
M  V30 2924 H 272.95 -0.575192 0.331738 0
M  V30 2925 H 275.48 -1.37604 1.51414 0
M  V30 2926 H 275.49 -3.82112 1.43019 0
M  V30 2927 H 274.165 -3.34052 2.47754 0
M  V30 2928 H 272.742 -3.66731 0.675463 0
M  V30 2929 N 274.927 -0.932562 -1.27047 0
M  V30 2930 C 276.173 -0.576412 -1.94436 0
M  V30 2931 C 276.506 0.880891 -1.73072 0
M  V30 2932 O 275.781 1.62905 -1.06264 0
M  V30 2933 C 276.064 -0.909031 -3.48437 0
M  V30 2934 C 275.917 -2.42044 -3.79123 0
M  V30 2935 C 277.236 -0.418341 -4.38107 0
M  V30 2936 H 274.355 -0.210888 -0.706184 0
M  V30 2937 H 276.997 -1.16522 -1.50075 0
M  V30 2938 H 275.147 -0.407947 -3.86352 0
M  V30 2939 H 276.819 -2.99359 -3.50973 0
M  V30 2940 H 275.062 -2.86758 -3.25503 0
M  V30 2941 H 275.733 -2.6037 -4.86736 0
M  V30 2942 H 278.209 -0.847856 -4.0737 0
M  V30 2943 H 277.085 -0.679981 -5.44672 0
M  V30 2944 H 277.346 0.681642 -4.36814 0
M  V30 2945 N 276.405 1.4127 -0.698611 0
M  V30 2946 C 277.338 2.28195 0.0153898 0
M  V30 2947 C 278.316 1.42402 0.784883 0
M  V30 2948 O 279.5 1.71828 0.775067 0
M  V30 2949 C 276.627 3.22685 1.02918 0
M  V30 2950 C 275.673 4.25041 0.352501 0
M  V30 2951 S 276.506 5.27757 -0.907322 0
M  V30 2952 C 277.662 6.25812 0.104796 0
M  V30 2953 H 277.895 2.88403 -0.721858 0
M  V30 2954 H 275.428 1.46452 -0.488996 0
M  V30 2955 H 277.386 3.77655 1.60893 0
M  V30 2956 H 276.047 2.61566 1.73902 0
M  V30 2957 H 275.24 4.91437 1.11828 0
M  V30 2958 H 274.842 3.73682 -0.154254 0
M  V30 2959 H 277.134 6.70705 0.957103 0
M  V30 2960 H 278.077 7.06149 -0.525323 0
M  V30 2961 H 278.485 5.62615 0.460931 0
M  V30 2962 N 277.883 0.443576 1.51229 0
M  V30 2963 C 279.129 -0.120975 2.02439 0
M  V30 2964 C 279.462 -1.41815 1.32674 0
M  V30 2965 O 278.737 -1.89373 0.443622 0
M  V30 2966 C 279.02 -0.333291 3.58554 0
M  V30 2967 C 278.873 0.982968 4.38928 0
M  V30 2968 C 280.192 -1.10028 4.26124 0
M  V30 2969 H 277.311 -0.0424923 0.735774 0
M  V30 2970 H 279.953 0.583794 1.80809 0
M  V30 2971 H 278.103 -0.933614 3.77115 0
M  V30 2972 H 279.775 1.61775 4.32003 0
M  V30 2973 H 278.018 1.58611 4.03763 0
M  V30 2974 H 278.689 0.788379 5.46341 0
M  V30 2975 H 281.165 -0.591711 4.11871 0
M  V30 2976 H 280.041 -1.21761 5.35225 0
M  V30 2977 H 280.302 -2.12996 3.87408 0
M  V30 2978 N 279.361 -1.56624 0.175154 0
M  V30 2979 C 280.291 -2.21155 -0.749195 0
M  V30 2980 C 281.272 -1.16836 -1.23626 0
M  V30 2981 O 282.457 -1.45277 -1.28873 0
M  V30 2982 C 279.587 -2.8553 -1.97711 0
M  V30 2983 C 278.541 -3.95921 -1.62575 0
M  V30 2984 C 277.867 -4.47365 -2.92864 0
M  V30 2985 C 279.167 -5.15323 -0.850838 0
M  V30 2986 H 280.861 -2.98653 -0.211295 0
M  V30 2987 H 278.407 -1.43651 -0.100188 0
M  V30 2988 H 280.36 -3.2935 -2.62881 0
M  V30 2989 H 279.084 -2.05406 -2.53921 0
M  V30 2990 H 277.743 -3.52762 -0.997719 0
M  V30 2991 H 277.391 -3.64027 -3.47122 0
M  V30 2992 H 277.091 -5.21839 -2.70106 0
M  V30 2993 H 278.615 -4.93873 -3.59056 0
M  V30 2994 H 280.029 -5.55812 -1.40521 0
M  V30 2995 H 278.426 -5.95739 -0.722154 0
M  V30 2996 H 279.496 -4.84661 0.152082 0
M  V30 2997 N 280.839 0.0985539 -1.57292 0
M  V30 2998 C 282.25 0.653457 -1.74891 0
M  V30 2999 C 282.601 1.7929 -0.796838 0
M  V30 3000 O 281.726 2.16385 0.0254886 0
M  V30 3001 C 282.321 1.19216 -3.17133 0
M  V30 3002 C 280.88 1.69316 -3.36168 0
M  V30 3003 C 280.027 0.601294 -2.70702 0
M  V30 3004 H 282.978 -0.127497 -1.58187 0
M  V30 3005 H 282.999 2.06154 -3.19814 0
M  V30 3006 H 282.511 0.362635 -3.86402 0
M  V30 3007 H 280.612 2.5468 -2.71972 0
M  V30 3008 H 280.725 1.78853 -4.44464 0
M  V30 3009 H 279.089 1.0399 -2.32504 0
M  V30 3010 H 279.872 -0.217592 -3.4261 0
M  V30 3011 N 282.317 1.53212 0.369288 0
M  V30 3012 C 283.545 1.73119 1.13303 0
M  V30 3013 C 283.96 0.458455 1.83149 0
M  V30 3014 O 283.317 -0.568403 1.73423 0
M  V30 3015 C 283.368 2.89413 2.16616 0
M  V30 3016 O 283.089 4.11761 1.49614 0
M  V30 3017 C 284.59 3.21161 3.05566 0
M  V30 3018 H 281.81 0.579107 0.338934 0
M  V30 3019 H 284.354 1.99942 0.429338 0
M  V30 3020 H 282.509 2.64994 2.82589 0
M  V30 3021 H 282.923 4.76858 2.18419 0
M  V30 3022 H 284.397 4.05949 3.74045 0
M  V30 3023 H 284.874 2.36369 3.70171 0
M  V30 3024 H 285.48 3.47492 2.45213 0
M  V30 3025 N 283.795 -0.628877 1.44509 0
M  V30 3026 C 285.044 -1.38437 1.4669 0
M  V30 3027 C 285.357 -1.95322 0.104272 0
M  V30 3028 O 286.563 -2.715 0.00362163 0
M  V30 3029 C 285.019 -2.50659 2.5826 0
M  V30 3030 C 284.627 -2.00277 4.0074 0
M  V30 3031 C 286.371 -3.27844 2.69664 0
M  V30 3032 C 284.278 -3.09854 5.0373 0
M  V30 3033 H 283.208 -0.520245 0.545766 0
M  V30 3034 H 285.859 -0.676313 1.70582 0
M  V30 3035 H 284.241 -3.2405 2.27612 0
M  V30 3036 H 285.415 -1.33736 4.40966 0
M  V30 3037 H 283.73 -1.35901 3.93599 0
M  V30 3038 H 286.327 -4.09534 3.43781 0
M  V30 3039 H 286.67 -3.77471 1.75559 0
M  V30 3040 H 287.203 -2.61543 2.99733 0
M  V30 3041 H 283.942 -2.65168 5.99472 0
M  V30 3042 H 283.462 -3.7503 4.68095 0
M  V30 3043 H 285.141 -3.74592 5.27532 0
M  V30 3044 N 285.273 -1.31445 -0.869486 0
M  V30 3045 C 286.684 -1.19042 -1.43826 0
M  V30 3046 C 287.035 0.202919 -1.95148 0
M  V30 3047 O 286.16 1.10071 -1.86315 0
M  V30 3048 C 286.755 -2.15499 -2.6143 0
M  V30 3049 C 285.314 -2.07028 -3.14351 0
M  V30 3050 C 284.461 -2.04701 -1.87063 0
M  V30 3051 H 287.412 -1.43489 -0.677984 0
M  V30 3052 H 287.433 -1.74488 -3.38134 0
M  V30 3053 H 286.945 -3.16899 -2.24046 0
M  V30 3054 H 285.046 -1.08825 -3.56354 0
M  V30 3055 H 285.159 -2.96157 -3.766 0
M  V30 3056 H 283.523 -1.49724 -2.06046 0
M  V30 3057 H 284.306 -3.07857 -1.51917 0
M  V30 3058 N 286.751 1.08385 -1.14413 0
M  V30 3059 C 287.661 2.18856 -0.844951 0
M  V30 3060 C 288.677 1.73121 0.174668 0
M  V30 3061 O 289.853 2.014 0.00312857 0
M  V30 3062 C 286.918 3.45155 -0.32696 0
M  V30 3063 C 285.979 4.05513 -1.40916 0
M  V30 3064 C 285.212 5.25784 -0.915793 0
M  V30 3065 O 285.435 5.69884 0.242651 0
M  V30 3066 O 284.369 5.77545 -1.69487 0
M  V30 3067 H 288.195 2.46919 -1.76818 0
M  V30 3068 H 285.78 1.17524 -0.922411 0
M  V30 3069 H 287.662 4.21377 -0.0440211 0
M  V30 3070 H 286.337 3.18668 0.568539 0
M  V30 3071 H 285.244 3.30879 -1.74556 0
M  V30 3072 H 286.577 4.3625 -2.27919 0
M  V30 3073 N 288.23 0.939286 1.26551 0
M  V30 3074 C 289.14 0.453432 2.30176 0
M  V30 3075 C 290.156 -0.471649 1.67486 0
M  V30 3076 O 291.332 -0.35164 1.98306 0
M  V30 3077 C 288.397 -0.275326 3.45605 0
M  V30 3078 C 287.458 0.686084 4.23782 0
M  V30 3079 C 286.691 -0.00798994 5.33699 0
M  V30 3080 O 286.914 -1.22528 5.57085 0
M  V30 3081 O 285.848 0.669746 5.98162 0
M  V30 3082 H 289.674 1.31416 2.73795 0
M  V30 3083 H 287.259 0.705095 1.31715 0
M  V30 3084 H 289.141 -0.685911 4.1578 0
M  V30 3085 H 287.816 -1.11147 3.0402 0
M  V30 3086 H 286.723 1.14658 3.56096 0
M  V30 3087 H 288.056 1.48979 4.69112 0
M  V30 3088 N 289.708 -1.40897 0.706093 0
M  V30 3089 C 290.618 -2.3455 0.0482286 0
M  V30 3090 C 291.634 -1.56796 -0.754396 0
M  V30 3091 O 292.81 -1.89228 -0.689538 0
M  V30 3092 C 289.875 -3.35625 -0.869303 0
M  V30 3093 C 288.936 -4.29261 -0.0576994 0
M  V30 3094 C 288.169 -5.25508 -0.931531 0
M  V30 3095 O 288.392 -5.27472 -2.17092 0
M  V30 3096 O 287.326 -6.00727 -0.375587 0
M  V30 3097 H 291.152 -2.92407 0.820476 0
M  V30 3098 H 288.737 -1.4193 0.4665 0
M  V30 3099 H 290.619 -3.97635 -1.39514 0
M  V30 3100 H 289.294 -2.80196 -1.62086 0
M  V30 3101 H 288.201 -3.70566 0.512988 0
M  V30 3102 H 289.534 -4.87817 0.655426 0
M  V30 3103 N 291.186 -0.45159 -1.50991 0
M  V30 3104 C 292.149 0.341117 -2.26647 0
M  V30 3105 C 293.149 0.937422 -1.30649 0
M  V30 3106 O 294.339 0.809644 -1.54241 0
M  V30 3107 C 291.471 1.48398 -3.06905 0
M  V30 3108 H 292.664 -0.322117 -2.98165 0
M  V30 3109 H 290.217 -0.205122 -1.54948 0
M  V30 3110 H 290.952 2.18284 -2.39838 0
M  V30 3111 H 290.737 1.06241 -3.77432 0
M  V30 3112 H 292.227 2.04367 -3.64176 0
M  V30 3113 N 292.664 1.56529 -0.183458 0
M  V30 3114 C 293.611 2.18546 0.742055 0
M  V30 3115 C 294.581 1.12912 1.2182 0
M  V30 3116 O 295.766 1.41115 1.28418 0
M  V30 3117 C 292.906 2.83977 1.96089 0
M  V30 3118 C 292.019 4.04105 1.52719 0
M  V30 3119 C 291.154 4.57427 2.70063 0
M  V30 3120 C 290.193 5.69938 2.23243 0
M  V30 3121 N 289.33 6.17717 3.33722 0
M  V30 3122 H 294.17 2.97284 0.206432 0
M  V30 3123 H 291.707 1.46823 0.0901571 0
M  V30 3124 H 293.665 3.20077 2.67594 0
M  V30 3125 H 292.295 2.07822 2.47002 0
M  V30 3126 H 291.347 3.73745 0.708436 0
M  V30 3127 H 292.659 4.85513 1.1436 0
M  V30 3128 H 291.813 4.95772 3.49708 0
M  V30 3129 H 290.552 3.75101 3.11689 0
M  V30 3130 H 289.557 5.31133 1.42048 0
M  V30 3131 H 290.782 6.54073 1.82661 0
M  V30 3132 H 288.728 5.38317 3.74902 0
M  V30 3133 H 288.645 6.94146 2.99495 0
M  V30 3134 H 289.913 6.60713 4.13616 0
M  V30 3135 N 294.142 -0.090211 1.57342 0
M  V30 3136 C 295.089 -1.10909 2.02405 0
M  V30 3137 C 296.059 -1.39523 0.901252 0
M  V30 3138 O 297.244 -1.50903 1.1676 0
M  V30 3139 C 294.384 -2.42277 2.45755 0
M  V30 3140 C 293.497 -2.20352 3.71576 0
M  V30 3141 C 292.632 -3.45154 4.03785 0
M  V30 3142 C 291.671 -3.18512 5.22701 0
M  V30 3143 N 290.808 -4.35593 5.50639 0
M  V30 3144 H 295.648 -0.71782 2.89225 0
M  V30 3145 H 293.185 -0.342901 1.43048 0
M  V30 3146 H 295.143 -3.18951 2.68935 0
M  V30 3147 H 293.773 -2.79242 1.61938 0
M  V30 3148 H 292.825 -1.34458 3.55844 0
M  V30 3149 H 294.137 -1.96661 4.58395 0
M  V30 3150 H 293.291 -4.30233 4.27767 0
M  V30 3151 H 292.03 -3.71904 3.15498 0
M  V30 3152 H 291.035 -2.31827 4.98534 0
M  V30 3153 H 292.26 -2.93103 6.12591 0
M  V30 3154 H 290.206 -4.6241 4.6531 0
M  V30 3155 H 290.123 -4.1511 6.31838 0
M  V30 3156 H 291.391 -5.21723 5.7916 0
M  V30 3157 N 295.62 -1.53406 -0.361157 0
M  V30 3158 C 296.55 -1.83136 -1.44857 0
M  V30 3159 C 297.531 -0.685174 -1.5569 0
M  V30 3160 O 298.716 -0.93544 -1.70186 0
M  V30 3161 C 295.846 -2.02522 -2.82138 0
M  V30 3162 C 294.8 -3.18302 -2.86126 0
M  V30 3163 C 294.126 -3.22989 -4.26125 0
M  V30 3164 C 295.426 -4.56796 -2.53248 0
M  V30 3165 H 297.12 -2.74201 -1.20226 0
M  V30 3166 H 294.666 -1.31938 -0.576922 0
M  V30 3167 H 296.619 -2.21904 -3.58241 0
M  V30 3168 H 295.343 -1.08172 -3.08166 0
M  V30 3169 H 294.002 -2.98747 -2.12475 0
M  V30 3170 H 293.65 -2.26267 -4.49235 0
M  V30 3171 H 293.35 -4.00781 -4.29708 0
M  V30 3172 H 294.874 -3.44559 -5.04094 0
M  V30 3173 H 296.288 -4.7631 -3.19064 0
M  V30 3174 H 294.685 -5.36862 -2.68141 0
M  V30 3175 H 295.755 -4.61606 -1.48484 0
M  V30 3176 N 297.098 0.621204 -1.44841 0
M  V30 3177 C 298.345 1.38055 -1.48145 0
M  V30 3178 C 298.673 1.94143 -0.117867 0
M  V30 3179 O 297.928 1.74713 0.881694 0
M  V30 3180 C 298.227 2.55675 -2.4973 0
M  V30 3181 C 297.893 2.17817 -3.94799 0
M  V30 3182 C 296.555 2.07205 -4.34303 0
M  V30 3183 C 298.907 1.88065 -4.86087 0
M  V30 3184 C 296.235 1.65045 -5.63007 0
M  V30 3185 C 298.587 1.47394 -6.15189 0
M  V30 3186 C 297.251 1.35331 -6.53637 0
M  V30 3187 H 296.521 0.505181 -0.542101 0
M  V30 3188 H 299.168 0.703477 -1.78111 0
M  V30 3189 H 297.473 3.2866 -2.13284 0
M  V30 3190 H 299.17 3.13904 -2.4953 0
M  V30 3191 H 295.76 2.26998 -3.63552 0
M  V30 3192 H 299.944 1.95168 -4.56315 0
M  V30 3193 H 295.2 1.54317 -5.91605 0
M  V30 3194 H 299.374 1.23415 -6.85377 0
M  V30 3195 H 297.001 1.02435 -7.53267 0
M  V30 3196 N 298.576 1.31904 0.862503 0
M  V30 3197 C 299.987 1.19803 1.43193 0
M  V30 3198 C 300.338 -0.192567 1.95253 0
M  V30 3199 O 299.463 -1.09081 1.86896 0
M  V30 3200 C 300.058 2.16883 2.60283 0
M  V30 3201 C 298.617 2.08692 3.13248 0
M  V30 3202 C 297.764 2.05691 1.85975 0
M  V30 3203 H 300.715 1.43846 0.670365 0
M  V30 3204 H 300.736 1.76278 3.37204 0
M  V30 3205 H 300.248 3.18083 2.22363 0
M  V30 3206 H 298.349 1.10713 3.55771 0
M  V30 3207 H 298.462 2.9815 3.75025 0
M  V30 3208 H 296.826 1.50814 2.05249 0
M  V30 3209 H 297.609 3.08659 1.50282 0
M  V30 3210 N 300.054 -1.07777 1.14986 0
M  V30 3211 C 301.001 -2.14867 0.842672 0
M  V30 3212 C 301.971 -1.6486 -0.202552 0
M  V30 3213 O 303.156 -1.90668 -0.0710568 0
M  V30 3214 C 300.296 -3.43486 0.333363 0
M  V30 3215 C 299.409 -4.07306 1.43965 0
M  V30 3216 C 298.544 -5.23744 0.886914 0
M  V30 3217 C 297.583 -5.79517 1.97043 0
M  V30 3218 N 296.72 -6.87291 1.4344 0
M  V30 3219 H 301.56 -2.40485 1.75986 0
M  V30 3220 H 299.097 -1.1801 0.878179 0
M  V30 3221 H 301.055 -4.17195 0.0198163 0
M  V30 3222 H 299.685 -3.18133 -0.546916 0
M  V30 3223 H 298.737 -3.31293 1.86946 0
M  V30 3224 H 300.049 -4.44771 2.25788 0
M  V30 3225 H 299.203 -6.04419 0.525651 0
M  V30 3226 H 297.942 -4.87685 0.0377957 0
M  V30 3227 H 296.947 -4.97491 2.34057 0
M  V30 3228 H 298.172 -6.17632 2.82325 0
M  V30 3229 H 296.118 -6.5318 0.607567 0
M  V30 3230 H 296.035 -7.23617 2.18895 0
M  V30 3231 H 297.303 -7.71682 1.10124 0
M  V30 3232 N 301.532 -0.945985 -1.26051 0
M  V30 3233 C 302.78 -0.594941 -1.93145 0
M  V30 3234 C 303.101 0.86953 -1.7454 0
M  V30 3235 O 302.371 1.61838 -1.10387 0
M  V30 3236 H 300.951 -0.217044 -0.714773 0
M  V30 3237 H 303.613 -1.20235 -1.53393 0
M  V30 3238 H 302.709 -0.816835 -3.01221 0
M  V30 3239 N 303.011 1.40521 -0.713556 0
M  V30 3240 C 304.257 2.01221 -0.252564 0
M  V30 3241 C 304.59 1.56444 1.1506 0
M  V30 3242 O 303.865 0.783597 1.78017 0
M  V30 3243 C 304.148 3.58582 -0.330332 0
M  V30 3244 C 304.001 4.13437 -1.77173 0
M  V30 3245 C 305.32 4.39079 0.299641 0
M  V30 3246 H 302.439 0.731077 -0.0932471 0
M  V30 3247 H 305.081 1.67026 -0.905673 0
M  V30 3248 H 303.231 3.87844 0.225737 0
M  V30 3249 H 304.903 3.9498 -2.38303 0
M  V30 3250 H 303.146 3.67801 -2.3001 0
M  V30 3251 H 303.817 5.22597 -1.77755 0
M  V30 3252 H 306.293 4.15735 -0.174139 0
M  V30 3253 H 305.169 5.4848 0.214771 0
M  V30 3254 H 305.43 4.19915 1.38288 0
M  V30 3255 N 304.489 0.459591 1.5075 0
M  V30 3256 C 305.736 -0.0993495 2.02256 0
M  V30 3257 C 306.064 -1.40751 1.34237 0
M  V30 3258 O 305.319 -1.90379 0.453228 0
M  V30 3259 C 305.618 -0.342866 3.55752 0
M  V30 3260 C 305.284 0.88218 4.42186 0
M  V30 3261 C 303.946 1.21808 4.65528 0
M  V30 3262 C 306.298 1.69837 4.92752 0
M  V30 3263 C 303.626 2.37045 5.36681 0
M  V30 3264 C 305.978 2.84192 5.65171 0
M  V30 3265 C 304.642 3.1821 5.8677 0
M  V30 3266 H 303.912 -0.0363545 0.740108 0
M  V30 3267 H 306.559 0.611329 1.8148 0
M  V30 3268 H 304.864 -1.13567 3.7498 0
M  V30 3269 H 306.561 -0.789121 3.93159 0
M  V30 3270 H 303.151 0.610467 4.2423 0
M  V30 3271 H 307.335 1.45205 4.74583 0
M  V30 3272 H 302.591 2.63689 5.51614 0
M  V30 3273 H 306.765 3.4779 6.03337 0
M  V30 3274 H 304.392 4.07613 6.41682 0
M  V30 3275 N 305.967 -1.56429 0.191757 0
M  V30 3276 C 307.195 -2.01867 -0.453586 0
M  V30 3277 C 307.61 -1.07191 -1.5542 0
M  V30 3278 O 306.967 -0.0762108 -1.82341 0
M  V30 3279 C 307.018 -3.47017 -1.013 0
M  V30 3280 O 306.739 -4.38078 0.0437005 0
M  V30 3281 C 308.24 -4.07956 -1.73456 0
M  V30 3282 H 305.46 -0.661211 -0.114199 0
M  V30 3283 H 308.004 -2.02295 0.299483 0
M  V30 3284 H 306.159 -3.47298 -1.71647 0
M  V30 3285 H 306.573 -5.23178 -0.372212 0
M  V30 3286 H 308.047 -5.1138 -2.07833 0
M  V30 3287 H 308.524 -3.51222 -2.63704 0
M  V30 3288 H 309.13 -4.11437 -1.07702 0
M  V30 3289 N 307.445 0.0818655 -1.57387 0
M  V30 3290 C 308.392 1.09834 -2.0299 0
M  V30 3291 C 309.362 1.39043 -0.908639 0
M  V30 3292 O 310.547 1.50282 -1.17559 0
M  V30 3293 C 307.687 2.40971 -2.47037 0
M  V30 3294 C 306.8 2.18379 -3.7274 0
M  V30 3295 C 305.935 3.43008 -4.0561 0
M  V30 3296 C 304.974 3.15736 -5.24383 0
M  V30 3297 N 304.111 4.32667 -5.52941 0
M  V30 3298 H 308.951 0.702472 -2.89602 0
M  V30 3299 H 306.488 0.33531 -1.43227 0
M  V30 3300 H 308.446 3.1752 -2.70623 0
M  V30 3301 H 307.076 2.78379 -1.63417 0
M  V30 3302 H 306.128 1.32569 -3.56552 0
M  V30 3303 H 307.44 1.94227 -4.59431 0
M  V30 3304 H 306.594 4.27958 -4.30043 0
M  V30 3305 H 305.333 3.70225 -3.17466 0
M  V30 3306 H 304.338 2.2918 -4.99757 0
M  V30 3307 H 305.563 2.8985 -6.14136 0
M  V30 3308 H 303.509 4.59935 -4.67756 0
M  V30 3309 H 303.426 4.11753 -6.34031 0
M  V30 3310 H 304.694 5.18644 -5.81918 0
M  V30 3311 N 308.923 1.53595 0.353017 0
M  V30 3312 C 309.833 1.83897 1.45667 0
M  V30 3313 C 310.849 0.728334 1.58023 0
M  V30 3314 O 312.025 1.01968 1.73679 0
M  V30 3315 C 309.09 2.03383 2.80778 0
M  V30 3316 C 308.151 3.27262 2.77845 0
M  V30 3317 C 307.384 3.45809 4.06512 0
M  V30 3318 O 307.607 2.68387 5.03314 0
M  V30 3319 O 306.541 4.39207 4.11559 0
M  V30 3320 H 310.367 2.77686 1.2298 0
M  V30 3321 H 307.952 1.39132 0.544308 0
M  V30 3322 H 309.834 2.17698 3.60812 0
M  V30 3323 H 308.509 1.12783 3.03417 0
M  V30 3324 H 307.416 3.18359 1.96465 0
M  V30 3325 H 308.749 4.17824 2.60161 0
M  V30 3326 N 310.401 -0.613514 1.45168 0
M  V30 3327 C 311.331 -1.7354 1.56225 0
M  V30 3328 C 312.312 -1.64981 0.41414 0
M  V30 3329 O 313.497 -1.83472 0.636526 0
M  V30 3330 C 310.627 -3.12128 1.52295 0
M  V30 3331 C 309.581 -3.35491 2.65762 0
M  V30 3332 C 308.907 -4.74291 2.46885 0
M  V30 3333 C 310.207 -3.26325 4.0781 0
M  V30 3334 H 311.901 -1.64543 2.50132 0
M  V30 3335 H 309.447 -0.790185 1.20383 0
M  V30 3336 H 311.4 -3.90404 1.58628 0
M  V30 3337 H 310.124 -3.2195 0.549139 0
M  V30 3338 H 308.783 -2.59603 2.58847 0
M  V30 3339 H 308.431 -4.80839 1.47657 0
M  V30 3340 H 308.131 -4.9088 3.22972 0
M  V30 3341 H 309.655 -5.54775 2.55063 0
M  V30 3342 H 311.069 -3.94483 4.16 0
M  V30 3343 H 309.466 -3.54445 4.8424 0
M  V30 3344 H 310.536 -2.23855 4.30136 0
M  V30 3345 N 311.879 -1.3236 -0.855495 0
M  V30 3346 C 313.29 -1.2056 -1.42556 0
M  V30 3347 C 313.641 0.182209 -1.95352 0
M  V30 3348 O 312.766 1.08088 -1.87472 0
M  V30 3349 C 313.361 -2.1826 -2.59129 0
M  V30 3350 C 311.92 -2.10351 -3.12137 0
M  V30 3351 C 311.067 -2.06674 -1.84882 0
M  V30 3352 H 314.018 -1.442 -0.662727 0
M  V30 3353 H 314.039 -1.78064 -3.36264 0
M  V30 3354 H 313.551 -3.19257 -2.20673 0
M  V30 3355 H 311.652 -1.12599 -3.55179 0
M  V30 3356 H 311.765 -3.00135 -3.73438 0
M  V30 3357 H 310.129 -1.51901 -2.04446 0
M  V30 3358 H 310.912 -3.09451 -1.48643 0
M  V30 3359 N 313.357 1.07166 -1.15556 0
M  V30 3360 C 314.582 1.84053 -0.955988 0
M  V30 3361 C 315.007 1.81586 0.490739 0
M  V30 3362 O 314.365 1.21018 1.34997 0
M  V30 3363 C 314.413 3.28957 -1.47714 0
M  V30 3364 O 313.517 4.06795 -0.677593 0
M  V30 3365 H 312.858 0.569842 -0.340847 0
M  V30 3366 H 315.388 1.35178 -1.53584 0
M  V30 3367 H 315.398 3.79788 -1.4908 0
M  V30 3368 H 314.073 3.30068 -2.53037 0
M  V30 3369 H 312.65 3.6561 -0.733721 0
M  V30 3370 N 314.835 0.952656 1.25548 0
M  V30 3371 C 316.083 0.605176 1.92826 0
M  V30 3372 C 316.404 -0.860261 1.74999 0
M  V30 3373 O 315.674 -1.6125 1.11244 0
M  V30 3374 H 314.254 0.220832 0.713612 0
M  V30 3375 H 316.916 1.21047 1.52754 0
M  V30 3376 H 316.012 0.832798 3.00784 0
M  V30 3377 N 316.313 -1.40141 0.720998 0
M  V30 3378 C 317.26 -2.30688 0.071919 0
M  V30 3379 C 318.23 -1.48476 -0.744584 0
M  V30 3380 O 319.415 -1.77201 -0.707423 0
M  V30 3381 C 316.555 -3.34724 -0.839855 0
M  V30 3382 C 315.668 -4.31998 -0.0122438 0
M  V30 3383 C 314.803 -5.23102 -0.923995 0
M  V30 3384 C 313.842 -6.12033 -0.0907969 0
M  V30 3385 N 312.979 -6.95537 -0.957718 0
M  V30 3386 H 317.819 -2.85628 0.849755 0
M  V30 3387 H 315.356 -1.40653 0.430726 0
M  V30 3388 H 317.314 -3.93618 -1.38279 0
M  V30 3389 H 315.944 -2.81274 -1.58381 0
M  V30 3390 H 314.996 -3.74841 0.64794 0
M  V30 3391 H 316.308 -4.94772 0.632595 0
M  V30 3392 H 315.462 -5.86953 -1.53527 0
M  V30 3393 H 314.201 -4.60615 -1.60264 0
M  V30 3394 H 313.206 -5.47207 0.533377 0
M  V30 3395 H 314.431 -6.76581 0.584428 0
M  V30 3396 H 312.377 -6.35633 -1.62192 0
M  V30 3397 H 312.294 -7.55099 -0.36904 0
M  V30 3398 H 313.562 -7.63832 -1.555 0
M  V30 3399 N 317.792 -0.46758 -1.50504 0
M  V30 3400 C 318.739 0.328413 -2.28452 0
M  V30 3401 C 319.709 0.990313 -1.33349 0
M  V30 3402 O 320.894 1.00343 -1.62284 0
M  V30 3403 C 318.034 1.40648 -3.15138 0
M  V30 3404 C 317.147 0.759709 -4.25267 0
M  V30 3405 C 316.282 1.81537 -4.99217 0
M  V30 3406 C 315.321 1.14866 -6.01226 0
M  V30 3407 N 314.458 2.14702 -6.68467 0
M  V30 3408 H 319.298 -0.342603 -2.96024 0
M  V30 3409 H 316.835 -0.180801 -1.45985 0
M  V30 3410 H 318.793 2.04315 -3.63746 0
M  V30 3411 H 317.423 2.04671 -2.49619 0
M  V30 3412 H 316.475 0.0105671 -3.80399 0
M  V30 3413 H 317.787 0.233243 -4.98254 0
M  V30 3414 H 316.941 2.52793 -5.51526 0
M  V30 3415 H 315.68 2.37564 -4.25928 0
M  V30 3416 H 314.685 0.42171 -5.4818 0
M  V30 3417 H 315.91 0.595334 -6.76485 0
M  V30 3418 H 313.856 2.69752 -5.97972 0
M  V30 3419 H 313.773 1.6703 -7.37317 0
M  V30 3420 H 315.041 2.85348 -7.25394 0
M  V30 3421 N 319.27 1.56325 -0.20005 0
M  V30 3422 C 320.5 2.01811 0.442232 0
M  V30 3423 C 320.908 1.07932 1.55394 0
M  V30 3424 O 320.251 0.0772685 1.83537 0
M  V30 3425 C 320.313 3.43685 1.05457 0
M  V30 3426 C 319.977 4.56928 0.0809833 0
M  V30 3427 C 320.974 5.15009 -0.711471 0
M  V30 3428 C 318.659 5.0229 -0.0315364 0
M  V30 3429 C 320.653 6.16904 -1.60336 0
M  V30 3430 C 318.34 6.04028 -0.926981 0
M  V30 3431 C 319.338 6.6121 -1.71146 0
M  V30 3432 O 319.026 7.60971 -2.59189 0
M  V30 3433 H 318.758 0.666173 0.114848 0
M  V30 3434 H 321.312 2.03085 -0.307511 0
M  V30 3435 H 319.542 3.39413 1.85299 0
M  V30 3436 H 321.231 3.72948 1.60201 0
M  V30 3437 H 321.997 4.80827 -0.634873 0
M  V30 3438 H 317.876 4.57476 0.568902 0
M  V30 3439 H 321.42 6.61464 -2.21611 0
M  V30 3440 H 317.317 6.37634 -1.00468 0
M  V30 3441 H 318.085 7.7841 -2.53023 0
M  V30 3442 N 320.748 -0.0735177 1.57428 0
M  V30 3443 C 321.678 -1.0879 2.06608 0
M  V30 3444 C 322.659 -1.40473 0.959237 0
M  V30 3445 O 323.844 -1.5013 1.23185 0
M  V30 3446 C 320.974 -2.40183 2.50857 0
M  V30 3447 C 319.928 -2.22858 3.65402 0
M  V30 3448 C 319.254 -3.59619 3.957 0
M  V30 3449 C 320.554 -1.65123 4.95511 0
M  V30 3450 H 322.248 -0.678673 2.91607 0
M  V30 3451 H 319.794 -0.325013 1.40284 0
M  V30 3452 H 321.747 -3.11437 2.83874 0
M  V30 3453 H 320.471 -2.83083 1.62885 0
M  V30 3454 H 319.13 -1.54045 3.32664 0
M  V30 3455 H 318.778 -4.00086 3.04861 0
M  V30 3456 H 318.478 -3.48866 4.72828 0
M  V30 3457 H 320.002 -4.32306 4.31212 0
M  V30 3458 H 321.416 -2.26241 5.26771 0
M  V30 3459 H 319.813 -1.65071 5.7695 0
M  V30 3460 H 320.883 -0.612559 4.81015 0
M  V30 3461 N 322.226 -1.5378 -0.344866 0
M  V30 3462 C 323.642 -1.44015 -0.687888 0
M  V30 3463 C 323.842 -0.595834 -1.92489 0
M  V30 3464 O 322.898 -0.0863064 -2.52352 0
M  V30 3465 C 324.211 -2.87481 -0.881758 0
M  V30 3466 C 325.759 -2.97247 -0.980459 0
M  V30 3467 C 326.234 -4.41819 -1.20665 0
M  V30 3468 N 327.725 -4.45339 -1.27389 0
M  V30 3469 C 328.46 -5.54333 -1.46639 0
M  V30 3470 N 327.956 -6.73335 -1.63071 0
M  V30 3471 N 329.749 -5.41944 -1.49176 0
M  V30 3472 H 321.9 -2.07169 0.468475 0
M  V30 3473 H 324.163 -0.93643 0.147655 0
M  V30 3474 H 323.869 -3.51672 -0.0443444 0
M  V30 3475 H 323.743 -3.32352 -1.78388 0
M  V30 3476 H 326.13 -2.33197 -1.8084 0
M  V30 3477 H 326.211 -2.5574 -0.0552713 0
M  V30 3478 H 325.855 -5.06449 -0.383652 0
M  V30 3479 H 325.785 -4.80917 -2.14539 0
M  V30 3480 H 328.276 -3.59585 -1.1622 0
M  V30 3481 H 328.589 -7.52165 -1.77391 0
M  V30 3482 H 326.934 -6.76282 -1.60209 0
M  V30 3483 H 330.125 -4.47932 -1.3592 0
M  V30 3484 H 330.298 -6.26946 -1.63837 0
M  V30 3485 N 323.704 0.605807 -1.45491 0
M  V30 3486 C 324.934 1.38934 -1.52908 0
M  V30 3487 C 325.342 1.88513 -0.161086 0
M  V30 3488 O 324.685 1.62962 0.847891 0
M  V30 3489 C 324.747 2.62737 -2.45376 0
M  V30 3490 C 324.411 2.34785 -3.92078 0
M  V30 3491 C 325.408 1.95038 -4.8193 0
M  V30 3492 C 323.093 2.47642 -4.37011 0
M  V30 3493 C 325.087 1.68511 -6.14722 0
M  V30 3494 C 322.774 2.20728 -5.69844 0
M  V30 3495 C 323.772 1.81225 -6.58519 0
M  V30 3496 O 323.46 1.54627 -7.88889 0
M  V30 3497 H 323.192 0.431629 -0.520262 0
M  V30 3498 H 325.746 0.74573 -1.91384 0
M  V30 3499 H 323.976 3.29824 -2.01874 0
M  V30 3500 H 325.665 3.24783 -2.43456 0
M  V30 3501 H 326.431 1.84639 -4.48479 0
M  V30 3502 H 322.31 2.77356 -3.68232 0
M  V30 3503 H 325.854 1.37602 -6.83894 0
M  V30 3504 H 321.751 2.30744 -6.02849 0
M  V30 3505 H 322.519 1.68665 -8.00933 0
M  V30 3506 N 325.182 1.32811 0.848464 0
M  V30 3507 C 326.41 1.26739 1.63538 0
M  V30 3508 C 326.825 -0.163484 1.88091 0
M  V30 3509 O 326.182 -1.10258 1.45429 0
M  V30 3510 C 326.233 2.03013 2.99112 0
M  V30 3511 O 325.954 3.40518 2.75643 0
M  V30 3512 C 327.455 2.04038 3.93552 0
M  V30 3513 H 324.675 0.437024 0.509167 0
M  V30 3514 H 327.219 1.75033 1.05753 0
M  V30 3515 H 325.374 1.58426 3.53525 0
M  V30 3516 H 325.788 3.79635 3.61908 0
M  V30 3517 H 327.262 2.61877 4.85926 0
M  V30 3518 H 327.739 1.0282 4.26995 0
M  V30 3519 H 328.345 2.486 3.45077 0
M  V30 3520 N 326.66 -1.06551 1.16123 0
M  V30 3521 C 328.071 -1.60768 0.949232 0
M  V30 3522 C 328.422 -1.89523 -0.507508 0
M  V30 3523 O 327.547 -1.66671 -1.38021 0
M  V30 3524 C 328.142 -2.92086 1.71671 0
M  V30 3525 C 326.701 -3.43015 1.54977 0
M  V30 3526 C 325.848 -2.16947 1.72711 0
M  V30 3527 H 328.799 -0.895354 1.31031 0
M  V30 3528 H 328.82 -3.6138 1.19099 0
M  V30 3529 H 328.332 -2.71127 2.7769 0
M  V30 3530 H 326.433 -3.69039 0.513873 0
M  V30 3531 H 326.546 -4.18516 2.33198 0
M  V30 3532 H 324.91 -2.27041 1.15431 0
M  V30 3533 H 325.693 -1.98473 2.80113 0
M  V30 3534 N 328.138 -0.959301 -1.25041 0
M  V30 3535 C 329.07 -0.440543 -2.24926 0
M  V30 3536 C 330.083 0.446131 -1.56568 0
M  V30 3537 O 331.272 0.253657 -1.76689 0
M  V30 3538 C 328.372 0.38412 -3.36716 0
M  V30 3539 C 327.545 -0.490658 -4.34639 0
M  V30 3540 C 326.604 0.276587 -5.25473 0
M  V30 3541 O 325.63 -0.326614 -5.68262 0
M  V30 3542 N 326.832 1.56844 -5.5891 0
M  V30 3543 H 329.597 -1.29931 -2.70071 0
M  V30 3544 H 327.158 -0.830181 -1.38995 0
M  V30 3545 H 329.15 0.905228 -3.94446 0
M  V30 3546 H 327.72 1.14377 -2.90924 0
M  V30 3547 H 326.94 -1.19282 -3.7572 0
M  V30 3548 H 328.228 -1.08756 -4.97041 0
M  V30 3549 H 327.626 2.08036 -5.26059 0
M  V30 3550 H 326.183 2.03541 -6.19205 0
M  V30 3551 N 329.616 1.39756 -0.72842 0
M  V30 3552 C 331.027 1.83498 -0.344289 0
M  V30 3553 C 331.378 1.60868 1.12321 0
M  V30 3554 O 330.503 1.09634 1.86573 0
M  V30 3555 C 331.098 3.33114 -0.618112 0
M  V30 3556 C 329.657 3.753 -0.287549 0
M  V30 3557 C 328.804 2.62831 -0.884048 0
M  V30 3558 H 331.755 1.28842 -0.926578 0
M  V30 3559 H 331.776 3.80334 0.112349 0
M  V30 3560 H 331.288 3.49553 -1.68625 0
M  V30 3561 H 329.389 3.64451 0.775012 0
M  V30 3562 H 329.502 4.72945 -0.765512 0
M  V30 3563 H 327.866 2.52792 -0.311149 0
M  V30 3564 H 328.649 2.82078 -1.95671 0
M  V30 3565 O 331.133 0.617387 1.49233 0
M  V30 3566 H 331.824 0.132127 1.93249 0
M  V30 END ATOM
M  V30 BEGIN BOND
M  V30 END BOND
M  V30 END CTAB
M  END
$$$$
