drugbank_target|P30086 Phosphatidylethanolamine-binding protein 1 (DB09130)
 OpenBabel12092119493D

  0  0  0     0  0            999 V3000
M  V30 BEGIN CTAB
M  V30 COUNTS 2947 2990 0 0 0
M  V30 BEGIN ATOM
M  V30 1 H -0.908 1.98254 -0.117106 0
M  V30 2 N 0 1.576 0 0
M  V30 3 C 0.933 2.03868 1.02534 0
M  V30 4 C 1.911 0.928543 1.3348 0
M  V30 5 O 3.095 1.19667 1.45644 0
M  V30 6 C 0.222 2.43627 2.35294 0
M  V30 7 C -0.732 3.65373 2.2001 0
M  V30 8 S 0.101 5.13292 1.52614 0
M  V30 9 C 1.257 5.56322 2.86805 0
M  V30 10 H 1.49 2.90518 0.631377 0
M  V30 11 H -0.977 1.52953 0.210867 0
M  V30 12 H 0.981 2.67203 3.11629 0
M  V30 13 H -0.358 1.57376 2.7183 0
M  V30 14 H -1.165 3.90944 3.18086 0
M  V30 15 H -1.563 3.418 1.51819 0
M  V30 16 H 0.729 5.58782 3.83104 0
M  V30 17 H 1.672 6.56266 2.65933 0
M  V30 18 H 2.08 4.83886 2.90714 0
M  V30 19 N 1.4781 -0.272755 1.55222 0
M  V30 20 C 2.8891 -0.84378 1.66545 0
M  V30 21 C 3.2401 -1.87035 0.592641 0
M  V30 22 O 2.3651 -2.14761 -0.265818 0
M  V30 23 C 2.9601 -1.53723 3.01918 0
M  V30 24 C 1.5191 -2.05628 3.15268 0
M  V30 25 C 0.6661 -0.898424 2.62343 0
M  V30 26 H 3.6171 -0.0490998 1.58624 0
M  V30 27 H 3.6381 -2.40421 2.94921 0
M  V30 28 H 3.1501 -0.78983 3.79978 0
M  V30 29 H 1.2511 -2.83329 2.41983 0
M  V30 30 H 1.3641 -2.27142 4.21833 0
M  V30 31 H -0.2719 -1.29186 2.19506 0
M  V30 32 H 0.5111 -0.164528 3.42906 0
M  V30 33 N 2.9562 -1.48159 -0.537278 0
M  V30 34 C 4.2022 -1.56035 -1.29541 0
M  V30 35 C 4.5352 -0.230377 -1.92829 0
M  V30 36 O 3.8102 0.762952 -1.78911 0
M  V30 37 C 4.0932 -2.69323 -2.39034 0
M  V30 38 C 3.9462 -4.12002 -1.80485 0
M  V30 39 C 5.2652 -2.78408 -3.40847 0
M  V30 40 H 2.3842 -0.567992 -0.469632 0
M  V30 41 H 5.0262 -1.80302 -0.599277 0
M  V30 42 H 3.1762 -2.48763 -2.98412 0
M  V30 43 H 4.8482 -4.43981 -1.25215 0
M  V30 44 H 3.0912 -4.19344 -1.11055 0
M  V30 45 H 3.7622 -4.87077 -2.59731 0
M  V30 46 H 6.2382 -2.97012 -2.91416 0
M  V30 47 H 5.1142 -3.59416 -4.14863 0
M  V30 48 H 5.3752 -1.86269 -4.00944 0
M  V30 49 N 4.4343 0.785586 -1.36625 0
M  V30 50 C 5.7113 1.53198 -1.21613 0
M  V30 51 C 6.0913 2.10187 0.196113 0
M  V30 52 O 5.4393 1.94318 1.20219 0
M  V30 53 C 5.6493 2.62388 -2.30116 0
M  V30 54 C 6.9973 3.30167 -2.66974 0
M  V30 55 O 8.0213 2.72674 -2.29188 0
M  V30 56 O 6.8803 4.34077 -3.32023 0
M  V30 57 H 3.9743 0.677865 -0.473738 0
M  V30 58 H 6.5203 0.823739 -1.48367 0
M  V30 59 H 5.2923 2.18299 -3.24748 0
M  V30 60 H 4.9153 3.40827 -2.0475 0
M  V30 61 N 5.9124 1.20967 1.01018 0
M  V30 62 C 6.8424 0.988272 2.11555 0
M  V30 63 C 7.8234 -0.0849778 1.69888 0
M  V30 64 O 9.0084 0.0738202 1.9406 0
M  V30 65 C 6.1384 0.546528 3.42973 0
M  V30 66 C 5.0924 1.56375 3.9841 0
M  V30 67 C 4.4184 0.97842 5.25672 0
M  V30 68 C 5.7184 2.94922 4.31066 0
M  V30 69 H 7.4124 1.91276 2.30334 0
M  V30 70 H 4.9584 0.921073 1.1069 0
M  V30 71 H 6.9114 0.378839 4.19694 0
M  V30 72 H 5.6354 -0.413598 3.23971 0
M  V30 73 H 4.2944 1.71891 3.23804 0
M  V30 74 H 3.9424 0.0101688 5.02999 0
M  V30 75 H 3.6424 1.65784 5.63728 0
M  V30 76 H 5.1664 0.821939 6.05043 0
M  V30 77 H 6.5804 2.8288 4.9865 0
M  V30 78 H 4.9774 3.5983 4.80253 0
M  V30 79 H 6.0474 3.4616 3.39561 0
M  V30 80 N 7.3905 -1.2043 1.01659 0
M  V30 81 C 8.6155 -1.94318 0.724942 0
M  V30 82 C 9.0405 -1.74266 -0.708034 0
M  V30 83 O 8.3985 -1.03694 -1.48719 0
M  V30 84 C 8.4465 -3.44486 1.06591 0
M  V30 85 O 7.5505 -4.12017 0.177599 0
M  V30 86 H 6.8915 -0.60708 0.26898 0
M  V30 87 H 9.4215 -1.52861 1.35995 0
M  V30 88 H 9.4315 -3.95106 1.01762 0
M  V30 89 H 8.1065 -3.58404 2.10997 0
M  V30 90 H 6.6835 -3.71821 0.283421 0
M  V30 91 N 8.8686 -0.792821 -1.36206 0
M  V30 92 C 9.8156 -0.191653 -2.30003 0
M  V30 93 C 10.7856 0.666453 -1.52143 0
M  V30 94 O 11.9706 0.61442 -1.80636 0
M  V30 95 C 9.1106 0.664848 -3.38635 0
M  V30 96 C 8.2236 -0.212175 -4.31479 0
M  V30 97 C 7.3586 0.651022 -5.27196 0
M  V30 98 C 6.3976 -0.227247 -6.11678 0
M  V30 99 N 5.5346 0.595127 -6.99573 0
M  V30 100 H 10.3746 -0.996978 -2.80828 0
M  V30 101 H 7.9116 -0.503206 -1.38225 0
M  V30 102 H 9.8696 1.17645 -4.00269 0
M  V30 103 H 8.4996 1.43557 -2.89122 0
M  V30 104 H 7.5516 -0.841777 -3.70969 0
M  V30 105 H 8.8636 -0.888751 -4.90818 0
M  V30 106 H 8.0176 1.2283 -5.94136 0
M  V30 107 H 6.7566 1.36121 -4.68319 0
M  V30 108 H 5.7616 -0.816904 -5.43697 0
M  V30 109 H 6.9866 -0.93509 -6.72631 0
M  V30 110 H 4.9326 1.28955 -6.432 0
M  V30 111 H 4.8496 -0.0236952 -7.55996 0
M  V30 112 H 6.1176 1.15613 -7.70879 0
M  V30 113 N 10.3467 1.47872 -0.545128 0
M  V30 114 C 11.5927 2.03385 -0.0247951 0
M  V30 115 C 11.9477 1.41325 1.30556 0
M  V30 116 O 11.2407 0.5552 1.8338 0
M  V30 117 C 11.4347 3.57131 0.13867 0
M  V30 118 C 11.2637 4.34097 -1.17429 0
M  V30 119 C 10.0337 4.74458 -1.73831 0
M  V30 120 C 12.2317 4.6998 -2.08861 0
M  V30 121 N 10.2137 5.3602 -2.99258 0
M  V30 122 C 11.5847 5.31719 -3.18866 0
M  V30 123 C 13.6397 4.5191 -2.09003 0
M  V30 124 C 12.3427 5.77295 -4.29096 0
M  V30 125 C 14.3687 4.98477 -3.18237 0
M  V30 126 C 13.7307 5.60253 -4.26961 0
M  V30 127 H 9.8297 0.780339 -0.050943 0
M  V30 128 H 12.4137 1.80507 -0.729753 0
M  V30 129 H 10.5847 3.79802 0.812733 0
M  V30 130 H 12.3167 3.99282 0.659976 0
M  V30 131 H 9.0717 4.56037 -1.2778 0
M  V30 132 H 9.4957 5.71355 -3.63157 0
M  V30 133 H 14.1377 4.03516 -1.26234 0
M  V30 134 H 11.8557 6.24687 -5.12633 0
M  V30 135 H 15.4417 4.86274 -3.1942 0
M  V30 136 H 14.3217 5.95631 -5.10091 0
M  V30 137 N 11.8248 0.280983 1.55075 0
M  V30 138 C 13.0498 -0.340154 2.04592 0
M  V30 139 C 13.4748 -1.48246 1.15779 0
M  V30 140 O 12.8328 -1.80614 0.15761 0
M  V30 141 C 12.8808 -0.793104 3.5177 0
M  V30 142 O 11.9848 -1.89981 3.66034 0
M  V30 143 H 11.3258 -0.0694289 0.66036 0
M  V30 144 H 13.8558 0.416993 2.00306 0
M  V30 145 H 13.8658 -1.08729 3.93245 0
M  V30 146 H 12.5408 0.0426163 4.15878 0
M  V30 147 H 11.1178 -1.60771 3.36463 0
M  V30 148 N 13.3029 -1.57598 0.00835791 0
M  V30 149 C 14.5509 -1.90551 -0.6734 0
M  V30 150 C 14.8719 -0.883301 -1.73847 0
M  V30 151 O 14.1419 0.0781442 -1.95744 0
M  V30 152 H 12.7219 -0.703312 -0.251717 0
M  V30 153 H 15.3839 -1.94833 0.0512592 0
M  V30 154 H 14.4799 -2.9056 -1.13935 0
M  V30 155 N 14.781 0.264519 -1.55364 0
M  V30 156 C 16.192 0.834936 -1.6699 0
M  V30 157 C 16.543 1.86718 -0.602552 0
M  V30 158 O 15.668 2.14899 0.254425 0
M  V30 159 C 16.263 1.5212 -3.02729 0
M  V30 160 C 14.822 2.03954 -3.16354 0
M  V30 161 C 13.969 0.884498 -2.62815 0
M  V30 162 H 16.92 0.0406869 -1.58648 0
M  V30 163 H 16.941 2.38853 -2.96191 0
M  V30 164 H 16.453 0.769668 -3.80392 0
M  V30 165 H 14.554 2.82041 -2.43482 0
M  V30 166 H 14.667 2.24902 -4.23032 0
M  V30 167 H 13.031 1.2802 -2.20188 0
M  V30 168 H 13.814 0.14634 -3.42988 0
M  V30 169 N 16.2591 1.48442 0.529413 0
M  V30 170 C 17.1891 1.65902 1.64313 0
M  V30 171 C 18.1701 0.507897 1.6234 0
M  V30 172 O 19.3551 0.740503 1.79528 0
M  V30 173 C 16.4851 1.69911 3.02898 0
M  V30 174 C 15.4391 2.8453 3.19729 0
M  V30 175 C 14.7651 2.73629 4.59381 0
M  V30 176 C 16.0651 4.25821 3.02447 0
M  V30 177 H 17.7591 2.5914 1.49955 0
M  V30 178 H 15.3051 1.24709 0.719982 0
M  V30 179 H 17.2581 1.80715 3.80684 0
M  V30 180 H 15.9821 0.732524 3.18279 0
M  V30 181 H 14.6411 2.73283 2.44361 0
M  V30 182 H 14.2891 1.74938 4.71599 0
M  V30 183 H 13.9891 3.50541 4.71588 0
M  V30 184 H 15.5131 2.86401 5.39265 0
M  V30 185 H 16.9271 4.37898 3.70024 0
M  V30 186 H 15.3241 5.03735 3.26146 0
M  V30 187 H 16.3941 4.42244 1.98867 0
M  V30 188 N 17.7372 -0.778329 1.37039 0
M  V30 189 C 18.9622 -1.57248 1.35233 0
M  V30 190 C 19.3872 -1.87999 -0.0615568 0
M  V30 191 O 18.7452 -1.48734 -1.03672 0
M  V30 192 C 18.7932 -2.86353 2.19167 0
M  V30 193 O 17.8972 -3.80442 1.59178 0
M  V30 194 H 17.2382 -0.476569 0.462362 0
M  V30 195 H 19.7682 -0.963853 1.80474 0
M  V30 196 H 19.7782 -3.35519 2.32145 0
M  V30 197 H 18.4532 -2.63299 3.21942 0
M  V30 198 H 17.0302 -3.39067 1.55203 0
M  V30 199 N 19.2153 -1.21501 -1.00376 0
M  V30 200 C 20.1453 -0.999478 -2.11028 0
M  V30 201 C 21.1263 0.0759671 -1.6993 0
M  V30 202 O 22.3113 -0.0841106 -1.94018 0
M  V30 203 C 19.4413 -0.564709 -3.42678 0
M  V30 204 C 18.3953 -1.58486 -3.97576 0
M  V30 205 C 17.7213 -1.00628 -5.25146 0
M  V30 206 C 19.0213 -2.97204 -4.29496 0
M  V30 207 H 20.7153 -1.92495 -2.29317 0
M  V30 208 H 18.2613 -0.92693 -1.102 0
M  V30 209 H 20.2143 -0.401091 -4.19487 0
M  V30 210 H 18.9383 0.396411 -3.24185 0
M  V30 211 H 17.5973 -1.73606 -3.22888 0
M  V30 212 H 17.2453 -0.0368439 -5.02987 0
M  V30 213 H 16.9453 -1.68771 -5.62841 0
M  V30 214 H 18.4693 -0.854015 -6.04598 0
M  V30 215 H 19.8833 -2.8552 -4.97143 0
M  V30 216 H 18.2803 -3.62372 -4.78338 0
M  V30 217 H 19.3503 -3.47956 -3.3772 0
M  V30 218 N 20.6934 1.19889 -1.02296 0
M  V30 219 C 21.6254 2.22334 -0.556787 0
M  V30 220 C 22.6384 1.58674 0.364199 0
M  V30 221 O 23.8274 1.77768 0.161533 0
M  V30 222 C 20.9274 3.38257 0.208694 0
M  V30 223 C 20.1004 4.31504 -0.71577 0
M  V30 224 C 19.1594 5.262 0.00325597 0
M  V30 225 O 18.1854 5.65798 -0.621357 0
M  V30 226 N 19.3874 5.66303 1.27599 0
M  V30 227 H 22.1524 2.62957 -1.43784 0
M  V30 228 H 19.7134 1.34495 -0.901261 0
M  V30 229 H 21.7054 3.98616 0.699111 0
M  V30 230 H 20.2754 2.96472 0.991102 0
M  V30 231 H 19.4954 3.69016 -1.38638 0
M  V30 232 H 20.7834 4.9072 -1.34428 0
M  V30 233 H 20.1814 5.36155 1.80429 0
M  V30 234 H 18.7384 6.28942 1.71102 0
M  V30 235 N 22.1715 0.800033 1.35784 0
M  V30 236 C 23.0815 0.207204 2.33683 0
M  V30 237 C 24.0975 -0.64631 1.61551 0
M  V30 238 O 25.2735 -0.559604 1.93469 0
M  V30 239 C 22.3385 -0.639659 3.40748 0
M  V30 240 C 21.3995 0.233585 4.28664 0
M  V30 241 C 20.6325 -0.572954 5.30616 0
M  V30 242 O 20.8555 -1.80816 5.40982 0
M  V30 243 O 19.7895 0.0327285 6.01891 0
M  V30 244 H 23.6155 1.01692 2.86169 0
M  V30 245 H 21.2005 0.561691 1.38439 0
M  V30 246 H 23.0825 -1.12223 4.06182 0
M  V30 247 H 21.7575 -1.42708 2.90544 0
M  V30 248 H 20.6645 0.763147 3.66233 0
M  V30 249 H 21.9975 0.984784 4.82248 0
M  V30 250 N 23.6496 -1.47581 0.552962 0
M  V30 251 C 24.8956 -2.02782 0.0273648 0
M  V30 252 C 25.2286 -1.42687 -1.31734 0
M  V30 253 O 24.5036 -0.580897 -1.85623 0
M  V30 254 C 24.7866 -3.60031 -0.0702371 0
M  V30 255 C 24.6396 -4.30566 1.30126 0
M  V30 256 C 25.9586 -4.33028 -0.785771 0
M  V30 257 H 23.0776 -0.736912 0.0114185 0
M  V30 258 H 25.7196 -1.76056 0.714432 0
M  V30 259 H 23.8696 -3.82932 -0.655382 0
M  V30 260 H 25.5416 -4.19018 1.92929 0
M  V30 261 H 23.7846 -3.91086 1.87709 0
M  V30 262 H 24.4556 -5.39114 1.18573 0
M  V30 263 H 26.9316 -4.15095 -0.288982 0
M  V30 264 H 25.8076 -5.42695 -0.823013 0
M  V30 265 H 26.0686 -4.01945 -1.841 0
M  V30 266 N 25.1277 -0.289203 -1.54924 0
M  V30 267 C 26.4047 0.376032 -1.91951 0
M  V30 268 C 26.7847 1.72622 -1.21511 0
M  V30 269 O 26.1327 2.25853 -0.346767 0
M  V30 270 C 26.3427 0.502378 -3.45365 0
M  V30 271 C 27.6907 0.778741 -4.17398 0
M  V30 272 O 28.7147 0.586647 -3.51336 0
M  V30 273 O 27.5737 1.14698 -5.34328 0
M  V30 274 H 24.6677 0.208167 -0.800372 0
M  V30 275 H 27.2137 -0.336394 -1.66332 0
M  V30 276 H 25.9857 -0.447255 -3.88736 0
M  V30 277 H 25.6087 1.26373 -3.76982 0
M  V30 278 N 26.6058 1.57591 -0.0167156 0
M  V30 279 C 27.5158 2.1291 0.98521 0
M  V30 280 C 28.5318 1.07834 1.36557 0
M  V30 281 O 29.7078 1.39826 1.44951 0
M  V30 282 C 26.7728 2.63512 2.25305 0
M  V30 283 C 25.8338 3.83256 1.93426 0
M  V30 284 C 25.0668 4.31435 3.14165 0
M  V30 285 O 25.2898 3.78851 4.26413 0
M  V30 286 O 24.2238 5.23416 2.97186 0
M  V30 287 H 28.0498 2.98772 0.544888 0
M  V30 288 H 25.6348 1.48012 0.203141 0
M  V30 289 H 27.5168 2.96183 2.99756 0
M  V30 290 H 26.1918 1.8074 2.68542 0
M  V30 291 H 25.0988 3.55531 1.16398 0
M  V30 292 H 26.4318 4.67153 1.55013 0
M  V30 293 N 28.0839 -0.256276 1.55502 0
M  V30 294 C 29.0159 -1.33981 1.85962 0
M  V30 295 C 30.0289 -1.44743 0.745212 0
M  V30 296 O 31.2179 -1.4626 1.02324 0
M  V30 297 C 28.3179 -2.7194 2.02242 0
M  V30 298 C 27.4909 -2.83562 3.33033 0
M  V30 299 C 26.5499 -4.02304 3.39172 0
M  V30 300 O 25.5759 -3.92273 4.12444 0
M  V30 301 N 26.7779 -5.15045 2.67784 0
M  V30 302 H 29.5429 -1.08191 2.7949 0
M  V30 303 H 27.1039 -0.446388 1.55624 0
M  V30 304 H 29.0959 -3.49697 2.03701 0
M  V30 305 H 27.6659 -2.90479 1.15502 0
M  V30 306 H 26.8859 -1.92555 3.43971 0
M  V30 307 H 28.1739 -2.88271 4.19258 0
M  V30 308 H 27.5719 -5.26085 2.07968 0
M  V30 309 H 26.1289 -5.90972 2.74947 0
M  V30 310 N 29.562 -1.4872 -0.521534 0
M  V30 311 C 30.973 -1.50607 -1.10337 0
M  V30 312 C 31.324 -0.280612 -1.94183 0
M  V30 313 O 30.449 0.611507 -2.0758 0
M  V30 314 C 31.044 -2.72903 -2.00772 0
M  V30 315 C 29.603 -2.77634 -2.54158 0
M  V30 316 C 28.75 -2.44241 -1.31307 0
M  V30 317 H 31.701 -1.55714 -0.306388 0
M  V30 318 H 31.722 -2.519 -2.85178 0
M  V30 319 H 31.234 -3.62077 -1.39721 0
M  V30 320 H 29.335 -1.92689 -3.18907 0
M  V30 321 H 29.448 -3.79283 -2.92714 0
M  V30 322 H 27.812 -1.95577 -1.63161 0
M  V30 323 H 28.595 -3.35666 -0.719943 0
M  V30 324 N 31.0401 0.771051 -1.3745 0
M  V30 325 C 31.9721 1.89352 -1.29146 0
M  V30 326 C 32.9851 1.61477 -0.207124 0
M  V30 327 O 34.1741 1.72382 -0.463324 0
M  V30 328 C 31.2741 3.24596 -0.974195 0
M  V30 329 C 30.4471 3.80111 -2.16413 0
M  V30 330 C 29.5061 4.93832 -1.81703 0
M  V30 331 O 28.5321 5.09382 -2.54006 0
M  V30 332 N 29.7341 5.75483 -0.761573 0
M  V30 333 H 32.4991 1.96991 -2.25864 0
M  V30 334 H 30.0601 0.950191 -1.31084 0
M  V30 335 H 32.0521 3.98193 -0.722828 0
M  V30 336 H 30.6221 3.12454 -0.0955527 0
M  V30 337 H 29.8421 2.98284 -2.57721 0
M  V30 338 H 31.1301 4.13932 -2.95867 0
M  V30 339 H 30.5281 5.65469 -0.161609 0
M  V30 340 H 29.0851 6.49302 -0.570064 0
M  V30 341 N 32.5182 1.22032 0.997298 0
M  V30 342 C 33.4682 0.953838 2.07089 0
M  V30 343 C 34.4522 -0.0938669 1.60626 0
M  V30 344 O 35.6442 0.116078 1.76619 0
M  V30 345 C 32.7732 0.528726 3.39204 0
M  V30 346 C 31.8592 1.61092 3.92314 0
M  V30 347 N 32.2502 2.83768 4.18699 0
M  V30 348 C 30.5482 1.48158 4.20672 0
M  V30 349 C 31.2492 3.53715 4.61802 0
M  V30 350 N 30.2252 2.81174 4.65233 0
M  V30 351 H 34.0272 1.88577 2.25424 0
M  V30 352 H 31.5412 1.11719 1.17867 0
M  V30 353 H 33.5382 0.31915 4.15677 0
M  V30 354 H 32.1982 -0.39635 3.22272 0
M  V30 355 H 33.2092 3.20238 4.07023 0
M  V30 356 H 29.8862 0.622369 4.12835 0
M  V30 357 H 31.2762 4.58793 4.90875 0
M  V30 358 N 33.9963 -1.19345 1.0293 0
M  V30 359 C 35.4073 -1.70725 0.755633 0
M  V30 360 C 35.7583 -1.82326 -0.724676 0
M  V30 361 O 34.8833 -1.49471 -1.56484 0
M  V30 362 C 35.4783 -3.10084 1.36503 0
M  V30 363 C 34.0373 -3.58723 1.13994 0
M  V30 364 C 33.1843 -2.35577 1.46283 0
M  V30 365 H 36.1353 -1.0418 1.19718 0
M  V30 366 H 36.1563 -3.72787 0.762217 0
M  V30 367 H 35.6683 -3.01609 2.44241 0
M  V30 368 H 33.7693 -3.72512 0.0807901 0
M  V30 369 H 33.8823 -4.42816 1.82894 0
M  V30 370 H 32.2463 -2.38935 0.88217 0
M  V30 371 H 33.0293 -2.29731 2.55105 0
M  V30 372 N 35.4744 -0.807222 -1.35358 0
M  V30 373 C 36.4044 -0.232509 -2.3234 0
M  V30 374 C 37.3854 0.642386 -1.57504 0
M  V30 375 O 38.5704 0.572526 -1.85569 0
M  V30 376 C 35.7004 0.619238 -3.41735 0
M  V30 377 C 34.6544 -0.157215 -4.27711 0
M  V30 378 C 33.9804 0.816273 -5.28433 0
M  V30 379 C 35.2804 -1.35656 -5.04376 0
M  V30 380 H 36.9744 -1.04276 -2.80654 0
M  V30 381 H 34.5204 -0.50288 -1.34934 0
M  V30 382 H 36.4734 1.03137 -4.08584 0
M  V30 383 H 35.1974 1.46239 -2.92031 0
M  V30 384 H 33.8564 -0.550525 -3.62443 0
M  V30 385 H 33.5044 1.65494 -4.74996 0
M  V30 386 H 33.2044 0.301067 -5.86828 0
M  V30 387 H 34.7284 1.22659 -5.98153 0
M  V30 388 H 36.1424 -1.01927 -5.64166 0
M  V30 389 H 34.5394 -1.8063 -5.7227 0
M  V30 390 H 35.6094 -2.14288 -4.34981 0
M  V30 391 N 36.9525 1.47285 -0.560781 0
M  V30 392 C 37.9025 2.27073 0.205384 0
M  V30 393 C 38.8865 1.34569 0.882044 0
M  V30 394 O 40.0785 1.58899 0.77976 0
M  V30 395 C 37.2075 3.20414 1.23247 0
M  V30 396 C 36.2935 4.20399 0.559041 0
M  V30 397 N 36.6845 5.04423 -0.372927 0
M  V30 398 C 34.9825 4.38536 0.812522 0
M  V30 399 C 35.6835 5.76655 -0.764446 0
M  V30 400 N 34.6595 5.43471 -0.11848 0
M  V30 401 H 38.4615 2.89422 -0.511117 0
M  V30 402 H 35.9755 1.57868 -0.380975 0
M  V30 403 H 37.9725 3.76262 1.79534 0
M  V30 404 H 36.6325 2.59623 1.95002 0
M  V30 405 H 37.6435 5.1248 -0.747287 0
M  V30 406 H 34.3205 3.88913 1.51832 0
M  V30 407 H 35.7105 6.54238 -1.53045 0
M  V30 408 N 38.4306 0.297415 1.54768 0
M  V30 409 C 39.6766 -0.313376 2.00364 0
M  V30 410 C 40.0096 -1.53815 1.18553 0
M  V30 411 O 39.2846 -1.92739 0.261103 0
M  V30 412 C 39.5676 -0.673525 3.53745 0
M  V30 413 C 39.4206 0.560133 4.46299 0
M  V30 414 C 40.7396 -1.50143 4.13697 0
M  V30 415 H 37.8586 -0.112428 0.728374 0
M  V30 416 H 40.5006 0.4088 1.8555 0
M  V30 417 H 38.6506 -1.28881 3.665 0
M  V30 418 H 40.3226 1.19863 4.45455 0
M  V30 419 H 38.5656 1.19405 4.17043 0
M  V30 420 H 39.2366 0.26405 5.51368 0
M  V30 421 H 41.7126 -0.981588 4.04356 0
M  V30 422 H 40.5886 -1.72221 5.21182 0
M  V30 423 H 40.8496 -2.48952 3.65343 0
M  V30 424 N 39.9087 -1.5758 0.0250728 0
M  V30 425 C 41.1367 -1.9593 -0.664747 0
M  V30 426 C 41.5517 -0.901352 -1.65895 0
M  V30 427 O 40.9087 0.117255 -1.82123 0
M  V30 428 C 40.9597 -3.34342 -1.37468 0
M  V30 429 O 40.6807 -4.36079 -0.420324 0
M  V30 430 C 42.1817 -3.873 -2.1567 0
M  V30 431 H 39.4017 -0.645405 -0.183557 0
M  V30 432 H 41.9457 -2.04329 0.0836372 0
M  V30 433 H 40.1007 -3.27175 -2.0745 0
M  V30 434 H 40.5147 -5.16297 -0.923991 0
M  V30 435 H 41.9887 -4.86504 -2.60803 0
M  V30 436 H 42.4657 -3.21331 -2.99405 0
M  V30 437 H 43.0717 -3.97723 -1.50654 0
M  V30 438 N 41.3868 0.248026 -1.55636 0
M  V30 439 C 42.6168 0.992367 -1.81206 0
M  V30 440 C 43.0248 1.7949 -0.598324 0
M  V30 441 O 42.3678 1.78292 0.442434 0
M  V30 442 C 42.4298 1.97926 -3.00109 0
M  V30 443 C 42.0938 1.36377 -4.36177 0
M  V30 444 C 43.0908 0.76682 -5.14214 0
M  V30 445 C 40.7758 1.38347 -4.82872 0
M  V30 446 C 42.7698 0.197778 -6.37093 0
M  V30 447 C 40.4568 0.810574 -6.057 0
M  V30 448 C 41.4548 0.218754 -6.8265 0
M  V30 449 O 41.1428 -0.345298 -8.03158 0
M  V30 450 H 40.8748 0.297704 -0.606917 0
M  V30 451 H 43.4288 0.276517 -2.0353 0
M  V30 452 H 41.6588 2.73339 -2.73538 0
M  V30 453 H 43.3478 2.58694 -3.12781 0
M  V30 454 H 44.1138 0.744114 -4.79258 0
M  V30 455 H 39.9928 1.8335 -4.2297 0
M  V30 456 H 43.5368 -0.264788 -6.97097 0
M  V30 457 H 39.4338 0.830604 -6.40134 0
M  V30 458 H 40.2018 -0.237055 -8.18157 0
M  V30 459 N 42.8649 1.48995 0.513639 0
M  V30 460 C 43.8279 1.64229 1.59879 0
M  V30 461 C 44.8279 0.514696 1.5234 0
M  V30 462 O 46.0179 0.78087 1.55718 0
M  V30 463 C 43.1499 1.62783 2.99524 0
M  V30 464 H 44.3429 2.61004 1.47705 0
M  V30 465 H 41.8959 1.37837 0.736936 0
M  V30 466 H 42.6309 0.675461 3.17188 0
M  V30 467 H 42.4159 2.4466 3.06404 0
M  V30 468 H 43.9059 1.76669 3.78388 0
M  V30 469 N 44.343 -0.763751 1.37857 0
M  V30 470 C 45.591 -1.51957 1.33243 0
M  V30 471 C 45.912 -1.94835 -0.0801709 0
M  V30 472 O 45.182 -1.66894 -1.02582 0
M  V30 473 H 43.762 -0.563626 0.49024 0
M  V30 474 H 46.424 -0.908504 1.7243 0
M  V30 475 H 45.52 -2.41523 1.97669 0
M  V30 476 N 45.8211 -1.22559 -0.990812 0
M  V30 477 C 46.7841 -0.998863 -2.0629 0
M  V30 478 C 47.7841 0.0354834 -1.60761 0
M  V30 479 O 48.9741 -0.203231 -1.7301 0
M  V30 480 C 46.1061 -0.509203 -3.37076 0
M  V30 481 H 47.2991 -1.95014 -2.27837 0
M  V30 482 H 44.8521 -1.04456 -1.16269 0
M  V30 483 H 45.5871 0.446335 -3.21214 0
M  V30 484 H 45.3721 -1.25547 -3.71457 0
M  V30 485 H 46.8621 -0.370888 -4.1595 0
M  V30 486 N 47.2992 1.18797 -1.03562 0
M  V30 487 C 48.2622 2.20464 -0.626769 0
M  V30 488 C 49.2622 1.57721 0.313173 0
M  V30 489 O 50.4522 1.73917 0.0992615 0
M  V30 490 C 47.5842 3.40802 0.0818498 0
M  V30 491 H 48.7772 2.58149 -1.5264 0
M  V30 492 H 46.3302 1.32593 -0.827578 0
M  V30 493 H 47.0652 3.08642 0.995518 0
M  V30 494 H 46.8502 3.8758 -0.593652 0
M  V30 495 H 48.3402 4.16092 0.354584 0
M  V30 496 N 48.7773 0.814389 1.34928 0
M  V30 497 C 50.0233 0.399013 1.98836 0
M  V30 498 C 50.3563 -1.03314 1.64438 0
M  V30 499 O 49.6313 -1.71811 0.911659 0
M  V30 500 C 49.9143 0.591629 3.55207 0
M  V30 501 C 49.7673 2.06928 3.99376 0
M  V30 502 C 51.0863 0.022199 4.40094 0
M  V30 503 H 48.2053 0.146451 0.722303 0
M  V30 504 H 50.8473 1.02537 1.59957 0
M  V30 505 H 48.9973 0.0584441 3.88456 0
M  V30 506 H 50.6693 2.66544 3.76499 0
M  V30 507 H 48.9123 2.56287 3.49999 0
M  V30 508 H 49.5833 2.1549 5.08201 0
M  V30 509 H 52.0593 0.477643 4.13349 0
M  V30 510 H 50.9353 0.186832 5.48582 0
M  V30 511 H 51.1963 -1.07215 4.28902 0
M  V30 512 N 50.2554 -1.46986 0.568584 0
M  V30 513 C 51.5324 -1.95592 -0.0174074 0
M  V30 514 C 51.9124 -1.51124 -1.47393 0
M  V30 515 O 51.2604 -0.755329 -2.15655 0
M  V30 516 C 51.4704 -3.48719 0.139913 0
M  V30 517 C 52.8184 -4.246 0.000426376 0
M  V30 518 O 53.8424 -3.56135 0.0680316 0
M  V30 519 O 52.7014 -5.46302 -0.146988 0
M  V30 520 H 49.7954 -0.82498 -0.0577599 0
M  V30 521 H 52.3414 -1.57335 0.635909 0
M  V30 522 H 51.1134 -3.73927 1.15301 0
M  V30 523 H 50.7364 -3.93771 -0.550491 0
M  V30 524 N 51.7335 -0.305618 -1.54608 0
M  V30 525 C 52.6435 0.57778 -2.27374 0
M  V30 526 C 53.6595 1.14451 -1.31061 0
M  V30 527 O 54.8355 1.16831 -1.6405 0
M  V30 528 C 51.9005 1.73123 -3.00382 0
M  V30 529 C 50.9615 1.19812 -4.12242 0
M  V30 530 C 50.1945 2.2966 -4.81759 0
M  V30 531 O 50.4175 3.49651 -4.50666 0
M  V30 532 O 49.3515 1.96091 -5.69062 0
M  V30 533 H 53.1775 -0.012624 -3.03697 0
M  V30 534 H 50.7625 -0.0719184 -1.49227 0
M  V30 535 H 52.6445 2.40315 -3.4616 0
M  V30 536 H 51.3195 2.30815 -2.26949 0
M  V30 537 H 50.2265 0.491798 -3.70853 0
M  V30 538 H 51.5595 0.666566 -4.87666 0
M  V30 539 N 53.2116 1.57565 -0.0334293 0
M  V30 540 C 54.1416 2.13511 0.945265 0
M  V30 541 C 55.1226 1.05231 1.33643 0
M  V30 542 O 56.3076 1.33084 1.41429 0
M  V30 543 C 53.4376 2.6657 2.22616 0
M  V30 544 C 52.3916 3.79676 1.97561 0
M  V30 545 C 51.7176 4.1918 3.31952 0
M  V30 546 C 53.0176 5.0557 1.31135 0
M  V30 547 H 54.7116 2.95538 0.479325 0
M  V30 548 H 52.2576 1.42166 0.229115 0
M  V30 549 H 54.2106 3.04344 2.91466 0
M  V30 550 H 52.9346 1.8171 2.71384 0
M  V30 551 H 51.5936 3.42347 1.31127 0
M  V30 552 H 51.2416 3.31296 3.78487 0
M  V30 553 H 50.9416 4.95402 3.15992 0
M  V30 554 H 52.4656 4.59541 4.02063 0
M  V30 555 H 53.8796 5.40903 1.89992 0
M  V30 556 H 52.2766 5.86818 1.25559 0
M  V30 557 H 53.3466 4.84062 0.284894 0
M  V30 558 N 54.6897 -0.239769 1.55765 0
M  V30 559 C 55.9377 -0.964892 1.77579 0
M  V30 560 C 56.2587 -1.85582 0.598699 0
M  V30 561 O 55.5287 -1.92075 -0.385226 0
M  V30 562 H 54.1087 -0.359265 0.654933 0
M  V30 563 H 56.7707 -0.256001 1.93211 0
M  V30 564 H 55.8667 -1.58243 2.69009 0
M  V30 565 N 56.1678 -1.49265 -0.50573 0
M  V30 566 C 57.1148 -1.65585 -1.6078 0
M  V30 567 C 58.0848 -0.497396 -1.58478 0
M  V30 568 O 59.2698 -0.72385 -1.76536 0
M  V30 569 C 56.4098 -1.72408 -2.98948 0
M  V30 570 C 55.5228 -2.99525 -3.11301 0
M  V30 571 C 54.6578 -2.97356 -4.40174 0
M  V30 572 C 53.6968 -4.19074 -4.46143 0
M  V30 573 N 52.8338 -4.14841 -5.66437 0
M  V30 574 H 57.6738 -2.59688 -1.46172 0
M  V30 575 H 55.2108 -1.28761 -0.711261 0
M  V30 576 H 57.1688 -1.74344 -3.79025 0
M  V30 577 H 55.7988 -0.817753 -3.1227 0
M  V30 578 H 54.8508 -3.07222 -2.24318 0
M  V30 579 H 56.1628 -3.89518 -3.11572 0
M  V30 580 H 55.3168 -2.97829 -5.28567 0
M  V30 581 H 54.0558 -2.05133 -4.42461 0
M  V30 582 H 53.0608 -4.1885 -3.56153 0
M  V30 583 H 54.2858 -5.12483 -4.45575 0
M  V30 584 H 52.2318 -3.25453 -5.69575 0
M  V30 585 H 52.1488 -4.98564 -5.68304 0
M  V30 586 H 53.4168 -4.1941 -6.57051 0
M  V30 587 N 57.6459 0.756429 -1.3826 0
M  V30 588 C 58.8919 1.51772 -1.34511 0
M  V30 589 C 59.2249 1.94089 0.0656691 0
M  V30 590 O 58.4999 1.65221 1.02626 0
M  V30 591 C 58.7829 2.77226 -2.29821 0
M  V30 592 C 58.6359 2.41065 -3.79747 0
M  V30 593 C 59.9549 3.79236 -2.23312 0
M  V30 594 H 57.0739 0.550578 -0.489931 0
M  V30 595 H 59.7159 0.866607 -1.69086 0
M  V30 596 H 57.8659 3.32784 -2.00467 0
M  V30 597 H 59.5379 1.91303 -4.19763 0
M  V30 598 H 57.7809 1.7356 -3.97567 0
M  V30 599 H 58.4519 3.3081 -4.41892 0
M  V30 600 H 60.9279 3.3321 -2.49219 0
M  V30 601 H 59.8039 4.64714 -2.92116 0
M  V30 602 H 60.0649 4.24615 -1.23102 0
M  V30 603 N 59.124 1.23083 0.984299 0
M  V30 604 C 60.054 1.03292 2.09411 0
M  V30 605 C 61.035 -0.048923 1.7003 0
M  V30 606 O 62.22 0.114967 1.93859 0
M  V30 607 C 59.35 0.619155 3.41736 0
M  V30 608 C 58.304 1.64791 3.95004 0
M  V30 609 C 57.63 1.0897 5.23478 0
M  V30 610 C 58.93 3.03999 4.24714 0
M  V30 611 H 60.624 1.96119 2.26225 0
M  V30 612 H 58.17 0.944344 1.08711 0
M  V30 613 H 60.123 0.467777 4.18796 0
M  V30 614 H 58.847 -0.344786 3.24775 0
M  V30 615 H 57.506 1.78721 3.20085 0
M  V30 616 H 57.154 0.11686 5.02864 0
M  V30 617 H 56.854 1.77704 5.60085 0
M  V30 618 H 58.378 0.950093 6.03163 0
M  V30 619 H 59.792 2.93393 4.92538 0
M  V30 620 H 58.189 3.69936 4.72512 0
M  V30 621 H 59.259 3.53285 3.32142 0
M  V30 622 N 60.6021 -1.18246 1.0419 0
M  V30 623 C 61.8301 -1.92195 0.766072 0
M  V30 624 C 62.2451 -1.76247 -0.676933 0
M  V30 625 O 61.6021 -1.09293 -1.46155 0
M  V30 626 C 61.6531 -3.43568 1.12442 0
M  V30 627 O 61.3741 -3.59015 2.51078 0
M  V30 628 C 62.8751 -4.34613 0.873275 0
M  V30 629 H 60.0951 -0.610114 0.279288 0
M  V30 630 H 62.6391 -1.50007 1.38989 0
M  V30 631 H 60.7941 -3.8354 0.545542 0
M  V30 632 H 61.2081 -4.5273 2.64831 0
M  V30 633 H 62.6821 -5.39374 1.17385 0
M  V30 634 H 63.1591 -4.38781 -0.191909 0
M  V30 635 H 63.7651 -4.00341 1.43551 0
M  V30 636 N 62.0802 -0.821533 -1.34494 0
M  V30 637 C 63.4912 -0.467956 -1.8074 0
M  V30 638 C 63.8422 1.01151 -1.68116 0
M  V30 639 O 62.9672 1.78707 -1.22036 0
M  V30 640 C 63.5622 -0.842627 -3.28154 0
M  V30 641 C 62.1212 -0.541439 -3.72485 0
M  V30 642 C 61.2682 -1.06028 -2.56229 0
M  V30 643 H 64.2192 -1.01183 -1.22261 0
M  V30 644 H 64.2402 -0.145876 -3.8022 0
M  V30 645 H 63.7522 -1.91945 -3.37311 0
M  V30 646 H 61.8532 0.526034 -3.68868 0
M  V30 647 H 61.9662 -1.08453 -4.66663 0
M  V30 648 H 60.3302 -0.481892 -2.501 0
M  V30 649 H 61.1132 -2.14352 -2.68157 0
M  V30 650 N 63.5583 1.46682 -0.576371 0
M  V30 651 C 64.7863 2.06798 -0.0649635 0
M  V30 652 C 65.2013 1.42612 1.23723 0
M  V30 653 O 64.5583 0.529203 1.74659 0
M  V30 654 C 64.6093 3.6132 0.114202 0
M  V30 655 O 64.3303 4.23104 -1.13644 0
M  V30 656 C 65.8313 4.38349 0.66069 0
M  V30 657 H 63.0513 0.668778 -0.0545616 0
M  V30 658 H 65.5953 1.88404 -0.795237 0
M  V30 659 H 63.7503 3.79162 0.794673 0
M  V30 660 H 64.1643 5.15894 -0.946253 0
M  V30 661 H 65.6383 5.47081 0.73526 0
M  V30 662 H 66.1153 4.05953 1.67627 0
M  V30 663 H 66.7213 4.25297 0.0152951 0
M  V30 664 N 65.0364 0.313813 1.54444 0
M  V30 665 C 65.9684 -0.590425 2.21465 0
M  V30 666 C 66.9814 -1.08753 1.21147 0
M  V30 667 O 68.1704 -1.00278 1.4767 0
M  V30 668 C 65.2704 -1.82179 2.85769 0
M  V30 669 C 64.4434 -1.46502 4.12136 0
M  V30 670 C 63.5024 -2.55288 4.60124 0
M  V30 671 O 62.5284 -2.19842 5.25032 0
M  V30 672 N 63.7304 -3.86053 4.33525 0
M  V30 673 H 66.4954 -0.0166033 2.99695 0
M  V30 674 H 64.0564 0.136578 1.61323 0
M  V30 675 H 66.0484 -2.54328 3.14801 0
M  V30 676 H 64.6184 -2.30369 2.11303 0
M  V30 677 H 63.8384 -0.575595 3.89975 0
M  V30 678 H 65.1264 -1.20221 4.94393 0
M  V30 679 H 64.5244 -4.17654 3.81552 0
M  V30 680 H 63.0814 -4.54461 4.67235 0
M  V30 681 N 66.5145 -1.57545 0.0417849 0
M  V30 682 C 67.7605 -1.92601 -0.635021 0
M  V30 683 C 68.0935 -0.919627 -1.71045 0
M  V30 684 O 67.3685 0.0557892 -1.9442 0
M  V30 685 C 67.6515 -3.38085 -1.23979 0
M  V30 686 C 67.5045 -4.49467 -0.173057 0
M  V30 687 C 68.8235 -3.83776 -2.15416 0
M  V30 688 H 65.9425 -0.700397 -0.229374 0
M  V30 689 H 68.5845 -1.89728 0.101633 0
M  V30 690 H 66.7345 -3.40664 -1.86762 0
M  V30 691 H 68.4065 -4.59018 0.458312 0
M  V30 692 H 66.6495 -4.30909 0.499996 0
M  V30 693 H 67.3205 -5.48323 -0.636054 0
M  V30 694 H 69.7965 -3.83013 -1.62605 0
M  V30 695 H 68.6725 -4.8624 -2.54679 0
M  V30 696 H 68.9335 -3.19998 -3.05047 0
M  V30 697 N 67.9926 0.231505 -1.5589 0
M  V30 698 C 68.9396 1.28682 -1.91598 0
M  V30 699 C 69.9096 1.47071 -0.771974 0
M  V30 700 O 71.0946 1.60802 -1.027 0
M  V30 701 C 68.2346 2.6342 -2.22944 0
M  V30 702 C 67.3476 2.52912 -3.50228 0
M  V30 703 C 66.4826 3.80106 -3.7107 0
M  V30 704 C 65.5216 3.64279 -4.91902 0
M  V30 705 N 64.6586 4.834 -5.09184 0
M  V30 706 H 69.4986 0.975305 -2.81588 0
M  V30 707 H 67.0356 0.470299 -1.39379 0
M  V30 708 H 68.9936 3.41869 -2.39126 0
M  V30 709 H 67.6236 2.92687 -1.36139 0
M  V30 710 H 66.6756 1.6595 -3.42294 0
M  V30 711 H 67.9876 2.37133 -4.38827 0
M  V30 712 H 67.1416 4.66999 -3.87295 0
M  V30 713 H 65.8806 3.98799 -2.80733 0
M  V30 714 H 64.8856 2.7577 -4.75637 0
M  V30 715 H 66.1106 3.47067 -5.83714 0
M  V30 716 H 64.0566 5.02425 -4.21788 0
M  V30 717 H 63.9736 4.70311 -5.91898 0
M  V30 718 H 65.2416 5.71747 -5.29835 0
M  V30 719 N 69.4707 1.49531 0.497807 0
M  V30 720 C 70.4187 1.66926 1.61983 0
M  V30 721 C 71.4127 0.535167 1.60724 0
M  V30 722 O 72.6187 0.714896 1.65195 0
M  V30 723 H 68.9937 0.526415 0.537021 0
M  V30 724 H 70.9647 2.61098 1.44465 0
M  V30 725 C 69.7137 1.75602 3.00099 0
M  V30 726 H 69.0367 2.62244 3.01775 0
M  V30 727 H 70.4767 1.91807 3.78135 0
M  V30 728 C 68.9357 0.501543 3.33146 0
M  V30 729 O 69.4657 -0.371342 3.9998 0
M  V30 730 N 67.6717 0.363531 2.88317 0
M  V30 731 H 67.2187 1.07485 2.34104 0
M  V30 732 H 67.1767 -0.474728 3.10795 0
M  V30 733 N 70.9488 -0.749086 1.3866 0
M  V30 734 C 72.3648 -1.05276 1.19955 0
M  V30 735 C 72.5648 -2.01435 0.05134 0
M  V30 736 O 71.6208 -2.45232 -0.60147 0
M  V30 737 C 72.9338 -1.62853 2.52783 0
M  V30 738 C 74.4818 -1.75002 2.59506 0
M  V30 739 C 74.9568 -2.35991 3.92521 0
M  V30 740 N 76.4478 -2.43416 3.94085 0
M  V30 741 C 77.1828 -2.91511 4.9377 0
M  V30 742 N 76.6788 -3.39608 6.03853 0
M  V30 743 N 78.4718 -2.90592 4.81157 0
M  V30 744 H 70.6228 -0.111066 2.12109 0
M  V30 745 H 72.8858 -0.111901 0.941373 0
M  V30 746 H 72.5918 -0.99664 3.37283 0
M  V30 747 H 72.4658 -2.61854 2.715 0
M  V30 748 H 74.8528 -2.37317 1.75398 0
M  V30 749 H 74.9338 -0.74693 2.44652 0
M  V30 750 H 74.5778 -1.74308 4.77053 0
M  V30 751 H 74.5078 -3.3695 4.04688 0
M  V30 752 H 76.9988 -2.09405 3.14576 0
M  V30 753 H 77.3118 -3.74775 6.75843 0
M  V30 754 H 75.6568 -3.37653 6.07466 0
M  V30 755 H 78.8478 -2.52332 3.94267 0
M  V30 756 H 79.0208 -3.27762 5.58996 0
M  V30 757 N 72.4269 -1.23603 -0.977757 0
M  V30 758 C 73.8379 -1.06424 -1.53398 0
M  V30 759 C 74.1889 0.367578 -1.92726 0
M  V30 760 O 73.3139 1.25465 -1.76316 0
M  V30 761 C 73.9089 -1.92568 -2.78753 0
M  V30 762 C 72.4679 -1.79642 -3.30765 0
M  V30 763 C 71.6149 -1.88111 -2.03739 0
M  V30 764 H 74.5659 -1.37227 -0.797152 0
M  V30 765 H 74.5869 -1.45203 -3.51705 0
M  V30 766 H 74.0989 -2.96771 -2.50098 0
M  V30 767 H 72.1999 -0.782325 -3.64294 0
M  V30 768 H 72.3129 -2.63174 -4.00345 0
M  V30 769 H 70.6769 -1.31723 -2.17994 0
M  V30 770 H 71.4599 -2.93875 -1.77461 0
M  V30 771 N 73.905 1.17692 -1.04816 0
M  V30 772 C 75.133 1.91786 -0.776254 0
M  V30 773 C 75.548 1.76604 0.667577 0
M  V30 774 O 74.905 1.10067 1.45573 0
M  V30 775 C 74.956 3.42967 -1.14263 0
M  V30 776 O 74.677 3.57678 -2.52978 0
M  V30 777 C 76.178 4.34144 -0.896311 0
M  V30 778 H 73.398 0.608624 -0.282519 0
M  V30 779 H 75.942 1.49268 -1.39783 0
M  V30 780 H 74.097 3.83245 -0.565874 0
M  V30 781 H 74.511 4.51319 -2.67229 0
M  V30 782 H 75.985 5.38744 -1.20244 0
M  V30 783 H 76.462 4.38876 0.168636 0
M  V30 784 H 77.068 3.99574 -1.45672 0
M  V30 785 N 75.3831 0.828654 1.34056 0
M  V30 786 C 76.6081 0.431637 2.02859 0
M  V30 787 C 77.0331 -0.956339 1.61975 0
M  V30 788 O 76.3911 -1.62338 0.807228 0
M  V30 789 C 76.4391 0.548323 3.56407 0
M  V30 790 O 75.5431 -0.429556 4.10157 0
M  V30 791 H 74.8841 0.176886 0.640006 0
M  V30 792 H 77.4141 1.12066 1.71179 0
M  V30 793 H 77.4241 0.426196 4.05768 0
M  V30 794 H 76.0991 1.5606 3.8551 0
M  V30 795 H 74.6761 -0.265836 3.71951 0
M  V30 796 N 76.8612 -1.46375 0.584142 0
M  V30 797 C 78.1102 -2.01585 0.0679741 0
M  V30 798 C 78.4232 -1.46109 -1.30045 0
M  V30 799 O 79.6292 -1.93148 -1.90804 0
M  V30 800 C 78.0852 -3.5983 0.0709207 0
M  V30 801 C 77.6932 -4.24303 1.43775 0
M  V30 802 C 79.4372 -4.22693 -0.391228 0
M  V30 803 C 77.3442 -5.74631 1.39834 0
M  V30 804 H 76.2742 -0.753689 0.0216421 0
M  V30 805 H 78.9252 -1.68093 0.736001 0
M  V30 806 H 77.3072 -3.90405 -0.663299 0
M  V30 807 H 78.4812 -4.05335 2.19181 0
M  V30 808 H 76.7962 -3.73539 1.84004 0
M  V30 809 H 79.3932 -5.3289 -0.439524 0
M  V30 810 H 79.7362 -3.91728 -1.40906 0
M  V30 811 H 80.2692 -3.96749 0.288974 0
M  V30 812 H 77.0082 -6.10258 2.39303 0
M  V30 813 H 76.5282 -5.95858 0.686505 0
M  V30 814 H 78.2072 -6.37375 1.11187 0
M  V30 815 N 78.3393 -0.321999 -1.54275 0
M  V30 816 C 79.5643 0.285791 -2.05422 0
M  V30 817 C 79.9893 1.45124 -1.19669 0
M  V30 818 O 79.3473 1.80132 -0.205441 0
M  V30 819 C 79.3953 0.69956 -3.53749 0
M  V30 820 O 78.4993 1.8021 -3.70942 0
M  V30 821 H 77.8403 0.0518962 -0.661969 0
M  V30 822 H 80.3703 -0.469954 -1.9913 0
M  V30 823 H 80.3803 0.982649 -3.9599 0
M  V30 824 H 79.0553 -0.152864 -4.15619 0
M  V30 825 H 77.6323 1.51794 -3.40607 0
M  V30 826 N 79.8174 1.5752 -0.0501392 0
M  V30 827 C 81.0634 1.93755 0.618901 0
M  V30 828 C 81.4184 0.928514 1.68512 0
M  V30 829 O 80.7114 -0.0524613 1.91528 0
M  V30 830 C 80.9054 3.34467 1.25963 0
M  V30 831 C 80.7344 4.48965 0.257 0
M  V30 832 C 79.5044 5.05075 -0.150656 0
M  V30 833 C 81.7024 5.11891 -0.497166 0
M  V30 834 N 79.6844 6.03104 -1.14626 0
M  V30 835 C 81.0554 6.05216 -1.34588 0
M  V30 836 C 83.1104 4.9479 -0.55559 0
M  V30 837 C 81.8134 6.83277 -2.24778 0
M  V30 838 C 83.8394 5.73477 -1.44492 0
M  V30 839 C 83.2014 6.66433 -2.28136 0
M  V30 840 H 79.3004 0.756479 0.198149 0
M  V30 841 H 81.8844 1.94316 -0.122229 0
M  V30 842 H 80.0554 3.34685 1.97079 0
M  V30 843 H 81.7874 3.57994 1.88739 0
M  V30 844 H 78.5424 4.7305 0.228094 0
M  V30 845 H 78.9664 6.56813 -1.64092 0
M  V30 846 H 83.6084 4.2273 0.0768625 0
M  V30 847 H 81.3264 7.54629 -2.89069 0
M  V30 848 H 84.9124 5.62273 -1.49468 0
M  V30 849 H 83.7924 7.26258 -2.95835 0
M  V30 850 N 81.2955 -0.223234 1.56011 0
M  V30 851 C 82.5725 -0.972108 1.69733 0
M  V30 852 C 82.9525 -2.02485 0.59691 0
M  V30 853 O 82.3005 -2.25037 -0.396324 0
M  V30 854 C 82.5105 -1.58407 3.10979 0
M  V30 855 C 83.8585 -2.07696 3.70334 0
M  V30 856 O 84.8825 -1.68304 3.1393 0
M  V30 857 O 83.7415 -2.80096 4.69264 0
M  V30 858 H 80.8355 -0.453993 0.691245 0
M  V30 859 H 83.3815 -0.215149 1.68331 0
M  V30 860 H 82.1535 -0.823831 3.82529 0
M  V30 861 H 81.7765 -2.40661 3.16493 0
M  V30 862 N 82.7736 -1.49793 -0.48987 0
M  V30 863 C 84.0216 -1.59525 -1.24081 0
M  V30 864 C 84.3426 -0.288953 -1.92847 0
M  V30 865 O 83.6126 0.692436 -1.83254 0
M  V30 866 H 82.1926 -0.587796 -0.460983 0
M  V30 867 H 84.8546 -1.86477 -0.566778 0
M  V30 868 H 83.9506 -2.39696 -1.99881 0
M  V30 869 N 84.2517 0.741722 -1.39055 0
M  V30 870 C 85.1817 1.869 -1.39966 0
M  V30 871 C 86.1627 1.6804 -0.26392 0
M  V30 872 O 87.3477 1.88458 -0.468755 0
M  V30 873 C 84.4777 3.24572 -1.23574 0
M  V30 874 C 83.4317 3.58056 -2.34477 0
M  V30 875 C 82.7577 4.94593 -2.0318 0
M  V30 876 C 84.0577 3.61716 -3.76774 0
M  V30 877 H 85.7517 1.86395 -2.34302 0
M  V30 878 H 83.2977 0.895361 -1.1278 0
M  V30 879 H 85.2507 4.031 -1.22834 0
M  V30 880 H 83.9747 3.25587 -0.257045 0
M  V30 881 H 82.6337 2.81854 -2.34423 0
M  V30 882 H 82.2817 4.92181 -1.03765 0
M  V30 883 H 81.9817 5.17964 -2.77465 0
M  V30 884 H 83.5057 5.75486 -2.04079 0
M  V30 885 H 84.9197 4.30335 -3.78794 0
M  V30 886 H 83.3167 3.96603 -4.50362 0
M  V30 887 H 84.3867 2.61672 -4.08235 0
M  V30 888 N 85.7298 1.2412 0.971189 0
M  V30 889 C 87.0068 0.986867 1.6888 0
M  V30 890 C 87.3868 -0.491857 2.0529 0
M  V30 891 O 86.7348 -1.46531 1.75331 0
M  V30 892 C 86.9448 1.9063 2.92338 0
M  V30 893 C 88.2928 2.17515 3.64654 0
M  V30 894 O 89.3168 1.88254 3.02388 0
M  V30 895 O 88.1758 2.6719 4.7673 0
M  V30 896 H 85.2698 0.372944 0.738134 0
M  V30 897 H 87.8158 1.35203 1.02559 0
M  V30 898 H 86.5878 2.90552 2.62097 0
M  V30 899 H 86.2108 1.54408 3.66393 0
M  V30 900 N 87.2079 -1.17134 1.05439 0
M  V30 901 C 88.4329 -1.91913 0.786396 0
M  V30 902 C 88.8579 -1.7643 -0.652234 0
M  V30 903 O 88.2159 -1.08372 -1.45345 0
M  V30 904 C 88.2639 -3.40921 1.17497 0
M  V30 905 O 87.3679 -4.11244 0.308589 0
M  V30 906 H 86.7089 -0.598215 0.288158 0
M  V30 907 H 89.2389 -1.48457 1.4079 0
M  V30 908 H 89.2489 -3.91668 1.14281 0
M  V30 909 H 87.9239 -3.5151 2.22292 0
M  V30 910 H 86.5009 -3.70731 0.40157 0
M  V30 911 N 88.686 -0.835752 -1.33615 0
M  V30 912 C 89.934 -0.429109 -1.97492 0
M  V30 913 C 90.255 1.01433 -1.66543 0
M  V30 914 O 89.525 1.70611 -0.962744 0
M  V30 915 H 88.105 -0.155686 -0.730596 0
M  V30 916 H 90.767 -1.06802 -1.63031 0
M  V30 917 H 89.863 -0.55861 -3.0706 0
M  V30 918 N 90.1641 1.46063 -0.591896 0
M  V30 919 C 91.1111 2.30399 0.136069 0
M  V30 920 C 92.0811 1.41169 0.875238 0
M  V30 921 O 93.2661 1.70112 0.86409 0
M  V30 922 C 90.4061 3.25804 1.13781 0
M  V30 923 C 89.5191 4.30134 0.401137 0
M  V30 924 C 88.6541 5.12659 1.39121 0
M  V30 925 C 87.6931 6.0873 0.641462 0
M  V30 926 N 86.8301 6.8409 1.58004 0
M  V30 927 H 91.6701 2.92118 -0.589144 0
M  V30 928 H 89.2071 1.43959 -0.302342 0
M  V30 929 H 91.1651 3.79569 1.73156 0
M  V30 930 H 89.7951 2.65872 1.83062 0
M  V30 931 H 88.8471 3.79152 -0.307826 0
M  V30 932 H 90.1591 4.98458 -0.184565 0
M  V30 933 H 89.3131 5.70747 2.05749 0
M  V30 934 H 88.0521 4.44316 2.01084 0
M  V30 935 H 87.0571 5.49786 -0.0385419 0
M  V30 936 H 88.2821 6.79095 0.0270945 0
M  V30 937 H 86.2281 6.18449 2.18761 0
M  V30 938 H 86.1451 7.48709 1.04738 0
M  V30 939 H 87.4131 7.4673 2.23639 0
M  V30 940 N 91.6422 0.330177 1.54103 0
M  V30 941 C 92.5722 -0.525353 2.27513 0
M  V30 942 C 93.5532 -1.11383 1.2856 0
M  V30 943 O 94.7382 -1.13773 1.57383 0
M  V30 944 C 91.8682 -1.6831 3.03791 0
M  V30 945 C 90.8222 -1.2236 4.10137 0
M  V30 946 C 90.1482 -2.46882 4.74293 0
M  V30 947 C 91.4482 -0.333697 5.21233 0
M  V30 948 H 93.1422 0.087013 2.99274 0
M  V30 949 H 90.6882 0.0432893 1.43935 0
M  V30 950 H 92.6412 -2.28795 3.5388 0
M  V30 951 H 91.3652 -2.32216 2.29659 0
M  V30 952 H 90.0242 -0.64165 3.60941 0
M  V30 953 H 89.6722 -3.09165 3.96769 0
M  V30 954 H 89.3722 -2.16825 5.46133 0
M  V30 955 H 90.8962 -3.08117 5.27159 0
M  V30 956 H 92.3102 -0.845013 5.67038 0
M  V30 957 H 90.7072 -0.125612 5.99969 0
M  V30 958 H 91.7772 0.633724 4.80741 0
M  V30 959 N 93.1203 -1.57491 0.0584922 0
M  V30 960 C 94.3503 -1.9701 -0.622134 0
M  V30 961 C 94.7583 -0.935034 -1.6448 0
M  V30 962 O 94.1013 0.0882904 -1.83488 0
M  V30 963 C 94.1633 -3.32794 -1.35972 0
M  V30 964 C 93.8273 -4.54343 -0.492043 0
M  V30 965 C 94.8243 -5.19323 0.244901 0
M  V30 966 C 92.5093 -5.00534 -0.420821 0
M  V30 967 C 94.5033 -6.28835 1.04143 0
M  V30 968 C 92.1903 -6.09921 0.379389 0
M  V30 969 C 93.1883 -6.73933 1.10919 0
M  V30 970 O 92.8763 -7.81216 1.89623 0
M  V30 971 H 92.6083 -0.653127 -0.174359 0
M  V30 972 H 95.1623 -2.05029 0.123418 0
M  V30 973 H 93.3923 -3.21351 -2.15105 0
M  V30 974 H 95.0813 -3.5701 -1.93129 0
M  V30 975 H 95.8473 -4.8459 0.19939 0
M  V30 976 H 91.7263 -4.50496 -0.978474 0
M  V30 977 H 95.2703 -6.7873 1.61157 0
M  V30 978 H 91.1673 -6.44089 0.426512 0
M  V30 979 H 91.9353 -7.98029 1.81913 0
M  V30 980 N 94.5984 0.214957 -1.56127 0
M  V30 981 C 95.8264 0.955092 -1.83536 0
M  V30 982 C 96.2414 1.77677 -0.638472 0
M  V30 983 O 95.5984 1.78219 0.392968 0
M  V30 984 C 95.6494 1.86734 -3.09536 0
M  V30 985 O 95.3704 1.07887 -4.24608 0
M  V30 986 C 96.8714 2.72082 -3.4998 0
M  V30 987 H 94.0914 0.279611 -0.609966 0
M  V30 988 H 96.6354 0.228197 -2.03223 0
M  V30 989 H 94.7904 2.5481 -2.91806 0
M  V30 990 H 95.2044 1.69872 -4.9623 0
M  V30 991 H 96.6784 3.31782 -4.41163 0
M  V30 992 H 97.1554 3.44806 -2.7204 0
M  V30 993 H 97.7614 2.09409 -3.70173 0
M  V30 994 N 96.0765 1.50051 0.48192 0
M  V30 995 C 97.0065 1.71046 1.58951 0
M  V30 996 C 97.9875 0.559288 1.60642 0
M  V30 997 O 99.1725 0.797243 1.77081 0
M  V30 998 C 96.3025 1.79462 2.97339 0
M  V30 999 C 95.2565 2.94558 3.10515 0
M  V30 1000 C 94.5825 2.88105 4.50444 0
M  V30 1001 C 95.8825 4.35227 2.88747 0
M  V30 1002 H 97.5765 2.6378 1.41635 0
M  V30 1003 H 95.1225 1.26936 0.679942 0
M  V30 1004 H 97.0755 1.92734 3.74742 0
M  V30 1005 H 95.7995 0.833412 3.15788 0
M  V30 1006 H 94.4585 2.80918 2.35543 0
M  V30 1007 H 94.1065 1.89853 4.65795 0
M  V30 1008 H 93.8065 3.65366 4.60197 0
M  V30 1009 H 95.3305 3.03412 5.29881 0
M  V30 1010 H 96.7445 4.49449 3.55905 0
M  V30 1011 H 95.1415 5.13856 3.09955 0
M  V30 1012 H 96.2115 4.48347 1.84696 0
M  V30 1013 N 97.5546 -0.734337 1.39446 0
M  V30 1014 C 98.8006 -1.49613 1.36908 0
M  V30 1015 C 99.1336 -1.94169 -0.0347829 0
M  V30 1016 O 98.4086 -1.66833 -0.999847 0
M  V30 1017 C 98.6916 -2.73534 2.34203 0
M  V30 1018 C 98.5446 -2.34993 3.83534 0
M  V30 1019 C 99.8636 -3.75635 2.29317 0
M  V30 1020 H 96.9826 -0.542714 0.498629 0
M  V30 1021 H 99.6246 -0.839597 1.70443 0
M  V30 1022 H 97.7746 -3.29553 2.05736 0
M  V30 1023 H 99.4466 -1.84601 4.22753 0
M  V30 1024 H 97.6896 -1.67213 4.00278 0
M  V30 1025 H 98.3606 -3.23738 4.47099 0
M  V30 1026 H 100.837 -3.29203 2.54489 0
M  V30 1027 H 99.7126 -4.60008 2.99472 0
M  V30 1028 H 99.9736 -4.22603 1.29842 0
M  V30 1029 N 99.0327 -1.24633 -0.964593 0
M  V30 1030 C 99.9627 -1.06611 -2.07741 0
M  V30 1031 C 100.944 0.0218666 -1.70086 0
M  V30 1032 O 102.129 -0.145793 -1.93652 0
M  V30 1033 C 99.2587 -0.673444 -3.40708 0
M  V30 1034 C 98.2127 -1.71054 -3.92332 0
M  V30 1035 C 97.5387 -1.17285 -5.21678 0
M  V30 1036 C 98.8387 -3.10718 -4.19824 0
M  V30 1037 H 100.533 -1.99693 -2.23076 0
M  V30 1038 H 98.0787 -0.96152 -1.07195 0
M  V30 1039 H 100.032 -0.534345 -4.17998 0
M  V30 1040 H 98.7557 0.293073 -3.25282 0
M  V30 1041 H 97.4147 -1.83791 -3.17201 0
M  V30 1042 H 97.0627 -0.196847 -5.02615 0
M  V30 1043 H 96.7627 -1.86592 -5.57187 0
M  V30 1044 H 98.2867 -1.04593 -6.01575 0
M  V30 1045 H 99.7007 -3.01192 -4.87808 0
M  V30 1046 H 98.0977 -3.77406 -4.66567 0
M  V30 1047 H 99.1677 -3.58524 -3.26479 0
M  V30 1048 N 100.511 1.16574 -1.06058 0
M  V30 1049 C 101.739 1.90952 -0.796552 0
M  V30 1050 C 102.154 1.77302 0.648808 0
M  V30 1051 O 101.511 1.11605 1.44397 0
M  V30 1052 C 101.562 3.41736 -1.17894 0
M  V30 1053 O 101.283 3.54975 -2.56758 0
M  V30 1054 C 102.784 4.33169 -0.942308 0
M  V30 1055 H 100.004 0.605594 -0.288959 0
M  V30 1056 H 102.548 1.47777 -1.41358 0
M  V30 1057 H 100.703 3.82623 -0.606491 0
M  V30 1058 H 101.117 4.4846 -2.72 0
M  V30 1059 H 102.591 5.37439 -1.25952 0
M  V30 1060 H 103.068 4.3903 0.122078 0
M  V30 1061 H 103.674 3.98007 -1.49902 0
M  V30 1062 N 101.989 0.842826 1.3317 0
M  V30 1063 C 103.266 0.362216 1.92217 0
M  V30 1064 C 103.646 -1.15289 1.76838 0
M  V30 1065 O 102.994 -1.96914 1.15919 0
M  V30 1066 C 103.204 0.813495 3.39387 0
M  V30 1067 C 104.552 0.823804 4.16532 0
M  V30 1068 O 105.576 0.757358 3.48055 0
M  V30 1069 O 104.435 0.915193 5.38782 0
M  V30 1070 H 101.529 0.103317 0.820521 0
M  V30 1071 H 104.075 0.928942 1.42017 0
M  V30 1072 H 102.847 1.85624 3.4447 0
M  V30 1073 H 102.47 0.223561 3.96971 0
M  V30 1074 N 103.467 -1.45747 0.599634 0
M  V30 1075 C 104.878 -1.85853 0.177681 0
M  V30 1076 C 105.229 -1.50102 -1.26348 0
M  V30 1077 O 104.354 -0.923905 -1.95686 0
M  V30 1078 C 104.949 -3.37326 0.315688 0
M  V30 1079 C 103.508 -3.76365 -0.0515144 0
M  V30 1080 C 102.655 -2.69722 0.643822 0
M  V30 1081 H 105.606 -1.36661 0.806814 0
M  V30 1082 H 105.627 -3.77778 -0.454321 0
M  V30 1083 H 105.139 -3.63315 1.36468 0
M  V30 1084 H 103.24 -3.55993 -1.09999 0
M  V30 1085 H 103.353 -4.77916 0.336594 0
M  V30 1086 H 101.717 -2.54567 0.0822881 0
M  V30 1087 H 102.5 -2.98549 1.6948 0
M  V30 1088 N 104.945 -0.338344 -1.53925 0
M  V30 1089 C 106.222 0.314774 -1.93051 0
M  V30 1090 C 106.602 1.68669 -1.26941 0
M  V30 1091 O 105.95 2.24636 -0.418445 0
M  V30 1092 C 106.16 0.392249 -3.46789 0
M  V30 1093 C 107.508 0.645554 -4.19664 0
M  V30 1094 O 108.532 0.474575 -3.53024 0
M  V30 1095 O 107.391 0.976408 -5.37707 0
M  V30 1096 H 104.485 0.182598 -0.80659 0
M  V30 1097 H 107.031 -0.389141 -1.65178 0
M  V30 1098 H 105.803 -0.570702 -3.87116 0
M  V30 1099 H 105.426 1.14316 -3.80812 0
M  V30 1100 N 106.423 1.57458 -0.0668435 0
M  V30 1101 C 107.386 2.11323 0.887422 0
M  V30 1102 C 108.386 1.03618 1.22964 0
M  V30 1103 O 109.576 1.29626 1.16373 0
M  V30 1104 C 106.708 2.61048 2.19242 0
M  V30 1105 H 107.901 2.96942 0.420194 0
M  V30 1106 H 105.454 1.55239 0.181793 0
M  V30 1107 H 106.189 1.78868 2.70512 0
M  V30 1108 H 105.974 3.39769 1.95702 0
M  V30 1109 H 107.464 3.02814 2.87565 0
M  V30 1110 N 107.901 -0.206675 1.56239 0
M  V30 1111 C 109.312 -0.772383 1.69974 0
M  V30 1112 C 109.663 -1.84353 0.671436 0
M  V30 1113 O 108.788 -2.15695 -0.174491 0
M  V30 1114 C 109.383 -1.40779 3.08167 0
M  V30 1115 C 107.942 -1.92072 3.23706 0
M  V30 1116 C 107.089 -0.786347 2.65917 0
M  V30 1117 H 110.04 0.0182223 1.5869 0
M  V30 1118 H 110.061 -2.27696 3.04852 0
M  V30 1119 H 109.573 -0.627958 3.82986 0
M  V30 1120 H 107.674 -2.7281 2.53782 0
M  V30 1121 H 107.787 -2.09046 4.31087 0
M  V30 1122 H 106.151 -1.1976 2.24788 0
M  V30 1123 H 106.934 -0.0189416 3.43295 0
M  V30 1124 N 109.379 -1.50304 -0.473955 0
M  V30 1125 C 110.604 -1.65175 -1.25427 0
M  V30 1126 C 111.029 -0.333673 -1.85117 0
M  V30 1127 O 110.387 0.702114 -1.67153 0
M  V30 1128 C 110.435 -2.74295 -2.34082 0
M  V30 1129 O 109.539 -2.35349 -3.38651 0
M  V30 1130 H 108.88 -0.551944 -0.369126 0
M  V30 1131 H 111.41 -1.96662 -0.564364 0
M  V30 1132 H 111.42 -2.97285 -2.79438 0
M  V30 1133 H 110.095 -3.69959 -1.90008 0
M  V30 1134 H 108.672 -2.22794 -2.99027 0
M  V30 1135 N 110.857 0.726932 -1.39834 0
M  V30 1136 C 112.273 1.03354 -1.21615 0
M  V30 1137 C 112.473 2.01327 -0.08338 0
M  V30 1138 O 111.529 2.46158 0.56238 0
M  V30 1139 C 112.842 1.58811 -2.55342 0
M  V30 1140 C 114.39 1.70851 -2.62257 0
M  V30 1141 C 114.865 2.29716 -3.96225 0
M  V30 1142 N 116.356 2.37116 -3.97907 0
M  V30 1143 C 117.091 2.83619 -4.98345 0
M  V30 1144 N 116.587 3.29958 -6.09179 0
M  V30 1145 N 118.38 2.82901 -4.8572 0
M  V30 1146 H 110.531 0.0773069 -2.12259 0
M  V30 1147 H 112.794 0.0969102 -0.943034 0
M  V30 1148 H 112.5 0.942855 -3.38826 0
M  V30 1149 H 112.374 2.57502 -2.75632 0
M  V30 1150 H 114.761 2.34497 -1.79152 0
M  V30 1151 H 114.842 0.707913 -2.45809 0
M  V30 1152 H 114.486 1.66696 -4.79765 0
M  V30 1153 H 114.416 3.30469 -4.09997 0
M  V30 1154 H 116.907 2.04374 -3.17868 0
M  V30 1155 H 117.22 3.63976 -6.8172 0
M  V30 1156 H 115.565 3.27946 -6.12761 0
M  V30 1157 H 118.756 2.46027 -3.98231 0
M  V30 1158 H 118.929 3.18827 -5.6414 0
M  V30 1159 N 112.336 1.25143 0.95797 0
M  V30 1160 C 113.283 1.05235 2.05412 0
M  V30 1161 C 114.253 -0.0374561 1.66058 0
M  V30 1162 O 115.438 0.119073 1.90428 0
M  V30 1163 C 112.578 0.673589 3.38462 0
M  V30 1164 C 111.691 1.8379 3.90954 0
M  V30 1165 C 110.826 1.40381 5.12315 0
M  V30 1166 C 109.865 2.53746 5.57027 0
M  V30 1167 N 109.002 2.11136 6.69601 0
M  V30 1168 H 113.842 1.99048 2.21774 0
M  V30 1169 H 111.379 0.991277 1.08683 0
M  V30 1170 H 113.337 0.434964 4.14926 0
M  V30 1171 H 111.967 -0.227554 3.21997 0
M  V30 1172 H 111.019 2.18992 3.11041 0
M  V30 1173 H 112.331 2.68937 4.20089 0
M  V30 1174 H 111.485 1.12464 5.96185 0
M  V30 1175 H 110.224 0.523015 4.84887 0
M  V30 1176 H 109.229 2.82412 4.71724 0
M  V30 1177 H 110.454 3.42398 5.86464 0
M  V30 1178 H 108.4 1.25468 6.4389 0
M  V30 1179 H 108.317 2.89832 6.98236 0
M  V30 1180 H 109.585 1.86385 7.56889 0
M  V30 1181 N 113.814 -1.1601 1.06675 0
M  V30 1182 C 115.091 -1.82679 0.699114 0
M  V30 1183 C 115.471 -1.94559 -0.819137 0
M  V30 1184 O 114.819 -1.49169 -1.73092 0
M  V30 1185 C 115.029 -3.19445 1.40555 0
M  V30 1186 C 116.377 -3.95171 1.55323 0
M  V30 1187 O 117.401 -3.28976 1.36577 0
M  V30 1188 O 116.26 -5.13833 1.86112 0
M  V30 1189 H 113.354 -0.788954 0.247951 0
M  V30 1190 H 115.9 -1.23179 1.16726 0
M  V30 1191 H 114.672 -3.05856 2.44065 0
M  V30 1192 H 114.295 -3.86625 0.927733 0
M  V30 1193 N 115.292 -0.849877 -1.32721 0
M  V30 1194 C 116.703 -0.506188 -1.79707 0
M  V30 1195 C 117.054 0.975627 -1.70223 0
M  V30 1196 O 116.179 1.76078 -1.25799 0
M  V30 1197 C 116.774 -0.912044 -3.26293 0
M  V30 1198 C 115.333 -0.620326 -3.71253 0
M  V30 1199 C 114.48 -1.11439 -2.53922 0
M  V30 1200 H 117.431 -1.03754 -1.20087 0
M  V30 1201 H 117.452 -0.226493 -3.79825 0
M  V30 1202 H 116.964 -1.99057 -3.33164 0
M  V30 1203 H 115.065 0.447674 -3.69901 0
M  V30 1204 H 115.178 -1.18327 -4.64258 0
M  V30 1205 H 113.542 -0.534834 -2.49021 0
M  V30 1206 H 114.325 -2.19992 -2.6355 0
M  V30 1207 N 116.77 1.45427 -0.607355 0
M  V30 1208 C 117.717 2.3053 0.111625 0
M  V30 1209 C 118.687 1.4209 0.860216 0
M  V30 1210 O 119.872 1.71019 0.845998 0
M  V30 1211 C 117.012 3.26992 1.10319 0
M  V30 1212 C 116.125 4.30535 0.355493 0
M  V30 1213 C 115.26 5.14105 1.33676 0
M  V30 1214 C 114.299 6.09376 0.576862 0
M  V30 1215 N 113.436 6.85727 1.5074 0
M  V30 1216 H 118.276 2.91477 -0.620093 0
M  V30 1217 H 115.813 1.43631 -0.317594 0
M  V30 1218 H 117.771 3.81385 1.6912 0
M  V30 1219 H 116.401 2.67799 1.80232 0
M  V30 1220 H 115.453 3.78805 -0.348023 0
M  V30 1221 H 116.765 4.98235 -0.237423 0
M  V30 1222 H 115.919 5.72897 1.99684 0
M  V30 1223 H 114.658 4.46423 1.9636 0
M  V30 1224 H 113.663 5.49715 -0.0968519 0
M  V30 1225 H 114.888 6.79085 -0.0449341 0
M  V30 1226 H 112.834 6.20735 2.12189 0
M  V30 1227 H 112.751 7.49778 0.967913 0
M  V30 1228 H 114.019 7.4906 2.15706 0
M  V30 1229 N 118.248 0.346503 1.53744 0
M  V30 1230 C 119.478 -0.250047 2.05081 0
M  V30 1231 C 119.886 -1.44529 1.22098 0
M  V30 1232 O 119.229 -1.81992 0.249917 0
M  V30 1233 C 119.291 -0.725934 3.52094 0
M  V30 1234 C 118.955 0.350053 4.55657 0
M  V30 1235 C 119.952 1.19372 5.0601 0
M  V30 1236 C 117.637 0.504827 4.99757 0
M  V30 1237 C 119.631 2.17768 5.99046 0
M  V30 1238 C 117.318 1.49218 5.92602 0
M  V30 1239 C 118.316 2.32706 6.42135 0
M  V30 1240 O 118.004 3.2976 7.33153 0
M  V30 1241 H 117.736 -0.0515469 0.674032 0
M  V30 1242 H 120.29 0.497559 1.99282 0
M  V30 1243 H 118.52 -1.52483 3.55367 0
M  V30 1244 H 120.209 -1.24336 3.86388 0
M  V30 1245 H 120.975 1.08525 4.72702 0
M  V30 1246 H 116.854 -0.135178 4.60802 0
M  V30 1247 H 120.398 2.82971 6.37631 0
M  V30 1248 H 116.295 1.6012 6.25325 0
M  V30 1249 H 117.063 3.25265 7.51096 0
M  V30 1250 N 119.726 -1.57421 0.075193 0
M  V30 1251 C 121.142 -1.57099 -0.281444 0
M  V30 1252 C 121.342 -1.08486 -1.69803 0
M  V30 1253 O 120.398 -0.752279 -2.41033 0
M  V30 1254 C 121.711 -3.00571 -0.0880041 0
M  V30 1255 C 123.259 -3.12605 -0.157281 0
M  V30 1256 C 123.734 -4.57999 0.0079207 0
M  V30 1257 N 125.225 -4.63176 -0.0475725 0
M  V30 1258 C 125.96 -5.73373 0.0557876 0
M  V30 1259 N 125.456 -6.92473 0.21286 0
M  V30 1260 N 127.249 -5.621 -0.00152098 0
M  V30 1261 H 119.4 -1.87335 1.00098 0
M  V30 1262 H 121.663 -0.86377 0.390646 0
M  V30 1263 H 121.369 -3.40262 0.889629 0
M  V30 1264 H 121.243 -3.67754 -0.838875 0
M  V30 1265 H 123.63 -2.72798 -1.1254 0
M  V30 1266 H 123.711 -2.48053 0.62475 0
M  V30 1267 H 123.355 -4.98496 0.972824 0
M  V30 1268 H 123.285 -5.20586 -0.793556 0
M  V30 1269 H 125.776 -3.7753 -0.167244 0
M  V30 1270 H 126.089 -7.72279 0.283781 0
M  V30 1271 H 124.434 -6.94556 0.248267 0
M  V30 1272 H 127.625 -4.67938 -0.122958 0
M  V30 1273 H 127.798 -6.47948 0.0824844 0
M  V30 1274 N 121.204 0.198386 -1.56346 0
M  V30 1275 C 122.114 1.2664 -1.97483 0
M  V30 1276 C 123.13 1.49989 -0.882002 0
M  V30 1277 O 124.306 1.62668 -1.18748 0
M  V30 1278 C 121.371 2.59141 -2.30319 0
M  V30 1279 C 120.432 2.43892 -3.53292 0
M  V30 1280 C 119.665 3.70074 -3.84553 0
M  V30 1281 O 119.888 4.74101 -3.1715 0
M  V30 1282 O 118.822 3.658 -4.7799 0
M  V30 1283 H 122.648 0.947304 -2.88548 0
M  V30 1284 H 120.233 0.403123 -1.43859 0
M  V30 1285 H 122.115 3.37352 -2.5253 0
M  V30 1286 H 120.79 2.90684 -1.42423 0
M  V30 1287 H 119.697 1.63803 -3.36332 0
M  V30 1288 H 121.03 2.17282 -4.41644 0
M  V30 1289 N 122.682 1.50554 0.465978 0
M  V30 1290 C 123.928 1.63006 1.21658 0
M  V30 1291 C 124.283 0.328613 1.89573 0
M  V30 1292 O 123.576 -0.673813 1.79361 0
M  V30 1293 C 123.77 2.75152 2.28093 0
M  V30 1294 C 123.599 4.16075 1.7062 0
M  V30 1295 C 122.369 4.82408 1.50368 0
M  V30 1296 C 124.567 5.00145 1.1983 0
M  V30 1297 N 122.549 6.07532 0.881924 0
M  V30 1298 C 123.92 6.16035 0.700083 0
M  V30 1299 C 125.975 4.85882 1.08733 0
M  V30 1300 C 124.678 7.19228 0.101835 0
M  V30 1301 C 126.704 5.89257 0.503016 0
M  V30 1302 C 126.066 7.04398 0.0152005 0
M  V30 1303 H 122.165 0.650596 0.433877 0
M  V30 1304 H 124.749 1.8769 0.517746 0
M  V30 1305 H 122.92 2.52181 2.95397 0
M  V30 1306 H 124.652 2.76935 2.95109 0
M  V30 1307 H 121.407 4.39788 1.75737 0
M  V30 1308 H 121.831 6.7443 0.589312 0
M  V30 1309 H 126.473 3.97144 1.4504 0
M  V30 1310 H 124.191 8.07637 -0.273426 0
M  V30 1311 H 127.777 5.80286 0.419451 0
M  V30 1312 H 126.657 7.83021 -0.429856 0
M  V30 1313 N 124.16 -0.719506 1.40217 0
M  V30 1314 C 125.11 -1.8251 1.36653 0
M  V30 1315 C 126.094 -1.59028 0.244732 0
M  V30 1316 O 127.286 -1.70268 0.483524 0
M  V30 1317 C 124.415 -3.20599 1.22763 0
M  V30 1318 C 123.501 -3.49858 2.39708 0
M  V30 1319 N 123.892 -3.49957 3.6519 0
M  V30 1320 C 122.19 -3.80297 2.33002 0
M  V30 1321 C 122.891 -3.77449 4.42614 0
M  V30 1322 N 121.867 -3.96002 3.72402 0
M  V30 1323 H 125.669 -1.80914 2.31619 0
M  V30 1324 H 123.183 -0.918455 1.33933 0
M  V30 1325 H 125.18 -3.99766 1.18292 0
M  V30 1326 H 123.84 -3.23424 0.287614 0
M  V30 1327 H 124.851 -3.309 3.98404 0
M  V30 1328 H 121.528 -3.90635 1.47346 0
M  V30 1329 H 122.918 -3.83863 5.51451 0
M  V30 1330 N 125.638 -1.25649 -0.95132 0
M  V30 1331 C 126.588 -1.03004 -2.03406 0
M  V30 1332 C 127.572 0.034187 -1.60864 0
M  V30 1333 O 128.764 -0.181549 -1.76066 0
M  V30 1334 C 125.893 -0.654255 -3.37008 0
M  V30 1335 C 124.979 -1.75542 -3.86065 0
M  V30 1336 N 125.37 -2.99113 -4.07879 0
M  V30 1337 C 123.668 -1.63669 -4.14884 0
M  V30 1338 C 124.369 -3.70611 -4.48356 0
M  V30 1339 N 123.345 -2.98247 -4.54477 0
M  V30 1340 H 127.147 -1.96813 -2.1827 0
M  V30 1341 H 124.661 -1.16017 -1.13639 0
M  V30 1342 H 126.658 -0.473206 -4.14206 0
M  V30 1343 H 125.318 0.276468 -3.23521 0
M  V30 1344 H 126.329 -3.35124 -3.94857 0
M  V30 1345 H 123.006 -0.775161 -4.10241 0
M  V30 1346 H 124.396 -4.76695 -4.73509 0
M  V30 1347 N 127.117 1.15442 -1.07289 0
M  V30 1348 C 128.364 1.86213 -0.795668 0
M  V30 1349 C 128.692 1.82291 0.678238 0
M  V30 1350 O 127.947 1.24057 1.51355 0
M  V30 1351 C 128.246 3.3489 -1.24834 0
M  V30 1352 C 127.912 3.59007 -2.72809 0
M  V30 1353 C 126.574 3.65298 -3.13227 0
M  V30 1354 C 128.926 3.68762 -3.68326 0
M  V30 1355 C 126.254 3.78854 -4.4798 0
M  V30 1356 C 128.606 3.83842 -5.0284 0
M  V30 1357 C 127.27 3.88378 -5.4288 0
M  V30 1358 H 126.54 0.681403 -0.291155 0
M  V30 1359 H 129.187 1.36435 -1.34379 0
M  V30 1360 H 127.492 3.8687 -0.619595 0
M  V30 1361 H 129.189 3.88052 -1.01076 0
M  V30 1362 H 125.779 3.5475 -2.40521 0
M  V30 1363 H 129.963 3.63202 -3.38227 0
M  V30 1364 H 125.219 3.80623 -4.78472 0
M  V30 1365 H 129.393 3.90332 -5.76727 0
M  V30 1366 H 127.02 3.98635 -6.47298 0
M  V30 1367 N 128.595 0.856903 1.32268 0
M  V30 1368 C 129.525 0.31858 2.31316 0
M  V30 1369 C 130.506 -0.583487 1.59779 0
M  V30 1370 O 131.691 -0.503259 1.87566 0
M  V30 1371 C 128.821 -0.491979 3.43798 0
M  V30 1372 C 127.775 0.315849 4.26833 0
M  V30 1373 C 127.101 -0.619586 5.31098 0
M  V30 1374 C 128.401 1.54282 4.98993 0
M  V30 1375 H 130.095 1.14621 2.76591 0
M  V30 1376 H 127.641 0.552613 1.32974 0
M  V30 1377 H 129.594 -0.879012 4.1213 0
M  V30 1378 H 128.318 -1.35299 2.97257 0
M  V30 1379 H 126.977 0.684664 3.6015 0
M  V30 1380 H 126.625 -1.47751 4.8081 0
M  V30 1381 H 126.325 -0.0830621 5.87541 0
M  V30 1382 H 127.849 -1.00375 6.02293 0
M  V30 1383 H 129.263 1.22796 5.59995 0
M  V30 1384 H 127.66 2.01745 5.65172 0
M  V30 1385 H 128.73 2.30285 4.26728 0
M  V30 1386 N 130.073 -1.45103 0.615059 0
M  V30 1387 C 131.319 -2.02483 0.113347 0
M  V30 1388 C 131.652 -1.48146 -1.25564 0
M  V30 1389 O 130.927 -0.659104 -1.82992 0
M  V30 1390 C 131.21 -3.60005 0.0825278 0
M  V30 1391 C 131.063 -4.2466 1.48271 0
M  V30 1392 C 132.382 -4.35972 -0.601401 0
M  V30 1393 H 129.501 -0.735764 0.0426632 0
M  V30 1394 H 132.143 -1.72868 0.788461 0
M  V30 1395 H 130.293 -3.85367 -0.492378 0
M  V30 1396 H 131.965 -4.10458 2.10527 0
M  V30 1397 H 130.208 -3.82772 2.04127 0
M  V30 1398 H 130.879 -5.336 1.41332 0
M  V30 1399 H 133.355 -4.15947 -0.112666 0
M  V30 1400 H 132.231 -5.45697 -0.592097 0
M  V30 1401 H 132.492 -4.09391 -1.66887 0
M  V30 1402 N 131.551 -0.354651 -1.53558 0
M  V30 1403 C 132.797 0.238797 -2.01389 0
M  V30 1404 C 133.13 1.49309 -1.2418 0
M  V30 1405 O 132.405 1.91638 -0.332457 0
M  V30 1406 C 132.688 0.541771 -3.56001 0
M  V30 1407 C 132.541 -0.725388 -4.43912 0
M  V30 1408 C 133.86 1.34685 -4.18984 0
M  V30 1409 H 130.979 0.0853177 -0.732045 0
M  V30 1410 H 133.621 -0.477384 -1.83905 0
M  V30 1411 H 131.771 1.15189 -3.71031 0
M  V30 1412 H 133.443 -1.36313 -4.407 0
M  V30 1413 H 131.686 -1.34801 -4.12324 0
M  V30 1414 H 132.357 -0.468505 -5.50008 0
M  V30 1415 H 134.833 0.830837 -4.07721 0
M  V30 1416 H 133.709 1.52759 -5.27215 0
M  V30 1417 H 133.97 2.35221 -3.74331 0
M  V30 1418 N 133.029 1.57378 -0.0835403 0
M  V30 1419 C 133.977 2.14602 0.89714 0
M  V30 1420 C 134.971 1.08589 1.30018 0
M  V30 1421 O 136.177 1.26952 1.27606 0
M  V30 1422 H 132.552 0.686346 0.3073 0
M  V30 1423 H 134.523 2.95845 0.38969 0
M  V30 1424 C 133.272 2.73188 2.15089 0
M  V30 1425 H 132.595 3.54442 1.84962 0
M  V30 1426 H 134.035 3.1681 2.81793 0
M  V30 1427 C 132.494 1.68517 2.91725 0
M  V30 1428 O 133.024 1.11718 3.85852 0
M  V30 1429 N 131.23 1.39277 2.55049 0
M  V30 1430 H 130.777 1.85655 1.78577 0
M  V30 1431 H 130.735 0.694791 3.06627 0
M  V30 1432 N 134.507 -0.190092 1.56449 0
M  V30 1433 C 135.44 -1.26375 1.90012 0
M  V30 1434 C 136.418 -1.43705 0.760765 0
M  V30 1435 O 137.602 -1.59014 1.01226 0
M  V30 1436 C 134.729 -2.62962 2.13468 0
M  V30 1437 C 133.775 -2.62474 3.36169 0
M  V30 1438 S 134.608 -2.13412 4.91137 0
M  V30 1439 C 135.764 -3.51812 5.17667 0
M  V30 1440 H 135.997 -0.977181 2.80782 0
M  V30 1441 H 133.53 -0.393814 1.49293 0
M  V30 1442 H 135.488 -3.41583 2.27664 0
M  V30 1443 H 134.149 -2.88828 1.23439 0
M  V30 1444 H 133.342 -3.62918 3.49723 0
M  V30 1445 H 132.944 -1.91937 3.20992 0
M  V30 1446 H 135.236 -4.47706 5.08494 0
M  V30 1447 H 136.179 -3.43148 6.19399 0
M  V30 1448 H 136.587 -3.46956 4.45288 0
M  V30 1449 N 135.985 -1.50799 -0.457987 0
M  V30 1450 C 136.932 -1.70617 -1.5543 0
M  V30 1451 C 137.902 -0.547562 -1.56815 0
M  V30 1452 O 139.087 -0.779647 -1.74144 0
M  V30 1453 C 136.227 -1.81831 -2.93311 0
M  V30 1454 C 135.34 -3.09278 -3.01615 0
M  V30 1455 C 134.475 -3.11209 -4.30491 0
M  V30 1456 C 133.514 -4.33055 -4.32585 0
M  V30 1457 N 132.651 -4.32652 -5.52952 0
M  V30 1458 H 137.491 -2.64207 -1.37836 0
M  V30 1459 H 135.028 -1.30959 -0.669937 0
M  V30 1460 H 136.986 -1.86314 -3.73287 0
M  V30 1461 H 135.616 -0.916685 -3.0951 0
M  V30 1462 H 134.668 -3.14203 -2.1443 0
M  V30 1463 H 135.98 -3.99233 -2.99022 0
M  V30 1464 H 135.134 -3.14494 -5.18824 0
M  V30 1465 H 133.873 -2.19106 -4.35711 0
M  V30 1466 H 132.878 -4.29969 -3.42647 0
M  V30 1467 H 134.103 -5.264 -4.29046 0
M  V30 1468 H 132.049 -3.43409 -5.58933 0
M  V30 1469 H 131.966 -5.16392 -5.52155 0
M  V30 1470 H 133.234 -4.40101 -6.43375 0
M  V30 1471 N 137.463 0.71206 -1.40597 0
M  V30 1472 C 138.711 1.46907 -1.38791 0
M  V30 1473 C 139.032 1.94998 0.00780391 0
M  V30 1474 O 138.302 1.70587 0.963174 0
M  V30 1475 H 136.882 0.545043 -0.51082 0
M  V30 1476 H 139.544 0.843882 -1.75683 0
M  V30 1477 H 138.64 2.34021 -2.06496 0
M  V30 1478 N 138.941 1.26152 0.944643 0
M  V30 1479 C 139.889 1.07215 2.06417 0
M  V30 1480 C 140.883 9.2007e-05 1.694 0
M  V30 1481 O 142.089 0.1565 1.79318 0
M  V30 1482 H 138.464 0.329837 0.675805 0
M  V30 1483 H 140.435 2.02099 2.19541 0
M  V30 1484 C 139.184 0.718197 3.40202 0
M  V30 1485 H 138.507 1.53497 3.69159 0
M  V30 1486 H 139.947 0.625459 4.19361 0
M  V30 1487 C 138.406 -0.576435 3.31932 0
M  V30 1488 O 138.936 -1.61574 3.67773 0
M  V30 1489 N 137.142 -0.565781 2.85039 0
M  V30 1490 H 136.689 0.280367 2.5607 0
M  V30 1491 H 136.647 -1.43213 2.79888 0
M  V30 1492 N 140.419 -1.14872 1.07899 0
M  V30 1493 C 141.696 -1.81928 0.71845 0
M  V30 1494 C 142.076 -1.95417 -0.798455 0
M  V30 1495 O 141.424 -1.50997 -1.715 0
M  V30 1496 C 141.634 -3.17937 1.43935 0
M  V30 1497 C 142.982 -3.93501 1.59506 0
M  V30 1498 O 144.006 -3.27509 1.40058 0
M  V30 1499 O 142.865 -5.1183 1.91551 0
M  V30 1500 H 139.959 -0.78628 0.256305 0
M  V30 1501 H 142.505 -1.21934 1.18026 0
M  V30 1502 H 141.277 -3.0325 2.47295 0
M  V30 1503 H 140.9 -3.85619 0.968687 0
M  V30 1504 N 141.898 -0.863906 -1.31812 0
M  V30 1505 C 143.147 -0.46801 -1.96195 0
M  V30 1506 C 143.46 0.983474 -1.69077 0
M  V30 1507 O 144.666 1.48523 -2.27273 0
M  V30 1508 C 143.122 -0.785995 -3.51212 0
M  V30 1509 C 142.73 -2.25383 -3.87178 0
M  V30 1510 C 144.474 -0.458274 -4.22019 0
M  V30 1511 C 142.381 -2.51455 -5.3528 0
M  V30 1512 H 141.311 -0.171283 -0.734287 0
M  V30 1513 H 143.962 -1.05597 -1.50072 0
M  V30 1514 H 142.344 -0.127359 -3.95795 0
M  V30 1515 H 143.518 -2.95502 -3.53575 0
M  V30 1516 H 141.833 -2.54698 -3.2942 0
M  V30 1517 H 144.43 -0.630369 -5.30971 0
M  V30 1518 H 144.773 0.600834 -4.11941 0
M  V30 1519 H 145.306 -1.07319 -3.8305 0
M  V30 1520 H 142.045 -3.56025 -5.50387 0
M  V30 1521 H 141.565 -1.85923 -5.70257 0
M  V30 1522 H 143.244 -2.35874 -6.02472 0
M  V30 1523 N 143.376 1.44774 -0.622745 0
M  V30 1524 C 144.601 2.06999 -0.128968 0
M  V30 1525 C 145.026 1.4617 1.1839 0
M  V30 1526 O 144.384 0.560007 1.72434 0
M  V30 1527 C 144.432 3.60595 -0.0188351 0
M  V30 1528 O 143.536 3.99398 1.02739 0
M  V30 1529 H 142.877 0.659047 -0.0809544 0
M  V30 1530 H 145.407 1.85784 -0.85705 0
M  V30 1531 H 145.417 4.07627 0.174476 0
M  V30 1532 H 144.092 4.04252 -0.977384 0
M  V30 1533 H 142.669 3.64011 0.809326 0
M  V30 1534 N 144.854 0.36279 1.53368 0
M  V30 1535 C 146.079 -0.231226 2.06107 0
M  V30 1536 C 146.504 -1.419 1.23474 0
M  V30 1537 O 145.862 -1.79524 0.253128 0
M  V30 1538 C 145.91 -0.605523 3.5548 0
M  V30 1539 O 145.014 -1.70312 3.7559 0
M  V30 1540 H 144.355 -0.034327 0.663112 0
M  V30 1541 H 146.885 0.522584 1.97814 0
M  V30 1542 H 146.895 -0.877314 3.98456 0
M  V30 1543 H 145.57 0.263004 4.15068 0
M  V30 1544 H 144.147 -1.4271 3.44512 0
M  V30 1545 N 146.332 -1.57332 0.0918853 0
M  V30 1546 C 147.58 -1.93853 -0.571446 0
M  V30 1547 C 147.901 -0.974212 -1.6892 0
M  V30 1548 O 147.171 -0.0257254 -1.95883 0
M  V30 1549 H 145.751 -0.715666 -0.214082 0
M  V30 1550 H 148.413 -1.94287 0.154464 0
M  V30 1551 H 147.509 -2.96191 -0.983729 0
M  V30 1552 N 147.81 0.181792 -1.56548 0
M  V30 1553 C 149.038 0.915947 -1.85521 0
M  V30 1554 C 149.453 1.76282 -0.676016 0
M  V30 1555 O 148.81 1.79012 0.355077 0
M  V30 1556 C 148.861 1.80126 -3.13427 0
M  V30 1557 O 148.582 0.988562 -4.26801 0
M  V30 1558 C 150.083 2.64597 -3.55673 0
M  V30 1559 H 147.303 0.26661 -0.61576 0
M  V30 1560 H 149.847 0.185039 -2.03661 0
M  V30 1561 H 148.002 2.48563 -2.97145 0
M  V30 1562 H 148.416 1.59308 -4.99721 0
M  V30 1563 H 149.89 3.2235 -4.48101 0
M  V30 1564 H 150.367 3.38958 -2.79292 0
M  V30 1565 H 150.973 2.0151 -3.74532 0
M  V30 1566 N 149.288 1.51039 0.449983 0
M  V30 1567 C 150.534 1.63322 1.20223 0
M  V30 1568 C 150.867 0.34241 1.91158 0
M  V30 1569 O 150.142 -0.657344 1.83055 0
M  V30 1570 C 150.425 2.82801 2.22925 0
M  V30 1571 C 150.278 4.21823 1.56157 0
M  V30 1572 C 151.597 2.97807 3.24035 0
M  V30 1573 H 148.716 0.594407 0.435718 0
M  V30 1574 H 151.358 1.83489 0.493136 0
M  V30 1575 H 149.508 2.65738 2.834 0
M  V30 1576 H 151.18 4.50526 0.991162 0
M  V30 1577 H 149.423 4.25105 0.864172 0
M  V30 1578 H 150.094 5.01391 2.30891 0
M  V30 1579 H 152.57 3.13497 2.73603 0
M  V30 1580 H 151.446 3.82992 3.93202 0
M  V30 1581 H 151.707 2.09328 3.89402 0
M  V30 1582 N 150.766 -0.704594 1.40972 0
M  V30 1583 C 151.696 -1.83124 1.44872 0
M  V30 1584 C 152.677 -1.67281 0.30838 0
M  V30 1585 O 153.862 -1.87149 0.518556 0
M  V30 1586 C 150.992 -3.21181 1.32136 0
M  V30 1587 C 149.946 -3.51714 2.43888 0
M  V30 1588 C 149.272 -4.89032 2.16222 0
M  V30 1589 C 150.572 -3.516 3.86232 0
M  V30 1590 H 152.266 -1.80117 2.39161 0
M  V30 1591 H 149.812 -0.865145 1.15114 0
M  V30 1592 H 151.765 -3.99702 1.33479 0
M  V30 1593 H 150.489 -3.24791 0.343279 0
M  V30 1594 H 149.148 -2.75539 2.41813 0
M  V30 1595 H 148.796 -4.89256 1.16778 0
M  V30 1596 H 148.496 -5.10426 2.911 0
M  V30 1597 H 150.02 -5.69873 2.19265 0
M  V30 1598 H 151.434 -4.2014 3.9007 0
M  V30 1599 H 149.831 -3.84523 4.60719 0
M  V30 1600 H 150.901 -2.50757 4.15029 0
M  V30 1601 N 152.244 -1.26651 -0.937939 0
M  V30 1602 C 153.469 -1.15279 -1.72411 0
M  V30 1603 C 153.894 0.287866 -1.85884 0
M  V30 1604 O 153.252 1.20855 -1.35143 0
M  V30 1605 C 153.3 -1.83028 -3.10698 0
M  V30 1606 O 152.404 -1.12128 -3.96864 0
M  V30 1607 H 151.745 -0.401504 -0.528858 0
M  V30 1608 H 154.275 -1.67531 -1.1745 0
M  V30 1609 H 154.285 -1.89981 -3.6107 0
M  V30 1610 H 152.96 -2.87833 -3.00208 0
M  V30 1611 H 151.537 -1.13173 -3.55312 0
M  V30 1612 N 153.722 1.14298 -1.08507 0
M  V30 1613 C 154.999 1.81544 -0.728088 0
M  V30 1614 C 155.379 1.95838 0.78808 0
M  V30 1615 O 154.727 1.51904 1.70697 0
M  V30 1616 C 154.937 3.17169 -1.45619 0
M  V30 1617 C 156.285 3.9265 -1.61591 0
M  V30 1618 O 157.309 3.26762 -1.41793 0
M  V30 1619 O 156.168 5.10807 -1.94263 0
M  V30 1620 H 153.262 0.78491 -0.260471 0
M  V30 1621 H 155.808 1.21307 -1.18671 0
M  V30 1622 H 154.58 3.01934 -2.489 0
M  V30 1623 H 154.203 3.851 -0.989124 0
M  V30 1624 N 155.201 0.870884 1.31352 0
M  V30 1625 C 156.431 0.496049 2.00557 0
M  V30 1626 C 156.839 -0.916241 1.65534 0
M  V30 1627 O 156.182 -1.61188 0.881134 0
M  V30 1628 C 156.244 0.574418 3.54881 0
M  V30 1629 C 155.908 1.94849 4.1338 0
M  V30 1630 C 156.905 2.91611 4.30417 0
M  V30 1631 C 154.59 2.25005 4.49086 0
M  V30 1632 C 156.584 4.16672 4.82352 0
M  V30 1633 C 154.271 3.50315 5.00722 0
M  V30 1634 C 155.269 4.45964 5.17306 0
M  V30 1635 O 154.957 5.69052 5.67833 0
M  V30 1636 H 154.689 0.191664 0.64826 0
M  V30 1637 H 157.243 1.17409 1.68536 0
M  V30 1638 H 155.473 -0.160549 3.86367 0
M  V30 1639 H 157.162 0.212879 4.05341 0
M  V30 1640 H 157.928 2.69622 4.03149 0
M  V30 1641 H 153.807 1.51332 4.35453 0
M  V30 1642 H 157.351 4.91336 4.95211 0
M  V30 1643 H 153.248 3.72147 5.27424 0
M  V30 1644 H 154.016 5.71236 5.86201 0
M  V30 1645 N 156.679 -1.44442 0.630414 0
M  V30 1646 C 157.925 -2.02351 0.134816 0
M  V30 1647 C 158.258 -1.4947 -1.23986 0
M  V30 1648 O 157.533 -0.678475 -1.82283 0
M  V30 1649 C 157.816 -3.59898 0.120707 0
M  V30 1650 C 157.669 -4.23063 1.52767 0
M  V30 1651 C 158.988 -4.36585 -0.555127 0
M  V30 1652 H 156.107 -0.73527 0.0504646 0
M  V30 1653 H 158.749 -1.72022 0.806751 0
M  V30 1654 H 156.899 -3.85868 -0.451477 0
M  V30 1655 H 158.571 -4.08202 2.14869 0
M  V30 1656 H 156.814 -3.80586 2.08175 0
M  V30 1657 H 157.485 -5.32071 1.46984 0
M  V30 1658 H 159.961 -4.16044 -0.0685429 0
M  V30 1659 H 158.837 -5.46294 -0.534185 0
M  V30 1660 H 159.098 -4.11138 -1.62535 0
M  V30 1661 N 158.157 -0.370918 -1.53173 0
M  V30 1662 C 159.405 0.216673 -2.00935 0
M  V30 1663 C 159.726 1.48845 -1.25977 0
M  V30 1664 O 158.996 1.92286 -0.374551 0
M  V30 1665 H 157.576 0.0830565 -0.742368 0
M  V30 1666 H 160.238 -0.49838 -1.8842 0
M  V30 1667 H 159.334 0.439893 -3.08984 0
M  V30 1668 N 159.635 1.57281 -0.100228 0
M  V30 1669 C 160.86 1.99302 0.573881 0
M  V30 1670 C 161.285 0.979059 1.60611 0
M  V30 1671 O 160.643 -0.0517803 1.81226 0
M  V30 1672 C 160.691 3.40274 1.19358 0
M  V30 1673 O 159.795 3.41676 2.30935 0
M  V30 1674 H 159.136 0.647944 0.145138 0
M  V30 1675 H 161.666 2.03779 -0.183156 0
M  V30 1676 H 161.676 3.78078 1.53365 0
M  V30 1677 H 160.351 4.13594 0.437385 0
M  V30 1678 H 158.928 3.15672 1.98509 0
M  V30 1679 N 161.113 -0.173488 1.56642 0
M  V30 1680 C 162.361 -0.888706 1.81512 0
M  V30 1681 C 162.682 -1.82875 0.676872 0
M  V30 1682 O 161.952 -1.93536 -0.303414 0
M  V30 1683 H 160.532 -0.331164 0.669582 0
M  V30 1684 H 163.194 -0.173823 1.94123 0
M  V30 1685 H 162.29 -1.46691 2.75478 0
M  V30 1686 N 162.591 -1.51276 -0.441967 0
M  V30 1687 C 164.002 -1.56244 -1.02199 0
M  V30 1688 C 164.353 -0.383149 -1.92422 0
M  V30 1689 O 163.478 0.500613 -2.1053 0
M  V30 1690 C 164.073 -2.83162 -1.86024 0
M  V30 1691 C 162.632 -2.90716 -2.39084 0
M  V30 1692 C 161.779 -2.50858 -1.18175 0
M  V30 1693 H 164.73 -1.5712 -0.223416 0
M  V30 1694 H 164.751 -2.66663 -2.71425 0
M  V30 1695 H 164.263 -3.68974 -1.20331 0
M  V30 1696 H 162.364 -2.09323 -3.08244 0
M  V30 1697 H 162.477 -3.94266 -2.72198 0
M  V30 1698 H 160.841 -2.03951 -1.52565 0
M  V30 1699 H 161.624 -3.3901 -0.541001 0
M  V30 1700 N 164.069 0.697108 -1.41344 0
M  V30 1701 C 165.48 1.27697 -1.36199 0
M  V30 1702 C 165.831 1.9615 -0.0443463 0
M  V30 1703 O 164.956 1.98689 0.857419 0
M  V30 1704 C 165.551 2.32223 -2.46694 0
M  V30 1705 C 164.11 2.8579 -2.44952 0
M  V30 1706 C 163.257 1.59807 -2.26621 0
M  V30 1707 H 166.208 0.491968 -1.50882 0
M  V30 1708 H 166.229 3.1348 -2.15664 0
M  V30 1709 H 165.741 1.82373 -3.42581 0
M  V30 1710 H 163.842 3.3982 -1.52817 0
M  V30 1711 H 163.955 3.36325 -3.41207 0
M  V30 1712 H 162.319 1.8556 -1.7447 0
M  V30 1713 H 163.102 1.11956 -3.24532 0
M  V30 1714 N 165.547 1.27147 0.931209 0
M  V30 1715 C 166.494 1.09568 2.03134 0
M  V30 1716 C 167.464 -0.00222433 1.661 0
M  V30 1717 O 168.649 0.159439 1.90133 0
M  V30 1718 C 165.789 0.745231 3.36957 0
M  V30 1719 C 164.902 1.92041 3.86968 0
M  V30 1720 C 164.037 1.51216 5.09222 0
M  V30 1721 C 163.076 2.65504 5.5152 0
M  V30 1722 N 162.213 2.25291 6.64972 0
M  V30 1723 H 167.053 2.03708 2.17502 0
M  V30 1724 H 164.59 1.01411 1.06556 0
M  V30 1725 H 166.548 0.522878 4.1391 0
M  V30 1726 H 165.178 -0.159202 3.22407 0
M  V30 1727 H 164.23 2.25541 3.06326 0
M  V30 1728 H 165.542 2.77787 4.1429 0
M  V30 1729 H 164.696 1.25084 5.93666 0
M  V30 1730 H 163.435 0.625749 4.83669 0
M  V30 1731 H 162.44 2.92354 4.65628 0
M  V30 1732 H 163.665 3.54761 5.7907 0
M  V30 1733 H 161.611 1.39098 6.41083 0
M  V30 1734 H 161.528 3.04577 6.91931 0
M  V30 1735 H 162.796 2.02398 7.52765 0
M  V30 1736 N 167.025 -1.13721 1.09112 0
M  V30 1737 C 168.273 -1.84559 0.823562 0
M  V30 1738 C 168.594 -1.83754 -0.652658 0
M  V30 1739 O 167.864 -1.29102 -1.47342 0
M  V30 1740 H 166.444 -0.683376 0.301673 0
M  V30 1741 H 169.106 -1.37771 1.37859 0
M  V30 1742 H 168.202 -2.8917 1.17419 0
M  V30 1743 N 168.503 -0.877838 -1.30888 0
M  V30 1744 C 169.731 -0.507414 -2.00581 0
M  V30 1745 C 170.146 0.902216 -1.65848 0
M  V30 1746 O 169.503 1.59225 -0.891831 0
M  V30 1747 C 169.554 -0.664162 -3.55347 0
M  V30 1748 O 169.275 -2.01829 -3.8884 0
M  V30 1749 C 170.776 -0.295787 -4.42312 0
M  V30 1750 H 167.996 -0.196866 -0.641471 0
M  V30 1751 H 170.54 -1.18117 -1.66939 0
M  V30 1752 H 168.695 -0.0378619 -3.87381 0
M  V30 1753 H 169.109 -2.03174 -4.8355 0
M  V30 1754 H 170.583 -0.456388 -5.5011 0
M  V30 1755 H 171.06 0.765663 -4.32475 0
M  V30 1756 H 171.666 -0.898113 -4.15709 0
M  V30 1757 N 169.982 1.44106 -0.638065 0
M  V30 1758 C 171.23 2.01579 -0.145043 0
M  V30 1759 C 171.551 1.50496 1.24 0
M  V30 1760 O 170.821 0.711374 1.82527 0
M  V30 1761 H 169.401 0.745282 -0.05063 0
M  V30 1762 H 172.063 1.76516 -0.826327 0
M  V30 1763 H 171.159 3.11877 -0.118039 0
M  V30 1764 N 171.46 0.379036 1.52974 0
M  V30 1765 C 172.39 -0.452706 2.29069 0
M  V30 1766 C 173.371 -1.07237 1.32039 0
M  V30 1767 O 174.556 -1.08708 1.60923 0
M  V30 1768 C 171.686 -1.5856 3.08992 0
M  V30 1769 C 170.64 -1.0925 4.13822 0
M  V30 1770 C 169.966 -2.31668 4.81907 0
M  V30 1771 C 171.266 -0.167702 5.22031 0
M  V30 1772 H 172.96 0.182181 2.98845 0
M  V30 1773 H 170.506 0.0890592 1.43724 0
M  V30 1774 H 172.459 -2.1742 3.6098 0
M  V30 1775 H 171.183 -2.24792 2.36931 0
M  V30 1776 H 169.842 -0.526494 3.628 0
M  V30 1777 H 169.49 -2.96386 4.06404 0
M  V30 1778 H 169.19 -1.9934 5.52754 0
M  V30 1779 H 170.714 -2.91189 5.36695 0
M  V30 1780 H 172.128 -0.664186 5.6944 0
M  V30 1781 H 170.525 0.0653265 6.00064 0
M  V30 1782 H 171.595 0.786347 4.78482 0
M  V30 1783 N 172.938 -1.57226 0.108567 0
M  V30 1784 C 173.888 -2.11305 -0.856396 0
M  V30 1785 C 174.872 -1.03129 -1.23504 0
M  V30 1786 O 176.064 -1.29381 -1.20787 0
M  V30 1787 C 173.193 -2.70771 -2.11041 0
M  V30 1788 C 172.279 -3.86011 -1.7566 0
M  V30 1789 N 172.67 -4.93492 -1.10902 0
M  V30 1790 C 170.968 -3.95999 -2.05185 0
M  V30 1791 C 171.669 -5.73984 -0.944308 0
M  V30 1792 N 170.645 -5.2346 -1.46596 0
M  V30 1793 H 174.447 -2.91784 -0.352002 0
M  V30 1794 H 171.961 -1.62126 -0.0942324 0
M  V30 1795 H 173.958 -3.07851 -2.81128 0
M  V30 1796 H 172.618 -1.91751 -2.62034 0
M  V30 1797 H 173.629 -5.1208 -0.774235 0
M  V30 1798 H 170.306 -3.28007 -2.58298 0
M  V30 1799 H 171.696 -6.70479 -0.436813 0
M  V30 1800 N 174.416 0.165178 -1.56732 0
M  V30 1801 C 175.832 0.517174 -1.50988 0
M  V30 1802 C 176.032 1.84331 -0.813894 0
M  V30 1803 O 175.088 2.49672 -0.37682 0
M  V30 1804 C 176.401 0.544261 -2.95733 0
M  V30 1805 C 177.949 0.631039 -3.06573 0
M  V30 1806 C 178.424 0.68896 -4.52788 0
M  V30 1807 N 179.915 0.751683 -4.5706 0
M  V30 1808 C 180.65 0.817177 -5.67547 0
M  V30 1809 N 180.146 0.843129 -6.8765 0
M  V30 1810 N 181.939 0.856668 -5.55534 0
M  V30 1811 H 174.09 -0.704318 -2.00382 0
M  V30 1812 H 176.353 -0.254687 -0.913148 0
M  V30 1813 H 176.059 -0.361607 -3.49836 0
M  V30 1814 H 175.933 1.3886 -3.5071 0
M  V30 1815 H 178.32 1.52733 -2.52501 0
M  V30 1816 H 178.401 -0.240095 -2.54671 0
M  V30 1817 H 178.045 -0.2031 -5.07494 0
M  V30 1818 H 177.975 1.57633 -5.02454 0
M  V30 1819 H 180.466 0.739661 -3.70591 0
M  V30 1820 H 180.779 0.894448 -7.67606 0
M  V30 1821 H 179.124 0.811304 -6.90248 0
M  V30 1822 H 182.315 0.833437 -4.60621 0
M  V30 1823 H 182.488 0.904247 -6.4166 0
M  V30 1824 N 175.894 1.51508 0.433938 0
M  V30 1825 C 177.124 1.67914 1.20369 0
M  V30 1826 C 177.532 0.377461 1.85397 0
M  V30 1827 O 176.875 -0.654255 1.71654 0
M  V30 1828 C 176.937 2.74045 2.32679 0
M  V30 1829 C 176.601 4.16543 1.87991 0
M  V30 1830 C 177.598 5.01211 1.38145 0
M  V30 1831 C 175.283 4.6266 1.95579 0
M  V30 1832 C 177.277 6.30056 0.964774 0
M  V30 1833 C 174.964 5.91501 1.53523 0
M  V30 1834 C 175.962 6.75027 1.04055 0
M  V30 1835 O 175.65 8.01459 0.625964 0
M  V30 1836 H 175.382 0.566578 0.368735 0
M  V30 1837 H 177.936 1.98709 0.51999 0
M  V30 1838 H 176.166 2.38572 3.04336 0
M  V30 1839 H 177.855 2.79295 2.94532 0
M  V30 1840 H 178.621 4.66783 1.31675 0
M  V30 1841 H 174.5 3.97767 2.33029 0
M  V30 1842 H 178.044 6.95202 0.57796 0
M  V30 1843 H 173.941 6.25442 1.59665 0
M  V30 1844 H 174.709 8.15043 0.751509 0
M  V30 1845 N 177.372 -0.689602 1.41712 0
M  V30 1846 C 178.618 -1.45181 1.41599 0
M  V30 1847 C 178.951 -1.94181 0.0270081 0
M  V30 1848 O 178.226 -1.6993 -0.946265 0
M  V30 1849 C 178.509 -2.65945 2.42787 0
M  V30 1850 C 178.362 -2.22672 3.90816 0
M  V30 1851 C 179.681 -3.68149 2.41151 0
M  V30 1852 H 176.8 -0.526576 0.515642 0
M  V30 1853 H 179.442 -0.784947 1.73028 0
M  V30 1854 H 177.592 -3.2284 2.16116 0
M  V30 1855 H 179.264 -1.71058 4.28412 0
M  V30 1856 H 177.507 -1.54394 4.05395 0
M  V30 1857 H 178.178 -3.0935 4.57172 0
M  V30 1858 H 180.654 -3.2094 2.64834 0
M  V30 1859 H 179.53 -4.50248 3.13955 0
M  V30 1860 H 179.791 -4.18259 1.43221 0
M  V30 1861 N 178.85 -1.27639 -0.924453 0
M  V30 1862 C 180.096 -1.15345 -1.67532 0
M  V30 1863 C 180.451 0.297096 -1.90092 0
M  V30 1864 O 179.744 1.21374 -1.48253 0
M  V30 1865 C 179.938 -1.87407 -3.04325 0
M  V30 1866 C 179.767 -3.3932 -2.95114 0
M  V30 1867 C 178.537 -4.08644 -2.97218 0
M  V30 1868 C 180.735 -4.35242 -2.73987 0
M  V30 1869 N 178.717 -5.47102 -2.78482 0
M  V30 1870 C 180.088 -5.6099 -2.63988 0
M  V30 1871 C 182.143 -4.25294 -2.589 0
M  V30 1872 C 180.846 -6.77924 -2.40442 0
M  V30 1873 C 182.872 -5.41952 -2.36731 0
M  V30 1874 C 182.234 -6.66658 -2.27478 0
M  V30 1875 H 178.333 -0.47696 -0.619704 0
M  V30 1876 H 180.917 -1.6115 -1.09265 0
M  V30 1877 H 179.088 -1.44053 -3.60699 0
M  V30 1878 H 180.82 -1.6759 -3.68369 0
M  V30 1879 H 177.575 -3.60136 -3.07569 0
M  V30 1880 H 177.999 -6.19852 -2.72236 0
M  V30 1881 H 182.641 -3.29598 -2.64811 0
M  V30 1882 H 180.359 -7.73699 -2.3327 0
M  V30 1883 H 183.945 -5.36137 -2.25938 0
M  V30 1884 H 182.825 -7.55405 -2.10555 0
M  V30 1885 N 180.328 1.1314 -1.09713 0
M  V30 1886 C 181.258 2.20748 -0.761102 0
M  V30 1887 C 182.239 1.68061 0.262566 0
M  V30 1888 O 183.424 1.93765 0.129977 0
M  V30 1889 C 180.554 3.46812 -0.184054 0
M  V30 1890 C 179.508 4.12606 -1.13757 0
M  V30 1891 C 178.834 5.33031 -0.422083 0
M  V30 1892 C 180.134 4.59603 -2.48118 0
M  V30 1893 H 181.828 2.49113 -1.66082 0
M  V30 1894 H 179.374 1.19734 -0.799987 0
M  V30 1895 H 181.327 4.21353 0.0631215 0
M  V30 1896 H 180.051 3.17851 0.750868 0
M  V30 1897 H 178.71 3.40036 -1.37007 0
M  V30 1898 H 178.358 5.00335 0.517072 0
M  V30 1899 H 178.058 5.77999 -1.05788 0
M  V30 1900 H 179.582 6.10325 -0.183277 0
M  V30 1901 H 180.996 5.25552 -2.29059 0
M  V30 1902 H 179.393 5.15321 -3.07514 0
M  V30 1903 H 180.463 3.73971 -3.08665 0
M  V30 1904 N 181.806 0.884767 1.30421 0
M  V30 1905 C 183.052 0.503851 1.96441 0
M  V30 1906 C 183.385 -0.944518 1.69684 0
M  V30 1907 O 182.66 -1.66737 1.00145 0
M  V30 1908 C 182.943 0.779085 3.51571 0
M  V30 1909 C 182.796 2.27807 3.87846 0
M  V30 1910 C 184.115 0.255452 4.39358 0
M  V30 1911 H 181.234 0.184533 0.713524 0
M  V30 1912 H 183.876 1.10872 1.54297 0
M  V30 1913 H 182.026 0.264274 3.876 0
M  V30 1914 H 183.698 2.86127 3.61841 0
M  V30 1915 H 181.941 2.74479 3.35922 0
M  V30 1916 H 182.612 2.42125 4.96064 0
M  V30 1917 H 185.088 0.696079 4.10236 0
M  V30 1918 H 183.964 0.477361 5.4682 0
M  V30 1919 H 184.225 -0.843293 4.33983 0
M  V30 1920 N 183.284 -1.43765 0.645699 0
M  V30 1921 C 184.514 -2.05953 0.163318 0
M  V30 1922 C 184.922 -1.48432 -1.17322 0
M  V30 1923 O 184.265 -0.607295 -1.73371 0
M  V30 1924 C 184.327 -3.59499 -0.0103065 0
M  V30 1925 C 183.991 -4.39563 1.25035 0
M  V30 1926 C 184.988 -4.72108 2.17739 0
M  V30 1927 C 182.673 -4.79697 1.48983 0
M  V30 1928 C 184.667 -5.43688 3.3269 0
M  V30 1929 C 182.354 -5.51023 2.64229 0
M  V30 1930 C 183.352 -5.8294 3.55908 0
M  V30 1931 O 183.04 -6.5281 4.69142 0
M  V30 1932 H 182.772 -0.670798 0.0836986 0
M  V30 1933 H 185.326 -1.85384 0.884407 0
M  V30 1934 H 183.556 -3.78613 -0.78669 0
M  V30 1935 H 185.245 -4.03408 -0.449087 0
M  V30 1936 H 186.011 -4.41627 2.00476 0
M  V30 1937 H 181.89 -4.54266 0.785078 0
M  V30 1938 H 185.434 -5.68517 4.04269 0
M  V30 1939 H 181.331 -5.8092 2.81429 0
M  V30 1940 H 182.099 -6.71288 4.6831 0
M  V30 1941 N 184.763 -0.387143 -1.52771 0
M  V30 1942 C 185.673 0.456442 -2.30117 0
M  V30 1943 C 186.689 1.07342 -1.36944 0
M  V30 1944 O 187.865 1.07971 -1.70013 0
M  V30 1945 C 184.93 1.56957 -3.09136 0
M  V30 1946 C 183.991 0.977916 -4.18014 0
M  V30 1947 C 183.224 2.038 -4.93256 0
M  V30 1948 O 183.447 3.25271 -4.68567 0
M  V30 1949 O 182.381 1.6565 -5.78657 0
M  V30 1950 H 186.207 -0.17359 -3.03203 0
M  V30 1951 H 183.792 -0.150919 -1.48636 0
M  V30 1952 H 185.674 2.21628 -3.58412 0
M  V30 1953 H 184.349 2.18461 -2.38865 0
M  V30 1954 H 183.256 0.294525 -3.72939 0
M  V30 1955 H 184.589 0.407128 -4.90513 0
M  V30 1956 N 186.241 1.57166 -0.116904 0
M  V30 1957 C 187.173 2.12271 0.864507 0
M  V30 1958 C 188.186 1.06494 1.23138 0
M  V30 1959 O 189.375 1.33873 1.18069 0
M  V30 1960 C 186.475 2.60564 2.16702 0
M  V30 1961 C 185.648 3.90416 1.97216 0
M  V30 1962 C 184.707 4.24329 3.11178 0
M  V30 1963 O 183.733 4.93182 2.84184 0
M  V30 1964 N 184.935 3.8148 4.37554 0
M  V30 1965 H 187.7 2.97102 0.393726 0
M  V30 1966 H 185.261 1.61759 0.0675805 0
M  V30 1967 H 187.253 2.80282 2.91932 0
M  V30 1968 H 185.823 1.80623 2.55135 0
M  V30 1969 H 185.043 3.79627 1.06192 0
M  V30 1970 H 186.331 4.75327 1.81499 0
M  V30 1971 H 185.729 3.25943 4.62361 0
M  V30 1972 H 184.286 4.06311 5.09661 0
M  V30 1973 N 187.719 -0.156864 1.56817 0
M  V30 1974 C 188.996 -0.899244 1.73704 0
M  V30 1975 C 189.376 -1.99771 0.682254 0
M  V30 1976 O 188.724 -2.26515 -0.300522 0
M  V30 1977 C 188.934 -1.45075 3.17418 0
M  V30 1978 C 190.282 -1.91802 3.7881 0
M  V30 1979 O 191.306 -1.54838 3.20786 0
M  V30 1980 O 190.165 -2.5994 4.80722 0
M  V30 1981 H 187.259 -0.424267 0.709878 0
M  V30 1982 H 189.805 -0.143561 1.69092 0
M  V30 1983 H 188.577 -0.660846 3.85679 0
M  V30 1984 H 188.2 -2.27021 3.26416 0
M  V30 1985 N 189.197 -1.51736 -0.425897 0
M  V30 1986 C 190.613 -1.40166 -0.76326 0
M  V30 1987 C 190.813 -0.492962 -1.95377 0
M  V30 1988 O 189.869 0.0475815 -2.52455 0
M  V30 1989 C 191.182 -2.82403 -1.03291 0
M  V30 1990 C 192.73 -2.91632 -1.13665 0
M  V30 1991 C 193.205 -4.34801 -1.43916 0
M  V30 1992 N 194.696 -4.3796 -1.50816 0
M  V30 1993 C 195.431 -5.4578 -1.75817 0
M  V30 1994 N 194.927 -6.63744 -1.98534 0
M  V30 1995 N 196.72 -5.33274 -1.77694 0
M  V30 1996 H 188.871 -2.09361 0.358 0
M  V30 1997 H 191.134 -0.942941 0.0978094 0
M  V30 1998 H 190.84 -3.50943 -0.230696 0
M  V30 1999 H 190.714 -3.22428 -1.95754 0
M  V30 2000 H 193.101 -2.23284 -1.92947 0
M  V30 2001 H 193.182 -2.55088 -0.190756 0
M  V30 2002 H 192.826 -5.03703 -0.65157 0
M  V30 2003 H 192.756 -4.68868 -2.39729 0
M  V30 2004 H 195.247 -3.52919 -1.35118 0
M  V30 2005 H 195.56 -7.41704 -2.17013 0
M  V30 2006 H 193.905 -6.66839 -1.95832 0
M  V30 2007 H 197.096 -4.40098 -1.59473 0
M  V30 2008 H 197.269 -6.1738 -1.9684 0
M  V30 2009 N 190.675 0.682077 -1.42076 0
M  V30 2010 C 192.086 1.26246 -1.37546 0
M  V30 2011 C 192.437 1.96092 -0.0651481 0
M  V30 2012 O 191.562 1.99587 0.836297 0
M  V30 2013 C 192.157 2.29594 -2.49143 0
M  V30 2014 C 190.716 2.83175 -2.47969 0
M  V30 2015 C 189.863 1.57395 -2.28303 0
M  V30 2016 H 192.814 0.475937 -1.51395 0
M  V30 2017 H 192.835 3.11175 -2.18976 0
M  V30 2018 H 192.347 1.78729 -3.44496 0
M  V30 2019 H 190.448 3.3818 -1.56413 0
M  V30 2020 H 190.561 3.32687 -3.44755 0
M  V30 2021 H 188.925 1.83699 -1.76428 0
M  V30 2022 H 189.708 1.08507 -3.25701 0
M  V30 2023 N 192.153 1.28127 0.917671 0
M  V30 2024 C 193.083 1.14248 2.03641 0
M  V30 2025 C 194.064 0.0412748 1.7005 0
M  V30 2026 O 195.249 0.217566 1.92977 0
M  V30 2027 C 192.379 0.799431 3.37974 0
M  V30 2028 C 191.333 1.85497 3.85713 0
M  V30 2029 C 190.659 1.36565 5.16966 0
M  V30 2030 C 191.959 3.26085 4.08002 0
M  V30 2031 H 193.653 2.07835 2.15511 0
M  V30 2032 H 191.199 1.00064 1.03553 0
M  V30 2033 H 193.152 0.689114 4.15727 0
M  V30 2034 H 191.876 -0.172145 3.26146 0
M  V30 2035 H 190.535 1.95437 3.10161 0
M  V30 2036 H 190.183 0.383253 5.01538 0
M  V30 2037 H 189.883 2.07143 5.49878 0
M  V30 2038 H 191.407 1.26848 5.97279 0
M  V30 2039 H 192.821 3.19089 4.76293 0
M  V30 2040 H 191.218 3.94462 4.52238 0
M  V30 2041 H 192.288 3.70394 3.12948 0
M  V30 2042 N 193.631 -1.12557 1.10312 0
M  V30 2043 C 194.578 -2.18247 0.750781 0
M  V30 2044 C 195.548 -1.63853 -0.272293 0
M  V30 2045 O 196.733 -1.90195 -0.151862 0
M  V30 2046 C 193.873 -3.44591 0.187379 0
M  V30 2047 C 192.986 -4.13046 1.2656 0
M  V30 2048 C 192.121 -5.27034 0.663978 0
M  V30 2049 C 191.16 -5.87353 1.72287 0
M  V30 2050 N 190.297 -6.92757 1.1416 0
M  V30 2051 H 195.137 -2.47732 1.65628 0
M  V30 2052 H 192.674 -1.21629 0.827337 0
M  V30 2053 H 194.632 -4.16904 -0.157148 0
M  V30 2054 H 193.262 -3.15527 -0.681355 0
M  V30 2055 H 192.314 -3.38924 1.72727 0
M  V30 2056 H 193.626 -4.53947 2.06721 0
M  V30 2057 H 192.78 -6.06104 0.268824 0
M  V30 2058 H 191.519 -4.87407 -0.169082 0
M  V30 2059 H 190.524 -5.06971 2.12746 0
M  V30 2060 H 191.749 -6.29051 2.55875 0
M  V30 2061 H 189.695 -6.5517 0.329984 0
M  V30 2062 H 189.612 -7.3225 1.88007 0
M  V30 2063 H 190.88 -7.75658 0.772956 0
M  V30 2064 N 195.109 -0.891671 -1.2995 0
M  V30 2065 C 196.349 -0.520296 -1.97667 0
M  V30 2066 C 196.713 0.914797 -1.68806 0
M  V30 2067 O 197.914 1.39263 -2.29911 0
M  V30 2068 C 196.185 -0.795222 -3.48441 0
M  V30 2069 S 197.744 -0.526953 -4.35624 0
M  V30 2070 H 194.562 -0.19333 -0.684211 0
M  V30 2071 H 197.164 -1.15238 -1.57926 0
M  V30 2072 H 195.868 -1.83805 -3.66938 0
M  V30 2073 H 195.399 -0.15095 -3.9311 0
M  V30 2074 H 197.414 0.631533 -4.92165 0
M  V30 2075 N 196.587 1.43421 -0.653314 0
M  V30 2076 C 197.864 1.95361 -0.0966581 0
M  V30 2077 C 198.244 1.59461 1.38331 0
M  V30 2078 O 197.592 0.879777 2.10884 0
M  V30 2079 C 197.802 3.47311 -0.342988 0
M  V30 2080 C 199.15 4.23875 -0.24798 0
M  V30 2081 O 200.174 3.55133 -0.275553 0
M  V30 2082 O 199.033 5.4623 -0.171771 0
M  V30 2083 H 196.127 0.826945 0.00956291 0
M  V30 2084 H 198.673 1.5336 -0.726558 0
M  V30 2085 H 197.445 3.66569 -1.36906 0
M  V30 2086 H 197.068 3.9631 0.319975 0
M  V30 2087 N 198.065 0.39524 1.52563 0
M  V30 2088 C 198.975 -0.444232 2.30356 0
M  V30 2089 C 199.991 -1.06615 1.37511 0
M  V30 2090 O 201.167 -1.07067 1.70583 0
M  V30 2091 C 198.232 -1.55315 3.09964 0
M  V30 2092 C 197.293 -0.955734 4.18526 0
M  V30 2093 C 196.526 -2.01181 4.9433 0
M  V30 2094 O 196.749 -3.22781 4.70285 0
M  V30 2095 O 195.683 -1.62579 5.79527 0
M  V30 2096 H 199.509 0.189667 3.03107 0
M  V30 2097 H 197.094 0.1588 1.48554 0
M  V30 2098 H 198.976 -2.19724 3.59582 0
M  V30 2099 H 197.651 -2.17191 2.4002 0
M  V30 2100 H 196.558 -0.274743 3.7309 0
M  V30 2101 H 197.891 -0.381109 4.90722 0
M  V30 2102 N 199.544 -1.57102 0.125237 0
M  V30 2103 C 200.955 -1.82384 -0.399142 0
M  V30 2104 C 201.306 -1.04276 -1.66195 0
M  V30 2105 O 200.431 -0.281269 -2.14564 0
M  V30 2106 C 201.026 -3.30821 -0.730932 0
M  V30 2107 C 199.585 -3.56762 -1.19992 0
M  V30 2108 C 198.732 -2.7649 -0.211792 0
M  V30 2109 H 201.683 -1.54786 0.350277 0
M  V30 2110 H 201.704 -3.4579 -1.58775 0
M  V30 2111 H 201.216 -3.87643 0.188345 0
M  V30 2112 H 199.317 -3.05305 -2.13588 0
M  V30 2113 H 199.43 -4.65317 -1.14093 0
M  V30 2114 H 197.794 -2.4489 -0.700085 0
M  V30 2115 H 198.577 -3.36073 0.700691 0
M  V30 2116 N 201.022 0.148545 -1.56898 0
M  V30 2117 C 202.271 0.85984 -1.82454 0
M  V30 2118 C 202.584 1.82406 -0.706229 0
M  V30 2119 O 203.79 2.57938 -0.847349 0
M  V30 2120 C 202.246 1.57967 -3.2338 0
M  V30 2121 C 201.854 0.65794 -4.43142 0
M  V30 2122 C 203.598 2.27784 -3.58211 0
M  V30 2123 C 201.505 1.3793 -5.75091 0
M  V30 2124 H 200.435 0.324834 -0.68044 0
M  V30 2125 H 203.086 0.112588 -1.83154 0
M  V30 2126 H 201.468 2.37249 -3.17063 0
M  V30 2127 H 202.642 -0.0995497 -4.60692 0
M  V30 2128 H 200.957 0.0682643 -4.16344 0
M  V30 2129 H 203.554 2.8239 -4.54048 0
M  V30 2130 H 203.897 3.04204 -2.84193 0
M  V30 2131 H 204.43 1.55421 -3.66182 0
M  V30 2132 H 201.169 0.656982 -6.52199 0
M  V30 2133 H 200.689 2.10954 -5.61479 0
M  V30 2134 H 202.368 1.92063 -6.17835 0
M  V30 2135 N 202.5 1.5196 0.417844 0
M  V30 2136 C 203.43 1.77634 1.51554 0
M  V30 2137 C 204.411 0.626918 1.58126 0
M  V30 2138 O 205.596 0.871632 1.7354 0
M  V30 2139 C 202.726 1.91911 2.8946 0
M  V30 2140 C 201.68 3.07463 2.97743 0
M  V30 2141 C 201.006 3.06951 4.37819 0
M  V30 2142 C 202.306 4.47082 2.70027 0
M  V30 2143 H 204 2.6955 1.3032 0
M  V30 2144 H 201.546 1.29706 0.625492 0
M  V30 2145 H 203.499 2.08455 3.6623 0
M  V30 2146 H 202.223 0.966598 3.11969 0
M  V30 2147 H 200.882 2.90656 2.23416 0
M  V30 2148 H 200.53 2.09438 4.57323 0
M  V30 2149 H 200.23 3.84556 4.44286 0
M  V30 2150 H 201.754 3.25613 5.16535 0
M  V30 2151 H 203.168 4.6414 3.36522 0
M  V30 2152 H 201.565 5.2654 2.87881 0
M  V30 2153 H 202.635 4.55777 1.65514 0
M  V30 2154 N 203.978 -0.674533 1.42435 0
M  V30 2155 C 205.203 -1.46784 1.46524 0
M  V30 2156 C 205.628 -1.87938 0.078066 0
M  V30 2157 O 204.986 -1.56014 -0.92354 0
M  V30 2158 C 205.034 -2.69307 2.39805 0
M  V30 2159 O 204.138 -3.67587 1.86959 0
M  V30 2160 H 203.479 -0.440959 0.496439 0
M  V30 2161 H 206.009 -0.827326 1.87127 0
M  V30 2162 H 206.019 -3.17374 2.56393 0
M  V30 2163 H 204.694 -2.38692 3.40586 0
M  V30 2164 H 203.271 -3.2662 1.79927 0
M  V30 2165 N 205.456 -1.28612 -0.910864 0
M  V30 2166 C 206.404 -1.1265 -2.03501 0
M  V30 2167 C 207.398 -0.0450054 -1.6934 0
M  V30 2168 O 208.604 -0.203988 -1.7884 0
M  V30 2169 H 204.979 -0.347639 -0.666822 0
M  V30 2170 H 206.95 -2.07849 -2.14106 0
M  V30 2171 C 205.699 -0.808143 -3.38178 0
M  V30 2172 H 205.022 -1.63231 -3.6496 0
M  V30 2173 H 206.462 -0.736426 -4.17556 0
M  V30 2174 C 204.921 0.488226 -3.33344 0
M  V30 2175 O 205.451 1.51766 -3.71927 0
M  V30 2176 N 203.657 0.490009 -2.86439 0
M  V30 2177 H 203.204 -0.348161 -2.55236 0
M  V30 2178 H 203.162 1.35741 -2.83587 0
M  V30 2179 N 206.934 1.1197 -1.10907 0
M  V30 2180 C 208.35 1.35591 -0.841852 0
M  V30 2181 C 208.55 1.94233 0.536246 0
M  V30 2182 O 207.606 2.1717 1.28816 0
M  V30 2183 C 208.919 2.29284 -1.94549 0
M  V30 2184 C 210.467 2.42862 -1.97451 0
M  V30 2185 C 210.942 3.39873 -3.07002 0
M  V30 2186 N 212.433 3.47433 -3.06341 0
M  V30 2187 C 213.168 4.22421 -3.87748 0
M  V30 2188 N 212.664 5.00432 -4.79103 0
M  V30 2189 N 214.457 4.17876 -3.75946 0
M  V30 2190 H 206.608 0.722664 -1.99728 0
M  V30 2191 H 208.871 0.380635 -0.868229 0
M  V30 2192 H 208.577 1.93378 -2.93765 0
M  V30 2193 H 208.451 3.29452 -1.83688 0
M  V30 2194 H 210.838 2.78046 -0.988645 0
M  V30 2195 H 210.919 1.42566 -2.12388 0
M  V30 2196 H 210.563 3.05417 -4.05811 0
M  V30 2197 H 210.493 4.40011 -2.89306 0
M  V30 2198 H 212.984 2.91784 -2.40147 0
M  V30 2199 H 213.297 5.55002 -5.37766 0
M  V30 2200 H 211.642 4.99612 -4.83128 0
M  V30 2201 H 214.833 3.56016 -3.03924 0
M  V30 2202 H 215.006 4.76061 -4.39624 0
M  V30 2203 N 208.412 0.89855 1.29475 0
M  V30 2204 C 209.637 0.538561 2.00285 0
M  V30 2205 C 210.062 -0.869135 1.66816 0
M  V30 2206 O 209.42 -1.57831 0.892145 0
M  V30 2207 C 209.468 0.736475 3.52999 0
M  V30 2208 O 208.572 -0.211537 4.11857 0
M  V30 2209 H 207.913 0.210563 0.62973 0
M  V30 2210 H 210.443 1.20982 1.64998 0
M  V30 2211 H 210.453 0.640685 4.02938 0
M  V30 2212 H 209.128 1.76276 3.76696 0
M  V30 2213 H 207.705 -0.0682991 3.72837 0
M  V30 2214 N 209.89 -1.43072 0.660911 0
M  V30 2215 C 211.138 -2.01323 0.177094 0
M  V30 2216 C 211.459 -1.5245 -1.2159 0
M  V30 2217 O 210.729 -0.740322 -1.81373 0
M  V30 2218 H 209.309 -0.744382 0.0624804 0
M  V30 2219 H 211.971 -1.75179 0.854305 0
M  V30 2220 H 211.067 -3.11649 0.167641 0
M  V30 2221 N 211.368 -0.403325 -1.52352 0
M  V30 2222 C 212.645 0.232611 -1.94212 0
M  V30 2223 C 213.025 1.63133 -1.33981 0
M  V30 2224 O 212.373 2.22659 -0.513344 0
M  V30 2225 C 212.583 0.244811 -3.4814 0
M  V30 2226 C 213.931 0.46698 -4.22024 0
M  V30 2227 O 214.955 0.324419 -3.5472 0
M  V30 2228 O 213.814 0.74747 -5.41364 0
M  V30 2229 H 210.908 0.148223 -0.813609 0
M  V30 2230 H 213.454 -0.458848 -1.63379 0
M  V30 2231 H 212.226 -0.734378 -3.84347 0
M  V30 2232 H 211.849 0.980611 -3.85318 0
M  V30 2233 N 212.846 1.57033 -0.133567 0
M  V30 2234 C 213.796 2.12641 0.822671 0
M  V30 2235 C 214.78 1.05081 1.21847 0
M  V30 2236 O 215.972 1.31287 1.18713 0
M  V30 2237 C 213.101 2.74094 2.06706 0
M  V30 2238 C 212.187 3.88757 1.69497 0
M  V30 2239 N 212.578 4.95194 1.03037 0
M  V30 2240 C 210.876 3.99213 1.98859 0
M  V30 2241 C 211.577 5.75414 0.852873 0
M  V30 2242 N 210.553 5.25726 1.3825 0
M  V30 2243 H 214.355 2.92308 0.305537 0
M  V30 2244 H 211.869 1.62256 0.0684276 0
M  V30 2245 H 213.866 3.12285 2.76195 0
M  V30 2246 H 212.526 1.95896 2.5895 0
M  V30 2247 H 213.537 5.13247 0.692669 0
M  V30 2248 H 210.214 3.32075 2.53047 0
M  V30 2249 H 211.604 6.71089 0.330091 0
M  V30 2250 N 214.325 -0.140222 1.56975 0
M  V30 2251 C 215.741 -0.493088 1.51792 0
M  V30 2252 C 215.941 -1.83013 0.843116 0
M  V30 2253 O 214.997 -2.49041 0.416493 0
M  V30 2254 C 216.31 -0.497144 2.96562 0
M  V30 2255 C 217.858 -0.582186 3.07538 0
M  V30 2256 C 218.333 -0.616838 4.53827 0
M  V30 2257 N 219.824 -0.678873 4.58198 0
M  V30 2258 C 220.559 -0.726782 5.68775 0
M  V30 2259 N 220.055 -0.733623 6.88905 0
M  V30 2260 N 221.848 -0.768179 5.56826 0
M  V30 2261 H 213.999 0.736108 1.99237 0
M  V30 2262 H 216.262 0.269182 0.90898 0
M  V30 2263 H 215.968 0.417217 3.49217 0
M  V30 2264 H 215.842 -1.33263 3.52875 0
M  V30 2265 H 218.229 -1.48697 2.54899 0
M  V30 2266 H 218.31 0.280581 2.54257 0
M  V30 2267 H 217.954 0.283812 5.07106 0
M  V30 2268 H 217.884 -1.49619 5.04898 0
M  V30 2269 H 220.375 -0.68061 3.7172 0
M  V30 2270 H 220.688 -0.772215 7.68932 0
M  V30 2271 H 219.033 -0.701389 6.91452 0
M  V30 2272 H 222.224 -0.760051 4.61888 0
M  V30 2273 H 222.397 -0.80205 6.43017 0
M  V30 2274 N 215.803 -1.52179 -0.40978 0
M  V30 2275 C 217.051 -1.65878 -1.15451 0
M  V30 2276 C 217.372 -0.390771 -1.91044 0
M  V30 2277 O 216.642 0.594323 -1.86667 0
M  V30 2278 H 215.222 -0.611405 -0.429177 0
M  V30 2279 H 217.884 -1.89219 -0.467134 0
M  V30 2280 H 216.98 -2.49954 -1.86894 0
M  V30 2281 N 217.281 0.66697 -1.42791 0
M  V30 2282 C 218.228 1.7803 -1.4688 0
M  V30 2283 C 219.198 1.6299 -0.319919 0
M  V30 2284 O 220.383 1.83432 -0.525118 0
M  V30 2285 C 217.523 3.1611 -1.38451 0
M  V30 2286 C 216.636 3.42381 -2.63437 0
M  V30 2287 C 215.771 4.70232 -2.47094 0
M  V30 2288 C 214.81 4.89564 -3.67415 0
M  V30 2289 N 213.947 6.08661 -3.49966 0
M  V30 2290 H 218.787 1.7387 -2.42019 0
M  V30 2291 H 216.324 0.84868 -1.20149 0
M  V30 2292 H 218.282 3.95914 -1.31561 0
M  V30 2293 H 216.912 3.19374 -0.469033 0
M  V30 2294 H 215.964 2.56774 -2.80662 0
M  V30 2295 H 217.276 3.52557 -3.52853 0
M  V30 2296 H 216.43 5.5814 -2.37834 0
M  V30 2297 H 215.169 4.62353 -1.5518 0
M  V30 2298 H 214.174 4.00096 -3.77099 0
M  V30 2299 H 215.399 4.99282 -4.6032 0
M  V30 2300 H 213.345 6.0194 -2.60776 0
M  V30 2301 H 213.262 6.19733 -4.32975 0
M  V30 2302 H 214.53 6.99226 -3.44532 0
M  V30 2303 N 218.759 1.29093 0.90403 0
M  V30 2304 C 220.006 1.16813 1.65411 0
M  V30 2305 C 220.334 -0.28128 1.92455 0
M  V30 2306 O 219.589 -1.22006 1.53013 0
M  V30 2307 C 219.888 1.92224 3.01305 0
M  V30 2308 C 219.554 3.41968 2.93885 0
M  V30 2309 C 218.216 3.82807 2.91569 0
M  V30 2310 C 220.568 4.37409 2.83413 0
M  V30 2311 C 217.896 5.1741 2.76594 0
M  V30 2312 C 220.248 5.72097 2.69977 0
M  V30 2313 C 218.912 6.12199 2.66024 0
M  V30 2314 H 218.182 0.42745 0.605283 0
M  V30 2315 H 220.829 1.59981 1.05254 0
M  V30 2316 H 219.134 1.41635 3.65304 0
M  V30 2317 H 220.831 1.80131 3.58265 0
M  V30 2318 H 217.421 3.09504 2.96488 0
M  V30 2319 H 221.605 4.06813 2.84283 0
M  V30 2320 H 216.861 5.47596 2.71935 0
M  V30 2321 H 221.035 6.45704 2.60844 0
M  V30 2322 H 218.662 7.16448 2.54178 0
M  V30 2323 N 220.237 -1.11381 1.11499 0
M  V30 2324 C 221.184 -2.17439 0.773887 0
M  V30 2325 C 222.154 -1.64132 -0.254899 0
M  V30 2326 O 223.339 -1.90345 -0.13168 0
M  V30 2327 C 220.479 -3.44373 0.223917 0
M  V30 2328 C 219.592 -4.1168 1.30934 0
M  V30 2329 C 218.727 -5.263 0.71984 0
M  V30 2330 C 217.766 -5.85493 1.78507 0
M  V30 2331 N 216.903 -6.91507 1.21502 0
M  V30 2332 H 221.743 -2.45962 1.68246 0
M  V30 2333 H 219.28 -1.20744 0.840191 0
M  V30 2334 H 221.238 -4.17047 -0.112921 0
M  V30 2335 H 219.868 -3.16232 -0.647851 0
M  V30 2336 H 218.92 -3.37073 1.76312 0
M  V30 2337 H 220.232 -4.51729 2.11524 0
M  V30 2338 H 219.386 -6.05785 0.333094 0
M  V30 2339 H 218.125 -4.87559 -0.117377 0
M  V30 2340 H 217.13 -5.04686 2.18111 0
M  V30 2341 H 218.355 -6.26301 2.62533 0
M  V30 2342 H 216.301 -6.54783 0.399455 0
M  V30 2343 H 216.218 -7.30214 1.95763 0
M  V30 2344 H 217.486 -7.74795 0.855181 0
M  V30 2345 N 221.715 -0.905404 -1.28997 0
M  V30 2346 C 222.961 -0.535039 -1.95615 0
M  V30 2347 C 223.294 0.917404 -1.71165 0
M  V30 2348 O 222.569 1.65123 -1.02785 0
M  V30 2349 C 222.852 -0.834918 -3.50287 0
M  V30 2350 C 222.705 -2.33948 -3.84172 0
M  V30 2351 C 224.024 -0.325318 -4.38896 0
M  V30 2352 H 221.143 -0.195861 -0.710498 0
M  V30 2353 H 223.785 -1.13313 -1.52513 0
M  V30 2354 H 221.935 -0.325904 -3.87131 0
M  V30 2355 H 223.607 -2.91847 -3.57243 0
M  V30 2356 H 221.85 -2.79789 -3.31513 0
M  V30 2357 H 222.521 -2.49987 -4.92149 0
M  V30 2358 H 224.997 -0.761256 -4.09077 0
M  V30 2359 H 223.873 -0.564295 -5.45992 0
M  V30 2360 H 224.134 0.774144 -4.35269 0
M  V30 2361 N 223.193 1.4272 -0.668489 0
M  V30 2362 C 224.156 2.292 0.00448567 0
M  V30 2363 C 225.156 1.43001 0.735339 0
M  V30 2364 O 226.346 1.64461 0.57429 0
M  V30 2365 C 223.478 3.25375 1.01705 0
M  V30 2366 H 224.671 2.90199 -0.756608 0
M  V30 2367 H 222.224 1.50254 -0.430506 0
M  V30 2368 H 222.959 2.69301 1.80686 0
M  V30 2369 H 222.744 3.88944 0.496463 0
M  V30 2370 H 224.234 3.90245 1.48655 0
M  V30 2371 N 224.671 0.411399 1.52136 0
M  V30 2372 C 225.896 -0.165538 2.06738 0
M  V30 2373 C 226.321 -1.379 1.27926 0
M  V30 2374 O 225.679 -1.78628 0.310114 0
M  V30 2375 C 225.727 -0.492124 3.57226 0
M  V30 2376 O 224.831 -1.58276 3.80818 0
M  V30 2377 H 224.172 -0.0132132 0.663869 0
M  V30 2378 H 226.702 0.585253 1.96051 0
M  V30 2379 H 226.712 -0.750104 4.01045 0
M  V30 2380 H 225.387 0.394922 4.14021 0
M  V30 2381 H 223.964 -1.31677 3.48877 0
M  V30 2382 N 226.149 -1.5696 0.141893 0
M  V30 2383 C 227.396 -1.9596 -0.510492 0
M  V30 2384 C 227.724 -1.02648 -1.65208 0
M  V30 2385 O 226.979 -0.0546947 -1.95624 0
M  V30 2386 C 227.278 -3.41242 -1.06249 0
M  V30 2387 C 226.944 -4.50882 -0.0398791 0
M  V30 2388 C 225.606 -4.80595 0.241247 0
M  V30 2389 C 227.958 -5.17058 0.65578 0
M  V30 2390 C 225.286 -5.73792 1.22393 0
M  V30 2391 C 227.638 -6.11313 1.62724 0
M  V30 2392 C 226.302 -6.39407 1.91612 0
M  V30 2393 H 225.572 -0.717068 -0.186802 0
M  V30 2394 H 228.219 -1.90142 0.227643 0
M  V30 2395 H 226.524 -3.43866 -1.87785 0
M  V30 2396 H 228.221 -3.68742 -1.57576 0
M  V30 2397 H 224.811 -4.27754 -0.269174 0
M  V30 2398 H 228.995 -4.94239 0.451779 0
M  V30 2399 H 224.251 -5.93853 1.45424 0
M  V30 2400 H 228.425 -6.61668 2.17183 0
M  V30 2401 H 226.052 -7.11427 2.6791 0
M  V30 2402 N 227.627 0.131896 -1.57047 0
M  V30 2403 C 229.043 0.485031 -1.52051 0
M  V30 2404 C 229.243 1.82563 -0.85281 0
M  V30 2405 O 228.299 2.48817 -0.429694 0
M  V30 2406 C 229.612 0.481409 -2.96821 0
M  V30 2407 C 231.16 0.565868 -3.07842 0
M  V30 2408 C 231.635 0.592762 -4.54148 0
M  V30 2409 N 233.126 0.654564 -4.58552 0
M  V30 2410 C 233.861 0.696608 -5.69153 0
M  V30 2411 N 233.357 0.697078 -6.89284 0
M  V30 2412 N 235.15 0.738639 -5.57226 0
M  V30 2413 H 227.301 -0.746664 -1.98843 0
M  V30 2414 H 229.564 -0.273999 -0.90754 0
M  V30 2415 H 229.27 -0.435731 -3.4899 0
M  V30 2416 H 229.144 1.3139 -3.53577 0
M  V30 2417 H 231.531 1.47343 -2.55684 0
M  V30 2418 H 231.612 -0.29406 -2.54104 0
M  V30 2419 H 231.256 -0.310701 -5.06949 0
M  V30 2420 H 231.186 1.46939 -5.05684 0
M  V30 2421 H 233.677 0.660887 -3.72076 0
M  V30 2422 H 233.99 0.731426 -7.69331 0
M  V30 2423 H 232.335 0.66471 -6.91814 0
M  V30 2424 H 235.526 0.735545 -4.62285 0
M  V30 2425 H 235.699 0.767938 -6.43434 0
M  V30 2426 N 229.106 1.52395 0.401703 0
M  V30 2427 C 230.053 1.76268 1.48991 0
M  V30 2428 C 231.023 0.605386 1.54675 0
M  V30 2429 O 232.208 0.843742 1.7113 0
M  V30 2430 C 229.348 1.92592 2.86361 0
M  V30 2431 C 228.461 3.20259 2.89928 0
M  V30 2432 C 227.596 3.26972 4.18644 0
M  V30 2433 C 226.635 4.48812 4.16214 0
M  V30 2434 N 225.772 4.52877 5.36514 0
M  V30 2435 H 230.612 2.6914 1.27935 0
M  V30 2436 H 228.149 1.33355 0.620871 0
M  V30 2437 H 230.107 2.0004 3.66115 0
M  V30 2438 H 228.737 1.03093 3.05895 0
M  V30 2439 H 227.789 3.21945 2.02621 0
M  V30 2440 H 229.101 4.10056 2.83999 0
M  V30 2441 H 228.255 3.33533 5.06794 0
M  V30 2442 H 226.994 2.35126 4.27278 0
M  V30 2443 H 225.999 4.4239 3.26453 0
M  V30 2444 H 227.224 5.41961 4.09213 0
M  V30 2445 H 225.17 3.63917 5.45802 0
M  V30 2446 H 225.087 5.36529 5.32609 0
M  V30 2447 H 226.355 4.63676 6.26597 0
M  V30 2448 N 230.584 -0.659388 1.43143 0
M  V30 2449 C 231.531 -1.77249 1.47822 0
M  V30 2450 C 232.501 -1.62818 0.328558 0
M  V30 2451 O 233.686 -1.83151 0.534838 0
M  V30 2452 C 230.826 -3.15371 1.40126 0
M  V30 2453 C 229.939 -3.4098 2.65249 0
M  V30 2454 C 229.074 -4.68915 2.49584 0
M  V30 2455 C 228.113 -4.87608 3.70006 0
M  V30 2456 N 227.25 -6.06796 3.53189 0
M  V30 2457 H 232.09 -1.72584 2.42938 0
M  V30 2458 H 229.627 -0.842297 1.20598 0
M  V30 2459 H 231.585 -3.9521 1.33659 0
M  V30 2460 H 230.215 -3.19121 0.485964 0
M  V30 2461 H 229.267 -2.55282 2.8202 0
M  V30 2462 H 230.579 -3.50681 3.54717 0
M  V30 2463 H 229.733 -5.56871 2.4079 0
M  V30 2464 H 228.472 -4.61524 1.5763 0
M  V30 2465 H 227.477 -3.9809 3.79215 0
M  V30 2466 H 228.702 -4.96834 4.62961 0
M  V30 2467 H 226.648 -6.00549 2.63965 0
M  V30 2468 H 226.565 -6.17428 4.36255 0
M  V30 2469 H 227.833 -6.9739 3.48236 0
M  V30 2470 N 232.062 -1.29571 -0.897171 0
M  V30 2471 C 233.292 -1.20408 -1.67886 0
M  V30 2472 C 233.7 0.237429 -1.87704 0
M  V30 2473 O 233.043 1.17048 -1.41582 0
M  V30 2474 C 233.105 -1.84887 -3.08314 0
M  V30 2475 C 232.769 -3.34189 -3.11716 0
M  V30 2476 C 233.766 -4.30374 -2.91675 0
M  V30 2477 C 231.451 -3.75431 -3.33701 0
M  V30 2478 C 233.445 -5.65776 -2.93557 0
M  V30 2479 C 231.132 -5.10955 -3.35214 0
M  V30 2480 C 232.13 -6.05938 -3.15164 0
M  V30 2481 O 231.818 -7.38987 -3.1647 0
M  V30 2482 H 231.55 -0.418289 -0.531046 0
M  V30 2483 H 234.104 -1.71514 -1.13014 0
M  V30 2484 H 232.334 -1.28295 -3.64798 0
M  V30 2485 H 234.023 -1.70011 -3.6858 0
M  V30 2486 H 234.789 -3.99844 -2.74499 0
M  V30 2487 H 230.668 -3.01953 -3.48347 0
M  V30 2488 H 234.212 -6.39889 -2.77826 0
M  V30 2489 H 230.109 -5.4113 -3.51922 0
M  V30 2490 H 230.877 -7.47823 -3.3272 0
M  V30 2491 N 233.54 1.10788 -1.12088 0
M  V30 2492 C 234.45 2.20599 -0.798338 0
M  V30 2493 C 235.466 1.72712 0.21135 0
M  V30 2494 O 236.642 2.01348 0.0458477 0
M  V30 2495 C 233.707 3.45771 -0.253674 0
M  V30 2496 C 232.768 4.08411 -1.32283 0
M  V30 2497 C 232.001 5.27608 -0.80406 0
M  V30 2498 O 232.224 5.69241 0.363478 0
M  V30 2499 O 231.158 5.8101 -1.57198 0
M  V30 2500 H 234.984 2.50614 -1.7154 0
M  V30 2501 H 232.569 1.19454 -0.897275 0
M  V30 2502 H 234.451 4.21376 0.0453691 0
M  V30 2503 H 233.126 3.1739 0.636005 0
M  V30 2504 H 232.033 3.34507 -1.67499 0
M  V30 2505 H 233.366 4.40986 -2.18614 0
M  V30 2506 N 235.018 0.912232 1.28515 0
M  V30 2507 C 235.948 0.416403 2.29757 0
M  V30 2508 C 236.929 -0.515194 1.6211 0
M  V30 2509 O 238.114 -0.423253 1.89532 0
M  V30 2510 C 235.244 -0.34572 3.45575 0
M  V30 2511 C 234.198 0.496599 4.25109 0
M  V30 2512 C 233.524 -0.393771 5.33248 0
M  V30 2513 C 234.824 1.75307 4.92001 0
M  V30 2514 H 236.518 1.26249 2.7148 0
M  V30 2515 H 234.064 0.608515 1.30511 0
M  V30 2516 H 236.017 -0.703422 4.15488 0
M  V30 2517 H 234.741 -1.2257 3.02728 0
M  V30 2518 H 233.4 0.8368 3.56922 0
M  V30 2519 H 233.048 -1.27225 4.86644 0
M  V30 2520 H 232.748 0.166209 5.87365 0
M  V30 2521 H 234.272 -0.747389 6.06009 0
M  V30 2522 H 235.686 1.46437 5.54283 0
M  V30 2523 H 234.083 2.25534 5.56106 0
M  V30 2524 H 235.153 2.48176 4.16577 0
M  V30 2525 N 236.496 -1.42363 0.676048 0
M  V30 2526 C 237.912 -1.55811 0.345718 0
M  V30 2527 C 238.112 -1.65544 -1.14879 0
M  V30 2528 O 237.168 -1.62306 -1.93424 0
M  V30 2529 C 238.481 -2.80746 1.07713 0
M  V30 2530 C 240.029 -2.9452 1.05958 0
M  V30 2531 C 240.504 -4.22318 1.77233 0
M  V30 2532 N 241.995 -4.29233 1.74108 0
M  V30 2533 C 242.73 -5.26935 2.26113 0
M  V30 2534 N 242.226 -6.30783 2.86505 0
M  V30 2535 N 244.019 -5.18741 2.1648 0
M  V30 2536 H 236.17 -1.34289 1.6456 0
M  V30 2537 H 238.433 -0.646506 0.69335 0
M  V30 2538 H 238.139 -2.79696 2.13221 0
M  V30 2539 H 238.013 -3.71676 0.64316 0
M  V30 2540 H 240.4 -2.95097 0.0128255 0
M  V30 2541 H 240.481 -2.04817 1.53244 0
M  V30 2542 H 240.125 -4.22502 2.81877 0
M  V30 2543 H 240.055 -5.10958 1.27396 0
M  V30 2544 H 242.546 -3.54814 1.30059 0
M  V30 2545 H 242.859 -7.01691 3.23805 0
M  V30 2546 H 241.204 -6.31341 2.90575 0
M  V30 2547 H 244.395 -4.36533 1.68987 0
M  V30 2548 H 244.568 -5.94721 2.57316 0
M  V30 2549 N 237.974 -0.419461 -1.51915 0
M  V30 2550 C 238.937 0.389116 -2.25873 0
M  V30 2551 C 239.937 0.964924 -1.28631 0
M  V30 2552 O 241.127 0.842179 -1.52489 0
M  V30 2553 C 238.259 1.54874 -3.03689 0
M  V30 2554 H 239.452 -0.258799 -2.98781 0
M  V30 2555 H 237.005 -0.172209 -1.55348 0
M  V30 2556 H 237.74 2.23323 -2.35154 0
M  V30 2557 H 237.525 1.14223 -3.75094 0
M  V30 2558 H 239.015 2.12046 -3.59759 0
M  V30 2559 N 239.452 1.56882 -0.150215 0
M  V30 2560 C 240.863 1.82995 0.370076 0
M  V30 2561 C 241.214 1.06907 1.64515 0
M  V30 2562 O 240.339 0.315369 2.1409 0
M  V30 2563 C 240.934 3.31942 0.678208 0
M  V30 2564 C 239.493 3.58625 1.14301 0
M  V30 2565 C 238.64 2.76792 0.167778 0
M  V30 2566 H 241.591 1.54209 -0.374858 0
M  V30 2567 H 241.612 3.48272 1.53254 0
M  V30 2568 H 241.124 3.87294 -0.249991 0
M  V30 2569 H 239.225 3.08664 2.08704 0
M  V30 2570 H 239.338 4.67073 1.06676 0
M  V30 2571 H 237.702 2.45972 0.661037 0
M  V30 2572 H 238.485 3.34916 -0.754069 0
M  V30 2573 N 240.93 -0.123565 1.57115 0
M  V30 2574 C 242.176 -0.833386 1.84885 0
M  V30 2575 C 242.509 -1.79742 0.735292 0
M  V30 2576 O 241.784 -1.92764 -0.25925 0
M  V30 2577 C 242.067 -1.5873 3.23228 0
M  V30 2578 C 241.92 -0.643183 4.45178 0
M  V30 2579 C 243.239 -2.54453 3.59085 0
M  V30 2580 H 240.358 -0.301518 0.6725 0
M  V30 2581 H 243 -0.097778 1.89748 0
M  V30 2582 H 241.15 -2.21438 3.19214 0
M  V30 2583 H 242.822 -0.0253015 4.61293 0
M  V30 2584 H 241.065 0.0456139 4.33776 0
M  V30 2585 H 241.736 -1.20724 5.38637 0
M  V30 2586 H 244.212 -2.01853 3.63861 0
M  V30 2587 H 243.088 -3.04238 4.5687 0
M  V30 2588 H 243.349 -3.36906 2.86264 0
M  V30 2589 N 242.408 -1.52605 -0.393616 0
M  V30 2590 C 243.371 -1.76415 -1.46323 0
M  V30 2591 C 244.371 -0.634126 -1.47768 0
M  V30 2592 O 245.561 -0.902142 -1.4902 0
M  V30 2593 C 242.693 -1.8607 -2.85641 0
M  V30 2594 H 243.886 -2.71916 -1.26498 0
M  V30 2595 H 241.439 -1.43257 -0.625073 0
M  V30 2596 H 242.174 -0.925378 -3.10817 0
M  V30 2597 H 241.959 -2.68235 -2.85993 0
M  V30 2598 H 243.449 -2.06179 -3.63153 0
M  V30 2599 N 243.887 0.651787 -1.4349 0
M  V30 2600 C 245.135 1.40888 -1.44897 0
M  V30 2601 C 245.456 1.94856 -0.0749086 0
M  V30 2602 O 244.726 1.74518 0.889956 0
M  V30 2603 H 243.306 0.522887 -0.533478 0
M  V30 2604 H 245.968 0.768609 -1.79104 0
M  V30 2605 H 245.064 2.25052 -2.16236 0
M  V30 2606 N 245.365 1.30045 0.890287 0
M  V30 2607 C 246.593 1.21472 1.67487 0
M  V30 2608 C 247.008 -0.223241 1.87476 0
M  V30 2609 O 246.365 -1.14828 1.41847 0
M  V30 2610 C 246.416 1.93394 3.05419 0
M  V30 2611 O 246.137 3.31576 2.86337 0
M  V30 2612 C 247.638 1.91414 3.99844 0
M  V30 2613 H 244.858 0.420604 0.522813 0
M  V30 2614 H 247.402 1.7158 1.11268 0
M  V30 2615 H 245.557 1.47099 3.58386 0
M  V30 2616 H 245.971 3.67929 3.73802 0
M  V30 2617 H 247.445 2.46285 4.94012 0
M  V30 2618 H 247.922 0.891833 4.3005 0
M  V30 2619 H 248.528 2.37496 3.52811 0
M  V30 2620 N 246.843 -1.10192 1.12674 0
M  V30 2621 C 248.083 -1.83825 0.893736 0
M  V30 2622 C 248.447 -1.83341 -0.570082 0
M  V30 2623 O 249.648 -2.52553 -0.920354 0
M  V30 2624 C 247.919 -3.26405 1.45582 0
M  V30 2625 S 249.478 -4.17136 1.36171 0
M  V30 2626 H 246.296 -0.633732 0.322342 0
M  V30 2627 H 248.898 -1.32581 1.43675 0
M  V30 2628 H 247.602 -3.24329 2.51473 0
M  V30 2629 H 247.133 -3.82721 0.910405 0
M  V30 2630 H 249.148 -4.95069 0.334863 0
M  V30 2631 N 248.321 -0.919034 -1.28029 0
M  V30 2632 C 249.551 -0.570143 -1.98577 0
M  V30 2633 C 249.959 0.854172 -1.68821 0
M  V30 2634 O 249.302 1.57807 -0.940351 0
M  V30 2635 C 249.364 -0.705734 -3.52505 0
M  V30 2636 C 249.028 -2.10057 -4.05863 0
M  V30 2637 C 250.025 -3.07385 -4.19298 0
M  V30 2638 C 247.71 -2.41517 -4.40426 0
M  V30 2639 C 249.704 -4.34287 -4.66555 0
M  V30 2640 C 247.391 -3.68657 -4.87376 0
M  V30 2641 C 248.389 -4.64856 -5.00398 0
M  V30 2642 O 248.077 -5.89735 -5.46322 0
M  V30 2643 H 247.809 -0.215592 -0.6407 0
M  V30 2644 H 250.363 -1.23583 -1.64062 0
M  V30 2645 H 248.593 0.0170414 -3.86696 0
M  V30 2646 H 250.282 -0.363172 -4.04272 0
M  V30 2647 H 251.048 -2.84398 -3.92865 0
M  V30 2648 H 246.927 -1.67389 -4.29537 0
M  V30 2649 H 250.471 -5.09377 -4.76635 0
M  V30 2650 H 246.368 -3.91466 -5.13249 0
M  V30 2651 H 247.136 -5.92599 -5.64596 0
M  V30 2652 N 249.799 1.42003 -0.683588 0
M  V30 2653 C 250.731 2.29183 0.0283068 0
M  V30 2654 C 251.744 1.4415 0.756611 0
M  V30 2655 O 252.933 1.67779 0.609306 0
M  V30 2656 C 250.033 3.21765 1.06398 0
M  V30 2657 C 249.206 4.35496 0.407723 0
M  V30 2658 C 248.265 5.08737 1.34437 0
M  V30 2659 O 247.291 5.62948 0.841318 0
M  V30 2660 N 248.493 5.15075 2.67728 0
M  V30 2661 H 251.258 2.9092 -0.720105 0
M  V30 2662 H 248.819 1.53025 -0.528682 0
M  V30 2663 H 250.811 3.6763 1.69204 0
M  V30 2664 H 249.381 2.61418 1.71404 0
M  V30 2665 H 248.601 3.92165 -0.400012 0
M  V30 2666 H 249.889 5.08776 -0.0490956 0
M  V30 2667 H 249.287 4.72457 3.11129 0
M  V30 2668 H 247.844 5.64556 3.2576 0
M  V30 2669 N 251.277 0.427512 1.51691 0
M  V30 2670 C 252.24 -0.377132 2.26076 0
M  V30 2671 C 253.24 -0.958089 1.29141 0
M  V30 2672 O 254.43 -0.83408 1.52934 0
M  V30 2673 C 251.562 -1.53262 3.04506 0
M  V30 2674 H 252.755 0.27464 2.9864 0
M  V30 2675 H 250.308 0.180445 1.55255 0
M  V30 2676 H 251.043 -2.22072 2.36335 0
M  V30 2677 H 250.828 -1.12232 3.75694 0
M  V30 2678 H 252.318 -2.10135 3.60878 0
M  V30 2679 N 252.755 -1.56801 0.158532 0
M  V30 2680 C 253.665 -2.20916 -0.789518 0
M  V30 2681 C 254.681 -1.1969 -1.26294 0
M  V30 2682 O 255.857 -1.52308 -1.31773 0
M  V30 2683 C 252.922 -2.82727 -2.00665 0
M  V30 2684 C 251.983 -3.99114 -1.58134 0
M  V30 2685 C 251.216 -4.57968 -2.74045 0
M  V30 2686 O 251.439 -4.15704 -3.90572 0
M  V30 2687 O 250.373 -5.48047 -2.48855 0
M  V30 2688 H 254.199 -3.02464 -0.273681 0
M  V30 2689 H 251.784 -1.4924 -0.0690548 0
M  V30 2690 H 253.666 -3.21968 -2.71872 0
M  V30 2691 H 252.341 -2.04184 -2.51179 0
M  V30 2692 H 251.248 -3.64567 -0.839155 0
M  V30 2693 H 252.581 -4.79212 -1.12325 0
M  V30 2694 N 254.233 0.115231 -1.57178 0
M  V30 2695 C 255.479 0.818565 -1.86202 0
M  V30 2696 C 255.834 1.77316 -0.746785 0
M  V30 2697 O 255.127 1.89923 0.25291 0
M  V30 2698 C 255.321 1.60324 -3.19423 0
M  V30 2699 C 255.15 0.726138 -4.43799 0
M  V30 2700 C 253.92 0.379535 -5.03873 0
M  V30 2701 C 256.118 0.0420774 -5.14283 0
M  V30 2702 N 254.1 -0.507841 -6.11796 0
M  V30 2703 C 255.471 -0.704152 -6.15988 0
M  V30 2704 C 257.526 -0.0339486 -4.97888 0
M  V30 2705 C 256.229 -1.51927 -7.03072 0
M  V30 2706 C 258.255 -0.835906 -5.85463 0
M  V30 2707 C 257.617 -1.57031 -6.86673 0
M  V30 2708 H 253.716 0.276343 -0.731545 0
M  V30 2709 H 256.3 0.0821032 -1.94527 0
M  V30 2710 H 254.471 2.31072 -3.12186 0
M  V30 2711 H 256.203 2.2522 -3.36241 0
M  V30 2712 H 252.958 0.722634 -4.68054 0
M  V30 2713 H 253.382 -0.94349 -6.70393 0
M  V30 2714 H 258.024 0.519496 -4.19596 0
M  V30 2715 H 255.742 -2.08386 -7.80769 0
M  V30 2716 H 259.328 -0.89714 -5.74841 0
M  V30 2717 H 258.208 -2.18088 -7.53264 0
M  V30 2718 N 255.711 1.52812 0.385517 0
M  V30 2719 C 256.988 1.5861 1.14465 0
M  V30 2720 C 257.368 0.381402 2.07626 0
M  V30 2721 O 256.716 -0.629999 2.19643 0
M  V30 2722 C 256.926 2.92664 1.90128 0
M  V30 2723 C 258.274 3.46526 2.45367 0
M  V30 2724 O 259.298 2.94562 2.0028 0
M  V30 2725 O 258.157 4.37323 3.27736 0
M  V30 2726 H 255.251 0.639855 0.523941 0
M  V30 2727 H 257.797 1.65149 0.390389 0
M  V30 2728 H 256.569 3.71788 1.22022 0
M  V30 2729 H 256.192 2.89527 2.72507 0
M  V30 2730 N 257.189 -0.644168 1.43834 0
M  V30 2731 C 258.466 -1.40188 1.36406 0
M  V30 2732 C 258.846 -2.11094 0.0163124 0
M  V30 2733 O 258.194 -2.05426 -1.00062 0
M  V30 2734 C 258.404 -2.3791 2.55343 0
M  V30 2735 C 259.752 -3.01637 2.98832 0
M  V30 2736 O 260.776 -2.48237 2.55455 0
M  V30 2737 O 259.635 -3.98477 3.74003 0
M  V30 2738 H 256.729 -0.626773 0.539523 0
M  V30 2739 H 259.275 -0.670317 1.559 0
M  V30 2740 H 258.047 -1.84525 3.4506 0
M  V30 2741 H 257.67 -3.18503 2.37995 0
M  V30 2742 N 258.668 -1.30515 -0.883378 0
M  V30 2743 C 259.898 -1.22182 -1.66599 0
M  V30 2744 C 260.306 0.217507 -1.87946 0
M  V30 2745 O 259.649 1.1554 -1.42815 0
M  V30 2746 C 259.711 -1.88146 -3.06335 0
M  V30 2747 C 259.375 -3.37476 -3.08154 0
M  V30 2748 C 260.372 -4.33443 -2.87094 0
M  V30 2749 C 258.057 -3.7895 -3.29701 0
M  V30 2750 C 260.051 -5.68858 -2.8754 0
M  V30 2751 C 257.738 -5.14482 -3.29776 0
M  V30 2752 C 258.736 -6.09246 -3.0872 0
M  V30 2753 O 258.424 -7.42302 -3.08615 0
M  V30 2754 H 258.156 -0.423898 -0.52658 0
M  V30 2755 H 260.71 -1.72703 -1.11188 0
M  V30 2756 H 258.94 -1.32157 -3.63416 0
M  V30 2757 H 260.629 -1.7391 -3.66756 0
M  V30 2758 H 261.395 -4.02733 -2.70243 0
M  V30 2759 H 257.274 -3.05631 -3.45124 0
M  V30 2760 H 260.818 -6.428 -2.71024 0
M  V30 2761 H 256.715 -5.44832 -3.46163 0
M  V30 2762 H 257.483 -7.5131 -3.24769 0
M  V30 2763 N 260.146 1.09593 -1.13257 0
M  V30 2764 C 261.392 1.82003 -0.89458 0
M  V30 2765 C 261.725 1.85402 0.577906 0
M  V30 2766 O 261 1.32099 1.42759 0
M  V30 2767 C 261.283 3.28237 -1.48096 0
M  V30 2768 C 261.136 3.3312 -3.02244 0
M  V30 2769 C 262.455 4.24871 -1.14774 0
M  V30 2770 H 259.574 0.66077 -0.326424 0
M  V30 2771 H 262.216 1.28389 -1.40058 0
M  V30 2772 H 260.366 3.74024 -1.05062 0
M  V30 2773 H 262.038 2.95748 -3.54021 0
M  V30 2774 H 260.281 2.72756 -3.37323 0
M  V30 2775 H 260.952 4.3613 -3.38371 0
M  V30 2776 H 263.428 3.87361 -1.51957 0
M  V30 2777 H 262.304 5.25532 -1.58452 0
M  V30 2778 H 262.565 4.42058 -0.0611849 0
M  V30 2779 N 261.624 0.925811 1.2754 0
M  V30 2780 C 263.035 0.610102 1.7645 0
M  V30 2781 C 263.386 -0.874723 1.75622 0
M  V30 2782 O 262.511 -1.68444 1.35851 0
M  V30 2783 C 263.106 1.10073 3.20421 0
M  V30 2784 C 261.665 0.835723 3.67005 0
M  V30 2785 C 260.812 1.26054 2.46993 0
M  V30 2786 H 263.763 1.10579 1.13833 0
M  V30 2787 H 263.784 0.447557 3.77859 0
M  V30 2788 H 263.296 2.18143 3.20991 0
M  V30 2789 H 261.397 -0.231249 3.71882 0
M  V30 2790 H 261.51 1.45193 4.56569 0
M  V30 2791 H 259.874 0.679111 2.45479 0
M  V30 2792 H 260.657 2.34984 2.50275 0
M  V30 2793 N 263.102 -1.41638 0.69111 0
M  V30 2794 C 264.049 -2.30789 0.0229705 0
M  V30 2795 C 265.019 -1.46863 -0.775911 0
M  V30 2796 O 266.204 -1.75661 -0.74485 0
M  V30 2797 C 263.344 -3.32868 -0.910666 0
M  V30 2798 C 262.457 -4.31875 -0.103874 0
M  V30 2799 C 261.592 -5.21024 -1.03475 0
M  V30 2800 C 260.631 -6.11702 -0.220598 0
M  V30 2801 N 259.768 -6.93349 -1.10504 0
M  V30 2802 H 264.608 -2.87366 0.788978 0
M  V30 2803 H 262.145 -1.41535 0.400794 0
M  V30 2804 H 264.103 -3.90596 -1.46597 0
M  V30 2805 H 262.733 -2.77851 -1.64312 0
M  V30 2806 H 261.785 -3.76131 0.568285 0
M  V30 2807 H 263.097 -4.96003 0.527504 0
M  V30 2808 H 262.251 -5.83565 -1.65943 0
M  V30 2809 H 260.99 -4.57112 -1.69999 0
M  V30 2810 H 259.995 -5.48215 0.417187 0
M  V30 2811 H 261.22 -6.77668 0.440784 0
M  V30 2812 H 259.166 -6.3205 -1.75638 0
M  V30 2813 H 259.083 -7.54146 -0.529125 0
M  V30 2814 H 260.351 -7.60362 -1.71667 0
M  V30 2815 N 264.58 -0.43555 -1.51462 0
M  V30 2816 C 265.51 0.367376 -2.30592 0
M  V30 2817 C 266.491 1.02263 -1.35928 0
M  V30 2818 O 267.676 1.02661 -1.64847 0
M  V30 2819 C 264.806 1.46983 -3.14664 0
M  V30 2820 C 263.76 0.938161 -4.17591 0
M  V30 2821 C 263.086 2.13622 -4.90173 0
M  V30 2822 C 264.386 -0.0261621 -5.22293 0
M  V30 2823 H 266.08 -0.292969 -2.97963 0
M  V30 2824 H 263.626 -0.14234 -1.43295 0
M  V30 2825 H 265.579 2.03873 -3.688 0
M  V30 2826 H 264.303 2.15843 -2.4511 0
M  V30 2827 H 262.962 0.391481 -3.64504 0
M  V30 2828 H 262.61 2.81098 -4.17124 0
M  V30 2829 H 262.31 1.78688 -5.59772 0
M  V30 2830 H 263.834 2.7107 -5.47132 0
M  V30 2831 H 265.248 0.452384 -5.71512 0
M  V30 2832 H 263.645 -0.287992 -5.99409 0
M  V30 2833 H 264.715 -0.963391 -4.75233 0
M  V30 2834 N 266.058 1.56714 -0.166846 0
M  V30 2835 C 267.288 2.00828 0.48494 0
M  V30 2836 C 267.696 1.04612 1.57648 0
M  V30 2837 O 267.039 0.0383201 1.8366 0
M  V30 2838 C 267.101 3.4137 1.12723 0
M  V30 2839 C 266.765 4.56654 0.177886 0
M  V30 2840 C 267.762 5.16402 -0.60207 0
M  V30 2841 C 265.447 5.02244 0.0750139 0
M  V30 2842 C 267.441 6.20167 -1.47215 0
M  V30 2843 C 265.128 6.05859 -0.798649 0
M  V30 2844 C 266.126 6.64691 -1.57082 0
M  V30 2845 O 265.814 7.66297 -2.42989 0
M  V30 2846 H 265.546 0.663587 0.128953 0
M  V30 2847 H 268.1 2.03692 -0.264365 0
M  V30 2848 H 266.33 3.35406 1.92457 0
M  V30 2849 H 268.019 3.69466 1.68076 0
M  V30 2850 H 268.785 4.82065 -0.53274 0
M  V30 2851 H 264.664 4.56167 0.665812 0
M  V30 2852 H 268.208 6.66016 -2.07531 0
M  V30 2853 H 264.105 6.39621 -0.869199 0
M  V30 2854 H 264.873 7.83601 -2.36455 0
M  V30 2855 N 267.536 -0.106894 1.57237 0
M  V30 2856 C 268.446 -1.14911 2.0453 0
M  V30 2857 C 269.462 -1.44592 0.96795 0
M  V30 2858 O 270.638 -1.55468 1.2803 0
M  V30 2859 C 267.703 -2.45272 2.45036 0
M  V30 2860 C 266.764 -2.22879 3.66911 0
M  V30 2861 C 265.997 -3.47024 4.05475 0
M  V30 2862 O 266.22 -4.54804 3.44252 0
M  V30 2863 O 265.154 -3.3731 4.98504 0
M  V30 2864 H 268.98 -0.777461 2.9358 0
M  V30 2865 H 266.565 -0.318563 1.45964 0
M  V30 2866 H 268.447 -3.22055 2.71769 0
M  V30 2867 H 267.122 -2.81886 1.59129 0
M  V30 2868 H 266.029 -1.43915 3.45311 0
M  V30 2869 H 267.362 -1.91163 4.53561 0
M  V30 2870 N 269.014 -1.53014 -0.377408 0
M  V30 2871 C 269.946 -1.74884 -1.48149 0
M  V30 2872 C 270.959 -0.629433 -1.5014 0
M  V30 2873 O 272.148 -0.905416 -1.53833 0
M  V30 2874 C 269.248 -1.80299 -2.86959 0
M  V30 2875 C 268.421 -3.09776 -3.08801 0
M  V30 2876 C 267.48 -3.06586 -4.27658 0
M  V30 2877 O 266.506 -3.80419 -4.23403 0
M  V30 2878 N 267.708 -2.26578 -5.34455 0
M  V30 2879 H 270.473 -2.70147 -1.29771 0
M  V30 2880 H 268.034 -1.51646 -0.56703 0
M  V30 2881 H 270.026 -1.75657 -3.64591 0
M  V30 2882 H 268.596 -0.92372 -2.98641 0
M  V30 2883 H 267.816 -3.27815 -2.18931 0
M  V30 2884 H 269.104 -3.95366 -3.20255 0
M  V30 2885 H 268.502 -1.66081 -5.40771 0
M  V30 2886 H 267.059 -2.27766 -6.10709 0
M  V30 2887 N 270.492 0.636531 -1.44174 0
M  V30 2888 C 271.422 1.76003 -1.53444 0
M  V30 2889 C 272.403 1.65619 -0.387841 0
M  V30 2890 O 273.588 1.84461 -0.607257 0
M  V30 2891 C 270.718 3.14511 -1.4731 0
M  V30 2892 C 269.672 3.39677 -2.60391 0
M  V30 2893 C 268.998 4.78159 -2.39308 0
M  V30 2894 C 270.298 3.32772 -4.02567 0
M  V30 2895 H 271.992 1.68501 -2.47483 0
M  V30 2896 H 269.538 0.809237 -1.19111 0
M  V30 2897 H 271.491 3.92878 -1.52397 0
M  V30 2898 H 270.215 3.22783 -0.49785 0
M  V30 2899 H 268.874 2.63688 -2.54684 0
M  V30 2900 H 268.522 4.83128 -1.39988 0
M  V30 2901 H 268.222 4.95956 -3.15122 0
M  V30 2902 H 269.746 5.58762 -2.46205 0
M  V30 2903 H 271.16 4.01051 -4.09672 0
M  V30 2904 H 269.557 3.62104 -4.7854 0
M  V30 2905 H 270.627 2.30669 -4.2652 0
M  V30 2906 N 271.97 1.30982 0.876444 0
M  V30 2907 C 273.195 1.23373 1.66715 0
M  V30 2908 C 273.62 -0.19885 1.87046 0
M  V30 2909 O 272.978 -1.1427 1.40756 0
M  V30 2910 C 273.026 1.97644 3.01611 0
M  V30 2911 O 272.13 1.30935 3.91062 0
M  V30 2912 H 271.471 0.426279 0.509099 0
M  V30 2913 H 274.001 1.72944 1.09323 0
M  V30 2914 H 274.011 2.06992 3.51594 0
M  V30 2915 H 272.686 3.01829 2.86133 0
M  V30 2916 H 271.263 1.29996 3.49507 0
M  V30 2917 N 273.449 -1.08991 1.13837 0
M  V30 2918 C 274.697 -1.80899 0.901098 0
M  V30 2919 C 275.018 -1.86356 -0.574134 0
M  V30 2920 O 274.288 -1.35235 -1.41733 0
M  V30 2921 H 272.868 -0.669966 0.330386 0
M  V30 2922 H 275.53 -1.318 1.43578 0
M  V30 2923 H 274.626 -2.83929 1.29578 0
M  V30 2924 N 274.927 -0.932562 -1.27047 0
M  V30 2925 C 275.874 -0.434072 -2.26681 0
M  V30 2926 C 276.844 0.501639 -1.58344 0
M  V30 2927 O 278.029 0.419734 -1.86126 0
M  V30 2928 C 275.169 0.30261 -3.43771 0
M  V30 2929 C 274.282 -0.667774 -4.26808 0
M  V30 2930 C 273.417 0.0892393 -5.31125 0
M  V30 2931 C 272.456 -0.873532 -6.05835 0
M  V30 2932 N 271.593 -0.148832 -7.01942 0
M  V30 2933 H 276.433 -1.28868 -2.68695 0
M  V30 2934 H 273.97 -0.646713 -1.32121 0
M  V30 2935 H 275.928 0.746092 -4.10474 0
M  V30 2936 H 274.558 1.12142 -3.02695 0
M  V30 2937 H 273.61 -1.22978 -3.59973 0
M  V30 2938 H 274.922 -1.40337 -4.78651 0
M  V30 2939 H 274.076 0.592409 -6.03801 0
M  V30 2940 H 272.815 0.85777 -4.80097 0
M  V30 2941 H 271.82 -1.38791 -5.31994 0
M  V30 2942 H 273.045 -1.64193 -6.58952 0
M  V30 2943 H 270.991 0.601365 -6.53238 0
M  V30 2944 H 270.908 -0.82391 -7.51497 0
M  V30 2945 H 272.176 0.333527 -7.78786 0
M  V30 2946 O 276.444 1.38103 -0.83724 0
M  V30 2947 H 277.135 1.88989 -0.424593 0
M  V30 END ATOM
M  V30 BEGIN BOND
M  V30 END BOND
M  V30 END CTAB
M  END
$$$$
