drugbank_target|P30101 Protein disulfide-isomerase A3 (DB01593; DB09130; DB14487; DB14533; DB14548)
 OpenBabel12092121063D

  0  0  0     0  0            999 V3000
M  V30 BEGIN CTAB
M  V30 COUNTS 7955 8042 0 0 0
M  V30 BEGIN ATOM
M  V30 1 H -0.908 1.98254 -0.117106 0
M  V30 2 N 0 1.576 0 0
M  V30 3 C 0.933 2.03868 1.02534 0
M  V30 4 C 1.911 0.928543 1.3348 0
M  V30 5 O 3.095 1.19667 1.45644 0
M  V30 6 C 0.222 2.43627 2.35294 0
M  V30 7 C -0.732 3.65373 2.2001 0
M  V30 8 S 0.101 5.13292 1.52614 0
M  V30 9 C 1.257 5.56322 2.86805 0
M  V30 10 H 1.49 2.90518 0.631377 0
M  V30 11 H -0.977 1.52953 0.210867 0
M  V30 12 H 0.981 2.67203 3.11629 0
M  V30 13 H -0.358 1.57376 2.7183 0
M  V30 14 H -1.165 3.90944 3.18086 0
M  V30 15 H -1.563 3.418 1.51819 0
M  V30 16 H 0.729 5.58782 3.83104 0
M  V30 17 H 1.672 6.56266 2.65933 0
M  V30 18 H 2.08 4.83886 2.90714 0
M  V30 19 N 1.4781 -0.272755 1.55222 0
M  V30 20 C 2.8941 -0.619959 1.47067 0
M  V30 21 C 3.0941 -1.895 0.684978 0
M  V30 22 O 2.1501 -2.51675 0.203931 0
M  V30 23 C 3.4631 -0.746693 2.91282 0
M  V30 24 C 5.0111 -0.840731 3.01497 0
M  V30 25 C 5.4861 -0.99924 4.46967 0
M  V30 26 N 6.9771 -1.06476 4.50796 0
M  V30 27 C 7.7121 -1.20621 5.6057 0
M  V30 28 N 7.2081 -1.31483 6.80209 0
M  V30 29 N 9.0011 -1.23733 5.48312 0
M  V30 30 H 1.1521 0.564606 2.04758 0
M  V30 31 H 3.4151 0.191177 0.928523 0
M  V30 32 H 3.1211 0.119753 3.51496 0
M  V30 33 H 2.9951 -1.6269 3.40311 0
M  V30 34 H 5.3821 -1.69764 2.41379 0
M  V30 35 H 5.4631 0.0640874 2.5572 0
M  V30 36 H 5.1071 -0.146984 5.07687 0
M  V30 37 H 5.0371 -1.91871 4.90401 0
M  V30 38 H 7.5281 -0.993196 3.64615 0
M  V30 39 H 7.8411 -1.42111 7.59621 0
M  V30 40 H 6.1861 -1.28487 6.8302 0
M  V30 41 H 9.3771 -1.14877 4.53785 0
M  V30 42 H 9.5501 -1.34412 6.33906 0
M  V30 43 N 2.9562 -1.48159 -0.537278 0
M  V30 44 C 3.8862 -1.65029 -1.6519 0
M  V30 45 C 4.8672 -0.499281 -1.62607 0
M  V30 46 O 6.0522 -0.730972 -1.79918 0
M  V30 47 C 3.1822 -1.68303 -3.03795 0
M  V30 48 C 2.1362 -2.8283 -3.21234 0
M  V30 49 C 1.4622 -2.71189 -4.60826 0
M  V30 50 C 2.7622 -4.24211 -3.04701 0
M  V30 51 H 4.4562 -2.58341 -1.51328 0
M  V30 52 H 2.0022 -1.24325 -0.726585 0
M  V30 53 H 3.9552 -1.78693 -3.81637 0
M  V30 54 H 2.6792 -0.715635 -3.18663 0
M  V30 55 H 1.3382 -2.71983 -2.45807 0
M  V30 56 H 0.9862 -1.72435 -4.7252 0
M  V30 57 H 0.6862 -3.48035 -4.7344 0
M  V30 58 H 2.2102 -2.83537 -5.40777 0
M  V30 59 H 3.6242 -4.3593 -3.72341 0
M  V30 60 H 2.0212 -5.01998 -3.28813 0
M  V30 61 H 3.0912 -4.41184 -2.01209 0
M  V30 62 N 4.4343 0.785586 -1.36625 0
M  V30 63 C 5.8503 1.08419 -1.17122 0
M  V30 64 C 6.0503 2.015 0.00208491 0
M  V30 65 O 5.1063 2.43551 0.666278 0
M  V30 66 C 6.4193 1.69498 -2.48377 0
M  V30 67 C 7.9673 1.81821 -2.54775 0
M  V30 68 C 8.4423 2.46315 -3.86126 0
M  V30 69 N 9.9333 2.53779 -3.87492 0
M  V30 70 C 10.6683 3.045 -4.85868 0
M  V30 71 N 10.1643 3.55499 -5.94637 0
M  V30 72 N 11.9573 3.03247 -4.73284 0
M  V30 73 H 4.1083 0.167264 -2.1174 0
M  V30 74 H 6.3713 0.13682 -0.938075 0
M  V30 75 H 6.0773 1.08571 -3.34522 0
M  V30 76 H 5.9513 2.6896 -2.64462 0
M  V30 77 H 8.3383 2.41884 -1.69045 0
M  V30 78 H 8.4193 0.811532 -2.42586 0
M  V30 79 H 8.0633 1.86895 -4.72263 0
M  V30 80 H 7.9933 3.47561 -3.95612 0
M  V30 81 H 10.4843 2.17672 -3.08913 0
M  V30 82 H 10.7973 3.92562 -6.65669 0
M  V30 83 H 9.1423 3.5364 -5.98301 0
M  V30 84 H 12.3333 2.62696 -3.87438 0
M  V30 85 H 12.5063 3.42467 -5.50109 0
M  V30 86 N 5.9124 1.20967 1.01018 0
M  V30 87 C 7.3284 0.965905 1.27053 0
M  V30 88 C 7.5284 -0.350785 1.98423 0
M  V30 89 O 6.5844 -1.07773 2.28344 0
M  V30 90 C 7.8974 2.15294 2.09926 0
M  V30 91 C 9.4454 2.19463 2.23171 0
M  V30 92 C 9.9204 3.3767 3.09424 0
M  V30 93 N 11.4114 3.37724 3.17012 0
M  V30 94 C 12.1464 4.25837 3.83993 0
M  V30 95 N 11.6424 5.24138 4.53047 0
M  V30 96 N 13.4354 4.1366 3.80581 0
M  V30 97 H 5.5864 2.0565 0.531194 0
M  V30 98 H 7.8494 0.90024 0.297106 0
M  V30 99 H 7.5554 3.10684 1.64828 0
M  V30 100 H 7.4294 2.13923 3.10672 0
M  V30 101 H 9.8164 1.24632 2.6749 0
M  V30 102 H 9.8974 2.2488 1.21912 0
M  V30 103 H 9.5414 4.32791 2.65808 0
M  V30 104 H 9.4714 3.29491 4.10784 0
M  V30 105 H 11.9624 2.6658 2.6785 0
M  V30 106 H 12.2754 5.87684 5.01844 0
M  V30 107 H 10.6204 5.28068 4.5185 0
M  V30 108 H 13.8114 3.36127 3.25785 0
M  V30 109 H 13.9844 4.82538 4.32505 0
M  V30 110 N 7.3905 -1.2043 1.01659 0
M  V30 111 C 8.3205 -2.25466 0.607226 0
M  V30 112 C 9.3015 -1.65853 -0.377716 0
M  V30 113 O 10.4865 -1.92409 -0.263149 0
M  V30 114 C 7.6165 -3.47256 -0.0552949 0
M  V30 115 C 6.5705 -4.19462 0.850632 0
M  V30 116 C 5.8965 -5.34673 0.0538859 0
M  V30 117 C 7.1965 -4.75603 2.15868 0
M  V30 118 H 8.8905 -2.59962 1.48526 0
M  V30 119 H 6.4365 -1.2496 0.715605 0
M  V30 120 H 8.3895 -4.19917 -0.353233 0
M  V30 121 H 7.1135 -3.11924 -0.968045 0
M  V30 122 H 5.7725 -3.48667 1.13257 0
M  V30 123 H 5.4205 -4.95585 -0.860514 0
M  V30 124 H 5.1205 -5.83913 0.657192 0
M  V30 125 H 6.6445 -6.10138 -0.237598 0
M  V30 126 H 8.0585 -5.40083 1.92311 0
M  V30 127 H 6.4555 -5.3528 2.71284 0
M  V30 128 H 7.5255 -3.94346 2.82169 0
M  V30 129 N 8.8686 -0.792821 -1.36206 0
M  V30 130 C 9.8316 -0.199459 -2.2833 0
M  V30 131 C 10.8316 0.605189 -1.48977 0
M  V30 132 O 12.0216 0.425685 -1.68919 0
M  V30 133 C 9.1536 0.723523 -3.33134 0
M  V30 134 H 10.3466 -1.01181 -2.82316 0
M  V30 135 H 7.8996 -0.562485 -1.45828 0
M  V30 136 H 8.6346 1.56008 -2.84309 0
M  V30 137 H 8.4196 0.148436 -3.91819 0
M  V30 138 H 9.9096 1.13344 -4.01924 0
M  V30 139 N 10.3467 1.47872 -0.545128 0
M  V30 140 C 11.2767 2.32661 0.197793 0
M  V30 141 C 12.2577 1.43041 0.920504 0
M  V30 142 O 13.4427 1.71912 0.90333 0
M  V30 143 C 10.5727 3.24569 1.23582 0
M  V30 144 C 9.5267 4.23333 0.630323 0
M  V30 145 C 8.8527 5.0448 1.77211 0
M  V30 146 C 10.1527 5.20704 -0.407974 0
M  V30 147 H 11.8467 2.95024 -0.510045 0
M  V30 148 H 9.3927 1.4187 -0.246731 0
M  V30 149 H 11.3457 3.8272 1.76362 0
M  V30 150 H 10.0697 2.60236 1.97344 0
M  V30 151 H 8.7287 3.6639 0.123922 0
M  V30 152 H 8.3767 4.36561 2.49847 0
M  V30 153 H 8.0767 5.71339 1.37281 0
M  V30 154 H 9.6007 5.65487 2.3034 0
M  V30 155 H 11.0147 5.7329 0.033305 0
M  V30 156 H 9.4117 5.95699 -0.725486 0
M  V30 157 H 10.4817 4.66917 -1.30828 0
M  V30 158 N 11.8248 0.280983 1.55075 0
M  V30 159 C 13.0718 -0.334115 1.99725 0
M  V30 160 C 13.3998 -1.5542 1.1694 0
M  V30 161 O 12.6548 -1.94361 0.228531 0
M  V30 162 C 12.9538 -0.754656 3.49342 0
M  V30 163 C 12.6198 0.361445 4.49449 0
M  V30 164 C 11.2818 0.667893 4.76542 0
M  V30 165 C 13.6338 1.11322 5.09173 0
M  V30 166 C 10.9618 1.7296 5.60626 0
M  V30 167 C 13.3138 2.1647 5.9441 0
M  V30 168 C 11.9778 2.47742 6.19822 0
M  V30 169 H 11.2478 -0.122261 0.730844 0
M  V30 170 H 13.8948 0.395917 1.87363 0
M  V30 171 H 12.1998 -1.56446 3.5921 0
M  V30 172 H 13.8968 -1.24142 3.813 0
M  V30 173 H 10.4868 0.112481 4.28452 0
M  V30 174 H 14.6708 0.88973 4.8826 0
M  V30 175 H 9.9268 1.97684 5.78559 0
M  V30 176 H 14.1008 2.75193 6.3972 0
M  V30 177 H 11.7278 3.30145 6.84769 0
M  V30 178 N 13.3029 -1.57598 0.00835791 0
M  V30 179 C 14.7139 -1.7892 -0.53333 0
M  V30 180 C 15.0649 -0.916609 -1.73473 0
M  V30 181 O 14.1899 -0.121336 -2.1606 0
M  V30 182 C 14.7849 -3.24488 -0.974313 0
M  V30 183 C 13.3439 -3.46878 -1.46125 0
M  V30 184 C 12.4909 -2.74157 -0.416302 0
M  V30 185 H 15.4419 -1.56958 0.234495 0
M  V30 186 H 15.4629 -3.3306 -1.83988 0
M  V30 187 H 14.9749 -3.87972 -0.099718 0
M  V30 188 H 13.0759 -2.8862 -2.35646 0
M  V30 189 H 13.1889 -4.55572 -1.48295 0
M  V30 190 H 11.5529 -2.39022 -0.87981 0
M  V30 191 H 12.3359 -3.40345 0.44947 0
M  V30 192 N 14.781 0.264519 -1.55364 0
M  V30 193 C 16.029 0.993021 -1.76021 0
M  V30 194 C 16.35 1.86511 -0.569099 0
M  V30 195 O 15.62 1.91438 0.415735 0
M  V30 196 H 14.2 0.369639 -0.649135 0
M  V30 197 H 16.862 0.286707 -1.9278 0
M  V30 198 H 15.958 1.62502 -2.66457 0
M  V30 199 N 16.2591 1.48442 0.529413 0
M  V30 200 C 17.5051 1.5672 1.28711 0
M  V30 201 C 17.8381 0.2406 1.92704 0
M  V30 202 O 17.1131 -0.753454 1.79313 0
M  V30 203 C 17.3961 2.70587 2.37603 0
M  V30 204 C 17.2491 4.12953 1.78297 0
M  V30 205 C 18.5681 2.80212 3.39366 0
M  V30 206 H 15.6871 0.570474 0.466613 0
M  V30 207 H 18.3291 1.80617 0.589706 0
M  V30 208 H 16.4791 2.50342 2.97088 0
M  V30 209 H 18.1511 4.44639 1.22858 0
M  V30 210 H 16.3941 4.19927 1.0883 0
M  V30 211 H 17.0651 4.88448 2.57144 0
M  V30 212 H 19.5411 2.98553 2.89836 0
M  V30 213 H 18.4171 3.61611 4.12951 0
M  V30 214 H 18.6781 1.88393 3.99951 0
M  V30 215 N 17.7372 -0.778329 1.37039 0
M  V30 216 C 18.7002 -1.87301 1.32102 0
M  V30 217 C 19.7002 -1.59198 0.226405 0
M  V30 218 O 20.8902 -1.67403 0.481861 0
M  V30 219 C 18.0222 -3.24309 1.05055 0
M  V30 220 H 19.2152 -1.93093 2.29467 0
M  V30 221 H 16.7682 -0.977358 1.21973 0
M  V30 222 H 17.5032 -3.24196 0.0819373 0
M  V30 223 H 17.2882 -3.46098 1.84279 0
M  V30 224 H 18.7782 -4.04382 1.04234 0
M  V30 225 N 19.2153 -1.21501 -1.00376 0
M  V30 226 C 20.1453 -0.999478 -2.11028 0
M  V30 227 C 21.1263 0.0759671 -1.6993 0
M  V30 228 O 22.3113 -0.0841106 -1.94018 0
M  V30 229 C 19.4413 -0.564709 -3.42678 0
M  V30 230 C 18.3953 -1.58486 -3.97576 0
M  V30 231 C 17.7213 -1.00628 -5.25146 0
M  V30 232 C 19.0213 -2.97204 -4.29496 0
M  V30 233 H 20.7153 -1.92495 -2.29317 0
M  V30 234 H 18.2613 -0.92693 -1.102 0
M  V30 235 H 20.2143 -0.401091 -4.19487 0
M  V30 236 H 18.9383 0.396411 -3.24185 0
M  V30 237 H 17.5973 -1.73606 -3.22888 0
M  V30 238 H 17.2453 -0.0368439 -5.02987 0
M  V30 239 H 16.9453 -1.68771 -5.62841 0
M  V30 240 H 18.4693 -0.854015 -6.04598 0
M  V30 241 H 19.8833 -2.8552 -4.97143 0
M  V30 242 H 18.2803 -3.62372 -4.78338 0
M  V30 243 H 19.3503 -3.47956 -3.3772 0
M  V30 244 N 20.6934 1.19889 -1.02296 0
M  V30 245 C 21.6234 2.25141 -0.619174 0
M  V30 246 C 22.6044 1.66051 0.368915 0
M  V30 247 O 23.7894 1.92546 0.252941 0
M  V30 248 C 20.9194 3.4728 0.0368783 0
M  V30 249 C 19.8734 4.19005 -0.872865 0
M  V30 250 C 19.1994 5.34637 -0.0822402 0
M  V30 251 C 20.4994 4.74452 -2.18387 0
M  V30 252 H 22.1934 2.59171 -1.49903 0
M  V30 253 H 19.7394 1.24579 -0.722222 0
M  V30 254 H 21.6924 4.20098 0.330958 0
M  V30 255 H 20.4164 3.12433 0.95149 0
M  V30 256 H 19.0754 3.48061 -1.15105 0
M  V30 257 H 18.7234 4.96034 0.83422 0
M  V30 258 H 18.4234 5.83557 -0.688149 0
M  V30 259 H 19.9474 6.10255 0.205238 0
M  V30 260 H 21.3614 5.39055 -1.95172 0
M  V30 261 H 19.7584 5.33834 -2.74119 0
M  V30 262 H 20.8284 3.92844 -2.84257 0
M  V30 263 N 22.1715 0.800033 1.35784 0
M  V30 264 C 23.1015 0.220184 2.3246 0
M  V30 265 C 24.0825 -0.65073 1.57161 0
M  V30 266 O 25.2675 -0.582359 1.85263 0
M  V30 267 C 22.3975 -0.637353 3.41402 0
M  V30 268 C 21.3515 0.134531 4.27789 0
M  V30 269 C 20.6775 -0.844285 5.27992 0
M  V30 270 C 21.9775 1.32979 5.05088 0
M  V30 271 H 23.6715 1.02787 2.81203 0
M  V30 272 H 21.2175 0.495717 1.35199 0
M  V30 273 H 23.1705 -1.05302 4.08031 0
M  V30 274 H 21.8945 -1.47785 2.91251 0
M  V30 275 H 20.5535 0.531296 3.6273 0
M  V30 276 H 20.2015 -1.68011 4.74111 0
M  V30 277 H 19.9015 -0.332184 5.8666 0
M  V30 278 H 21.4255 -1.2583 5.97494 0
M  V30 279 H 22.8395 0.98934 5.64699 0
M  V30 280 H 21.2365 1.77593 5.7322 0
M  V30 281 H 22.3065 2.11978 4.36111 0
M  V30 282 N 23.6496 -1.47581 0.552962 0
M  V30 283 C 24.6126 -2.28439 -0.186605 0
M  V30 284 C 25.6126 -1.36706 -0.84665 0
M  V30 285 O 26.8026 -1.59378 -0.703164 0
M  V30 286 C 23.9346 -3.16264 -1.2724 0
M  V30 287 H 25.1276 -2.95294 0.523609 0
M  V30 288 H 22.6806 -1.532 0.309745 0
M  V30 289 H 23.4156 -2.54091 -2.01514 0
M  V30 290 H 23.2006 -3.83769 -0.803968 0
M  V30 291 H 24.6906 -3.77198 -1.79196 0
M  V30 292 N 25.1277 -0.289203 -1.54924 0
M  V30 293 C 26.0907 0.579144 -2.21762 0
M  V30 294 C 27.0907 1.07047 -1.1999 0
M  V30 295 O 28.2807 0.968384 -1.44803 0
M  V30 296 C 25.4127 1.80055 -2.8947 0
M  V30 297 H 26.6057 -0.00464908 -2.999 0
M  V30 298 H 24.1587 -0.0399306 -1.56249 0
M  V30 299 H 24.8937 2.42449 -2.15381 0
M  V30 300 H 24.6787 1.45602 -3.64064 0
M  V30 301 H 26.1687 2.41773 -3.40493 0
M  V30 302 N 26.6058 1.57591 -0.0167156 0
M  V30 303 C 27.5688 2.08393 0.954204 0
M  V30 304 C 28.5688 0.996531 1.26198 0
M  V30 305 O 29.7588 1.25858 1.20438 0
M  V30 306 C 26.8908 2.5394 2.27436 0
M  V30 307 H 28.0838 2.95455 0.514451 0
M  V30 308 H 25.6368 1.54582 0.231089 0
M  V30 309 H 26.3718 1.70171 2.76066 0
M  V30 310 H 26.1568 3.33371 2.06412 0
M  V30 311 H 27.6468 2.93512 2.97053 0
M  V30 312 N 28.0839 -0.256276 1.55502 0
M  V30 313 C 29.4999 -0.604325 1.47716 0
M  V30 314 C 29.6999 -1.88763 0.705039 0
M  V30 315 O 28.7559 -2.51445 0.230613 0
M  V30 316 C 30.0689 -0.715756 2.92057 0
M  V30 317 C 31.6169 -0.808706 3.02372 0
M  V30 318 C 32.0919 -0.951777 4.48001 0
M  V30 319 N 33.5829 -1.01688 4.519 0
M  V30 320 C 34.3179 -1.14668 5.61817 0
M  V30 321 N 33.8139 -1.24261 6.81565 0
M  V30 322 N 35.6069 -1.1791 5.49594 0
M  V30 323 H 27.7579 0.586291 2.04148 0
M  V30 324 H 30.0209 0.201015 0.926443 0
M  V30 325 H 29.7269 0.157027 3.51349 0
M  V30 326 H 29.6009 -1.59071 3.42018 0
M  V30 327 H 31.9879 -1.67195 2.43166 0
M  V30 328 H 32.0689 0.0912063 2.55637 0
M  V30 329 H 31.7129 -0.0931291 5.07815 0
M  V30 330 H 31.6429 -1.86659 4.92408 0
M  V30 331 H 34.1339 -0.954468 3.65648 0
M  V30 332 H 34.4469 -1.34046 7.61086 0
M  V30 333 H 32.7919 -1.21236 6.84344 0
M  V30 334 H 35.9829 -1.10057 4.54978 0
M  V30 335 H 36.1559 -1.27681 6.35296 0
M  V30 336 N 29.562 -1.4872 -0.521534 0
M  V30 337 C 30.492 -1.66771 -1.63431 0
M  V30 338 C 31.473 -0.516499 -1.62069 0
M  V30 339 O 32.658 -0.750013 -1.79132 0
M  V30 340 C 29.788 -1.71515 -3.01993 0
M  V30 341 C 28.742 -2.86222 -3.18216 0
M  V30 342 C 28.068 -2.76061 -4.57924 0
M  V30 343 C 29.368 -4.27419 -3.00184 0
M  V30 344 H 31.062 -2.59932 -1.48579 0
M  V30 345 H 28.608 -1.25089 -0.713358 0
M  V30 346 H 30.561 -1.82731 -3.7972 0
M  V30 347 H 29.285 -0.749393 -3.17886 0
M  V30 348 H 27.944 -2.74575 -2.42908 0
M  V30 349 H 27.592 -1.77437 -4.70665 0
M  V30 350 H 27.292 -3.53037 -4.69722 0
M  V30 351 H 28.816 -2.89256 -5.37739 0
M  V30 352 H 30.23 -4.39855 -3.67697 0
M  V30 353 H 28.627 -5.05458 -3.2347 0
M  V30 354 H 29.697 -4.43293 -1.96518 0
M  V30 355 N 31.0401 0.771051 -1.3745 0
M  V30 356 C 32.0031 1.86598 -1.33093 0
M  V30 357 C 33.0031 1.59076 -0.234845 0
M  V30 358 O 34.1931 1.67145 -0.490732 0
M  V30 359 C 31.3251 3.23747 -1.06773 0
M  V30 360 H 32.5181 1.91873 -2.30488 0
M  V30 361 H 30.0711 0.970876 -1.2249 0
M  V30 362 H 30.8061 3.24148 -0.099129 0
M  V30 363 H 30.5911 3.45115 -1.86112 0
M  V30 364 H 32.0811 4.03824 -1.06377 0
M  V30 365 N 32.5182 1.22032 0.997298 0
M  V30 366 C 33.4812 0.987909 2.06816 0
M  V30 367 C 34.4812 -0.0440084 1.6074 0
M  V30 368 O 35.6712 0.194053 1.73116 0
M  V30 369 C 32.8032 0.49132 3.37341 0
M  V30 370 H 33.9962 1.93803 2.28868 0
M  V30 371 H 31.5492 1.03838 1.16822 0
M  V30 372 H 32.2842 -0.463364 3.20973 0
M  V30 373 H 32.0692 1.23575 3.72118 0
M  V30 374 H 33.5592 0.348824 4.16141 0
M  V30 375 N 33.9963 -1.19345 1.0293 0
M  V30 376 C 34.9593 -2.20793 0.615069 0
M  V30 377 C 35.9593 -1.57553 -0.321533 0
M  V30 378 O 37.1493 -1.73862 -0.108483 0
M  V30 379 C 34.2813 -3.40754 -0.0999222 0
M  V30 380 H 35.4743 -2.58955 1.51269 0
M  V30 381 H 33.0273 -1.3303 0.820534 0
M  V30 382 H 33.7623 -3.0811 -1.01187 0
M  V30 383 H 33.5473 -3.87889 0.57309 0
M  V30 384 H 35.0373 -4.15898 -0.376645 0
M  V30 385 N 35.4744 -0.807222 -1.35358 0
M  V30 386 C 36.6994 -0.399309 -2.0352 0
M  V30 387 C 37.1244 0.981986 -1.60433 0
M  V30 388 O 36.4824 1.63601 -0.781299 0
M  V30 389 C 36.5304 -0.491552 -3.57234 0
M  V30 390 O 35.6344 0.494754 -4.09421 0
M  V30 391 H 34.9754 -0.166682 -0.642739 0
M  V30 392 H 37.5054 -1.09328 -1.72941 0
M  V30 393 H 37.5154 -0.361588 -4.06395 0
M  V30 394 H 36.1904 -1.49907 -3.87944 0
M  V30 395 H 34.7674 0.324977 -3.71481 0
M  V30 396 N 36.9525 1.47285 -0.560781 0
M  V30 397 C 38.2295 1.9558 0.0277798 0
M  V30 398 C 38.6095 1.5034 1.48192 0
M  V30 399 O 37.9575 0.743882 2.16052 0
M  V30 400 C 38.1675 3.48789 -0.121418 0
M  V30 401 C 39.5155 4.24594 0.0220912 0
M  V30 402 O 40.5395 3.56166 -0.0491439 0
M  V30 403 O 39.3985 5.46217 0.175958 0
M  V30 404 H 36.4925 0.824663 0.0621342 0
M  V30 405 H 39.0385 1.5767 -0.627556 0
M  V30 406 H 37.8105 3.74533 -1.13316 0
M  V30 407 H 37.4335 3.93473 0.571366 0
M  V30 408 N 38.4306 0.297415 1.54768 0
M  V30 409 C 39.6766 -0.313376 2.00364 0
M  V30 410 C 40.0096 -1.53815 1.18553 0
M  V30 411 O 39.2846 -1.92739 0.261103 0
M  V30 412 C 39.5676 -0.673525 3.53745 0
M  V30 413 C 39.4206 0.560133 4.46299 0
M  V30 414 C 40.7396 -1.50143 4.13697 0
M  V30 415 H 37.8586 -0.112428 0.728374 0
M  V30 416 H 40.5006 0.4088 1.8555 0
M  V30 417 H 38.6506 -1.28881 3.665 0
M  V30 418 H 40.3226 1.19863 4.45455 0
M  V30 419 H 38.5656 1.19405 4.17043 0
M  V30 420 H 39.2366 0.26405 5.51368 0
M  V30 421 H 41.7126 -0.981588 4.04356 0
M  V30 422 H 40.5886 -1.72221 5.21182 0
M  V30 423 H 40.8496 -2.48952 3.65343 0
M  V30 424 N 39.9087 -1.5758 0.0250728 0
M  V30 425 C 40.8387 -2.13007 -0.956575 0
M  V30 426 C 41.8197 -1.0452 -1.342 0
M  V30 427 O 43.0047 -1.32332 -1.42133 0
M  V30 428 C 40.1347 -2.65386 -2.24026 0
M  V30 429 C 39.0887 -3.78623 -1.99571 0
M  V30 430 C 38.4147 -4.17414 -3.3417 0
M  V30 431 C 39.7147 -5.04867 -1.33814 0
M  V30 432 H 41.4087 -2.9528 -0.494991 0
M  V30 433 H 38.9547 -1.42042 -0.236651 0
M  V30 434 H 40.9077 -3.02794 -2.93076 0
M  V30 435 H 39.6317 -1.80268 -2.72343 0
M  V30 436 H 38.2907 -3.41646 -1.32941 0
M  V30 437 H 37.9387 -3.29284 -3.80238 0
M  V30 438 H 37.6387 -4.93719 -3.18615 0
M  V30 439 H 39.1627 -4.57402 -4.04495 0
M  V30 440 H 40.5767 -5.39888 -1.92857 0
M  V30 441 H 38.9737 -5.86144 -1.28669 0
M  V30 442 H 40.0437 -4.83904 -0.310561 0
M  V30 443 N 41.3868 0.248026 -1.55636 0
M  V30 444 C 42.2968 1.32859 -1.93354 0
M  V30 445 C 43.3128 1.52719 -0.833838 0
M  V30 446 O 44.4888 1.66363 -1.13513 0
M  V30 447 C 41.5538 2.66337 -2.21958 0
M  V30 448 C 40.6148 2.55008 -3.45354 0
M  V30 449 C 39.8478 3.82121 -3.72584 0
M  V30 450 O 40.0708 4.83951 -3.01907 0
M  V30 451 O 39.0048 3.80822 -4.6611 0
M  V30 452 H 42.8308 1.03862 -2.85388 0
M  V30 453 H 40.4158 0.448686 -1.42503 0
M  V30 454 H 42.2978 3.45216 -2.4167 0
M  V30 455 H 40.9728 2.95068 -1.33103 0
M  V30 456 H 39.8798 1.7442 -3.30951 0
M  V30 457 H 41.2128 2.31222 -4.34508 0
M  V30 458 N 42.8649 1.48995 0.513639 0
M  V30 459 C 43.7949 1.67636 1.62544 0
M  V30 460 C 44.7759 0.525087 1.61793 0
M  V30 461 O 45.9609 0.759502 1.78732 0
M  V30 462 C 43.0909 1.73114 3.01079 0
M  V30 463 C 42.0449 2.87905 3.16693 0
M  V30 464 C 41.3709 2.78486 4.56453 0
M  V30 465 C 42.6709 4.29005 2.97913 0
M  V30 466 H 44.3649 2.60716 1.47198 0
M  V30 467 H 41.9109 1.25465 0.706714 0
M  V30 468 H 43.8639 1.84742 3.78746 0
M  V30 469 H 42.5879 0.766241 3.17484 0
M  V30 470 H 41.2469 2.75859 2.41448 0
M  V30 471 H 40.8949 1.7993 4.69717 0
M  V30 472 H 40.5949 3.55523 4.67843 0
M  V30 473 H 42.1189 2.92104 5.36197 0
M  V30 474 H 43.5329 4.41798 3.65359 0
M  V30 475 H 41.9299 5.07166 3.20785 0
M  V30 476 H 42.9999 4.44329 1.94165 0
M  V30 477 N 44.343 -0.763751 1.37857 0
M  V30 478 C 45.571 -1.55293 1.36718 0
M  V30 479 C 45.986 -1.88745 -0.0455434 0
M  V30 480 O 45.343 -1.52039 -1.00947 0
M  V30 481 C 45.394 -2.85831 2.2132 0
M  V30 482 O 45.115 -2.5381 3.57089 0
M  V30 483 C 46.616 -3.80023 2.28249 0
M  V30 484 H 43.836 -0.480841 0.468009 0
M  V30 485 H 46.38 -0.946009 1.81303 0
M  V30 486 H 44.535 -3.42926 1.80223 0
M  V30 487 H 44.949 -3.37459 4.01524 0
M  V30 488 H 46.423 -4.68599 2.91752 0
M  V30 489 H 46.9 -4.1973 1.2932 0
M  V30 490 H 47.506 -3.28855 2.69693 0
M  V30 491 N 45.8211 -1.22559 -0.990812 0
M  V30 492 C 47.0981 -0.959875 -1.70428 0
M  V30 493 C 47.4781 0.524455 -2.04481 0
M  V30 494 O 46.8261 1.49302 -1.72977 0
M  V30 495 C 47.0361 -1.85955 -2.95333 0
M  V30 496 C 48.3841 -2.11687 -3.68068 0
M  V30 497 O 49.4081 -1.8342 -3.05345 0
M  V30 498 O 48.2671 -2.59572 -4.80921 0
M  V30 499 H 45.3611 -0.361154 -0.743974 0
M  V30 500 H 47.9071 -1.33554 -1.04697 0
M  V30 501 H 46.6791 -2.86346 -2.66687 0
M  V30 502 H 46.3021 -1.4856 -3.68803 0
M  V30 503 N 47.2992 1.18797 -1.03562 0
M  V30 504 C 48.5762 1.84469 -0.650434 0
M  V30 505 C 48.9562 1.92319 0.870433 0
M  V30 506 O 48.3042 1.44528 1.76986 0
M  V30 507 C 48.5142 3.2306 -1.32036 0
M  V30 508 C 49.8622 3.9915 -1.44792 0
M  V30 509 O 50.8862 3.32481 -1.27806 0
M  V30 510 O 49.7452 5.18587 -1.72423 0
M  V30 511 H 46.8392 0.795251 -0.226946 0
M  V30 512 H 49.3852 1.26231 -1.13419 0
M  V30 513 H 48.1572 3.1222 -2.3587 0
M  V30 514 H 47.7802 3.88949 -0.8249 0
M  V30 515 N 48.7773 0.814389 1.34928 0
M  V30 516 C 49.7253 0.218424 2.31572 0
M  V30 517 C 50.7193 -0.636128 1.57002 0
M  V30 518 O 51.9253 -0.52842 1.72069 0
M  V30 519 H 48.3003 0.0518799 0.750208 0
M  V30 520 H 50.2713 1.04852 2.79372 0
M  V30 521 C 49.0203 -0.61207 3.4227 0
M  V30 522 H 48.3433 0.0361578 3.99784 0
M  V30 523 H 49.7833 -0.995317 4.12152 0
M  V30 524 C 48.2423 -1.78087 2.85984 0
M  V30 525 O 48.7723 -2.8787 2.80168 0
M  V30 526 N 46.9783 -1.59488 2.42924 0
M  V30 527 H 46.5253 -0.701874 2.47854 0
M  V30 528 H 46.4833 -2.37846 2.05613 0
M  V30 529 N 50.2554 -1.46986 0.568584 0
M  V30 530 C 51.5024 -2.02441 0.0487986 0
M  V30 531 C 51.8304 -1.44169 -1.30559 0
M  V30 532 O 51.0854 -0.591213 -1.86556 0
M  V30 533 C 51.3844 -3.57306 -0.081836 0
M  V30 534 C 51.0504 -4.34552 1.20313 0
M  V30 535 C 49.7124 -4.55376 1.5552 0
M  V30 536 C 52.0644 -4.79016 2.05411 0
M  V30 537 C 49.3924 -5.17913 2.7565 0
M  V30 538 C 51.7444 -5.42879 3.24754 0
M  V30 539 C 50.4084 -5.61933 3.60261 0
M  V30 540 H 49.6784 -0.740785 0.0178567 0
M  V30 541 H 52.3254 -1.76525 0.742384 0
M  V30 542 H 50.6304 -3.8228 -0.858463 0
M  V30 543 H 52.3274 -3.97876 -0.499546 0
M  V30 544 H 48.9174 -4.18631 0.919014 0
M  V30 545 H 53.1014 -4.62696 1.79516 0
M  V30 546 H 48.3574 -5.30858 3.03315 0
M  V30 547 H 52.5314 -5.76293 3.90973 0
M  V30 548 H 50.1584 -6.10161 4.53439 0
M  V30 549 N 51.7335 -0.305618 -1.54608 0
M  V30 550 C 52.6435 0.57778 -2.27374 0
M  V30 551 C 53.6595 1.14451 -1.31061 0
M  V30 552 O 54.8355 1.16831 -1.6405 0
M  V30 553 C 51.9005 1.73123 -3.00382 0
M  V30 554 C 50.9615 1.19812 -4.12242 0
M  V30 555 C 50.1945 2.2966 -4.81759 0
M  V30 556 O 50.4175 3.49651 -4.50666 0
M  V30 557 O 49.3515 1.96091 -5.69062 0
M  V30 558 H 53.1775 -0.012624 -3.03697 0
M  V30 559 H 50.7625 -0.0719184 -1.49227 0
M  V30 560 H 52.6445 2.40315 -3.4616 0
M  V30 561 H 51.3195 2.30815 -2.26949 0
M  V30 562 H 50.2265 0.491798 -3.70853 0
M  V30 563 H 51.5595 0.666566 -4.87666 0
M  V30 564 N 53.2116 1.57565 -0.0334293 0
M  V30 565 C 54.4366 1.96689 0.657895 0
M  V30 566 C 54.8616 0.910057 1.64619 0
M  V30 567 O 54.2196 -0.128598 1.80843 0
M  V30 568 C 54.2676 3.34905 1.33683 0
M  V30 569 O 53.3716 3.31574 2.45219 0
M  V30 570 H 52.7126 0.641205 0.172489 0
M  V30 571 H 55.2426 2.04372 -0.0965621 0
M  V30 572 H 55.2526 3.71234 1.69262 0
M  V30 573 H 53.9276 4.11366 0.612411 0
M  V30 574 H 52.5046 3.06968 2.11719 0
M  V30 575 N 54.6897 -0.239769 1.55765 0
M  V30 576 C 56.1057 -0.588624 1.48349 0
M  V30 577 C 56.3057 -1.88005 0.72502 0
M  V30 578 O 55.3617 -2.51186 0.257269 0
M  V30 579 C 56.6747 -0.68474 2.928 0
M  V30 580 C 58.2227 -0.77659 3.03213 0
M  V30 581 C 58.6977 -0.904207 4.48986 0
M  V30 582 N 60.1887 -0.968896 4.52953 0
M  V30 583 C 60.9237 -1.08703 5.63002 0
M  V30 584 N 60.4197 -1.17026 6.82845 0
M  V30 585 N 62.2127 -1.12074 5.50814 0
M  V30 586 H 54.3637 0.607911 2.03515 0
M  V30 587 H 56.6267 0.21083 0.924259 0
M  V30 588 H 56.3327 0.194284 3.51163 0
M  V30 589 H 56.2067 -1.55435 3.43686 0
M  V30 590 H 58.5937 -1.64606 2.44926 0
M  V30 591 H 58.6747 0.118315 2.55526 0
M  V30 592 H 58.3187 -0.0392633 5.07885 0
M  V30 593 H 58.2487 -1.81426 4.9436 0
M  V30 594 H 60.7397 -0.915633 3.6664 0
M  V30 595 H 61.0527 -1.25966 7.62465 0
M  V30 596 H 59.3977 -1.13971 6.85591 0
M  V30 597 H 62.5887 -1.05226 4.5612 0
M  V30 598 H 62.7617 -1.20936 6.36615 0
M  V30 599 N 56.1678 -1.49265 -0.50573 0
M  V30 600 C 57.4168 -1.57761 -1.25675 0
M  V30 601 C 57.7298 -0.267371 -1.93764 0
M  V30 602 O 58.9358 -0.230827 -2.70517 0
M  V30 603 C 57.3918 -2.78332 -2.28165 0
M  V30 604 C 56.9998 -4.16096 -1.66037 0
M  V30 605 C 58.7438 -2.96155 -3.04125 0
M  V30 606 C 56.6508 -5.27895 -2.6661 0
M  V30 607 H 55.5808 -0.587391 -0.472745 0
M  V30 608 H 58.2318 -1.75644 -0.53118 0
M  V30 609 H 56.6138 -2.53934 -3.03865 0
M  V30 610 H 57.7878 -4.50612 -0.963622 0
M  V30 611 H 56.1028 -4.03591 -1.02484 0
M  V30 612 H 58.6998 -3.76849 -3.79327 0
M  V30 613 H 59.0428 -2.06534 -3.61455 0
M  V30 614 H 59.5758 -3.2057 -2.35541 0
M  V30 615 H 56.3148 -6.1956 -2.14068 0
M  V30 616 H 55.8348 -4.97839 -3.34539 0
M  V30 617 H 57.5138 -5.57031 -3.29129 0
M  V30 618 N 57.6459 0.756429 -1.3826 0
M  V30 619 C 58.8709 1.55077 -1.37717 0
M  V30 620 C 59.2959 1.88073 0.03164 0
M  V30 621 O 58.6539 1.50364 1.01293 0
M  V30 622 C 58.7019 2.8283 -2.23695 0
M  V30 623 O 57.8059 3.77862 -1.6521 0
M  V30 624 H 57.1469 0.469152 -0.469885 0
M  V30 625 H 59.6769 0.935019 -1.81985 0
M  V30 626 H 59.6869 3.31783 -2.37453 0
M  V30 627 H 58.3619 2.58144 -3.2609 0
M  V30 628 H 56.9389 3.36555 -1.60578 0
M  V30 629 N 59.124 1.23083 0.984299 0
M  V30 630 C 60.401 0.9689 1.69917 0
M  V30 631 C 60.781 -0.513604 2.04757 0
M  V30 632 O 60.129 -1.48383 1.73767 0
M  V30 633 C 60.339 1.87518 2.94343 0
M  V30 634 C 61.687 2.13636 3.6694 0
M  V30 635 O 62.711 1.85036 3.04368 0
M  V30 636 O 61.57 2.62119 4.79537 0
M  V30 637 H 58.664 0.365095 0.742048 0
M  V30 638 H 61.21 1.34107 1.03987 0
M  V30 639 H 59.982 2.87756 2.65164 0
M  V30 640 H 59.605 1.50514 3.6801 0
M  V30 641 N 60.6021 -1.18246 1.0419 0
M  V30 642 C 61.8301 -1.92195 0.766072 0
M  V30 643 C 62.2451 -1.76247 -0.676933 0
M  V30 644 O 61.6021 -1.09293 -1.46155 0
M  V30 645 C 61.6531 -3.43568 1.12442 0
M  V30 646 O 61.3741 -3.59015 2.51078 0
M  V30 647 C 62.8751 -4.34613 0.873275 0
M  V30 648 H 60.0951 -0.610114 0.279288 0
M  V30 649 H 62.6391 -1.50007 1.38989 0
M  V30 650 H 60.7941 -3.8354 0.545542 0
M  V30 651 H 61.2081 -4.5273 2.64831 0
M  V30 652 H 62.6821 -5.39374 1.17385 0
M  V30 653 H 63.1591 -4.38781 -0.191909 0
M  V30 654 H 63.7651 -4.00341 1.43551 0
M  V30 655 N 62.0802 -0.821533 -1.34494 0
M  V30 656 C 63.3282 -0.408139 -1.97936 0
M  V30 657 C 63.6492 1.03193 -1.65457 0
M  V30 658 O 62.9192 1.71622 -0.944595 0
M  V30 659 H 61.4992 -0.147928 -0.732206 0
M  V30 660 H 64.1612 -1.05067 -1.64155 0
M  V30 661 H 63.2572 -0.52601 -3.07635 0
M  V30 662 N 63.5583 1.46682 -0.576371 0
M  V30 663 C 64.7833 2.07304 -0.0630475 0
M  V30 664 C 65.2083 1.42329 1.2298 0
M  V30 665 O 64.5663 0.504865 1.74129 0
M  V30 666 C 64.6143 3.60472 0.095895 0
M  V30 667 O 63.7183 3.95927 1.15394 0
M  V30 668 H 63.0593 0.661288 -0.0599463 0
M  V30 669 H 65.5893 1.88417 -0.797511 0
M  V30 670 H 65.5993 4.06865 0.304071 0
M  V30 671 H 64.2743 4.07157 -0.84828 0
M  V30 672 H 62.8513 3.61252 0.924724 0
M  V30 673 N 65.0364 0.313813 1.54444 0
M  V30 674 C 65.9994 -0.54379 2.22656 0
M  V30 675 C 66.9994 -1.05124 1.21678 0
M  V30 676 O 68.1894 -0.945225 1.46325 0
M  V30 677 C 65.3214 -1.75427 2.92298 0
M  V30 678 H 66.5144 0.0523599 2.99854 0
M  V30 679 H 64.0674 0.0647834 1.56166 0
M  V30 680 H 64.8024 -2.38991 2.19211 0
M  V30 681 H 64.5874 -1.39791 3.66334 0
M  V30 682 H 66.0774 -2.36325 3.44297 0
M  V30 683 N 66.5145 -1.57545 0.0417849 0
M  V30 684 C 67.7625 -1.91937 -0.632829 0
M  V30 685 C 68.0835 -0.919978 -1.71934 0
M  V30 686 O 67.3535 0.0366064 -1.95866 0
M  V30 687 H 65.9335 -0.708493 -0.236742 0
M  V30 688 H 68.5955 -1.9468 0.0925745 0
M  V30 689 H 67.6915 -2.92912 -1.07746 0
M  V30 690 N 67.9926 0.231505 -1.5589 0
M  V30 691 C 68.9226 1.29022 -1.94617 0
M  V30 692 C 69.9036 1.4941 -0.813067 0
M  V30 693 O 71.0886 1.6176 -1.07459 0
M  V30 694 C 68.2186 2.64199 -2.25424 0
M  V30 695 C 67.1726 2.58484 -3.41131 0
M  V30 696 C 66.4986 3.97599 -3.57518 0
M  V30 697 C 67.7986 2.1413 -4.76388 0
M  V30 698 H 69.4926 0.968563 -2.83301 0
M  V30 699 H 67.0386 0.464479 -1.36303 0
M  V30 700 H 68.9916 3.38413 -2.51107 0
M  V30 701 H 67.7156 2.98032 -1.33583 0
M  V30 702 H 66.3746 1.86727 -3.15481 0
M  V30 703 H 66.0226 4.28723 -2.6307 0
M  V30 704 H 65.7226 3.94659 -4.35337 0
M  V30 705 H 67.2466 4.7349 -3.85538 0
M  V30 706 H 68.6606 2.78083 -5.01341 0
M  V30 707 H 67.0576 2.2227 -5.57419 0
M  V30 708 H 68.1276 1.09331 -4.72414 0
M  V30 709 N 69.4707 1.49531 0.497807 0
M  V30 710 C 70.4037 1.61043 1.6168 0
M  V30 711 C 71.3817 0.459386 1.55976 0
M  V30 712 O 72.5657 0.675358 1.75986 0
M  V30 713 C 69.6927 1.56833 3.00202 0
M  V30 714 C 68.7387 2.77173 3.24156 0
M  V30 715 S 69.5717 4.38808 3.06933 0
M  V30 716 C 70.7277 4.37248 4.47845 0
M  V30 717 H 70.9607 2.55702 1.51671 0
M  V30 718 H 68.4937 1.38462 0.683201 0
M  V30 719 H 70.4517 1.55089 3.80076 0
M  V30 720 H 69.1127 0.634561 3.07623 0
M  V30 721 H 68.3057 2.70456 4.25288 0
M  V30 722 H 67.9077 2.76346 2.5201 0
M  V30 723 H 70.1997 4.09164 5.39992 0
M  V30 724 H 71.1427 5.38668 4.59612 0
M  V30 725 H 71.5507 3.67286 4.28674 0
M  V30 726 N 70.9488 -0.749086 1.3866 0
M  V30 727 C 71.8788 -1.8764 1.38973 0
M  V30 728 C 72.8598 -1.68178 0.255004 0
M  V30 729 O 74.0448 -1.88704 0.458754 0
M  V30 730 C 71.1748 -3.25222 1.21851 0
M  V30 731 C 70.1288 -3.59295 2.32575 0
M  V30 732 C 69.4548 -4.95663 2.00555 0
M  V30 733 C 70.7548 -3.63709 3.7485 0
M  V30 734 H 72.4488 -1.87635 2.3331 0
M  V30 735 H 69.9948 -0.901329 1.12303 0
M  V30 736 H 71.9478 -4.03746 1.20695 0
M  V30 737 H 70.6718 -3.25719 0.239775 0
M  V30 738 H 69.3308 -2.83093 2.32925 0
M  V30 739 H 68.9788 -4.92724 1.01154 0
M  V30 740 H 68.6788 -5.19429 2.74714 0
M  V30 741 H 70.2028 -5.7656 2.01024 0
M  V30 742 H 71.6168 -4.32338 3.76506 0
M  V30 743 H 70.0138 -3.98986 4.48252 0
M  V30 744 H 71.0838 -2.63834 4.06841 0
M  V30 745 N 72.4269 -1.23603 -0.977757 0
M  V30 746 C 73.6729 -1.07129 -1.72195 0
M  V30 747 C 74.0059 0.390501 -1.90233 0
M  V30 748 O 73.2809 1.28902 -1.45653 0
M  V30 749 C 73.5639 -1.80031 -3.11867 0
M  V30 750 C 73.4169 -3.33899 -3.01383 0
M  V30 751 C 74.7359 -1.56492 -4.11337 0
M  V30 752 H 71.8549 -0.390571 -0.624999 0
M  V30 753 H 74.4969 -1.52142 -1.13811 0
M  V30 754 H 72.6469 -1.41768 -3.6171 0
M  V30 755 H 74.3189 -3.81699 -2.59043 0
M  V30 756 H 72.5619 -3.62796 -2.37827 0
M  V30 757 H 73.2329 -3.801 -4.00285 0
M  V30 758 H 75.7089 -1.89757 -3.70313 0
M  V30 759 H 74.5849 -2.09973 -5.07151 0
M  V30 760 H 74.8459 -0.500874 -4.39254 0
M  V30 761 N 73.905 1.17692 -1.04816 0
M  V30 762 C 74.815 2.25229 -0.65643 0
M  V30 763 C 75.831 1.71018 0.320761 0
M  V30 764 O 77.007 2.00649 0.173805 0
M  V30 765 C 74.072 3.46684 -0.0332629 0
M  V30 766 C 73.133 4.15997 -1.06042 0
M  V30 767 C 72.366 5.31654 -0.466893 0
M  V30 768 O 72.589 5.65777 0.724758 0
M  V30 769 O 71.523 5.89831 -1.1993 0
M  V30 770 H 75.349 2.61016 -1.55255 0
M  V30 771 H 72.934 1.24919 -0.81949 0
M  V30 772 H 74.816 4.20234 0.313256 0
M  V30 773 H 73.491 3.12703 0.836566 0
M  V30 774 H 72.398 3.44482 -1.45886 0
M  V30 775 H 73.731 4.53996 -1.90127 0
M  V30 776 N 75.3831 0.828654 1.34056 0
M  V30 777 C 76.6301 0.419458 1.98108 0
M  V30 778 C 76.9581 -1.01886 1.65679 0
M  V30 779 O 76.2131 -1.72539 0.923512 0
M  V30 780 C 76.5121 0.575226 3.52741 0
M  V30 781 C 76.1781 1.98012 4.05095 0
M  V30 782 C 74.8401 2.36442 4.19104 0
M  V30 783 C 77.1921 2.89824 4.33188 0
M  V30 784 C 74.5201 3.66009 4.58535 0
M  V30 785 C 76.8721 4.1886 4.74066 0
M  V30 786 C 75.5361 4.5726 4.86281 0
M  V30 787 H 74.8061 0.153491 0.724929 0
M  V30 788 H 77.4531 1.05371 1.59904 0
M  V30 789 H 75.7581 -0.142385 3.91541 0
M  V30 790 H 77.4551 0.239057 4.00287 0
M  V30 791 H 74.0451 1.67162 3.94658 0
M  V30 792 H 78.2291 2.61375 4.21897 0
M  V30 793 H 73.4851 3.95579 4.66184 0
M  V30 794 H 77.6591 4.90086 4.94761 0
M  V30 795 H 75.2861 5.57707 5.16592 0
M  V30 796 N 76.8612 -1.46375 0.584142 0
M  V30 797 C 78.1082 -2.02378 0.0702675 0
M  V30 798 C 78.4362 -1.45545 -1.29023 0
M  V30 799 O 77.6912 -0.610967 -1.85918 0
M  V30 800 C 77.9902 -3.57373 -0.0439342 0
M  V30 801 C 77.6562 -4.33252 1.24915 0
M  V30 802 C 76.3182 -4.53701 1.60341 0
M  V30 803 C 78.6702 -4.7681 2.1048 0
M  V30 804 C 75.9982 -5.1496 2.81128 0
M  V30 805 C 78.3502 -5.39404 3.30494 0
M  V30 806 C 77.0142 -5.5808 3.66201 0
M  V30 807 H 76.2842 -0.740554 0.0257127 0
M  V30 808 H 78.9312 -1.75727 0.761065 0
M  V30 809 H 77.2362 -3.83169 -0.817869 0
M  V30 810 H 78.9332 -3.98384 -0.457318 0
M  V30 811 H 75.5232 -4.17633 0.963364 0
M  V30 812 H 79.7072 -4.60766 1.84414 0
M  V30 813 H 74.9632 -5.27611 3.08928 0
M  V30 814 H 79.1372 -5.72114 3.97063 0
M  V30 815 H 76.7642 -6.05318 4.59885 0
M  V30 816 N 78.3393 -0.321999 -1.54275 0
M  V30 817 C 79.3023 0.531975 -2.22941 0
M  V30 818 C 80.3023 1.04478 -1.22234 0
M  V30 819 O 81.4923 0.937452 -1.46825 0
M  V30 820 C 78.6243 1.73874 -2.93224 0
M  V30 821 H 79.8173 -0.0682612 -2.99822 0
M  V30 822 H 77.3703 -0.0730644 -1.56129 0
M  V30 823 H 78.1053 2.37825 -2.20476 0
M  V30 824 H 77.8903 1.37847 -3.6707 0
M  V30 825 H 79.3803 2.34496 -3.45545 0
M  V30 826 N 79.8174 1.5752 -0.0501392 0
M  V30 827 C 81.2284 1.80271 0.485705 0
M  V30 828 C 81.5794 0.96228 1.70981 0
M  V30 829 O 80.7044 0.178578 2.15662 0
M  V30 830 C 81.2994 3.26957 0.887938 0
M  V30 831 C 79.8584 3.5063 1.36877 0
M  V30 832 C 79.0054 2.75165 0.343468 0
M  V30 833 H 81.9564 1.56281 -0.276028 0
M  V30 834 H 81.9774 3.37821 1.75093 0
M  V30 835 H 81.4894 3.881 -0.0031809 0
M  V30 836 H 79.5904 2.94766 2.27911 0
M  V30 837 H 79.7034 4.59343 1.36164 0
M  V30 838 H 78.0674 2.4127 0.816128 0
M  V30 839 H 78.8504 3.39034 -0.539548 0
M  V30 840 N 81.2955 -0.223234 1.56011 0
M  V30 841 C 82.5415 -0.944891 1.8012 0
M  V30 842 C 82.8965 -1.82039 0.622862 0
M  V30 843 O 82.1895 -1.8773 -0.383143 0
M  V30 844 C 82.3835 -1.81948 3.0762 0
M  V30 845 C 82.2125 -1.03014 4.37742 0
M  V30 846 C 80.9825 -0.72574 5.00061 0
M  V30 847 C 83.1805 -0.396256 5.12771 0
M  V30 848 N 81.1625 0.0851816 6.13841 0
M  V30 849 C 82.5335 0.278137 6.19376 0
M  V30 850 C 84.5885 -0.309117 4.9694 0
M  V30 851 C 83.2915 1.03133 7.11868 0
M  V30 852 C 85.3175 0.430607 5.8983 0
M  V30 853 C 84.6795 1.09355 6.9586 0
M  V30 854 H 80.7785 -0.326081 0.710771 0
M  V30 855 H 83.3625 -0.215914 1.93499 0
M  V30 856 H 81.5335 -2.52029 2.95527 0
M  V30 857 H 83.2655 -2.47848 3.19927 0
M  V30 858 H 80.0205 -1.04335 4.61964 0
M  V30 859 H 80.4445 0.479428 6.753 0
M  V30 860 H 85.0865 -0.807313 4.15021 0
M  V30 861 H 82.8045 1.54105 7.9327 0
M  V30 862 H 86.3905 0.499012 5.79656 0
M  V30 863 H 85.2705 1.65679 7.66499 0
M  V30 864 N 82.7736 -1.49793 -0.48987 0
M  V30 865 C 84.0136 -1.61466 -1.25332 0
M  V30 866 C 84.3776 -0.299688 -1.89647 0
M  V30 867 O 85.5786 -0.291687 -2.67213 0
M  V30 868 C 83.8496 -2.74944 -2.28343 0
M  V30 869 S 85.4086 -3.06637 -3.13878 0
M  V30 870 H 82.2266 -0.569411 -0.425784 0
M  V30 871 H 84.8286 -1.875 -0.553541 0
M  V30 872 H 83.5326 -3.68994 -1.79643 0
M  V30 873 H 83.0636 -2.50938 -3.02975 0
M  V30 874 H 85.0786 -2.49015 -4.29192 0
M  V30 875 N 84.2517 0.741722 -1.39055 0
M  V30 876 C 85.4997 1.49818 -1.35643 0
M  V30 877 C 85.8207 1.94938 0.0491642 0
M  V30 878 O 85.0907 1.68505 0.999141 0
M  V30 879 H 83.6707 0.555755 -0.499144 0
M  V30 880 H 86.3327 0.880957 -1.73854 0
M  V30 881 H 85.4287 2.38348 -2.01486 0
M  V30 882 N 85.7298 1.2412 0.971189 0
M  V30 883 C 86.6798 0.997551 2.05019 0
M  V30 884 C 87.6638 -0.0597747 1.60789 0
M  V30 885 O 88.8558 0.153516 1.76333 0
M  V30 886 C 85.9848 0.600557 3.38006 0
M  V30 887 C 85.0708 1.69377 3.88809 0
M  V30 888 N 85.4618 2.92586 4.12586 0
M  V30 889 C 83.7598 1.57048 4.17435 0
M  V30 890 C 84.4608 3.63431 4.54195 0
M  V30 891 N 83.4368 2.90979 4.59165 0
M  V30 892 H 87.2388 1.93316 2.21374 0
M  V30 893 H 84.7528 1.14194 1.1547 0
M  V30 894 H 86.7498 0.40725 4.14906 0
M  V30 895 H 85.4098 -0.327903 3.2304 0
M  V30 896 H 86.4208 3.288 4.00139 0
M  V30 897 H 83.0978 0.709798 4.11422 0
M  V30 898 H 84.4878 4.69102 4.81033 0
M  V30 899 N 87.2079 -1.17134 1.05439 0
M  V30 900 C 88.4479 -1.89137 0.77502 0
M  V30 901 C 88.8119 -1.79345 -0.685526 0
M  V30 902 O 90.0129 -2.46188 -1.0791 0
M  V30 903 C 88.2839 -3.35003 1.2453 0
M  V30 904 S 89.8429 -4.24952 1.09367 0
M  V30 905 H 86.6609 -0.652949 0.281387 0
M  V30 906 H 89.2629 -1.4145 1.34953 0
M  V30 907 H 87.9669 -3.39666 2.30338 0
M  V30 908 H 87.4979 -3.87736 0.665166 0
M  V30 909 H 89.5129 -4.96196 0.0193397 0
M  V30 910 N 88.686 -0.835752 -1.33615 0
M  V30 911 C 89.633 -0.26473 -2.29277 0
M  V30 912 C 90.603 0.617712 -1.54187 0
M  V30 913 O 91.788 0.556641 -1.825 0
M  V30 914 C 88.928 0.556777 -3.40579 0
M  V30 915 C 88.041 -0.349339 -4.30585 0
M  V30 916 C 87.176 0.482969 -5.29 0
M  V30 917 C 86.215 -0.421732 -6.10645 0
M  V30 918 N 85.352 0.372262 -7.01112 0
M  V30 919 H 90.192 -1.08582 -2.77514 0
M  V30 920 H 87.729 -0.546927 -1.36554 0
M  V30 921 H 89.687 1.04852 -4.03809 0
M  V30 922 H 88.317 1.34286 -2.93542 0
M  V30 923 H 87.369 -0.959372 -3.68104 0
M  V30 924 H 88.681 -1.04445 -4.87742 0
M  V30 925 H 87.835 1.03866 -5.97743 0
M  V30 926 H 86.574 1.21153 -4.72412 0
M  V30 927 H 85.579 -0.989464 -5.40823 0
M  V30 928 H 86.804 -1.14861 -6.69316 0
M  V30 929 H 84.75 1.08426 -6.46977 0
M  V30 930 H 84.667 -0.264198 -7.55538 0
M  V30 931 H 85.935 0.910293 -7.74167 0
M  V30 932 N 90.1641 1.46063 -0.591896 0
M  V30 933 C 91.5801 1.57561 -0.254288 0
M  V30 934 C 91.7801 1.58565 1.24336 0
M  V30 935 O 90.8361 1.50753 2.02558 0
M  V30 936 C 92.1491 2.86549 -0.911611 0
M  V30 937 C 93.6971 3.00197 -0.886059 0
M  V30 938 C 94.1721 4.31933 -1.5231 0
M  V30 939 N 95.6631 4.38654 -1.48786 0
M  V30 940 C 96.3981 5.39222 -1.95006 0
M  V30 941 N 95.8941 6.46414 -2.49241 0
M  V30 942 N 97.6871 5.3048 -1.85868 0
M  V30 943 H 89.8381 1.43655 -1.56451 0
M  V30 944 H 92.1011 0.68583 -0.654478 0
M  V30 945 H 91.8071 2.91651 -1.96551 0
M  V30 946 H 91.6811 3.74794 -0.425368 0
M  V30 947 H 94.0681 2.9467 0.159246 0
M  V30 948 H 94.1491 2.13403 -1.41041 0
M  V30 949 H 93.7931 4.38217 -2.56765 0
M  V30 950 H 93.7231 5.17516 -0.973891 0
M  V30 951 H 96.2141 3.61793 -1.09151 0
M  V30 952 H 96.5271 7.19376 -2.82344 0
M  V30 953 H 94.8721 6.47208 -2.53272 0
M  V30 954 H 98.0631 4.45643 -1.43248 0
M  V30 955 H 98.2361 6.08711 -2.22204 0
M  V30 956 N 91.6422 0.330177 1.54103 0
M  V30 957 C 92.5722 -0.525353 2.27513 0
M  V30 958 C 93.5532 -1.11383 1.2856 0
M  V30 959 O 94.7382 -1.13773 1.57383 0
M  V30 960 C 91.8682 -1.6831 3.03791 0
M  V30 961 C 90.8222 -1.2236 4.10137 0
M  V30 962 C 90.1482 -2.46882 4.74293 0
M  V30 963 C 91.4482 -0.333697 5.21233 0
M  V30 964 H 93.1422 0.087013 2.99274 0
M  V30 965 H 90.6882 0.0432893 1.43935 0
M  V30 966 H 92.6412 -2.28795 3.5388 0
M  V30 967 H 91.3652 -2.32216 2.29659 0
M  V30 968 H 90.0242 -0.64165 3.60941 0
M  V30 969 H 89.6722 -3.09165 3.96769 0
M  V30 970 H 89.3722 -2.16825 5.46133 0
M  V30 971 H 90.8962 -3.08117 5.27159 0
M  V30 972 H 92.3102 -0.845013 5.67038 0
M  V30 973 H 90.7072 -0.125612 5.99969 0
M  V30 974 H 91.7772 0.633724 4.80741 0
M  V30 975 N 93.1203 -1.57491 0.0584922 0
M  V30 976 C 94.0833 -2.1085 -0.898617 0
M  V30 977 C 95.0833 -1.02964 -1.23511 0
M  V30 978 O 96.2733 -1.29007 -1.17059 0
M  V30 979 C 93.4053 -2.59881 -2.20623 0
M  V30 980 H 94.5983 -2.96715 -0.435936 0
M  V30 981 H 92.1513 -1.55141 -0.190023 0
M  V30 982 H 92.8863 -1.77431 -2.71457 0
M  V30 983 H 92.6713 -3.38727 -1.97501 0
M  V30 984 H 94.1613 -3.01285 -2.89166 0
M  V30 985 N 94.5984 0.214957 -1.56127 0
M  V30 986 C 96.0094 0.781386 -1.69562 0
M  V30 987 C 96.3604 1.84707 -0.66165 0
M  V30 988 O 95.4854 2.156 0.185927 0
M  V30 989 C 96.0804 1.42411 -3.07416 0
M  V30 990 C 94.6394 1.93786 -3.22683 0
M  V30 991 C 93.7864 0.800438 -2.65496 0
M  V30 992 H 96.7374 -0.00980633 -1.58697 0
M  V30 993 H 96.7584 2.29309 -3.0364 0
M  V30 994 H 96.2704 0.64826 -3.82648 0
M  V30 995 H 94.3714 2.74152 -2.52332 0
M  V30 996 H 94.4844 2.1133 -4.29973 0
M  V30 997 H 92.8484 1.2095 -2.2415 0
M  V30 998 H 93.6314 0.0371471 -3.4328 0
M  V30 999 N 96.0765 1.50051 0.48192 0
M  V30 1000 C 96.9865 1.7089 1.60728 0
M  V30 1001 C 98.0025 0.591788 1.63627 0
M  V30 1002 O 99.1785 0.868817 1.81696 0
M  V30 1003 C 96.2435 1.78855 2.97005 0
M  V30 1004 C 95.3045 3.02537 3.04581 0
M  V30 1005 C 94.5375 3.10112 4.34357 0
M  V30 1006 O 94.7605 2.24765 5.24249 0
M  V30 1007 O 93.6945 4.02747 4.47301 0
M  V30 1008 H 97.5205 2.66264 1.46072 0
M  V30 1009 H 95.1055 1.34018 0.660264 0
M  V30 1010 H 96.9875 1.86336 3.77964 0
M  V30 1011 H 95.6625 0.866628 3.11883 0
M  V30 1012 H 94.5695 3.00563 2.22739 0
M  V30 1013 H 95.9025 3.94272 2.94636 0
M  V30 1014 N 97.5546 -0.734337 1.39446 0
M  V30 1015 C 98.7846 -1.52137 1.39778 0
M  V30 1016 C 99.1926 -1.89198 -0.00929312 0
M  V30 1017 O 98.5356 -1.54666 -0.991168 0
M  V30 1018 C 98.5976 -2.83762 2.20724 0
M  V30 1019 C 98.2616 -2.69131 3.69347 0
M  V30 1020 C 99.2586 -2.37635 4.62413 0
M  V30 1021 C 96.9436 -2.85982 4.1294 0
M  V30 1022 C 98.9376 -2.23172 5.97054 0
M  V30 1023 C 96.6246 -2.71137 5.47657 0
M  V30 1024 C 97.6226 -2.39777 6.39528 0
M  V30 1025 O 97.3106 -2.25026 7.71763 0
M  V30 1026 H 97.0426 -0.476717 0.479288 0
M  V30 1027 H 99.5966 -0.915012 1.83893 0
M  V30 1028 H 97.8266 -3.4666 1.71359 0
M  V30 1029 H 99.5156 -3.45383 2.13226 0
M  V30 1030 H 100.282 -2.24267 4.30034 0
M  V30 1031 H 96.1606 -3.09383 3.41765 0
M  V30 1032 H 99.7046 -1.98617 6.68728 0
M  V30 1033 H 95.6016 -2.84083 5.79626 0
M  V30 1034 H 96.3696 -2.40091 7.82495 0
M  V30 1035 N 99.0327 -1.24633 -0.964593 0
M  V30 1036 C 99.9427 -1.05859 -2.09359 0
M  V30 1037 C 100.959 0.00148855 -1.74 0
M  V30 1038 O 102.135 -0.197346 -2.00431 0
M  V30 1039 C 99.1997 -0.668879 -3.40187 0
M  V30 1040 C 98.2607 -1.80578 -3.89474 0
M  V30 1041 C 97.4937 -1.43457 -5.14058 0
M  V30 1042 O 97.7167 -0.325775 -5.69469 0
M  V30 1043 O 96.6507 -2.2613 -5.57807 0
M  V30 1044 H 100.477 -2.00516 -2.28094 0
M  V30 1045 H 98.0617 -1.03481 -1.0776 0
M  V30 1046 H 99.9437 -0.463211 -4.18846 0
M  V30 1047 H 98.6187 0.248536 -3.22744 0
M  V30 1048 H 97.5257 -2.06623 -3.11862 0
M  V30 1049 H 98.8587 -2.70208 -4.11398 0
M  V30 1050 N 100.511 1.16574 -1.06058 0
M  V30 1051 C 101.474 2.19085 -0.673392 0
M  V30 1052 C 102.474 1.5835 0.279648 0
M  V30 1053 O 103.664 1.74088 0.0623488 0
M  V30 1054 C 100.796 3.40899 0.00954234 0
M  V30 1055 H 101.989 2.54853 -1.58081 0
M  V30 1056 H 99.5418 1.30808 -0.855516 0
M  V30 1057 H 100.277 3.10684 0.929826 0
M  V30 1058 H 100.062 3.86233 -0.67573 0
M  V30 1059 H 101.552 4.1675 0.266245 0
M  V30 1060 N 101.989 0.842826 1.3317 0
M  V30 1061 C 102.952 0.284065 2.27433 0
M  V30 1062 C 103.952 -0.54948 1.5112 0
M  V30 1063 O 105.142 -0.362699 1.70382 0
M  V30 1064 C 102.274 -0.599384 3.35589 0
M  V30 1065 H 103.467 1.11589 2.78366 0
M  V30 1066 H 101.02 0.616221 1.4364 0
M  V30 1067 H 101.755 -1.45349 2.89904 0
M  V30 1068 H 101.54 -0.00291266 3.921 0
M  V30 1069 H 103.03 -0.983488 4.05854 0
M  V30 1070 N 103.467 -1.45747 0.599634 0
M  V30 1071 C 104.43 -2.28917 -0.113835 0
M  V30 1072 C 105.43 -1.3933 -0.802729 0
M  V30 1073 O 106.62 -1.61534 -0.652103 0
M  V30 1074 C 103.752 -3.20152 -1.17114 0
M  V30 1075 H 104.945 -2.93478 0.617289 0
M  V30 1076 H 102.498 -1.52137 0.358327 0
M  V30 1077 H 103.233 -2.60374 -1.93329 0
M  V30 1078 H 103.018 -3.86133 -0.681468 0
M  V30 1079 H 104.508 -3.82708 -1.67105 0
M  V30 1080 N 104.945 -0.338344 -1.53925 0
M  V30 1081 C 106.173 0.261298 -2.05243 0
M  V30 1082 C 106.588 1.44625 -1.21363 0
M  V30 1083 O 105.945 1.80811 -0.247736 0
M  V30 1084 C 105.996 0.681412 -3.5502 0
M  V30 1085 O 105.717 -0.456414 -4.35716 0
M  V30 1086 C 107.218 1.34232 -4.22489 0
M  V30 1087 H 104.438 0.0513685 -0.669031 0
M  V30 1088 H 106.982 -0.488822 -1.98572 0
M  V30 1089 H 105.137 1.38148 -3.61931 0
M  V30 1090 H 105.551 -0.122564 -5.24357 0
M  V30 1091 H 107.025 1.58708 -5.28693 0
M  V30 1092 H 107.502 2.29426 -3.74514 0
M  V30 1093 H 108.108 0.684424 -4.19757 0
M  V30 1094 N 106.423 1.57458 -0.0668435 0
M  V30 1095 C 107.839 1.56947 0.289772 0
M  V30 1096 C 108.039 1.07584 1.70376 0
M  V30 1097 O 107.095 0.739486 2.41429 0
M  V30 1098 C 108.408 3.0052 0.103943 0
M  V30 1099 C 109.956 3.12517 0.173857 0
M  V30 1100 C 110.431 4.57997 0.0163682 0
M  V30 1101 N 111.922 4.63144 0.0721352 0
M  V30 1102 C 112.657 5.73394 -0.0253794 0
M  V30 1103 N 112.153 6.92576 -0.176133 0
M  V30 1104 N 113.946 5.62091 0.0313305 0
M  V30 1105 H 106.097 1.87863 -0.991027 0
M  V30 1106 H 108.36 0.86583 -0.38606 0
M  V30 1107 H 108.066 3.40729 -0.871572 0
M  V30 1108 H 107.94 3.67304 0.858366 0
M  V30 1109 H 110.327 2.72197 1.13985 0
M  V30 1110 H 110.408 2.48381 -0.611586 0
M  V30 1111 H 110.052 4.99005 -0.946374 0
M  V30 1112 H 109.982 5.20158 0.821153 0
M  V30 1113 H 112.473 3.77436 0.187263 0
M  V30 1114 H 112.786 7.72418 -0.242821 0
M  V30 1115 H 111.131 6.94678 -0.211429 0
M  V30 1116 H 114.322 4.67867 0.147773 0
M  V30 1117 H 114.495 6.47982 -0.048121 0
M  V30 1118 N 107.901 -0.206675 1.56239 0
M  V30 1119 C 108.831 -1.25909 1.96645 0
M  V30 1120 C 109.812 -1.48097 0.836734 0
M  V30 1121 O 110.997 -1.6003 1.10019 0
M  V30 1122 C 108.127 -2.6058 2.29599 0
M  V30 1123 C 107.081 -2.53024 3.452 0
M  V30 1124 C 106.407 -3.91861 3.63798 0
M  V30 1125 C 107.707 -2.06524 4.79734 0
M  V30 1126 H 109.401 -0.923369 2.84806 0
M  V30 1127 H 106.947 -0.442735 1.37025 0
M  V30 1128 H 108.9 -3.34375 2.56459 0
M  V30 1129 H 107.624 -2.95869 1.38307 0
M  V30 1130 H 106.283 -1.81684 3.18412 0
M  V30 1131 H 105.931 -4.24483 2.69857 0
M  V30 1132 H 105.631 -3.87683 4.4156 0
M  V30 1133 H 107.155 -4.67296 3.93022 0
M  V30 1134 H 108.569 -2.70072 5.05702 0
M  V30 1135 H 106.966 -2.13374 5.60885 0
M  V30 1136 H 108.036 -1.01802 4.74093 0
M  V30 1137 N 109.379 -1.50304 -0.473955 0
M  V30 1138 C 110.326 -1.68959 -1.57231 0
M  V30 1139 C 111.296 -0.530899 -1.57387 0
M  V30 1140 O 112.481 -0.761133 -1.74961 0
M  V30 1141 C 109.621 -1.7871 -2.95223 0
M  V30 1142 C 108.734 -3.06061 -3.04878 0
M  V30 1143 C 107.869 -3.06626 -4.33767 0
M  V30 1144 C 106.908 -4.28443 -4.37154 0
M  V30 1145 N 106.045 -4.26763 -5.5751 0
M  V30 1146 H 110.885 -2.6273 -1.40631 0
M  V30 1147 H 108.422 -1.30241 -0.683789 0
M  V30 1148 H 110.38 -1.82344 -3.75242 0
M  V30 1149 H 109.01 -0.883806 -3.10465 0
M  V30 1150 H 108.062 -3.11911 -2.17751 0
M  V30 1151 H 109.374 -3.96039 -3.0324 0
M  V30 1152 H 108.528 -3.08973 -5.22131 0
M  V30 1153 H 107.267 -2.14473 -4.3801 0
M  V30 1154 H 106.272 -4.2631 -3.47188 0
M  V30 1155 H 107.497 -5.2182 -4.34605 0
M  V30 1156 H 105.443 -3.37462 -5.62544 0
M  V30 1157 H 105.36 -5.10507 -5.57601 0
M  V30 1158 H 106.628 -4.33253 -6.48006 0
M  V30 1159 N 110.857 0.726932 -1.39834 0
M  V30 1160 C 112.105 1.4837 -1.37225 0
M  V30 1161 C 112.426 1.94979 0.0284857 0
M  V30 1162 O 111.696 1.69555 0.981213 0
M  V30 1163 H 110.276 0.55043 -0.505011 0
M  V30 1164 H 112.938 0.862468 -1.74778 0
M  V30 1165 H 112.034 2.36198 -2.04003 0
M  V30 1166 N 112.336 1.25143 0.95797 0
M  V30 1167 C 113.585 1.0909 1.69654 0
M  V30 1168 C 113.898 -0.368548 1.92097 0
M  V30 1169 O 115.104 -0.649455 2.63618 0
M  V30 1170 C 113.56 1.90395 3.05414 0
M  V30 1171 C 113.168 3.4081 2.90779 0
M  V30 1172 C 114.912 1.82901 3.83076 0
M  V30 1173 C 112.819 4.14423 4.21909 0
M  V30 1174 H 111.749 0.404625 0.636235 0
M  V30 1175 H 114.4 1.4931 1.06672 0
M  V30 1176 H 112.782 1.42996 3.69281 0
M  V30 1177 H 113.956 3.95859 2.35865 0
M  V30 1178 H 112.271 3.49361 2.26575 0
M  V30 1179 H 114.868 2.35196 4.80195 0
M  V30 1180 H 115.211 0.796224 4.08615 0
M  V30 1181 H 115.744 2.28033 3.25954 0
M  V30 1182 H 112.483 5.18102 4.01561 0
M  V30 1183 H 112.003 3.64159 4.76601 0
M  V30 1184 H 113.682 4.21956 4.90471 0
M  V30 1185 N 113.814 -1.1601 1.06675 0
M  V30 1186 C 115.06 -1.86909 0.786945 0
M  V30 1187 C 115.393 -1.81717 -0.685018 0
M  V30 1188 O 114.668 -1.23551 -1.50218 0
M  V30 1189 C 114.951 -3.36313 1.28707 0
M  V30 1190 C 114.804 -3.50175 2.82308 0
M  V30 1191 C 116.123 -4.3084 0.898071 0
M  V30 1192 H 113.242 -0.678677 0.287343 0
M  V30 1193 H 115.884 -1.36336 1.32334 0
M  V30 1194 H 114.034 -3.79513 0.830768 0
M  V30 1195 H 115.706 -3.15886 3.36175 0
M  V30 1196 H 113.949 -2.91959 3.20847 0
M  V30 1197 H 114.62 -4.55116 3.12368 0
M  V30 1198 H 117.096 -3.95561 1.29114 0
M  V30 1199 H 115.972 -5.33876 1.27543 0
M  V30 1200 H 116.233 -4.41662 -0.196651 0
M  V30 1201 N 115.292 -0.849877 -1.32721 0
M  V30 1202 C 116.703 -0.506188 -1.79707 0
M  V30 1203 C 117.054 0.975627 -1.70223 0
M  V30 1204 O 116.179 1.76078 -1.25799 0
M  V30 1205 C 116.774 -0.912044 -3.26293 0
M  V30 1206 C 115.333 -0.620326 -3.71253 0
M  V30 1207 C 114.48 -1.11439 -2.53922 0
M  V30 1208 H 117.431 -1.03754 -1.20087 0
M  V30 1209 H 117.452 -0.226493 -3.79825 0
M  V30 1210 H 116.964 -1.99057 -3.33164 0
M  V30 1211 H 115.065 0.447674 -3.69901 0
M  V30 1212 H 115.178 -1.18327 -4.64258 0
M  V30 1213 H 113.542 -0.534834 -2.49021 0
M  V30 1214 H 114.325 -2.19992 -2.6355 0
M  V30 1215 N 116.77 1.45427 -0.607355 0
M  V30 1216 C 117.7 2.3329 0.0989352 0
M  V30 1217 C 118.681 1.46816 0.859007 0
M  V30 1218 O 119.866 1.75588 0.829604 0
M  V30 1219 C 116.996 3.29518 1.09705 0
M  V30 1220 C 115.95 4.25626 0.450206 0
M  V30 1221 C 115.276 5.11542 1.55655 0
M  V30 1222 C 116.576 5.18505 -0.628455 0
M  V30 1223 H 118.27 2.92595 -0.634716 0
M  V30 1224 H 115.816 1.40696 -0.306681 0
M  V30 1225 H 117.769 3.89855 1.59971 0
M  V30 1226 H 116.493 2.68372 1.86129 0
M  V30 1227 H 115.152 3.66586 -0.0315886 0
M  V30 1228 H 114.8 4.46765 2.31107 0
M  V30 1229 H 114.5 5.76647 1.12925 0
M  V30 1230 H 116.024 5.74748 2.06148 0
M  V30 1231 H 117.438 5.72916 -0.209877 0
M  V30 1232 H 115.835 5.92085 -0.977489 0
M  V30 1233 H 116.905 4.60948 -1.50514 0
M  V30 1234 N 118.248 0.346503 1.53744 0
M  V30 1235 C 119.211 -0.496439 2.23759 0
M  V30 1236 C 120.211 -1.0252 1.2388 0
M  V30 1237 O 121.401 -0.913974 1.48297 0
M  V30 1238 C 118.533 -1.69187 2.95954 0
M  V30 1239 H 119.726 0.115952 2.99676 0
M  V30 1240 H 117.279 0.0978939 1.55993 0
M  V30 1241 H 118.014 -2.34288 2.24231 0
M  V30 1242 H 117.799 -1.31989 3.69217 0
M  V30 1243 H 119.289 -2.28969 3.49232 0
M  V30 1244 N 119.726 -1.57421 0.075193 0
M  V30 1245 C 120.673 -2.12915 -0.890843 0
M  V30 1246 C 121.643 -1.04252 -1.29309 0
M  V30 1247 O 122.828 -1.31933 -1.37834 0
M  V30 1248 C 119.968 -2.69795 -2.15186 0
M  V30 1249 C 119.081 -3.92624 -1.80194 0
M  V30 1250 C 118.216 -4.37736 -3.00933 0
M  V30 1251 C 117.255 -5.53205 -2.61974 0
M  V30 1252 N 116.392 -5.9326 -3.75483 0
M  V30 1253 H 121.232 -2.95156 -0.410735 0
M  V30 1254 H 118.769 -1.45854 -0.191086 0
M  V30 1255 H 120.727 -3.00883 -2.89008 0
M  V30 1256 H 119.357 -1.90313 -2.60731 0
M  V30 1257 H 118.409 -3.67977 -0.964218 0
M  V30 1258 H 119.721 -4.76482 -1.47534 0
M  V30 1259 H 118.875 -4.70503 -3.8303 0
M  V30 1260 H 117.614 -3.52739 -3.36789 0
M  V30 1261 H 116.619 -5.20086 -1.783 0
M  V30 1262 H 117.844 -6.39936 -2.27284 0
M  V30 1263 H 115.79 -5.11212 -4.11094 0
M  V30 1264 H 115.707 -6.71865 -3.46602 0
M  V30 1265 H 116.975 -6.30651 -4.58148 0
M  V30 1266 N 121.204 0.198386 -1.56346 0
M  V30 1267 C 122.45 0.920648 -1.80698 0
M  V30 1268 C 122.783 1.83045 -0.648697 0
M  V30 1269 O 122.058 1.91308 0.350925 0
M  V30 1270 C 122.341 1.73971 -3.15287 0
M  V30 1271 C 122.194 0.85485 -4.41602 0
M  V30 1272 C 123.513 2.71296 -3.46535 0
M  V30 1273 H 120.632 0.333261 -0.657348 0
M  V30 1274 H 123.274 0.188198 -1.89066 0
M  V30 1275 H 121.424 2.36416 -3.08285 0
M  V30 1276 H 123.096 0.245362 -4.60647 0
M  V30 1277 H 121.339 0.161398 -4.335 0
M  V30 1278 H 122.01 1.46286 -5.32264 0
M  V30 1279 H 124.486 2.18983 -3.53816 0
M  V30 1280 H 123.362 3.2569 -4.41834 0
M  V30 1281 H 123.623 3.5018 -2.69864 0
M  V30 1282 N 122.682 1.50554 0.465978 0
M  V30 1283 C 123.959 1.5232 1.22712 0
M  V30 1284 C 124.339 0.270807 2.09356 0
M  V30 1285 O 123.687 -0.745541 2.15995 0
M  V30 1286 C 123.897 2.82175 2.05374 0
M  V30 1287 C 125.245 3.33033 2.6339 0
M  V30 1288 O 126.269 2.83531 2.15612 0
M  V30 1289 O 125.128 4.19336 3.50456 0
M  V30 1290 H 122.222 0.611183 0.557122 0
M  V30 1291 H 124.768 1.62847 0.477381 0
M  V30 1292 H 123.54 3.64797 1.41558 0
M  V30 1293 H 123.163 2.74675 2.87471 0
M  V30 1294 N 124.16 -0.719506 1.40217 0
M  V30 1295 C 125.4 -1.49181 1.39729 0
M  V30 1296 C 125.764 -1.92 -0.00250614 0
M  V30 1297 O 126.965 -2.68473 -0.132479 0
M  V30 1298 C 125.236 -2.68767 2.35582 0
M  V30 1299 S 126.795 -3.58224 2.53418 0
M  V30 1300 H 123.613 -0.510091 0.495307 0
M  V30 1301 H 126.215 -0.841724 1.76452 0
M  V30 1302 H 124.919 -2.35475 3.36124 0
M  V30 1303 H 124.45 -3.38691 2.0013 0
M  V30 1304 H 126.465 -4.63033 1.78367 0
M  V30 1305 N 125.638 -1.25649 -0.95132 0
M  V30 1306 C 126.866 -1.13343 -1.73092 0
M  V30 1307 C 127.281 0.312434 -1.86197 0
M  V30 1308 O 126.638 1.21465 -1.36207 0
M  V30 1309 C 126.689 -1.78602 -3.14299 0
M  V30 1310 O 126.41 -3.17537 -3.01831 0
M  V30 1311 C 127.911 -1.72119 -4.08522 0
M  V30 1312 H 125.131 -0.395181 -0.542285 0
M  V30 1313 H 127.675 -1.66076 -1.19328 0
M  V30 1314 H 125.83 -1.29832 -3.64996 0
M  V30 1315 H 126.244 -3.49676 -3.90931 0
M  V30 1316 H 127.718 -2.22435 -5.052 0
M  V30 1317 H 128.195 -0.685635 -4.33815 0
M  V30 1318 H 128.801 -2.20393 -3.63741 0
M  V30 1319 N 127.117 1.15442 -1.07289 0
M  V30 1320 C 128.08 2.18358 -0.696591 0
M  V30 1321 C 129.08 1.58637 0.262837 0
M  V30 1322 O 130.27 1.74145 0.0438809 0
M  V30 1323 C 127.402 3.4089 -0.0266151 0
M  V30 1324 H 128.595 2.53162 -1.60776 0
M  V30 1325 H 126.148 1.29893 -0.869342 0
M  V30 1326 H 126.883 3.11653 0.896822 0
M  V30 1327 H 126.668 3.85495 -0.716657 0
M  V30 1328 H 128.158 4.17009 0.222028 0
M  V30 1329 N 128.595 0.856903 1.32268 0
M  V30 1330 C 129.543 0.291987 2.3076 0
M  V30 1331 C 130.537 -0.585857 1.58947 0
M  V30 1332 O 131.743 -0.47341 1.73663 0
M  V30 1333 H 128.118 0.075721 0.748178 0
M  V30 1334 H 130.089 1.13687 2.75895 0
M  V30 1335 C 128.838 -0.502869 3.44044 0
M  V30 1336 H 128.161 0.163328 3.99466 0
M  V30 1337 H 129.601 -0.863691 4.1511 0
M  V30 1338 C 128.06 -1.68898 2.91505 0
M  V30 1339 O 128.59 -2.78811 2.89184 0
M  V30 1340 N 126.796 -1.51679 2.47875 0
M  V30 1341 H 126.343 -0.622666 2.49961 0
M  V30 1342 H 126.301 -2.31184 2.13076 0
M  V30 1343 N 130.073 -1.45103 0.615059 0
M  V30 1344 C 131.301 -2.06553 0.11977 0
M  V30 1345 C 131.716 -1.45842 -1.19898 0
M  V30 1346 O 131.073 -0.575325 -1.73194 0
M  V30 1347 C 131.124 -3.61495 -0.018364 0
M  V30 1348 O 130.845 -4.19942 1.24822 0
M  V30 1349 C 132.346 -4.39947 -0.544237 0
M  V30 1350 H 129.566 -0.667096 0.0722739 0
M  V30 1351 H 132.11 -1.8623 0.84491 0
M  V30 1352 H 130.265 -3.81135 -0.693865 0
M  V30 1353 H 130.679 -5.13204 1.0827 0
M  V30 1354 H 132.153 -5.48838 -0.589953 0
M  V30 1355 H 132.63 -4.10255 -1.56805 0
M  V30 1356 H 133.236 -4.25188 0.0974703 0
M  V30 1357 N 131.551 -0.354651 -1.53558 0
M  V30 1358 C 132.499 0.512195 -2.26891 0
M  V30 1359 C 133.493 1.09263 -1.29452 0
M  V30 1360 O 134.699 1.03709 -1.47121 0
M  V30 1361 H 131.074 0.183878 -0.729173 0
M  V30 1362 H 133.045 -0.128202 -2.98124 0
M  V30 1363 C 131.794 1.64563 -3.06291 0
M  V30 1364 H 131.117 1.20829 -3.81104 0
M  V30 1365 H 132.557 2.22711 -3.60799 0
M  V30 1366 C 131.016 2.58158 -2.16462 0
M  V30 1367 O 131.546 3.60695 -1.76811 0
M  V30 1368 N 129.752 2.27096 -1.81317 0
M  V30 1369 H 129.299 1.43751 -2.1376 0
M  V30 1370 H 129.257 2.89975 -1.21498 0
M  V30 1371 N 133.029 1.57378 -0.0835403 0
M  V30 1372 C 134.257 1.98263 0.59157 0
M  V30 1373 C 134.672 0.962302 1.62435 0
M  V30 1374 O 134.029 -0.049581 1.82433 0
M  V30 1375 C 134.08 3.39214 1.24965 0
M  V30 1376 O 133.801 4.37339 0.258186 0
M  V30 1377 C 135.302 3.95038 2.01147 0
M  V30 1378 H 132.522 0.651773 0.159477 0
M  V30 1379 H 135.066 2.03878 -0.159415 0
M  V30 1380 H 133.221 3.34649 1.95164 0
M  V30 1381 H 133.635 5.19371 0.731734 0
M  V30 1382 H 135.109 4.95848 2.42567 0
M  V30 1383 H 135.586 3.32222 2.87272 0
M  V30 1384 H 136.192 4.0304 1.35789 0
M  V30 1385 N 134.507 -0.190092 1.56449 0
M  V30 1386 C 135.747 -0.916414 1.82705 0
M  V30 1387 C 136.111 -1.80235 0.661763 0
M  V30 1388 O 137.312 -2.56484 0.80433 0
M  V30 1389 C 135.583 -1.70691 3.14005 0
M  V30 1390 S 137.142 -2.48457 3.61683 0
M  V30 1391 H 133.96 -0.307281 0.64117 0
M  V30 1392 H 136.562 -0.179433 1.94675 0
M  V30 1393 H 135.266 -1.04677 3.96826 0
M  V30 1394 H 134.797 -2.48562 3.04927 0
M  V30 1395 H 136.812 -3.72756 3.27517 0
M  V30 1396 N 135.985 -1.50799 -0.457987 0
M  V30 1397 C 136.933 -1.71162 -1.575 0
M  V30 1398 C 137.927 -0.577592 -1.59249 0
M  V30 1399 O 139.133 -0.758443 -1.63241 0
M  V30 1400 H 135.508 -0.540468 -0.522875 0
M  V30 1401 H 137.479 -2.64837 -1.37492 0
M  V30 1402 C 136.228 -1.83496 -2.95338 0
M  V30 1403 H 135.551 -2.70153 -2.94716 0
M  V30 1404 H 136.991 -2.01765 -3.72917 0
M  V30 1405 C 135.45 -0.589694 -3.31699 0
M  V30 1406 O 135.98 0.265163 -4.00824 0
M  V30 1407 N 134.186 -0.439845 -2.87252 0
M  V30 1408 H 133.733 -1.13655 -2.31172 0
M  V30 1409 H 133.691 0.392159 -3.11945 0
M  V30 1410 N 137.463 0.71206 -1.40597 0
M  V30 1411 C 138.41 1.82613 -1.41142 0
M  V30 1412 C 139.38 1.63925 -0.267903 0
M  V30 1413 O 140.565 1.85009 -0.466495 0
M  V30 1414 C 137.705 3.20354 -1.28324 0
M  V30 1415 C 136.818 3.50589 -2.52411 0
M  V30 1416 C 135.953 4.77855 -2.32009 0
M  V30 1417 C 134.992 5.01005 -3.51654 0
M  V30 1418 N 134.129 6.19487 -3.30425 0
M  V30 1419 H 138.969 1.81482 -2.36365 0
M  V30 1420 H 136.506 0.886475 -1.17388 0
M  V30 1421 H 138.464 3.99899 -1.18899 0
M  V30 1422 H 137.094 3.20705 -0.367189 0
M  V30 1423 H 136.146 2.65573 -2.72351 0
M  V30 1424 H 137.458 3.63604 -3.41458 0
M  V30 1425 H 136.612 5.65424 -2.19956 0
M  V30 1426 H 135.351 4.67056 -1.40392 0
M  V30 1427 H 134.356 4.1189 -3.64179 0
M  V30 1428 H 135.581 5.13674 -4.44202 0
M  V30 1429 H 133.527 6.09932 -2.41494 0
M  V30 1430 H 133.444 6.33194 -4.13039 0
M  V30 1431 H 134.712 7.09834 -3.22113 0
M  V30 1432 N 138.941 1.26152 0.944643 0
M  V30 1433 C 140.171 1.14094 1.72239 0
M  V30 1434 C 140.579 -0.306931 1.86694 0
M  V30 1435 O 139.922 -1.22222 1.3714 0
M  V30 1436 C 139.984 1.73316 3.14963 0
M  V30 1437 C 139.648 3.2239 3.23904 0
M  V30 1438 C 140.645 4.19252 3.07447 0
M  V30 1439 C 138.33 3.62788 3.47405 0
M  V30 1440 C 140.324 5.54491 3.14353 0
M  V30 1441 C 138.011 4.98162 3.53947 0
M  V30 1442 C 139.009 5.93823 3.37436 0
M  V30 1443 O 138.697 7.26732 3.43679 0
M  V30 1444 H 138.429 0.398292 0.546205 0
M  V30 1445 H 140.983 1.67201 1.19301 0
M  V30 1446 H 139.213 1.14667 3.69308 0
M  V30 1447 H 140.902 1.56214 3.74636 0
M  V30 1448 H 141.668 3.8938 2.8915 0
M  V30 1449 H 137.547 2.88816 3.59313 0
M  V30 1450 H 141.091 6.29137 3.01384 0
M  V30 1451 H 136.988 5.27695 3.71763 0
M  V30 1452 H 137.756 7.3496 3.60245 0
M  V30 1453 N 140.419 -1.14872 1.07899 0
M  V30 1454 C 141.667 -1.85422 0.803941 0
M  V30 1455 C 141.988 -1.83051 -0.67211 0
M  V30 1456 O 141.258 -1.27532 -1.48703 0
M  V30 1457 H 139.838 -0.686537 0.294408 0
M  V30 1458 H 142.5 -1.39226 1.3639 0
M  V30 1459 H 141.596 -2.90399 1.14346 0
M  V30 1460 N 141.898 -0.863906 -1.31812 0
M  V30 1461 C 143.144 -0.472535 -1.97218 0
M  V30 1462 C 143.477 0.971394 -1.68159 0
M  V30 1463 O 142.752 1.68309 -0.974798 0
M  V30 1464 C 143.035 -0.723054 -3.52766 0
M  V30 1465 C 142.888 -2.21608 -3.91421 0
M  V30 1466 C 144.207 -0.185522 -4.39709 0
M  V30 1467 H 141.326 -0.173158 -0.71637 0
M  V30 1468 H 143.968 -1.08403 -1.56041 0
M  V30 1469 H 142.118 -0.202577 -3.87971 0
M  V30 1470 H 143.79 -2.80334 -3.66347 0
M  V30 1471 H 142.033 -2.691 -3.40246 0
M  V30 1472 H 142.704 -2.34203 -4.99853 0
M  V30 1473 H 145.18 -0.630726 -4.11292 0
M  V30 1474 H 144.056 -0.390306 -5.47511 0
M  V30 1475 H 144.317 0.912229 -4.32586 0
M  V30 1476 N 143.376 1.44774 -0.622745 0
M  V30 1477 C 144.601 2.06999 -0.128968 0
M  V30 1478 C 145.026 1.4617 1.1839 0
M  V30 1479 O 144.384 0.560007 1.72434 0
M  V30 1480 C 144.432 3.60595 -0.0188351 0
M  V30 1481 O 143.536 3.99398 1.02739 0
M  V30 1482 H 142.877 0.659047 -0.0809544 0
M  V30 1483 H 145.407 1.85784 -0.85705 0
M  V30 1484 H 145.417 4.07627 0.174476 0
M  V30 1485 H 144.092 4.04252 -0.977384 0
M  V30 1486 H 142.669 3.64011 0.809326 0
M  V30 1487 N 144.854 0.36279 1.53368 0
M  V30 1488 C 146.102 -0.227326 2.00817 0
M  V30 1489 C 146.423 -1.49511 1.25186 0
M  V30 1490 O 145.693 -1.92482 0.364348 0
M  V30 1491 H 144.273 -0.0869923 0.741917 0
M  V30 1492 H 146.935 0.488381 1.88682 0
M  V30 1493 H 146.031 -0.456273 3.08747 0
M  V30 1494 N 146.332 -1.57332 0.0918853 0
M  V30 1495 C 147.562 -1.98286 -0.580205 0
M  V30 1496 C 147.97 -0.969713 -1.6246 0
M  V30 1497 O 147.313 0.0493501 -1.83634 0
M  V30 1498 C 147.375 -3.35603 -1.28882 0
M  V30 1499 C 147.039 -4.55285 -0.395559 0
M  V30 1500 C 148.036 -5.18687 0.355002 0
M  V30 1501 C 145.721 -5.01314 -0.314556 0
M  V30 1502 C 147.715 -6.26484 1.17458 0
M  V30 1503 C 145.402 -6.08979 0.508677 0
M  V30 1504 C 146.4 -6.71429 1.2519 0
M  V30 1505 O 146.088 -7.77018 2.06151 0
M  V30 1506 H 145.82 -0.656678 -0.160466 0
M  V30 1507 H 148.374 -2.04721 0.16688 0
M  V30 1508 H 146.604 -3.25842 -2.08241 0
M  V30 1509 H 148.293 -3.61026 -1.85512 0
M  V30 1510 H 149.059 -4.84058 0.302134 0
M  V30 1511 H 144.938 -4.5247 -0.882697 0
M  V30 1512 H 148.482 -6.75159 1.75518 0
M  V30 1513 H 144.379 -6.4304 0.563037 0
M  V30 1514 H 145.147 -7.93991 1.98799 0
M  V30 1515 N 147.81 0.181792 -1.56548 0
M  V30 1516 C 149.221 0.745244 -1.71181 0
M  V30 1517 C 149.572 1.83262 -0.70068 0
M  V30 1518 O 148.697 2.15946 0.140154 0
M  V30 1519 C 149.292 1.35859 -3.10367 0
M  V30 1520 C 147.851 1.86898 -3.2672 0
M  V30 1521 C 146.998 0.743942 -2.67134 0
M  V30 1522 H 149.949 -0.0434661 -1.5864 0
M  V30 1523 H 149.97 2.22817 -3.08436 0
M  V30 1524 H 149.482 0.566948 -3.83937 0
M  V30 1525 H 147.583 2.68738 -2.5809 0
M  V30 1526 H 147.696 2.02162 -4.34359 0
M  V30 1527 H 146.06 1.16169 -2.26665 0
M  V30 1528 H 146.843 -0.035676 -3.43281 0
M  V30 1529 N 149.288 1.51039 0.449983 0
M  V30 1530 C 150.516 1.66869 1.2232 0
M  V30 1531 C 150.931 0.360727 1.85322 0
M  V30 1532 O 150.288 -0.659531 1.70166 0
M  V30 1533 C 150.339 2.77524 2.31652 0
M  V30 1534 O 150.06 4.03252 1.7123 0
M  V30 1535 C 151.561 3.04512 3.2216 0
M  V30 1536 H 148.781 0.560326 0.369155 0
M  V30 1537 H 151.325 1.97385 0.534719 0
M  V30 1538 H 149.48 2.49642 2.96239 0
M  V30 1539 H 149.894 4.64609 2.43389 0
M  V30 1540 H 151.368 3.85551 3.95038 0
M  V30 1541 H 151.845 2.16415 3.8218 0
M  V30 1542 H 152.451 3.34005 2.63288 0
M  V30 1543 N 150.766 -0.704594 1.40972 0
M  V30 1544 C 151.696 -1.83124 1.44872 0
M  V30 1545 C 152.677 -1.67281 0.30838 0
M  V30 1546 O 153.862 -1.87149 0.518556 0
M  V30 1547 C 150.992 -3.21181 1.32136 0
M  V30 1548 C 149.946 -3.51714 2.43888 0
M  V30 1549 C 149.272 -4.89032 2.16222 0
M  V30 1550 C 150.572 -3.516 3.86232 0
M  V30 1551 H 152.266 -1.80117 2.39161 0
M  V30 1552 H 149.812 -0.865145 1.15114 0
M  V30 1553 H 151.765 -3.99702 1.33479 0
M  V30 1554 H 150.489 -3.24791 0.343279 0
M  V30 1555 H 149.148 -2.75539 2.41813 0
M  V30 1556 H 148.796 -4.89256 1.16778 0
M  V30 1557 H 148.496 -5.10426 2.911 0
M  V30 1558 H 150.02 -5.69873 2.19265 0
M  V30 1559 H 151.434 -4.2014 3.9007 0
M  V30 1560 H 149.831 -3.84523 4.60719 0
M  V30 1561 H 150.901 -2.50757 4.15029 0
M  V30 1562 N 152.244 -1.26651 -0.937939 0
M  V30 1563 C 153.191 -1.0849 -2.03712 0
M  V30 1564 C 154.161 0.011033 -1.66096 0
M  V30 1565 O 155.346 -0.149353 -1.90215 0
M  V30 1566 C 152.486 -0.72735 -3.37348 0
M  V30 1567 C 151.599 -1.89986 -3.87981 0
M  V30 1568 C 150.734 -1.48513 -5.10017 0
M  V30 1569 C 149.773 -2.62575 -5.5292 0
M  V30 1570 N 148.91 -2.21762 -6.66158 0
M  V30 1571 H 153.75 -2.02551 -2.18579 0
M  V30 1572 H 151.287 -1.00844 -1.07093 0
M  V30 1573 H 153.245 -0.50092 -4.14182 0
M  V30 1574 H 151.875 0.176298 -3.22318 0
M  V30 1575 H 150.927 -2.23913 -3.07518 0
M  V30 1576 H 152.239 -2.75586 -4.15757 0
M  V30 1577 H 151.393 -1.21934 -5.94321 0
M  V30 1578 H 150.132 -0.60009 -4.83994 0
M  V30 1579 H 149.137 -2.8988 -4.67172 0
M  V30 1580 H 150.362 -3.51685 -5.80943 0
M  V30 1581 H 148.308 -1.35696 -6.41812 0
M  V30 1582 H 148.225 -3.00903 -6.93537 0
M  V30 1583 H 149.493 -1.98403 -7.53828 0
M  V30 1584 N 153.722 1.14298 -1.08507 0
M  V30 1585 C 154.971 1.84708 -0.810305 0
M  V30 1586 C 155.284 1.83903 0.666271 0
M  V30 1587 O 156.49 2.50112 1.05624 0
M  V30 1588 C 154.946 3.31572 -1.39957 0
M  V30 1589 C 154.554 3.40791 -2.90801 0
M  V30 1590 C 156.298 4.07087 -1.20334 0
M  V30 1591 C 154.205 4.81872 -3.4286 0
M  V30 1592 H 153.135 0.691985 -0.299454 0
M  V30 1593 H 155.786 1.28841 -1.30661 0
M  V30 1594 H 154.168 3.87183 -0.830976 0
M  V30 1595 H 155.342 2.95225 -3.53806 0
M  V30 1596 H 153.657 2.78732 -3.0935 0
M  V30 1597 H 156.254 5.11225 -1.56693 0
M  V30 1598 H 156.597 4.16054 -0.143237 0
M  V30 1599 H 157.13 3.57779 -1.73893 0
M  V30 1600 H 153.869 4.78094 -4.48449 0
M  V30 1601 H 153.389 5.27972 -2.84615 0
M  V30 1602 H 155.068 5.50765 -3.39509 0
M  V30 1603 N 155.201 0.870884 1.31352 0
M  V30 1604 C 156.448 0.482273 1.96673 0
M  V30 1605 C 156.776 -0.965638 1.68836 0
M  V30 1606 O 156.031 -1.69514 0.977937 0
M  V30 1607 C 156.33 0.687157 3.50732 0
M  V30 1608 C 155.996 2.108 3.9859 0
M  V30 1609 C 154.658 2.49656 4.1137 0
M  V30 1610 C 157.01 3.03459 4.23748 0
M  V30 1611 C 154.338 3.80412 4.46659 0
M  V30 1612 C 156.69 4.3373 4.60501 0
M  V30 1613 C 155.354 4.725 4.71487 0
M  V30 1614 H 154.624 0.176476 0.719679 0
M  V30 1615 H 157.271 1.10405 1.56471 0
M  V30 1616 H 155.576 -0.0177476 3.91796 0
M  V30 1617 H 157.273 0.366284 3.99324 0
M  V30 1618 H 153.863 1.79633 3.8914 0
M  V30 1619 H 158.047 2.74665 4.13368 0
M  V30 1620 H 153.303 4.1021 4.53362 0
M  V30 1621 H 157.477 5.05578 4.78919 0
M  V30 1622 H 155.104 5.73859 4.98588 0
M  V30 1623 N 156.679 -1.44442 0.630414 0
M  V30 1624 C 158.095 -1.56832 0.295973 0
M  V30 1625 C 158.295 -1.61806 -1.20088 0
M  V30 1626 O 157.351 -1.5607 -1.9849 0
M  V30 1627 C 158.664 -2.84031 0.987264 0
M  V30 1628 C 160.212 -2.97742 0.96534 0
M  V30 1629 C 160.687 -4.27743 1.63708 0
M  V30 1630 N 162.178 -4.34555 1.60364 0
M  V30 1631 C 162.913 -5.33862 2.09234 0
M  V30 1632 N 162.409 -6.39578 2.66292 0
M  V30 1633 N 164.202 -5.25366 1.99867 0
M  V30 1634 H 156.353 -1.39457 1.60205 0
M  V30 1635 H 158.616 -0.668237 0.672431 0
M  V30 1636 H 158.322 -2.86338 2.04215 0
M  V30 1637 H 158.196 -3.73534 0.524588 0
M  V30 1638 H 160.583 -2.94989 -0.0810639 0
M  V30 1639 H 160.664 -2.09589 1.4665 0
M  V30 1640 H 160.308 -4.31255 2.68293 0
M  V30 1641 H 160.238 -5.14752 1.11076 0
M  V30 1642 H 162.729 -3.58772 1.18705 0
M  V30 1643 H 163.042 -7.11637 3.01317 0
M  V30 1644 H 161.387 -6.40265 2.70343 0
M  V30 1645 H 164.578 -4.41688 1.55013 0
M  V30 1646 H 164.751 -6.02606 2.38265 0
M  V30 1647 N 158.157 -0.370918 -1.53173 0
M  V30 1648 C 159.434 0.273754 -1.93675 0
M  V30 1649 C 159.814 1.65938 -1.3049 0
M  V30 1650 O 159.162 2.23698 -0.465999 0
M  V30 1651 C 159.372 0.318602 -3.47543 0
M  V30 1652 C 160.72 0.556392 -4.20939 0
M  V30 1653 O 161.744 0.399587 -3.53952 0
M  V30 1654 O 160.603 0.862133 -5.39657 0
M  V30 1655 H 157.697 0.165448 -0.810281 0
M  V30 1656 H 160.243 -0.42409 -1.64315 0
M  V30 1657 H 159.015 -0.652687 -3.85818 0
M  V30 1658 H 158.638 1.06212 -3.83151 0
M  V30 1659 N 159.635 1.57281 -0.100228 0
M  V30 1660 C 160.883 1.94153 0.561157 0
M  V30 1661 C 161.204 0.983157 1.68401 0
M  V30 1662 O 160.474 0.0361132 1.95867 0
M  V30 1663 H 159.054 0.716791 0.210283 0
M  V30 1664 H 161.716 1.94202 -0.164765 0
M  V30 1665 H 160.812 2.96709 0.968008 0
M  V30 1666 N 161.113 -0.173488 1.56642 0
M  V30 1667 C 162.023 -1.23482 1.99473 0
M  V30 1668 C 163.039 -1.48567 0.905752 0
M  V30 1669 O 164.215 -1.60758 1.21321 0
M  V30 1670 C 161.28 -2.55444 2.34413 0
M  V30 1671 C 160.341 -2.38241 3.57127 0
M  V30 1672 C 159.574 -3.63909 3.90392 0
M  V30 1673 O 159.797 -4.68996 3.24653 0
M  V30 1674 O 158.731 -3.58149 4.83749 0
M  V30 1675 H 162.557 -0.901279 2.90018 0
M  V30 1676 H 160.142 -0.380185 1.44482 0
M  V30 1677 H 162.024 -3.33292 2.57865 0
M  V30 1678 H 160.699 -2.88382 1.4703 0
M  V30 1679 H 159.606 -1.58431 3.38896 0
M  V30 1680 H 160.939 -2.10228 4.45045 0
M  V30 1681 N 162.591 -1.51276 -0.441967 0
M  V30 1682 C 163.501 -1.75092 -1.56141 0
M  V30 1683 C 164.517 -0.634963 -1.62001 0
M  V30 1684 O 165.693 -0.916686 -1.79329 0
M  V30 1685 C 162.758 -1.86666 -2.92158 0
M  V30 1686 C 161.819 -3.10506 -2.96453 0
M  V30 1687 C 161.052 -3.21519 -4.25982 0
M  V30 1688 O 161.275 -2.38586 -5.18105 0
M  V30 1689 O 160.209 -4.14465 -4.36466 0
M  V30 1690 H 164.035 -2.70044 -1.38961 0
M  V30 1691 H 161.62 -1.35722 -0.624499 0
M  V30 1692 H 163.502 -1.96292 -3.72891 0
M  V30 1693 H 162.177 -0.949014 -3.09476 0
M  V30 1694 H 161.084 -3.06363 -2.14692 0
M  V30 1695 H 162.417 -4.01945 -2.84079 0
M  V30 1696 N 164.069 0.697108 -1.41344 0
M  V30 1697 C 165.032 1.79281 -1.42797 0
M  V30 1698 C 166.032 1.57607 -0.318837 0
M  V30 1699 O 167.222 1.64309 -0.578642 0
M  V30 1700 C 164.354 3.17632 -1.23785 0
M  V30 1701 H 165.547 1.79385 -2.40335 0
M  V30 1702 H 163.1 0.904582 -1.27464 0
M  V30 1703 H 163.835 3.23167 -0.270814 0
M  V30 1704 H 163.62 3.34765 -2.04144 0
M  V30 1705 H 165.11 3.97617 -1.27633 0
M  V30 1706 N 165.547 1.27147 0.931209 0
M  V30 1707 C 166.795 1.13055 1.6752 0
M  V30 1708 C 167.116 -0.324791 1.92276 0
M  V30 1709 O 166.386 -1.22775 1.52654 0
M  V30 1710 H 164.966 0.415391 0.620854 0
M  V30 1711 H 167.628 1.59623 1.11833 0
M  V30 1712 H 166.724 1.65694 2.64485 0
M  V30 1713 N 167.025 -1.13721 1.09112 0
M  V30 1714 C 167.988 -2.17222 0.731241 0
M  V30 1715 C 168.988 -1.59035 -0.237566 0
M  V30 1716 O 170.178 -1.74192 -0.0161704 0
M  V30 1717 C 167.31 -3.40804 0.0808443 0
M  V30 1718 H 168.503 -2.50573 1.64783 0
M  V30 1719 H 166.056 -1.28493 0.889897 0
M  V30 1720 H 166.791 -3.1304 -0.847127 0
M  V30 1721 H 166.576 -3.84306 0.777896 0
M  V30 1722 H 168.066 -4.1731 -0.155657 0
M  V30 1723 N 168.503 -0.877838 -1.30888 0
M  V30 1724 C 169.733 -0.506678 -2.00291 0
M  V30 1725 C 170.141 0.907449 -1.66018 0
M  V30 1726 O 169.484 1.60719 -0.88967 0
M  V30 1727 C 169.546 -0.59323 -3.54572 0
M  V30 1728 C 169.21 -1.97038 -4.12341 0
M  V30 1729 C 170.207 -2.93889 -4.28865 0
M  V30 1730 C 167.892 -2.27383 -4.47886 0
M  V30 1731 C 169.886 -4.19224 -4.80136 0
M  V30 1732 C 167.573 -3.52965 -4.98857 0
M  V30 1733 C 168.571 -4.48701 -5.14934 0
M  V30 1734 O 168.259 -5.72056 -5.64808 0
M  V30 1735 H 167.991 -0.1951 -0.647234 0
M  V30 1736 H 170.545 -1.18301 -1.6791 0
M  V30 1737 H 168.775 0.140057 -3.86446 0
M  V30 1738 H 170.464 -0.234372 -4.05223 0
M  V30 1739 H 171.23 -2.71756 -4.01714 0
M  V30 1740 H 167.109 -1.53639 -4.34645 0
M  V30 1741 H 170.653 -4.93956 -4.92599 0
M  V30 1742 H 166.55 -3.74939 -5.25443 0
M  V30 1743 H 167.318 -5.74337 -5.83163 0
M  V30 1744 N 169.982 1.44106 -0.638065 0
M  V30 1745 C 171.259 1.95453 -0.0759321 0
M  V30 1746 C 171.639 1.57984 1.40015 0
M  V30 1747 O 170.987 0.857361 2.11806 0
M  V30 1748 C 171.197 3.47655 -0.306132 0
M  V30 1749 C 172.545 4.24114 -0.203008 0
M  V30 1750 O 173.569 3.55405 -0.237871 0
M  V30 1751 O 172.428 5.46381 -0.113827 0
M  V30 1752 H 169.522 0.826797 0.0183332 0
M  V30 1753 H 172.068 1.54122 -0.710251 0
M  V30 1754 H 170.84 3.68 -1.3301 0
M  V30 1755 H 170.463 3.95949 0.361991 0
M  V30 1756 N 171.46 0.379036 1.52974 0
M  V30 1757 C 172.708 -0.206014 2.01047 0
M  V30 1758 C 173.029 -1.48175 1.26765 0
M  V30 1759 O 172.299 -1.92085 0.384743 0
M  V30 1760 H 170.879 -0.0791184 0.742798 0
M  V30 1761 H 173.541 0.508366 1.88153 0
M  V30 1762 H 172.637 -0.423501 3.09213 0
M  V30 1763 N 172.938 -1.57226 0.108567 0
M  V30 1764 C 174.349 -1.8195 -0.418464 0
M  V30 1765 C 174.7 -1.02508 -1.67292 0
M  V30 1766 O 173.825 -0.258496 -2.14851 0
M  V30 1767 C 174.42 -3.30028 -0.765979 0
M  V30 1768 C 172.979 -3.55469 -1.23769 0
M  V30 1769 C 172.126 -2.7625 -0.241106 0
M  V30 1770 H 175.077 -1.55149 0.33384 0
M  V30 1771 H 175.098 -3.44086 -1.62434 0
M  V30 1772 H 174.61 -3.87821 0.147219 0
M  V30 1773 H 172.711 -3.03022 -2.16814 0
M  V30 1774 H 172.824 -4.6408 -1.19022 0
M  V30 1775 H 171.188 -2.44133 -0.72602 0
M  V30 1776 H 171.971 -3.36797 0.665007 0
M  V30 1777 N 174.416 0.165178 -1.56732 0
M  V30 1778 C 175.832 0.517174 -1.50988 0
M  V30 1779 C 176.032 1.84331 -0.813894 0
M  V30 1780 O 175.088 2.49672 -0.37682 0
M  V30 1781 C 176.401 0.544261 -2.95733 0
M  V30 1782 C 177.949 0.631039 -3.06573 0
M  V30 1783 C 178.424 0.68896 -4.52788 0
M  V30 1784 N 179.915 0.751683 -4.5706 0
M  V30 1785 C 180.65 0.817177 -5.67547 0
M  V30 1786 N 180.146 0.843129 -6.8765 0
M  V30 1787 N 181.939 0.856668 -5.55534 0
M  V30 1788 H 174.09 -0.704318 -2.00382 0
M  V30 1789 H 176.353 -0.254687 -0.913148 0
M  V30 1790 H 176.059 -0.361607 -3.49836 0
M  V30 1791 H 175.933 1.3886 -3.5071 0
M  V30 1792 H 178.32 1.52733 -2.52501 0
M  V30 1793 H 178.401 -0.240095 -2.54671 0
M  V30 1794 H 178.045 -0.2031 -5.07494 0
M  V30 1795 H 177.975 1.57633 -5.02454 0
M  V30 1796 H 180.466 0.739661 -3.70591 0
M  V30 1797 H 180.779 0.894448 -7.67606 0
M  V30 1798 H 179.124 0.811304 -6.90248 0
M  V30 1799 H 182.315 0.833437 -4.60621 0
M  V30 1800 H 182.488 0.904247 -6.4166 0
M  V30 1801 N 175.894 1.51508 0.433938 0
M  V30 1802 C 177.122 1.68157 1.20543 0
M  V30 1803 C 177.537 0.380362 1.84929 0
M  V30 1804 O 176.894 -0.641446 1.70856 0
M  V30 1805 C 176.945 2.79965 2.28696 0
M  V30 1806 O 176.666 4.05045 1.66943 0
M  V30 1807 C 178.167 3.07912 3.18912 0
M  V30 1808 H 175.387 0.56421 0.363191 0
M  V30 1809 H 177.931 1.97941 0.513754 0
M  V30 1810 H 176.086 2.5277 2.93574 0
M  V30 1811 H 176.5 4.67165 2.38448 0
M  V30 1812 H 177.974 3.89719 3.90926 0
M  V30 1813 H 178.451 2.20456 3.79863 0
M  V30 1814 H 179.057 3.36779 2.59731 0
M  V30 1815 N 177.372 -0.689602 1.41712 0
M  V30 1816 C 178.335 -1.78521 1.43746 0
M  V30 1817 C 179.335 -1.57436 0.327191 0
M  V30 1818 O 180.525 -1.64 0.587348 0
M  V30 1819 C 177.657 -3.16971 1.25467 0
M  V30 1820 H 178.85 -1.78108 2.41283 0
M  V30 1821 H 176.403 -0.89781 1.27942 0
M  V30 1822 H 177.138 -3.23019 0.287948 0
M  V30 1823 H 176.923 -3.33678 2.05917 0
M  V30 1824 H 178.413 -3.96935 1.2974 0
M  V30 1825 N 178.85 -1.27639 -0.924453 0
M  V30 1826 C 180.127 -1.04887 -1.651 0
M  V30 1827 C 180.507 0.415327 -2.06974 0
M  V30 1828 O 179.855 1.39923 -1.80648 0
M  V30 1829 C 180.065 -2.01348 -2.85061 0
M  V30 1830 C 181.413 -2.30899 -3.56329 0
M  V30 1831 O 182.437 -1.99348 -2.95193 0
M  V30 1832 O 181.296 -2.84699 -4.66485 0
M  V30 1833 H 178.39 -0.400083 -0.723784 0
M  V30 1834 H 180.936 -1.38916 -0.974703 0
M  V30 1835 H 179.708 -3.0008 -2.51133 0
M  V30 1836 H 179.331 -1.679 -3.6041 0
M  V30 1837 N 180.328 1.1314 -1.09713 0
M  V30 1838 C 181.576 1.84119 -0.833338 0
M  V30 1839 C 181.897 1.84097 0.642904 0
M  V30 1840 O 181.167 1.29881 1.46655 0
M  V30 1841 H 179.747 0.681766 -0.305293 0
M  V30 1842 H 182.409 1.37038 -1.38588 0
M  V30 1843 H 181.505 2.88543 -1.18951 0
M  V30 1844 N 181.806 0.884767 1.30421 0
M  V30 1845 C 183.055 0.499164 1.95426 0
M  V30 1846 C 183.368 -0.95645 1.70621 0
M  V30 1847 O 184.574 -1.44889 2.29607 0
M  V30 1848 C 183.03 0.84177 3.49917 0
M  V30 1849 C 182.638 2.31514 3.83543 0
M  V30 1850 C 184.382 0.525355 4.21237 0
M  V30 1851 C 182.289 2.59939 5.31212 0
M  V30 1852 H 181.219 0.182944 0.73147 0
M  V30 1853 H 183.87 1.07971 1.48373 0
M  V30 1854 H 182.252 0.190311 3.95542 0
M  V30 1855 H 183.426 3.0109 3.48829 0
M  V30 1856 H 181.741 2.59907 3.25326 0
M  V30 1857 H 184.338 0.714762 5.29901 0
M  V30 1858 H 184.681 -0.535222 4.12845 0
M  V30 1859 H 185.214 1.134 3.81294 0
M  V30 1860 H 181.953 3.64736 5.44654 0
M  V30 1861 H 181.473 1.94972 5.67227 0
M  V30 1862 H 183.152 2.45429 5.98643 0
M  V30 1863 N 183.284 -1.43765 0.645699 0
M  V30 1864 C 184.53 -2.02197 0.156271 0
M  V30 1865 C 184.863 -1.50776 -1.22393 0
M  V30 1866 O 184.138 -0.697771 -1.81553 0
M  V30 1867 C 184.421 -3.59749 0.158872 0
M  V30 1868 C 184.274 -4.21419 1.57245 0
M  V30 1869 C 185.593 -4.37149 -0.50879 0
M  V30 1870 H 182.712 -0.734694 0.0582602 0
M  V30 1871 H 185.354 -1.71157 0.824951 0
M  V30 1872 H 183.504 -3.86325 -0.410525 0
M  V30 1873 H 185.176 -4.059 2.19186 0
M  V30 1874 H 183.419 -3.78356 2.122 0
M  V30 1875 H 184.09 -5.30482 1.52619 0
M  V30 1876 H 186.566 -4.16093 -0.024412 0
M  V30 1877 H 185.442 -5.4683 -0.476213 0
M  V30 1878 H 185.703 -4.12839 -1.58165 0
M  V30 1879 N 184.763 -0.387143 -1.52771 0
M  V30 1880 C 185.988 0.198407 -2.06449 0
M  V30 1881 C 186.413 1.39918 -1.25716 0
M  V30 1882 O 185.771 1.79099 -0.281657 0
M  V30 1883 C 185.819 0.548893 -3.56398 0
M  V30 1884 O 184.923 1.64315 -3.78252 0
M  V30 1885 H 184.264 0.0237731 -0.663574 0
M  V30 1886 H 186.794 -0.553989 -1.96957 0
M  V30 1887 H 186.804 0.813812 -3.99801 0
M  V30 1888 H 185.479 -0.329005 -4.14597 0
M  V30 1889 H 184.056 1.37211 -3.46738 0
M  V30 1890 N 186.241 1.57166 -0.116904 0
M  V30 1891 C 187.191 2.11756 0.845178 0
M  V30 1892 C 188.175 1.03783 1.22955 0
M  V30 1893 O 189.367 1.3002 1.20099 0
M  V30 1894 C 186.496 2.71886 2.09602 0
M  V30 1895 C 185.582 3.86937 1.7361 0
M  V30 1896 N 185.973 4.94073 1.08284 0
M  V30 1897 C 184.271 3.97082 2.03082 0
M  V30 1898 C 184.972 5.74477 0.913855 0
M  V30 1899 N 183.948 5.2423 1.43818 0
M  V30 1900 H 187.75 2.91967 0.336523 0
M  V30 1901 H 185.264 1.62174 0.0856332 0
M  V30 1902 H 187.261 3.09338 2.79492 0
M  V30 1903 H 185.921 1.93138 2.61013 0
M  V30 1904 H 186.932 5.12483 0.747067 0
M  V30 1905 H 183.609 3.29372 2.56554 0
M  V30 1906 H 184.999 6.70701 0.40125 0
M  V30 1907 N 187.719 -0.156864 1.56817 0
M  V30 1908 C 188.649 -1.19589 2.00551 0
M  V30 1909 C 189.63 -1.4536 0.883426 0
M  V30 1910 O 190.815 -1.56449 1.15054 0
M  V30 1911 C 187.945 -2.53143 2.37773 0
M  V30 1912 C 186.899 -2.41913 3.53075 0
M  V30 1913 C 186.225 -3.80088 3.76081 0
M  V30 1914 C 187.525 -1.91157 4.86062 0
M  V30 1915 H 189.219 -0.832293 2.87599 0
M  V30 1916 H 186.765 -0.398918 1.38364 0
M  V30 1917 H 188.718 -3.26047 2.66967 0
M  V30 1918 H 187.442 -2.91319 1.4765 0
M  V30 1919 H 186.101 -1.71462 3.24031 0
M  V30 1920 H 185.749 -4.15683 2.83225 0
M  V30 1921 H 185.449 -3.73439 4.53671 0
M  V30 1922 H 186.973 -4.54556 4.0769 0
M  V30 1923 H 188.387 -2.53846 5.14038 0
M  V30 1924 H 186.784 -1.95422 5.67389 0
M  V30 1925 H 187.854 -0.866673 4.77092 0
M  V30 1926 N 189.197 -1.51736 -0.425897 0
M  V30 1927 C 190.144 -1.73875 -1.51776 0
M  V30 1928 C 191.114 -0.580702 -1.55618 0
M  V30 1929 O 192.299 -0.81641 -1.72451 0
M  V30 1930 C 189.439 -1.88012 -2.89388 0
M  V30 1931 C 188.552 -3.15606 -2.94986 0
M  V30 1932 C 187.687 -3.20271 -4.23793 0
M  V30 1933 C 186.726 -4.42134 -4.23302 0
M  V30 1934 N 185.863 -4.44284 -5.43651 0
M  V30 1935 H 190.703 -2.67071 -1.32201 0
M  V30 1936 H 188.24 -1.32351 -0.642008 0
M  V30 1937 H 190.198 -1.9419 -3.69251 0
M  V30 1938 H 188.828 -0.98213 -3.07496 0
M  V30 1939 H 187.88 -3.18681 -2.07717 0
M  V30 1940 H 189.192 -4.05486 -2.90486 0
M  V30 1941 H 188.346 -3.25428 -5.12036 0
M  V30 1942 H 187.085 -2.28299 -4.30965 0
M  V30 1943 H 186.09 -4.3714 -3.3345 0
M  V30 1944 H 187.315 -5.35382 -4.17783 0
M  V30 1945 H 185.261 -3.55188 -5.51523 0
M  V30 1946 H 185.178 -5.27988 -5.41078 0
M  V30 1947 H 186.446 -4.53649 -6.33895 0
M  V30 1948 N 190.675 0.682077 -1.42076 0
M  V30 1949 C 191.622 1.79578 -1.44984 0
M  V30 1950 C 192.592 1.6332 -0.302614 0
M  V30 1951 O 193.777 1.83978 -0.505633 0
M  V30 1952 C 190.917 3.1756 -1.35091 0
M  V30 1953 C 190.03 3.45156 -2.59791 0
M  V30 1954 C 189.165 4.72826 -2.42093 0
M  V30 1955 C 188.204 4.93433 -3.62202 0
M  V30 1956 N 187.341 6.12338 -3.43491 0
M  V30 1957 H 192.181 1.76427 -2.40161 0
M  V30 1958 H 189.718 0.861376 -1.19242 0
M  V30 1959 H 191.676 3.97287 -1.27354 0
M  V30 1960 H 190.306 3.19854 -0.435133 0
M  V30 1961 H 189.358 2.59736 -2.77923 0
M  V30 1962 H 190.67 3.5628 -3.49094 0
M  V30 1963 H 189.824 5.60631 -2.319 0
M  V30 1964 H 188.563 4.63973 -1.50268 0
M  V30 1965 H 187.568 4.04073 -3.72834 0
M  V30 1966 H 188.793 5.04136 -4.54998 0
M  V30 1967 H 186.739 6.04672 -2.54377 0
M  V30 1968 H 186.656 6.2429 -4.26377 0
M  V30 1969 H 187.924 7.02841 -3.37097 0
M  V30 1970 N 192.153 1.28127 0.917671 0
M  V30 1971 C 193.085 1.07517 2.02417 0
M  V30 1972 C 194.098 0.0281099 1.62776 0
M  V30 1973 O 195.287 0.270748 1.76435 0
M  V30 1974 C 192.387 0.610957 3.33347 0
M  V30 1975 C 191.56 1.73255 4.01624 0
M  V30 1976 C 190.619 1.26238 5.10833 0
M  V30 1977 O 189.645 1.96389 5.34247 0
M  V30 1978 N 190.847 0.123448 5.80369 0
M  V30 1979 H 193.612 2.02806 2.20658 0
M  V30 1980 H 191.173 1.19827 1.08871 0
M  V30 1981 H 193.165 0.280101 4.0373 0
M  V30 1982 H 191.735 -0.24898 3.11607 0
M  V30 1983 H 190.955 2.23319 3.24842 0
M  V30 1984 H 192.243 2.48503 4.43986 0
M  V30 1985 H 191.641 -0.461847 5.63812 0
M  V30 1986 H 190.198 -0.148158 6.51632 0
M  V30 1987 N 193.631 -1.12557 1.10312 0
M  V30 1988 C 194.594 -2.16434 0.75424 0
M  V30 1989 C 195.594 -1.59278 -0.220685 0
M  V30 1990 O 196.784 -1.742 0.00230591 0
M  V30 1991 C 193.916 -3.40699 0.116987 0
M  V30 1992 H 195.109 -2.48811 1.67431 0
M  V30 1993 H 192.662 -1.27542 0.903475 0
M  V30 1994 H 193.397 -3.13921 -0.813877 0
M  V30 1995 H 193.182 -3.83459 0.818613 0
M  V30 1996 H 194.672 -4.17451 -0.111387 0
M  V30 1997 N 195.109 -0.891671 -1.2995 0
M  V30 1998 C 196.357 -0.512486 -1.95494 0
M  V30 1999 C 196.678 0.942776 -1.70695 0
M  V30 2000 O 195.948 1.66374 -1.03424 0
M  V30 2001 H 194.528 -0.186533 -0.723336 0
M  V30 2002 H 197.19 -1.13621 -1.58355 0
M  V30 2003 H 196.286 -0.688342 -3.04415 0
M  V30 2004 N 196.587 1.43421 -0.653314 0
M  V30 2005 C 197.998 1.85065 -0.246537 0
M  V30 2006 C 198.349 1.54688 1.2069 0
M  V30 2007 O 197.474 0.995896 1.92122 0
M  V30 2008 C 198.069 3.35922 -0.440666 0
M  V30 2009 C 196.628 3.76297 -0.0882064 0
M  V30 2010 C 195.775 2.67147 -0.743484 0
M  V30 2011 H 198.726 1.33572 -0.856979 0
M  V30 2012 H 198.747 3.79204 0.313798 0
M  V30 2013 H 198.259 3.58 -1.49858 0
M  V30 2014 H 196.36 3.5983 0.96711 0
M  V30 2015 H 196.473 4.76338 -0.513738 0
M  V30 2016 H 194.837 2.54086 -0.176712 0
M  V30 2017 H 195.62 2.92053 -1.80443 0
M  V30 2018 N 198.065 0.39524 1.52563 0
M  V30 2019 C 199.028 -0.425001 2.25225 0
M  V30 2020 C 200.028 -0.985266 1.27079 0
M  V30 2021 O 201.218 -0.866332 1.5113 0
M  V30 2022 C 198.35 -1.59686 3.01186 0
M  V30 2023 H 199.543 0.211233 2.99155 0
M  V30 2024 H 197.096 0.147472 1.55603 0
M  V30 2025 H 197.831 -2.27035 2.31572 0
M  V30 2026 H 197.616 -1.20176 3.73229 0
M  V30 2027 H 199.106 -2.17743 3.5634 0
M  V30 2028 N 199.544 -1.57102 0.125237 0
M  V30 2029 C 200.769 -2.0019 -0.542101 0
M  V30 2030 C 201.194 -1.00449 -1.59034 0
M  V30 2031 O 200.552 0.0229423 -1.81285 0
M  V30 2032 C 200.6 -3.42129 -1.13929 0
M  V30 2033 O 199.704 -3.45307 -2.2547 0
M  V30 2034 H 199.045 -0.650171 -0.134812 0
M  V30 2035 H 201.575 -2.03461 0.215553 0
M  V30 2036 H 201.585 -3.80471 -1.4733 0
M  V30 2037 H 200.26 -4.14237 -0.371531 0
M  V30 2038 H 198.837 -3.1879 -1.93462 0
M  V30 2039 N 201.022 0.148545 -1.56898 0
M  V30 2040 C 202.268 0.862694 -1.83536 0
M  V30 2041 C 202.601 1.80889 -0.706604 0
M  V30 2042 O 201.876 1.92328 0.289885 0
M  V30 2043 C 202.159 1.63853 -3.20662 0
M  V30 2044 C 202.012 0.713925 -4.44098 0
M  V30 2045 C 203.331 2.60133 -3.54991 0
M  V30 2046 H 200.45 0.312179 -0.667618 0
M  V30 2047 H 203.092 0.127953 -1.89569 0
M  V30 2048 H 201.242 2.26489 -3.1565 0
M  V30 2049 H 202.914 0.098686 -4.61194 0
M  V30 2050 H 201.157 0.0234019 -4.33794 0
M  V30 2051 H 201.828 1.29278 -5.36648 0
M  V30 2052 H 204.304 2.07616 -3.60603 0
M  V30 2053 H 203.18 3.11468 -4.51972 0
M  V30 2054 H 203.441 3.41417 -2.80868 0
M  V30 2055 N 202.5 1.5196 0.417844 0
M  V30 2056 C 203.911 1.57851 0.997 0
M  V30 2057 C 204.262 0.413714 1.91789 0
M  V30 2058 O 203.387 -0.467057 2.113 0
M  V30 2059 C 203.982 2.86085 1.81496 0
M  V30 2060 C 202.541 2.94483 2.34428 0
M  V30 2061 C 201.688 2.52707 1.14169 0
M  V30 2062 H 204.639 1.57455 0.198392 0
M  V30 2063 H 204.66 2.70947 2.67148 0
M  V30 2064 H 204.172 3.70842 1.14446 0
M  V30 2065 H 202.273 2.142 3.04875 0
M  V30 2066 H 202.386 3.98546 2.65891 0
M  V30 2067 H 200.75 2.06353 1.49301 0
M  V30 2068 H 201.533 3.39828 0.486999 0
M  V30 2069 N 203.978 -0.674533 1.42435 0
M  V30 2070 C 204.908 -1.80009 1.48724 0
M  V30 2071 C 205.889 -1.6659 0.343793 0
M  V30 2072 O 207.074 -1.86007 0.558137 0
M  V30 2073 C 204.204 -3.18306 1.38919 0
M  V30 2074 C 203.158 -3.46461 2.51294 0
M  V30 2075 C 202.484 -4.84335 2.26547 0
M  V30 2076 C 203.784 -3.43328 3.93603 0
M  V30 2077 H 205.478 -1.75004 2.42928 0
M  V30 2078 H 203.024 -0.840533 1.16923 0
M  V30 2079 H 204.977 -3.9678 1.41927 0
M  V30 2080 H 203.701 -3.2399 0.412094 0
M  V30 2081 H 202.36 -2.70348 2.47604 0
M  V30 2082 H 202.008 -4.86669 1.2713 0
M  V30 2083 H 201.708 -5.04136 3.01861 0
M  V30 2084 H 203.232 -5.65094 2.31304 0
M  V30 2085 H 204.646 -4.11772 3.98894 0
M  V30 2086 H 203.043 -3.74664 4.68771 0
M  V30 2087 H 204.113 -2.41897 4.20255 0
M  V30 2088 N 205.456 -1.28612 -0.910864 0
M  V30 2089 C 206.872 -1.06381 -1.18976 0
M  V30 2090 C 207.072 0.191998 -2.00583 0
M  V30 2091 O 206.128 0.892869 -2.36187 0
M  V30 2092 C 207.441 -2.31295 -1.92154 0
M  V30 2093 C 208.989 -2.36503 -2.05025 0
M  V30 2094 C 209.464 -3.61191 -2.81612 0
M  V30 2095 N 210.955 -3.61847 -2.89172 0
M  V30 2096 C 211.69 -4.55004 -3.4894 0
M  V30 2097 N 211.186 -5.58482 -4.09963 0
M  V30 2098 N 212.979 -4.42594 -3.46506 0
M  V30 2099 H 205.13 -2.09221 -0.366094 0
M  V30 2100 H 207.393 -0.921003 -0.224629 0
M  V30 2101 H 207.099 -3.228 -1.39618 0
M  V30 2102 H 206.973 -2.37934 -2.9269 0
M  V30 2103 H 209.36 -1.45494 -2.5674 0
M  V30 2104 H 209.441 -2.33857 -1.03657 0
M  V30 2105 H 209.085 -4.52545 -2.30576 0
M  V30 2106 H 209.015 -3.61092 -3.83302 0
M  V30 2107 H 211.506 -2.87022 -2.45819 0
M  V30 2108 H 211.819 -6.25704 -4.53557 0
M  V30 2109 H 210.164 -5.62305 -4.08459 0
M  V30 2110 H 213.355 -3.60953 -2.98045 0
M  V30 2111 H 213.528 -5.15381 -3.92793 0
M  V30 2112 N 206.934 1.1197 -1.10907 0
M  V30 2113 C 208.162 1.87402 -0.876824 0
M  V30 2114 C 208.577 1.79894 0.573025 0
M  V30 2115 O 207.934 1.17629 1.39534 0
M  V30 2116 C 207.985 3.36428 -1.32282 0
M  V30 2117 O 207.706 3.43765 -2.71582 0
M  V30 2118 C 209.207 4.28783 -1.12518 0
M  V30 2119 H 206.427 0.592793 -0.314384 0
M  V30 2120 H 208.971 1.41649 -1.47499 0
M  V30 2121 H 207.126 3.79706 -0.768229 0
M  V30 2122 H 207.54 4.3652 -2.90776 0
M  V30 2123 H 209.014 5.31613 -1.48633 0
M  V30 2124 H 209.491 4.39153 -0.0642394 0
M  V30 2125 H 210.097 3.91291 -1.66648 0
M  V30 2126 N 208.412 0.89855 1.29475 0
M  V30 2127 C 209.322 0.379974 2.31502 0
M  V30 2128 C 210.338 -0.524695 1.659 0
M  V30 2129 O 211.514 -0.414551 1.97087 0
M  V30 2130 C 208.579 -0.385138 3.44554 0
M  V30 2131 C 207.64 0.550914 4.2575 0
M  V30 2132 C 206.873 -0.177778 5.33404 0
M  V30 2133 O 207.096 -1.40189 5.52904 0
M  V30 2134 O 206.03 0.479106 5.9999 0
M  V30 2135 H 209.856 1.22639 2.77837 0
M  V30 2136 H 207.441 0.662834 1.33891 0
M  V30 2137 H 209.323 -0.817841 4.13388 0
M  V30 2138 H 207.998 -1.20763 3.0033 0
M  V30 2139 H 206.905 1.03271 3.59564 0
M  V30 2140 H 208.238 1.33979 4.73614 0
M  V30 2141 N 209.89 -1.43072 0.660911 0
M  V30 2142 C 210.8 -2.34585 -0.0264163 0
M  V30 2143 C 211.816 -1.54316 -0.803898 0
M  V30 2144 O 212.992 -1.86939 -0.749391 0
M  V30 2145 C 210.057 -3.32689 -0.975639 0
M  V30 2146 C 209.118 -4.2886 -0.194236 0
M  V30 2147 C 208.351 -5.22278 -1.09825 0
M  V30 2148 O 208.574 -5.20299 -2.33763 0
M  V30 2149 O 207.508 -5.99228 -0.566513 0
M  V30 2150 H 211.334 -2.94869 0.727034 0
M  V30 2151 H 208.919 -1.43342 0.42111 0
M  V30 2152 H 210.801 -3.92995 -1.52094 0
M  V30 2153 H 209.476 -2.74898 -1.70918 0
M  V30 2154 H 208.383 -3.72011 0.394835 0
M  V30 2155 H 209.716 -4.89655 0.499899 0
M  V30 2156 N 211.368 -0.403325 -1.52352 0
M  V30 2157 C 212.278 0.432009 -2.30588 0
M  V30 2158 C 213.294 1.05884 -1.38075 0
M  V30 2159 O 214.47 1.06161 -1.71148 0
M  V30 2160 C 211.535 1.53669 -3.10784 0
M  V30 2161 C 210.596 0.933525 -4.19027 0
M  V30 2162 C 209.829 1.98557 -4.9539 0
M  V30 2163 O 210.052 3.20283 -4.71991 0
M  V30 2164 O 208.986 1.59504 -5.80381 0
M  V30 2165 H 212.812 -0.205739 -3.03002 0
M  V30 2166 H 210.397 -0.166675 -1.48467 0
M  V30 2167 H 212.279 2.17814 -3.60742 0
M  V30 2168 H 210.954 2.15915 -2.41169 0
M  V30 2169 H 209.861 0.254954 -3.7323 0
M  V30 2170 H 211.194 0.35508 -4.90918 0
M  V30 2171 N 212.846 1.57033 -0.133567 0
M  V30 2172 C 214.093 1.95686 0.520877 0
M  V30 2173 C 214.421 1.0177 1.6575 0
M  V30 2174 O 213.676 0.0443195 1.9565 0
M  V30 2175 C 213.975 3.40674 1.08057 0
M  V30 2176 C 213.641 4.50855 0.0637899 0
M  V30 2177 C 212.303 4.80716 -0.215757 0
M  V30 2178 C 214.655 5.17398 -0.62835 0
M  V30 2179 C 211.983 5.74433 -1.19348 0
M  V30 2180 C 214.335 6.12167 -1.5948 0
M  V30 2181 C 212.999 6.40414 -1.88218 0
M  V30 2182 H 212.269 0.716067 0.190602 0
M  V30 2183 H 214.916 1.9026 -0.217556 0
M  V30 2184 H 213.221 3.42865 1.89606 0
M  V30 2185 H 214.918 3.67902 1.59529 0
M  V30 2186 H 211.508 4.27605 0.291855 0
M  V30 2187 H 215.692 4.94472 -0.425562 0
M  V30 2188 H 210.948 5.94616 -1.42272 0
M  V30 2189 H 215.122 6.6281 -2.13671 0
M  V30 2190 H 212.749 7.12838 -2.64133 0
M  V30 2191 N 214.325 -0.140222 1.56975 0
M  V30 2192 C 215.272 -1.17292 1.98774 0
M  V30 2193 C 216.242 -1.4232 0.856408 0
M  V30 2194 O 217.427 -1.54541 1.119 0
M  V30 2195 C 214.567 -2.49973 2.37923 0
M  V30 2196 C 213.68 -2.32062 3.64378 0
M  V30 2197 C 212.815 -3.57825 3.926 0
M  V30 2198 C 211.854 -3.3498 5.12303 0
M  V30 2199 N 210.991 -4.52891 5.36502 0
M  V30 2200 H 215.831 -0.809472 2.86795 0
M  V30 2201 H 213.368 -0.388237 1.41884 0
M  V30 2202 H 215.326 -3.27346 2.58652 0
M  V30 2203 H 213.956 -2.84252 1.52972 0
M  V30 2204 H 213.008 -1.45711 3.51387 0
M  V30 2205 H 214.32 -2.11145 4.51906 0
M  V30 2206 H 213.474 -4.43624 4.13863 0
M  V30 2207 H 212.213 -3.81753 3.03506 0
M  V30 2208 H 211.218 -2.4757 4.90906 0
M  V30 2209 H 212.443 -3.12444 6.02956 0
M  V30 2210 H 210.389 -4.76979 4.50363 0
M  V30 2211 H 210.306 -4.35001 6.18312 0
M  V30 2212 H 211.574 -5.39884 5.62268 0
M  V30 2213 N 215.803 -1.52179 -0.40978 0
M  V30 2214 C 216.75 -1.75475 -1.49924 0
M  V30 2215 C 217.72 -0.597175 -1.54994 0
M  V30 2216 O 218.905 -0.834655 -1.71575 0
M  V30 2217 C 216.045 -1.9107 -2.87378 0
M  V30 2218 C 215.158 -3.18717 -2.91622 0
M  V30 2219 C 214.293 -3.24747 -4.20372 0
M  V30 2220 C 213.332 -4.46598 -4.18588 0
M  V30 2221 N 212.469 -4.50025 -5.38908 0
M  V30 2222 H 217.309 -2.68458 -1.29361 0
M  V30 2223 H 214.846 -1.33024 -0.627934 0
M  V30 2224 H 216.804 -1.98096 -3.6717 0
M  V30 2225 H 215.434 -1.01469 -3.06437 0
M  V30 2226 H 214.486 -3.20866 -2.04326 0
M  V30 2227 H 215.798 -4.08544 -2.86169 0
M  V30 2228 H 214.952 -3.30841 -5.08556 0
M  V30 2229 H 213.691 -2.32857 -4.28519 0
M  V30 2230 H 212.696 -4.40652 -3.28794 0
M  V30 2231 H 213.921 -5.39783 -4.12081 0
M  V30 2232 H 211.867 -3.61017 -5.47725 0
M  V30 2233 H 211.784 -5.33697 -5.35447 0
M  V30 2234 H 213.052 -4.60347 -6.29048 0
M  V30 2235 N 217.281 0.66697 -1.42791 0
M  V30 2236 C 218.528 1.42699 -1.43678 0
M  V30 2237 C 218.856 1.94419 -0.0560425 0
M  V30 2238 O 218.111 1.7182 0.936831 0
M  V30 2239 C 218.41 2.6349 -2.4147 0
M  V30 2240 C 218.076 2.30267 -3.8767 0
M  V30 2241 C 216.738 2.20918 -4.27491 0
M  V30 2242 C 219.09 2.03435 -4.79858 0
M  V30 2243 C 216.418 1.82873 -5.57471 0
M  V30 2244 C 218.77 1.66892 -6.10188 0
M  V30 2245 C 217.434 1.56058 -6.49001 0
M  V30 2246 H 216.704 0.522171 -0.525755 0
M  V30 2247 H 219.351 0.759785 -1.75783 0
M  V30 2248 H 217.656 3.35279 -2.0272 0
M  V30 2249 H 219.353 3.21684 -2.39417 0
M  V30 2250 H 215.943 2.38449 -3.56146 0
M  V30 2251 H 220.127 2.09586 -4.49875 0
M  V30 2252 H 215.383 1.7306 -5.86396 0
M  V30 2253 H 219.557 1.45157 -6.81104 0
M  V30 2254 H 217.184 1.26348 -7.49627 0
M  V30 2255 N 218.759 1.29093 0.90403 0
M  V30 2256 C 220.008 1.16187 1.64874 0
M  V30 2257 C 220.321 -0.286742 1.93487 0
M  V30 2258 O 221.527 -0.537062 2.66135 0
M  V30 2259 C 219.983 2.03177 2.97064 0
M  V30 2260 C 219.591 3.52836 2.76062 0
M  V30 2261 C 221.335 1.98984 3.74974 0
M  V30 2262 C 219.242 4.31945 4.03952 0
M  V30 2263 H 218.172 0.431246 0.618501 0
M  V30 2264 H 220.823 1.53699 1.00243 0
M  V30 2265 H 219.205 1.5853 3.62883 0
M  V30 2266 H 220.379 4.05507 2.18863 0
M  V30 2267 H 218.694 3.58656 2.11553 0
M  V30 2268 H 221.291 2.55351 4.69787 0
M  V30 2269 H 221.634 0.968815 4.0487 0
M  V30 2270 H 222.167 2.41652 3.15989 0
M  V30 2271 H 218.906 5.34667 3.79225 0
M  V30 2272 H 218.426 3.84045 4.60727 0
M  V30 2273 H 220.105 4.42379 4.72133 0
M  V30 2274 N 220.237 -1.11381 1.11499 0
M  V30 2275 C 221.462 -1.87475 0.887019 0
M  V30 2276 C 221.887 -1.79639 -0.557796 0
M  V30 2277 O 221.245 -1.15924 -1.39396 0
M  V30 2278 C 221.293 -3.34213 1.35403 0
M  V30 2279 O 220.397 -4.0903 0.526146 0
M  V30 2280 H 219.738 -0.582099 0.319463 0
M  V30 2281 H 222.268 -1.40785 1.48461 0
M  V30 2282 H 222.278 -3.8506 1.34881 0
M  V30 2283 H 220.953 -3.39232 2.40612 0
M  V30 2284 H 219.53 -3.68082 0.597522 0
M  V30 2285 N 221.715 -0.905404 -1.28997 0
M  V30 2286 C 222.992 -0.453513 -1.9027 0
M  V30 2287 C 223.372 1.06721 -1.82137 0
M  V30 2288 O 222.72 1.91159 -1.25182 0
M  V30 2289 C 222.93 -0.974494 -3.35119 0
M  V30 2290 C 224.278 -1.0216 -4.12127 0
M  V30 2291 O 225.302 -0.922557 -3.44046 0
M  V30 2292 O 224.161 -1.17121 -5.33802 0
M  V30 2293 H 221.255 -0.142347 -0.814657 0
M  V30 2294 H 223.801 -0.995642 -1.37423 0
M  V30 2295 H 222.573 -2.01848 -3.35221 0
M  V30 2296 H 222.196 -0.412706 -3.95452 0
M  V30 2297 N 223.193 1.4272 -0.668489 0
M  V30 2298 C 224.14 2.30796 0.0137489 0
M  V30 2299 C 225.11 1.4561 0.799177 0
M  V30 2300 O 226.295 1.74453 0.772702 0
M  V30 2301 C 223.435 3.31377 0.963507 0
M  V30 2302 C 222.548 4.31655 0.172569 0
M  V30 2303 C 221.683 5.19312 1.1175 0
M  V30 2304 C 220.722 6.11274 0.317886 0
M  V30 2305 N 219.859 6.91504 1.2152 0
M  V30 2306 H 224.699 2.88585 -0.743161 0
M  V30 2307 H 222.236 1.42154 -0.378226 0
M  V30 2308 H 224.194 3.88214 1.52792 0
M  V30 2309 H 222.824 2.75202 1.68712 0
M  V30 2310 H 221.876 3.76988 -0.508374 0
M  V30 2311 H 223.188 4.96779 -0.448527 0
M  V30 2312 H 222.342 5.80851 1.75206 0
M  V30 2313 H 221.081 4.5435 1.77249 0
M  V30 2314 H 220.086 5.48809 -0.329918 0
M  V30 2315 H 221.311 6.78283 -0.332917 0
M  V30 2316 H 219.257 6.29176 1.85671 0
M  V30 2317 H 219.174 7.53209 0.649036 0
M  V30 2318 H 220.442 7.57535 1.83742 0
M  V30 2319 N 224.671 0.411399 1.52136 0
M  V30 2320 C 225.948 -0.222308 1.94333 0
M  V30 2321 C 226.328 -1.6242 1.34844 0
M  V30 2322 O 225.676 -2.22384 0.525145 0
M  V30 2323 C 225.886 -0.226345 3.48265 0
M  V30 2324 C 227.234 -0.444592 4.22266 0
M  V30 2325 O 228.258 -0.305602 3.54887 0
M  V30 2326 O 227.117 -0.718749 5.41753 0
M  V30 2327 H 224.211 -0.143907 0.814383 0
M  V30 2328 H 226.757 0.467506 1.63133 0
M  V30 2329 H 225.529 0.75475 3.83952 0
M  V30 2330 H 225.152 -0.960163 3.85832 0
M  V30 2331 N 226.149 -1.5696 0.141893 0
M  V30 2332 C 227.112 -2.15316 -0.785587 0
M  V30 2333 C 228.112 -1.09366 -1.1788 0
M  V30 2334 O 229.302 -1.35031 -1.10056 0
M  V30 2335 C 226.434 -2.71211 -2.06537 0
M  V30 2336 H 227.627 -2.98608 -0.278041 0
M  V30 2337 H 225.18 -1.5593 -0.107519 0
M  V30 2338 H 225.915 -1.91571 -2.6167 0
M  V30 2339 H 225.7 -3.4872 -1.79268 0
M  V30 2340 H 227.19 -3.16189 -2.72789 0
M  V30 2341 N 227.627 0.131896 -1.57047 0
M  V30 2342 C 228.852 0.860418 -1.8871 0
M  V30 2343 C 229.277 1.73251 -0.73251 0
M  V30 2344 O 228.635 1.785 0.317429 0
M  V30 2345 C 228.683 1.68047 -3.19049 0
M  V30 2346 O 227.787 2.7862 -3.04047 0
M  V30 2347 H 227.128 0.238743 -0.619595 0
M  V30 2348 H 229.658 0.118169 -2.04258 0
M  V30 2349 H 229.668 2.07238 -3.51449 0
M  V30 2350 H 228.343 1.04018 -4.02682 0
M  V30 2351 H 226.92 2.42726 -2.83088 0
M  V30 2352 N 229.106 1.52395 0.401703 0
M  V30 2353 C 230.355 1.66044 1.14509 0
M  V30 2354 C 230.668 0.400216 1.91462 0
M  V30 2355 O 231.874 0.416632 2.68284 0
M  V30 2356 C 230.33 2.93388 2.0845 0
M  V30 2357 C 229.938 4.26545 1.36978 0
M  V30 2358 C 231.682 3.16402 2.83001 0
M  V30 2359 C 229.589 5.45007 2.29611 0
M  V30 2360 H 228.519 0.618562 0.431158 0
M  V30 2361 H 231.17 1.78886 0.40892 0
M  V30 2362 H 229.552 2.74263 2.8565 0
M  V30 2363 H 230.726 4.56179 0.650916 0
M  V30 2364 H 229.041 4.09692 0.74438 0
M  V30 2365 H 231.638 4.02085 3.52465 0
M  V30 2366 H 231.981 2.30943 3.46368 0
M  V30 2367 H 232.514 3.36034 2.12898 0
M  V30 2368 H 229.253 6.32835 1.70879 0
M  V30 2369 H 228.773 5.19702 2.9945 0
M  V30 2370 H 230.452 5.7838 2.89974 0
M  V30 2371 N 230.584 -0.659388 1.43143 0
M  V30 2372 C 231.83 -1.42145 1.44647 0
M  V30 2373 C 232.163 -1.9408 0.0681907 0
M  V30 2374 O 231.438 -1.71899 -0.910007 0
M  V30 2375 C 231.721 -2.60735 2.48373 0
M  V30 2376 C 231.574 -2.14332 3.95451 0
M  V30 2377 C 232.893 -3.62951 2.48906 0
M  V30 2378 H 230.012 -0.51552 0.526696 0
M  V30 2379 H 232.654 -0.748069 1.74654 0
M  V30 2380 H 230.804 -3.18184 2.22916 0
M  V30 2381 H 232.476 -1.61932 4.31944 0
M  V30 2382 H 230.719 -1.4576 4.08578 0
M  V30 2383 H 231.39 -2.99583 4.63631 0
M  V30 2384 H 233.866 -3.1525 2.71582 0
M  V30 2385 H 232.742 -4.43487 3.23435 0
M  V30 2386 H 233.003 -4.15126 1.52061 0
M  V30 2387 N 232.062 -1.29571 -0.897171 0
M  V30 2388 C 233.31 -1.17456 -1.64464 0
M  V30 2389 C 233.631 0.273698 -1.9307 0
M  V30 2390 O 232.901 1.18684 -1.55855 0
M  V30 2391 H 231.481 -0.431706 -0.609622 0
M  V30 2392 H 234.143 -1.62531 -1.07562 0
M  V30 2393 H 233.239 -1.72648 -2.59998 0
M  V30 2394 N 233.54 1.10788 -1.12088 0
M  V30 2395 C 234.787 1.82671 -0.873931 0
M  V30 2396 C 235.115 1.85004 0.600311 0
M  V30 2397 O 234.37 1.30365 1.45957 0
M  V30 2398 C 234.669 3.29294 -1.38926 0
M  V30 2399 C 234.335 3.47113 -2.87791 0
M  V30 2400 C 232.997 3.51684 -3.28439 0
M  V30 2401 C 235.349 3.52808 -3.83635 0
M  V30 2402 C 232.677 3.59513 -4.63646 0
M  V30 2403 C 235.029 3.62169 -5.18668 0
M  V30 2404 C 233.693 3.65003 -5.58864 0
M  V30 2405 H 232.963 0.668441 -0.319794 0
M  V30 2406 H 235.61 1.30613 -1.40045 0
M  V30 2407 H 233.915 3.83894 -0.783122 0
M  V30 2408 H 235.612 3.83416 -1.17443 0
M  V30 2409 H 232.202 3.4423 -2.5535 0
M  V30 2410 H 236.386 3.4853 -3.53328 0
M  V30 2411 H 231.642 3.59987 -4.94185 0
M  V30 2412 H 235.816 3.6552 -5.92763 0
M  V30 2413 H 233.443 3.70822 -6.63623 0
M  V30 2414 N 235.018 0.912232 1.28515 0
M  V30 2415 C 236.265 0.544599 1.95039 0
M  V30 2416 C 236.593 -0.911435 1.71823 0
M  V30 2417 O 235.848 -1.66317 1.03137 0
M  V30 2418 C 236.147 0.798392 3.48368 0
M  V30 2419 C 235.813 2.23374 3.91682 0
M  V30 2420 C 234.475 2.62617 4.03219 0
M  V30 2421 C 236.827 3.16786 4.13879 0
M  V30 2422 C 234.155 3.94429 4.3433 0
M  V30 2423 C 236.507 4.48161 4.46469 0
M  V30 2424 C 235.171 4.8726 4.56217 0
M  V30 2425 H 234.441 0.199283 0.7137 0
M  V30 2426 H 237.088 1.15327 1.52879 0
M  V30 2427 H 235.393 0.106908 3.91654 0
M  V30 2428 H 237.09 0.493141 3.97956 0
M  V30 2429 H 233.68 1.91922 3.83228 0
M  V30 2430 H 237.864 2.87677 4.0442 0
M  V30 2431 H 233.12 4.24426 4.40082 0
M  V30 2432 H 237.294 5.20559 4.62592 0
M  V30 2433 H 234.921 5.89431 4.80078 0
M  V30 2434 N 236.496 -1.42363 0.676048 0
M  V30 2435 C 237.773 -1.95183 0.127726 0
M  V30 2436 C 238.153 -1.61641 -1.35777 0
M  V30 2437 O 237.501 -0.913216 -2.09458 0
M  V30 2438 C 237.711 -3.46721 0.398199 0
M  V30 2439 C 239.059 -4.23427 0.315383 0
M  V30 2440 O 240.083 -3.54649 0.332016 0
M  V30 2441 O 238.942 -5.45888 0.25865 0
M  V30 2442 H 236.036 -0.826992 0.00359427 0
M  V30 2443 H 238.582 -1.52184 0.750864 0
M  V30 2444 H 237.354 -3.64344 1.4272 0
M  V30 2445 H 236.977 -3.96769 -0.256885 0
M  V30 2446 N 237.974 -0.419461 -1.51915 0
M  V30 2447 C 239.251 0.211999 -1.94448 0
M  V30 2448 C 239.631 1.61703 -1.35703 0
M  V30 2449 O 238.979 2.22102 -0.536931 0
M  V30 2450 C 239.189 0.207872 -3.4838 0
M  V30 2451 C 240.537 0.422192 -4.22496 0
M  V30 2452 O 241.561 0.286778 -3.55044 0
M  V30 2453 O 240.42 0.690009 -5.42126 0
M  V30 2454 H 237.514 0.139586 -0.815135 0
M  V30 2455 H 240.06 -0.476151 -1.62883 0
M  V30 2456 H 238.832 -0.775102 -3.83546 0
M  V30 2457 H 238.455 0.939688 -3.86336 0
M  V30 2458 N 239.452 1.56882 -0.150215 0
M  V30 2459 C 240.677 2.01027 0.510184 0
M  V30 2460 C 241.102 1.02966 1.57415 0
M  V30 2461 O 240.46 0.00590158 1.81299 0
M  V30 2462 C 240.508 3.43899 1.08472 0
M  V30 2463 O 239.612 3.4885 2.19948 0
M  V30 2464 H 238.953 0.652233 0.124451 0
M  V30 2465 H 241.483 2.03093 -0.247894 0
M  V30 2466 H 241.493 3.82766 1.41259 0
M  V30 2467 H 240.168 4.14776 0.305582 0
M  V30 2468 H 238.745 3.21827 1.88366 0
M  V30 2469 N 240.93 -0.123565 1.57115 0
M  V30 2470 C 242.177 -0.832153 1.84612 0
M  V30 2471 C 242.505 -1.80093 0.734627 0
M  V30 2472 O 241.76 -1.93766 -0.27442 0
M  V30 2473 C 242.059 -1.62016 3.18568 0
M  V30 2474 C 241.725 -0.796084 4.43817 0
M  V30 2475 C 240.387 -0.568816 4.77826 0
M  V30 2476 C 242.739 -0.221364 5.2073 0
M  V30 2477 C 240.067 0.243499 5.86194 0
M  V30 2478 C 242.419 0.578117 6.29953 0
M  V30 2479 C 241.083 0.815744 6.62497 0
M  V30 2480 H 240.353 -0.304507 0.675542 0
M  V30 2481 H 243 -0.0947248 1.91266 0
M  V30 2482 H 241.305 -2.42837 3.0747 0
M  V30 2483 H 243.002 -2.17231 3.37064 0
M  V30 2484 H 239.592 -0.983307 4.17168 0
M  V30 2485 H 243.776 -0.384173 4.94811 0
M  V30 2486 H 239.032 0.436871 6.09837 0
M  V30 2487 H 243.206 1.03046 6.88734 0
M  V30 2488 H 240.833 1.44701 7.46301 0
M  V30 2489 N 242.408 -1.52605 -0.393616 0
M  V30 2490 C 243.633 -1.71592 -1.16495 0
M  V30 2491 C 244.058 -0.43133 -1.83088 0
M  V30 2492 O 243.416 0.612523 -1.7064 0
M  V30 2493 C 243.464 -2.86318 -2.19213 0
M  V30 2494 O 242.568 -2.52969 -3.257 0
M  V30 2495 H 241.909 -0.570734 -0.33935 0
M  V30 2496 H 244.439 -1.99377 -0.459324 0
M  V30 2497 H 244.449 -3.1168 -2.63286 0
M  V30 2498 H 243.124 -3.79511 -1.7013 0
M  V30 2499 H 241.701 -2.38332 -2.86797 0
M  V30 2500 N 243.887 0.651787 -1.4349 0
M  V30 2501 C 244.797 1.79368 -1.5121 0
M  V30 2502 C 245.813 1.69361 -0.399093 0
M  V30 2503 O 246.989 1.90505 -0.653431 0
M  V30 2504 C 244.054 3.15653 -1.43401 0
M  V30 2505 C 243.115 3.37446 -2.65384 0
M  V30 2506 C 242.348 4.67229 -2.57939 0
M  V30 2507 O 242.571 5.46676 -1.62792 0
M  V30 2508 O 241.505 4.90773 -3.48462 0
M  V30 2509 H 245.331 1.7581 -2.47638 0
M  V30 2510 H 242.916 0.810447 -1.25507 0
M  V30 2511 H 244.798 3.96935 -1.41494 0
M  V30 2512 H 243.473 3.19798 -0.501085 0
M  V30 2513 H 242.38 2.55923 -2.72863 0
M  V30 2514 H 243.713 3.38148 -3.57654 0
M  V30 2515 N 245.365 1.30045 0.890287 0
M  V30 2516 C 246.328 1.15963 1.977 0
M  V30 2517 C 247.328 0.0923777 1.60534 0
M  V30 2518 O 248.518 0.340071 1.70848 0
M  V30 2519 C 245.65 0.775451 3.31963 0
M  V30 2520 H 246.843 2.12502 2.11619 0
M  V30 2521 H 244.396 1.13366 1.07601 0
M  V30 2522 H 245.131 -0.189671 3.23745 0
M  V30 2523 H 244.916 1.54668 3.60306 0
M  V30 2524 H 246.406 0.700251 4.11687 0
M  V30 2525 N 246.843 -1.10192 1.12674 0
M  V30 2526 C 247.793 -2.14754 0.765801 0
M  V30 2527 C 248.777 -1.59154 -0.236409 0
M  V30 2528 O 249.969 -1.76951 -0.0415261 0
M  V30 2529 C 247.098 -3.42563 0.224827 0
M  V30 2530 C 246.184 -4.05091 1.25548 0
M  V30 2531 N 246.575 -4.42287 2.4539 0
M  V30 2532 C 244.873 -4.32186 1.10142 0
M  V30 2533 C 245.574 -4.91441 3.11224 0
M  V30 2534 N 244.55 -4.88405 2.38666 0
M  V30 2535 H 248.352 -2.41309 1.67772 0
M  V30 2536 H 245.866 -1.27339 1.00789 0
M  V30 2537 H 247.863 -4.16868 -0.0519578 0
M  V30 2538 H 246.523 -3.17467 -0.681515 0
M  V30 2539 H 247.534 -4.33902 2.82754 0
M  V30 2540 H 244.211 -4.16735 0.252587 0
M  V30 2541 H 245.601 -5.29749 4.13298 0
M  V30 2542 N 248.321 -0.919034 -1.28029 0
M  V30 2543 C 249.546 -0.570357 -1.99403 0
M  V30 2544 C 249.971 0.842486 -1.68178 0
M  V30 2545 O 249.329 1.56391 -0.917141 0
M  V30 2546 C 249.377 -0.792541 -3.51783 0
M  V30 2547 O 248.481 0.145988 -4.12142 0
M  V30 2548 H 247.822 -0.220555 -0.6263 0
M  V30 2549 H 250.352 -1.23592 -1.63053 0
M  V30 2550 H 250.362 -0.704708 -4.01868 0
M  V30 2551 H 249.037 -1.82247 -3.73844 0
M  V30 2552 H 247.614 0.00897528 -3.72899 0
M  V30 2553 N 249.799 1.42003 -0.683588 0
M  V30 2554 C 250.709 2.34597 -0.0109075 0
M  V30 2555 C 251.725 1.55576 0.779245 0
M  V30 2556 O 252.901 1.88107 0.719555 0
M  V30 2557 C 249.966 3.34199 0.922588 0
M  V30 2558 C 249.027 4.29115 0.125984 0
M  V30 2559 C 248.26 5.23959 1.01502 0
M  V30 2560 O 248.483 5.23952 2.25456 0
M  V30 2561 O 247.417 6.00053 0.47111 0
M  V30 2562 H 251.243 2.93675 -0.773853 0
M  V30 2563 H 248.828 1.42654 -0.443861 0
M  V30 2564 H 250.71 3.95365 1.45823 0
M  V30 2565 H 249.385 2.77582 1.66523 0
M  V30 2566 H 248.292 3.71335 -0.453969 0
M  V30 2567 H 249.625 4.88798 -0.577736 0
M  V30 2568 N 251.277 0.427512 1.51691 0
M  V30 2569 C 252.524 -0.142229 2.02 0
M  V30 2570 C 252.852 -1.43566 1.31221 0
M  V30 2571 O 252.107 -1.91298 0.412744 0
M  V30 2572 C 252.406 -0.418249 3.54944 0
M  V30 2573 C 252.072 0.788187 4.43958 0
M  V30 2574 C 250.734 1.11906 4.68007 0
M  V30 2575 C 253.086 1.59347 4.96244 0
M  V30 2576 C 250.414 2.25608 5.41588 0
M  V30 2577 C 252.766 2.7214 5.71072 0
M  V30 2578 C 251.43 3.05692 5.93387 0
M  V30 2579 H 250.7 -0.0520451 0.73917 0
M  V30 2580 H 253.347 0.572697 1.82736 0
M  V30 2581 H 251.652 -1.21496 3.72486 0
M  V30 2582 H 253.349 -0.872339 3.91397 0
M  V30 2583 H 249.939 0.520344 4.2543 0
M  V30 2584 H 254.123 1.35106 4.77556 0
M  V30 2585 H 249.379 2.51929 5.57083 0
M  V30 2586 H 253.553 3.34914 6.10578 0
M  V30 2587 H 251.18 3.9391 6.50184 0
M  V30 2588 N 252.755 -1.56801 0.158532 0
M  V30 2589 C 253.685 -2.20347 -0.772609 0
M  V30 2590 C 254.666 -1.15518 -1.24859 0
M  V30 2591 O 255.851 -1.43902 -1.30406 0
M  V30 2592 C 252.981 -2.83417 -2.00729 0
M  V30 2593 C 251.935 -3.94174 -1.66765 0
M  V30 2594 C 251.261 -4.44233 -2.97592 0
M  V30 2595 C 252.561 -5.14392 -0.905447 0
M  V30 2596 H 254.255 -2.98413 -0.242959 0
M  V30 2597 H 251.801 -1.43537 -0.115419 0
M  V30 2598 H 253.754 -3.26543 -2.6636 0
M  V30 2599 H 252.478 -2.02701 -2.56086 0
M  V30 2600 H 251.137 -3.51684 -1.03508 0
M  V30 2601 H 250.785 -3.60325 -3.50963 0
M  V30 2602 H 250.485 -5.18945 -2.75626 0
M  V30 2603 H 252.009 -4.90037 -3.64274 0
M  V30 2604 H 253.423 -5.5429 -1.46408 0
M  V30 2605 H 251.82 -5.9494 -0.7853 0
M  V30 2606 H 252.89 -4.84795 0.100668 0
M  V30 2607 N 254.233 0.115231 -1.57178 0
M  V30 2608 C 255.18 1.14115 -2.00615 0
M  V30 2609 C 256.15 1.40939 -0.878941 0
M  V30 2610 O 257.335 1.52741 -1.14345 0
M  V30 2611 C 254.475 2.46156 -2.4187 0
M  V30 2612 C 253.588 2.26236 -3.68024 0
M  V30 2613 C 252.723 3.51534 -3.98243 0
M  V30 2614 C 251.762 3.26787 -5.17568 0
M  V30 2615 N 250.899 4.44298 -5.43639 0
M  V30 2616 H 255.739 0.763743 -2.88047 0
M  V30 2617 H 253.276 0.365615 -1.42484 0
M  V30 2618 H 255.234 3.23189 -2.63827 0
M  V30 2619 H 253.864 2.81783 -1.57475 0
M  V30 2620 H 252.916 1.40102 -3.5366 0
M  V30 2621 H 254.228 2.03929 -4.55208 0
M  V30 2622 H 253.382 4.36984 -4.20868 0
M  V30 2623 H 252.121 3.76876 -3.09541 0
M  V30 2624 H 251.126 2.39729 -4.94783 0
M  V30 2625 H 252.351 3.02812 -6.0785 0
M  V30 2626 H 250.297 4.69754 -4.57895 0
M  V30 2627 H 250.214 4.25109 -6.25154 0
M  V30 2628 H 251.482 5.3087 -5.70786 0
M  V30 2629 N 255.711 1.52812 0.385517 0
M  V30 2630 C 256.674 1.77188 1.45386 0
M  V30 2631 C 257.674 0.641953 1.4743 0
M  V30 2632 O 258.864 0.910033 1.4854 0
M  V30 2633 C 255.996 1.87582 2.8465 0
M  V30 2634 H 257.189 2.72583 1.25054 0
M  V30 2635 H 254.742 1.43586 0.617467 0
M  V30 2636 H 255.477 0.941849 3.10322 0
M  V30 2637 H 255.262 2.69748 2.84567 0
M  V30 2638 H 256.752 2.08102 3.62054 0
M  V30 2639 N 257.189 -0.644168 1.43834 0
M  V30 2640 C 258.152 -1.73857 1.49353 0
M  V30 2641 C 259.152 -1.56315 0.377112 0
M  V30 2642 O 260.342 -1.62048 0.639226 0
M  V30 2643 C 257.474 -3.12819 1.35488 0
M  V30 2644 H 258.667 -1.70342 2.46827 0
M  V30 2645 H 256.22 -0.856652 1.30733 0
M  V30 2646 H 256.955 -3.2194 0.390569 0
M  V30 2647 H 256.74 -3.26958 2.16428 0
M  V30 2648 H 258.23 -3.92606 1.42302 0
M  V30 2649 N 258.668 -1.30515 -0.883378 0
M  V30 2650 C 259.893 -1.22487 -1.67367 0
M  V30 2651 C 260.318 0.208767 -1.86938 0
M  V30 2652 O 259.676 1.15015 -1.40148 0
M  V30 2653 C 259.724 -1.96041 -3.02655 0
M  V30 2654 O 258.828 -1.28859 -3.91751 0
M  V30 2655 H 258.169 -0.423573 -0.511353 0
M  V30 2656 H 260.699 -1.72362 -1.10239 0
M  V30 2657 H 260.709 -2.05124 -3.52687 0
M  V30 2658 H 259.384 -3.00307 -2.8773 0
M  V30 2659 H 257.961 -1.28141 -3.50192 0
M  V30 2660 N 260.146 1.09593 -1.13257 0
M  V30 2661 C 261.094 2.18271 -0.803783 0
M  V30 2662 C 262.088 1.68054 0.213148 0
M  V30 2663 O 263.294 1.79862 0.0704699 0
M  V30 2664 H 259.669 0.711949 -0.242143 0
M  V30 2665 H 261.64 2.43235 -1.72856 0
M  V30 2666 C 260.389 3.46536 -0.28424 0
M  V30 2667 H 259.712 3.85545 -1.05807 0
M  V30 2668 H 261.152 4.23899 -0.0925945 0
M  V30 2669 C 259.611 3.22036 0.989684 0
M  V30 2670 O 260.141 3.44509 2.06584 0
M  V30 2671 N 258.347 2.7565 0.920086 0
M  V30 2672 H 257.894 2.57562 0.0442019 0
M  V30 2673 H 257.852 2.59635 1.77306 0
M  V30 2674 N 261.624 0.925811 1.2754 0
M  V30 2675 C 262.554 0.440748 2.29303 0
M  V30 2676 C 263.535 -0.497971 1.62648 0
M  V30 2677 O 264.72 -0.403126 1.8997 0
M  V30 2678 C 261.85 -0.309048 3.45922 0
M  V30 2679 C 260.804 0.54166 4.24559 0
M  V30 2680 C 260.13 -0.337191 5.33636 0
M  V30 2681 C 261.43 1.80516 4.90114 0
M  V30 2682 H 263.124 1.29121 2.70126 0
M  V30 2683 H 260.67 0.622323 1.29858 0
M  V30 2684 H 262.623 -0.659315 4.1621 0
M  V30 2685 H 261.347 -1.19352 3.04011 0
M  V30 2686 H 260.006 0.874609 3.56014 0
M  V30 2687 H 259.654 -1.22056 4.87966 0
M  V30 2688 H 259.354 0.228497 5.87156 0
M  V30 2689 H 260.878 -0.683072 6.06767 0
M  V30 2690 H 262.292 1.52307 5.52698 0
M  V30 2691 H 260.689 2.3142 5.53683 0
M  V30 2692 H 261.759 2.52581 4.13921 0
M  V30 2693 N 263.102 -1.41638 0.69111 0
M  V30 2694 C 264.518 -1.55435 0.362224 0
M  V30 2695 C 264.718 -1.66754 -1.13117 0
M  V30 2696 O 263.774 -1.64348 -1.91692 0
M  V30 2697 C 265.087 -2.79588 1.10684 0
M  V30 2698 C 266.635 -2.9338 1.09075 0
M  V30 2699 C 267.11 -4.20414 1.81703 0
M  V30 2700 N 268.601 -4.27362 1.7865 0
M  V30 2701 C 269.336 -5.24507 2.31689 0
M  V30 2702 N 268.832 -6.27708 2.93179 0
M  V30 2703 N 270.625 -5.16416 2.2197 0
M  V30 2704 H 262.776 -1.32536 1.65976 0
M  V30 2705 H 265.039 -0.639115 0.700168 0
M  V30 2706 H 264.745 -2.77419 2.16175 0
M  V30 2707 H 264.619 -3.70973 0.682545 0
M  V30 2708 H 267.006 -2.95067 0.0441238 0
M  V30 2709 H 267.087 -2.0318 1.55407 0
M  V30 2710 H 266.731 -4.19488 2.86343 0
M  V30 2711 H 266.661 -5.09578 1.32808 0
M  V30 2712 H 269.152 -3.53415 1.33815 0
M  V30 2713 H 269.465 -6.98217 3.31229 0
M  V30 2714 H 267.81 -6.28223 2.97255 0
M  V30 2715 H 271.001 -4.34716 1.73607 0
M  V30 2716 H 271.174 -5.91958 2.63609 0
M  V30 2717 N 264.58 -0.43555 -1.51462 0
M  V30 2718 C 265.857 0.191364 -1.94662 0
M  V30 2719 C 266.237 1.60254 -1.37411 0
M  V30 2720 O 265.585 2.2152 -0.560458 0
M  V30 2721 C 265.795 0.17091 -3.48581 0
M  V30 2722 C 267.143 0.377357 -4.2292 0
M  V30 2723 O 268.167 0.249104 -3.55328 0
M  V30 2724 O 267.026 0.63247 -5.42828 0
M  V30 2725 H 264.12 0.130932 -0.816569 0
M  V30 2726 H 266.666 -0.4934 -1.62369 0
M  V30 2727 H 265.438 -0.815738 -3.82703 0
M  V30 2728 H 265.061 0.898659 -3.87311 0
M  V30 2729 N 266.058 1.56714 -0.166846 0
M  V30 2730 C 267.006 2.19056 0.782123 0
M  V30 2731 C 268 1.15328 1.24079 0
M  V30 2732 O 269.206 1.33537 1.20697 0
M  V30 2733 H 265.581 0.70167 0.270486 0
M  V30 2734 H 267.552 2.97494 0.232322 0
M  V30 2735 C 266.301 2.84206 2.00306 0
M  V30 2736 H 265.624 3.63748 1.65914 0
M  V30 2737 H 267.064 3.31302 2.64604 0
M  V30 2738 C 265.523 1.83744 2.82382 0
M  V30 2739 O 266.053 1.32014 3.79388 0
M  V30 2740 N 264.259 1.52601 2.47308 0
M  V30 2741 H 263.806 1.9486 1.68485 0
M  V30 2742 H 263.764 0.856351 3.02513 0
M  V30 2743 N 267.536 -0.106894 1.57237 0
M  V30 2744 C 268.766 -0.825191 1.89405 0
M  V30 2745 C 269.174 -1.73374 0.757496 0
M  V30 2746 O 268.517 -1.81552 -0.280115 0
M  V30 2747 C 268.579 -1.70102 3.1671 0
M  V30 2748 C 268.243 -0.965523 4.46684 0
M  V30 2749 C 269.24 -0.300741 5.19029 0
M  V30 2750 C 266.925 -0.943105 4.93367 0
M  V30 2751 C 268.919 0.376622 6.36286 0
M  V30 2752 C 266.606 -0.261949 6.10538 0
M  V30 2753 C 267.604 0.396748 6.81847 0
M  V30 2754 O 267.292 1.06701 7.96787 0
M  V30 2755 H 267.024 -0.241852 0.631255 0
M  V30 2756 H 269.578 -0.0921491 2.05193 0
M  V30 2757 H 267.808 -2.47601 2.97036 0
M  V30 2758 H 269.497 -2.29483 3.34802 0
M  V30 2759 H 270.263 -0.309599 4.84011 0
M  V30 2760 H 266.142 -1.44524 4.3776 0
M  V30 2761 H 269.686 0.891334 6.91882 0
M  V30 2762 H 265.583 -0.250896 6.45012 0
M  V30 2763 H 266.351 0.972707 8.127 0
M  V30 2764 N 269.014 -1.53014 -0.377408 0
M  V30 2765 C 270.43 -1.42523 -0.718281 0
M  V30 2766 C 270.63 -0.55487 -1.9371 0
M  V30 2767 O 269.686 -0.0327593 -2.52479 0
M  V30 2768 C 270.999 -2.85546 -0.942539 0
M  V30 2769 C 272.547 -2.95101 -1.04329 0
M  V30 2770 C 273.022 -4.3916 -1.3001 0
M  V30 2771 N 274.513 -4.42536 -1.36806 0
M  V30 2772 C 275.248 -5.51097 -1.58364 0
M  V30 2773 N 274.744 -6.69724 -1.77317 0
M  V30 2774 N 276.537 -5.38657 -1.60638 0
M  V30 2775 H 268.688 -2.08116 0.424426 0
M  V30 2776 H 270.951 -0.939352 0.127759 0
M  V30 2777 H 270.657 -3.51499 -0.118929 0
M  V30 2778 H 270.531 -3.28493 -1.85397 0
M  V30 2779 H 272.918 -2.29309 -1.85745 0
M  V30 2780 H 272.999 -2.55566 -0.109505 0
M  V30 2781 H 272.643 -5.05521 -0.490991 0
M  V30 2782 H 272.573 -4.76258 -2.24691 0
M  V30 2783 H 275.064 -3.57039 -1.23821 0
M  V30 2784 H 275.377 -7.48233 -1.93306 0
M  V30 2785 H 273.722 -6.72732 -1.74518 0
M  V30 2786 H 276.913 -4.44948 -1.45391 0
M  V30 2787 H 277.086 -6.2333 -1.77098 0
M  V30 2788 N 270.492 0.636531 -1.44174 0
M  V30 2789 C 271.739 1.39619 -1.46672 0
M  V30 2790 C 272.067 1.94257 -0.0972691 0
M  V30 2791 O 271.322 1.73768 0.900175 0
M  V30 2792 C 271.621 2.58309 -2.47005 0
M  V30 2793 C 271.287 2.21992 -3.92467 0
M  V30 2794 C 269.949 2.118 -4.32081 0
M  V30 2795 C 272.301 1.9321 -4.84065 0
M  V30 2796 C 269.629 1.71007 -5.61225 0
M  V30 2797 C 271.981 1.53911 -6.13591 0
M  V30 2798 C 270.645 1.42257 -6.52165 0
M  V30 2799 H 269.915 0.510902 -0.536712 0
M  V30 2800 H 272.562 0.722328 -1.77355 0
M  V30 2801 H 270.867 3.30903 -2.09786 0
M  V30 2802 H 272.564 3.16533 -2.46186 0
M  V30 2803 H 269.154 2.30841 -3.61124 0
M  V30 2804 H 273.338 1.99997 -4.54219 0
M  V30 2805 H 268.594 1.60583 -5.89935 0
M  V30 2806 H 272.768 1.30677 -6.8403 0
M  V30 2807 H 270.395 1.10419 -7.52138 0
M  V30 2808 N 271.97 1.30982 0.876444 0
M  V30 2809 C 272.933 1.18054 1.96459 0
M  V30 2810 C 273.933 0.109399 1.60427 0
M  V30 2811 O 275.123 0.358173 1.70478 0
M  V30 2812 C 272.255 0.810616 3.31122 0
M  V30 2813 H 273.448 2.14735 2.09354 0
M  V30 2814 H 271.001 1.145 1.06392 0
M  V30 2815 H 271.736 -0.155322 3.23928 0
M  V30 2816 H 271.521 1.58481 3.58645 0
M  V30 2817 H 273.011 0.743876 4.10921 0
M  V30 2818 N 273.449 -1.08991 1.13837 0
M  V30 2819 C 274.399 -2.1393 0.788535 0
M  V30 2820 C 275.383 -1.59396 -0.219516 0
M  V30 2821 O 276.575 -1.76985 -0.0227557 0
M  V30 2822 C 273.704 -3.42305 0.261147 0
M  V30 2823 C 272.79 -4.03736 1.29837 0
M  V30 2824 N 273.181 -4.39659 2.50067 0
M  V30 2825 C 271.479 -4.30993 1.1472 0
M  V30 2826 C 272.18 -4.88113 3.16419 0
M  V30 2827 N 271.156 -4.85846 2.43832 0
M  V30 2828 H 274.958 -2.39516 1.70322 0
M  V30 2829 H 272.472 -1.26263 1.02134 0
M  V30 2830 H 274.469 -4.16899 -0.0077405 0
M  V30 2831 H 273.129 -3.18172 -0.647805 0
M  V30 2832 H 274.14 -4.30878 2.8734 0
M  V30 2833 H 270.817 -4.16444 0.296773 0
M  V30 2834 H 272.207 -5.25336 4.18894 0
M  V30 2835 N 274.927 -0.932562 -1.27047 0
M  V30 2836 C 276.155 -0.592031 -1.98249 0
M  V30 2837 C 276.57 0.831062 -1.69525 0
M  V30 2838 O 275.927 1.55299 -0.958561 0
M  V30 2839 C 275.978 -0.814279 -3.5221 0
M  V30 2840 O 275.699 -2.18139 -3.7993 0
M  V30 2841 C 277.2 -0.483121 -4.4066 0
M  V30 2842 H 274.42 -0.223896 -0.632544 0
M  V30 2843 H 276.964 -1.25091 -1.61779 0
M  V30 2844 H 275.119 -0.20213 -3.86872 0
M  V30 2845 H 275.533 -2.235 -4.74498 0
M  V30 2846 H 277.007 -0.689298 -5.47679 0
M  V30 2847 H 277.484 0.581546 -4.35333 0
M  V30 2848 H 278.09 -1.07362 -4.11526 0
M  V30 2849 N 276.405 1.4127 -0.698611 0
M  V30 2850 C 277.353 2.32588 -0.023855 0
M  V30 2851 C 278.347 1.51128 0.765292 0
M  V30 2852 O 279.553 1.67043 0.670571 0
M  V30 2853 H 275.928 0.751918 0.0110871 0
M  V30 2854 H 277.899 2.87167 -0.811031 0
M  V30 2855 C 276.648 3.35947 0.896369 0
M  V30 2856 H 275.971 3.98684 0.298548 0
M  V30 2857 H 277.411 4.02376 1.33676 0
M  V30 2858 C 275.87 2.70076 2.01396 0
M  V30 2859 O 276.4 2.55093 3.10307 0
M  V30 2860 N 274.606 2.28724 1.79259 0
M  V30 2861 H 274.153 2.4111 0.906841 0
M  V30 2862 H 274.111 1.84986 2.54219 0
M  V30 2863 N 277.883 0.443576 1.51229 0
M  V30 2864 C 279.129 -0.120975 2.02439 0
M  V30 2865 C 279.462 -1.41815 1.32674 0
M  V30 2866 O 278.737 -1.89373 0.443622 0
M  V30 2867 C 279.02 -0.333291 3.58554 0
M  V30 2868 C 278.873 0.982968 4.38928 0
M  V30 2869 C 280.192 -1.10028 4.26124 0
M  V30 2870 H 277.311 -0.0424923 0.735774 0
M  V30 2871 H 279.953 0.583794 1.80809 0
M  V30 2872 H 278.103 -0.933614 3.77115 0
M  V30 2873 H 279.775 1.61775 4.32003 0
M  V30 2874 H 278.018 1.58611 4.03763 0
M  V30 2875 H 278.689 0.788379 5.46341 0
M  V30 2876 H 281.165 -0.591711 4.11871 0
M  V30 2877 H 280.041 -1.21761 5.35225 0
M  V30 2878 H 280.302 -2.12996 3.87408 0
M  V30 2879 N 279.361 -1.56624 0.175154 0
M  V30 2880 C 280.271 -2.21741 -0.766042 0
M  V30 2881 C 281.287 -1.21023 -1.25018 0
M  V30 2882 O 282.463 -1.53697 -1.3015 0
M  V30 2883 C 279.528 -2.84839 -1.97655 0
M  V30 2884 C 278.589 -4.00769 -1.53892 0
M  V30 2885 C 277.822 -4.60849 -2.69173 0
M  V30 2886 O 278.045 -4.19823 -3.86141 0
M  V30 2887 O 276.979 -5.50655 -2.43028 0
M  V30 2888 H 280.805 -3.02738 -0.241585 0
M  V30 2889 H 278.39 -1.49305 -0.053222 0
M  V30 2890 H 280.272 -3.24834 -2.68442 0
M  V30 2891 H 278.947 -2.06836 -2.48999 0
M  V30 2892 H 277.854 -3.65436 -0.80044 0
M  V30 2893 H 279.187 -4.80376 -1.07236 0
M  V30 2894 N 280.839 0.0985539 -1.57292 0
M  V30 2895 C 282.064 0.820196 -1.90493 0
M  V30 2896 C 282.489 1.71658 -0.769094 0
M  V30 2897 O 281.847 1.79133 0.279495 0
M  V30 2898 C 281.895 1.61242 -3.22542 0
M  V30 2899 O 280.999 2.72108 -3.09888 0
M  V30 2900 H 280.34 0.225547 -0.62452 0
M  V30 2901 H 282.87 0.0748159 -2.04463 0
M  V30 2902 H 282.88 1.99737 -3.55766 0
M  V30 2903 H 281.555 0.954535 -4.04798 0
M  V30 2904 H 280.132 2.36667 -2.88172 0
M  V30 2905 N 282.317 1.53212 0.369288 0
M  V30 2906 C 283.247 1.82365 1.45826 0
M  V30 2907 C 284.228 0.676907 1.56051 0
M  V30 2908 O 285.413 0.926401 1.70679 0
M  V30 2909 C 282.543 2.01023 2.83208 0
M  V30 2910 C 281.497 3.1678 2.8781 0
M  V30 2911 C 280.823 3.20724 4.27832 0
M  V30 2912 C 282.123 4.55447 2.55667 0
M  V30 2913 H 283.817 2.73559 1.21678 0
M  V30 2914 H 281.363 1.3163 0.583911 0
M  V30 2915 H 283.316 2.20001 3.59413 0
M  V30 2916 H 282.04 1.06536 3.08736 0
M  V30 2917 H 280.699 2.97616 2.14056 0
M  V30 2918 H 280.347 2.23882 4.50429 0
M  V30 2919 H 280.047 3.98496 4.31827 0
M  V30 2920 H 281.571 3.41881 5.05915 0
M  V30 2921 H 282.985 4.74611 3.21586 0
M  V30 2922 H 281.382 5.35432 2.70984 0
M  V30 2923 H 282.452 4.60812 1.5093 0
M  V30 2924 N 283.795 -0.628877 1.44509 0
M  V30 2925 C 285.041 -1.39045 1.47629 0
M  V30 2926 C 285.374 -1.93892 0.109343 0
M  V30 2927 O 284.649 -1.7379 -0.87334 0
M  V30 2928 C 284.932 -2.55408 2.53848 0
M  V30 2929 C 284.785 -2.05896 3.99909 0
M  V30 2930 C 286.104 -3.5759 2.56549 0
M  V30 2931 H 283.223 -0.504232 0.537512 0
M  V30 2932 H 285.865 -0.710854 1.76201 0
M  V30 2933 H 284.015 -3.13384 2.29615 0
M  V30 2934 H 285.687 -1.52734 4.35282 0
M  V30 2935 H 283.93 -1.37061 4.11578 0
M  V30 2936 H 284.601 -2.89681 4.69882 0
M  V30 2937 H 287.077 -3.09419 2.78207 0
M  V30 2938 H 285.953 -4.36527 3.32769 0
M  V30 2939 H 286.214 -4.11808 1.60832 0
M  V30 2940 N 285.273 -1.31445 -0.869486 0
M  V30 2941 C 286.221 -1.19067 -1.99814 0
M  V30 2942 C 287.215 -0.0988569 -1.69111 0
M  V30 2943 O 288.421 -0.260781 -1.78101 0
M  V30 2944 H 284.796 -0.368677 -0.655425 0
M  V30 2945 H 286.767 -2.14555 -2.07385 0
M  V30 2946 C 285.516 -0.915323 -3.35436 0
M  V30 2947 H 284.839 -1.74759 -3.59582 0
M  V30 2948 H 286.279 -0.868895 -4.15001 0
M  V30 2949 C 284.738 0.381928 -3.34728 0
M  V30 2950 O 285.268 1.39857 -3.76567 0
M  V30 2951 N 283.474 0.398633 -2.87853 0
M  V30 2952 H 283.021 -0.429186 -2.54 0
M  V30 2953 H 282.979 1.26651 -2.87762 0
M  V30 2954 N 286.751 1.08385 -1.14413 0
M  V30 2955 C 287.661 2.18856 -0.844951 0
M  V30 2956 C 288.677 1.73121 0.174668 0
M  V30 2957 O 289.853 2.014 0.00312857 0
M  V30 2958 C 286.918 3.45155 -0.32696 0
M  V30 2959 C 285.979 4.05513 -1.40916 0
M  V30 2960 C 285.212 5.25784 -0.915793 0
M  V30 2961 O 285.435 5.69884 0.242651 0
M  V30 2962 O 284.369 5.77545 -1.69487 0
M  V30 2963 H 288.195 2.46919 -1.76818 0
M  V30 2964 H 285.78 1.17524 -0.922411 0
M  V30 2965 H 287.662 4.21377 -0.0440211 0
M  V30 2966 H 286.337 3.18668 0.568539 0
M  V30 2967 H 285.244 3.30879 -1.74556 0
M  V30 2968 H 286.577 4.3625 -2.27919 0
M  V30 2969 N 288.23 0.939286 1.26551 0
M  V30 2970 C 289.46 0.601663 1.97645 0
M  V30 2971 C 289.868 -0.827206 1.70159 0
M  V30 2972 O 289.211 -1.56291 0.965338 0
M  V30 2973 C 289.273 0.761725 3.51337 0
M  V30 2974 C 288.937 2.16487 4.0247 0
M  V30 2975 C 289.934 3.14016 4.14355 0
M  V30 2976 C 287.619 2.48494 4.36527 0
M  V30 2977 C 289.613 4.41654 4.59587 0
M  V30 2978 C 287.3 3.76364 4.81449 0
M  V30 2979 C 288.298 4.72758 4.92939 0
M  V30 2980 O 287.986 5.98352 5.36871 0
M  V30 2981 H 287.718 0.225758 0.637189 0
M  V30 2982 H 290.272 1.26178 1.62075 0
M  V30 2983 H 288.502 0.0444808 3.86674 0
M  V30 2984 H 290.191 0.427442 4.03643 0
M  V30 2985 H 290.957 2.90613 3.8829 0
M  V30 2986 H 286.836 1.74202 4.26819 0
M  V30 2987 H 290.38 5.16896 4.68471 0
M  V30 2988 H 286.277 3.99582 5.06956 0
M  V30 2989 H 287.045 6.01507 5.55096 0
M  V30 2990 N 289.708 -1.40897 0.706093 0
M  V30 2991 C 290.985 -1.94868 0.169099 0
M  V30 2992 C 291.365 -1.64485 -1.32318 0
M  V30 2993 O 290.713 -0.95744 -2.07474 0
M  V30 2994 C 290.923 -3.45798 0.471654 0
M  V30 2995 C 292.271 -4.22663 0.405127 0
M  V30 2996 O 293.295 -3.53865 0.407168 0
M  V30 2997 O 292.154 -5.45216 0.374383 0
M  V30 2998 H 289.248 -0.82673 0.0211352 0
M  V30 2999 H 291.794 -1.50558 0.782976 0
M  V30 3000 H 290.566 -3.61235 1.50416 0
M  V30 3001 H 290.189 -3.97225 -0.172666 0
M  V30 3002 N 291.186 -0.45159 -1.50991 0
M  V30 3003 C 292.463 0.170707 -1.94854 0
M  V30 3004 C 292.843 1.58788 -1.39103 0
M  V30 3005 O 292.191 2.20913 -0.583921 0
M  V30 3006 C 292.401 0.133929 -3.48743 0
M  V30 3007 C 293.749 0.33248 -4.23296 0
M  V30 3008 O 294.773 0.211403 -3.55572 0
M  V30 3009 O 293.632 0.57486 -5.43468 0
M  V30 3010 H 290.726 0.122264 -0.817912 0
M  V30 3011 H 293.272 -0.510594 -1.61836 0
M  V30 3012 H 292.044 -0.856283 -3.81816 0
M  V30 3013 H 291.667 0.857529 -3.88242 0
M  V30 3014 N 292.664 1.56529 -0.183458 0
M  V30 3015 C 293.612 2.19873 0.758845 0
M  V30 3016 C 294.606 1.16638 1.22849 0
M  V30 3017 O 295.812 1.3481 1.19274 0
M  V30 3018 H 292.187 0.7045 0.263029 0
M  V30 3019 H 294.158 2.97724 0.200755 0
M  V30 3020 C 292.907 2.86314 1.9728 0
M  V30 3021 H 292.23 3.65487 1.62047 0
M  V30 3022 H 293.67 3.3409 2.61075 0
M  V30 3023 C 292.129 1.86729 2.80418 0
M  V30 3024 O 292.659 1.36031 3.77966 0
M  V30 3025 N 290.865 1.55216 2.45675 0
M  V30 3026 H 290.412 1.96636 1.66409 0
M  V30 3027 H 290.37 0.888388 3.01588 0
M  V30 3028 N 294.142 -0.090211 1.57342 0
M  V30 3029 C 295.39 -0.791241 1.85967 0
M  V30 3030 C 295.711 -1.7903 0.772859 0
M  V30 3031 O 294.981 -1.94872 -0.200398 0
M  V30 3032 H 293.561 -0.295205 0.686195 0
M  V30 3033 H 296.223 -0.0706782 1.94772 0
M  V30 3034 H 295.319 -1.31882 2.82867 0
M  V30 3035 N 295.62 -1.53406 -0.361157 0
M  V30 3036 C 296.53 -1.83122 -1.4664 0
M  V30 3037 C 297.546 -0.719943 -1.58407 0
M  V30 3038 O 298.722 -1.01046 -1.74218 0
M  V30 3039 C 295.787 -2.01891 -2.81853 0
M  V30 3040 C 294.848 -3.25784 -2.79577 0
M  V30 3041 C 294.081 -3.43648 -4.0834 0
M  V30 3042 O 294.304 -2.65714 -5.0473 0
M  V30 3043 O 293.238 -4.37018 -4.13883 0
M  V30 3044 H 297.064 -2.7703 -1.24451 0
M  V30 3045 H 294.649 -1.38841 -0.551678 0
M  V30 3046 H 296.531 -2.15782 -3.61962 0
M  V30 3047 H 295.206 -1.11173 -3.0401 0
M  V30 3048 H 294.113 -3.17312 -1.98151 0
M  V30 3049 H 295.446 -4.16439 -2.62373 0
M  V30 3050 N 297.098 0.621204 -1.44841 0
M  V30 3051 C 298.346 1.37783 -1.47852 0
M  V30 3052 C 298.667 1.94653 -0.116224 0
M  V30 3053 O 297.937 1.76367 0.852737 0
M  V30 3054 H 296.517 0.511453 -0.544449 0
M  V30 3055 H 299.179 0.730446 -1.80694 0
M  V30 3056 H 298.275 2.20414 -2.20961 0
M  V30 3057 N 298.576 1.31904 0.862503 0
M  V30 3058 C 299.825 1.21373 1.61094 0
M  V30 3059 C 300.138 -0.22504 1.94301 0
M  V30 3060 O 301.344 -0.452121 2.67709 0
M  V30 3061 C 299.8 2.12525 2.9045 0
M  V30 3062 C 299.408 3.61441 2.64697 0
M  V30 3063 C 301.152 2.10813 3.68454 0
M  V30 3064 C 299.059 4.44578 3.90006 0
M  V30 3065 H 297.989 0.450705 0.604468 0
M  V30 3066 H 300.64 1.56811 0.953027 0
M  V30 3067 H 299.022 1.69994 3.57656 0
M  V30 3068 H 300.196 4.12264 2.05851 0
M  V30 3069 H 298.511 3.65205 2.00036 0
M  V30 3070 H 301.108 2.70167 4.61426 0
M  V30 3071 H 301.451 1.09713 4.01583 0
M  V30 3072 H 301.984 2.51583 3.08141 0
M  V30 3073 H 298.723 5.46461 3.62023 0
M  V30 3074 H 298.243 3.98508 4.48276 0
M  V30 3075 H 299.922 4.57176 4.5782 0
M  V30 3076 N 300.054 -1.07777 1.14986 0
M  V30 3077 C 301.303 -1.79669 0.916617 0
M  V30 3078 C 301.616 -1.87474 -0.557917 0
M  V30 3079 O 302.822 -2.55845 -0.908617 0
M  V30 3080 C 301.278 -3.22848 1.59051 0
M  V30 3081 C 300.886 -3.23257 3.10176 0
M  V30 3082 C 302.63 -3.99379 1.43864 0
M  V30 3083 C 300.537 -4.61063 3.70372 0
M  V30 3084 H 299.467 -0.673349 0.33929 0
M  V30 3085 H 302.118 -1.21003 1.37951 0
M  V30 3086 H 300.5 -3.8168 1.0553 0
M  V30 3087 H 301.674 -2.74095 3.70417 0
M  V30 3088 H 299.989 -2.60222 3.25074 0
M  V30 3089 H 302.586 -5.0122 1.86232 0
M  V30 3090 H 302.929 -4.14511 0.385564 0
M  V30 3091 H 303.462 -3.47032 1.94457 0
M  V30 3092 H 300.201 -4.51135 4.7556 0
M  V30 3093 H 299.721 -5.1048 3.14913 0
M  V30 3094 H 301.4 -5.30034 3.71043 0
M  V30 3095 N 301.532 -0.945985 -1.26051 0
M  V30 3096 C 302.462 -0.477172 -2.28572 0
M  V30 3097 C 303.443 0.472032 -1.63419 0
M  V30 3098 O 304.628 0.372853 -1.90587 0
M  V30 3099 C 301.758 0.253975 -3.4637 0
M  V30 3100 C 300.712 -0.609135 -4.23643 0
M  V30 3101 C 300.038 0.252252 -5.34105 0
M  V30 3102 C 301.338 -1.8829 -4.8718 0
M  V30 3103 H 303.032 -1.33402 -2.68038 0
M  V30 3104 H 300.578 -0.642904 -1.28852 0
M  V30 3105 H 302.531 0.593016 -4.17207 0
M  V30 3106 H 301.255 1.145 -3.05871 0
M  V30 3107 H 299.914 -0.931138 -3.54578 0
M  V30 3108 H 299.562 1.14278 -4.89846 0
M  V30 3109 H 299.262 -0.32188 -5.86718 0
M  V30 3110 H 300.786 0.586454 -6.07777 0
M  V30 3111 H 302.2 -1.61081 -5.50205 0
M  V30 3112 H 300.597 -2.40199 -5.49931 0
M  V30 3113 H 301.667 -2.59134 -4.09851 0
M  V30 3114 N 303.011 1.40521 -0.713556 0
M  V30 3115 C 304.258 2.00923 -0.25219 0
M  V30 3116 C 304.586 1.56571 1.15395 0
M  V30 3117 O 303.841 0.775874 1.79663 0
M  V30 3118 C 304.14 3.56317 -0.278 0
M  V30 3119 C 303.806 4.20246 -1.63415 0
M  V30 3120 C 302.468 4.37422 -2.00538 0
M  V30 3121 C 304.82 4.55923 -2.52554 0
M  V30 3122 C 302.148 4.87558 -3.2635 0
M  V30 3123 C 304.5 5.07458 -3.77716 0
M  V30 3124 C 303.164 5.22843 -4.14959 0
M  V30 3125 H 302.434 0.735231 -0.0922829 0
M  V30 3126 H 305.081 1.68161 -0.916188 0
M  V30 3127 H 303.386 3.88976 0.469567 0
M  V30 3128 H 305.083 4.00883 0.0967819 0
M  V30 3129 H 301.673 4.07263 -1.33546 0
M  V30 3130 H 305.857 4.42291 -2.25149 0
M  V30 3131 H 301.113 4.97654 -3.55176 0
M  V30 3132 H 305.287 5.34041 -4.4696 0
M  V30 3133 H 302.914 5.61454 -5.12516 0
M  V30 3134 N 304.489 0.459591 1.5075 0
M  V30 3135 C 305.905 0.113092 1.59199 0
M  V30 3136 C 306.105 -1.37951 1.46874 0
M  V30 3137 O 305.161 -2.15168 1.32132 0
M  V30 3138 C 306.474 0.653043 2.93523 0
M  V30 3139 C 308.022 0.615449 3.0689 0
M  V30 3140 C 308.497 1.13275 4.43771 0
M  V30 3141 N 309.988 1.09167 4.50152 0
M  V30 3142 C 310.723 1.46256 5.54434 0
M  V30 3143 N 310.219 1.90739 6.66026 0
M  V30 3144 N 312.012 1.37932 5.44914 0
M  V30 3145 H 304.163 1.43049 1.57005 0
M  V30 3146 H 306.426 0.590861 0.741341 0
M  V30 3147 H 306.132 1.69822 3.07983 0
M  V30 3148 H 306.006 0.0902132 3.77092 0
M  V30 3149 H 308.393 -0.420793 2.92084 0
M  V30 3150 H 308.474 1.21495 2.25106 0
M  V30 3151 H 308.118 2.16757 4.59324 0
M  V30 3152 H 308.048 0.509576 5.24129 0
M  V30 3153 H 310.539 0.76528 3.7007 0
M  V30 3154 H 310.852 2.17218 7.41644 0
M  V30 3155 H 309.197 1.94683 6.67176 0
M  V30 3156 H 312.388 1.0303 4.56621 0
M  V30 3157 H 312.561 1.67164 6.26067 0
M  V30 3158 N 305.967 -1.56429 0.191757 0
M  V30 3159 C 307.378 -1.83912 -0.321428 0
M  V30 3160 C 307.729 -1.11231 -1.61623 0
M  V30 3161 O 306.854 -0.37202 -2.13178 0
M  V30 3162 C 307.449 -3.33624 -0.589961 0
M  V30 3163 C 306.008 -3.6153 -1.04753 0
M  V30 3164 C 305.155 -2.7714 -0.0943327 0
M  V30 3165 H 308.106 -1.53161 0.415612 0
M  V30 3166 H 308.127 -3.52213 -1.43966 0
M  V30 3167 H 307.639 -3.86495 0.352588 0
M  V30 3168 H 305.74 -3.14089 -2.00447 0
M  V30 3169 H 305.853 -4.69737 -0.942549 0
M  V30 3170 H 304.217 -2.47638 -0.595589 0
M  V30 3171 H 305 -3.32799 0.842601 0
M  V30 3172 N 307.445 0.0818655 -1.57387 0
M  V30 3173 C 308.67 0.799946 -1.91352 0
M  V30 3174 C 309.095 1.70833 -0.787258 0
M  V30 3175 O 308.453 1.79419 0.26048 0
M  V30 3176 C 308.501 1.57812 -3.24234 0
M  V30 3177 O 307.605 2.68806 -3.12757 0
M  V30 3178 H 306.946 0.21891 -0.626877 0
M  V30 3179 H 309.476 0.0531256 -2.04531 0
M  V30 3180 H 309.486 1.95952 -3.57864 0
M  V30 3181 H 308.161 0.911548 -4.05788 0
M  V30 3182 H 306.738 2.33597 -2.90666 0
M  V30 3183 N 308.923 1.53595 0.353017 0
M  V30 3184 C 309.873 1.77299 1.43349 0
M  V30 3185 C 310.857 0.627884 1.48143 0
M  V30 3186 O 312.049 0.88697 1.53173 0
M  V30 3187 C 309.178 1.97757 2.80619 0
M  V30 3188 C 308.264 3.18305 2.80254 0
M  V30 3189 N 308.655 4.39967 2.49526 0
M  V30 3190 C 306.953 3.19283 3.11407 0
M  V30 3191 C 307.654 5.21772 2.57156 0
M  V30 3192 N 306.63 4.58269 2.92388 0
M  V30 3193 H 310.432 2.68963 1.18474 0
M  V30 3194 H 307.946 1.52391 0.561306 0
M  V30 3195 H 309.943 2.1287 3.58458 0
M  V30 3196 H 308.603 1.07329 3.06448 0
M  V30 3197 H 309.614 4.67482 2.22893 0
M  V30 3198 H 306.291 2.3879 3.4247 0
M  V30 3199 H 307.681 6.2885 2.36638 0
M  V30 3200 N 310.401 -0.613514 1.45168 0
M  V30 3201 C 311.331 -1.7354 1.56225 0
M  V30 3202 C 312.312 -1.64981 0.41414 0
M  V30 3203 O 313.497 -1.83472 0.636526 0
M  V30 3204 C 310.627 -3.12128 1.52295 0
M  V30 3205 C 309.581 -3.35491 2.65762 0
M  V30 3206 C 308.907 -4.74291 2.46885 0
M  V30 3207 C 310.207 -3.26325 4.0781 0
M  V30 3208 H 311.901 -1.64543 2.50132 0
M  V30 3209 H 309.447 -0.790185 1.20383 0
M  V30 3210 H 311.4 -3.90404 1.58628 0
M  V30 3211 H 310.124 -3.2195 0.549139 0
M  V30 3212 H 308.783 -2.59603 2.58847 0
M  V30 3213 H 308.431 -4.80839 1.47657 0
M  V30 3214 H 308.131 -4.9088 3.22972 0
M  V30 3215 H 309.655 -5.54775 2.55063 0
M  V30 3216 H 311.069 -3.94483 4.16 0
M  V30 3217 H 309.466 -3.54445 4.8424 0
M  V30 3218 H 310.536 -2.23855 4.30136 0
M  V30 3219 N 311.879 -1.3236 -0.855495 0
M  V30 3220 C 313.107 -1.2587 -1.64208 0
M  V30 3221 C 313.522 0.173457 -1.88002 0
M  V30 3222 O 312.879 1.11027 -1.44842 0
M  V30 3223 C 312.93 -2.01424 -3.00184 0
M  V30 3224 O 312.651 -3.39051 -2.77445 0
M  V30 3225 C 314.152 -2.01948 -3.94629 0
M  V30 3226 H 311.372 -0.434318 -0.511477 0
M  V30 3227 H 313.916 -1.74469 -1.0668 0
M  V30 3228 H 312.071 -1.56549 -3.5436 0
M  V30 3229 H 312.485 -3.77711 -3.63916 0
M  V30 3230 H 313.959 -2.59297 -4.87308 0
M  V30 3231 H 314.436 -1.00554 -4.27534 0
M  V30 3232 H 315.042 -2.46767 -3.4639 0
M  V30 3233 N 313.357 1.07166 -1.15556 0
M  V30 3234 C 314.305 2.16517 -0.8499 0
M  V30 3235 C 315.299 1.68468 0.177454 0
M  V30 3236 O 316.505 1.79971 0.0323026 0
M  V30 3237 H 312.88 0.706652 -0.25719 0
M  V30 3238 H 314.851 2.39514 -1.77976 0
M  V30 3239 C 313.6 3.45855 -0.357682 0
M  V30 3240 H 312.923 3.83214 -1.13961 0
M  V30 3241 H 314.363 4.23607 -0.182489 0
M  V30 3242 C 312.822 3.24062 0.921152 0
M  V30 3243 O 313.352 3.48813 1.9923 0
M  V30 3244 N 311.558 2.77539 0.86141 0
M  V30 3245 H 311.105 2.57598 -0.0104408 0
M  V30 3246 H 311.063 2.63337 1.71758 0
M  V30 3247 N 314.835 0.952656 1.25548 0
M  V30 3248 C 315.782 0.47008 2.25962 0
M  V30 3249 C 316.752 -0.476384 1.59122 0
M  V30 3250 O 317.937 -0.39007 1.8677 0
M  V30 3251 C 315.077 -0.247881 3.44209 0
M  V30 3252 C 314.19 0.735591 4.25691 0
M  V30 3253 C 313.325 -0.0047306 5.312 0
M  V30 3254 C 312.364 0.969805 6.04368 0
M  V30 3255 N 311.501 0.260486 7.01617 0
M  V30 3256 H 316.341 1.33126 2.66611 0
M  V30 3257 H 313.878 0.66765 1.31076 0
M  V30 3258 H 315.836 -0.680695 4.1161 0
M  V30 3259 H 314.466 -1.07312 3.0444 0
M  V30 3260 H 313.518 1.28689 3.57971 0
M  V30 3261 H 314.83 1.47934 4.76358 0
M  V30 3262 H 313.984 -0.496275 6.04667 0
M  V30 3263 H 312.723 -0.781282 4.81401 0
M  V30 3264 H 311.728 1.47237 5.29718 0
M  V30 3265 H 312.953 1.74655 6.56256 0
M  V30 3266 H 310.899 -0.497364 6.54112 0
M  V30 3267 H 310.816 0.943362 7.50091 0
M  V30 3268 H 312.084 -0.209587 7.79218 0
M  V30 3269 N 316.313 -1.40141 0.720998 0
M  V30 3270 C 317.56 -2.00787 0.262842 0
M  V30 3271 C 317.888 -1.5718 -1.14563 0
M  V30 3272 O 317.143 -0.785391 -1.79249 0
M  V30 3273 C 317.442 -3.56165 0.296892 0
M  V30 3274 C 317.108 -4.19373 1.65641 0
M  V30 3275 C 315.77 -4.36352 2.02855 0
M  V30 3276 C 318.122 -4.54578 2.54968 0
M  V30 3277 C 315.45 -4.8582 3.28931 0
M  V30 3278 C 317.802 -5.05447 3.80402 0
M  V30 3279 C 316.466 -5.20635 4.17726 0
M  V30 3280 H 315.736 -0.734731 0.0961807 0
M  V30 3281 H 318.383 -1.67673 0.925093 0
M  V30 3282 H 316.688 -3.8922 -0.448932 0
M  V30 3283 H 318.385 -4.00929 -0.0755208 0
M  V30 3284 H 314.975 -4.06549 1.35704 0
M  V30 3285 H 319.159 -4.41091 2.27491 0
M  V30 3286 H 314.415 -4.95764 3.57811 0
M  V30 3287 H 318.589 -5.31663 4.49786 0
M  V30 3288 H 316.216 -5.58728 5.15487 0
M  V30 3289 N 317.792 -0.46758 -1.50504 0
M  V30 3290 C 318.702 0.33382 -2.32213 0
M  V30 3291 C 319.718 0.999323 -1.42441 0
M  V30 3292 O 320.894 0.988068 -1.75497 0
M  V30 3293 C 317.959 1.4035 -3.17022 0
M  V30 3294 C 317.02 0.754961 -4.2261 0
M  V30 3295 C 316.253 1.77367 -5.03365 0
M  V30 3296 O 316.476 2.99976 -4.8515 0
M  V30 3297 O 315.41 1.34744 -5.86624 0
M  V30 3298 H 319.236 -0.334067 -3.01857 0
M  V30 3299 H 316.821 -0.229496 -1.47627 0
M  V30 3300 H 318.703 2.02318 -3.69656 0
M  V30 3301 H 317.378 2.05492 -2.5011 0
M  V30 3302 H 316.285 0.0964244 -3.73976 0
M  V30 3303 H 317.618 0.146545 -4.91982 0
M  V30 3304 N 319.27 1.56325 -0.20005 0
M  V30 3305 C 320.547 1.89484 0.48529 0
M  V30 3306 C 320.927 1.1143 1.79294 0
M  V30 3307 O 320.275 0.216919 2.27468 0
M  V30 3308 C 320.485 3.41923 0.699243 0
M  V30 3309 C 321.833 4.12256 1.01638 0
M  V30 3310 O 322.857 3.47402 0.786792 0
M  V30 3311 O 321.716 5.26887 1.45095 0
M  V30 3312 H 318.81 0.787144 0.253639 0
M  V30 3313 H 321.356 1.67985 -0.240633 0
M  V30 3314 H 320.128 3.90658 -0.224008 0
M  V30 3315 H 319.751 3.69131 1.47744 0
M  V30 3316 N 320.748 -0.0735177 1.57428 0
M  V30 3317 C 321.695 -1.08756 2.0357 0
M  V30 3318 C 322.665 -1.38559 0.916 0
M  V30 3319 O 323.85 -1.49656 1.18354 0
M  V30 3320 C 320.99 -2.39657 2.48311 0
M  V30 3321 C 320.103 -2.16399 3.73892 0
M  V30 3322 C 319.238 -3.40852 4.07423 0
M  V30 3323 C 318.277 -3.1295 5.2605 0
M  V30 3324 N 317.414 -4.29729 5.55228 0
M  V30 3325 H 322.254 -0.687104 2.8997 0
M  V30 3326 H 319.791 -0.327709 1.43403 0
M  V30 3327 H 321.749 -3.16081 2.72303 0
M  V30 3328 H 320.379 -2.77508 1.64891 0
M  V30 3329 H 319.431 -1.30676 3.57251 0
M  V30 3330 H 320.743 -1.91788 4.60455 0
M  V30 3331 H 319.897 -4.25671 4.32306 0
M  V30 3332 H 318.636 -3.68537 3.19425 0
M  V30 3333 H 317.641 -2.26526 5.00965 0
M  V30 3334 H 318.866 -2.86589 6.15665 0
M  V30 3335 H 316.812 -4.57448 4.70188 0
M  V30 3336 H 316.729 -4.08385 6.36206 0
M  V30 3337 H 317.997 -5.1555 5.84661 0
M  V30 3338 N 322.226 -1.5378 -0.344866 0
M  V30 3339 C 323.454 -1.74899 -1.10534 0
M  V30 3340 C 323.869 -0.487534 -1.82397 0
M  V30 3341 O 323.226 0.540741 -1.74305 0
M  V30 3342 C 323.277 -2.92822 -2.11984 0
M  V30 3343 O 322.998 -4.14089 -1.43044 0
M  V30 3344 C 324.499 -3.25982 -3.00417 0
M  V30 3345 H 321.719 -0.584426 -0.329678 0
M  V30 3346 H 324.263 -2.006 -0.397474 0
M  V30 3347 H 322.418 -2.69457 -2.78338 0
M  V30 3348 H 322.832 -4.80272 -2.10805 0
M  V30 3349 H 324.306 -4.11848 -3.67539 0
M  V30 3350 H 324.783 -2.42228 -3.66363 0
M  V30 3351 H 325.389 -3.51349 -2.39654 0
M  V30 3352 N 323.704 0.605807 -1.45491 0
M  V30 3353 C 324.95 1.36679 -1.49823 0
M  V30 3354 C 325.283 1.93693 -0.140175 0
M  V30 3355 O 324.558 1.75158 0.845581 0
M  V30 3356 C 324.841 2.51337 -2.57879 0
M  V30 3357 C 324.694 1.99508 -4.03134 0
M  V30 3358 C 326.013 3.53463 -2.62205 0
M  V30 3359 H 323.132 0.495617 -0.545466 0
M  V30 3360 H 325.774 0.682732 -1.7731 0
M  V30 3361 H 323.924 3.09691 -2.34571 0
M  V30 3362 H 325.596 1.45789 -4.37656 0
M  V30 3363 H 323.839 1.30496 -4.13707 0
M  V30 3364 H 324.51 2.82169 -4.74431 0
M  V30 3365 H 326.986 3.04953 -2.83095 0
M  V30 3366 H 325.862 4.31178 -3.39672 0
M  V30 3367 H 326.123 4.09197 -1.67363 0
M  V30 3368 N 325.182 1.32811 0.848464 0
M  V30 3369 C 326.145 1.22194 1.9391 0
M  V30 3370 C 327.145 0.143404 1.60159 0
M  V30 3371 O 328.335 0.394253 1.6968 0
M  V30 3372 C 325.467 0.88067 3.29328 0
M  V30 3373 H 326.66 2.19127 2.04752 0
M  V30 3374 H 324.213 1.16731 1.0394 0
M  V30 3375 H 324.948 -0.0865776 3.24184 0
M  V30 3376 H 324.733 1.66052 3.55203 0
M  V30 3377 H 326.223 0.830871 4.09251 0
M  V30 3378 N 326.66 -1.06551 1.16123 0
M  V30 3379 C 327.89 -1.8274 0.963838 0
M  V30 3380 C 328.298 -1.82712 -0.491228 0
M  V30 3381 O 327.641 -1.24294 -1.35265 0
M  V30 3382 C 327.703 -3.3065 1.41106 0
M  V30 3383 C 327.367 -3.54384 2.88549 0
M  V30 3384 C 328.364 -3.4765 3.86569 0
M  V30 3385 C 326.049 -3.81789 3.26408 0
M  V30 3386 C 328.043 -3.67982 5.2045 0
M  V30 3387 C 325.73 -4.01772 4.60459 0
M  V30 3388 C 326.728 -3.94866 5.57288 0
M  V30 3389 O 326.416 -4.14306 6.88916 0
M  V30 3390 H 326.148 -0.583136 0.341948 0
M  V30 3391 H 328.702 -1.35351 1.54497 0
M  V30 3392 H 326.932 -3.78887 0.773394 0
M  V30 3393 H 328.621 -3.88324 1.1815 0
M  V30 3394 H 329.387 -3.2647 3.58667 0
M  V30 3395 H 325.266 -3.86276 2.51619 0
M  V30 3396 H 328.81 -3.62507 5.96015 0
M  V30 3397 H 324.707 -4.2244 4.88072 0
M  V30 3398 H 325.475 -4.31609 6.95454 0
M  V30 3399 N 328.138 -0.959301 -1.25041 0
M  V30 3400 C 329.366 -0.633949 -1.96948 0
M  V30 3401 C 329.781 0.794916 -1.7125 0
M  V30 3402 O 329.138 1.53231 -0.991287 0
M  V30 3403 C 329.189 -0.888805 -3.50403 0
M  V30 3404 O 328.91 -2.26149 -3.75218 0
M  V30 3405 C 330.411 -0.576482 -4.39536 0
M  V30 3406 H 327.631 -0.237263 -0.627652 0
M  V30 3407 H 330.175 -1.28495 -1.59089 0
M  V30 3408 H 328.33 -0.284145 -3.86357 0
M  V30 3409 H 328.744 -2.33514 -4.6965 0
M  V30 3410 H 330.218 -0.805314 -5.46094 0
M  V30 3411 H 330.695 0.489075 -4.36468 0
M  V30 3412 H 331.301 -1.16067 -4.09156 0
M  V30 3413 N 329.616 1.39756 -0.72842 0
M  V30 3414 C 330.526 2.34444 -0.0855374 0
M  V30 3415 C 331.542 1.57976 0.729356 0
M  V30 3416 O 332.718 1.90301 0.659346 0
M  V30 3417 C 329.783 3.36965 0.815798 0
M  V30 3418 C 328.844 4.29299 -0.0105996 0
M  V30 3419 C 328.077 5.26923 0.84781 0
M  V30 3420 O 328.3 5.30859 2.08673 0
M  V30 3421 O 327.234 6.01249 0.279969 0
M  V30 3422 H 331.06 2.91065 -0.866892 0
M  V30 3423 H 328.645 1.4117 -0.48902 0
M  V30 3424 H 330.527 3.99804 1.33171 0
M  V30 3425 H 329.202 2.82739 1.57608 0
M  V30 3426 H 328.109 3.69703 -0.571877 0
M  V30 3427 H 329.442 4.86712 -0.73295 0
M  V30 3428 N 331.094 0.475555 1.50254 0
M  V30 3429 C 332.026 -0.352649 2.26471 0
M  V30 3430 C 333.039 -0.953165 1.3198 0
M  V30 3431 O 334.228 -0.840815 1.57457 0
M  V30 3432 C 331.328 -1.50902 3.0345 0
M  V30 3433 C 330.501 -1.02047 4.25329 0
M  V30 3434 C 329.56 -2.05142 4.84565 0
M  V30 3435 O 328.586 -1.63023 5.45355 0
M  V30 3436 N 329.788 -3.37987 4.71959 0
M  V30 3437 H 332.553 0.300767 2.98187 0
M  V30 3438 H 330.114 0.306598 1.5897 0
M  V30 3439 H 332.106 -2.19572 3.39956 0
M  V30 3440 H 330.676 -2.06705 2.34504 0
M  V30 3441 H 329.896 -0.159507 3.93877 0
M  V30 3442 H 331.184 -0.672061 5.04342 0
M  V30 3443 H 330.582 -3.74913 4.23623 0
M  V30 3444 H 329.139 -4.02443 5.12721 0
M  V30 3445 N 332.573 -1.56217 0.208337 0
M  V30 3446 C 333.52 -2.19699 -0.707192 0
M  V30 3447 C 334.49 -1.14836 -1.20008 0
M  V30 3448 O 335.675 -1.4314 -1.26157 0
M  V30 3449 C 332.815 -2.87061 -1.91546 0
M  V30 3450 C 331.928 -4.06483 -1.46271 0
M  V30 3451 C 331.063 -4.61665 -2.62752 0
M  V30 3452 C 330.102 -5.73417 -2.14147 0
M  V30 3453 N 329.239 -6.22948 -3.23853 0
M  V30 3454 H 334.079 -2.97575 -0.159111 0
M  V30 3455 H 331.616 -1.46948 -0.0667874 0
M  V30 3456 H 333.574 -3.24294 -2.62468 0
M  V30 3457 H 332.204 -2.11725 -2.43664 0
M  V30 3458 H 331.256 -3.74825 -0.648886 0
M  V30 3459 H 332.568 -4.87271 -1.06622 0
M  V30 3460 H 331.722 -5.01272 -3.41776 0
M  V30 3461 H 330.461 -3.80013 -3.05682 0
M  V30 3462 H 329.466 -5.33326 -1.33581 0
M  V30 3463 H 330.691 -6.56897 -1.72232 0
M  V30 3464 H 328.637 -5.44213 -3.6629 0
M  V30 3465 H 328.554 -6.98823 -2.88414 0
M  V30 3466 H 329.822 -6.6721 -4.03052 0
M  V30 3467 N 334.051 0.0651679 -1.57465 0
M  V30 3468 C 334.984 1.10876 -1.99453 0
M  V30 3469 C 335.962 1.37205 -0.872555 0
M  V30 3470 O 337.146 1.50468 -1.13542 0
M  V30 3471 C 334.273 2.45167 -2.3369 0
M  V30 3472 C 333.319 2.3493 -3.55964 0
M  V30 3473 S 334.152 1.73708 -5.06543 0
M  V30 3474 C 335.308 3.09563 -5.43987 0
M  V30 3475 H 335.541 0.750967 -2.87659 0
M  V30 3476 H 333.074 0.273933 -1.51951 0
M  V30 3477 H 335.032 3.22412 -2.54088 0
M  V30 3478 H 333.693 2.78105 -1.46001 0
M  V30 3479 H 332.886 3.3398 -3.77457 0
M  V30 3480 H 332.488 1.65823 -3.3523 0
M  V30 3481 H 334.78 4.05882 -5.42463 0
M  V30 3482 H 335.723 2.92843 -6.44708 0
M  V30 3483 H 336.131 3.10474 -4.71451 0
M  V30 3484 N 335.529 1.53961 0.336706 0
M  V30 3485 C 336.757 1.75483 1.09605 0
M  V30 3486 C 337.172 0.4972 1.82136 0
M  V30 3487 O 336.529 -0.53149 1.74589 0
M  V30 3488 C 336.58 2.93943 2.10428 0
M  V30 3489 O 336.301 4.14842 1.40846 0
M  V30 3490 C 337.802 3.27571 2.98684 0
M  V30 3491 H 335.022 0.586166 0.326574 0
M  V30 3492 H 337.566 2.00808 0.38683 0
M  V30 3493 H 335.721 2.70929 2.76905 0
M  V30 3494 H 336.135 4.81383 2.08255 0
M  V30 3495 H 337.609 4.13791 3.6535 0
M  V30 3496 H 338.086 2.44168 3.65074 0
M  V30 3497 H 338.692 3.52615 2.37787 0
M  V30 3498 N 337.007 -0.598083 1.45811 0
M  V30 3499 C 338.232 -1.3881 1.54099 0
M  V30 3500 C 338.657 -1.8726 0.177578 0
M  V30 3501 O 338.015 -1.6069 -0.839541 0
M  V30 3502 C 338.063 -2.56217 2.53743 0
M  V30 3503 O 337.167 -3.5716 2.06182 0
M  V30 3504 H 336.508 -0.414024 0.519115 0
M  V30 3505 H 339.038 -0.726971 1.91249 0
M  V30 3506 H 339.048 -3.03337 2.72856 0
M  V30 3507 H 337.723 -2.20303 3.5276 0
M  V30 3508 H 336.3 -3.16624 1.96987 0
M  V30 3509 N 338.485 -1.33259 -0.841409 0
M  V30 3510 C 339.733 -1.24326 -1.59334 0
M  V30 3511 C 340.054 0.191564 -1.94057 0
M  V30 3512 O 339.324 1.11967 -1.60749 0
M  V30 3513 H 337.904 -0.457174 -0.590763 0
M  V30 3514 H 340.566 -1.66947 -1.00571 0
M  V30 3515 H 339.662 -1.8352 -2.52442 0
M  V30 3516 N 339.963 1.05934 -1.16686 0
M  V30 3517 C 340.91 2.13499 -0.876748 0
M  V30 3518 C 341.88 1.65162 0.176299 0
M  V30 3519 O 343.065 1.90757 0.0407143 0
M  V30 3520 C 340.205 3.42912 -0.387967 0
M  V30 3521 C 339.318 4.04964 -1.50426 0
M  V30 3522 C 338.453 5.22266 -0.970125 0
M  V30 3523 C 337.492 5.76309 -2.06238 0
M  V30 3524 N 336.629 6.84922 -1.54356 0
M  V30 3525 H 341.469 2.37654 -1.7979 0
M  V30 3526 H 339.006 1.16598 -0.896843 0
M  V30 3527 H 340.964 4.17111 -0.086186 0
M  V30 3528 H 339.594 3.18963 0.496235 0
M  V30 3529 H 338.646 3.28277 -1.92193 0
M  V30 3530 H 339.958 4.41122 -2.32836 0
M  V30 3531 H 339.112 6.03506 -0.621743 0
M  V30 3532 H 337.851 4.87564 -0.115377 0
M  V30 3533 H 336.856 4.93704 -2.41942 0
M  V30 3534 H 338.081 6.13062 -2.92115 0
M  V30 3535 H 336.027 6.52131 -0.711406 0
M  V30 3536 H 335.944 7.20043 -2.30379 0
M  V30 3537 H 337.212 7.69832 -1.22387 0
M  V30 3538 N 341.441 0.965919 1.2453 0
M  V30 3539 C 342.69 0.622437 1.91856 0
M  V30 3540 C 343.003 -0.846006 1.76358 0
M  V30 3541 O 344.209 -1.29993 2.38357 0
M  V30 3542 C 342.665 1.0626 3.43856 0
M  V30 3543 C 342.273 2.55437 3.68043 0
M  V30 3544 C 344.017 0.792183 4.17043 0
M  V30 3545 C 341.924 2.93196 5.13605 0
M  V30 3546 H 340.854 0.229092 0.718354 0
M  V30 3547 H 343.505 1.17189 1.41206 0
M  V30 3548 H 341.887 0.441476 3.93531 0
M  V30 3549 H 343.061 3.22665 3.28974 0
M  V30 3550 H 341.376 2.8007 3.08139 0
M  V30 3551 H 343.973 1.05031 5.24283 0
M  V30 3552 H 344.316 -0.271584 4.15413 0
M  V30 3553 H 344.849 1.37419 3.73311 0
M  V30 3554 H 341.588 3.98636 5.20355 0
M  V30 3555 H 341.108 2.30651 5.53679 0
M  V30 3556 H 342.787 2.83004 5.81823 0
M  V30 3557 N 342.919 -1.39368 0.735821 0
M  V30 3558 C 343.866 -2.30599 0.0963825 0
M  V30 3559 C 344.836 -1.49257 -0.728794 0
M  V30 3560 O 346.021 -1.77941 -0.688588 0
M  V30 3561 C 343.161 -3.35596 -0.804305 0
M  V30 3562 C 342.274 -4.31987 0.0335761 0
M  V30 3563 C 341.409 -5.24053 -0.868461 0
M  V30 3564 C 340.448 -6.12095 -0.0258776 0
M  V30 3565 N 339.585 -6.96514 -0.883893 0
M  V30 3566 H 344.425 -2.8471 0.880002 0
M  V30 3567 H 341.962 -1.40188 0.445619 0
M  V30 3568 H 343.92 -3.95062 -1.34096 0
M  V30 3569 H 342.55 -2.82938 -1.55389 0
M  V30 3570 H 341.602 -3.74133 0.68766 0
M  V30 3571 H 342.914 -4.94074 0.685036 0
M  V30 3572 H 342.068 -5.88549 -1.47293 0
M  V30 3573 H 340.807 -4.62289 -1.5537 0
M  V30 3574 H 339.812 -5.4661 0.591386 0
M  V30 3575 H 341.037 -6.75923 0.656156 0
M  V30 3576 H 338.983 -6.37318 -1.55441 0
M  V30 3577 H 338.9 -7.55448 -0.288931 0
M  V30 3578 H 340.168 -7.65439 -1.4739 0
M  V30 3579 N 344.397 -0.483516 -1.5 0
M  V30 3580 C 345.344 0.304164 -2.28787 0
M  V30 3581 C 346.314 0.976114 -1.34392 0
M  V30 3582 O 347.499 0.986156 -1.63339 0
M  V30 3583 C 344.639 1.37298 -3.16612 0
M  V30 3584 C 343.752 0.714561 -4.26049 0
M  V30 3585 C 342.887 1.76232 -5.01114 0
M  V30 3586 C 341.926 1.08483 -6.0241 0
M  V30 3587 N 341.063 2.076 -6.70706 0
M  V30 3588 H 345.903 -0.373981 -2.95644 0
M  V30 3589 H 343.44 -0.196275 -1.45785 0
M  V30 3590 H 345.398 2.00445 -3.65893 0
M  V30 3591 H 344.028 2.02012 -2.51776 0
M  V30 3592 H 343.08 -0.0297798 -3.80388 0
M  V30 3593 H 344.392 0.180383 -4.98474 0
M  V30 3594 H 343.546 2.46929 -5.54176 0
M  V30 3595 H 342.285 2.33033 -4.28424 0
M  V30 3596 H 341.29 0.363545 -5.48597 0
M  V30 3597 H 342.515 0.523551 -6.77079 0
M  V30 3598 H 340.461 2.63394 -6.00799 0
M  V30 3599 H 340.378 1.59201 -7.39047 0
M  V30 3600 H 341.646 2.77639 -7.2838 0
M  V30 3601 N 345.875 1.56104 -0.216619 0
M  V30 3602 C 347.122 1.98172 0.416416 0
M  V30 3603 C 347.45 1.10413 1.60122 0
M  V30 3604 O 346.705 0.147967 1.9514 0
M  V30 3605 C 347.004 3.45923 0.898464 0
M  V30 3606 C 346.67 4.50559 -0.175288 0
M  V30 3607 C 345.332 4.78897 -0.470271 0
M  V30 3608 C 347.684 5.1334 -0.901728 0
M  V30 3609 C 345.012 5.67299 -1.4963 0
M  V30 3610 C 347.364 6.02853 -1.91705 0
M  V30 3611 C 346.028 6.29537 -2.21901 0
M  V30 3612 H 345.298 0.725164 0.152377 0
M  V30 3613 H 347.945 1.88839 -0.318103 0
M  V30 3614 H 346.25 3.52434 1.71165 0
M  V30 3615 H 347.947 3.75841 1.39803 0
M  V30 3616 H 344.537 4.28551 0.0647806 0
M  V30 3617 H 348.721 4.91521 -0.687072 0
M  V30 3618 H 343.977 5.86239 -1.73592 0
M  V30 3619 H 348.151 6.50552 -2.48505 0
M  V30 3620 H 345.778 6.97835 -3.01548 0
M  V30 3621 N 347.353 -0.0568162 1.57498 0
M  V30 3622 C 348.602 -0.752001 1.87157 0
M  V30 3623 C 348.915 -1.77978 0.811375 0
M  V30 3624 O 350.121 -2.52559 0.996293 0
M  V30 3625 C 348.577 -1.38844 3.3204 0
M  V30 3626 C 348.185 -0.398456 4.46225 0
M  V30 3627 C 349.929 -2.06512 3.70882 0
M  V30 3628 C 347.836 -1.04166 5.82154 0
M  V30 3629 H 346.766 -0.28461 0.698222 0
M  V30 3630 H 349.417 -0.00561272 1.83499 0
M  V30 3631 H 347.799 -2.1836 3.30356 0
M  V30 3632 H 348.973 0.367977 4.59328 0
M  V30 3633 H 347.288 0.174592 4.16034 0
M  V30 3634 H 349.885 -2.55437 4.6974 0
M  V30 3635 H 350.228 -2.87117 3.01445 0
M  V30 3636 H 350.761 -1.33808 3.7462 0
M  V30 3637 H 347.5 -0.275614 6.5492 0
M  V30 3638 H 347.02 -1.7786 5.72823 0
M  V30 3639 H 348.699 -1.55715 6.27982 0
M  V30 3640 N 348.832 -1.54138 -0.328536 0
M  V30 3641 C 349.764 -1.79509 -1.4251 0
M  V30 3642 C 350.777 -0.67688 -1.48061 0
M  V30 3643 O 351.966 -0.953898 -1.50874 0
M  V30 3644 C 349.066 -1.89337 -2.81078 0
M  V30 3645 C 348.239 -3.19443 -2.98789 0
M  V30 3646 C 347.298 -3.20036 -4.17688 0
M  V30 3647 O 346.324 -3.93697 -4.11086 0
M  V30 3648 N 347.526 -2.43467 -5.26976 0
M  V30 3649 H 350.291 -2.74139 -1.21111 0
M  V30 3650 H 347.852 -1.53373 -0.518499 0
M  V30 3651 H 349.844 -1.87167 -3.58818 0
M  V30 3652 H 348.414 -1.01826 -2.95551 0
M  V30 3653 H 347.634 -3.34614 -2.08391 0
M  V30 3654 H 348.922 -4.05354 -3.07515 0
M  V30 3655 H 348.32 -1.83201 -5.35214 0
M  V30 3656 H 346.877 -2.4708 -6.03154 0
M  V30 3657 N 350.31 0.590341 -1.46126 0
M  V30 3658 C 351.22 1.72793 -1.58681 0
M  V30 3659 C 352.236 1.67516 -0.470566 0
M  V30 3660 O 353.412 1.87562 -0.733642 0
M  V30 3661 C 350.477 3.09287 -1.5666 0
M  V30 3662 C 349.538 3.25886 -2.79458 0
M  V30 3663 C 348.771 4.55869 -2.77524 0
M  V30 3664 O 348.994 5.3928 -1.85832 0
M  V30 3665 O 347.928 4.75552 -3.68964 0
M  V30 3666 H 351.754 1.65149 -2.54872 0
M  V30 3667 H 349.339 0.756486 -1.28832 0
M  V30 3668 H 351.221 3.90577 -1.58202 0
M  V30 3669 H 349.896 3.17385 -0.636271 0
M  V30 3670 H 348.803 2.44119 -2.83472 0
M  V30 3671 H 350.136 3.22675 -3.71674 0
M  V30 3672 N 351.788 1.33704 0.83433 0
M  V30 3673 C 352.736 1.24323 1.96587 0
M  V30 3674 C 353.73 0.143659 1.6879 0
M  V30 3675 O 354.936 0.30791 1.77347 0
M  V30 3676 H 351.311 0.385925 0.645419 0
M  V30 3677 H 353.282 2.19978 2.01624 0
M  V30 3678 C 352.031 1.00394 3.32891 0
M  V30 3679 H 351.354 1.84231 3.54822 0
M  V30 3680 H 352.794 0.97862 4.12552 0
M  V30 3681 C 351.253 -0.293047 3.35623 0
M  V30 3682 O 351.783 -1.29823 3.80143 0
M  V30 3683 N 349.989 -0.322174 2.88809 0
M  V30 3684 H 349.536 0.496379 2.52772 0
M  V30 3685 H 349.494 -1.18977 2.91019 0
M  V30 3686 N 353.266 -1.05314 1.17247 0
M  V30 3687 C 354.515 -1.77685 0.954521 0
M  V30 3688 C 354.828 -1.88616 -0.518025 0
M  V30 3689 O 356.034 -2.57714 -0.854144 0
M  V30 3690 C 354.49 -3.19402 1.65863 0
M  V30 3691 C 354.098 -3.16605 3.16963 0
M  V30 3692 C 355.842 -3.96237 1.52303 0
M  V30 3693 C 353.749 -4.53103 3.80068 0
M  V30 3694 H 352.679 -0.666 0.353496 0
M  V30 3695 H 355.33 -1.1805 1.40486 0
M  V30 3696 H 353.712 -3.79355 1.13602 0
M  V30 3697 H 354.886 -2.66176 3.76148 0
M  V30 3698 H 353.201 -2.53268 3.30521 0
M  V30 3699 H 355.798 -4.97157 1.96822 0
M  V30 3700 H 356.141 -4.136 0.473401 0
M  V30 3701 H 356.674 -3.42829 2.01775 0
M  V30 3702 H 353.413 -4.40946 4.85023 0
M  V30 3703 H 352.933 -5.03686 3.2567 0
M  V30 3704 H 354.612 -5.22045 3.82202 0
M  V30 3705 N 354.744 -0.972509 -1.24016 0
M  V30 3706 C 355.991 -0.637034 -1.92219 0
M  V30 3707 C 356.319 0.828418 -1.75976 0
M  V30 3708 O 355.574 1.61206 -1.10955 0
M  V30 3709 C 355.873 -0.963694 -3.44162 0
M  V30 3710 C 355.539 -2.41807 -3.80579 0
M  V30 3711 C 354.201 -2.81556 -3.9023 0
M  V30 3712 C 356.553 -3.36172 -3.98293 0
M  V30 3713 C 353.881 -4.14702 -4.15017 0
M  V30 3714 C 356.233 -4.68952 -4.24578 0
M  V30 3715 C 354.897 -5.08472 -4.32449 0
M  V30 3716 H 354.167 -0.233107 -0.703379 0
M  V30 3717 H 356.814 -1.2249 -1.47202 0
M  V30 3718 H 355.119 -0.29365 -3.90698 0
M  V30 3719 H 356.816 -0.682449 -3.9515 0
M  V30 3720 H 353.406 -2.09988 -3.73635 0
M  V30 3721 H 357.59 -3.06644 -3.90234 0
M  V30 3722 H 352.846 -4.4494 -4.19331 0
M  V30 3723 H 357.02 -5.42037 -4.37229 0
M  V30 3724 H 354.647 -6.11665 -4.51409 0
M  V30 3725 N 356.222 1.38976 -0.743202 0
M  V30 3726 C 357.47 1.99948 -0.29417 0
M  V30 3727 C 357.791 1.59279 1.12495 0
M  V30 3728 O 357.061 0.844808 1.76748 0
M  V30 3729 H 355.641 0.739473 -0.105774 0
M  V30 3730 H 358.303 1.699 -0.954986 0
M  V30 3731 H 357.399 3.10142 -0.349056 0
M  V30 3732 N 357.7 0.491464 1.49741 0
M  V30 3733 C 358.949 -0.0582189 2.01616 0
M  V30 3734 C 359.262 -1.38927 1.3769 0
M  V30 3735 O 360.468 -2.02509 1.80838 0
M  V30 3736 C 358.924 -0.154235 3.59569 0
M  V30 3737 C 358.532 1.1696 4.32463 0
M  V30 3738 C 360.276 -0.65479 4.1942 0
M  V30 3739 C 358.183 1.03627 5.8225 0
M  V30 3740 H 357.113 -0.0255317 0.753568 0
M  V30 3741 H 359.764 0.629445 1.72367 0
M  V30 3742 H 358.146 -0.906138 3.85493 0
M  V30 3743 H 359.32 1.93405 4.18248 0
M  V30 3744 H 357.635 1.60285 3.84315 0
M  V30 3745 H 360.232 -0.771903 5.29099 0
M  V30 3746 H 360.575 -1.65127 3.8215 0
M  V30 3747 H 361.108 0.040304 3.9778 0
M  V30 3748 H 357.847 2.00672 6.24028 0
M  V30 3749 H 357.367 0.312546 5.98985 0
M  V30 3750 H 359.046 0.711114 6.4308 0
M  V30 3751 N 359.178 -1.55987 0.224894 0
M  V30 3752 C 360.418 -2.00293 -0.407706 0
M  V30 3753 C 360.782 -1.1093 -1.56711 0
M  V30 3754 O 361.983 -1.44597 -2.26595 0
M  V30 3755 C 360.254 -3.47675 -0.82805 0
M  V30 3756 S 361.813 -4.14 -1.45429 0
M  V30 3757 H 358.631 -0.699152 -0.129256 0
M  V30 3758 H 361.233 -1.92609 0.334967 0
M  V30 3759 H 359.937 -4.10392 0.0253964 0
M  V30 3760 H 359.468 -3.59239 -1.60345 0
M  V30 3761 H 361.483 -4.13465 -2.74337 0
M  V30 3762 N 360.656 0.0484629 -1.57525 0
M  V30 3763 C 362.067 0.597486 -1.76881 0
M  V30 3764 C 362.418 1.76664 -0.853475 0
M  V30 3765 O 361.543 2.16357 -0.0433656 0
M  V30 3766 C 362.138 1.09066 -3.20765 0
M  V30 3767 C 360.697 1.58535 -3.41385 0
M  V30 3768 C 359.844 0.514868 -2.72478 0
M  V30 3769 H 362.795 -0.177758 -1.57701 0
M  V30 3770 H 362.816 1.95875 -3.2621 0
M  V30 3771 H 362.328 0.239521 -3.8736 0
M  V30 3772 H 360.429 2.45898 -2.79937 0
M  V30 3773 H 360.542 1.64622 -4.49929 0
M  V30 3774 H 358.906 0.965407 -2.35695 0
M  V30 3775 H 359.689 -0.32648 -3.41744 0
M  V30 3776 N 362.134 1.5431 0.320358 0
M  V30 3777 C 363.084 1.803 1.39556 0
M  V30 3778 C 364.068 0.659166 1.46778 0
M  V30 3779 O 365.26 0.91926 1.51257 0
M  V30 3780 C 362.389 2.03665 2.76361 0
M  V30 3781 C 361.475 3.24178 2.73439 0
M  V30 3782 N 361.866 4.4516 2.40137 0
M  V30 3783 C 360.164 3.25816 3.04565 0
M  V30 3784 C 360.865 5.27109 2.4603 0
M  V30 3785 N 359.841 4.64368 2.82601 0
M  V30 3786 H 363.643 2.71416 1.12742 0
M  V30 3787 H 361.157 1.53548 0.528856 0
M  V30 3788 H 363.154 2.20425 3.53862 0
M  V30 3789 H 361.814 1.13805 3.04103 0
M  V30 3790 H 362.825 4.72104 2.12927 0
M  V30 3791 H 359.502 2.46001 3.37328 0
M  V30 3792 H 360.892 6.33728 2.23246 0
M  V30 3793 N 363.613 -0.582584 1.46437 0
M  V30 3794 C 364.546 -1.70633 1.51524 0
M  V30 3795 C 365.524 -1.58349 0.369351 0
M  V30 3796 O 366.708 -1.79563 0.573516 0
M  V30 3797 C 363.835 -3.08687 1.39392 0
M  V30 3798 C 362.881 -3.3949 2.58164 0
M  V30 3799 S 363.714 -3.31548 4.20519 0
M  V30 3800 C 364.87 -4.72139 4.10896 0
M  V30 3801 H 365.103 -1.66058 2.46601 0
M  V30 3802 H 362.636 -0.761337 1.34324 0
M  V30 3803 H 364.594 -3.8833 1.33079 0
M  V30 3804 H 363.255 -3.10751 0.457436 0
M  V30 3805 H 362.448 -4.40071 2.45669 0
M  V30 3806 H 362.05 -2.67415 2.61468 0
M  V30 3807 H 364.342 -5.62527 3.77584 0
M  V30 3808 H 365.285 -4.89692 5.11476 0
M  V30 3809 H 365.693 -4.48995 3.42146 0
M  V30 3810 N 365.091 -1.34144 -0.827227 0
M  V30 3811 C 366.319 -1.29325 -1.61501 0
M  V30 3812 C 366.734 0.13354 -1.88327 0
M  V30 3813 O 366.091 1.0793 -1.47164 0
M  V30 3814 C 366.142 -2.07746 -2.95844 0
M  V30 3815 O 365.863 -3.4486 -2.70191 0
M  V30 3816 C 367.364 -2.10273 -3.90256 0
M  V30 3817 H 364.584 -0.445069 -0.50215 0
M  V30 3818 H 367.128 -1.76693 -1.02955 0
M  V30 3819 H 365.283 -1.6403 -3.5096 0
M  V30 3820 H 365.697 -3.85345 -3.55822 0
M  V30 3821 H 367.171 -2.69575 -4.81698 0
M  V30 3822 H 367.648 -1.096 -4.25305 0
M  V30 3823 H 368.254 -2.54059 -3.41078 0
M  V30 3824 N 366.569 1.04691 -1.17803 0
M  V30 3825 C 367.479 2.16057 -0.914151 0
M  V30 3826 C 368.495 1.73589 0.119503 0
M  V30 3827 O 369.671 2.01308 -0.0609468 0
M  V30 3828 C 366.736 3.4394 -0.436603 0
M  V30 3829 C 365.797 4.00825 -1.53746 0
M  V30 3830 C 365.03 5.22604 -1.0826 0
M  V30 3831 O 365.253 5.70367 0.0612244 0
M  V30 3832 O 364.187 5.7186 -1.87775 0
M  V30 3833 H 368.013 2.41169 -1.84584 0
M  V30 3834 H 365.598 1.1453 -0.959334 0
M  V30 3835 H 367.48 4.21024 -0.178057 0
M  V30 3836 H 366.155 3.20316 0.466869 0
M  V30 3837 H 365.062 3.25158 -1.84995 0
M  V30 3838 H 366.395 4.28778 -2.41683 0
M  V30 3839 N 368.047 0.979072 1.23499 0
M  V30 3840 C 369.324 0.563674 1.87302 0
M  V30 3841 C 369.704 -0.959199 1.88049 0
M  V30 3842 O 369.052 -1.83535 1.36114 0
M  V30 3843 C 369.262 1.16822 3.28867 0
M  V30 3844 C 370.61 1.26014 4.0547 0
M  V30 3845 O 371.634 1.12158 3.38082 0
M  V30 3846 O 370.493 1.48044 5.26066 0
M  V30 3847 H 367.587 0.189602 0.804972 0
M  V30 3848 H 370.133 1.07407 1.31384 0
M  V30 3849 H 368.905 2.21049 3.22883 0
M  V30 3850 H 368.528 0.642564 3.92373 0
M  V30 3851 N 369.525 -1.3858 0.750561 0
M  V30 3852 C 370.473 -2.32339 0.110162 0
M  V30 3853 C 371.467 -1.53864 -0.708674 0
M  V30 3854 O 372.673 -1.69417 -0.608112 0
M  V30 3855 H 369.048 -0.751812 0.0168275 0
M  V30 3856 H 371.019 -2.83959 0.917053 0
M  V30 3857 C 369.768 -3.39043 -0.771067 0
M  V30 3858 H 369.091 -3.99517 -0.150374 0
M  V30 3859 H 370.531 -4.07061 -1.1865 0
M  V30 3860 C 368.99 -2.77365 -1.91234 0
M  V30 3861 O 369.52 -2.66434 -3.00626 0
M  V30 3862 N 367.726 -2.35219 -1.70646 0
M  V30 3863 H 367.273 -2.4431 -0.81673 0
M  V30 3864 H 367.231 -1.94294 -2.47178 0
M  V30 3865 N 371.003 -0.499398 -1.49478 0
M  V30 3866 C 371.95 0.279881 -2.29097 0
M  V30 3867 C 372.92 0.961805 -1.3542 0
M  V30 3868 O 374.105 0.968777 -1.64376 0
M  V30 3869 C 371.245 1.33932 -3.18051 0
M  V30 3870 C 370.358 0.669333 -4.26783 0
M  V30 3871 C 369.493 1.70907 -5.02955 0
M  V30 3872 C 368.532 1.02087 -6.03527 0
M  V30 3873 N 367.669 2.00474 -6.7287 0
M  V30 3874 H 372.509 -0.405317 -2.95231 0
M  V30 3875 H 370.046 -0.211726 -1.45568 0
M  V30 3876 H 372.004 1.96553 -3.67998 0
M  V30 3877 H 370.634 1.9933 -2.53904 0
M  V30 3878 H 369.686 -0.0701234 -3.80335 0
M  V30 3879 H 370.998 0.127503 -4.98637 0
M  V30 3880 H 370.152 2.41037 -5.56764 0
M  V30 3881 H 368.891 2.28476 -4.30871 0
M  V30 3882 H 367.896 0.305338 -5.48951 0
M  V30 3883 H 369.121 0.451708 -6.77596 0
M  V30 3884 H 367.067 2.57007 -6.03559 0
M  V30 3885 H 366.984 1.51353 -7.40694 0
M  V30 3886 H 368.252 2.69897 -7.31284 0
M  V30 3887 N 372.481 1.55866 -0.233164 0
M  V30 3888 C 373.758 1.90471 0.444988 0
M  V30 3889 C 374.138 1.15209 1.7689 0
M  V30 3890 O 373.486 0.265119 2.26957 0
M  V30 3891 C 373.696 3.4333 0.626559 0
M  V30 3892 C 375.044 4.14319 0.92871 0
M  V30 3893 O 376.068 3.48993 0.712926 0
M  V30 3894 O 374.927 5.29846 1.33887 0
M  V30 3895 H 372.021 0.792347 0.236885 0
M  V30 3896 H 374.567 1.67437 -0.276211 0
M  V30 3897 H 373.339 3.90095 -0.306822 0
M  V30 3898 H 372.962 3.72181 1.39881 0
M  V30 3899 N 373.959 -0.0401083 1.57549 0
M  V30 3900 C 374.889 -1.04384 2.08869 0
M  V30 3901 C 375.87 -1.38407 0.988817 0
M  V30 3902 O 377.055 -1.47483 1.26342 0
M  V30 3903 C 374.185 -2.34808 2.55895 0
M  V30 3904 C 373.139 -2.15057 3.70047 0
M  V30 3905 C 372.465 -3.51145 4.03239 0
M  V30 3906 C 373.765 -1.54576 4.98902 0
M  V30 3907 H 375.459 -0.616666 2.92981 0
M  V30 3908 H 373.005 -0.295184 1.40942 0
M  V30 3909 H 374.958 -3.05346 2.90417 0
M  V30 3910 H 373.682 -2.79565 1.68853 0
M  V30 3911 H 372.341 -1.46954 3.35857 0
M  V30 3912 H 371.989 -3.93529 3.13279 0
M  V30 3913 H 371.689 -3.38758 4.80122 0
M  V30 3914 H 373.213 -4.23062 4.40285 0
M  V30 3915 H 374.627 -2.15017 5.31451 0
M  V30 3916 H 373.024 -1.52796 5.80322 0
M  V30 3917 H 374.094 -0.51039 4.82206 0
M  V30 3918 N 375.437 -1.54477 -0.31217 0
M  V30 3919 C 376.686 -1.72438 -1.04633 0
M  V30 3920 C 376.999 -0.511163 -1.88803 0
M  V30 3921 O 378.205 -0.572341 -2.65399 0
M  V30 3922 C 376.661 -3.05043 -1.9099 0
M  V30 3923 C 376.269 -4.33806 -1.11877 0
M  V30 3924 C 378.013 -3.32364 -2.64073 0
M  V30 3925 C 375.92 -5.57467 -1.97445 0
M  V30 3926 H 374.85 -0.642647 -0.394361 0
M  V30 3927 H 377.501 -1.80966 -0.303929 0
M  V30 3928 H 375.883 -2.90451 -2.69173 0
M  V30 3929 H 377.057 -4.59199 -0.383843 0
M  V30 3930 H 375.372 -4.13336 -0.504252 0
M  V30 3931 H 377.969 -4.21951 -3.28423 0
M  V30 3932 H 378.312 -2.50745 -3.32314 0
M  V30 3933 H 378.845 -3.47875 -1.92944 0
M  V30 3934 H 375.584 -6.41722 -1.33692 0
M  V30 3935 H 375.104 -5.36277 -2.6864 0
M  V30 3936 H 376.783 -5.94303 -2.5576 0
M  V30 3937 N 376.915 0.57481 -1.46744 0
M  V30 3938 C 377.847 1.69804 -1.53946 0
M  V30 3939 C 378.86 1.57098 -0.427106 0
M  V30 3940 O 380.049 1.64378 -0.695863 0
M  V30 3941 C 377.149 3.08125 -1.4111 0
M  V30 3942 C 376.322 3.46757 -2.66605 0
M  V30 3943 C 375.381 4.6417 -2.47855 0
M  V30 3944 O 374.407 4.69634 -3.21609 0
M  V30 3945 N 375.609 5.59553 -1.54534 0
M  V30 3946 H 378.374 1.64077 -2.50796 0
M  V30 3947 H 375.935 0.761 -1.429 0
M  V30 3948 H 377.927 3.84478 -1.26328 0
M  V30 3949 H 376.497 3.08175 -0.524109 0
M  V30 3950 H 375.717 2.6003 -2.96274 0
M  V30 3951 H 377.005 3.69337 -3.49954 0
M  V30 3952 H 376.403 5.57881 -0.937304 0
M  V30 3953 H 374.96 6.35304 -1.45711 0
M  V30 3954 N 378.394 1.34581 0.820102 0
M  V30 3955 C 379.642 1.26845 1.57336 0
M  V30 3956 C 379.963 -0.160667 1.94337 0
M  V30 3957 O 379.233 -1.09396 1.6251 0
M  V30 3958 H 377.813 0.466514 0.583415 0
M  V30 3959 H 380.475 1.68526 0.979027 0
M  V30 3960 H 379.571 1.87513 2.4949 0
M  V30 3961 N 379.872 -1.04064 1.18357 0
M  V30 3962 C 380.819 -2.12077 0.910603 0
M  V30 3963 C 381.789 -1.65421 -0.15 0
M  V30 3964 O 382.974 -1.90797 -0.0103614 0
M  V30 3965 C 380.114 -3.42252 0.442472 0
M  V30 3966 C 379.227 -4.0252 1.5685 0
M  V30 3967 C 378.362 -5.20657 1.05309 0
M  V30 3968 C 377.401 -5.72955 2.1538 0
M  V30 3969 N 376.538 -6.8238 1.65233 0
M  V30 3970 H 381.378 -2.34764 1.83548 0
M  V30 3971 H 378.915 -1.15157 0.915279 0
M  V30 3972 H 380.873 -4.16921 0.152534 0
M  V30 3973 H 379.503 -3.19712 -0.445428 0
M  V30 3974 H 378.555 -3.25178 1.97391 0
M  V30 3975 H 379.867 -4.37362 2.39824 0
M  V30 3976 H 379.021 -6.0244 0.717677 0
M  V30 3977 H 377.76 -4.87318 0.19293 0
M  V30 3978 H 376.765 -4.89793 2.49766 0
M  V30 3979 H 377.99 -6.08337 3.01832 0
M  V30 3980 H 375.936 -6.50917 0.815064 0
M  V30 3981 H 375.853 -7.16286 2.41805 0
M  V30 3982 H 377.121 -7.67788 1.34619 0
M  V30 3983 N 381.35 -0.985608 -1.22978 0
M  V30 3984 C 382.627 -0.573599 -1.87001 0
M  V30 3985 C 383.007 0.949213 -1.88555 0
M  V30 3986 O 382.355 1.82811 -1.37086 0
M  V30 3987 C 382.565 -1.18564 -3.28243 0
M  V30 3988 C 383.913 -1.28163 -4.04796 0
M  V30 3989 O 384.937 -1.13949 -3.37482 0
M  V30 3990 O 383.796 -1.50832 -5.25273 0
M  V30 3991 H 380.89 -0.193868 -0.803955 0
M  V30 3992 H 383.436 -1.08102 -1.30813 0
M  V30 3993 H 382.208 -2.22758 -3.21706 0
M  V30 3994 H 381.831 -0.663363 -3.92027 0
M  V30 3995 N 382.828 1.3818 -0.7579 0
M  V30 3996 C 383.758 2.33027 -0.148597 0
M  V30 3997 C 384.739 1.55085 0.69875 0
M  V30 3998 O 385.924 1.83384 0.639053 0
M  V30 3999 C 383.054 3.3928 0.742034 0
M  V30 4000 C 382.008 4.28 -0.00291946 0
M  V30 4001 C 381.334 5.25146 1.00625 0
M  V30 4002 C 382.634 5.08938 -1.17385 0
M  V30 4003 H 384.328 2.84231 -0.940909 0
M  V30 4004 H 381.874 1.36659 -0.453908 0
M  V30 4005 H 383.827 4.046 1.17799 0
M  V30 4006 H 382.551 2.86569 1.56671 0
M  V30 4007 H 381.21 3.64192 -0.419504 0
M  V30 4008 H 380.858 4.68721 1.8251 0
M  V30 4009 H 380.558 5.85361 0.512428 0
M  V30 4010 H 382.082 5.93342 1.44143 0
M  V30 4011 H 383.496 5.67474 -0.815224 0
M  V30 4012 H 381.893 5.7841 -1.59882 0
M  V30 4013 H 382.963 4.42424 -1.98468 0
M  V30 4014 N 384.306 0.507319 1.49211 0
M  V30 4015 C 385.236 -0.256939 2.32082 0
M  V30 4016 C 386.217 -0.956609 1.40652 0
M  V30 4017 O 387.402 -0.946788 1.69557 0
M  V30 4018 C 384.532 -1.31802 3.21318 0
M  V30 4019 C 383.486 -0.737855 4.21592 0
M  V30 4020 C 382.812 -1.89992 4.99807 0
M  V30 4021 C 384.112 0.275325 5.21574 0
M  V30 4022 H 385.806 0.434798 2.96226 0
M  V30 4023 H 383.352 0.210546 1.42452 0
M  V30 4024 H 385.305 -1.86045 3.78107 0
M  V30 4025 H 384.029 -2.03903 2.5513 0
M  V30 4026 H 382.688 -0.217126 3.65956 0
M  V30 4027 H 382.336 -2.60877 4.30061 0
M  V30 4028 H 382.036 -1.51777 5.6766 0
M  V30 4029 H 383.56 -2.44657 5.59442 0
M  V30 4030 H 384.974 -0.179193 5.7302 0
M  V30 4031 H 383.371 0.573649 5.97352 0
M  V30 4032 H 384.441 1.18903 4.70096 0
M  V30 4033 N 385.784 -1.5574 0.241426 0
M  V30 4034 C 387.033 -1.97986 -0.385295 0
M  V30 4035 C 387.346 -1.13267 -1.59468 0
M  V30 4036 O 388.552 -1.45501 -2.2922 0
M  V30 4037 C 387.008 -3.52275 -0.736884 0
M  V30 4038 C 386.616 -4.45726 0.450796 0
M  V30 4039 C 388.36 -4.03189 -1.3281 0
M  V30 4040 C 386.267 -5.91352 0.0756662 0
M  V30 4041 H 385.197 -0.739386 -0.147731 0
M  V30 4042 H 387.848 -1.80308 0.340779 0
M  V30 4043 H 386.23 -3.65628 -1.52094 0
M  V30 4044 H 387.404 -4.44131 1.22819 0
M  V30 4045 H 385.719 -4.05264 0.956573 0
M  V30 4046 H 388.316 -5.09505 -1.62201 0
M  V30 4047 H 388.659 -3.50212 -2.25071 0
M  V30 4048 H 389.192 -3.93141 -0.607069 0
M  V30 4049 H 385.931 -6.48354 0.965272 0
M  V30 4050 H 385.451 -5.96095 -0.665635 0
M  V30 4051 H 387.13 -6.46084 -0.344075 0
M  V30 4052 N 387.262 0.0317525 -1.57568 0
M  V30 4053 C 388.225 1.01783 -2.0536 0
M  V30 4054 C 389.225 1.29203 -0.957253 0
M  V30 4055 O 390.415 1.24251 -1.22095 0
M  V30 4056 C 387.547 2.35137 -2.46827 0
M  V30 4057 H 388.74 0.605062 -2.93733 0
M  V30 4058 H 386.293 0.278514 -1.53799 0
M  V30 4059 H 387.028 2.81168 -1.61602 0
M  V30 4060 H 386.813 2.16566 -3.26866 0
M  V30 4061 H 388.303 3.05938 -2.84239 0
M  V30 4062 N 388.74 1.54641 0.303973 0
M  V30 4063 C 389.97 1.77511 1.05705 0
M  V30 4064 C 390.378 0.533228 1.81531 0
M  V30 4065 O 389.721 -0.506423 1.76582 0
M  V30 4066 C 389.783 2.92779 2.08617 0
M  V30 4067 C 389.447 4.30977 1.52013 0
M  V30 4068 C 390.444 5.11115 0.9517 0
M  V30 4069 C 388.129 4.77571 1.55665 0
M  V30 4070 C 390.123 6.35966 0.427327 0
M  V30 4071 C 387.81 6.02384 1.02841 0
M  V30 4072 C 388.808 6.81417 0.464713 0
M  V30 4073 O 388.496 8.03881 -0.0555283 0
M  V30 4074 H 388.228 0.59579 0.319391 0
M  V30 4075 H 390.782 2.02401 0.349712 0
M  V30 4076 H 389.012 2.63506 2.83022 0
M  V30 4077 H 390.701 3.03252 2.69802 0
M  V30 4078 H 391.467 4.76264 0.916407 0
M  V30 4079 H 387.346 4.16085 1.9848 0
M  V30 4080 H 390.89 6.97599 -0.0133062 0
M  V30 4081 H 386.787 6.36723 1.06084 0
M  V30 4082 H 387.555 8.18479 0.0580522 0
M  V30 4083 N 390.218 -0.567019 1.47046 0
M  V30 4084 C 391.448 -1.34831 1.56538 0
M  V30 4085 C 391.856 -1.8802 0.21101 0
M  V30 4086 O 391.199 -1.65152 -0.804387 0
M  V30 4087 C 391.261 -2.56139 2.52256 0
M  V30 4088 C 390.925 -2.24307 3.98165 0
M  V30 4089 C 391.922 -1.82192 4.86931 0
M  V30 4090 C 389.607 -2.35968 4.43423 0
M  V30 4091 C 391.601 -1.52153 6.18973 0
M  V30 4092 C 389.288 -2.05542 5.75496 0
M  V30 4093 C 390.286 -1.63701 6.63092 0
M  V30 4094 O 389.974 -1.33657 7.92711 0
M  V30 4095 H 389.706 -0.417683 0.531523 0
M  V30 4096 H 392.26 -0.694726 1.93294 0
M  V30 4097 H 390.49 -3.24356 2.10548 0
M  V30 4098 H 392.179 -3.18214 2.51982 0
M  V30 4099 H 392.945 -1.72684 4.53217 0
M  V30 4100 H 388.824 -2.67495 3.75456 0
M  V30 4101 H 392.368 -1.19421 6.87302 0
M  V30 4102 H 388.265 -2.14679 6.08755 0
M  V30 4103 H 389.033 -1.4737 8.05124 0
M  V30 4104 N 391.696 -1.35014 -0.812953 0
M  V30 4105 C 392.973 -1.18502 -1.55617 0
M  V30 4106 C 393.353 0.238421 -2.09749 0
M  V30 4107 O 392.701 1.2411 -1.91857 0
M  V30 4108 C 392.911 -2.24783 -2.66971 0
M  V30 4109 C 394.259 -2.60268 -3.35478 0
M  V30 4110 O 395.283 -2.23648 -2.77236 0
M  V30 4111 O 394.142 -3.2321 -4.40678 0
M  V30 4112 H 391.236 -0.459984 -0.687272 0
M  V30 4113 H 393.782 -1.46677 -0.853464 0
M  V30 4114 H 392.554 -3.20284 -2.24798 0
M  V30 4115 H 392.177 -1.97841 -3.44884 0
M  V30 4116 N 393.175 1.03435 -1.18907 0
M  V30 4117 C 394.421 1.77005 -0.989798 0
M  V30 4118 C 394.754 1.88205 0.478816 0
M  V30 4119 O 394.029 1.39481 1.35556 0
M  V30 4120 C 394.312 3.19925 -1.65287 0
M  V30 4121 C 394.165 3.1663 -3.19477 0
M  V30 4122 C 395.484 4.18189 -1.37134 0
M  V30 4123 H 392.603 0.642538 -0.360991 0
M  V30 4124 H 395.245 1.20784 -1.46667 0
M  V30 4125 H 393.395 3.67929 -1.24741 0
M  V30 4126 H 395.067 2.76567 -3.692 0
M  V30 4127 H 393.31 2.54491 -3.51307 0
M  V30 4128 H 393.981 4.1758 -3.61013 0
M  V30 4129 H 396.457 3.78761 -1.72276 0
M  V30 4130 H 395.333 5.16394 -1.86087 0
M  V30 4131 H 395.594 4.41112 -0.295424 0
M  V30 4132 N 394.653 0.992116 1.22453 0
M  V30 4133 C 395.93 0.583508 1.86694 0
M  V30 4134 C 396.31 -0.9392 1.89056 0
M  V30 4135 O 395.658 -1.82081 1.38053 0
M  V30 4136 C 395.868 1.20304 3.2761 0
M  V30 4137 C 397.216 1.30308 4.0411 0
M  V30 4138 O 398.24 1.15737 3.36873 0
M  V30 4139 O 397.099 1.53615 5.24466 0
M  V30 4140 H 394.193 0.198129 0.802916 0
M  V30 4141 H 396.739 1.08794 1.30238 0
M  V30 4142 H 395.511 2.24461 3.2052 0
M  V30 4143 H 395.134 0.684144 3.9167 0
M  V30 4144 N 396.131 -1.37776 0.765217 0
M  V30 4145 C 397.361 -2.03828 0.337277 0
M  V30 4146 C 397.769 -1.57841 -1.04321 0
M  V30 4147 O 397.112 -0.752043 -1.67601 0
M  V30 4148 C 397.174 -3.58292 0.294407 0
M  V30 4149 C 396.838 -4.27384 1.61838 0
M  V30 4150 C 397.835 -4.51956 2.56967 0
M  V30 4151 C 395.52 -4.65345 1.89102 0
M  V30 4152 C 397.514 -5.13536 3.77571 0
M  V30 4153 C 395.201 -5.26647 3.09978 0
M  V30 4154 C 396.199 -5.50679 4.04032 0
M  V30 4155 O 395.887 -6.10702 5.2278 0
M  V30 4156 H 395.619 -0.661292 0.140248 0
M  V30 4157 H 398.173 -1.77222 1.03834 0
M  V30 4158 H 396.403 -3.83918 -0.462983 0
M  V30 4159 H 398.092 -4.05763 -0.105581 0
M  V30 4160 H 398.858 -4.23048 2.37183 0
M  V30 4161 H 394.737 -4.45978 1.16725 0
M  V30 4162 H 398.281 -5.3221 4.50997 0
M  V30 4163 H 394.178 -5.54979 3.29649 0
M  V30 4164 H 394.946 -6.29183 5.23517 0
M  V30 4165 N 397.609 -0.515225 -1.4894 0
M  V30 4166 C 398.519 0.259774 -2.33157 0
M  V30 4167 C 399.535 0.953501 -1.45548 0
M  V30 4168 O 400.711 0.931735 -1.78552 0
M  V30 4169 C 397.776 1.30193 -3.21326 0
M  V30 4170 C 396.837 0.620129 -4.24797 0
M  V30 4171 C 396.07 1.61263 -5.08753 0
M  V30 4172 O 396.293 2.84389 -4.94448 0
M  V30 4173 O 395.227 1.16013 -5.90614 0
M  V30 4174 H 399.053 -0.429932 -3.00641 0
M  V30 4175 H 396.638 -0.276346 -1.46822 0
M  V30 4176 H 398.52 1.90455 -3.75905 0
M  V30 4177 H 397.195 1.97431 -2.56521 0
M  V30 4178 H 396.102 -0.0226019 -3.74093 0
M  V30 4179 H 397.435 -0.0100493 -4.92199 0
M  V30 4180 N 399.087 1.5561 -0.249682 0
M  V30 4181 C 400.034 2.21496 0.648694 0
M  V30 4182 C 401.004 1.17977 1.16921 0
M  V30 4183 O 402.189 1.46434 1.22318 0
M  V30 4184 C 399.329 2.92039 1.83868 0
M  V30 4185 C 398.442 4.10219 1.35442 0
M  V30 4186 C 397.577 4.6847 2.50419 0
M  V30 4187 C 396.616 5.78893 1.98869 0
M  V30 4188 N 395.753 6.31315 3.07223 0
M  V30 4189 H 400.593 2.97892 0.0801582 0
M  V30 4190 H 398.13 1.47074 0.0278031 0
M  V30 4191 H 400.088 3.31138 2.53778 0
M  V30 4192 H 398.718 2.18111 2.37965 0
M  V30 4193 H 397.77 3.76413 0.54928 0
M  V30 4194 H 399.082 4.89927 0.936649 0
M  V30 4195 H 398.236 5.10158 3.28366 0
M  V30 4196 H 396.975 3.87984 2.95499 0
M  V30 4197 H 395.98 5.3668 1.19393 0
M  V30 4198 H 397.205 6.61232 1.54755 0
M  V30 4199 H 395.151 5.53733 3.51732 0
M  V30 4200 H 395.068 7.06224 2.69784 0
M  V30 4201 H 396.336 6.77662 3.8522 0
M  V30 4202 N 400.565 -0.0233959 1.57583 0
M  V30 4203 C 401.513 -1.04063 2.08023 0
M  V30 4204 C 402.507 -1.37084 0.995204 0
M  V30 4205 O 403.713 -1.35923 1.18004 0
M  V30 4206 H 400.088 -0.353144 0.663922 0
M  V30 4207 H 402.059 -0.589453 2.9252 0
M  V30 4208 C 400.808 -2.33123 2.57971 0
M  V30 4209 H 400.131 -2.08577 3.4108 0
M  V30 4210 H 401.571 -3.02632 2.96967 0
M  V30 4211 C 400.03 -3.02483 1.48342 0
M  V30 4212 O 400.56 -3.92541 0.852898 0
M  V30 4213 N 398.766 -2.63909 1.21658 0
M  V30 4214 H 398.313 -1.90758 1.73116 0
M  V30 4215 H 398.271 -3.10633 0.485218 0
M  V30 4216 N 402.043 -1.548 -0.295768 0
M  V30 4217 C 403.006 -1.85363 -1.34808 0
M  V30 4218 C 404.006 -0.726817 -1.43436 0
M  V30 4219 O 405.196 -0.995088 -1.42981 0
M  V30 4220 C 402.328 -2.03859 -2.73229 0
M  V30 4221 H 403.521 -2.7941 -1.08949 0
M  V30 4222 H 401.074 -1.46942 -0.532702 0
M  V30 4223 H 401.809 -1.12117 -3.04303 0
M  V30 4224 H 401.594 -2.8588 -2.68356 0
M  V30 4225 H 403.084 -2.28857 -3.49305 0
M  V30 4226 N 403.521 0.559213 -1.47345 0
M  V30 4227 C 404.468 1.66645 -1.59682 0
M  V30 4228 C 405.438 1.60168 -0.43994 0
M  V30 4229 O 406.623 1.79031 -0.659736 0
M  V30 4230 C 403.763 3.04969 -1.61518 0
M  V30 4231 C 402.876 3.21897 -2.88108 0
M  V30 4232 C 402.011 4.50608 -2.81294 0
M  V30 4233 C 401.05 4.60961 -4.02717 0
M  V30 4234 N 400.187 5.81024 -3.94151 0
M  V30 4235 H 405.027 1.55439 -2.54249 0
M  V30 4236 H 402.564 0.757219 -1.26113 0
M  V30 4237 H 404.522 3.85064 -1.60566 0
M  V30 4238 H 403.152 3.15015 -0.704645 0
M  V30 4239 H 402.204 2.35248 -2.98936 0
M  V30 4240 H 403.516 3.25412 -3.78032 0
M  V30 4241 H 402.67 5.3896 -2.7858 0
M  V30 4242 H 401.409 4.49568 -1.89049 0
M  V30 4243 H 400.414 3.71021 -4.05738 0
M  V30 4244 H 401.639 4.63761 -4.96087 0
M  V30 4245 H 399.585 5.80938 -3.04708 0
M  V30 4246 H 399.502 5.85909 -4.77752 0
M  V30 4247 H 400.77 6.71744 -3.9545 0
M  V30 4248 N 404.999 1.35443 0.805782 0
M  V30 4249 C 406.247 1.28507 1.55982 0
M  V30 4250 C 406.568 -0.140046 1.94496 0
M  V30 4251 O 405.838 -1.07666 1.63661 0
M  V30 4252 H 404.418 0.472676 0.578434 0
M  V30 4253 H 407.08 1.69555 0.961098 0
M  V30 4254 H 406.176 1.90148 2.47488 0
M  V30 4255 N 406.477 -1.02803 1.19454 0
M  V30 4256 C 407.702 -1.80378 1.02364 0
M  V30 4257 C 408.127 -1.83282 -0.423007 0
M  V30 4258 O 407.485 -1.25945 -1.30413 0
M  V30 4259 C 407.533 -3.23248 1.59821 0
M  V30 4260 O 406.637 -4.04 0.828105 0
M  V30 4261 H 405.978 -0.556799 0.361761 0
M  V30 4262 H 408.508 -1.29385 1.58495 0
M  V30 4263 H 408.518 -3.73994 1.63073 0
M  V30 4264 H 407.193 -3.2045 2.65113 0
M  V30 4265 H 405.77 -3.62635 0.86891 0
M  V30 4266 N 407.956 -0.998596 -1.21925 0
M  V30 4267 C 408.904 -0.546641 -2.26085 0
M  V30 4268 C 409.898 0.405576 -1.64473 0
M  V30 4269 O 411.104 0.277471 -1.77849 0
M  V30 4270 H 407.479 -0.158403 -0.735127 0
M  V30 4271 H 409.45 -1.43645 -2.61551 0
M  V30 4272 C 408.199 0.117388 -3.47502 0
M  V30 4273 H 407.522 -0.606277 -3.95176 0
M  V30 4274 H 408.962 0.396993 -4.22137 0
M  V30 4275 C 407.421 1.35455 -3.0847 0
M  V30 4276 O 407.951 2.44944 -3.18379 0
M  V30 4277 N 406.157 1.23191 -2.63196 0
M  V30 4278 H 405.704 0.341006 -2.55333 0
M  V30 4279 H 405.662 2.06071 -2.37449 0
M  V30 4280 N 409.434 1.37368 -0.772513 0
M  V30 4281 C 410.664 2.03647 -0.348082 0
M  V30 4282 C 411.072 1.58392 1.03482 0
M  V30 4283 O 410.415 0.760921 1.672 0
M  V30 4284 C 410.477 3.58131 -0.313404 0
M  V30 4285 C 410.141 4.2652 -1.64102 0
M  V30 4286 C 411.138 4.50587 -2.5936 0
M  V30 4287 C 408.823 4.64335 -1.91567 0
M  V30 4288 C 410.817 5.11526 -3.80289 0
M  V30 4289 C 408.504 5.24996 -3.12766 0
M  V30 4290 C 409.502 5.48529 -4.06946 0
M  V30 4291 O 409.19 6.07921 -5.26011 0
M  V30 4292 H 408.922 0.660538 -0.143753 0
M  V30 4293 H 411.476 1.76669 -1.04772 0
M  V30 4294 H 409.706 3.84159 0.442617 0
M  V30 4295 H 411.395 4.05813 0.0840613 0
M  V30 4296 H 412.161 4.21784 -2.39423 0
M  V30 4297 H 408.04 4.45353 -1.19088 0
M  V30 4298 H 411.584 5.29811 -4.53813 0
M  V30 4299 H 407.481 5.53223 -3.32588 0
M  V30 4300 H 408.249 6.26398 -5.26847 0
M  V30 4301 N 410.912 0.523116 1.48665 0
M  V30 4302 C 412.158 -0.00540031 2.03399 0
M  V30 4303 C 412.513 -1.3264 1.39372 0
M  V30 4304 O 411.806 -1.84184 0.527916 0
M  V30 4305 C 412 -0.191671 3.56886 0
M  V30 4306 C 411.829 1.10972 4.35793 0
M  V30 4307 C 410.599 1.66769 4.76987 0
M  V30 4308 C 412.797 2.01861 4.73029 0
M  V30 4309 N 410.779 2.91268 5.40404 0
M  V30 4310 C 412.15 3.10937 5.36394 0
M  V30 4311 C 414.205 2.02271 4.54962 0
M  V30 4312 C 412.908 4.20478 5.83601 0
M  V30 4313 C 414.934 3.10802 5.03146 0
M  V30 4314 C 414.296 4.18597 5.6653 0
M  V30 4315 H 410.395 0.0393531 0.781009 0
M  V30 4316 H 412.979 0.702876 1.8157 0
M  V30 4317 H 411.15 -0.869025 3.78553 0
M  V30 4318 H 412.882 -0.719177 3.98259 0
M  V30 4319 H 409.637 1.20996 4.57883 0
M  V30 4320 H 410.061 3.54635 5.76683 0
M  V30 4321 H 414.703 1.2023 4.05345 0
M  V30 4322 H 412.421 5.03303 6.32228 0
M  V30 4323 H 416.007 3.12166 4.90962 0
M  V30 4324 H 414.887 5.01193 6.03138 0
M  V30 4325 N 412.39 -1.55475 0.257931 0
M  V30 4326 C 413.806 -1.59307 -0.0966563 0
M  V30 4327 C 414.006 -1.27514 -1.5602 0
M  V30 4328 O 413.062 -1.02774 -2.30637 0
M  V30 4329 C 414.375 -2.99552 0.262481 0
M  V30 4330 C 415.923 -3.1231 0.207683 0
M  V30 4331 C 416.398 -4.54793 0.541012 0
M  V30 4332 N 417.889 -4.6058 0.491921 0
M  V30 4333 C 418.624 -5.68825 0.722857 0
M  V30 4334 N 418.12 -6.85287 1.0175 0
M  V30 4335 N 419.913 -5.58296 0.652815 0
M  V30 4336 H 412.064 -1.74409 1.21224 0
M  V30 4337 H 414.327 -0.812424 0.48854 0
M  V30 4338 H 414.033 -3.27593 1.27967 0
M  V30 4339 H 413.907 -3.75019 -0.40508 0
M  V30 4340 H 416.294 -2.84044 -0.800195 0
M  V30 4341 H 416.375 -2.39095 0.909255 0
M  V30 4342 H 416.019 -4.83783 1.5465 0
M  V30 4343 H 415.949 -5.26285 -0.18216 0
M  V30 4344 H 418.44 -3.7691 0.273366 0
M  V30 4345 H 418.753 -7.63725 1.18084 0
M  V30 4346 H 417.098 -6.86945 1.05509 0
M  V30 4347 H 420.289 -4.66189 0.422592 0
M  V30 4348 H 420.462 -6.42582 0.836182 0
M  V30 4349 N 413.868 0.0150385 -1.57593 0
M  V30 4350 C 414.816 1.02958 -2.08572 0
M  V30 4351 C 415.81 1.36554 -1.00246 0
M  V30 4352 O 417.016 1.35295 -1.18724 0
M  V30 4353 H 413.391 0.349619 -0.665786 0
M  V30 4354 H 415.362 0.573932 -2.92829 0
M  V30 4355 C 414.111 2.31752 -2.59203 0
M  V30 4356 H 413.434 2.06765 -3.42182 0
M  V30 4357 H 414.874 3.01053 -2.98568 0
M  V30 4358 C 413.333 3.01692 -1.49945 0
M  V30 4359 O 413.863 3.92083 -0.873704 0
M  V30 4360 N 412.069 2.6326 -1.23056 0
M  V30 4361 H 411.616 1.89838 -1.74125 0
M  V30 4362 H 411.574 3.10372 -0.501685 0
M  V30 4363 N 415.346 1.54954 0.287554 0
M  V30 4364 C 416.762 1.46469 0.633964 0
M  V30 4365 C 416.962 0.666865 1.90145 0
M  V30 4366 O 416.018 0.179906 2.51858 0
M  V30 4367 C 417.331 2.90556 0.774454 0
M  V30 4368 C 418.879 3.00681 0.869462 0
M  V30 4369 C 419.354 4.45993 1.04184 0
M  V30 4370 N 420.845 4.4976 1.10772 0
M  V30 4371 C 421.58 5.59393 1.25964 0
M  V30 4372 N 421.076 6.78923 1.37968 0
M  V30 4373 N 422.869 5.47107 1.28959 0
M  V30 4374 H 415.02 2.05288 -0.545041 0
M  V30 4375 H 417.283 0.930305 -0.182308 0
M  V30 4376 H 416.989 3.51594 -0.086207 0
M  V30 4377 H 416.863 3.38743 1.6593 0
M  V30 4378 H 419.25 2.39749 1.7206 0
M  V30 4379 H 419.331 2.55769 -0.0396831 0
M  V30 4380 H 418.975 5.07524 0.195422 0
M  V30 4381 H 418.905 4.88548 1.96542 0
M  V30 4382 H 421.396 3.63651 1.02794 0
M  V30 4383 H 421.709 7.58231 1.49353 0
M  V30 4384 H 420.054 6.81763 1.34999 0
M  V30 4385 H 423.245 4.52668 1.19202 0
M  V30 4386 H 423.418 6.32595 1.40455 0
M  V30 4387 N 416.824 -0.551391 1.4764 0
M  V30 4388 C 418.07 -1.31024 1.54792 0
M  V30 4389 C 418.403 -1.9304 0.211967 0
M  V30 4390 O 417.678 -1.78175 -0.77999 0
M  V30 4391 C 417.961 -2.41593 2.67029 0
M  V30 4392 C 417.814 -1.84408 4.10261 0
M  V30 4393 C 419.133 -3.43488 2.75143 0
M  V30 4394 H 416.252 -0.475031 0.563485 0
M  V30 4395 H 418.894 -0.616454 1.79722 0
M  V30 4396 H 417.044 -3.00772 2.45904 0
M  V30 4397 H 418.716 -1.29445 4.42766 0
M  V30 4398 H 416.959 -1.15051 4.18265 0
M  V30 4399 H 417.63 -2.64367 4.84576 0
M  V30 4400 H 420.106 -2.94236 2.94218 0
M  V30 4401 H 418.982 -4.18274 3.55441 0
M  V30 4402 H 419.243 -4.02703 1.82435 0
M  V30 4403 N 418.302 -1.35869 -0.798587 0
M  V30 4404 C 419.235 -1.23801 -1.91699 0
M  V30 4405 C 420.213 -0.124143 -1.62125 0
M  V30 4406 O 421.397 -0.293656 -1.86199 0
M  V30 4407 C 418.524 -0.908063 -3.263 0
M  V30 4408 C 417.57 -2.0351 -3.74815 0
M  V30 4409 S 418.403 -3.65183 -3.91665 0
M  V30 4410 C 419.559 -3.34283 -5.29156 0
M  V30 4411 H 419.792 -2.18466 -2.01643 0
M  V30 4412 H 417.325 -1.21178 -0.956833 0
M  V30 4413 H 419.283 -0.724506 -4.04056 0
M  V30 4414 H 417.944 0.0206584 -3.14093 0
M  V30 4415 H 417.137 -1.75858 -4.72324 0
M  V30 4416 H 416.739 -2.1774 -3.04081 0
M  V30 4417 H 419.031 -2.87607 -6.13424 0
M  V30 4418 H 419.974 -4.31022 -5.61806 0
M  V30 4419 H 420.382 -2.69854 -4.95822 0
M  V30 4420 N 419.78 1.02168 -1.19998 0
M  V30 4421 C 420.713 2.10232 -0.887558 0
M  V30 4422 C 421.691 1.61827 0.158317 0
M  V30 4423 O 422.875 1.88471 0.0330249 0
M  V30 4424 C 420.002 3.37092 -0.32964 0
M  V30 4425 C 419.048 4.0438 -1.3557 0
M  V30 4426 S 419.881 4.48956 -2.91888 0
M  V30 4427 C 421.037 5.79024 -2.37658 0
M  V30 4428 H 421.27 2.36409 -1.80272 0
M  V30 4429 H 418.803 1.15211 -1.0279 0
M  V30 4430 H 420.761 4.10498 -0.0142824 0
M  V30 4431 H 419.422 3.08996 0.563941 0
M  V30 4432 H 418.615 4.95632 -0.9146 0
M  V30 4433 H 418.217 3.37176 -1.61828 0
M  V30 4434 H 420.509 6.53942 -1.77103 0
M  V30 4435 H 421.452 6.27924 -3.27287 0
M  V30 4436 H 421.86 5.35043 -1.79971 0
M  V30 4437 N 421.258 1.00505 1.21394 0
M  V30 4438 C 422.504 0.688793 1.90745 0
M  V30 4439 C 422.837 -0.778486 1.77914 0
M  V30 4440 O 422.112 -1.56433 1.15581 0
M  V30 4441 C 422.395 1.11063 3.42545 0
M  V30 4442 C 422.248 2.63737 3.64367 0
M  V30 4443 C 423.567 0.673059 4.34923 0
M  V30 4444 H 420.686 0.251702 0.692687 0
M  V30 4445 H 423.328 1.25074 1.43026 0
M  V30 4446 H 421.478 0.632508 3.83317 0
M  V30 4447 H 423.15 3.19313 3.32922 0
M  V30 4448 H 421.393 3.05248 3.08231 0
M  V30 4449 H 422.064 2.88305 4.70727 0
M  V30 4450 H 424.54 1.08392 4.01734 0
M  V30 4451 H 423.416 0.996383 5.39781 0
M  V30 4452 H 423.677 -0.425808 4.40045 0
M  V30 4453 N 422.737 -1.36956 0.779787 0
M  V30 4454 C 423.7 -2.2851 0.177662 0
M  V30 4455 C 424.7 -1.48393 -0.619377 0
M  V30 4456 O 425.89 -1.68505 -0.441785 0
M  V30 4457 C 423.022 -3.32428 -0.755279 0
M  V30 4458 H 424.215 -2.83269 0.984823 0
M  V30 4459 H 421.768 -1.46358 0.548544 0
M  V30 4460 H 422.503 -2.82808 -1.58714 0
M  V30 4461 H 422.288 -3.91659 -0.185817 0
M  V30 4462 H 423.778 -4.00824 -1.17174 0
M  V30 4463 N 424.215 -0.530993 -1.48385 0
M  V30 4464 C 425.162 0.231223 -2.29639 0
M  V30 4465 C 426.132 0.932864 -1.37429 0
M  V30 4466 O 427.317 0.933692 -1.66394 0
M  V30 4467 C 424.457 1.27155 -3.2082 0
M  V30 4468 C 423.57 0.578655 -4.28107 0
M  V30 4469 C 422.705 1.602 -5.06467 0
M  V30 4470 C 421.744 0.892625 -6.05556 0
M  V30 4471 N 420.881 1.86157 -6.76971 0
M  V30 4472 H 425.721 -0.467848 -2.94305 0
M  V30 4473 H 423.258 -0.242556 -1.45086 0
M  V30 4474 H 425.216 1.88703 -3.72085 0
M  V30 4475 H 423.846 1.939 -2.58075 0
M  V30 4476 H 422.898 -0.150782 -3.80101 0
M  V30 4477 H 424.21 0.0217065 -4.98795 0
M  V30 4478 H 423.364 2.29173 -5.61751 0
M  V30 4479 H 422.103 2.19285 -4.35621 0
M  V30 4480 H 421.108 0.188829 -5.49476 0
M  V30 4481 H 422.333 0.307878 -6.78402 0
M  V30 4482 H 420.279 2.44147 -6.08875 0
M  V30 4483 H 420.196 1.35608 -7.43738 0
M  V30 4484 H 421.464 2.54325 -7.36844 0
M  V30 4485 N 425.693 1.55336 -0.266172 0
M  V30 4486 C 426.64 2.22172 0.625165 0
M  V30 4487 C 427.61 1.19211 1.15663 0
M  V30 4488 O 428.795 1.47723 1.20758 0
M  V30 4489 C 425.935 2.93972 1.8076 0
M  V30 4490 C 425.048 4.11632 1.31084 0
M  V30 4491 C 424.183 4.71099 2.45436 0
M  V30 4492 C 423.222 5.8097 1.92718 0
M  V30 4493 N 422.359 6.34538 3.00509 0
M  V30 4494 H 427.199 2.9796 0.0485582 0
M  V30 4495 H 424.736 1.47095 0.0122024 0
M  V30 4496 H 426.694 3.33811 2.50251 0
M  V30 4497 H 425.324 2.20623 2.35638 0
M  V30 4498 H 424.376 3.76975 0.509326 0
M  V30 4499 H 425.688 4.90893 0.884633 0
M  V30 4500 H 424.842 5.13612 3.22936 0
M  V30 4501 H 423.581 3.91096 2.91368 0
M  V30 4502 H 422.586 5.37916 1.13695 0
M  V30 4503 H 423.811 6.62836 1.47733 0
M  V30 4504 H 421.757 5.57433 3.45839 0
M  V30 4505 H 421.674 7.09046 2.62279 0
M  V30 4506 H 422.942 6.81709 3.78011 0
M  V30 4507 N 427.171 -0.0066808 1.57599 0
M  V30 4508 C 428.418 -0.69292 1.90276 0
M  V30 4509 C 428.746 -1.74148 0.866192 0
M  V30 4510 O 428.001 -1.95268 -0.129933 0
M  V30 4511 C 428.3 -1.37939 3.29708 0
M  V30 4512 C 427.966 -0.464679 4.48499 0
M  V30 4513 C 426.628 -0.212809 4.80729 0
M  V30 4514 C 428.98 0.16551 5.20937 0
M  V30 4515 C 426.308 0.677653 5.82773 0
M  V30 4516 C 428.66 1.04381 6.23929 0
M  V30 4517 C 427.324 1.30492 6.54621 0
M  V30 4518 H 426.594 -0.253558 0.696268 0
M  V30 4519 H 429.241 0.0474123 1.91441 0
M  V30 4520 H 427.546 -2.1936 3.24636 0
M  V30 4521 H 429.243 -1.9163 3.52249 0
M  V30 4522 H 425.833 -0.671153 4.23313 0
M  V30 4523 H 430.017 -0.0160756 4.96297 0
M  V30 4524 H 425.273 0.88803 6.04917 0
M  V30 4525 H 429.447 1.53851 6.79193 0
M  V30 4526 H 427.074 1.99662 7.33512 0
M  V30 4527 N 428.649 -1.55105 -0.279332 0
M  V30 4528 C 429.579 -1.90557 -1.34945 0
M  V30 4529 C 430.56 -0.766738 -1.51839 0
M  V30 4530 O 431.745 -1.02434 -1.64988 0
M  V30 4531 C 428.875 -2.17193 -2.71006 0
M  V30 4532 C 427.829 -3.33021 -2.68851 0
M  V30 4533 C 427.155 -3.45123 -4.08405 0
M  V30 4534 C 428.455 -4.69578 -2.28678 0
M  V30 4535 H 430.149 -2.80188 -1.05522 0
M  V30 4536 H 427.695 -1.34811 -0.506173 0
M  V30 4537 H 429.648 -2.40581 -3.45975 0
M  V30 4538 H 428.372 -1.24355 -3.01999 0
M  V30 4539 H 427.031 -3.0959 -1.9634 0
M  V30 4540 H 426.679 -2.49762 -4.3661 0
M  V30 4541 H 426.379 -4.22995 -4.07859 0
M  V30 4542 H 427.903 -3.70796 -4.85121 0
M  V30 4543 H 429.317 -4.92553 -2.93368 0
M  V30 4544 H 427.714 -5.5032 -2.39306 0
M  V30 4545 H 428.784 -4.68828 -1.23807 0
M  V30 4546 N 430.127 0.543554 -1.4793 0
M  V30 4547 C 431.404 1.30458 -1.4574 0
M  V30 4548 C 431.784 2.1048 -0.161692 0
M  V30 4549 O 431.132 2.11831 0.856734 0
M  V30 4550 C 431.342 2.19754 -2.71126 0
M  V30 4551 C 432.69 2.80334 -3.18901 0
M  V30 4552 O 433.714 2.30049 -2.71948 0
M  V30 4553 O 432.573 3.71766 -4.00565 0
M  V30 4554 H 429.667 0.588117 -0.581418 0
M  V30 4555 H 432.213 0.561328 -1.60147 0
M  V30 4556 H 430.985 1.60316 -3.56952 0
M  V30 4557 H 430.608 3.01351 -2.59371 0
M  V30 4558 N 431.605 1.3629 0.791371 0
M  V30 4559 C 432.568 1.30309 1.88553 0
M  V30 4560 C 433.568 0.211204 1.59407 0
M  V30 4561 O 434.758 0.465865 1.67855 0
M  V30 4562 C 431.89 1.01956 3.25297 0
M  V30 4563 H 433.083 2.27614 1.95273 0
M  V30 4564 H 430.636 1.21035 0.988953 0
M  V30 4565 H 431.371 0.050998 3.2426 0
M  V30 4566 H 431.156 1.80968 3.4784 0
M  V30 4567 H 432.646 1.0037 4.05359 0
M  V30 4568 N 433.083 -1.0153 1.20538 0
M  V30 4569 C 434.331 -1.74803 1.01432 0
M  V30 4570 C 434.652 -1.8963 -0.454456 0
M  V30 4571 O 433.922 -1.43975 -1.32846 0
M  V30 4572 H 432.502 -0.647598 0.372324 0
M  V30 4573 H 435.164 -1.22402 1.5167 0
M  V30 4574 H 434.26 -2.75114 1.47373 0
M  V30 4575 N 434.561 -1.01147 -1.20859 0
M  V30 4576 C 435.511 -0.548247 -2.2131 0
M  V30 4577 C 436.495 0.393646 -1.5601 0
M  V30 4578 O 437.687 0.217445 -1.75659 0
M  V30 4579 C 434.816 0.117252 -3.431 0
M  V30 4580 C 433.902 -0.846043 -4.15575 0
M  V30 4581 N 434.293 -2.00149 -4.64515 0
M  V30 4582 C 432.591 -0.665783 -4.41003 0
M  V30 4583 C 433.292 -2.60764 -5.19978 0
M  V30 4584 N 432.268 -1.88868 -5.09735 0
M  V30 4585 H 436.07 -1.42921 -2.56809 0
M  V30 4586 H 433.584 -0.876142 -1.36739 0
M  V30 4587 H 435.581 0.46662 -4.1428 0
M  V30 4588 H 434.241 0.994115 -3.09107 0
M  V30 4589 H 435.252 -2.38162 -4.5989 0
M  V30 4590 H 431.929 0.163456 -4.1718 0
M  V30 4591 H 433.319 -3.58519 -5.68255 0
M  V30 4592 N 436.039 1.36541 -0.78704 0
M  V30 4593 C 436.986 2.30082 -0.181901 0
M  V30 4594 C 437.956 1.5186 0.672896 0
M  V30 4595 O 439.141 1.80374 0.622072 0
M  V30 4596 C 436.281 3.3835 0.679197 0
M  V30 4597 C 435.394 4.31565 -0.193882 0
M  V30 4598 C 434.529 5.26915 0.673364 0
M  V30 4599 C 433.568 6.11769 -0.201315 0
M  V30 4600 N 432.705 6.99315 0.624777 0
M  V30 4601 H 437.545 2.81248 -0.985064 0
M  V30 4602 H 435.082 1.38437 -0.497342 0
M  V30 4603 H 437.04 3.99767 1.19341 0
M  V30 4604 H 435.67 2.8851 1.44781 0
M  V30 4605 H 434.722 3.71323 -0.826044 0
M  V30 4606 H 436.034 4.91191 -0.867937 0
M  V30 4607 H 435.188 5.9361 1.25348 0
M  V30 4608 H 433.927 4.67737 1.38105 0
M  V30 4609 H 432.932 5.44039 -0.793849 0
M  V30 4610 H 434.157 6.73022 -0.906568 0
M  V30 4611 H 432.103 6.42648 1.3168 0
M  V30 4612 H 432.02 7.56 0.00835237 0
M  V30 4613 H 433.288 7.70382 1.18879 0
M  V30 4614 N 437.518 0.538854 1.48102 0
M  V30 4615 C 438.448 -0.207654 2.32575 0
M  V30 4616 C 439.429 -0.926559 1.4265 0
M  V30 4617 O 440.614 -0.91061 1.71527 0
M  V30 4618 C 437.744 -1.24957 3.24042 0
M  V30 4619 C 436.698 -0.648263 4.23062 0
M  V30 4620 C 436.024 -1.79348 5.03725 0
M  V30 4621 C 437.324 0.385897 5.20872 0
M  V30 4622 H 439.018 0.497534 2.95237 0
M  V30 4623 H 436.564 0.240715 1.41974 0
M  V30 4624 H 438.517 -1.77983 3.81969 0
M  V30 4625 H 437.241 -1.98446 2.59397 0
M  V30 4626 H 435.9 -0.139452 3.66335 0
M  V30 4627 H 435.548 -2.51696 4.35498 0
M  V30 4628 H 435.248 -1.39702 5.70751 0
M  V30 4629 H 436.772 -2.32735 5.64506 0
M  V30 4630 H 438.186 -0.057607 5.73271 0
M  V30 4631 H 436.583 0.700227 5.96001 0
M  V30 4632 H 437.653 1.28848 4.67468 0
M  V30 4633 N 438.996 -1.55193 0.274407 0
M  V30 4634 C 439.944 -2.23924 -0.629362 0
M  V30 4635 C 440.938 -1.23602 -1.1584 0
M  V30 4636 O 442.144 -1.41535 -1.11211 0
M  V30 4637 H 438.519 -0.718637 -0.221507 0
M  V30 4638 H 440.49 -2.98388 -0.0268322 0
M  V30 4639 C 439.239 -2.97329 -1.80252 0
M  V30 4640 H 438.562 -3.74313 -1.40462 0
M  V30 4641 H 440.002 -3.48743 -2.41152 0
M  V30 4642 C 438.461 -2.0276 -2.69054 0
M  V30 4643 O 438.991 -1.57836 -3.69392 0
M  V30 4644 N 437.197 -1.69275 -2.36208 0
M  V30 4645 H 436.744 -2.06004 -1.54661 0
M  V30 4646 H 436.702 -1.06271 -2.95895 0
M  V30 4647 N 440.474 -0.00167713 -1.576 0
M  V30 4648 C 441.721 0.68282 -1.90641 0
M  V30 4649 C 442.049 1.73686 -0.875415 0
M  V30 4650 O 441.304 1.95334 0.119575 0
M  V30 4651 C 441.603 1.36189 -3.30435 0
M  V30 4652 C 441.269 0.440887 -4.48739 0
M  V30 4653 C 439.931 0.187312 -4.80835 0
M  V30 4654 C 442.283 -0.193134 -5.20842 0
M  V30 4655 C 439.611 -0.70855 -5.82406 0
M  V30 4656 C 441.963 -1.07688 -6.23367 0
M  V30 4657 C 440.627 -1.33962 -6.53919 0
M  V30 4658 H 439.897 0.249862 -0.697603 0
M  V30 4659 H 442.544 -0.0575642 -1.91413 0
M  V30 4660 H 440.849 2.17636 -3.25794 0
M  V30 4661 H 442.546 1.89759 -3.5326 0
M  V30 4662 H 439.136 0.648694 -4.23663 0
M  V30 4663 H 443.32 -0.0102445 -4.96299 0
M  V30 4664 H 438.576 -0.920097 -6.04437 0
M  V30 4665 H 442.75 -1.57451 -6.78367 0
M  V30 4666 H 440.377 -2.03549 -7.32442 0
M  V30 4667 N 441.952 1.55251 0.271103 0
M  V30 4668 C 442.915 1.87484 1.31842 0
M  V30 4669 C 443.915 0.749545 1.42262 0
M  V30 4670 O 445.105 1.01771 1.4138 0
M  V30 4671 C 442.237 2.0818 2.69951 0
M  V30 4672 H 443.43 2.81108 1.0449 0
M  V30 4673 H 440.983 1.47771 0.509258 0
M  V30 4674 H 441.718 1.16944 3.02481 0
M  V30 4675 H 441.503 2.90114 2.63774 0
M  V30 4676 H 442.993 2.34385 3.4562 0
M  V30 4677 N 443.43 -0.535701 1.48216 0
M  V30 4678 C 444.676 -1.29375 1.56173 0
M  V30 4679 C 445.009 -1.92804 0.232429 0
M  V30 4680 O 444.284 -1.78992 -0.761048 0
M  V30 4681 C 444.567 -2.38747 2.69577 0
M  V30 4682 C 444.42 -1.80046 4.12193 0
M  V30 4683 C 445.739 -3.40551 2.78771 0
M  V30 4684 H 442.858 -0.469027 0.568491 0
M  V30 4685 H 445.5 -0.597358 1.80365 0
M  V30 4686 H 443.65 -2.98147 2.4908 0
M  V30 4687 H 445.322 -1.24742 4.44114 0
M  V30 4688 H 443.565 -1.10609 4.19462 0
M  V30 4689 H 444.236 -2.59212 4.87353 0
M  V30 4690 H 446.712 -2.91099 2.97322 0
M  V30 4691 H 445.588 -4.1448 3.59857 0
M  V30 4692 H 445.849 -4.00746 1.86696 0
M  V30 4693 N 444.908 -1.36708 -0.784132 0
M  V30 4694 C 445.871 -1.31307 -1.87859 0
M  V30 4695 C 446.871 -0.219654 -1.59293 0
M  V30 4696 O 448.061 -0.47476 -1.67606 0
M  V30 4697 C 445.193 -1.03679 -3.24751 0
M  V30 4698 H 446.386 -2.28647 -1.94064 0
M  V30 4699 H 443.939 -1.21558 -0.98252 0
M  V30 4700 H 444.674 -0.0681936 -3.24228 0
M  V30 4701 H 444.459 -1.82811 -3.46876 0
M  V30 4702 H 445.949 -1.02518 -4.04821 0
M  V30 4703 N 446.386 1.0089 -1.21074 0
M  V30 4704 C 447.611 1.78727 -1.05221 0
M  V30 4705 C 448.036 1.83932 0.393795 0
M  V30 4706 O 447.394 1.28004 1.28393 0
M  V30 4707 C 447.442 3.20665 -1.64944 0
M  V30 4708 O 446.546 4.02632 -0.892273 0
M  V30 4709 H 445.887 0.550973 -0.370574 0
M  V30 4710 H 448.417 1.26847 -1.60534 0
M  V30 4711 H 448.427 3.71352 -1.69002 0
M  V30 4712 H 447.102 3.16191 -2.70177 0
M  V30 4713 H 445.679 3.61207 -0.926492 0
M  V30 4714 N 447.864 1.01787 1.20321 0
M  V30 4715 C 449.28 0.732951 1.41774 0
M  V30 4716 C 449.48 -0.686883 1.89431 0
M  V30 4717 O 448.536 -1.45446 2.06402 0
M  V30 4718 C 449.849 1.75973 2.43832 0
M  V30 4719 C 451.397 1.77802 2.57596 0
M  V30 4720 C 451.872 2.7941 3.62897 0
M  V30 4721 N 453.363 2.78157 3.70382 0
M  V30 4722 C 454.098 3.53434 4.51521 0
M  V30 4723 N 453.594 4.38392 5.36455 0
M  V30 4724 N 455.387 3.42026 4.46066 0
M  V30 4725 H 447.538 1.93447 0.877035 0
M  V30 4726 H 449.801 0.835712 0.447536 0
M  V30 4727 H 449.507 2.77699 2.15815 0
M  V30 4728 H 449.381 1.57292 3.4284 0
M  V30 4729 H 451.768 0.767602 2.84942 0
M  V30 4730 H 451.849 2.00557 1.58779 0
M  V30 4731 H 451.493 3.80616 3.36295 0
M  V30 4732 H 451.423 2.53916 4.61339 0
M  V30 4733 H 453.914 2.16531 3.09714 0
M  V30 4734 H 454.227 4.92596 5.95457 0
M  V30 4735 H 452.572 4.4247 5.35953 0
M  V30 4736 H 455.763 2.75075 3.78749 0
M  V30 4737 H 455.936 4.00946 5.09064 0
M  V30 4738 N 449.342 -1.36122 0.79427 0
M  V30 4739 C 450.289 -2.29982 0.194101 0
M  V30 4740 C 451.259 -1.52214 -0.664833 0
M  V30 4741 O 452.444 -1.80702 -0.612498 0
M  V30 4742 C 449.584 -3.38706 -0.661244 0
M  V30 4743 C 448.697 -4.31456 0.216766 0
M  V30 4744 C 447.832 -5.27265 -0.645411 0
M  V30 4745 C 446.871 -6.11653 0.233756 0
M  V30 4746 N 446.008 -6.99636 -0.587682 0
M  V30 4747 H 450.848 -2.80722 0.999965 0
M  V30 4748 H 448.385 -1.38172 0.504677 0
M  V30 4749 H 450.343 -4.00394 -1.17219 0
M  V30 4750 H 448.973 -2.89274 -1.43249 0
M  V30 4751 H 448.025 -3.7088 0.845724 0
M  V30 4752 H 449.337 -4.90724 0.893973 0
M  V30 4753 H 448.491 -5.94266 -1.22198 0
M  V30 4754 H 447.23 -4.68463 -1.35623 0
M  V30 4755 H 446.235 -5.4361 0.82269 0
M  V30 4756 H 447.46 -6.72531 0.942247 0
M  V30 4757 H 445.406 -6.43337 -1.2827 0
M  V30 4758 H 445.323 -7.55993 0.0317402 0
M  V30 4759 H 446.591 -7.71001 -1.14792 0
M  V30 4760 N 450.82 -0.546701 -1.47814 0
M  V30 4761 C 452.048 -0.0232857 -2.06887 0
M  V30 4762 C 452.463 1.26571 -1.4009 0
M  V30 4763 O 451.82 1.7569 -0.493906 0
M  V30 4764 C 451.871 0.186975 -3.61016 0
M  V30 4765 O 451.592 -1.05097 -4.25307 0
M  V30 4766 C 453.093 0.748872 -4.36929 0
M  V30 4767 H 450.313 -0.0410763 -0.669742 0
M  V30 4768 H 452.857 -0.757117 -1.89968 0
M  V30 4769 H 451.012 0.870903 -3.77484 0
M  V30 4770 H 451.426 -0.842121 -5.17695 0
M  V30 4771 H 452.9 0.845334 -5.45489 0
M  V30 4772 H 453.377 1.75772 -4.02493 0
M  V30 4773 H 453.983 0.100979 -4.2518 0
M  V30 4774 N 452.299 1.55045 -0.282633 0
M  V30 4775 C 453.546 1.9976 0.33199 0
M  V30 4776 C 453.874 1.17105 1.55295 0
M  V30 4777 O 453.129 0.230599 1.94337 0
M  V30 4778 C 453.428 3.49422 0.750938 0
M  V30 4779 C 453.094 4.4941 -0.366228 0
M  V30 4780 C 451.756 4.76471 -0.672964 0
M  V30 4781 C 454.108 5.09054 -1.11864 0
M  V30 4782 C 451.436 5.60442 -1.73556 0
M  V30 4783 C 453.788 5.9418 -2.17102 0
M  V30 4784 C 452.452 6.19558 -2.48402 0
M  V30 4785 H 451.722 0.730974 0.121484 0
M  V30 4786 H 454.369 1.8732 -0.39791 0
M  V30 4787 H 452.674 3.59377 1.56063 0
M  V30 4788 H 454.371 3.81432 1.23736 0
M  V30 4789 H 450.961 4.2844 -0.117041 0
M  V30 4790 H 455.145 4.88165 -0.894925 0
M  V30 4791 H 450.401 5.78349 -1.983 0
M  V30 4792 H 454.575 6.39427 -2.75873 0
M  V30 4793 H 452.202 6.84417 -3.30874 0
M  V30 4794 N 453.777 0.010035 1.57597 0
M  V30 4795 C 455.002 -0.687021 1.95691 0
M  V30 4796 C 455.427 -1.65952 0.885519 0
M  V30 4797 O 454.785 -1.80633 -0.15543 0
M  V30 4798 C 454.833 -1.3864 3.32884 0
M  V30 4799 O 453.937 -2.50115 3.27897 0
M  V30 4800 H 453.278 -0.181989 0.638573 0
M  V30 4801 H 455.808 0.0662122 2.04493 0
M  V30 4802 H 455.818 -1.74754 3.6868 0
M  V30 4803 H 454.493 -0.673411 4.10412 0
M  V30 4804 H 453.07 -2.16253 3.03791 0
M  V30 4805 N 455.255 -1.55392 -0.262866 0
M  V30 4806 C 456.205 -1.85355 -1.32768 0
M  V30 4807 C 457.189 -0.713188 -1.44231 0
M  V30 4808 O 458.381 -0.974765 -1.47741 0
M  V30 4809 C 455.51 -2.13781 -2.68612 0
M  V30 4810 C 454.596 -3.34104 -2.61219 0
M  V30 4811 N 454.987 -4.53766 -2.2345 0
M  V30 4812 C 453.285 -3.36895 -2.92263 0
M  V30 4813 C 453.986 -5.35877 -2.26298 0
M  V30 4814 N 452.962 -4.74536 -2.65172 0
M  V30 4815 H 456.764 -2.75413 -1.02591 0
M  V30 4816 H 454.278 -1.55405 -0.471503 0
M  V30 4817 H 456.275 -2.33407 -3.45437 0
M  V30 4818 H 454.935 -1.25013 -2.99669 0
M  V30 4819 H 455.946 -4.79682 -1.95258 0
M  V30 4820 H 452.623 -2.58351 -3.27965 0
M  V30 4821 H 454.013 -6.41577 -1.99572 0
M  V30 4822 N 456.733 0.527833 -1.48498 0
M  V30 4823 C 457.643 1.65907 -1.65867 0
M  V30 4824 C 458.659 1.6537 -0.541192 0
M  V30 4825 O 459.835 1.84282 -0.812534 0
M  V30 4826 C 456.9 3.02364 -1.69637 0
M  V30 4827 C 455.961 3.1374 -2.93028 0
M  V30 4828 C 455.194 4.43688 -2.96609 0
M  V30 4829 O 455.417 5.30913 -2.08538 0
M  V30 4830 O 454.351 4.59475 -3.88802 0
M  V30 4831 H 458.177 1.5419 -2.61647 0
M  V30 4832 H 455.762 0.701163 -1.31924 0
M  V30 4833 H 457.644 3.83515 -1.74625 0
M  V30 4834 H 456.319 3.14401 -0.770312 0
M  V30 4835 H 455.226 2.31877 -2.93571 0
M  V30 4836 H 456.559 3.06621 -3.85026 0
M  V30 4837 N 458.211 1.37122 0.776871 0
M  V30 4838 C 459.141 1.35164 1.90402 0
M  V30 4839 C 460.122 0.221069 1.68657 0
M  V30 4840 O 461.307 0.420642 1.8959 0
M  V30 4841 C 458.437 1.15274 3.27611 0
M  V30 4842 C 457.391 2.25289 3.63908 0
M  V30 4843 C 456.717 1.90527 4.99603 0
M  V30 4844 C 458.017 3.67446 3.71188 0
M  V30 4845 H 459.711 2.29482 1.92297 0
M  V30 4846 H 457.257 1.10465 0.923773 0
M  V30 4847 H 459.21 1.12536 4.06096 0
M  V30 4848 H 457.934 0.174102 3.26136 0
M  V30 4849 H 456.593 2.27174 2.87728 0
M  V30 4850 H 456.241 0.91206 4.94662 0
M  V30 4851 H 455.941 2.64193 5.24858 0
M  V30 4852 H 457.465 1.89367 5.80493 0
M  V30 4853 H 458.879 3.67719 4.39836 0
M  V30 4854 H 457.276 4.40123 4.07936 0
M  V30 4855 H 458.346 4.01443 2.71977 0
M  V30 4856 N 459.689 -1.00246 1.21608 0
M  V30 4857 C 460.914 -1.78167 1.06167 0
M  V30 4858 C 461.339 -1.84138 -0.384035 0
M  V30 4859 O 460.697 -1.28683 -1.27712 0
M  V30 4860 C 460.745 -3.19786 1.66642 0
M  V30 4861 O 459.849 -4.02153 0.913613 0
M  V30 4862 H 459.19 -0.549 0.37349 0
M  V30 4863 H 461.72 -1.25994 1.61204 0
M  V30 4864 H 461.73 -3.70451 1.70969 0
M  V30 4865 H 460.405 -3.14754 2.7185 0
M  V30 4866 H 458.982 -3.60711 0.945635 0
M  V30 4867 N 461.167 -1.02423 -1.1978 0
M  V30 4868 C 462.444 -0.632802 -1.85081 0
M  V30 4869 C 462.824 0.888745 -1.9148 0
M  V30 4870 O 462.172 1.78357 -1.42832 0
M  V30 4871 C 462.382 -1.28947 -3.24305 0
M  V30 4872 C 463.73 -1.40976 -4.00513 0
M  V30 4873 O 464.754 -1.24628 -3.33686 0
M  V30 4874 O 463.613 -1.67467 -5.20209 0
M  V30 4875 H 460.707 -0.219348 -0.79738 0
M  V30 4876 H 463.253 -1.12209 -1.27307 0
M  V30 4877 H 462.025 -2.3288 -3.14456 0
M  V30 4878 H 461.648 -0.787748 -3.89718 0
M  V30 4879 N 462.645 1.35699 -0.801477 0
M  V30 4880 C 463.892 1.98913 -0.379459 0
M  V30 4881 C 464.22 1.63592 1.05204 0
M  V30 4882 O 463.475 0.888563 1.74365 0
M  V30 4883 C 463.774 3.53828 -0.504041 0
M  V30 4884 C 463.44 4.09002 -1.8981 0
M  V30 4885 C 462.102 4.23783 -2.27951 0
M  V30 4886 C 464.454 4.38939 -2.81038 0
M  V30 4887 C 461.782 4.65816 -3.56696 0
M  V30 4888 C 464.134 4.82409 -4.09224 0
M  V30 4889 C 462.798 4.95395 -4.4737 0
M  V30 4890 H 462.068 0.727874 -0.138854 0
M  V30 4891 H 464.715 1.61994 -1.02128 0
M  V30 4892 H 463.02 3.91175 0.221242 0
M  V30 4893 H 464.717 4.00687 -0.158361 0
M  V30 4894 H 461.307 3.97946 -1.59176 0
M  V30 4895 H 465.491 4.27077 -2.52821 0
M  V30 4896 H 460.747 4.74059 -3.86106 0
M  V30 4897 H 464.921 5.04535 -4.80018 0
M  V30 4898 H 462.548 5.27724 -5.47185 0
M  V30 4899 N 464.123 0.554532 1.47522 0
M  V30 4900 C 465.371 0.0294208 2.02079 0
M  V30 4901 C 465.692 -1.32411 1.43151 0
M  V30 4902 O 464.962 -1.863 0.605728 0
M  V30 4903 H 463.542 0.00788672 0.746958 0
M  V30 4904 H 466.204 0.723934 1.80956 0
M  V30 4905 H 465.3 -0.0606745 3.12041 0
M  V30 4906 N 465.601 -1.54893 0.290851 0
M  V30 4907 C 466.531 -2.26103 -0.583084 0
M  V30 4908 C 467.512 -1.25684 -1.14619 0
M  V30 4909 O 468.697 -1.54436 -1.17741 0
M  V30 4910 C 465.827 -2.99409 -1.75987 0
M  V30 4911 C 464.781 -4.0689 -1.32758 0
M  V30 4912 C 464.107 -4.67856 -2.58872 0
M  V30 4913 C 465.407 -5.20215 -0.46624 0
M  V30 4914 H 467.101 -2.99398 0.0108214 0
M  V30 4915 H 464.647 -1.43998 0.00664468 0
M  V30 4916 H 466.6 -3.47943 -2.37727 0
M  V30 4917 H 465.324 -2.23675 -2.37985 0
M  V30 4918 H 463.983 -3.59191 -0.733299 0
M  V30 4919 H 463.631 -3.88772 -3.19163 0
M  V30 4920 H 463.331 -5.40438 -2.30653 0
M  V30 4921 H 464.855 -5.19147 -3.21433 0
M  V30 4922 H 466.269 -5.64704 -0.989047 0
M  V30 4923 H 464.666 -5.99455 -0.27826 0
M  V30 4924 H 465.736 -4.82198 0.511173 0
M  V30 4925 N 467.08 -0.0183926 -1.57589 0
M  V30 4926 C 467.99 0.982943 -2.13015 0
M  V30 4927 C 469.006 1.36443 -1.07979 0
M  V30 4928 O 470.182 1.44802 -1.3998 0
M  V30 4929 C 467.247 2.25024 -2.63752 0
M  V30 4930 C 466.308 1.93018 -3.83461 0
M  V30 4931 C 465.541 3.13706 -4.31769 0
M  V30 4932 O 465.764 4.2601 -3.79305 0
M  V30 4933 O 464.698 2.96629 -5.23732 0
M  V30 4934 H 468.524 0.541709 -2.9883 0
M  V30 4935 H 466.109 0.201565 -1.48034 0
M  V30 4936 H 467.991 2.99441 -2.96502 0
M  V30 4937 H 466.666 2.68349 -1.81026 0
M  V30 4938 H 465.573 1.16019 -3.55655 0
M  V30 4939 H 466.906 1.54516 -4.67317 0
M  V30 4940 N 468.558 1.5553 0.254621 0
M  V30 4941 C 469.783 1.81383 1.00573 0
M  V30 4942 C 470.208 0.594419 1.78461 0
M  V30 4943 O 469.566 -0.456403 1.75461 0
M  V30 4944 C 469.614 3.04892 1.92545 0
M  V30 4945 O 468.718 2.81266 3.01601 0
M  V30 4946 H 468.059 0.598969 0.286587 0
M  V30 4947 H 470.589 2.02703 0.277952 0
M  V30 4948 H 470.599 3.34119 2.34155 0
M  V30 4949 H 469.274 3.93287 1.3527 0
M  V30 4950 H 467.851 2.63185 2.64174 0
M  V30 4951 N 470.036 -0.519951 1.48776 0
M  V30 4952 C 471.264 -1.29971 1.60982 0
M  V30 4953 C 471.679 -1.86803 0.273885 0
M  V30 4954 O 471.036 -1.66904 -0.738193 0
M  V30 4955 C 471.087 -2.44346 2.66415 0
M  V30 4956 O 470.808 -1.89855 3.94825 0
M  V30 4957 C 472.309 -3.36014 2.89153 0
M  V30 4958 H 469.529 -0.394891 0.542496 0
M  V30 4959 H 472.073 -0.626214 1.94676 0
M  V30 4960 H 470.228 -3.07562 2.35552 0
M  V30 4961 H 470.642 -2.64798 4.5275 0
M  V30 4962 H 472.116 -4.12593 3.66703 0
M  V30 4963 H 472.593 -3.91859 1.98351 0
M  V30 4964 H 473.199 -2.78582 3.21359 0
M  V30 4965 N 471.514 -1.37532 -0.769588 0
M  V30 4966 C 472.477 -1.33292 -1.86456 0
M  V30 4967 C 473.477 -0.236537 -1.59051 0
M  V30 4968 O 474.667 -0.492511 -1.67093 0
M  V30 4969 C 471.799 -1.07118 -3.23633 0
M  V30 4970 H 472.992 -2.30692 -1.91628 0
M  V30 4971 H 470.545 -1.22593 -0.969572 0
M  V30 4972 H 471.28 -0.102578 -3.24138 0
M  V30 4973 H 471.065 -1.86479 -3.44917 0
M  V30 4974 H 472.555 -1.06806 -4.03711 0
M  V30 4975 N 472.992 0.995999 -1.22138 0
M  V30 4976 C 474.24 1.73167 -1.042 0
M  V30 4977 C 474.561 1.90329 0.42423 0
M  V30 4978 O 473.831 1.4607 1.30539 0
M  V30 4979 H 472.411 0.641593 -0.38258 0
M  V30 4980 H 475.073 1.19974 -1.53598 0
M  V30 4981 H 474.169 2.72734 -1.51731 0
M  V30 4982 N 474.47 1.03057 1.19235 0
M  V30 4983 C 475.38 0.622922 2.26179 0
M  V30 4984 C 476.396 -0.346113 1.70523 0
M  V30 4985 O 477.572 -0.203572 2.00369 0
M  V30 4986 C 474.637 -0.0182063 3.46695 0
M  V30 4987 C 473.698 0.998546 4.17526 0
M  V30 4988 C 472.931 0.387917 5.32288 0
M  V30 4989 O 473.154 -0.808668 5.64639 0
M  V30 4990 O 472.088 1.1116 5.91546 0
M  V30 4991 H 475.914 1.51363 2.63292 0
M  V30 4992 H 473.499 0.800856 1.26122 0
M  V30 4993 H 475.381 -0.375606 4.19723 0
M  V30 4994 H 474.056 -0.882895 3.11427 0
M  V30 4995 H 472.963 1.40756 3.4661 0
M  V30 4996 H 474.296 1.83366 4.56769 0
M  V30 4997 N 475.948 -1.35272 0.808662 0
M  V30 4998 C 477.197 -1.97963 0.386483 0
M  V30 4999 C 477.51 -1.64866 -1.05255 0
M  V30 5000 O 478.716 -2.20937 -1.57794 0
M  V30 5001 C 477.172 -3.54162 0.640096 0
M  V30 5002 C 476.78 -3.96166 2.0918 0
M  V30 5003 C 478.524 -4.23553 0.283376 0
M  V30 5004 C 476.431 -5.4522 2.29106 0
M  V30 5005 H 475.361 -0.740742 0.140774 0
M  V30 5006 H 478.012 -1.5431 0.993012 0
M  V30 5007 H 476.394 -3.95983 -0.0364117 0
M  V30 5008 H 477.568 -3.65491 2.80629 0
M  V30 5009 H 475.883 -3.3967 2.40859 0
M  V30 5010 H 478.48 -5.33124 0.410273 0
M  V30 5011 H 478.823 -4.09105 -0.770659 0
M  V30 5012 H 479.356 -3.8716 0.913884 0
M  V30 5013 H 476.095 -5.64638 3.32962 0
M  V30 5014 H 475.615 -5.77457 1.62184 0
M  V30 5015 H 477.294 -6.1171 2.1076 0
M  V30 5016 N 477.426 -0.562348 -1.47226 0
M  V30 5017 C 478.837 -0.130325 -1.86245 0
M  V30 5018 C 479.188 1.30128 -1.46838 0
M  V30 5019 O 478.313 1.97974 -0.873805 0
M  V30 5020 C 478.908 -0.229738 -3.3802 0
M  V30 5021 C 477.467 0.14728 -3.76112 0
M  V30 5022 C 476.614 -0.574971 -2.71274 0
M  V30 5023 H 479.565 -0.771773 -1.3867 0
M  V30 5024 H 479.586 0.550316 -3.76499 0
M  V30 5025 H 479.098 -1.27178 -3.66671 0
M  V30 5026 H 477.199 1.19023 -3.53078 0
M  V30 5027 H 477.312 -0.214858 -4.78618 0
M  V30 5028 H 475.676 -0.0174756 -2.54694 0
M  V30 5029 H 476.459 -1.61827 -3.02766 0
M  V30 5030 N 478.904 1.54736 -0.299062 0
M  V30 5031 C 480.15 2.00397 0.311244 0
M  V30 5032 C 480.483 1.18716 1.53688 0
M  V30 5033 O 479.758 0.263154 1.92712 0
M  V30 5034 C 480.041 3.53817 0.669761 0
M  V30 5035 C 479.894 4.46239 -0.564882 0
M  V30 5036 C 481.213 4.13856 1.49702 0
M  V30 5037 H 478.332 0.728493 0.111653 0
M  V30 5038 H 480.974 1.85506 -0.410774 0
M  V30 5039 H 479.124 3.66637 1.28491 0
M  V30 5040 H 480.796 4.45328 -1.20337 0
M  V30 5041 H 479.039 4.16916 -1.19849 0
M  V30 5042 H 479.71 5.5134 -0.269918 0
M  V30 5043 H 482.186 4.04461 0.977284 0
M  V30 5044 H 481.062 5.21365 1.71666 0
M  V30 5045 H 481.323 3.65608 2.48563 0
M  V30 5046 N 480.382 0.0267497 1.57577 0
M  V30 5047 C 481.628 -0.653371 1.91987 0
M  V30 5048 C 481.961 -1.71915 0.903263 0
M  V30 5049 O 481.236 -1.94358 -0.0743387 0
M  V30 5050 C 481.519 -1.272 3.36886 0
M  V30 5051 C 481.372 -0.215938 4.49281 0
M  V30 5052 C 482.691 -2.19069 3.81703 0
M  V30 5053 H 479.81 -0.236047 0.698177 0
M  V30 5054 H 482.452 0.0835236 1.89816 0
M  V30 5055 H 480.602 -1.90005 3.38866 0
M  V30 5056 H 482.274 0.41449 4.59434 0
M  V30 5057 H 480.517 0.458855 4.31366 0
M  V30 5058 H 481.188 -0.688347 5.47691 0
M  V30 5059 H 483.664 -1.66253 3.81444 0
M  V30 5060 H 482.54 -2.59307 4.83788 0
M  V30 5061 H 482.801 -3.08087 3.17072 0
M  V30 5062 N 481.861 -1.55662 -0.24637 0
M  V30 5063 C 482.824 -1.89558 -1.28842 0
M  V30 5064 C 483.824 -0.772082 -1.41052 0
M  V30 5065 O 485.014 -1.04007 -1.39743 0
M  V30 5066 C 482.146 -2.12449 -2.66605 0
M  V30 5067 H 483.339 -2.82735 -1.00004 0
M  V30 5068 H 480.892 -1.48562 -0.485684 0
M  V30 5069 H 481.627 -1.21742 -3.00582 0
M  V30 5070 H 481.412 -2.94273 -2.59125 0
M  V30 5071 H 482.902 -2.39854 -3.41847 0
M  V30 5072 N 483.339 0.512053 -1.4905 0
M  V30 5073 C 484.588 1.26343 -1.57227 0
M  V30 5074 C 484.901 1.93876 -0.259155 0
M  V30 5075 O 486.107 2.70612 -0.219358 0
M  V30 5076 C 484.563 2.29343 -2.77362 0
M  V30 5077 C 484.171 1.67799 -4.15388 0
M  V30 5078 C 485.915 3.05378 -2.94864 0
M  V30 5079 C 483.822 2.68845 -5.2676 0
M  V30 5080 H 482.752 0.475231 -0.585382 0
M  V30 5081 H 485.403 0.53862 -1.75417 0
M  V30 5082 H 483.785 3.04938 -2.52643 0
M  V30 5083 H 484.959 0.982715 -4.50199 0
M  V30 5084 H 483.274 1.04194 -4.03153 0
M  V30 5085 H 485.871 3.80921 -3.75238 0
M  V30 5086 H 486.214 3.62327 -2.05 0
M  V30 5087 H 486.747 2.36898 -3.19569 0
M  V30 5088 H 483.486 2.16692 -6.18647 0
M  V30 5089 H 483.006 3.36647 -4.96416 0
M  V30 5090 H 484.685 3.31487 -5.5563 0
M  V30 5091 N 484.817 1.37938 0.762283 0
M  V30 5092 C 486.233 1.18945 1.06415 0
M  V30 5093 C 486.433 0.0321163 2.01474 0
M  V30 5094 O 485.489 -0.624844 2.44647 0
M  V30 5095 C 486.802 2.51218 1.65258 0
M  V30 5096 C 488.35 2.57824 1.7747 0
M  V30 5097 C 488.825 3.90251 2.39725 0
M  V30 5098 N 490.316 3.91744 2.47166 0
M  V30 5099 C 491.051 4.90966 2.96209 0
M  V30 5100 N 490.547 6.00585 3.45354 0
M  V30 5101 N 492.34 4.78363 2.9517 0
M  V30 5102 H 484.491 2.11994 0.131301 0
M  V30 5103 H 486.754 0.940262 0.120879 0
M  V30 5104 H 486.46 3.36317 1.02878 0
M  V30 5105 H 486.334 2.68989 2.64433 0
M  V30 5106 H 488.721 1.73126 2.3898 0
M  V30 5107 H 488.802 2.43928 0.770241 0
M  V30 5108 H 488.446 4.75368 1.78852 0
M  V30 5109 H 488.376 4.01454 3.40796 0
M  V30 5110 H 490.867 3.12563 2.12397 0
M  V30 5111 H 491.18 6.72236 3.81207 0
M  V30 5112 H 489.525 6.04217 3.43434 0
M  V30 5113 H 492.716 3.91841 2.56082 0
M  V30 5114 H 492.889 5.55843 3.33081 0
M  V30 5115 N 486.295 -0.989507 1.22664 0
M  V30 5116 C 487.523 -1.76496 1.07967 0
M  V30 5117 C 487.938 -1.85148 -0.369543 0
M  V30 5118 O 487.295 -1.32408 -1.25596 0
M  V30 5119 C 487.346 -3.19642 1.68853 0
M  V30 5120 O 487.067 -3.11453 3.08105 0
M  V30 5121 C 488.568 -4.13621 1.59475 0
M  V30 5122 H 485.788 -0.55418 0.378319 0
M  V30 5123 H 488.332 -1.24378 1.62328 0
M  V30 5124 H 486.487 -3.68816 1.18547 0
M  V30 5125 H 486.901 -4.01499 3.37489 0
M  V30 5126 H 488.375 -5.11801 2.06795 0
M  V30 5127 H 488.852 -4.35718 0.55191 0
M  V30 5128 H 489.458 -3.70346 2.09103 0
M  V30 5129 N 487.773 -1.03688 -1.18687 0
M  V30 5130 C 488.736 -0.629115 -2.20397 0
M  V30 5131 C 489.736 0.311495 -1.57754 0
M  V30 5132 O 490.926 0.0974107 -1.73927 0
M  V30 5133 C 488.058 0.0782231 -3.4081 0
M  V30 5134 H 489.251 -1.52915 -2.57987 0
M  V30 5135 H 486.804 -0.828988 -1.32505 0
M  V30 5136 H 487.539 0.992233 -3.08748 0
M  V30 5137 H 487.324 -0.597776 -3.87517 0
M  V30 5138 H 488.814 0.350156 -4.16129 0
M  V30 5139 N 489.251 1.34841 -0.815825 0
M  V30 5140 C 490.198 2.29644 -0.230664 0
M  V30 5141 C 491.168 1.53253 0.640533 0
M  V30 5142 O 492.353 1.81653 0.583672 0
M  V30 5143 C 489.493 3.39715 0.607275 0
M  V30 5144 C 488.606 4.31056 -0.28538 0
M  V30 5145 C 487.741 5.28225 0.561446 0
M  V30 5146 C 486.78 6.11204 -0.331035 0
M  V30 5147 N 485.917 7.00483 0.476302 0
M  V30 5148 H 490.757 2.79095 -1.0445 0
M  V30 5149 H 488.294 1.37351 -0.526595 0
M  V30 5150 H 490.252 4.02208 1.10835 0
M  V30 5151 H 488.882 2.91517 1.38629 0
M  V30 5152 H 487.934 3.69487 -0.904621 0
M  V30 5153 H 489.246 4.89239 -0.97193 0
M  V30 5154 H 488.4 5.96135 1.12728 0
M  V30 5155 H 487.139 4.70562 1.28153 0
M  V30 5156 H 486.144 5.42232 -0.909069 0
M  V30 5157 H 487.369 6.70947 -1.04912 0
M  V30 5158 H 485.315 6.45296 1.18019 0
M  V30 5159 H 485.232 7.55847 -0.152008 0
M  V30 5160 H 486.5 7.7273 1.02512 0
M  V30 5161 N 490.729 0.570148 1.46925 0
M  V30 5162 C 491.977 0.0508523 2.02036 0
M  V30 5163 C 492.298 -1.30885 1.44548 0
M  V30 5164 O 491.568 -1.85647 0.625453 0
M  V30 5165 H 490.148 0.0158088 0.746833 0
M  V30 5166 H 492.81 0.743086 1.80178 0
M  V30 5167 H 491.906 -0.027575 3.12088 0
M  V30 5168 N 492.207 -1.54576 0.307264 0
M  V30 5169 C 493.117 -2.27435 -0.57536 0
M  V30 5170 C 494.133 -1.31183 -1.14311 0
M  V30 5171 O 495.309 -1.64175 -1.16656 0
M  V30 5172 C 492.374 -3.00566 -1.72803 0
M  V30 5173 C 491.435 -4.12369 -1.19373 0
M  V30 5174 C 490.668 -4.82003 -2.29147 0
M  V30 5175 O 490.891 -4.51038 -3.49171 0
M  V30 5176 O 489.825 -5.69271 -1.95485 0
M  V30 5177 H 493.651 -3.03696 0.0158558 0
M  V30 5178 H 491.236 -1.49219 0.0735064 0
M  V30 5179 H 493.118 -3.46416 -2.39946 0
M  V30 5180 H 491.793 -2.27195 -2.30574 0
M  V30 5181 H 490.7 -3.70905 -0.487851 0
M  V30 5182 H 492.033 -4.87736 -0.661376 0
M  V30 5183 N 493.685 -0.035106 -1.57561 0
M  V30 5184 C 494.632 0.94474 -2.10578 0
M  V30 5185 C 495.602 1.3192 -1.00927 0
M  V30 5186 O 496.787 1.41147 -1.28382 0
M  V30 5187 C 493.927 2.21982 -2.64231 0
M  V30 5188 C 493.04 1.90128 -3.87911 0
M  V30 5189 C 492.175 3.11975 -4.29936 0
M  V30 5190 C 491.214 2.75968 -5.46359 0
M  V30 5191 N 490.351 3.90459 -5.83512 0
M  V30 5192 H 495.191 0.485717 -2.94015 0
M  V30 5193 H 492.728 0.228143 -1.4532 0
M  V30 5194 H 494.686 2.96572 -2.9343 0
M  V30 5195 H 493.316 2.6549 -1.83616 0
M  V30 5196 H 492.368 1.05755 -3.65404 0
M  V30 5197 H 493.68 1.59613 -4.72573 0
M  V30 5198 H 492.834 3.9488 -4.60603 0
M  V30 5199 H 491.573 3.45657 -3.44053 0
M  V30 5200 H 490.578 1.91478 -5.1538 0
M  V30 5201 H 491.803 2.43497 -6.33945 0
M  V30 5202 H 489.749 4.23971 -5.00584 0
M  V30 5203 H 489.666 3.63588 -6.62827 0
M  V30 5204 H 490.934 4.7405 -6.18787 0
M  V30 5205 N 495.163 1.55791 0.238111 0
M  V30 5206 C 496.41 1.78033 0.964907 0
M  V30 5207 C 496.738 0.600984 1.84982 0
M  V30 5208 O 495.993 -0.41536 1.91241 0
M  V30 5209 C 496.292 3.05869 1.84875 0
M  V30 5210 C 495.958 4.36808 1.11846 0
M  V30 5211 C 494.62 4.72388 0.916662 0
M  V30 5212 C 496.972 5.17717 0.60151 0
M  V30 5213 C 494.3 5.86406 0.185756 0
M  V30 5214 C 496.652 6.32494 -0.115972 0
M  V30 5215 C 495.316 6.66688 -0.329168 0
M  V30 5216 H 494.586 0.651469 0.353085 0
M  V30 5217 H 497.233 1.90061 0.234318 0
M  V30 5218 H 495.538 2.88891 2.64668 0
M  V30 5219 H 497.235 3.20278 2.41294 0
M  V30 5220 H 493.825 4.08862 1.28569 0
M  V30 5221 H 498.009 4.90678 0.744932 0
M  V30 5222 H 493.265 6.11399 0.0101886 0
M  V30 5223 H 497.439 6.94425 -0.524127 0
M  V30 5224 H 495.066 7.54884 -0.897474 0
M  V30 5225 N 496.642 -0.504142 1.49319 0
M  V30 5226 C 497.888 -1.26033 1.58882 0
M  V30 5227 C 498.221 -1.92268 0.273274 0
M  V30 5228 O 497.496 -1.80567 -0.72291 0
M  V30 5229 C 497.779 -2.32976 2.7458 0
M  V30 5230 C 497.632 -1.71263 4.1592 0
M  V30 5231 C 498.951 -3.34561 2.85932 0
M  V30 5232 H 496.07 -0.456863 0.578312 0
M  V30 5233 H 498.712 -0.558965 1.81592 0
M  V30 5234 H 496.862 -2.92796 2.55348 0
M  V30 5235 H 498.534 -1.15294 4.4666 0
M  V30 5236 H 496.777 -1.01686 4.21714 0
M  V30 5237 H 497.448 -2.48816 4.92742 0
M  V30 5238 H 499.924 -2.84727 3.0343 0
M  V30 5239 H 498.8 -4.06754 3.68568 0
M  V30 5240 H 499.061 -3.96695 1.95154 0
M  V30 5241 N 498.12 -1.38341 -0.754957 0
M  V30 5242 C 499.053 -1.29837 -1.87663 0
M  V30 5243 C 500.031 -0.175659 -1.61648 0
M  V30 5244 O 501.215 -0.352745 -1.8517 0
M  V30 5245 C 498.342 -1.01141 -3.23246 0
M  V30 5246 C 497.388 -2.15331 -3.6815 0
M  V30 5247 S 498.221 -3.77459 -3.79849 0
M  V30 5248 C 499.377 -3.50948 -5.18253 0
M  V30 5249 H 499.61 -2.24771 -1.9459 0
M  V30 5250 H 497.143 -1.24161 -0.917796 0
M  V30 5251 H 499.101 -0.852687 -4.01546 0
M  V30 5252 H 497.762 -0.0792784 -3.14 0
M  V30 5253 H 496.955 -1.90795 -4.6649 0
M  V30 5254 H 496.557 -2.27304 -2.97 0
M  V30 5255 H 498.849 -3.06977 -6.03963 0
M  V30 5256 H 499.792 -4.48677 -5.47809 0
M  V30 5257 H 500.2 -2.85492 -4.86985 0
M  V30 5258 N 499.598 0.982988 -1.23187 0
M  V30 5259 C 500.53 2.07729 -0.968572 0
M  V30 5260 C 501.543 1.62702 0.0564821 0
M  V30 5261 O 502.732 1.77603 -0.178733 0
M  V30 5262 C 499.832 3.36071 -0.436974 0
M  V30 5263 C 499.005 4.10081 -1.52159 0
M  V30 5264 C 498.064 5.16701 -0.99532 0
M  V30 5265 O 497.09 5.43727 -1.68373 0
M  V30 5266 N 498.292 5.80226 0.178192 0
M  V30 5267 H 501.057 2.30894 -1.9107 0
M  V30 5268 H 498.618 1.14949 -1.1401 0
M  V30 5269 H 500.61 4.04639 -0.0700051 0
M  V30 5270 H 499.18 3.09893 0.410509 0
M  V30 5271 H 498.4 3.36004 -2.06144 0
M  V30 5272 H 499.688 4.56295 -2.25105 0
M  V30 5273 H 499.086 5.60651 0.754096 0
M  V30 5274 H 497.643 6.49982 0.486449 0
M  V30 5275 N 501.076 1.04316 1.18135 0
M  V30 5276 C 501.986 0.646876 2.25505 0
M  V30 5277 C 503.002 -0.328008 1.7088 0
M  V30 5278 O 504.178 -0.182309 2.00573 0
M  V30 5279 C 501.243 0.0185664 3.46695 0
M  V30 5280 C 500.304 1.04277 4.16443 0
M  V30 5281 C 499.537 0.444352 5.31847 0
M  V30 5282 O 499.76 -0.748735 5.65465 0
M  V30 5283 O 498.694 1.17428 5.90334 0
M  V30 5284 H 502.52 1.54147 2.61672 0
M  V30 5285 H 500.105 0.814188 1.25265 0
M  V30 5286 H 501.987 -0.331068 4.20097 0
M  V30 5287 H 500.662 -0.849814 3.12346 0
M  V30 5288 H 499.569 1.44425 3.45098 0
M  V30 5289 H 500.902 1.882 4.54798 0
M  V30 5290 N 502.554 -1.34406 0.822964 0
M  V30 5291 C 503.464 -2.33298 0.246838 0
M  V30 5292 C 504.48 -1.62625 -0.618797 0
M  V30 5293 O 505.656 -1.94391 -0.526685 0
M  V30 5294 C 502.721 -3.41785 -0.581731 0
M  V30 5295 C 501.782 -4.28206 0.306309 0
M  V30 5296 C 501.015 -5.31512 -0.48281 0
M  V30 5297 O 501.238 -5.43973 -1.71607 0
M  V30 5298 O 500.172 -6.01749 0.134884 0
M  V30 5299 H 503.998 -2.84401 1.06534 0
M  V30 5300 H 501.583 -1.37466 0.585108 0
M  V30 5301 H 503.465 -4.08028 -1.05313 0
M  V30 5302 H 502.14 -2.92925 -1.37756 0
M  V30 5303 H 501.047 -3.64885 0.825199 0
M  V30 5304 H 502.38 -4.80507 1.06649 0
M  V30 5305 N 504.032 -0.577932 -1.46621 0
M  V30 5306 C 505.279 -0.0616879 -2.02406 0
M  V30 5307 C 505.607 1.29638 -1.44997 0
M  V30 5308 O 504.862 1.86176 -0.60308 0
M  V30 5309 C 505.161 0.0590832 -3.57351 0
M  V30 5310 C 504.827 -1.23077 -4.33777 0
M  V30 5311 C 503.489 -1.58416 -4.54376 0
M  V30 5312 C 505.841 -2.08457 -4.77698 0
M  V30 5313 C 503.169 -2.78943 -5.16147 0
M  V30 5314 C 505.521 -3.28204 -5.408 0
M  V30 5315 C 504.185 -3.63832 -5.59627 0
M  V30 5316 H 503.455 -0.0225732 -0.740656 0
M  V30 5317 H 506.102 -0.753609 -1.76048 0
M  V30 5318 H 504.407 0.834104 -3.82818 0
M  V30 5319 H 506.104 0.474202 -3.98186 0
M  V30 5320 H 502.694 -0.945652 -4.18038 0
M  V30 5321 H 506.878 -1.82459 -4.61544 0
M  V30 5322 H 502.134 -3.06689 -5.28916 0
M  V30 5323 H 506.308 -3.94634 -5.73792 0
M  V30 5324 H 503.935 -4.57315 -6.07262 0
M  V30 5325 N 505.51 1.54411 -0.315457 0
M  V30 5326 C 506.735 2.05299 0.294496 0
M  V30 5327 C 507.16 1.19052 1.4563 0
M  V30 5328 O 506.518 0.197804 1.80218 0
M  V30 5329 C 506.566 3.5345 0.714549 0
M  V30 5330 O 505.67 3.70175 1.81781 0
M  V30 5331 H 505.011 0.661743 0.0547019 0
M  V30 5332 H 507.541 1.99327 -0.461508 0
M  V30 5333 H 507.551 3.9557 0.999426 0
M  V30 5334 H 506.226 4.1568 -0.135244 0
M  V30 5335 H 504.803 3.3996 1.53236 0
M  V30 5336 N 506.988 0.0434614 1.5754 0
M  V30 5337 C 508.404 -0.313039 1.565 0
M  V30 5338 C 508.604 -1.71954 1.05043 0
M  V30 5339 O 507.66 -2.425 0.703564 0
M  V30 5340 C 508.973 -0.148544 3.00333 0
M  V30 5341 C 510.521 -0.220231 3.12224 0
M  V30 5342 C 510.996 -0.0843565 4.57922 0
M  V30 5343 N 512.487 -0.140881 4.62986 0
M  V30 5344 C 513.222 -0.0597443 5.73369 0
M  V30 5345 N 512.718 0.0733004 6.92761 0
M  V30 5346 N 514.511 -0.11477 5.61983 0
M  V30 5347 H 506.662 0.96303 1.89313 0
M  V30 5348 H 508.925 0.373164 0.871466 0
M  V30 5349 H 508.631 0.820894 3.41986 0
M  V30 5350 H 508.505 -0.912798 3.65989 0
M  V30 5351 H 510.892 -1.18014 2.70475 0
M  V30 5352 H 510.973 0.574646 2.49262 0
M  V30 5353 H 510.617 0.872192 5.00355 0
M  V30 5354 H 510.547 -0.898281 5.18882 0
M  V30 5355 H 513.038 -0.243273 3.77116 0
M  V30 5356 H 513.351 0.128128 7.72694 0
M  V30 5357 H 511.696 0.10828 6.94916 0
M  V30 5358 H 514.887 -0.217212 4.67596 0
M  V30 5359 H 515.06 -0.0480779 6.47982 0
M  V30 5360 N 508.466 -1.55915 -0.229846 0
M  V30 5361 C 509.743 -1.6932 -0.979295 0
M  V30 5362 C 510.123 -0.588321 -2.02736 0
M  V30 5363 O 509.471 0.40586 -2.24867 0
M  V30 5364 C 509.681 -3.10305 -1.59724 0
M  V30 5365 C 511.029 -3.6945 -2.09264 0
M  V30 5366 O 512.053 -3.13214 -1.69633 0
M  V30 5367 O 510.912 -4.68072 -2.82082 0
M  V30 5368 H 508.006 -0.689314 -0.456919 0
M  V30 5369 H 510.552 -1.68238 -0.222283 0
M  V30 5370 H 509.324 -3.82177 -0.840039 0
M  V30 5371 H 508.947 -3.1547 -2.42001 0
M  V30 5372 N 509.944 0.496216 -1.49584 0
M  V30 5373 C 511.192 1.24756 -1.58998 0
M  V30 5374 C 511.513 1.92968 -0.280775 0
M  V30 5375 O 510.783 1.82959 0.700198 0
M  V30 5376 H 509.363 0.463471 -0.585836 0
M  V30 5377 H 512.025 0.574678 -1.86235 0
M  V30 5378 H 511.121 2.00895 -2.38847 0
M  V30 5379 N 511.423 1.38739 0.74761 0
M  V30 5380 C 512.37 1.36449 1.86146 0
M  V30 5381 C 513.34 0.226098 1.64554 0
M  V30 5382 O 514.525 0.41926 1.86137 0
M  V30 5383 C 511.665 1.2013 3.23516 0
M  V30 5384 C 510.778 2.43407 3.56899 0
M  V30 5385 C 509.913 2.19773 4.83605 0
M  V30 5386 C 508.952 3.3879 5.09792 0
M  V30 5387 N 508.089 3.14553 6.27695 0
M  V30 5388 H 512.929 2.3167 1.87438 0
M  V30 5389 H 510.466 1.15094 0.916063 0
M  V30 5390 H 512.424 1.08683 4.02795 0
M  V30 5391 H 511.054 0.285453 3.21535 0
M  V30 5392 H 510.106 2.65504 2.72418 0
M  V30 5393 H 511.418 3.32094 3.72176 0
M  V30 5394 H 510.572 2.05496 5.70838 0
M  V30 5395 H 509.311 1.28461 4.70478 0
M  V30 5396 H 508.316 3.53579 4.21025 0
M  V30 5397 H 509.541 4.30986 5.24812 0
M  V30 5398 H 507.487 2.25893 6.1588 0
M  V30 5399 H 507.404 3.96791 6.435 0
M  V30 5400 H 508.672 3.03943 7.17801 0
M  V30 5401 N 512.901 -0.976442 1.23707 0
M  V30 5402 C 513.864 -2.0511 1.02287 0
M  V30 5403 C 514.864 -1.60791 -0.0167195 0
M  V30 5404 O 516.054 -1.72761 0.223408 0
M  V30 5405 C 513.186 -3.36458 0.548507 0
M  V30 5406 H 514.379 -2.25545 1.9766 0
M  V30 5407 H 511.932 -1.15042 1.05806 0
M  V30 5408 H 512.667 -3.21713 -0.408818 0
M  V30 5409 H 512.452 -3.69967 1.29874 0
M  V30 5410 H 513.942 -4.15489 0.419406 0
M  V30 5411 N 514.379 -1.04941 -1.1758 0
M  V30 5412 C 515.309 -0.669172 -2.23706 0
M  V30 5413 C 516.29 0.331835 -1.66832 0
M  V30 5414 O 517.475 0.209988 -1.93061 0
M  V30 5415 C 514.605 -0.0404889 -3.47276 0
M  V30 5416 C 513.559 -0.965983 -4.16957 0
M  V30 5417 C 512.885 -0.201312 -5.34321 0
M  V30 5418 C 514.185 -2.28902 -4.69469 0
M  V30 5419 H 515.879 -1.55639 -2.55767 0
M  V30 5420 H 513.425 -0.749793 -1.22939 0
M  V30 5421 H 515.378 0.237298 -4.20731 0
M  V30 5422 H 514.102 0.881658 -3.14475 0
M  V30 5423 H 512.761 -1.22829 -3.45411 0
M  V30 5424 H 512.409 0.723519 -4.97769 0
M  V30 5425 H 512.109 -0.817968 -5.81879 0
M  V30 5426 H 513.633 0.0692499 -6.10561 0
M  V30 5427 H 515.047 -2.07132 -5.34574 0
M  V30 5428 H 513.444 -2.85942 -5.27596 0
M  V30 5429 H 514.514 -2.92937 -3.86414 0
M  V30 5430 N 515.857 1.33968 -0.830081 0
M  V30 5431 C 516.767 2.33164 -0.259207 0
M  V30 5432 C 517.783 1.62951 0.610164 0
M  V30 5433 O 518.959 1.94668 0.516369 0
M  V30 5434 C 516.024 3.42088 0.563598 0
M  V30 5435 C 515.085 4.28037 -0.329014 0
M  V30 5436 C 514.318 5.3176 0.454616 0
M  V30 5437 O 514.541 5.44876 1.6872 0
M  V30 5438 O 513.475 6.01669 -0.166794 0
M  V30 5439 H 517.301 2.83832 -1.08041 0
M  V30 5440 H 514.886 1.37154 -0.59239 0
M  V30 5441 H 516.768 4.08581 1.03147 0
M  V30 5442 H 515.443 2.93651 1.36201 0
M  V30 5443 H 514.35 3.64443 -0.844538 0
M  V30 5444 H 515.683 4.79934 -1.09196 0
M  V30 5445 N 517.335 0.585699 1.46312 0
M  V30 5446 C 518.751 0.247607 1.57668 0
M  V30 5447 C 518.951 -1.25007 1.58037 0
M  V30 5448 O 518.007 -2.03196 1.49893 0
M  V30 5449 C 519.32 0.899456 2.86933 0
M  V30 5450 C 520.868 0.873326 3.00569 0
M  V30 5451 C 521.343 1.50477 4.32574 0
M  V30 5452 N 522.834 1.46925 4.3928 0
M  V30 5453 C 523.569 1.92719 5.40044 0
M  V30 5454 N 523.065 2.46499 6.47464 0
M  V30 5455 N 524.858 1.83617 5.31264 0
M  V30 5456 H 517.009 1.55841 1.44317 0
M  V30 5457 H 519.272 0.651564 0.688599 0
M  V30 5458 H 518.978 1.95313 2.92482 0
M  V30 5459 H 518.852 0.409476 3.74971 0
M  V30 5460 H 521.239 -0.171736 2.946 0
M  V30 5461 H 521.32 1.40136 2.13999 0
M  V30 5462 H 520.964 2.54905 4.39302 0
M  V30 5463 H 520.894 0.951944 5.17924 0
M  V30 5464 H 523.385 1.07616 3.62253 0
M  V30 5465 H 523.698 2.79291 7.20567 0
M  V30 5466 H 522.043 2.50526 6.48276 0
M  V30 5467 H 525.234 1.41358 4.46246 0
M  V30 5468 H 525.407 2.19622 6.09648 0
M  V30 5469 N 518.813 -1.54241 0.323641 0
M  V30 5470 C 520.06 -2.0057 -0.27891 0
M  V30 5471 C 520.388 -1.21181 -1.52136 0
M  V30 5472 O 519.643 -0.282043 -1.93657 0
M  V30 5473 C 519.942 -3.5129 -0.658031 0
M  V30 5474 C 519.608 -4.48281 0.485252 0
M  V30 5475 C 518.27 -4.74519 0.799055 0
M  V30 5476 C 520.622 -5.05909 1.25322 0
M  V30 5477 C 517.95 -5.55643 1.88354 0
M  V30 5478 C 520.302 -5.88215 2.32779 0
M  V30 5479 C 518.966 -6.12755 2.64741 0
M  V30 5480 H 518.236 -0.733938 -0.10206 0
M  V30 5481 H 520.883 -1.862 0.447435 0
M  V30 5482 H 519.188 -3.63388 -1.4648 0
M  V30 5483 H 520.885 -3.84578 -1.1358 0
M  V30 5484 H 517.475 -4.27979 0.230593 0
M  V30 5485 H 521.659 -4.8562 1.02404 0
M  V30 5486 H 516.915 -5.72888 2.13564 0
M  V30 5487 H 521.089 -6.31888 2.92729 0
M  V30 5488 H 518.716 -6.75404 3.48904 0
M  V30 5489 N 520.291 -0.0518155 -1.57515 0
M  V30 5490 C 521.221 0.920283 -2.146 0
M  V30 5491 C 522.202 1.32406 -1.06783 0
M  V30 5492 O 523.387 1.39866 -1.34726 0
M  V30 5493 C 520.517 2.1949 -2.6915 0
M  V30 5494 C 519.471 1.93116 -3.81956 0
M  V30 5495 C 518.797 3.27037 -4.23026 0
M  V30 5496 C 520.097 1.25225 -5.07066 0
M  V30 5497 H 521.791 0.444801 -2.96077 0
M  V30 5498 H 519.337 0.212508 -1.42423 0
M  V30 5499 H 521.29 2.87894 -3.07725 0
M  V30 5500 H 520.014 2.69244 -1.84865 0
M  V30 5501 H 518.673 1.27123 -3.43854 0
M  V30 5502 H 518.321 3.74595 -3.3569 0
M  V30 5503 H 518.021 3.10189 -4.99056 0
M  V30 5504 H 519.545 3.96673 -4.64202 0
M  V30 5505 H 520.959 1.83666 -5.43083 0
M  V30 5506 H 519.356 1.18702 -5.88243 0
M  V30 5507 H 520.426 0.228382 -4.84362 0
M  V30 5508 N 521.769 1.56035 0.221574 0
M  V30 5509 C 522.701 1.889 1.29805 0
M  V30 5510 C 523.714 0.777269 1.43047 0
M  V30 5511 O 524.903 1.05557 1.43945 0
M  V30 5512 C 522.003 2.0825 2.67367 0
M  V30 5513 C 521.176 3.39267 2.76073 0
M  V30 5514 C 520.235 3.48049 3.94649 0
M  V30 5515 O 519.261 4.2108 3.82988 0
M  V30 5516 N 520.463 2.79191 5.08953 0
M  V30 5517 H 523.228 2.81831 1.01938 0
M  V30 5518 H 520.789 1.5658 0.411612 0
M  V30 5519 H 522.781 2.11441 3.45072 0
M  V30 5520 H 521.351 1.21944 2.87834 0
M  V30 5521 H 520.571 3.48175 1.84846 0
M  V30 5522 H 521.859 4.25575 2.7886 0
M  V30 5523 H 521.257 2.19635 5.21322 0
M  V30 5524 H 519.814 2.88043 5.84701 0
M  V30 5525 N 523.247 -0.488276 1.49845 0
M  V30 5526 C 524.524 -1.24959 1.50481 0
M  V30 5527 C 524.904 -2.09735 0.239698 0
M  V30 5528 O 524.252 -2.14865 -0.777524 0
M  V30 5529 C 524.462 -2.0954 2.79095 0
M  V30 5530 C 525.81 -2.68305 3.29086 0
M  V30 5531 O 526.834 -2.19797 2.80299 0
M  V30 5532 O 525.693 -3.56643 4.14087 0
M  V30 5533 H 522.787 -0.566133 0.602845 0
M  V30 5534 H 525.333 -0.501504 1.6212 0
M  V30 5535 H 524.105 -1.46958 3.62656 0
M  V30 5536 H 523.728 -2.91517 2.70377 0
M  V30 5537 N 524.725 -1.39134 -0.740242 0
M  V30 5538 C 525.955 -1.39132 -1.52728 0
M  V30 5539 C 526.363 0.0173133 -1.89192 0
M  V30 5540 O 525.706 0.997715 -1.54244 0
M  V30 5541 C 525.768 -2.1952 -2.84695 0
M  V30 5542 C 525.432 -3.68203 -2.70695 0
M  V30 5543 C 526.429 -4.61401 -2.39593 0
M  V30 5544 C 524.114 -4.11724 -2.8773 0
M  V30 5545 C 526.108 -5.96102 -2.25701 0
M  V30 5546 C 523.795 -5.46503 -2.73456 0
M  V30 5547 C 524.793 -6.38506 -2.42486 0
M  V30 5548 O 524.481 -7.70803 -2.28295 0
M  V30 5549 H 524.213 -0.477263 -0.478744 0
M  V30 5550 H 526.767 -1.83504 -0.922799 0
M  V30 5551 H 524.997 -1.69888 -3.47383 0
M  V30 5552 H 526.686 -2.1176 -3.46284 0
M  V30 5553 H 527.452 -4.29079 -2.26088 0
M  V30 5554 H 523.331 -3.4045 -3.10829 0
M  V30 5555 H 526.875 -6.6788 -2.0145 0
M  V30 5556 H 522.772 -5.78417 -2.86538 0
M  V30 5557 H 523.54 -7.8147 -2.43405 0
M  V30 5558 N 526.204 0.969867 -1.24223 0
M  V30 5559 C 527.451 1.71256 -1.08063 0
M  V30 5560 C 527.779 1.90734 0.380872 0
M  V30 5561 O 527.034 1.46469 1.29789 0
M  V30 5562 C 527.333 3.10883 -1.76314 0
M  V30 5563 C 526.999 3.11252 -3.26241 0
M  V30 5564 C 525.661 3.1106 -3.67144 0
M  V30 5565 C 528.013 3.05751 -4.22097 0
M  V30 5566 C 525.341 3.03097 -5.02344 0
M  V30 5567 C 527.693 2.9933 -5.57301 0
M  V30 5568 C 526.357 2.97466 -5.97554 0
M  V30 5569 H 525.627 0.62667 -0.395431 0
M  V30 5570 H 528.274 1.13422 -1.54297 0
M  V30 5571 H 526.579 3.72168 -1.22468 0
M  V30 5572 H 528.276 3.67138 -1.61277 0
M  V30 5573 H 524.866 3.12165 -2.93685 0
M  V30 5574 H 529.05 3.05031 -3.91497 0
M  V30 5575 H 524.306 3.00013 -5.32731 0
M  V30 5576 H 528.48 2.94033 -6.31283 0
M  V30 5577 H 526.107 2.91051 -7.02277 0
M  V30 5578 N 527.682 1.05563 1.17022 0
M  V30 5579 C 528.959 0.68165 1.83338 0
M  V30 5580 C 529.339 -0.837665 1.93769 0
M  V30 5581 O 528.687 -1.74507 1.47511 0
M  V30 5582 C 528.897 1.375 3.20772 0
M  V30 5583 C 530.245 1.51545 3.96635 0
M  V30 5584 O 531.269 1.33431 3.30264 0
M  V30 5585 O 530.128 1.812 5.15586 0
M  V30 5586 H 527.222 0.240412 0.791285 0
M  V30 5587 H 529.768 1.15545 1.24288 0
M  V30 5588 H 528.54 2.41135 3.08171 0
M  V30 5589 H 528.163 0.890798 3.87493 0
M  V30 5590 N 529.16 -1.33526 0.837174 0
M  V30 5591 C 530.408 -1.97446 0.431211 0
M  V30 5592 C 530.729 -1.6665 -1.01255 0
M  V30 5593 O 529.999 -0.964559 -1.70508 0
M  V30 5594 H 528.579 -0.73043 0.156463 0
M  V30 5595 H 531.241 -1.62918 1.06976 0
M  V30 5596 H 530.337 -3.07001 0.561877 0
M  V30 5597 N 530.638 -0.59345 -1.46 0
M  V30 5598 C 531.586 0.146268 -2.3214 0
M  V30 5599 C 532.58 0.873743 -1.45128 0
M  V30 5600 O 533.786 0.790912 -1.61693 0
M  V30 5601 H 530.161 0.0660349 -0.749095 0
M  V30 5602 H 532.132 -0.598895 -2.92328 0
M  V30 5603 C 530.881 1.1396 -3.28494 0
M  V30 5604 H 530.204 0.589252 -3.95434 0
M  V30 5605 H 531.644 1.62738 -3.91526 0
M  V30 5606 C 530.103 2.20604 -2.54628 0
M  V30 5607 O 530.633 3.28128 -2.31722 0
M  V30 5608 N 528.839 1.95502 -2.15005 0
M  V30 5609 H 528.386 1.0807 -2.33834 0
M  V30 5610 H 528.344 2.67064 -1.65904 0
M  V30 5611 N 532.116 1.54067 -0.331816 0
M  V30 5612 C 533.046 2.27569 0.522932 0
M  V30 5613 C 534.027 1.28679 1.11247 0
M  V30 5614 O 535.212 1.57504 1.13605 0
M  V30 5615 C 532.342 3.0397 1.67987 0
M  V30 5616 C 531.296 4.10267 1.21924 0
M  V30 5617 C 530.622 4.74555 2.46377 0
M  V30 5618 C 531.922 5.21268 0.32815 0
M  V30 5619 H 533.616 2.99264 -0.0901977 0
M  V30 5620 H 531.162 1.4393 -0.044821 0
M  V30 5621 H 533.115 3.54123 2.28418 0
M  V30 5622 H 531.839 2.29906 2.31971 0
M  V30 5623 H 530.498 3.61009 0.637809 0
M  V30 5624 H 530.146 3.97098 3.08743 0
M  V30 5625 H 529.846 5.46363 2.16243 0
M  V30 5626 H 531.37 5.27487 3.07555 0
M  V30 5627 H 532.784 5.67128 0.838978 0
M  V30 5628 H 531.181 5.99982 0.119228 0
M  V30 5629 H 532.251 4.80673 -0.638839 0
M  V30 5630 N 533.594 0.0601682 1.57485 0
M  V30 5631 C 534.541 -0.91112 2.12055 0
M  V30 5632 C 535.511 -1.30298 1.03013 0
M  V30 5633 O 536.696 -1.39087 1.30612 0
M  V30 5634 C 533.836 -2.1775 2.67729 0
M  V30 5635 C 532.949 -1.83933 3.90887 0
M  V30 5636 C 532.084 -3.05096 4.34845 0
M  V30 5637 C 531.123 -2.67241 5.5068 0
M  V30 5638 N 530.26 -3.81127 5.8965 0
M  V30 5639 H 535.1 -0.43888 2.9475 0
M  V30 5640 H 532.637 -0.204995 1.45665 0
M  V30 5641 H 534.595 -2.91866 2.98111 0
M  V30 5642 H 533.225 -2.62535 1.87816 0
M  V30 5643 H 532.277 -0.999287 3.6704 0
M  V30 5644 H 533.589 -1.52074 4.75052 0
M  V30 5645 H 532.743 -3.87502 4.66827 0
M  V30 5646 H 531.482 -3.40139 3.49509 0
M  V30 5647 H 530.487 -1.83254 5.18361 0
M  V30 5648 H 531.712 -2.3338 6.37738 0
M  V30 5649 H 529.658 -4.15954 5.07266 0
M  V30 5650 H 529.575 -3.52997 6.68528 0
M  V30 5651 H 530.843 -4.64145 6.2625 0
M  V30 5652 N 535.072 -1.5615 -0.213296 0
M  V30 5653 C 536.488 -1.49327 -0.56336 0
M  V30 5654 C 536.688 -0.756826 -1.86747 0
M  V30 5655 O 535.744 -0.299866 -2.50713 0
M  V30 5656 C 537.057 -2.9392 -0.634944 0
M  V30 5657 C 538.605 -3.04487 -0.725013 0
M  V30 5658 C 539.08 -4.50456 -0.82787 0
M  V30 5659 N 540.571 -4.54533 -0.891876 0
M  V30 5660 C 541.306 -5.64766 -0.991315 0
M  V30 5661 N 540.802 -6.84733 -1.05419 0
M  V30 5662 N 542.595 -5.52637 -1.02709 0
M  V30 5663 H 534.746 -2.02453 0.642366 0
M  V30 5664 H 537.009 -0.920548 0.226487 0
M  V30 5665 H 536.715 -3.50783 0.253859 0
M  V30 5666 H 536.589 -3.46274 -1.49579 0
M  V30 5667 H 538.976 -2.47685 -1.60425 0
M  V30 5668 H 539.057 -2.55289 0.161669 0
M  V30 5669 H 538.701 -5.07878 0.0469464 0
M  V30 5670 H 538.631 -4.97369 -1.73009 0
M  V30 5671 H 541.122 -3.68141 -0.85327 0
M  V30 5672 H 541.435 -7.64493 -1.13007 0
M  V30 5673 H 539.78 -6.87427 -1.02318 0
M  V30 5674 H 542.971 -4.5784 -0.974687 0
M  V30 5675 H 543.144 -6.38576 -1.10113 0
M  V30 5676 N 536.55 0.480323 -1.50102 0
M  V30 5677 C 537.78 1.25475 -1.64133 0
M  V30 5678 C 538.188 1.8647 -0.320272 0
M  V30 5679 O 537.531 1.69561 0.70673 0
M  V30 5680 C 537.593 2.40996 -2.6676 0
M  V30 5681 C 537.257 2.00711 -4.10565 0
M  V30 5682 C 538.254 1.53492 -4.96725 0
M  V30 5683 C 535.939 2.09714 -4.56427 0
M  V30 5684 C 537.933 1.15806 -6.26792 0
M  V30 5685 C 535.62 1.7164 -5.86501 0
M  V30 5686 C 536.618 1.24763 -6.71508 0
M  V30 5687 O 536.306 0.872122 -7.99155 0
M  V30 5688 H 536.038 0.385983 -0.554971 0
M  V30 5689 H 538.592 0.580848 -1.97016 0
M  V30 5690 H 536.822 3.11528 -2.291 0
M  V30 5691 H 538.511 3.02981 -2.70106 0
M  V30 5692 H 539.277 1.45966 -4.62514 0
M  V30 5693 H 535.156 2.4515 -3.90413 0
M  V30 5694 H 538.7 0.791465 -6.93096 0
M  V30 5695 H 534.597 1.78822 -6.20236 0
M  V30 5696 H 535.365 1.00178 -8.12346 0
M  V30 5697 N 538.028 1.39524 0.732853 0
M  V30 5698 C 538.958 1.41153 1.86005 0
M  V30 5699 C 539.939 0.274614 1.67869 0
M  V30 5700 O 541.124 0.480745 1.88155 0
M  V30 5701 C 538.254 1.25638 3.23778 0
M  V30 5702 C 537.208 2.36752 3.56556 0
M  V30 5703 C 536.534 2.06326 4.93289 0
M  V30 5704 C 537.834 3.79069 3.5931 0
M  V30 5705 H 539.528 2.35484 1.84899 0
M  V30 5706 H 537.074 1.13348 0.888162 0
M  V30 5707 H 539.027 1.25398 4.0231 0
M  V30 5708 H 537.751 0.277772 3.25417 0
M  V30 5709 H 536.41 2.36213 2.80355 0
M  V30 5710 H 536.058 1.06897 4.9151 0
M  V30 5711 H 535.758 2.80757 5.16187 0
M  V30 5712 H 537.282 2.07739 5.74175 0
M  V30 5713 H 538.696 3.81526 4.27914 0
M  V30 5714 H 537.093 4.52878 3.93728 0
M  V30 5715 H 538.163 4.09893 2.59068 0
M  V30 5716 N 539.506 -0.963266 1.24736 0
M  V30 5717 C 540.453 -2.05857 1.04363 0
M  V30 5718 C 541.423 -1.6604 -0.0444951 0
M  V30 5719 O 542.608 -1.90477 0.110999 0
M  V30 5720 C 539.748 -3.38745 0.659235 0
M  V30 5721 C 538.861 -3.9173 1.82131 0
M  V30 5722 C 537.996 -5.12906 1.38208 0
M  V30 5723 C 537.035 -5.58098 2.51382 0
M  V30 5724 N 536.172 -6.7049 2.08295 0
M  V30 5725 H 541.012 -2.22616 1.98107 0
M  V30 5726 H 538.549 -1.09103 0.986661 0
M  V30 5727 H 540.507 -4.15107 0.417371 0
M  V30 5728 H 539.137 -3.21898 -0.241201 0
M  V30 5729 H 538.189 -3.11966 2.17672 0
M  V30 5730 H 539.501 -4.21225 2.67153 0
M  V30 5731 H 538.655 -5.96657 1.09935 0
M  V30 5732 H 537.394 -4.85105 0.502456 0
M  V30 5733 H 536.399 -4.72917 2.80409 0
M  V30 5734 H 537.624 -5.87911 3.39909 0
M  V30 5735 H 535.57 -6.44416 1.22737 0
M  V30 5736 H 535.487 -6.99458 2.86869 0
M  V30 5737 H 536.755 -7.57672 1.83175 0
M  V30 5738 N 540.985 -1.06182 -1.16461 0
M  V30 5739 C 542.21 -0.798599 -1.91408 0
M  V30 5740 C 542.635 0.640987 -1.76842 0
M  V30 5741 O 541.993 1.44652 -1.09296 0
M  V30 5742 C 542.041 -1.19665 -3.40165 0
M  V30 5743 O 541.145 -0.334768 -4.11039 0
M  V30 5744 H 540.486 -0.291961 -0.596368 0
M  V30 5745 H 543.016 -1.41732 -1.47557 0
M  V30 5746 H 543.026 -1.16772 -3.90933 0
M  V30 5747 H 541.701 -2.24526 -3.50087 0
M  V30 5748 H 540.278 -0.425168 -3.70468 0
M  V30 5749 N 542.463 1.3308 -0.844243 0
M  V30 5750 C 543.373 2.32876 -0.283922 0
M  V30 5751 C 544.389 1.63589 0.592846 0
M  V30 5752 O 545.565 1.95205 0.495693 0
M  V30 5753 C 542.63 3.42667 0.527283 0
M  V30 5754 C 541.691 4.27664 -0.374394 0
M  V30 5755 C 540.924 5.32212 0.39819 0
M  V30 5756 O 541.147 5.46635 1.62932 0
M  V30 5757 O 540.081 6.01458 -0.2306 0
M  V30 5758 H 543.907 2.82671 -1.11045 0
M  V30 5759 H 541.492 1.36518 -0.606903 0
M  V30 5760 H 543.374 4.09652 0.988078 0
M  V30 5761 H 542.049 2.95079 1.33078 0
M  V30 5762 H 540.956 3.63526 -0.883144 0
M  V30 5763 H 542.289 4.78749 -1.1428 0
M  V30 5764 N 543.941 0.601185 1.45683 0
M  V30 5765 C 545.352 0.179659 1.85834 0
M  V30 5766 C 545.703 -1.26189 1.50236 0
M  V30 5767 O 544.828 -1.95587 0.925987 0
M  V30 5768 C 545.423 0.319277 3.37292 0
M  V30 5769 C 543.982 -0.0475092 3.7637 0
M  V30 5770 C 543.129 0.646692 2.69654 0
M  V30 5771 H 546.08 0.808268 1.36575 0
M  V30 5772 H 546.101 -0.4503 3.77826 0
M  V30 5773 H 545.613 1.36855 3.6317 0
M  V30 5774 H 543.714 -1.0962 3.5611 0
M  V30 5775 H 543.827 0.34168 4.7788 0
M  V30 5776 H 542.191 0.0849971 2.54558 0
M  V30 5777 H 542.974 1.69797 2.98369 0
M  V30 5778 N 545.419 -1.53889 0.339982 0
M  V30 5779 C 546.668 -2.00035 -0.258604 0
M  V30 5780 C 546.981 -1.23179 -1.51942 0
M  V30 5781 O 548.187 -1.59784 -2.19503 0
M  V30 5782 C 546.643 -3.56249 -0.511359 0
M  V30 5783 C 546.251 -4.41957 0.733349 0
M  V30 5784 C 547.995 -4.1082 -1.069 0
M  V30 5785 C 545.902 -5.89673 0.451591 0
M  V30 5786 H 544.832 -0.747284 -0.10041 0
M  V30 5787 H 547.483 -1.77776 0.454758 0
M  V30 5788 H 545.865 -3.7456 -1.28533 0
M  V30 5789 H 547.039 -4.35421 1.50815 0
M  V30 5790 H 545.354 -3.9836 1.21237 0
M  V30 5791 H 547.951 -5.18789 -1.2947 0
M  V30 5792 H 548.294 -3.63817 -2.02343 0
M  V30 5793 H 548.827 -3.96205 -0.355817 0
M  V30 5794 H 545.566 -6.40903 1.37565 0
M  V30 5795 H 545.086 -5.99122 -0.285193 0
M  V30 5796 H 546.765 -6.46965 0.0675067 0
M  V30 5797 N 546.897 -0.0685191 -1.57451 0
M  V30 5798 C 548.308 0.464634 -1.80826 0
M  V30 5799 C 548.659 1.69847 -0.982169 0
M  V30 5800 O 547.784 2.15439 -0.203734 0
M  V30 5801 C 548.379 0.849721 -3.27971 0
M  V30 5802 C 546.938 1.32776 -3.52204 0
M  V30 5803 C 546.085 0.311332 -2.75547 0
M  V30 5804 H 549.036 -0.294248 -1.55948 0
M  V30 5805 H 549.057 1.71138 -3.39841 0
M  V30 5806 H 548.569 -0.0484736 -3.8807 0
M  V30 5807 H 546.67 2.24456 -2.97406 0
M  V30 5808 H 546.783 1.30794 -4.60901 0
M  V30 5809 H 545.147 0.787915 -2.42206 0
M  V30 5810 H 545.93 -0.579078 -3.38381 0
M  V30 5811 N 548.375 1.56261 0.205012 0
M  V30 5812 C 549.285 1.96944 1.27476 0
M  V30 5813 C 550.301 0.875636 1.50362 0
M  V30 5814 O 551.477 1.18058 1.6317 0
M  V30 5815 C 548.542 2.29219 2.60115 0
M  V30 5816 C 547.603 3.52255 2.45387 0
M  V30 5817 C 546.836 3.8298 3.71701 0
M  V30 5818 O 547.059 3.15138 4.75441 0
M  V30 5819 O 545.993 4.76435 3.67823 0
M  V30 5820 H 549.819 2.88144 0.959527 0
M  V30 5821 H 547.404 1.43686 0.409217 0
M  V30 5822 H 549.286 2.51098 3.3842 0
M  V30 5823 H 547.961 1.4119 2.91285 0
M  V30 5824 H 546.868 3.35635 1.65227 0
M  V30 5825 H 548.201 4.40719 2.19152 0
M  V30 5826 N 549.853 -0.472356 1.50355 0
M  V30 5827 C 551.078 -1.25251 1.65309 0
M  V30 5828 C 551.503 -1.85081 0.335643 0
M  V30 5829 O 550.861 -1.67227 -0.700335 0
M  V30 5830 C 550.909 -2.3379 2.74544 0
M  V30 5831 O 550.013 -3.38401 2.35709 0
M  V30 5832 H 549.354 -0.368539 0.552336 0
M  V30 5833 H 551.884 -0.562271 1.96722 0
M  V30 5834 H 551.894 -2.79121 2.97583 0
M  V30 5835 H 550.569 -1.89614 3.70161 0
M  V30 5836 H 549.146 -2.9879 2.23112 0
M  V30 5837 N 551.331 -1.39911 -0.725443 0
M  V30 5838 C 552.279 -1.39552 -1.86086 0
M  V30 5839 C 553.273 -0.277334 -1.67114 0
M  V30 5840 O 554.479 -0.447865 -1.74339 0
M  V30 5841 H 550.854 -0.435993 -0.612711 0
M  V30 5842 H 552.825 -2.35305 -1.83505 0
M  V30 5843 C 551.574 -1.26529 -3.2386 0
M  V30 5844 H 550.897 -2.11845 -3.3906 0
M  V30 5845 H 552.337 -1.30336 -4.03471 0
M  V30 5846 C 550.796 0.0254168 -3.3689 0
M  V30 5847 O 551.326 0.992048 -3.89257 0
M  V30 5848 N 549.532 0.0916528 -2.90455 0
M  V30 5849 H 549.079 -0.695675 -2.48028 0
M  V30 5850 H 549.037 0.954745 -2.99553 0
M  V30 5851 N 552.809 0.956637 -1.25245 0
M  V30 5852 C 554.086 1.67716 -1.00651 0
M  V30 5853 C 554.466 2.0585 0.467866 0
M  V30 5854 O 553.814 1.77029 1.44475 0
M  V30 5855 C 554.024 2.90093 -1.94028 0
M  V30 5856 C 555.372 3.6209 -2.21756 0
M  V30 5857 O 556.396 3.00171 -1.9177 0
M  V30 5858 O 555.255 4.7358 -2.72735 0
M  V30 5859 H 552.349 0.733731 -0.381533 0
M  V30 5860 H 554.895 1.00974 -1.3639 0
M  V30 5861 H 553.667 2.58689 -2.93591 0
M  V30 5862 H 553.29 3.64566 -1.58674 0
M  V30 5863 N 554.287 1.06798 1.15896 0
M  V30 5864 C 555.535 0.786211 1.8618 0
M  V30 5865 C 555.856 -0.689547 1.82401 0
M  V30 5866 O 555.126 -1.49913 1.26107 0
M  V30 5867 H 553.706 0.287843 0.689315 0
M  V30 5868 H 556.368 1.35055 1.40521 0
M  V30 5869 H 555.464 1.1157 2.91477 0
M  V30 5870 N 555.766 -1.3263 0.851289 0
M  V30 5871 C 557.177 -1.79653 0.5081 0
M  V30 5872 C 557.528 -1.70327 -0.973815 0
M  V30 5873 O 556.653 -1.25986 -1.75944 0
M  V30 5874 C 557.248 -3.26196 0.915515 0
M  V30 5875 C 555.807 -3.71187 0.624277 0
M  V30 5876 C 554.954 -2.53804 1.11709 0
M  V30 5877 H 557.905 -1.19976 1.03882 0
M  V30 5878 H 557.926 -3.79801 0.230535 0
M  V30 5879 H 557.438 -3.32952 1.99411 0
M  V30 5880 H 555.539 -3.69948 -0.443737 0
M  V30 5881 H 555.652 -4.64132 1.18821 0
M  V30 5882 H 554.016 -2.48964 0.537484 0
M  V30 5883 H 554.799 -2.63315 2.20272 0
M  V30 5884 N 557.244 -0.608902 -1.45362 0
M  V30 5885 C 558.49 -0.104762 -2.02529 0
M  V30 5886 C 558.823 1.26191 -1.47613 0
M  V30 5887 O 558.098 1.8327 -0.65134 0
M  V30 5888 C 558.381 -0.0672661 -3.60037 0
M  V30 5889 C 558.234 -1.4647 -4.25284 0
M  V30 5890 C 559.553 0.619877 -4.35713 0
M  V30 5891 H 556.672 -0.0395438 -0.735938 0
M  V30 5892 H 559.314 -0.781126 -1.73201 0
M  V30 5893 H 557.464 0.50871 -3.85155 0
M  V30 5894 H 559.136 -2.08785 -4.11347 0
M  V30 5895 H 557.379 -2.02502 -3.83634 0
M  V30 5896 H 558.05 -1.39069 -5.34195 0
M  V30 5897 H 560.526 0.130297 -4.15896 0
M  V30 5898 H 559.402 0.615224 -5.45441 0
M  V30 5899 H 559.663 1.68621 -4.0868 0
M  V30 5900 N 558.722 1.53707 -0.348139 0
M  V30 5901 C 559.669 2.25173 0.506518 0
M  V30 5902 C 560.639 1.25174 1.09182 0
M  V30 5903 O 561.824 1.53917 1.12757 0
M  V30 5904 C 558.964 3.03141 1.64923 0
M  V30 5905 C 558.077 4.18002 1.0908 0
M  V30 5906 C 557.212 4.83447 2.20119 0
M  V30 5907 C 556.251 5.90369 1.61651 0
M  V30 5908 N 555.388 6.49575 2.66451 0
M  V30 5909 H 560.228 2.97799 -0.109452 0
M  V30 5910 H 557.765 1.46953 -0.0657866 0
M  V30 5911 H 559.723 3.46607 2.32205 0
M  V30 5912 H 558.353 2.32803 2.23612 0
M  V30 5913 H 557.405 3.79145 0.308783 0
M  V30 5914 H 558.717 4.94892 0.623178 0
M  V30 5915 H 557.871 5.30008 2.95257 0
M  V30 5916 H 556.61 4.05991 2.70227 0
M  V30 5917 H 555.615 5.43186 0.850209 0
M  V30 5918 H 556.84 6.69735 1.1239 0
M  V30 5919 H 554.786 5.74981 3.15805 0
M  V30 5920 H 554.703 7.21952 2.24325 0
M  V30 5921 H 555.971 7.00789 3.41344 0
M  V30 5922 N 560.2 0.0768682 1.57412 0
M  V30 5923 C 561.446 -0.591961 1.93968 0
M  V30 5924 C 561.779 -1.68954 0.9575 0
M  V30 5925 O 561.054 -1.94496 -0.0124675 0
M  V30 5926 C 561.337 -1.16418 3.40762 0
M  V30 5927 C 561.19 -0.0728933 4.49741 0
M  V30 5928 C 562.509 -2.06814 3.88479 0
M  V30 5929 H 559.628 -0.213716 0.705333 0
M  V30 5930 H 562.27 0.14387 1.89455 0
M  V30 5931 H 560.42 -1.79128 3.4474 0
M  V30 5932 H 562.092 0.560446 4.57883 0
M  V30 5933 H 560.335 0.595859 4.29688 0
M  V30 5934 H 561.006 -0.513755 5.49604 0
M  V30 5935 H 563.482 -1.54033 3.8654 0
M  V30 5936 H 562.358 -2.43785 4.91793 0
M  V30 5937 H 562.619 -2.97844 3.26713 0
M  V30 5938 N 561.678 -1.56367 -0.196722 0
M  V30 5939 C 562.924 -1.80796 -0.918725 0
M  V30 5940 C 563.257 -0.650645 -1.82976 0
M  V30 5941 O 562.532 0.348889 -1.91345 0
M  V30 5942 C 562.815 -3.15472 -1.73636 0
M  V30 5943 C 562.668 -4.41693 -0.85015 0
M  V30 5944 C 563.987 -3.46824 -2.70927 0
M  V30 5945 H 561.106 -0.657702 -0.332561 0
M  V30 5946 H 563.748 -1.89086 -0.186186 0
M  V30 5947 H 561.898 -3.08536 -2.36088 0
M  V30 5948 H 563.57 -4.60673 -0.240459 0
M  V30 5949 H 561.813 -4.33517 -0.156785 0
M  V30 5950 H 562.484 -5.32419 -1.45719 0
M  V30 5951 H 564.96 -3.54049 -2.18607 0
M  V30 5952 H 563.836 -4.4218 -3.25219 0
M  V30 5953 H 564.097 -2.70236 -3.49893 0
M  V30 5954 N 563.156 0.464375 -1.50603 0
M  V30 5955 C 564.402 1.21776 -1.62168 0
M  V30 5956 C 564.735 1.91476 -0.324154 0
M  V30 5957 O 564.01 1.8242 0.674782 0
M  V30 5958 C 564.293 2.25614 -2.80661 0
M  V30 5959 C 564.146 1.60175 -4.20314 0
M  V30 5960 C 565.465 3.26862 -2.94702 0
M  V30 5961 H 562.584 0.44137 -0.590222 0
M  V30 5962 H 565.226 0.510623 -1.8301 0
M  V30 5963 H 563.376 2.85923 -2.63021 0
M  V30 5964 H 565.048 1.03411 -4.4956 0
M  V30 5965 H 563.291 0.904697 -4.24261 0
M  V30 5966 H 563.962 2.35665 -4.99165 0
M  V30 5967 H 566.438 2.76582 -3.10872 0
M  V30 5968 H 565.314 3.96839 -3.79223 0
M  V30 5969 H 565.575 3.91382 -2.05603 0
M  V30 5970 N 564.634 1.40294 0.718013 0
M  V30 5971 C 565.597 1.4012 1.81381 0
M  V30 5972 C 566.597 0.295405 1.58063 0
M  V30 5973 O 567.787 0.554187 1.6515 0
M  V30 5974 C 564.919 1.19056 3.19435 0
M  V30 5975 H 566.112 2.37645 1.82933 0
M  V30 5976 H 563.665 1.26107 0.923405 0
M  V30 5977 H 564.4 0.222809 3.23534 0
M  V30 5978 H 564.185 1.99152 3.37758 0
M  V30 5979 H 565.675 1.21716 3.99468 0
M  V30 5980 N 566.112 -0.949982 1.2575 0
M  V30 5981 C 567.022 -2.08109 1.08295 0
M  V30 5982 C 568.038 -1.7399 0.0188181 0
M  V30 5983 O 569.214 -2.00187 0.220724 0
M  V30 5984 C 566.279 -3.39383 0.708534 0
M  V30 5985 C 565.34 -3.8734 1.85111 0
M  V30 5986 C 564.573 -5.12349 1.49447 0
M  V30 5987 O 564.796 -5.6905 0.392212 0
M  V30 5988 O 563.73 -5.5513 2.32624 0
M  V30 5989 H 567.556 -2.25738 2.03165 0
M  V30 5990 H 565.141 -1.06545 1.04731 0
M  V30 5991 H 567.023 -4.18277 0.512061 0
M  V30 5992 H 565.698 -3.23013 -0.210854 0
M  V30 5993 H 564.605 -3.09429 2.10248 0
M  V30 5994 H 565.938 -4.08216 2.74991 0
M  V30 5995 N 567.59 -1.07411 -1.15328 0
M  V30 5996 C 568.538 -0.689316 -2.22151 0
M  V30 5997 C 569.532 0.300156 -1.6672 0
M  V30 5998 O 570.738 0.163804 -1.79253 0
M  V30 5999 H 567.113 -0.204834 -0.723566 0
M  V30 6000 H 569.084 -1.59988 -2.51886 0
M  V30 6001 C 567.833 -0.103848 -3.47545 0
M  V30 6002 H 567.156 -0.856367 -3.90521 0
M  V30 6003 H 568.596 0.127725 -4.23808 0
M  V30 6004 C 567.055 1.15563 -3.1646 0
M  V30 6005 O 567.585 2.242 -3.33312 0
M  V30 6006 N 565.791 1.06203 -2.70498 0
M  V30 6007 H 565.338 0.177933 -2.56985 0
M  V30 6008 H 565.296 1.90553 -2.50074 0
M  V30 6009 N 569.068 1.32177 -0.85831 0
M  V30 6010 C 570.315 1.97125 -0.463484 0
M  V30 6011 C 570.643 1.67907 0.981705 0
M  V30 6012 O 569.898 0.961717 1.70439 0
M  V30 6013 C 570.197 3.51372 -0.653658 0
M  V30 6014 C 569.863 4.00584 -2.06987 0
M  V30 6015 C 568.525 4.13733 -2.4572 0
M  V30 6016 C 570.877 4.26624 -2.99402 0
M  V30 6017 C 568.205 4.50268 -3.76132 0
M  V30 6018 C 570.557 4.64618 -4.29316 0
M  V30 6019 C 569.221 4.75975 -4.67979 0
M  V30 6020 H 568.491 0.72133 -0.169601 0
M  V30 6021 H 571.138 1.57517 -1.08907 0
M  V30 6022 H 569.443 3.91761 0.0551328 0
M  V30 6023 H 571.14 3.99655 -0.328163 0
M  V30 6024 H 567.73 3.90837 -1.75911 0
M  V30 6025 H 571.914 4.1597 -2.70708 0
M  V30 6026 H 567.17 4.57256 -4.05865 0
M  V30 6027 H 571.344 4.83722 -5.00985 0
M  V30 6028 H 568.971 5.04041 -5.69076 0
M  V30 6029 N 570.547 0.616602 1.45037 0
M  V30 6030 C 571.824 0.0469086 1.95544 0
M  V30 6031 C 572.204 -1.42345 1.55888 0
M  V30 6032 O 571.552 -2.13055 0.825824 0
M  V30 6033 C 571.762 0.254489 3.48071 0
M  V30 6034 C 573.11 0.140025 4.24369 0
M  V30 6035 O 574.134 0.185084 3.55719 0
M  V30 6036 O 572.993 0.0327034 5.4649 0
M  V30 6037 H 570.087 -0.0306051 0.826433 0
M  V30 6038 H 572.633 0.687293 1.55159 0
M  V30 6039 H 571.405 1.27532 3.69934 0
M  V30 6040 H 571.028 -0.42073 3.95368 0
M  V30 6041 N 572.025 -1.5352 0.356285 0
M  V30 6042 C 572.935 -2.29151 -0.502712 0
M  V30 6043 C 573.951 -1.34753 -1.1008 0
M  V30 6044 O 575.127 -1.67803 -1.11374 0
M  V30 6045 C 572.192 -3.05911 -1.63154 0
M  V30 6046 C 571.253 -4.15958 -1.06194 0
M  V30 6047 C 570.486 -4.8905 -2.13696 0
M  V30 6048 O 570.709 -4.61919 -3.34645 0
M  V30 6049 O 569.643 -5.75202 -1.77275 0
M  V30 6050 H 573.469 -3.03492 0.112466 0
M  V30 6051 H 571.054 -1.4891 0.120942 0
M  V30 6052 H 572.936 -3.53874 -2.28804 0
M  V30 6053 H 571.611 -2.34415 -2.23229 0
M  V30 6054 H 570.518 -3.7227 -0.369603 0
M  V30 6055 H 571.851 -4.89593 -0.505872 0
M  V30 6056 N 573.503 -0.0852151 -1.57369 0
M  V30 6057 C 574.752 0.580443 -1.93168 0
M  V30 6058 C 575.065 1.6995 -0.968319 0
M  V30 6059 O 576.271 2.42564 -1.21963 0
M  V30 6060 C 574.727 1.08386 -3.43192 0
M  V30 6061 C 574.335 -0.00491388 -4.48 0
M  V30 6062 C 576.079 1.72281 -3.87968 0
M  V30 6063 C 573.986 0.513299 -5.89168 0
M  V30 6064 H 572.916 0.22059 -0.72101 0
M  V30 6065 H 575.567 -0.159621 -1.82804 0
M  V30 6066 H 573.949 1.8773 -3.48674 0
M  V30 6067 H 575.123 -0.780032 -4.5415 0
M  V30 6068 H 573.438 -0.548453 -4.12772 0
M  V30 6069 H 576.035 2.12108 -4.9083 0
M  V30 6070 H 576.378 2.58811 -3.26071 0
M  V30 6071 H 576.911 0.995359 -3.85146 0
M  V30 6072 H 573.65 -0.315153 -6.54742 0
M  V30 6073 H 573.17 1.25564 -5.8651 0
M  V30 6074 H 574.849 0.985433 -6.39451 0
M  V30 6075 N 574.981 1.5647 0.188427 0
M  V30 6076 C 576.227 1.81281 0.909124 0
M  V30 6077 C 576.56 0.66034 1.82628 0
M  V30 6078 O 575.835 -0.338737 1.91528 0
M  V30 6079 C 576.118 3.16388 1.7196 0
M  V30 6080 C 575.971 4.42137 0.826714 0
M  V30 6081 C 577.29 3.48256 2.69083 0
M  V30 6082 H 574.409 0.659457 0.329068 0
M  V30 6083 H 577.051 1.89182 0.176156 0
M  V30 6084 H 575.201 3.09784 2.34448 0
M  V30 6085 H 576.873 4.60794 0.216025 0
M  V30 6086 H 575.116 4.33594 0.133792 0
M  V30 6087 H 575.787 5.33184 1.42893 0
M  V30 6088 H 578.263 3.55203 2.16726 0
M  V30 6089 H 577.139 4.43899 3.2287 0
M  V30 6090 H 577.4 2.72088 3.48455 0
M  V30 6091 N 576.459 -0.456382 1.50847 0
M  V30 6092 C 577.407 -1.57318 1.71329 0
M  V30 6093 C 578.401 -1.59187 0.579287 0
M  V30 6094 O 579.607 -1.6316 0.76018 0
M  V30 6095 H 575.982 -0.5223 0.541024 0
M  V30 6096 H 577.953 -1.3721 2.64983 0
M  V30 6097 C 576.702 -2.95142 1.83811 0
M  V30 6098 H 576.025 -2.94428 2.70467 0
M  V30 6099 H 577.465 -3.72702 2.02161 0
M  V30 6100 C 575.924 -3.31636 0.593224 0
M  V30 6101 O 576.454 -4.00852 -0.260898 0
M  V30 6102 N 574.66 -2.87205 0.442902 0
M  V30 6103 H 574.207 -2.31051 1.13901 0
M  V30 6104 H 574.165 -3.11986 -0.38884 0
M  V30 6105 N 577.937 -1.40673 -0.710563 0
M  V30 6106 C 578.885 -1.41517 -1.84596 0
M  V30 6107 C 579.879 -0.295043 -1.66811 0
M  V30 6108 O 581.085 -0.466331 -1.73854 0
M  V30 6109 H 577.46 -0.442467 -0.608052 0
M  V30 6110 H 579.431 -2.37238 -1.80999 0
M  V30 6111 C 578.18 -1.29957 -3.225 0
M  V30 6112 H 577.503 -2.15429 -3.36794 0
M  V30 6113 H 578.943 -1.34608 -4.02066 0
M  V30 6114 C 577.402 -0.0103164 -3.36898 0
M  V30 6115 O 577.932 0.950707 -3.90288 0
M  V30 6116 N 576.138 0.0608409 -2.90536 0
M  V30 6117 H 575.685 -0.721943 -2.47277 0
M  V30 6118 H 575.643 0.92292 -3.00549 0
M  V30 6119 N 579.415 0.9433 -1.26252 0
M  V30 6120 C 580.325 2.07532 -1.09397 0
M  V30 6121 C 581.341 1.73977 -0.0280449 0
M  V30 6122 O 582.517 2.00067 -0.231337 0
M  V30 6123 C 579.582 3.39002 -0.726523 0
M  V30 6124 C 578.643 3.86353 -1.87163 0
M  V30 6125 C 577.876 5.11549 -1.52162 0
M  V30 6126 O 578.099 5.68834 -0.422385 0
M  V30 6127 O 577.033 5.53889 -2.35565 0
M  V30 6128 H 580.859 2.24658 -2.04359 0
M  V30 6129 H 578.444 1.05988 -1.05295 0
M  V30 6130 H 580.326 4.18 -0.534236 0
M  V30 6131 H 579.001 3.2312 0.193721 0
M  V30 6132 H 577.908 3.0831 -2.11886 0
M  V30 6133 H 579.241 4.06752 -2.77152 0
M  V30 6134 N 580.893 1.08022 1.14757 0
M  V30 6135 C 581.841 0.701088 2.21783 0
M  V30 6136 C 582.835 -0.291311 1.66876 0
M  V30 6137 O 584.041 -0.154296 1.79337 0
M  V30 6138 H 580.416 0.208668 0.722469 0
M  V30 6139 H 582.387 1.61321 2.51034 0
M  V30 6140 C 581.136 0.122278 3.47485 0
M  V30 6141 H 580.459 0.877065 3.90061 0
M  V30 6142 H 581.899 -0.105248 4.23869 0
M  V30 6143 C 580.358 -1.13883 3.17068 0
M  V30 6144 O 580.888 -2.22429 3.34497 0
M  V30 6145 N 579.094 -1.04767 2.71058 0
M  V30 6146 H 578.641 -0.164302 2.57075 0
M  V30 6147 H 578.599 -1.89224 2.51081 0
M  V30 6148 N 582.371 -1.3172 0.865308 0
M  V30 6149 C 583.318 -2.2863 0.315736 0
M  V30 6150 C 584.288 -1.55524 -0.583213 0
M  V30 6151 O 585.473 -1.83694 -0.51585 0
M  V30 6152 C 582.613 -3.41735 -0.480773 0
M  V30 6153 C 581.726 -4.297 0.445167 0
M  V30 6154 C 580.861 -5.29944 -0.365012 0
M  V30 6155 C 579.9 -6.09554 0.557651 0
M  V30 6156 N 579.037 -7.01768 -0.215994 0
M  V30 6157 H 583.877 -2.75026 1.14736 0
M  V30 6158 H 581.414 -1.35302 0.577209 0
M  V30 6159 H 583.372 -4.06045 -0.958306 0
M  V30 6160 H 582.002 -2.96461 -1.27714 0
M  V30 6161 H 581.054 -3.65875 1.04113 0
M  V30 6162 H 582.366 -4.85295 1.15284 0
M  V30 6163 H 581.52 -5.99908 -0.905255 0
M  V30 6164 H 580.259 -4.74994 -1.106 0
M  V30 6165 H 579.264 -5.38485 1.10969 0
M  V30 6166 H 580.489 -6.66591 1.29742 0
M  V30 6167 H 578.435 -6.49232 -0.939878 0
M  V30 6168 H 578.352 -7.54762 0.432431 0
M  V30 6169 H 579.62 -7.76002 -0.737618 0
M  V30 6170 N 583.85 -0.624285 -1.44708 0
M  V30 6171 C 585.127 -0.0572781 -1.95516 0
M  V30 6172 C 585.507 1.41516 -1.56641 0
M  V30 6173 O 584.855 2.12614 -0.837111 0
M  V30 6174 C 585.065 -0.272944 -3.47931 0
M  V30 6175 C 586.413 -0.162529 -4.24289 0
M  V30 6176 O 587.437 -0.203946 -3.55616 0
M  V30 6177 O 586.296 -0.0616847 -5.46465 0
M  V30 6178 H 583.389 0.0262219 -0.826584 0
M  V30 6179 H 585.936 -0.695512 -1.54793 0
M  V30 6180 H 584.707 -1.29492 -3.69253 0
M  V30 6181 H 584.331 0.399756 -3.95585 0
M  V30 6182 N 585.328 1.53329 -0.364422 0
M  V30 6183 C 586.574 2.01537 0.225969 0
M  V30 6184 C 586.907 1.25128 1.48515 0
M  V30 6185 O 586.182 0.344653 1.91422 0
M  V30 6186 C 586.465 3.56339 0.519092 0
M  V30 6187 C 586.318 4.43441 -0.753639 0
M  V30 6188 C 587.637 4.19833 1.32015 0
M  V30 6189 H 584.756 0.732573 0.0806548 0
M  V30 6190 H 587.398 1.83597 -0.489084 0
M  V30 6191 H 585.548 3.71756 1.12825 0
M  V30 6192 H 587.22 4.39823 -1.39116 0
M  V30 6193 H 585.463 4.11457 -1.37424 0
M  V30 6194 H 586.134 5.49699 -0.503517 0
M  V30 6195 H 588.61 4.08242 0.804859 0
M  V30 6196 H 587.486 5.28177 1.49399 0
M  V30 6197 H 587.747 3.75821 2.32832 0
M  V30 6198 N 586.806 0.0935595 1.57322 0
M  V30 6199 C 587.736 -0.863062 2.16964 0
M  V30 6200 C 588.717 -1.29528 1.10256 0
M  V30 6201 O 589.902 -1.36245 1.38387 0
M  V30 6202 C 587.032 -2.12276 2.74875 0
M  V30 6203 C 585.986 -1.82921 3.86942 0
M  V30 6204 C 585.312 -3.15707 4.31548 0
M  V30 6205 C 586.612 -1.11737 5.10208 0
M  V30 6206 H 588.306 -0.366145 2.97153 0
M  V30 6207 H 585.852 -0.174673 1.42937 0
M  V30 6208 H 587.805 -2.79634 3.1525 0
M  V30 6209 H 586.529 -2.64248 1.91938 0
M  V30 6210 H 585.188 -1.17961 3.47103 0
M  V30 6211 H 584.836 -3.65563 3.45504 0
M  V30 6212 H 584.536 -2.96849 5.07104 0
M  V30 6213 H 586.06 -3.84226 4.74555 0
M  V30 6214 H 587.474 -1.69203 5.47762 0
M  V30 6215 H 585.871 -1.03064 5.91183 0
M  V30 6216 H 586.941 -0.0998818 4.84797 0
M  V30 6217 N 588.284 -1.56567 -0.180126 0
M  V30 6218 C 589.533 -1.80685 -0.896426 0
M  V30 6219 C 589.846 -0.669335 -1.83791 0
M  V30 6220 O 591.052 -0.795209 -2.59593 0
M  V30 6221 C 589.508 -3.20132 -1.6445 0
M  V30 6222 C 589.116 -4.41727 -0.747088 0
M  V30 6223 C 590.86 -3.53549 -2.34955 0
M  V30 6224 C 588.767 -5.72195 -1.49489 0
M  V30 6225 H 587.697 -0.673758 -0.338477 0
M  V30 6226 H 590.348 -1.8289 -0.149467 0
M  V30 6227 H 588.73 -3.12218 -2.43589 0
M  V30 6228 H 589.904 -4.608 0.00671129 0
M  V30 6229 H 588.219 -4.16122 -0.152134 0
M  V30 6230 H 590.816 -4.48267 -2.91481 0
M  V30 6231 H 591.159 -2.78006 -3.09868 0
M  V30 6232 H 591.692 -3.62976 -1.62768 0
M  V30 6233 H 588.431 -6.50743 -0.788251 0
M  V30 6234 H 587.951 -5.57115 -2.22224 0
M  V30 6235 H 589.63 -6.1384 -2.04472 0
M  V30 6236 N 589.762 0.448376 -1.51087 0
M  V30 6237 C 590.672 1.56882 -1.74428 0
M  V30 6238 C 591.688 1.62268 -0.62809 0
M  V30 6239 O 592.864 1.79716 -0.909075 0
M  V30 6240 C 589.929 2.92947 -1.85426 0
M  V30 6241 C 588.99 2.97766 -3.09247 0
M  V30 6242 C 588.223 4.27341 -3.19711 0
M  V30 6243 O 588.446 5.19112 -2.36387 0
M  V30 6244 O 587.38 4.38219 -4.12611 0
M  V30 6245 H 591.206 1.40104 -2.69452 0
M  V30 6246 H 588.791 0.630247 -1.35456 0
M  V30 6247 H 590.673 3.73719 -1.94709 0
M  V30 6248 H 589.348 3.09876 -0.935887 0
M  V30 6249 H 588.255 2.15989 -3.0545 0
M  V30 6250 H 589.588 2.8578 -4.00738 0
M  V30 6251 N 591.24 1.41047 0.703093 0
M  V30 6252 C 592.487 1.4 1.46309 0
M  V30 6253 C 592.815 0.00654574 1.94499 0
M  V30 6254 O 592.07 -0.980255 1.6938 0
M  V30 6255 C 592.369 2.34686 2.6955 0
M  V30 6256 C 592.035 3.81684 2.40058 0
M  V30 6257 C 590.697 4.21731 2.31725 0
M  V30 6258 C 593.049 4.74525 2.15581 0
M  V30 6259 C 590.377 5.52637 1.97001 0
M  V30 6260 C 592.729 6.05744 1.82366 0
M  V30 6261 C 591.393 6.44819 1.72524 0
M  V30 6262 H 590.663 0.512295 0.535382 0
M  V30 6263 H 593.31 1.73792 0.804275 0
M  V30 6264 H 591.615 1.94122 3.40329 0
M  V30 6265 H 593.312 2.31152 3.27673 0
M  V30 6266 H 589.902 3.49963 2.47435 0
M  V30 6267 H 594.086 4.44395 2.20968 0
M  V30 6268 H 589.342 5.81802 1.87928 0
M  V30 6269 H 593.516 6.77189 1.62444 0
M  V30 6270 H 591.143 7.46168 1.45385 0
M  V30 6271 N 592.718 -0.936591 1.26751 0
M  V30 6272 C 593.948 -1.71509 1.15188 0
M  V30 6273 C 594.356 -1.86885 -0.295037 0
M  V30 6274 O 593.699 -1.37915 -1.21347 0
M  V30 6275 C 593.761 -3.13853 1.75318 0
M  V30 6276 C 593.425 -3.21845 3.24445 0
M  V30 6277 C 594.422 -3.04771 4.21201 0
M  V30 6278 C 592.107 -3.45088 3.64992 0
M  V30 6279 C 594.101 -3.10816 5.56482 0
M  V30 6280 C 591.788 -3.50767 5.00405 0
M  V30 6281 C 592.786 -3.33648 5.9596 0
M  V30 6282 O 592.474 -3.39045 7.28906 0
M  V30 6283 H 592.206 -0.543658 0.401761 0
M  V30 6284 H 594.76 -1.18234 1.67958 0
M  V30 6285 H 592.99 -3.6857 1.17016 0
M  V30 6286 H 594.679 -3.73634 1.58596 0
M  V30 6287 H 595.445 -2.86665 3.91214 0
M  V30 6288 H 591.324 -3.57467 2.91098 0
M  V30 6289 H 594.868 -2.97372 6.31043 0
M  V30 6290 H 590.765 -3.68396 5.30052 0
M  V30 6291 H 591.533 -3.55558 7.37238 0
M  V30 6292 N 594.196 -1.08629 -1.14182 0
M  V30 6293 C 595.159 -0.722027 -2.1753 0
M  V30 6294 C 596.159 0.244305 -1.58933 0
M  V30 6295 O 597.349 0.0235545 -1.74184 0
M  V30 6296 C 594.481 -0.0663966 -3.40835 0
M  V30 6297 H 595.674 -1.63719 -2.51269 0
M  V30 6298 H 593.227 -0.884442 -1.28869 0
M  V30 6299 H 593.962 0.860389 -3.12678 0
M  V30 6300 H 593.747 -0.761598 -3.84632 0
M  V30 6301 H 595.237 0.173346 -4.1724 0
M  V30 6302 N 595.674 1.31259 -0.872281 0
M  V30 6303 C 597.085 1.78822 -0.536617 0
M  V30 6304 C 597.436 1.71855 0.946594 0
M  V30 6305 O 596.561 1.28769 1.73918 0
M  V30 6306 C 597.156 3.24698 -0.967294 0
M  V30 6307 C 595.715 3.70147 -0.683251 0
M  V30 6308 C 594.862 2.51994 -1.15733 0
M  V30 6309 H 597.813 1.18308 -1.05777 0
M  V30 6310 H 597.834 3.79386 -0.290929 0
M  V30 6311 H 597.346 3.29737 -2.04683 0
M  V30 6312 H 595.447 3.70607 0.384825 0
M  V30 6313 H 595.56 4.62183 -1.2619 0
M  V30 6314 H 593.924 2.48078 -0.577024 0
M  V30 6315 H 594.707 2.59778 -2.24434 0
M  V30 6316 N 597.152 0.631951 1.44375 0
M  V30 6317 C 598.398 0.145491 2.02879 0
M  V30 6318 C 598.753 -1.21936 1.48827 0
M  V30 6319 O 598.046 -1.7976 0.663085 0
M  V30 6320 C 598.24 0.0735861 3.57324 0
M  V30 6321 C 598.069 1.42992 4.2636 0
M  V30 6322 C 596.839 2.01691 4.63302 0
M  V30 6323 C 599.037 2.36393 4.56752 0
M  V30 6324 N 597.019 3.30551 5.17309 0
M  V30 6325 C 598.39 3.49869 5.11851 0
M  V30 6326 C 600.445 2.35462 4.38705 0
M  V30 6327 C 599.148 4.6261 5.50803 0
M  V30 6328 C 601.174 3.47268 4.78706 0
M  V30 6329 C 600.536 4.59467 5.33919 0
M  V30 6330 H 596.635 0.0971781 0.775938 0
M  V30 6331 H 599.219 0.835624 1.75856 0
M  V30 6332 H 597.39 -0.585829 3.83957 0
M  V30 6333 H 599.122 -0.421777 4.02496 0
M  V30 6334 H 595.877 1.54627 4.47647 0
M  V30 6335 H 596.301 3.96435 5.48788 0
M  V30 6336 H 600.943 1.49966 3.9531 0
M  V30 6337 H 598.661 5.48813 5.93152 0
M  V30 6338 H 602.247 3.47724 4.66454 0
M  V30 6339 H 601.127 5.44551 5.64299 0
M  V30 6340 N 598.631 -1.53133 0.372548 0
M  V30 6341 C 599.871 -2.03267 -0.214943 0
M  V30 6342 C 600.235 -1.25362 -1.45425 0
M  V30 6343 O 601.436 -1.65536 -2.11781 0
M  V30 6344 C 599.707 -3.53985 -0.492897 0
M  V30 6345 S 601.266 -4.25977 -1.05307 0
M  V30 6346 H 598.084 -0.708289 -0.062029 0
M  V30 6347 H 600.686 -1.88539 0.517025 0
M  V30 6348 H 599.39 -4.08282 0.416442 0
M  V30 6349 H 598.921 -3.72887 -1.25375 0
M  V30 6350 H 600.936 -4.37731 -2.33679 0
M  V30 6351 N 600.109 -0.101901 -1.5727 0
M  V30 6352 C 601.357 0.559091 -1.94213 0
M  V30 6353 C 601.678 1.68297 -0.984948 0
M  V30 6354 O 600.948 1.95863 -0.0381975 0
M  V30 6355 H 599.528 0.20952 -0.717015 0
M  V30 6356 H 602.19 -0.166831 -1.94185 0
M  V30 6357 H 601.286 0.96485 -2.96811 0
M  V30 6358 N 601.587 1.56661 0.17182 0
M  V30 6359 C 602.537 1.92781 1.21736 0
M  V30 6360 C 603.521 0.796065 1.39827 0
M  V30 6361 O 604.713 1.05924 1.41806 0
M  V30 6362 C 601.842 2.29079 2.55691 0
M  V30 6363 C 600.928 3.48765 2.41296 0
M  V30 6364 N 601.319 4.66022 1.96614 0
M  V30 6365 C 599.617 3.53362 2.72124 0
M  V30 6366 C 600.318 5.48159 1.94669 0
M  V30 6367 N 599.294 4.89189 2.37054 0
M  V30 6368 H 603.096 2.80926 0.863592 0
M  V30 6369 H 600.61 1.57889 0.380096 0
M  V30 6370 H 602.607 2.5315 3.31241 0
M  V30 6371 H 601.267 1.42272 2.91871 0
M  V30 6372 H 602.278 4.9025 1.66959 0
M  V30 6373 H 598.955 2.77033 3.12345 0
M  V30 6374 H 600.345 6.52121 1.61826 0
M  V30 6375 N 603.065 -0.440357 1.51323 0
M  V30 6376 C 604.305 -1.19956 1.65499 0
M  V30 6377 C 604.669 -1.88559 0.361878 0
M  V30 6378 O 605.87 -2.66109 0.379383 0
M  V30 6379 C 604.141 -2.1918 2.82303 0
M  V30 6380 S 605.7 -3.03627 3.1679 0
M  V30 6381 H 602.518 -0.406833 0.583102 0
M  V30 6382 H 605.12 -0.491596 1.89218 0
M  V30 6383 H 603.824 -1.67414 3.74701 0
M  V30 6384 H 603.355 -2.94561 2.60763 0
M  V30 6385 H 605.37 -4.20773 2.62991 0
M  V30 6386 N 604.543 -1.41418 -0.695603 0
M  V30 6387 C 605.49 -1.43264 -1.80954 0
M  V30 6388 C 606.46 -0.287016 -1.63601 0
M  V30 6389 O 607.645 -0.488054 -1.84452 0
M  V30 6390 C 604.785 -1.32054 -3.18835 0
M  V30 6391 C 603.898 -2.56485 -3.4762 0
M  V30 6392 C 603.033 -2.3757 -4.75115 0
M  V30 6393 C 602.072 -3.57477 -4.96867 0
M  V30 6394 N 601.209 -3.37632 -6.15588 0
M  V30 6395 H 606.049 -2.38467 -1.78711 0
M  V30 6396 H 603.586 -1.18415 -0.872715 0
M  V30 6397 H 605.544 -1.23558 -3.98484 0
M  V30 6398 H 604.174 -0.404592 -3.20254 0
M  V30 6399 H 603.226 -2.75432 -2.62376 0
M  V30 6400 H 604.538 -3.45678 -3.59594 0
M  V30 6401 H 603.692 -2.2654 -5.62818 0
M  V30 6402 H 602.431 -1.45834 -4.65386 0
M  V30 6403 H 601.436 -3.68961 -4.07612 0
M  V30 6404 H 602.661 -4.50167 -5.08455 0
M  V30 6405 H 600.607 -2.48596 -6.07072 0
M  V30 6406 H 600.524 -4.20401 -6.2833 0
M  V30 6407 H 601.792 -3.30375 -7.06026 0
M  V30 6408 N 606.021 0.929856 -1.27246 0
M  V30 6409 C 606.969 2.05151 -1.09616 0
M  V30 6410 C 607.963 1.69388 -0.0198617 0
M  V30 6411 O 609.169 1.79124 -0.177417 0
M  V30 6412 H 605.544 0.671909 -0.337701 0
M  V30 6413 H 607.515 2.17168 -2.04648 0
M  V30 6414 C 606.264 3.3934 -0.757851 0
M  V30 6415 H 605.587 3.67343 -1.57795 0
M  V30 6416 H 607.027 4.18603 -0.674358 0
M  V30 6417 C 605.486 3.32582 0.537658 0
M  V30 6418 O 606.016 3.69633 1.57271 0
M  V30 6419 N 604.222 2.8568 0.532478 0
M  V30 6420 H 603.769 2.55725 -0.310233 0
M  V30 6421 H 603.727 2.81541 1.39936 0
M  V30 6422 N 607.499 1.09233 1.13605 0
M  V30 6423 C 608.429 0.751738 2.21068 0
M  V30 6424 C 609.41 -0.269688 1.67948 0
M  V30 6425 O 610.595 -0.13819 1.93708 0
M  V30 6426 C 607.725 0.16935 3.46887 0
M  V30 6427 C 606.679 1.12007 4.13084 0
M  V30 6428 C 606.005 0.399483 5.33206 0
M  V30 6429 C 607.305 2.46168 4.6065 0
M  V30 6430 H 608.999 1.65024 2.49815 0
M  V30 6431 H 606.545 0.794905 1.20072 0
M  V30 6432 H 608.498 -0.0809824 4.21322 0
M  V30 6433 H 607.222 -0.764335 3.1753 0
M  V30 6434 H 605.881 1.35564 3.40614 0
M  V30 6435 H 605.529 -0.538277 5.00112 0
M  V30 6436 H 605.229 1.03337 5.78442 0
M  V30 6437 H 606.753 0.157403 6.10397 0
M  V30 6438 H 608.167 2.26829 5.26518 0
M  V30 6439 H 606.564 3.05326 5.1662 0
M  V30 6440 H 607.634 3.07076 3.75276 0
M  V30 6441 N 608.977 -1.30795 0.87923 0
M  V30 6442 C 609.887 -2.32041 0.345565 0
M  V30 6443 C 610.903 -1.65103 -0.549265 0
M  V30 6444 O 612.079 -1.9645 -0.443763 0
M  V30 6445 C 609.144 -3.43944 -0.436245 0
M  V30 6446 C 608.205 -4.26521 0.48765 0
M  V30 6447 C 607.438 -5.33081 -0.256943 0
M  V30 6448 O 607.661 -5.50762 -1.48381 0
M  V30 6449 O 606.595 -6.00635 0.389985 0
M  V30 6450 H 610.421 -2.79627 1.18501 0
M  V30 6451 H 608.006 -1.3486 0.642885 0
M  V30 6452 H 609.888 -4.12128 -0.879119 0
M  V30 6453 H 608.563 -2.98504 -1.25208 0
M  V30 6454 H 607.47 -3.61057 0.979216 0
M  V30 6455 H 608.803 -4.75551 1.26933 0
M  V30 6456 N 610.455 -0.639598 -1.44038 0
M  V30 6457 C 611.866 -0.228866 -1.85292 0
M  V30 6458 C 612.217 1.22161 -1.53529 0
M  V30 6459 O 611.342 1.93064 -0.977518 0
M  V30 6460 C 611.937 -0.408592 -3.36327 0
M  V30 6461 C 610.496 -0.0522953 -3.76364 0
M  V30 6462 C 609.643 -0.717959 -2.67844 0
M  V30 6463 H 612.594 -0.844194 -1.34384 0
M  V30 6464 H 612.615 0.349968 -3.78887 0
M  V30 6465 H 612.127 -1.46435 -3.59414 0
M  V30 6466 H 610.228 1.0014 -3.58891 0
M  V30 6467 H 610.341 -0.468261 -4.76806 0
M  V30 6468 H 608.705 -0.152459 -2.54243 0
M  V30 6469 H 609.488 -1.77648 -2.93762 0
M  V30 6470 N 611.933 1.52934 -0.380664 0
M  V30 6471 C 612.88 2.26197 0.458641 0
M  V30 6472 C 613.85 1.27462 1.06502 0
M  V30 6473 O 615.035 1.56274 1.09467 0
M  V30 6474 C 612.175 3.06571 1.58456 0
M  V30 6475 C 611.288 4.20222 1.00189 0
M  V30 6476 C 610.423 4.88007 2.09815 0
M  V30 6477 C 609.462 5.93665 1.49092 0
M  V30 6478 N 608.599 6.55081 2.52613 0
M  V30 6479 H 613.439 2.975 -0.172595 0
M  V30 6480 H 610.976 1.4678 -0.0969426 0
M  V30 6481 H 612.934 3.51455 2.24801 0
M  V30 6482 H 611.564 2.37494 2.18624 0
M  V30 6483 H 610.616 3.79714 0.228292 0
M  V30 6484 H 611.928 4.96102 0.518064 0
M  V30 6485 H 611.082 5.36151 2.83948 0
M  V30 6486 H 609.821 4.11632 2.61555 0
M  V30 6487 H 608.826 5.44868 0.7348 0
M  V30 6488 H 610.051 6.71969 0.981582 0
M  V30 6489 H 607.997 5.8155 3.03538 0
M  V30 6490 H 607.914 7.26548 2.08961 0
M  V30 6491 H 609.182 7.07871 3.26402 0
M  V30 6492 N 613.412 0.11024 1.57214 0
M  V30 6493 C 614.642 -0.557025 1.98949 0
M  V30 6494 C 615.05 -1.61317 0.988606 0
M  V30 6495 O 614.393 -1.83679 -0.0279159 0
M  V30 6496 C 614.455 -1.24956 3.37085 0
M  V30 6497 C 614.119 -0.342398 4.55716 0
M  V30 6498 C 615.116 0.415511 5.18237 0
M  V30 6499 C 612.801 -0.256029 5.01647 0
M  V30 6500 C 614.795 1.24761 6.25071 0
M  V30 6501 C 612.482 0.579713 6.08344 0
M  V30 6502 C 613.48 1.33017 6.69922 0
M  V30 6503 O 613.168 2.15205 7.74559 0
M  V30 6504 H 612.9 -0.152792 0.658506 0
M  V30 6505 H 615.454 0.19076 2.04512 0
M  V30 6506 H 613.684 -2.04424 3.2825 0
M  V30 6507 H 615.373 -1.81286 3.63167 0
M  V30 6508 H 616.139 0.358605 4.83672 0
M  V30 6509 H 612.018 -0.829831 4.5347 0
M  V30 6510 H 615.562 1.83386 6.73064 0
M  V30 6511 H 611.459 0.638044 6.42339 0
M  V30 6512 H 612.227 2.08052 7.91617 0
M  V30 6513 N 614.89 -1.56749 -0.16351 0
M  V30 6514 C 615.837 -1.97011 -1.2023 0
M  V30 6515 C 616.807 -0.835186 -1.43575 0
M  V30 6516 O 617.992 -1.09594 -1.56185 0
M  V30 6517 C 615.132 -2.34186 -2.53478 0
M  V30 6518 C 614.245 -3.60893 -2.37446 0
M  V30 6519 C 613.38 -3.87245 -3.63614 0
M  V30 6520 C 612.419 -5.07274 -3.42548 0
M  V30 6521 N 611.556 -5.29719 -4.60806 0
M  V30 6522 H 616.396 -2.85562 -0.851958 0
M  V30 6523 H 613.933 -1.41292 -0.409257 0
M  V30 6524 H 615.891 -2.53764 -3.31149 0
M  V30 6525 H 614.521 -1.48736 -2.86492 0
M  V30 6526 H 613.573 -3.49185 -1.50911 0
M  V30 6527 H 614.885 -4.48722 -2.1783 0
M  V30 6528 H 614.039 -4.07232 -4.49719 0
M  V30 6529 H 612.778 -2.97806 -3.86216 0
M  V30 6530 H 611.783 -4.87177 -2.5483 0
M  V30 6531 H 613.008 -5.98251 -3.2136 0
M  V30 6532 H 610.954 -4.43233 -4.83612 0
M  V30 6533 H 610.871 -6.11786 -4.44132 0
M  V30 6534 H 612.139 -5.54192 -5.48171 0
M  V30 6535 N 616.368 0.432326 -1.51554 0
M  V30 6536 C 617.278 1.55023 -1.76082 0
M  V30 6537 C 618.294 1.61593 -0.645265 0
M  V30 6538 O 619.47 1.78742 -0.928086 0
M  V30 6539 C 616.535 2.90964 -1.88523 0
M  V30 6540 C 615.596 2.9447 -3.12388 0
M  V30 6541 C 614.829 4.23926 -3.24225 0
M  V30 6542 O 615.052 5.16576 -2.4188 0
M  V30 6543 O 613.986 4.33818 -4.17235 0
M  V30 6544 H 617.812 1.37238 -2.70923 0
M  V30 6545 H 615.397 0.615845 -1.36117 0
M  V30 6546 H 617.279 3.71633 -1.98662 0
M  V30 6547 H 615.954 3.08865 -0.9687 0
M  V30 6548 H 614.861 2.12737 -3.07723 0
M  V30 6549 H 616.194 2.81514 -4.03746 0
M  V30 6550 N 617.846 1.41785 0.688094 0
M  V30 6551 C 618.776 1.47 1.8142 0
M  V30 6552 C 619.757 0.327881 1.6691 0
M  V30 6553 O 620.942 0.540362 1.86531 0
M  V30 6554 C 618.072 1.35876 3.19617 0
M  V30 6555 C 617.026 2.47976 3.48844 0
M  V30 6556 C 616.352 2.21915 4.86475 0
M  V30 6557 C 617.652 3.90309 3.47068 0
M  V30 6558 H 619.346 2.41247 1.77314 0
M  V30 6559 H 616.892 1.16116 0.851651 0
M  V30 6560 H 618.845 1.38134 3.98117 0
M  V30 6561 H 617.569 0.38116 3.24368 0
M  V30 6562 H 616.228 2.45013 2.72698 0
M  V30 6563 H 615.876 1.2248 4.8786 0
M  V30 6564 H 615.576 2.97037 5.06994 0
M  V30 6565 H 617.1 2.25901 5.67275 0
M  V30 6566 H 618.514 3.94947 4.1556 0
M  V30 6567 H 616.911 4.65175 3.7912 0
M  V30 6568 H 617.981 4.17927 2.45896 0
M  V30 6569 N 619.324 -0.923095 1.27737 0
M  V30 6570 C 620.572 -1.66797 1.14119 0
M  V30 6571 C 620.893 -1.92479 -0.312541 0
M  V30 6572 O 620.163 -1.53432 -1.218 0
M  V30 6573 H 618.743 -0.618196 0.419336 0
M  V30 6574 H 621.405 -1.10815 1.60331 0
M  V30 6575 H 620.501 -2.63424 1.67374 0
M  V30 6576 N 620.802 -1.09834 -1.13024 0
M  V30 6577 C 621.712 -0.753731 -2.22162 0
M  V30 6578 C 622.728 0.246105 -1.72251 0
M  V30 6579 O 623.904 0.0864051 -2.01215 0
M  V30 6580 C 620.969 -0.183958 -3.46212 0
M  V30 6581 C 620.03 -1.24028 -4.10993 0
M  V30 6582 C 619.263 -0.697597 -5.29121 0
M  V30 6583 O 619.486 0.478092 -5.68393 0
M  V30 6584 O 618.42 -1.4546 -5.84059 0
M  V30 6585 H 622.246 -1.66456 -2.5402 0
M  V30 6586 H 619.831 -0.873026 -1.21238 0
M  V30 6587 H 621.713 0.130257 -4.21199 0
M  V30 6588 H 620.388 0.699823 -3.16045 0
M  V30 6589 H 619.295 -1.60725 -3.37814 0
M  V30 6590 H 620.628 -2.09685 -4.45301 0
M  V30 6591 N 622.28 1.30327 -0.886154 0
M  V30 6592 C 623.227 2.28099 -0.352069 0
M  V30 6593 C 624.197 1.56433 0.558397 0
M  V30 6594 O 625.382 1.84492 0.486561 0
M  V30 6595 C 622.522 3.42456 0.426346 0
M  V30 6596 C 621.635 4.28938 -0.513472 0
M  V30 6597 C 620.77 5.30458 0.280657 0
M  V30 6598 C 619.809 6.0859 -0.654556 0
M  V30 6599 N 618.946 7.02022 0.104322 0
M  V30 6600 H 623.786 2.73166 -1.19097 0
M  V30 6601 H 621.323 1.34367 -0.598662 0
M  V30 6602 H 623.281 4.07518 0.893587 0
M  V30 6603 H 621.911 2.98455 1.22981 0
M  V30 6604 H 620.963 3.64173 -1.09921 0
M  V30 6605 H 622.275 4.83399 -1.2299 0
M  V30 6606 H 621.429 6.01273 0.8097 0
M  V30 6607 H 620.168 4.76693 1.03029 0
M  V30 6608 H 619.173 5.36651 -1.19522 0
M  V30 6609 H 620.398 6.64443 -1.4033 0
M  V30 6610 H 618.344 6.50645 0.836472 0
M  V30 6611 H 618.261 7.53979 -0.552453 0
M  V30 6612 H 619.529 7.77077 0.614069 0
M  V30 6613 N 623.758 0.647228 1.43697 0
M  V30 6614 C 624.688 -0.0345631 2.33474 0
M  V30 6615 C 625.669 -0.818193 1.4913 0
M  V30 6616 O 626.854 -0.780867 1.77809 0
M  V30 6617 C 623.984 -1.00576 3.32418 0
M  V30 6618 C 622.938 -0.33266 4.26705 0
M  V30 6619 C 622.264 -1.41489 5.1564 0
M  V30 6620 C 623.564 0.771204 5.16575 0
M  V30 6621 H 625.258 0.715163 2.90733 0
M  V30 6622 H 622.804 0.345364 1.39797 0
M  V30 6623 H 624.757 -1.49159 3.94119 0
M  V30 6624 H 623.481 -1.78657 2.73403 0
M  V30 6625 H 622.14 0.13267 3.6636 0
M  V30 6626 H 621.788 -2.18698 4.52968 0
M  V30 6627 H 621.488 -0.969799 5.79542 0
M  V30 6628 H 623.012 -1.9022 5.80214 0
M  V30 6629 H 624.426 0.36779 5.72119 0
M  V30 6630 H 622.823 1.1404 5.89165 0
M  V30 6631 H 623.893 1.63169 4.56622 0
M  V30 6632 N 625.236 -1.5273 0.388769 0
M  V30 6633 C 626.461 -2.0647 -0.19621 0
M  V30 6634 C 626.886 -1.25865 -1.39784 0
M  V30 6635 O 626.244 -0.283562 -1.79069 0
M  V30 6636 C 626.292 -3.56456 -0.5451 0
M  V30 6637 O 625.396 -3.78426 -1.63912 0
M  V30 6638 H 624.737 -0.663599 -0.023067 0
M  V30 6639 H 627.267 -1.96898 0.556084 0
M  V30 6640 H 627.277 -3.99888 -0.809557 0
M  V30 6641 H 625.952 -4.14561 0.333417 0
M  V30 6642 H 624.529 -3.46884 -1.36842 0
M  V30 6643 N 626.714 -0.118576 -1.57153 0
M  V30 6644 C 627.661 0.831789 -2.1529 0
M  V30 6645 C 628.631 1.26385 -1.07778 0
M  V30 6646 O 629.816 1.34144 -1.35684 0
M  V30 6647 C 626.956 2.07664 -2.75626 0
M  V30 6648 C 626.069 1.69298 -3.97444 0
M  V30 6649 C 625.204 2.88747 -4.45868 0
M  V30 6650 C 624.243 2.46619 -5.60219 0
M  V30 6651 N 623.38 3.5898 -6.03389 0
M  V30 6652 H 628.22 0.329183 -2.96176 0
M  V30 6653 H 625.757 0.150792 -1.46325 0
M  V30 6654 H 627.715 2.80601 -3.08738 0
M  V30 6655 H 626.345 2.55384 -1.97431 0
M  V30 6656 H 625.397 0.862374 -3.70496 0
M  V30 6657 H 626.709 1.34338 -4.80369 0
M  V30 6658 H 625.863 3.69909 -4.80887 0
M  V30 6659 H 624.602 3.26933 -3.61892 0
M  V30 6660 H 623.607 1.63889 -5.24805 0
M  V30 6661 H 624.832 2.0955 -6.45961 0
M  V30 6662 H 622.778 3.9684 -5.22354 0
M  V30 6663 H 622.695 3.27942 -6.81168 0
M  V30 6664 H 623.963 4.40583 -6.43045 0
M  V30 6665 N 628.193 1.56834 0.155195 0
M  V30 6666 C 629.47 1.73799 0.897395 0
M  V30 6667 C 629.85 0.684379 1.99698 0
M  V30 6668 O 629.198 -0.298111 2.26547 0
M  V30 6669 C 629.408 3.17572 1.44737 0
M  V30 6670 C 630.756 3.79014 1.91399 0
M  V30 6671 O 631.78 3.20951 1.54496 0
M  V30 6672 O 630.639 4.80998 2.59429 0
M  V30 6673 H 627.733 0.710329 0.423511 0
M  V30 6674 H 630.279 1.69107 0.141761 0
M  V30 6675 H 629.051 3.85749 0.656741 0
M  V30 6676 H 628.674 3.26657 2.26674 0
M  V30 6677 N 629.671 -0.424282 1.51781 0
M  V30 6678 C 631.082 -1.00368 1.57427 0
M  V30 6679 C 631.433 -1.91962 0.40558 0
M  V30 6680 O 630.558 -2.111 -0.47601 0
M  V30 6681 C 631.153 -1.82707 2.85313 0
M  V30 6682 C 629.712 -2.35675 2.93487 0
M  V30 6683 C 628.859 -1.1524 2.5222 0
M  V30 6684 H 631.81 -0.205064 1.5737 0
M  V30 6685 H 631.831 -2.68294 2.69812 0
M  V30 6686 H 631.343 -1.16017 3.70353 0
M  V30 6687 H 629.444 -3.05781 2.12906 0
M  V30 6688 H 629.557 -2.67578 3.97415 0
M  V30 6689 H 627.921 -1.50174 2.05718 0
M  V30 6690 H 628.704 -0.5014 3.39619 0
M  V30 6691 N 631.149 -1.42148 -0.680565 0
M  V30 6692 C 632.097 -1.45401 -1.81552 0
M  V30 6693 C 633.091 -0.33036 -1.66147 0
M  V30 6694 O 634.297 -0.503103 -1.72826 0
M  V30 6695 H 630.672 -0.455265 -0.59853 0
M  V30 6696 H 632.643 -2.41024 -1.75926 0
M  V30 6697 C 631.392 -1.36769 -3.19671 0
M  V30 6698 H 630.715 -2.22525 -3.32149 0
M  V30 6699 H 632.155 -1.43106 -3.9912 0
M  V30 6700 C 630.614 -0.0817752 -3.36801 0
M  V30 6701 O 631.144 0.867707 -3.92216 0
M  V30 6702 N 629.35 -0.000799811 -2.906 0
M  V30 6703 H 628.897 -0.774231 -2.4569 0
M  V30 6704 H 628.855 0.858961 -3.02439 0
M  V30 6705 N 632.627 0.916307 -1.28225 0
M  V30 6706 C 633.876 1.65975 -1.14608 0
M  V30 6707 C 634.189 1.93204 0.305191 0
M  V30 6708 O 635.395 2.65611 0.562432 0
M  V30 6709 C 633.851 2.98989 -2.00333 0
M  V30 6710 C 633.459 2.79417 -3.50186 0
M  V30 6711 C 635.203 3.76856 -1.95397 0
M  V30 6712 C 633.11 4.08056 -4.28071 0
M  V30 6713 H 632.04 0.622587 -0.425324 0
M  V30 6714 H 634.691 1.01705 -1.52736 0
M  V30 6715 H 633.073 3.6438 -1.5506 0
M  V30 6716 H 634.247 2.22723 -4.034 0
M  V30 6717 H 632.562 2.14966 -3.56621 0
M  V30 6718 H 635.159 4.72203 -2.50856 0
M  V30 6719 H 635.502 4.05776 -0.930137 0
M  V30 6720 H 636.035 3.1828 -2.38626 0
M  V30 6721 H 632.774 3.8431 -5.31024 0
M  V30 6722 H 632.294 4.64371 -3.79631 0
M  V30 6723 H 633.973 4.76333 -4.37854 0
M  V30 6724 N 634.105 1.10431 1.1244 0
M  V30 6725 C 635.351 0.847972 1.84221 0
M  V30 6726 C 635.684 -0.624903 1.83871 0
M  V30 6727 O 634.959 -1.46074 1.28423 0
M  V30 6728 C 635.242 1.39695 3.319 0
M  V30 6729 C 635.095 2.93668 3.40704 0
M  V30 6730 C 636.414 1.03924 4.27654 0
M  V30 6731 H 633.533 0.309502 0.668863 0
M  V30 6732 H 636.175 1.36745 1.31912 0
M  V30 6733 H 634.325 0.955095 3.76577 0
M  V30 6734 H 635.997 3.46379 3.04662 0
M  V30 6735 H 634.24 3.30272 2.81252 0
M  V30 6736 H 634.911 3.27162 4.446 0
M  V30 6737 H 637.387 1.42049 3.91102 0
M  V30 6738 H 636.263 1.45027 5.29394 0
M  V30 6739 H 636.524 -0.051336 4.4207 0
M  V30 6740 N 635.583 -1.29855 0.893053 0
M  V30 6741 C 636.832 -1.95104 0.511597 0
M  V30 6742 C 637.145 -1.71226 -0.945567 0
M  V30 6743 O 638.351 -2.30525 -1.43424 0
M  V30 6744 C 636.807 -3.49374 0.864034 0
M  V30 6745 C 636.415 -3.82061 2.33952 0
M  V30 6746 C 638.159 -4.20894 0.552167 0
M  V30 6747 C 636.066 -5.29546 2.63316 0
M  V30 6748 H 634.996 -0.73029 0.187597 0
M  V30 6749 H 637.647 -1.47682 1.08914 0
M  V30 6750 H 636.029 -3.95413 0.215493 0
M  V30 6751 H 637.203 -3.46904 3.03305 0
M  V30 6752 H 635.518 -3.23665 2.61973 0
M  V30 6753 H 638.115 -5.29435 0.748489 0
M  V30 6754 H 638.458 -4.13178 -0.508924 0
M  V30 6755 H 638.991 -3.80564 1.15825 0
M  V30 6756 H 635.73 -5.4232 3.68197 0
M  V30 6757 H 635.25 -5.65974 1.9858 0
M  V30 6758 H 636.929 -5.97068 2.49236 0
M  V30 6759 N 637.061 -0.65484 -1.43351 0
M  V30 6760 C 638.024 0.0263562 -2.29185 0
M  V30 6761 C 639.024 0.748951 -1.42293 0
M  V30 6762 O 640.214 0.589957 -1.63906 0
M  V30 6763 C 637.346 1.04806 -3.2439 0
M  V30 6764 H 638.539 -0.728883 -2.90908 0
M  V30 6765 H 636.092 -0.416149 -1.50658 0
M  V30 6766 H 636.827 1.83247 -2.67565 0
M  V30 6767 H 636.612 0.533554 -3.88453 0
M  V30 6768 H 638.102 1.52372 -3.88809 0
M  V30 6769 N 638.539 1.52521 -0.396863 0
M  V30 6770 C 639.486 2.26671 0.434624 0
M  V30 6771 C 640.456 1.28584 1.05144 0
M  V30 6772 O 641.641 1.57426 1.07804 0
M  V30 6773 C 638.781 3.08234 1.55196 0
M  V30 6774 C 637.894 4.21261 0.957262 0
M  V30 6775 C 637.029 4.90205 2.04627 0
M  V30 6776 C 636.068 5.95213 1.42787 0
M  V30 6777 N 635.205 6.57723 2.45651 0
M  V30 6778 H 640.045 2.973 -0.204139 0
M  V30 6779 H 637.582 1.46669 -0.112505 0
M  V30 6780 H 639.54 3.53819 2.2106 0
M  V30 6781 H 638.17 2.398 2.16092 0
M  V30 6782 H 637.222 3.79935 0.188005 0
M  V30 6783 H 638.534 4.96624 0.465416 0
M  V30 6784 H 637.688 5.39133 2.78246 0
M  V30 6785 H 636.427 4.14383 2.57174 0
M  V30 6786 H 635.432 5.45616 0.676968 0
M  V30 6787 H 636.657 6.72972 0.910255 0
M  V30 6788 H 634.603 5.84737 2.97353 0
M  V30 6789 H 634.52 7.28723 2.01243 0
M  V30 6790 H 635.788 7.11293 3.18876 0
M  V30 6791 N 640.017 0.126909 1.57088 0
M  V30 6792 C 640.95 -0.857844 2.11462 0
M  V30 6793 C 641.928 -1.25569 1.03301 0
M  V30 6794 O 643.112 -1.35535 1.31006 0
M  V30 6795 C 640.239 -2.14912 2.61784 0
M  V30 6796 C 639.285 -1.89874 3.81903 0
M  V30 6797 S 640.118 -1.10785 5.23915 0
M  V30 6798 C 641.274 -2.41075 5.7761 0
M  V30 6799 H 641.507 -0.395384 2.94659 0
M  V30 6800 H 639.04 -0.0870151 1.54155 0
M  V30 6801 H 640.998 -2.89101 2.91429 0
M  V30 6802 H 639.659 -2.58275 1.78754 0
M  V30 6803 H 638.852 -2.85572 4.15289 0
M  V30 6804 H 638.454 -1.23802 3.52915 0
M  V30 6805 H 640.746 -3.36864 5.87817 0
M  V30 6806 H 641.689 -2.12223 6.75549 0
M  V30 6807 H 642.097 -2.50804 5.05725 0
M  V30 6808 N 641.495 -1.56914 -0.146875 0
M  V30 6809 C 642.772 -1.74273 -0.888165 0
M  V30 6810 C 643.152 -0.69496 -1.99333 0
M  V30 6811 O 642.5 0.286093 -2.26702 0
M  V30 6812 C 642.71 -3.18336 -1.43051 0
M  V30 6813 C 644.058 -3.80024 -1.89387 0
M  V30 6814 O 645.082 -3.21765 -1.52792 0
M  V30 6815 O 643.941 -4.82367 -2.56874 0
M  V30 6816 H 641.035 -0.712565 -0.419738 0
M  V30 6817 H 643.581 -1.6918 -0.132791 0
M  V30 6818 H 642.353 -3.86092 -0.636274 0
M  V30 6819 H 641.976 -3.27854 -2.24938 0
M  V30 6820 N 642.974 0.416227 -1.52004 0
M  V30 6821 C 643.937 1.48926 -1.74223 0
M  V30 6822 C 644.937 1.48693 -0.612119 0
M  V30 6823 O 646.127 1.50343 -0.879921 0
M  V30 6824 C 643.259 2.88372 -1.81809 0
M  V30 6825 H 644.452 1.3052 -2.70008 0
M  V30 6826 H 642.005 0.646271 -1.42313 0
M  V30 6827 H 642.74 3.12157 -0.879135 0
M  V30 6828 H 642.525 2.89944 -2.6396 0
M  V30 6829 H 644.015 3.66173 -2.00766 0
M  V30 6830 N 644.452 1.42507 0.673017 0
M  V30 6831 C 645.68 1.46473 1.46128 0
M  V30 6832 C 646.095 0.0765912 1.88645 0
M  V30 6833 O 645.452 -0.909057 1.58248 0
M  V30 6834 C 645.503 2.39339 2.70923 0
M  V30 6835 O 645.224 3.72752 2.3019 0
M  V30 6836 C 646.725 2.52343 3.64469 0
M  V30 6837 H 643.945 0.49812 0.449575 0
M  V30 6838 H 646.489 1.87041 0.826802 0
M  V30 6839 H 644.644 2.02019 3.30556 0
M  V30 6840 H 645.058 4.22503 3.10791 0
M  V30 6841 H 646.532 3.2144 4.48754 0
M  V30 6842 H 647.009 1.56189 4.1049 0
M  V30 6843 H 647.615 2.90392 3.10729 0
M  V30 6844 N 645.93 -0.909495 1.28709 0
M  V30 6845 C 646.893 -1.99399 1.13016 0
M  V30 6846 C 647.893 -1.60654 0.068536 0
M  V30 6847 O 649.083 -1.71334 0.314671 0
M  V30 6848 C 646.215 -3.33078 0.726085 0
M  V30 6849 H 647.408 -2.14751 2.09338 0
M  V30 6850 H 644.961 -1.09272 1.11756 0
M  V30 6851 H 645.696 -3.23428 -0.23771 0
M  V30 6852 H 645.481 -3.62562 1.49302 0
M  V30 6853 H 646.971 -4.12681 0.639058 0
M  V30 6854 N 647.408 -1.11026 -1.11852 0
M  V30 6855 C 648.356 -0.759643 -2.19846 0
M  V30 6856 C 649.35 0.246964 -1.6759 0
M  V30 6857 O 650.556 0.106693 -1.79684 0
M  V30 6858 H 646.931 -0.22775 -0.716683 0
M  V30 6859 H 648.902 -1.6792 -2.46669 0
M  V30 6860 C 647.651 -0.214364 -3.47039 0
M  V30 6861 H 646.974 -0.980175 -3.87599 0
M  V30 6862 H 648.414 -0.00717047 -4.23999 0
M  V30 6863 C 646.873 1.05436 -3.19976 0
M  V30 6864 O 647.403 2.13483 -3.40276 0
M  V30 6865 N 645.609 0.975436 -2.7374 0
M  V30 6866 H 645.156 0.0960853 -2.57421 0
M  V30 6867 H 645.114 1.82501 -2.5601 0
M  V30 6868 N 648.886 1.2938 -0.899927 0
M  V30 6869 C 650.163 1.9046 -0.445443 0
M  V30 6870 C 650.543 1.81683 1.07492 0
M  V30 6871 O 649.891 1.24371 1.91688 0
M  V30 6872 C 650.101 3.35529 -0.960279 0
M  V30 6873 C 651.449 4.12556 -1.00412 0
M  V30 6874 O 652.473 3.44434 -0.907965 0
M  V30 6875 O 651.332 5.34294 -1.14857 0
M  V30 6876 H 648.426 0.815253 -0.138893 0
M  V30 6877 H 650.972 1.37844 -0.989808 0
M  V30 6878 H 649.744 3.36074 -2.00425 0
M  V30 6879 H 649.367 3.95624 -0.395939 0
M  V30 6880 N 650.364 0.662433 1.43002 0
M  V30 6881 C 651.61 0.179857 2.02001 0
M  V30 6882 C 651.943 -1.20625 1.52195 0
M  V30 6883 O 651.218 -1.80726 0.718911 0
M  V30 6884 C 651.501 0.200845 3.59539 0
M  V30 6885 C 651.354 1.62153 4.19555 0
M  V30 6886 C 652.673 -0.457738 4.37713 0
M  V30 6887 H 649.792 0.0668305 0.733964 0
M  V30 6888 H 652.434 0.84487 1.70182 0
M  V30 6889 H 650.584 -0.365411 3.86778 0
M  V30 6890 H 652.256 2.23908 4.03315 0
M  V30 6891 H 650.499 2.16601 3.75854 0
M  V30 6892 H 651.17 1.58799 5.28665 0
M  V30 6893 H 653.646 0.0241495 4.16093 0
M  V30 6894 H 652.522 -0.412363 5.47349 0
M  V30 6895 H 652.783 -1.53336 4.14657 0
M  V30 6896 N 651.842 -1.52309 0.404946 0
M  V30 6897 C 653.253 -1.86585 -0.0655926 0
M  V30 6898 C 653.604 -1.3239 -1.44801 0
M  V30 6899 O 652.729 -0.6615 -2.06042 0
M  V30 6900 C 653.324 -3.38566 -0.125801 0
M  V30 6901 C 651.883 -3.72497 -0.540666 0
M  V30 6902 C 651.03 -2.75806 0.287487 0
M  V30 6903 H 653.981 -1.45995 0.622185 0
M  V30 6904 H 654.002 -3.68658 -0.941888 0
M  V30 6905 H 653.514 -3.77981 0.880473 0
M  V30 6906 H 651.615 -3.38659 -1.55373 0
M  V30 6907 H 651.728 -4.78234 -0.287956 0
M  V30 6908 H 650.092 -2.53474 -0.249561 0
M  V30 6909 H 650.875 -3.18059 1.29203 0
M  V30 6910 N 653.32 -0.135238 -1.57019 0
M  V30 6911 C 654.545 0.529343 -2.00531 0
M  V30 6912 C 654.97 1.58391 -1.01459 0
M  V30 6913 O 654.328 1.81296 0.0113986 0
M  V30 6914 C 654.376 1.11748 -3.42848 0
M  V30 6915 O 653.48 2.23267 -3.46736 0
M  V30 6916 H 652.821 0.130669 -0.651016 0
M  V30 6917 H 655.351 -0.228503 -2.0332 0
M  V30 6918 H 655.361 1.44905 -3.81401 0
M  V30 6919 H 654.036 0.345147 -4.14465 0
M  V30 6920 H 652.613 1.91428 -3.20015 0
M  V30 6921 N 654.798 1.5699 0.138552 0
M  V30 6922 C 656.209 1.73171 0.697754 0
M  V30 6923 C 656.56 0.750952 1.8126 0
M  V30 6924 O 655.685 -0.080549 2.1625 0
M  V30 6925 C 656.28 3.13996 1.27248 0
M  V30 6926 C 654.839 3.3175 1.77816 0
M  V30 6927 C 653.986 2.69084 0.669991 0
M  V30 6928 H 656.937 1.5846 -0.0871979 0
M  V30 6929 H 656.958 3.14463 2.14227 0
M  V30 6930 H 656.47 3.85354 0.460855 0
M  V30 6931 H 654.571 2.65403 2.61519 0
M  V30 6932 H 654.684 4.39768 1.90107 0
M  V30 6933 H 653.048 2.29782 1.09874 0
M  V30 6934 H 653.831 3.43053 -0.130329 0
M  V30 6935 N 656.276 -0.40816 1.52223 0
M  V30 6936 C 657.506 -1.17501 1.69932 0
M  V30 6937 C 657.914 -1.84729 0.408874 0
M  V30 6938 O 657.257 -1.7274 -0.625025 0
M  V30 6939 C 657.319 -2.27994 2.77955 0
M  V30 6940 C 656.983 -1.80894 4.19674 0
M  V30 6941 C 657.98 -1.29618 5.03483 0
M  V30 6942 C 655.665 -1.87698 4.65913 0
M  V30 6943 C 657.659 -0.857695 6.31603 0
M  V30 6944 C 655.346 -1.43461 5.94022 0
M  V30 6945 C 656.344 -0.925822 6.76696 0
M  V30 6946 O 656.032 -0.489841 8.02406 0
M  V30 6947 H 655.764 -0.359065 0.572755 0
M  V30 6948 H 658.318 -0.486188 1.99563 0
M  V30 6949 H 656.548 -3.00243 2.43703 0
M  V30 6950 H 658.237 -2.89749 2.84254 0
M  V30 6951 H 659.003 -1.23733 4.68951 0
M  V30 6952 H 654.882 -2.26244 4.01665 0
M  V30 6953 H 658.426 -0.459879 6.96083 0
M  V30 6954 H 654.323 -1.49026 6.28062 0
M  V30 6955 H 655.091 -0.613062 8.16201 0
M  V30 6956 N 657.755 -1.42862 -0.66545 0
M  V30 6957 C 658.665 -1.49491 -1.80803 0
M  V30 6958 C 659.681 -0.382914 -1.69734 0
M  V30 6959 O 660.857 -0.635223 -1.9112 0
M  V30 6960 C 657.922 -1.40383 -3.17007 0
M  V30 6961 C 656.983 -2.62152 -3.39963 0
M  V30 6962 C 656.216 -2.53469 -4.69669 0
M  V30 6963 O 656.439 -1.57568 -5.48205 0
M  V30 6964 O 655.373 -3.43763 -4.94075 0
M  V30 6965 H 659.199 -2.45949 -1.78165 0
M  V30 6966 H 656.784 -1.24728 -0.822387 0
M  V30 6967 H 658.666 -1.377 -3.98267 0
M  V30 6968 H 657.341 -0.470546 -3.20262 0
M  V30 6969 H 656.248 -2.70409 -2.58515 0
M  V30 6970 H 657.581 -3.54411 -3.41546 0
M  V30 6971 N 659.233 0.902656 -1.29189 0
M  V30 6972 C 660.479 1.65532 -1.17163 0
M  V30 6973 C 660.812 1.92216 0.276879 0
M  V30 6974 O 660.087 1.53048 1.20027 0
M  V30 6975 C 660.37 3.00629 -1.98228 0
M  V30 6976 C 660.223 2.81029 -3.51202 0
M  V30 6977 C 661.542 4.01321 -1.80635 0
M  V30 6978 H 658.661 0.60071 -0.426985 0
M  V30 6979 H 661.303 1.04578 -1.5863 0
M  V30 6980 H 659.453 3.52656 -1.62991 0
M  V30 6981 H 661.125 2.35927 -3.96404 0
M  V30 6982 H 659.368 2.1587 -3.76275 0
M  V30 6983 H 660.039 3.77014 -4.03192 0
M  V30 6984 H 662.515 3.58394 -2.11406 0
M  V30 6985 H 661.391 4.93792 -2.3971 0
M  V30 6986 H 661.652 4.35505 -0.760754 0
M  V30 6987 N 660.711 1.11618 1.11262 0
M  V30 6988 C 662.127 0.850468 1.35053 0
M  V30 6989 C 662.327 -0.523868 1.94571 0
M  V30 6990 O 661.383 -1.2743 2.17986 0
M  V30 6991 C 662.696 1.96005 2.28041 0
M  V30 6992 C 664.244 1.98993 2.416 0
M  V30 6993 C 664.719 3.0916 3.37911 0
M  V30 6994 N 666.21 3.08547 3.45475 0
M  V30 6995 C 666.945 3.9043 4.19943 0
M  V30 6996 N 666.441 4.8228 4.97371 0
M  V30 6997 N 668.234 3.786 4.15474 0
M  V30 6998 H 660.385 2.00184 0.709932 0
M  V30 6999 H 662.648 0.870635 0.375099 0
M  V30 7000 H 662.354 2.9499 1.91503 0
M  V30 7001 H 662.228 1.85782 3.28275 0
M  V30 7002 H 664.615 1.00633 2.77411 0
M  V30 7003 H 664.696 2.13292 1.4121 0
M  V30 7004 H 664.34 4.07748 3.02827 0
M  V30 7005 H 664.27 2.92102 4.3816 0
M  V30 7006 H 666.761 2.42 2.90249 0
M  V30 7007 H 667.074 5.41289 5.51567 0
M  V30 7008 H 665.419 4.863 4.96525 0
M  V30 7009 H 668.61 3.06185 3.54074 0
M  V30 7010 H 668.783 4.42647 4.73253 0
M  V30 7011 N 662.189 -1.289 0.906776 0
M  V30 7012 C 663.437 -1.94883 0.535266 0
M  V30 7013 C 663.758 -1.71784 -0.922791 0
M  V30 7014 O 663.028 -1.05359 -1.65156 0
M  V30 7015 H 661.608 -0.721109 0.194962 0
M  V30 7016 H 664.27 -1.57018 1.15461 0
M  V30 7017 H 663.366 -3.03591 0.723821 0
M  V30 7018 N 663.667 -0.670007 -1.42649 0
M  V30 7019 C 664.914 -0.190286 -2.01604 0
M  V30 7020 C 665.242 1.20155 -1.52948 0
M  V30 7021 O 664.497 1.81964 -0.72026 0
M  V30 7022 C 664.796 -0.168298 -3.57004 0
M  V30 7023 C 664.462 -1.50415 -4.25072 0
M  V30 7024 C 663.124 -1.86992 -4.43382 0
M  V30 7025 C 665.476 -2.38414 -4.63474 0
M  V30 7026 C 662.804 -3.11203 -4.97363 0
M  V30 7027 C 665.156 -3.61933 -5.18833 0
M  V30 7028 C 663.82 -3.98685 -5.35356 0
M  V30 7029 H 663.09 -0.0696305 -0.737721 0
M  V30 7030 H 665.737 -0.864044 -1.70899 0
M  V30 7031 H 664.042 0.588958 -3.87348 0
M  V30 7032 H 665.739 0.22001 -4.00396 0
M  V30 7033 H 662.329 -1.20959 -4.11177 0
M  V30 7034 H 666.513 -2.11442 -4.49006 0
M  V30 7035 H 661.769 -3.39705 -5.08341 0
M  V30 7036 H 665.943 -4.30326 -5.47533 0
M  V30 7037 H 663.57 -4.95009 -5.76949 0
M  V30 7038 N 665.145 1.52092 -0.413018 0
M  V30 7039 C 666.556 1.86617 0.0556967 0
M  V30 7040 C 666.907 1.33156 1.44097 0
M  V30 7041 O 666.032 0.672417 2.05688 0
M  V30 7042 C 666.627 3.38628 0.107844 0
M  V30 7043 C 665.186 3.72778 0.520904 0
M  V30 7044 C 664.333 2.75649 -0.302109 0
M  V30 7045 H 667.284 1.45663 -0.629919 0
M  V30 7046 H 667.305 3.69152 0.922324 0
M  V30 7047 H 666.817 3.77508 -0.900506 0
M  V30 7048 H 664.918 3.39478 1.53575 0
M  V30 7049 H 665.031 4.7838 0.262591 0
M  V30 7050 H 663.395 2.53603 0.236115 0
M  V30 7051 H 664.178 3.17369 -1.30888 0
M  V30 7052 N 666.623 0.143563 1.56945 0
M  V30 7053 C 667.851 -0.515447 2.00377 0
M  V30 7054 C 668.266 -1.58643 1.02361 0
M  V30 7055 O 667.623 -1.82489 0.0201039 0
M  V30 7056 C 667.674 -1.11923 3.43737 0
M  V30 7057 O 667.395 -0.0910318 4.38005 0
M  V30 7058 C 668.896 -1.85918 4.02429 0
M  V30 7059 H 666.116 -0.134478 0.657386 0
M  V30 7060 H 668.66 0.237135 2.0312 0
M  V30 7061 H 666.815 -1.82245 3.41856 0
M  V30 7062 H 667.229 -0.532916 5.21786 0
M  V30 7063 H 668.703 -2.2346 5.04747 0
M  V30 7064 H 669.18 -2.7438 3.42947 0
M  V30 7065 H 669.786 -1.20303 4.07931 0
M  V30 7066 N 668.101 -1.57061 -0.130224 0
M  V30 7067 C 669.35 -1.83446 -0.838488 0
M  V30 7068 C 669.663 -0.727468 -1.81569 0
M  V30 7069 O 670.869 -0.877394 -2.56932 0
M  V30 7070 C 669.325 -3.25201 -1.54182 0
M  V30 7071 C 668.933 -4.4388 -0.606178 0
M  V30 7072 C 670.677 -3.60844 -2.23588 0
M  V30 7073 C 668.584 -5.76661 -1.31209 0
M  V30 7074 H 667.514 -0.684185 -0.316871 0
M  V30 7075 H 670.165 -1.83273 -0.0912059 0
M  V30 7076 H 668.547 -3.1981 -2.33533 0
M  V30 7077 H 669.721 -4.60545 0.153308 0
M  V30 7078 H 668.036 -4.16395 -0.0196705 0
M  V30 7079 H 670.633 -4.57313 -2.77072 0
M  V30 7080 H 670.976 -2.87724 -3.00867 0
M  V30 7081 H 671.509 -3.67971 -1.51137 0
M  V30 7082 H 668.248 -6.52922 -0.580823 0
M  V30 7083 H 667.768 -5.63902 -2.04387 0
M  V30 7084 H 669.447 -6.20035 -1.8484 0
M  V30 7085 N 669.579 0.400081 -1.52437 0
M  V30 7086 C 670.809 1.16598 -1.70553 0
M  V30 7087 C 671.217 1.8451 -0.418665 0
M  V30 7088 O 670.56 1.73069 0.615855 0
M  V30 7089 C 670.622 2.26517 -2.7916 0
M  V30 7090 C 670.286 1.78666 -4.20628 0
M  V30 7091 C 671.283 1.26946 -5.04163 0
M  V30 7092 C 668.968 1.85225 -4.66902 0
M  V30 7093 C 670.962 0.824187 -6.32049 0
M  V30 7094 C 668.649 1.40309 -5.94774 0
M  V30 7095 C 669.647 0.889922 -6.77178 0
M  V30 7096 O 669.335 0.447281 -8.02655 0
M  V30 7097 H 669.067 0.356023 -0.574651 0
M  V30 7098 H 671.621 0.475598 -1.99818 0
M  V30 7099 H 669.851 2.98946 -2.45292 0
M  V30 7100 H 671.54 2.88237 -2.85787 0
M  V30 7101 H 672.306 1.21244 -4.69601 0
M  V30 7102 H 668.185 2.24111 -4.02859 0
M  V30 7103 H 671.729 0.422958 -6.96317 0
M  V30 7104 H 667.626 1.45693 -6.28843 0
M  V30 7105 H 668.394 0.569768 -8.16514 0
M  V30 7106 N 671.057 1.43213 0.657864 0
M  V30 7107 C 672.304 1.44584 1.41781 0
M  V30 7108 C 672.632 0.0684208 1.9438 0
M  V30 7109 O 671.887 -0.925872 1.72413 0
M  V30 7110 C 672.186 2.43143 2.61947 0
M  V30 7111 C 671.852 3.89128 2.27794 0
M  V30 7112 C 670.514 4.28889 2.18191 0
M  V30 7113 C 672.866 4.81144 2.00375 0
M  V30 7114 C 670.194 5.58625 1.79319 0
M  V30 7115 C 672.546 6.11239 1.63003 0
M  V30 7116 C 671.21 6.49981 1.51922 0
M  V30 7117 H 670.48 0.529069 0.518813 0
M  V30 7118 H 673.127 1.76263 0.748577 0
M  V30 7119 H 671.432 2.04851 3.33981 0
M  V30 7120 H 673.129 2.4146 3.20153 0
M  V30 7121 H 669.719 3.57657 2.36176 0
M  V30 7122 H 673.903 4.512 2.06718 0
M  V30 7123 H 669.159 5.87486 1.69323 0
M  V30 7124 H 673.333 6.82014 1.40817 0
M  V30 7125 H 670.96 7.50416 1.21572 0
M  V30 7126 N 672.536 -0.895792 1.29666 0
M  V30 7127 C 673.761 -1.68528 1.20885 0
M  V30 7128 C 674.186 -1.8673 -0.226595 0
M  V30 7129 O 673.544 -1.39044 -1.16347 0
M  V30 7130 C 673.592 -3.04512 1.93144 0
M  V30 7131 O 672.696 -3.92963 1.25115 0
M  V30 7132 H 672.037 -0.515371 0.418675 0
M  V30 7133 H 674.567 -1.11878 1.71302 0
M  V30 7134 H 674.577 -3.54628 2.0175 0
M  V30 7135 H 673.252 -2.90582 2.97548 0
M  V30 7136 H 671.829 -3.51399 1.24794 0
M  V30 7137 N 674.014 -1.12206 -1.10668 0
M  V30 7138 C 675.425 -0.890657 -1.64086 0
M  V30 7139 C 675.776 0.575502 -1.8757 0
M  V30 7140 O 674.901 1.4394 -1.61587 0
M  V30 7141 C 675.496 -1.61029 -2.98085 0
M  V30 7142 C 674.055 -1.4251 -3.48379 0
M  V30 7143 C 673.202 -1.64778 -2.23033 0
M  V30 7144 H 676.153 -1.27718 -0.94201 0
M  V30 7145 H 676.174 -1.05993 -3.65439 0
M  V30 7146 H 675.686 -2.67735 -2.80962 0
M  V30 7147 H 673.787 -0.380497 -3.70652 0
M  V30 7148 H 673.9 -2.17959 -4.26651 0
M  V30 7149 H 672.264 -1.07171 -2.31055 0
M  V30 7150 H 673.047 -2.72776 -2.08443 0
M  V30 7151 N 675.492 1.28418 -0.913599 0
M  V30 7152 C 676.455 2.25564 -0.406624 0
M  V30 7153 C 677.455 1.5387 0.466965 0
M  V30 7154 O 678.645 1.72094 0.270042 0
M  V30 7155 C 675.777 3.38339 0.417053 0
M  V30 7156 H 676.97 2.71926 -1.26477 0
M  V30 7157 H 674.523 1.40098 -0.692986 0
M  V30 7158 H 675.258 2.97339 1.29461 0
M  V30 7159 H 675.043 3.91542 -0.209102 0
M  V30 7160 H 676.533 4.10578 0.762602 0
M  V30 7161 N 676.97 0.677563 1.42291 0
M  V30 7162 C 677.918 -0.0106755 2.32598 0
M  V30 7163 C 678.912 -0.787643 1.49975 0
M  V30 7164 O 680.118 -0.695295 1.66029 0
M  V30 7165 H 676.493 -0.0222482 0.751671 0
M  V30 7166 H 678.464 0.768312 2.88339 0
M  V30 7167 C 677.213 -0.946142 3.3458 0
M  V30 7168 H 676.536 -0.357701 3.98197 0
M  V30 7169 H 677.976 -1.39634 4.00348 0
M  V30 7170 C 676.435 -2.05383 2.67057 0
M  V30 7171 O 676.965 -3.1406 2.50458 0
M  V30 7172 N 675.171 -1.82635 2.26038 0
M  V30 7173 H 674.718 -0.942534 2.39737 0
M  V30 7174 H 674.676 -2.56937 1.81192 0
M  V30 7175 N 678.448 -1.51871 0.421078 0
M  V30 7176 C 679.395 -2.27334 -0.398508 0
M  V30 7177 C 680.365 -1.30241 -1.03085 0
M  V30 7178 O 681.55 -1.59121 -1.05285 0
M  V30 7179 C 678.69 -3.10664 -1.50272 0
M  V30 7180 C 677.803 -4.2273 -0.890122 0
M  V30 7181 C 676.938 -4.93399 -1.96803 0
M  V30 7182 C 675.977 -5.97409 -1.333 0
M  V30 7183 N 675.114 -6.61548 -2.35156 0
M  V30 7184 H 679.954 -2.96938 0.251411 0
M  V30 7185 H 677.491 -1.46472 0.135825 0
M  V30 7186 H 679.449 -3.57292 -2.15403 0
M  V30 7187 H 678.079 -2.43207 -2.1225 0
M  V30 7188 H 677.131 -3.80186 -0.127537 0
M  V30 7189 H 678.443 -4.97302 -0.386349 0
M  V30 7190 H 677.597 -5.43491 -2.69633 0
M  V30 7191 H 676.336 -4.18421 -2.50549 0
M  V30 7192 H 675.341 -5.46624 -0.59008 0
M  V30 7193 H 676.566 -6.74335 -0.803076 0
M  V30 7194 H 674.512 -5.89394 -2.88012 0
M  V30 7195 H 674.429 -7.31832 -1.89624 0
M  V30 7196 H 675.697 -7.16276 -3.0752 0
M  V30 7197 N 679.926 -0.151884 -1.56866 0
M  V30 7198 C 680.873 0.785936 -2.17006 0
M  V30 7199 C 681.843 1.2407 -1.10435 0
M  V30 7200 O 683.028 1.31235 -1.38499 0
M  V30 7201 C 680.168 2.01771 -2.79969 0
M  V30 7202 C 679.281 1.6083 -4.00946 0
M  V30 7203 C 678.416 2.79224 -4.51893 0
M  V30 7204 C 677.455 2.3468 -5.65324 0
M  V30 7205 N 676.592 3.461 -6.10867 0
M  V30 7206 H 681.432 0.266286 -2.96808 0
M  V30 7207 H 678.969 0.11972 -1.46612 0
M  V30 7208 H 680.927 2.73989 -3.14621 0
M  V30 7209 H 679.557 2.51139 -2.02803 0
M  V30 7210 H 678.609 0.783592 -3.72242 0
M  V30 7211 H 679.921 1.24119 -4.83111 0
M  V30 7212 H 679.075 3.59625 -4.88625 0
M  V30 7213 H 677.814 3.19183 -3.68746 0
M  V30 7214 H 676.819 1.52721 -5.28163 0
M  V30 7215 H 678.044 1.95801 -6.5026 0
M  V30 7216 H 675.99 3.85671 -5.30654 0
M  V30 7217 H 675.907 3.1342 -6.87971 0
M  V30 7218 H 677.175 4.26844 -6.52246 0
M  V30 7219 N 681.404 1.57128 0.121893 0
M  V30 7220 C 682.334 2.03165 1.15092 0
M  V30 7221 C 683.315 0.915587 1.43356 0
M  V30 7222 O 684.5 1.1851 1.53847 0
M  V30 7223 C 681.63 2.43352 2.47784 0
M  V30 7224 C 680.584 3.58376 2.33989 0
M  V30 7225 C 679.91 3.84454 3.71617 0
M  V30 7226 C 681.21 4.90199 1.80283 0
M  V30 7227 H 682.904 2.89382 0.768023 0
M  V30 7228 H 680.45 1.39218 0.367998 0
M  V30 7229 H 682.403 2.74163 3.20019 0
M  V30 7230 H 681.127 1.54103 2.87958 0
M  V30 7231 H 679.786 3.2777 1.64202 0
M  V30 7232 H 679.434 2.92414 4.09271 0
M  V30 7233 H 679.134 4.61877 3.6324 0
M  V30 7234 H 680.658 4.17714 4.45362 0
M  V30 7235 H 682.072 5.19565 2.42333 0
M  V30 7236 H 680.469 5.71601 1.82735 0
M  V30 7237 H 681.539 4.78904 0.760184 0
M  V30 7238 N 682.882 -0.391992 1.52647 0
M  V30 7239 C 683.83 -1.4991 1.77848 0
M  V30 7240 C 684.824 -1.56587 0.646282 0
M  V30 7241 O 686.03 -1.59789 0.828698 0
M  V30 7242 H 682.405 -0.498883 0.56269 0
M  V30 7243 H 684.376 -1.25847 2.70564 0
M  V30 7244 C 683.125 -2.87081 1.96163 0
M  V30 7245 H 682.448 -2.82692 2.82711 0
M  V30 7246 H 683.888 -3.63792 2.17787 0
M  V30 7247 C 682.347 -3.28822 0.733348 0
M  V30 7248 O 682.877 -4.01598 -0.0906481 0
M  V30 7249 N 681.083 -2.85068 0.564317 0
M  V30 7250 H 680.63 -2.26012 1.23598 0
M  V30 7251 H 680.588 -3.13355 -0.256166 0
M  V30 7252 N 684.36 -1.4356 -0.65026 0
M  V30 7253 C 685.771 -1.40324 -1.2315 0
M  V30 7254 C 686.122 -0.108812 -1.95898 0
M  V30 7255 O 685.247 0.79163 -2.01401 0
M  V30 7256 C 685.842 -2.54195 -2.23987 0
M  V30 7257 C 684.401 -2.54215 -2.77582 0
M  V30 7258 C 683.548 -2.31752 -1.5227 0
M  V30 7259 H 686.499 -1.52418 -0.442095 0
M  V30 7260 H 686.52 -2.25854 -3.0622 0
M  V30 7261 H 686.032 -3.48392 -1.71011 0
M  V30 7262 H 684.133 -1.63907 -3.34612 0
M  V30 7263 H 684.246 -3.52081 -3.24925 0
M  V30 7264 H 682.61 -1.80476 -1.79723 0
M  V30 7265 H 683.393 -3.28037 -1.01225 0
M  V30 7266 N 685.838 0.888903 -1.30139 0
M  V30 7267 C 686.785 1.99422 -1.16188 0
M  V30 7268 C 687.755 1.66017 -0.0523869 0
M  V30 7269 O 688.94 1.89506 -0.221864 0
M  V30 7270 C 686.08 3.34325 -0.855612 0
M  V30 7271 C 685.193 3.80445 -2.0466 0
M  V30 7272 C 684.328 5.03975 -1.67876 0
M  V30 7273 C 683.367 5.42492 -2.83493 0
M  V30 7274 N 682.504 6.57206 -2.47032 0
M  V30 7275 H 687.344 2.10687 -2.10749 0
M  V30 7276 H 684.881 1.03165 -1.04859 0
M  V30 7277 H 686.839 4.11968 -0.658681 0
M  V30 7278 H 685.469 3.22756 0.0531155 0
M  V30 7279 H 684.521 2.98745 -2.3549 0
M  V30 7280 H 685.833 4.04933 -2.91257 0
M  V30 7281 H 684.987 5.89232 -1.44535 0
M  V30 7282 H 683.726 4.8135 -0.784431 0
M  V30 7283 H 682.731 4.55764 -3.07505 0
M  V30 7284 H 683.956 5.67093 -3.73607 0
M  V30 7285 H 681.902 6.36164 -1.601 0
M  V30 7286 H 681.819 6.81543 -3.27161 0
M  V30 7287 H 683.087 7.45704 -2.27038 0
M  V30 7288 N 687.317 1.12792 1.10072 0
M  V30 7289 C 688.264 0.79921 2.16521 0
M  V30 7290 C 689.234 -0.235726 1.64419 0
M  V30 7291 O 690.419 -0.109457 1.90486 0
M  V30 7292 C 687.559 0.264091 3.44088 0
M  V30 7293 C 686.672 1.35729 4.10124 0
M  V30 7294 C 685.807 0.781212 5.25424 0
M  V30 7295 C 684.846 1.85327 5.8337 0
M  V30 7296 N 683.983 1.29564 6.90042 0
M  V30 7297 H 688.823 1.71105 2.43981 0
M  V30 7298 H 686.36 0.854225 1.19756 0
M  V30 7299 H 688.318 -0.0642423 4.17151 0
M  V30 7300 H 686.948 -0.610901 3.16967 0
M  V30 7301 H 686 1.80234 3.34993 0
M  V30 7302 H 687.312 2.16782 4.4923 0
M  V30 7303 H 686.466 0.403769 6.05355 0
M  V30 7304 H 685.205 -0.0604686 4.87663 0
M  V30 7305 H 684.21 2.23986 5.02106 0
M  V30 7306 H 685.435 2.69824 6.23195 0
M  V30 7307 H 683.381 0.475844 6.54272 0
M  V30 7308 H 683.298 2.04271 7.2788 0
M  V30 7309 H 684.566 0.945545 7.73744 0
M  V30 7310 N 688.795 -1.27931 0.920396 0
M  V30 7311 C 690.025 -1.98516 0.572256 0
M  V30 7312 C 690.433 -1.68912 -0.852375 0
M  V30 7313 O 689.776 -0.94203 -1.57707 0
M  V30 7314 C 689.838 -3.5243 0.709485 0
M  V30 7315 C 689.502 -4.0564 2.10489 0
M  V30 7316 C 690.499 -4.1897 3.07831 0
M  V30 7317 C 688.184 -4.40168 2.41986 0
M  V30 7318 C 690.178 -4.66093 4.34783 0
M  V30 7319 C 687.865 -4.86983 3.69176 0
M  V30 7320 C 688.863 -4.99903 4.65388 0
M  V30 7321 O 688.551 -5.45694 5.90316 0
M  V30 7322 H 688.283 -0.64047 0.216274 0
M  V30 7323 H 690.837 -1.6393 1.23758 0
M  V30 7324 H 689.067 -3.86698 -0.0129263 0
M  V30 7325 H 690.756 -4.04233 0.367474 0
M  V30 7326 H 691.522 -3.92562 2.84816 0
M  V30 7327 H 687.401 -4.29358 1.67846 0
M  V30 7328 H 690.945 -4.76092 5.09884 0
M  V30 7329 H 686.842 -5.12832 3.92012 0
M  V30 7330 H 687.61 -5.63965 5.932 0
M  V30 7331 N 690.273 -0.685099 -1.4193 0
M  V30 7332 C 691.183 -0.013404 -2.34596 0
M  V30 7333 C 692.199 0.777589 -1.55658 0
M  V30 7334 O 693.375 0.717553 -1.88184 0
M  V30 7335 C 690.44 0.919031 -3.34297 0
M  V30 7336 C 689.501 0.121417 -4.29128 0
M  V30 7337 C 688.734 1.00944 -5.24067 0
M  V30 7338 O 688.957 2.24898 -5.24192 0
M  V30 7339 O 687.891 0.464724 -6.00103 0
M  V30 7340 H 691.717 -0.776978 -2.93593 0
M  V30 7341 H 689.302 -0.445379 -1.42607 0
M  V30 7342 H 691.184 1.45402 -3.9552 0
M  V30 7343 H 689.859 1.66228 -2.77759 0
M  V30 7344 H 688.766 -0.45792 -3.71287 0
M  V30 7345 H 690.099 -0.582937 -4.88736 0
M  V30 7346 N 691.751 1.51645 -0.429126 0
M  V30 7347 C 692.999 2.01616 0.139802 0
M  V30 7348 C 693.32 1.31568 1.43927 0
M  V30 7349 O 692.59 0.447688 1.90716 0
M  V30 7350 H 691.17 0.744998 0.054654 0
M  V30 7351 H 693.832 1.8638 -0.569952 0
M  V30 7352 H 692.928 3.10439 0.321609 0
M  V30 7353 N 693.229 0.160201 1.56784 0
M  V30 7354 C 694.477 -0.486625 1.96154 0
M  V30 7355 C 694.798 -1.64525 1.04673 0
M  V30 7356 O 694.068 -1.95586 0.110864 0
M  V30 7357 H 692.648 -0.182764 0.724297 0
M  V30 7358 H 695.31 0.238787 1.93432 0
M  V30 7359 H 694.406 -0.854025 3.00188 0
M  V30 7360 N 694.707 -1.5719 -0.113559 0
M  V30 7361 C 696.123 -1.52607 -0.467253 0
M  V30 7362 C 696.323 -0.874058 -1.81556 0
M  V30 7363 O 695.379 -0.458703 -2.48299 0
M  V30 7364 C 696.692 -2.97363 -0.446736 0
M  V30 7365 C 698.24 -3.08482 -0.529903 0
M  V30 7366 C 698.715 -4.54809 -0.539721 0
M  V30 7367 N 700.206 -4.59284 -0.601005 0
M  V30 7368 C 700.941 -5.69927 -0.630138 0
M  V30 7369 N 700.437 -6.90051 -0.616589 0
M  V30 7370 N 702.23 -5.5805 -0.673558 0
M  V30 7371 H 694.381 -1.97958 0.769819 0
M  V30 7372 H 696.644 -0.90428 0.284572 0
M  V30 7373 H 696.35 -3.48458 0.47643 0
M  V30 7374 H 696.224 -3.55086 -1.27254 0
M  V30 7375 H 698.611 -2.57386 -1.44349 0
M  V30 7376 H 698.692 -2.53744 0.323695 0
M  V30 7377 H 698.336 -5.06552 0.369843 0
M  V30 7378 H 698.266 -5.07364 -1.41028 0
M  V30 7379 H 700.757 -3.72822 -0.617419 0
M  V30 7380 H 701.07 -7.70132 -0.641592 0
M  V30 7381 H 699.415 -6.92543 -0.583927 0
M  V30 7382 H 702.606 -4.63112 -0.681544 0
M  V30 7383 H 702.779 -6.44286 -0.692794 0
M  V30 7384 N 696.185 0.383891 -1.52853 0
M  V30 7385 C 697.095 1.49343 -1.80925 0
M  V30 7386 C 698.111 1.59458 -0.696348 0
M  V30 7387 O 699.287 1.75698 -0.984481 0
M  V30 7388 C 696.352 2.84819 -1.97684 0
M  V30 7389 C 695.413 2.84382 -3.21598 0
M  V30 7390 C 694.646 4.13397 -3.37548 0
M  V30 7391 O 694.869 5.08619 -2.58192 0
M  V30 7392 O 693.803 4.20325 -4.30826 0
M  V30 7393 H 697.629 1.2855 -2.75152 0
M  V30 7394 H 695.214 0.572229 -1.38007 0
M  V30 7395 H 697.096 3.65125 -2.10385 0
M  V30 7396 H 695.771 3.05627 -1.06647 0
M  V30 7397 H 694.678 2.0284 -3.14336 0
M  V30 7398 H 696.011 2.68526 -4.12498 0
M  V30 7399 N 697.663 1.43903 0.642637 0
M  V30 7400 C 698.593 1.52697 1.76652 0
M  V30 7401 C 699.574 0.380816 1.65782 0
M  V30 7402 O 700.759 0.599432 1.84717 0
M  V30 7403 C 697.889 1.45975 3.15133 0
M  V30 7404 C 696.843 2.58949 3.40778 0
M  V30 7405 C 696.169 2.37279 4.79169 0
M  V30 7406 C 697.469 4.01153 3.34475 0
M  V30 7407 H 699.163 2.46766 1.69549 0
M  V30 7408 H 696.709 1.18767 0.814279 0
M  V30 7409 H 698.662 1.5073 3.93521 0
M  V30 7410 H 697.386 0.484162 3.22991 0
M  V30 7411 H 696.045 2.53564 2.64765 0
M  V30 7412 H 695.693 1.37939 4.83717 0
M  V30 7413 H 695.393 3.13016 4.97287 0
M  V30 7414 H 696.917 2.43834 5.59801 0
M  V30 7415 H 698.331 4.07968 4.02784 0
M  V30 7416 H 696.728 4.77001 3.64129 0
M  V30 7417 H 697.798 4.25539 2.32475 0
M  V30 7418 N 699.141 -0.881989 1.30609 0
M  V30 7419 C 700.366 -1.67236 1.22665 0
M  V30 7420 C 700.791 -1.8696 -0.206777 0
M  V30 7421 O 700.149 -1.4027 -1.14865 0
M  V30 7422 C 700.197 -3.02446 1.96363 0
M  V30 7423 O 699.301 -3.91614 1.29276 0
M  V30 7424 H 698.642 -0.510902 0.424117 0
M  V30 7425 H 701.172 -1.10055 1.72479 0
M  V30 7426 H 701.182 -3.52468 2.055 0
M  V30 7427 H 699.857 -2.8741 3.00613 0
M  V30 7428 H 698.434 -3.50055 1.28514 0
M  V30 7429 N 700.619 -1.13374 -1.09472 0
M  V30 7430 C 701.896 -0.806329 -1.78207 0
M  V30 7431 C 702.276 0.702191 -1.99079 0
M  V30 7432 O 701.624 1.63931 -1.59182 0
M  V30 7433 C 701.834 -1.59271 -3.10538 0
M  V30 7434 C 703.182 -1.78509 -3.85253 0
M  V30 7435 O 704.206 -1.55866 -3.20288 0
M  V30 7436 O 703.065 -2.16287 -5.01879 0
M  V30 7437 H 700.159 -0.29435 -0.772843 0
M  V30 7438 H 702.705 -1.23833 -1.16033 0
M  V30 7439 H 701.477 -2.61792 -2.90828 0
M  V30 7440 H 701.1 -1.15562 -3.80436 0
M  V30 7441 N 702.098 1.27442 -0.927168 0
M  V30 7442 C 703.345 1.94391 -0.567324 0
M  V30 7443 C 703.673 1.72875 0.891321 0
M  V30 7444 O 702.928 1.05071 1.65102 0
M  V30 7445 C 703.227 3.47413 -0.838994 0
M  V30 7446 C 702.893 3.89049 -2.2793 0
M  V30 7447 C 701.555 4.00127 -2.67305 0
M  V30 7448 C 703.907 4.10154 -3.21595 0
M  V30 7449 C 701.235 4.29697 -3.99471 0
M  V30 7450 C 703.587 4.41208 -4.53341 0
M  V30 7451 C 702.251 4.50499 -4.92551 0
M  V30 7452 H 701.521 0.711325 -0.207598 0
M  V30 7453 H 704.168 1.51523 -1.17103 0
M  V30 7454 H 702.473 3.91503 -0.152609 0
M  V30 7455 H 704.17 3.97354 -0.53955 0
M  V30 7456 H 700.76 3.80962 -1.96381 0
M  V30 7457 H 704.944 4.01036 -2.92377 0
M  V30 7458 H 700.2 4.35099 -4.29533 0
M  V30 7459 H 704.374 4.56486 -5.25922 0
M  V30 7460 H 702.001 4.73167 -5.94994 0
M  V30 7461 N 703.576 0.692616 1.41565 0
M  V30 7462 C 704.825 0.219452 2.00503 0
M  V30 7463 C 705.138 -1.18683 1.55479 0
M  V30 7464 O 706.344 -1.75731 2.06956 0
M  V30 7465 C 704.8 0.341451 3.58277 0
M  V30 7466 C 704.408 1.75291 4.12283 0
M  V30 7467 C 706.152 -0.0720899 4.24439 0
M  V30 7468 C 704.059 1.82673 5.62481 0
M  V30 7469 H 702.989 0.0782874 0.749925 0
M  V30 7470 H 705.64 0.860386 1.62079 0
M  V30 7471 H 704.022 -0.367683 3.94289 0
M  V30 7472 H 705.196 2.49057 3.87695 0
M  V30 7473 H 703.511 2.11587 3.58636 0
M  V30 7474 H 706.108 -0.0373385 5.34687 0
M  V30 7475 H 706.451 -1.11034 4.0122 0
M  V30 7476 H 706.984 0.586663 3.9345 0
M  V30 7477 H 703.723 2.84539 5.90523 0
M  V30 7478 H 703.243 1.13288 5.89004 0
M  V30 7479 H 704.922 1.58827 6.27203 0
M  V30 7480 N 705.054 -1.51416 0.437162 0
M  V30 7481 C 706.279 -2.0699 -0.130424 0
M  V30 7482 C 706.704 -1.30249 -1.35709 0
M  V30 7483 O 706.062 -0.340388 -1.78076 0
M  V30 7484 C 706.11 -3.5801 -0.43142 0
M  V30 7485 O 705.214 -3.8345 -1.5179 0
M  V30 7486 H 704.555 -0.663997 -0.00194339 0
M  V30 7487 H 707.085 -1.95029 0.618445 0
M  V30 7488 H 707.095 -4.02261 -0.681926 0
M  V30 7489 H 705.77 -4.13291 0.465137 0
M  V30 7490 H 704.347 -3.51062 -1.25737 0
M  V30 7491 N 706.532 -0.168513 -1.56696 0
M  V30 7492 C 707.762 0.482802 -2.0088 0
M  V30 7493 C 708.17 1.57537 -1.0478 0
M  V30 7494 O 707.513 1.83656 -0.0402746 0
M  V30 7495 C 707.575 1.1236 -3.4149 0
M  V30 7496 C 707.239 0.173027 -4.56672 0
M  V30 7497 C 708.236 -0.607565 -5.16338 0
M  V30 7498 C 705.921 0.0696691 -5.02252 0
M  V30 7499 C 707.915 -1.47874 -6.2001 0
M  V30 7500 C 705.602 -0.805096 -6.05773 0
M  V30 7501 C 706.6 -1.57789 -6.64524 0
M  V30 7502 O 706.288 -2.43804 -7.66038 0
M  V30 7503 H 706.02 0.128246 -0.663723 0
M  V30 7504 H 708.574 -0.266532 -2.03663 0
M  V30 7505 H 706.804 1.921 -3.35611 0
M  V30 7506 H 708.493 1.67683 -3.69645 0
M  V30 7507 H 709.259 -0.53787 -4.82008 0
M  V30 7508 H 705.138 0.660957 -4.56237 0
M  V30 7509 H 708.682 -2.0824 -6.65794 0
M  V30 7510 H 704.579 -0.876005 -6.39528 0
M  V30 7511 H 705.347 -2.37289 -7.83349 0
M  V30 7512 N 708.01 1.57248 0.105221 0
M  V30 7513 C 708.94 2.04374 1.12931 0
M  V30 7514 C 709.921 0.93074 1.42377 0
M  V30 7515 O 711.106 1.20136 1.52581 0
M  V30 7516 C 708.236 2.45967 2.45189 0
M  V30 7517 C 707.19 3.60838 2.30174 0
M  V30 7518 C 706.516 3.88374 3.67518 0
M  V30 7519 C 707.816 4.92084 1.75073 0
M  V30 7520 H 709.51 2.9018 0.737287 0
M  V30 7521 H 707.056 1.39601 0.353211 0
M  V30 7522 H 709.009 2.77542 3.17094 0
M  V30 7523 H 707.733 1.57148 2.86308 0
M  V30 7524 H 706.392 3.29493 1.60716 0
M  V30 7525 H 706.04 2.96739 4.06147 0
M  V30 7526 H 705.74 4.65703 3.58321 0
M  V30 7527 H 707.264 4.22415 4.40906 0
M  V30 7528 H 708.678 5.22106 2.36809 0
M  V30 7529 H 707.075 5.73507 1.76662 0
M  V30 7530 H 708.145 4.79684 0.709347 0
M  V30 7531 N 709.488 -0.375779 1.53054 0
M  V30 7532 C 710.42 -1.47963 1.75042 0
M  V30 7533 C 711.433 -1.50073 0.631031 0
M  V30 7534 O 712.622 -1.53736 0.907052 0
M  V30 7535 C 709.722 -2.86767 1.80604 0
M  V30 7536 C 708.895 -3.08471 3.10104 0
M  V30 7537 C 707.954 -4.27332 3.07041 0
M  V30 7538 O 706.98 -4.22998 3.80869 0
M  V30 7539 N 708.182 -5.34214 2.27147 0
M  V30 7540 H 710.947 -1.29484 2.70285 0
M  V30 7541 H 708.508 -0.565416 1.51706 0
M  V30 7542 H 710.5 -3.64404 1.76045 0
M  V30 7543 H 709.07 -2.98542 0.926897 0
M  V30 7544 H 708.29 -2.18583 3.28048 0
M  V30 7545 H 709.578 -3.19834 3.95706 0
M  V30 7546 H 708.976 -5.40594 1.66656 0
M  V30 7547 H 707.533 -6.10467 2.28415 0
M  V30 7548 N 710.966 -1.44241 -0.634997 0
M  V30 7549 C 712.382 -1.28043 -0.952742 0
M  V30 7550 C 712.582 -0.21338 -2.00367 0
M  V30 7551 O 711.638 0.402042 -2.49279 0
M  V30 7552 C 712.951 -2.65076 -1.41968 0
M  V30 7553 C 714.499 -2.72755 -1.53537 0
M  V30 7554 C 714.974 -4.10249 -2.03616 0
M  V30 7555 N 716.465 -4.12406 -2.10892 0
M  V30 7556 C 717.2 -5.15641 -2.50803 0
M  V30 7557 N 716.696 -6.29239 -2.89879 0
M  V30 7558 N 718.489 -5.02995 -2.50903 0
M  V30 7559 H 710.64 -2.12315 0.060098 0
M  V30 7560 H 712.903 -0.947326 -0.0357325 0
M  V30 7561 H 712.609 -3.44213 -0.721804 0
M  V30 7562 H 712.483 -2.91704 -2.39141 0
M  V30 7563 H 714.87 -1.93939 -2.22422 0
M  V30 7564 H 714.951 -2.49872 -0.547496 0
M  V30 7565 H 714.595 -4.8954 -1.35327 0
M  V30 7566 H 714.525 -4.30507 -3.03268 0
M  V30 7567 H 717.016 -3.30417 -1.83393 0
M  V30 7568 H 717.329 -7.03827 -3.19135 0
M  V30 7569 H 715.674 -6.32683 -2.8764 0
M  V30 7570 H 718.865 -4.13306 -2.19763 0
M  V30 7571 H 719.038 -5.83574 -2.81683 0
M  V30 7572 N 712.444 0.87505 -1.31075 0
M  V30 7573 C 713.354 2.01441 -1.20244 0
M  V30 7574 C 714.37 1.73584 -0.120227 0
M  V30 7575 O 715.546 1.98559 -0.337063 0
M  V30 7576 C 712.611 3.34675 -0.905199 0
M  V30 7577 C 711.672 3.75889 -2.0738 0
M  V30 7578 C 710.905 5.02764 -1.79064 0
M  V30 7579 O 711.128 5.65795 -0.723318 0
M  V30 7580 O 710.062 5.40623 -2.64594 0
M  V30 7581 H 713.888 2.13509 -2.1598 0
M  V30 7582 H 711.473 1.00257 -1.10765 0
M  V30 7583 H 713.355 4.1458 -0.755057 0
M  V30 7584 H 712.03 3.23692 0.0221695 0
M  V30 7585 H 710.937 2.96645 -2.27931 0
M  V30 7586 H 712.27 3.91489 -2.98324 0
M  V30 7587 N 713.922 1.13953 1.08869 0
M  V30 7588 C 714.885 0.824991 2.13838 0
M  V30 7589 C 715.885 -0.168198 1.59918 0
M  V30 7590 O 717.075 0.0595778 1.74098 0
M  V30 7591 C 714.207 0.228938 3.4013 0
M  V30 7592 H 715.4 1.75521 2.43171 0
M  V30 7593 H 712.953 0.94492 1.24503 0
M  V30 7594 H 713.688 -0.710227 3.16427 0
M  V30 7595 H 713.473 0.944243 3.80561 0
M  V30 7596 H 714.963 0.0259223 4.17592 0
M  V30 7597 N 715.4 -1.26948 0.933913 0
M  V30 7598 C 716.628 -1.98186 0.59414 0
M  V30 7599 C 717.043 -1.69614 -0.829257 0
M  V30 7600 O 716.4 -0.960213 -1.55197 0
M  V30 7601 C 716.451 -3.52123 0.818026 0
M  V30 7602 O 716.172 -3.79698 2.18543 0
M  V30 7603 C 717.673 -4.40608 0.48781 0
M  V30 7604 H 714.893 -0.632305 0.224569 0
M  V30 7605 H 717.437 -1.61646 1.25263 0
M  V30 7606 H 715.592 -3.86851 0.206246 0
M  V30 7607 H 716.006 -4.7426 2.24005 0
M  V30 7608 H 717.48 -5.47606 0.695126 0
M  V30 7609 H 717.957 -4.35394 -0.576913 0
M  V30 7610 H 718.563 -4.11411 1.078 0
M  V30 7611 N 716.879 -0.700114 -1.41195 0
M  V30 7612 C 717.827 -0.0263301 -2.32585 0
M  V30 7613 C 718.821 0.763683 -1.51209 0
M  V30 7614 O 720.027 0.668793 -1.67114 0
M  V30 7615 H 716.402 0.0102869 -0.75193 0
M  V30 7616 H 718.373 -0.814087 -2.8708 0
M  V30 7617 C 717.122 0.892793 -3.36042 0
M  V30 7618 H 716.445 0.294306 -3.98715 0
M  V30 7619 H 717.885 1.33247 -4.02518 0
M  V30 7620 C 716.344 2.01109 -2.7029 0
M  V30 7621 O 716.874 3.10035 -2.55423 0
M  V30 7622 N 715.08 1.79015 -2.28915 0
M  V30 7623 H 714.627 0.904275 -2.41207 0
M  V30 7624 H 714.585 2.54022 -1.85257 0
M  V30 7625 N 718.357 1.51182 -0.445186 0
M  V30 7626 C 719.768 1.86693 0.0160999 0
M  V30 7627 C 720.119 1.36183 1.4124 0
M  V30 7628 O 719.244 0.715895 2.04215 0
M  V30 7629 C 719.839 3.38781 0.0359918 0
M  V30 7630 C 718.398 3.73799 0.441715 0
M  V30 7631 C 717.545 2.74947 -0.360511 0
M  V30 7632 H 720.496 1.44294 -0.660674 0
M  V30 7633 H 720.517 3.71026 0.843813 0
M  V30 7634 H 720.029 3.75513 -0.980378 0
M  V30 7635 H 718.13 3.42659 1.4634 0
M  V30 7636 H 718.243 4.78829 0.16106 0
M  V30 7637 H 716.607 2.54047 0.182269 0
M  V30 7638 H 717.39 3.14521 -1.3759 0
M  V30 7639 N 719.835 0.176821 1.56605 0
M  V30 7640 C 721.246 -0.338963 1.83597 0
M  V30 7641 C 721.597 -1.62677 1.09684 0
M  V30 7642 O 720.722 -2.13524 0.351661 0
M  V30 7643 C 721.317 -0.62177 3.33046 0
M  V30 7644 C 719.876 -1.08198 3.60514 0
M  V30 7645 C 719.023 -0.120774 2.77037 0
M  V30 7646 H 721.974 0.400978 1.53551 0
M  V30 7647 H 721.995 -1.47321 3.50823 0
M  V30 7648 H 721.507 0.315692 3.86814 0
M  V30 7649 H 719.608 -2.03435 3.12162 0
M  V30 7650 H 719.721 -0.987329 4.68816 0
M  V30 7651 H 718.085 -0.619192 2.47059 0
M  V30 7652 H 718.868 0.810806 3.33588 0
M  V30 7653 N 721.313 -1.57302 -0.09688 0
M  V30 7654 C 722.559 -1.86273 -0.801885 0
M  V30 7655 C 722.892 -0.765694 -1.78468 0
M  V30 7656 O 722.167 0.226495 -1.93177 0
M  V30 7657 C 722.45 -3.25876 -1.53221 0
M  V30 7658 C 722.303 -4.46205 -0.567529 0
M  V30 7659 C 723.622 -3.63352 -2.48321 0
M  V30 7660 H 720.741 -0.67752 -0.29006 0
M  V30 7661 H 723.383 -1.89887 -0.0655577 0
M  V30 7662 H 721.533 -3.22926 -2.15988 0
M  V30 7663 H 723.205 -4.6127 0.0529982 0
M  V30 7664 H 721.448 -4.33636 0.119233 0
M  V30 7665 H 722.119 -5.40608 -1.11564 0
M  V30 7666 H 724.595 -3.67234 -1.95648 0
M  V30 7667 H 723.471 -4.61968 -2.9644 0
M  V30 7668 H 723.732 -2.91941 -3.31998 0
M  V30 7669 N 722.791 0.367657 -1.53252 0
M  V30 7670 C 724.04 1.10782 -1.68554 0
M  V30 7671 C 724.353 1.90523 -0.442765 0
M  V30 7672 O 725.559 2.6729 -0.47629 0
M  V30 7673 C 724.015 2.01863 -2.97959 0
M  V30 7674 C 723.623 1.27443 -4.29491 0
M  V30 7675 C 725.367 2.75883 -3.22628 0
M  V30 7676 C 723.274 2.17414 -5.49987 0
M  V30 7677 H 722.204 0.417272 -0.628013 0
M  V30 7678 H 724.855 0.368971 -1.79752 0
M  V30 7679 H 723.237 2.7947 -2.80558 0
M  V30 7680 H 724.411 0.549138 -4.57516 0
M  V30 7681 H 722.726 0.652935 -4.11249 0
M  V30 7682 H 725.323 3.43421 -4.09837 0
M  V30 7683 H 725.666 3.41138 -2.38601 0
M  V30 7684 H 726.199 2.0536 -3.40693 0
M  V30 7685 H 722.938 1.5674 -6.36485 0
M  V30 7686 H 722.458 2.87799 -5.26243 0
M  V30 7687 H 724.137 2.77019 -5.84696 0
M  V30 7688 N 724.269 1.44576 0.627338 0
M  V30 7689 C 725.201 1.47724 1.75243 0
M  V30 7690 C 726.214 0.370193 1.58535 0
M  V30 7691 O 727.403 0.636151 1.66779 0
M  V30 7692 C 724.503 1.2991 3.13012 0
M  V30 7693 C 723.676 2.5393 3.56143 0
M  V30 7694 C 722.735 2.30961 4.72804 0
M  V30 7695 O 721.761 3.04469 4.80923 0
M  V30 7696 N 722.963 1.34261 5.6476 0
M  V30 7697 H 725.728 2.44718 1.73012 0
M  V30 7698 H 723.289 1.40064 0.812022 0
M  V30 7699 H 725.281 1.12385 3.88782 0
M  V30 7700 H 723.851 0.412668 3.09864 0
M  V30 7701 H 723.071 2.86707 2.70542 0
M  V30 7702 H 724.359 3.36411 3.81713 0
M  V30 7703 H 723.757 0.735573 5.60897 0
M  V30 7704 H 722.314 1.22713 6.40144 0
M  V30 7705 N 725.747 -0.868086 1.31537 0
M  V30 7706 C 726.657 -2.00801 1.21311 0
M  V30 7707 C 727.673 -1.73518 0.129431 0
M  V30 7708 O 728.849 -1.98378 0.347588 0
M  V30 7709 C 725.914 -3.3419 0.922935 0
M  V30 7710 C 724.975 -3.74783 2.0937 0
M  V30 7711 C 724.208 -5.01807 1.81728 0
M  V30 7712 O 724.431 -5.65404 0.753313 0
M  V30 7713 O 723.365 -5.39213 2.67457 0
M  V30 7714 H 727.191 -2.12361 2.17109 0
M  V30 7715 H 724.776 -0.996684 1.11295 0
M  V30 7716 H 726.658 -4.14174 0.777033 0
M  V30 7717 H 725.333 -3.237 -0.00500301 0
M  V30 7718 H 724.24 -2.95432 2.29501 0
M  V30 7719 H 725.573 -3.89902 3.00396 0
M  V30 7720 N 727.225 -1.14528 -1.08264 0
M  V30 7721 C 728.135 -0.84728 -2.18765 0
M  V30 7722 C 729.151 0.172826 -1.7314 0
M  V30 7723 O 730.327 0.000985336 -2.014 0
M  V30 7724 C 727.392 -0.330633 -3.4512 0
M  V30 7725 C 726.453 -1.41348 -4.05363 0
M  V30 7726 C 725.686 -0.921387 -5.25686 0
M  V30 7727 O 725.909 0.236587 -5.69909 0
M  V30 7728 O 724.843 -1.70101 -5.77364 0
M  V30 7729 H 728.669 -1.7708 -2.46731 0
M  V30 7730 H 726.254 -0.923661 -1.17426 0
M  V30 7731 H 728.136 -0.0485053 -4.21372 0
M  V30 7732 H 726.811 0.565147 -3.18728 0
M  V30 7733 H 725.718 -1.74908 -3.30693 0
M  V30 7734 H 727.051 -2.28383 -4.36007 0
M  V30 7735 N 728.703 1.26451 -0.940633 0
M  V30 7736 C 729.65 2.264 -0.448497 0
M  V30 7737 C 730.62 1.5866 0.491546 0
M  V30 7738 O 731.805 1.86389 0.407874 0
M  V30 7739 C 728.945 3.43956 0.280715 0
M  V30 7740 C 728.058 4.26374 -0.694937 0
M  V30 7741 C 727.193 5.31171 0.0554186 0
M  V30 7742 C 726.232 6.05266 -0.912091 0
M  V30 7743 N 725.369 7.01833 -0.193524 0
M  V30 7744 H 730.209 2.67869 -1.30576 0
M  V30 7745 H 727.746 1.31707 -0.655112 0
M  V30 7746 H 729.704 4.10941 0.71994 0
M  V30 7747 H 728.334 3.03403 1.10212 0
M  V30 7748 H 727.386 3.59183 -1.25267 0
M  V30 7749 H 728.698 4.77748 -1.43382 0
M  V30 7750 H 727.852 6.04166 0.553951 0
M  V30 7751 H 726.591 4.80634 0.827183 0
M  V30 7752 H 725.596 5.31099 -1.42175 0
M  V30 7753 H 726.821 6.57893 -1.68385 0
M  V30 7754 H 724.767 6.53607 0.559758 0
M  V30 7755 H 724.684 7.50957 -0.871744 0
M  V30 7756 H 725.952 7.78983 0.283932 0
M  V30 7757 N 730.181 0.707592 1.40822 0
M  V30 7758 C 731.592 0.317011 1.83989 0
M  V30 7759 C 731.943 -1.14697 1.59182 0
M  V30 7760 O 731.068 -1.8818 1.06852 0
M  V30 7761 C 731.663 0.568593 3.33995 0
M  V30 7762 C 730.222 0.231804 3.75686 0
M  V30 7763 C 729.369 0.844933 2.64114 0
M  V30 7764 H 732.32 0.907349 1.30203 0
M  V30 7765 H 732.341 -0.168798 3.80125 0
M  V30 7766 H 731.853 1.63417 3.52018 0
M  V30 7767 H 729.954 -0.82903 3.6326 0
M  V30 7768 H 730.067 0.695219 4.74029 0
M  V30 7769 H 728.431 0.273588 2.53226 0
M  V30 7770 H 729.214 1.91462 2.84951 0
M  V30 7771 N 731.66 -1.50943 0.453197 0
M  V30 7772 C 732.607 -2.28128 -0.350197 0
M  V30 7773 C 733.577 -1.32398 -1.00299 0
M  V30 7774 O 734.762 -1.61319 -1.01887 0
M  V30 7775 C 731.902 -3.13782 -1.43649 0
M  V30 7776 C 731.015 -4.24523 -0.800255 0
M  V30 7777 C 730.15 -4.97462 -1.86293 0
M  V30 7778 C 729.189 -6.00102 -1.20598 0
M  V30 7779 N 728.326 -6.66387 -2.21071 0
M  V30 7780 H 733.166 -2.96337 0.31434 0
M  V30 7781 H 730.703 -1.46151 0.166863 0
M  V30 7782 H 732.661 -3.6178 -2.07776 0
M  V30 7783 H 731.291 -2.47655 -2.07044 0
M  V30 7784 H 730.343 -3.80371 -0.0468651 0
M  V30 7785 H 731.655 -4.98009 -0.280777 0
M  V30 7786 H 730.809 -5.49088 -2.58044 0
M  V30 7787 H 729.548 -4.23642 -2.41617 0
M  V30 7788 H 728.553 -5.47753 -0.474 0
M  V30 7789 H 729.778 -6.75887 -0.659859 0
M  V30 7790 H 727.724 -5.9537 -2.75446 0
M  V30 7791 H 727.641 -7.3569 -1.74058 0
M  V30 7792 H 728.909 -7.22638 -2.92257 0
M  V30 7793 N 733.138 -0.185124 -1.56509 0
M  V30 7794 C 734.085 0.739729 -2.18624 0
M  V30 7795 C 735.055 1.217 -1.13042 0
M  V30 7796 O 736.24 1.28268 -1.41251 0
M  V30 7797 C 733.38 1.95787 -2.84186 0
M  V30 7798 C 732.493 1.52289 -4.04267 0
M  V30 7799 C 731.628 2.69576 -4.57714 0
M  V30 7800 C 730.667 2.22636 -5.70175 0
M  V30 7801 N 729.804 3.33065 -6.18071 0
M  V30 7802 H 734.644 0.203269 -2.97306 0
M  V30 7803 H 732.181 0.0885946 -1.46833 0
M  V30 7804 H 734.139 2.67253 -3.20361 0
M  V30 7805 H 732.769 2.4678 -2.08085 0
M  V30 7806 H 731.821 0.704458 -3.7382 0
M  V30 7807 H 733.133 1.13843 -4.85635 0
M  V30 7808 H 732.287 3.4918 -4.96143 0
M  V30 7809 H 731.026 3.1129 -3.75433 0
M  V30 7810 H 730.031 1.41483 -5.31284 0
M  V30 7811 H 731.256 1.81964 -6.54267 0
M  V30 7812 H 729.202 3.74328 -5.38715 0
M  V30 7813 H 729.119 2.98756 -6.94464 0
M  V30 7814 H 730.387 4.12912 -6.61153 0
M  V30 7815 N 734.616 1.57351 0.0885366 0
M  V30 7816 C 735.563 2.02523 1.10693 0
M  V30 7817 C 736.533 0.902736 1.39427 0
M  V30 7818 O 737.718 1.16921 1.50779 0
M  V30 7819 C 734.858 2.46013 2.42016 0
M  V30 7820 C 733.971 3.7181 2.19957 0
M  V30 7821 C 733.106 4.04152 3.44724 0
M  V30 7822 C 732.145 5.2304 3.17956 0
M  V30 7823 N 731.282 5.51102 4.35007 0
M  V30 7824 H 736.122 2.89302 0.714742 0
M  V30 7825 H 733.659 1.43084 0.341378 0
M  V30 7826 H 735.617 2.69274 3.18665 0
M  V30 7827 H 734.247 1.62235 2.79069 0
M  V30 7828 H 733.299 3.55987 1.34079 0
M  V30 7829 H 734.611 4.58604 1.96173 0
M  V30 7830 H 733.765 4.28225 4.29777 0
M  V30 7831 H 732.504 3.15893 3.71568 0
M  V30 7832 H 731.509 4.98781 2.31296 0
M  V30 7833 H 732.734 6.12902 2.92451 0
M  V30 7834 H 730.68 4.65802 4.61914 0
M  V30 7835 H 730.597 6.3228 4.14437 0
M  V30 7836 H 731.865 5.79714 5.21106 0
M  V30 7837 N 736.094 -0.359525 1.53444 0
M  V30 7838 C 737.041 -1.44073 1.8031 0
M  V30 7839 C 738.011 -1.52946 0.647811 0
M  V30 7840 O 739.196 -1.68739 0.890614 0
M  V30 7841 C 736.336 -2.80941 2.00416 0
M  V30 7842 C 735.449 -2.80986 3.28132 0
M  V30 7843 C 734.584 -4.09468 3.38393 0
M  V30 7844 C 733.623 -4.03679 4.60119 0
M  V30 7845 N 732.76 -5.23821 4.675 0
M  V30 7846 H 737.6 -1.20464 2.72566 0
M  V30 7847 H 735.137 -0.583859 1.35017 0
M  V30 7848 H 737.095 -3.60459 2.1006 0
M  V30 7849 H 735.725 -3.02936 1.11489 0
M  V30 7850 H 734.777 -1.93666 3.27411 0
M  V30 7851 H 736.089 -2.72583 4.17732 0
M  V30 7852 H 735.243 -4.97404 3.47382 0
M  V30 7853 H 733.982 -4.20632 2.4682 0
M  V30 7854 H 732.987 -3.14129 4.51224 0
M  V30 7855 H 734.212 -3.94112 5.5304 0
M  V30 7856 H 732.158 -5.35559 3.7883 0
M  V30 7857 H 732.075 -5.17611 5.51013 0
M  V30 7858 H 733.343 -6.13572 4.8078 0
M  V30 7859 N 737.572 -1.44907 -0.619662 0
M  V30 7860 C 738.519 -1.52654 -1.73105 0
M  V30 7861 C 739.489 -0.373334 -1.6185 0
M  V30 7862 O 740.674 -0.585143 -1.81606 0
M  V30 7863 C 737.814 -1.48769 -3.11387 0
M  V30 7864 C 736.927 -2.74551 -3.33535 0
M  V30 7865 C 736.062 -2.62421 -4.61854 0
M  V30 7866 C 735.101 -3.83312 -4.77219 0
M  V30 7867 N 734.238 -3.69789 -5.96826 0
M  V30 7868 H 739.078 -2.47605 -1.65819 0
M  V30 7869 H 736.615 -1.22875 -0.808719 0
M  V30 7870 H 738.573 -1.44507 -3.91374 0
M  V30 7871 H 737.203 -0.573783 -3.1766 0
M  V30 7872 H 736.255 -2.88953 -2.47408 0
M  V30 7873 H 737.567 -3.64253 -3.40765 0
M  V30 7874 H 736.721 -2.56056 -5.50019 0
M  V30 7875 H 735.46 -1.70298 -4.57001 0
M  V30 7876 H 734.465 -3.90049 -3.87481 0
M  V30 7877 H 735.69 -4.76486 -4.83878 0
M  V30 7878 H 733.636 -2.80426 -5.93041 0
M  V30 7879 H 733.553 -4.53116 -6.05163 0
M  V30 7880 H 734.821 -3.67335 -6.87521 0
M  V30 7881 N 739.05 0.861098 -1.31996 0
M  V30 7882 C 740.013 1.95068 -1.20338 0
M  V30 7883 C 741.013 1.60289 -0.128114 0
M  V30 7884 O 742.203 1.70048 -0.378044 0
M  V30 7885 C 739.335 3.30153 -0.849205 0
M  V30 7886 H 740.528 2.06833 -2.17164 0
M  V30 7887 H 738.081 1.05049 -1.15734 0
M  V30 7888 H 738.816 3.24087 0.117508 0
M  V30 7889 H 738.601 3.56771 -1.62655 0
M  V30 7890 H 740.091 4.10025 -0.791782 0
M  V30 7891 N 740.528 1.15101 1.07655 0
M  V30 7892 C 741.46 0.802722 2.14684 0
M  V30 7893 C 742.473 -0.183874 1.61758 0
M  V30 7894 O 743.662 0.0389349 1.78458 0
M  V30 7895 C 740.762 0.172135 3.38463 0
M  V30 7896 C 739.935 1.19538 4.20749 0
M  V30 7897 C 738.994 0.58714 5.22914 0
M  V30 7898 O 738.02 1.25224 5.55255 0
M  V30 7899 N 739.222 -0.632566 5.77043 0
M  V30 7900 H 741.987 1.72379 2.45164 0
M  V30 7901 H 739.548 1.04647 1.23534 0
M  V30 7902 H 741.54 -0.247465 4.03943 0
M  V30 7903 H 740.11 -0.652214 3.0572 0
M  V30 7904 H 739.33 1.79165 3.51132 0
M  V30 7905 H 740.618 1.88636 4.7254 0
M  V30 7906 H 740.016 -1.19135 5.53013 0
M  V30 7907 H 738.573 -0.994566 6.44167 0
M  V30 7908 N 742.006 -1.2595 0.947325 0
M  V30 7909 C 742.916 -2.29883 0.468079 0
M  V30 7910 C 743.932 -1.67783 -0.460975 0
M  V30 7911 O 745.108 -1.98526 -0.339006 0
M  V30 7912 C 742.173 -3.45773 -0.253315 0
M  V30 7913 C 741.234 -4.23337 0.713054 0
M  V30 7914 C 740.467 -5.33694 0.025993 0
M  V30 7915 O 740.69 -5.57853 -1.18978 0
M  V30 7916 O 739.624 -5.97724 0.70782 0
M  V30 7917 H 743.45 -2.72952 1.33156 0
M  V30 7918 H 741.035 -1.31263 0.713468 0
M  V30 7919 H 742.917 -4.16209 -0.659423 0
M  V30 7920 H 741.592 -3.04721 -1.09209 0
M  V30 7921 H 740.499 -3.55359 1.16923 0
M  V30 7922 H 741.832 -4.68154 1.51963 0
M  V30 7923 N 743.484 -0.715051 -1.40445 0
M  V30 7924 C 744.761 -0.181503 -1.94756 0
M  V30 7925 C 745.141 1.31268 -1.65324 0
M  V30 7926 O 744.489 2.0686 -0.970631 0
M  V30 7927 C 744.699 -0.493663 -3.45491 0
M  V30 7928 C 746.047 -0.432032 -4.22396 0
M  V30 7929 O 747.071 -0.429692 -3.53599 0
M  V30 7930 O 745.93 -0.409091 -5.44967 0
M  V30 7931 H 743.024 -0.0263989 -0.826579 0
M  V30 7932 H 745.57 -0.792546 -1.50056 0
M  V30 7933 H 744.342 -1.52713 -3.6027 0
M  V30 7934 H 743.965 0.14737 -3.97327 0
M  V30 7935 N 744.962 1.50701 -0.461195 0
M  V30 7936 C 745.892 2.31182 0.328184 0
M  V30 7937 C 746.873 1.37644 0.999408 0
M  V30 7938 O 748.058 1.66565 0.99848 0
M  V30 7939 C 745.188 3.17113 1.41621 0
M  V30 7940 C 744.142 4.19124 0.867148 0
M  V30 7941 C 743.468 4.93728 2.05272 0
M  V30 7942 C 744.768 5.22174 -0.114808 0
M  V30 7943 H 746.462 2.97423 -0.343501 0
M  V30 7944 H 744.008 1.43033 -0.166641 0
M  V30 7945 H 745.961 3.72208 1.97584 0
M  V30 7946 H 744.685 2.48739 2.11652 0
M  V30 7947 H 743.344 3.65116 0.329557 0
M  V30 7948 H 742.992 4.21835 2.73978 0
M  V30 7949 H 742.692 5.62724 1.69161 0
M  V30 7950 H 744.216 5.51654 2.61744 0
M  V30 7951 H 745.63 5.72198 0.355316 0
M  V30 7952 H 744.027 5.98833 -0.389689 0
M  V30 7953 H 745.097 4.7353 -1.04391 0
M  V30 7954 O 746.479 0.334734 1.57993 0
M  V30 7955 H 747.17 -0.222689 1.92416 0
M  V30 END ATOM
M  V30 BEGIN BOND
M  V30 END BOND
M  V30 END CTAB
M  END
$$$$
