drugbank_target|P30197 Epidermin decarboxylase (DB03247)
 OpenBabel12092120273D

  0  0  0     0  0            999 V3000
M  V30 BEGIN CTAB
M  V30 COUNTS 2941 2970 0 0 0
M  V30 BEGIN ATOM
M  V30 1 H -0.908 1.98254 -0.117106 0
M  V30 2 N 0 1.576 0 0
M  V30 3 C 0.933 2.03868 1.02534 0
M  V30 4 C 1.911 0.928543 1.3348 0
M  V30 5 O 3.095 1.19667 1.45644 0
M  V30 6 C 0.222 2.43627 2.35294 0
M  V30 7 C -0.732 3.65373 2.2001 0
M  V30 8 S 0.101 5.13292 1.52614 0
M  V30 9 C 1.257 5.56322 2.86805 0
M  V30 10 H 1.49 2.90518 0.631377 0
M  V30 11 H -0.977 1.52953 0.210867 0
M  V30 12 H 0.981 2.67203 3.11629 0
M  V30 13 H -0.358 1.57376 2.7183 0
M  V30 14 H -1.165 3.90944 3.18086 0
M  V30 15 H -1.563 3.418 1.51819 0
M  V30 16 H 0.729 5.58782 3.83104 0
M  V30 17 H 1.672 6.56266 2.65933 0
M  V30 18 H 2.08 4.83886 2.90714 0
M  V30 19 N 1.4781 -0.272755 1.55222 0
M  V30 20 C 2.7081 -1.02107 1.79604 0
M  V30 21 C 3.1161 -1.80419 0.569693 0
M  V30 22 O 2.4591 -1.77566 -0.470743 0
M  V30 23 C 2.5211 -2.02675 2.96922 0
M  V30 24 C 2.1851 -1.43299 4.33952 0
M  V30 25 C 3.1821 -0.84853 5.12929 0
M  V30 26 C 0.8671 -1.46012 4.8061 0
M  V30 27 C 2.8611 -0.299109 6.36698 0
M  V30 28 C 0.5481 -0.906833 6.04334 0
M  V30 29 C 1.5461 -0.32733 6.82215 0
M  V30 30 O 1.2341 0.217479 8.03606 0
M  V30 31 H 0.9661 -0.307322 0.602104 0
M  V30 32 H 3.5201 -0.308862 2.03065 0
M  V30 33 H 1.7501 -2.77656 2.69155 0
M  V30 34 H 3.4391 -2.63637 3.08626 0
M  V30 35 H 4.2051 -0.820265 4.78013 0
M  V30 36 H 0.0841 -1.90056 4.2 0
M  V30 37 H 3.6281 0.153852 6.9743 0
M  V30 38 H -0.4749 -0.932339 6.38731 0
M  V30 39 H 0.2931 0.106863 8.1843 0
M  V30 40 N 2.9562 -1.48159 -0.537278 0
M  V30 41 C 4.2042 -1.55497 -1.29094 0
M  V30 42 C 4.5252 -0.227454 -1.93669 0
M  V30 43 O 3.7952 0.750386 -1.80959 0
M  V30 44 H 2.3752 -0.572832 -0.47945 0
M  V30 45 H 5.0372 -1.84579 -0.625818 0
M  V30 46 H 4.1332 -2.33216 -2.07405 0
M  V30 47 N 4.4343 0.785586 -1.36625 0
M  V30 48 C 5.3813 1.89838 -1.31264 0
M  V30 49 C 6.3513 1.65115 -0.180633 0
M  V30 50 O 7.5363 1.87222 -0.36777 0
M  V30 51 C 4.6763 3.26706 -1.11163 0
M  V30 52 C 3.7893 3.63476 -2.33472 0
M  V30 53 C 2.9243 4.89481 -2.06353 0
M  V30 54 C 1.9633 5.18941 -3.24602 0
M  V30 55 N 1.1003 6.36131 -2.97123 0
M  V30 56 H 5.9403 1.93756 -2.26413 0
M  V30 57 H 3.4773 0.947454 -1.12524 0
M  V30 58 H 5.4353 4.05639 -0.975337 0
M  V30 59 H 4.0653 3.222 -0.196674 0
M  V30 60 H 3.1173 2.79636 -2.57891 0
M  V30 61 H 4.4293 3.81193 -3.21704 0
M  V30 62 H 3.5833 5.76288 -1.89675 0
M  V30 63 H 2.3223 4.73841 -1.15437 0
M  V30 64 H 1.3273 4.30615 -3.41834 0
M  V30 65 H 2.5523 5.36498 -4.16349 0
M  V30 66 H 0.4983 6.21875 -2.08823 0
M  V30 67 H 0.4153 6.54198 -3.78894 0
M  V30 68 H 1.6833 7.2591 -2.84033 0
M  V30 69 N 5.9124 1.20967 1.01018 0
M  V30 70 C 6.8424 0.988272 2.11555 0
M  V30 71 C 7.8234 -0.0849778 1.69888 0
M  V30 72 O 9.0084 0.0738202 1.9406 0
M  V30 73 C 6.1384 0.546528 3.42973 0
M  V30 74 C 5.0924 1.56375 3.9841 0
M  V30 75 C 4.4184 0.97842 5.25672 0
M  V30 76 C 5.7184 2.94922 4.31066 0
M  V30 77 H 7.4124 1.91276 2.30334 0
M  V30 78 H 4.9584 0.921073 1.1069 0
M  V30 79 H 6.9114 0.378839 4.19694 0
M  V30 80 H 5.6354 -0.413598 3.23971 0
M  V30 81 H 4.2944 1.71891 3.23804 0
M  V30 82 H 3.9424 0.0101688 5.02999 0
M  V30 83 H 3.6424 1.65784 5.63728 0
M  V30 84 H 5.1664 0.821939 6.05043 0
M  V30 85 H 6.5804 2.8288 4.9865 0
M  V30 86 H 4.9774 3.5983 4.80253 0
M  V30 87 H 6.0474 3.4616 3.39561 0
M  V30 88 N 7.3905 -1.2043 1.01659 0
M  V30 89 C 8.3205 -2.25466 0.607226 0
M  V30 90 C 9.3015 -1.65853 -0.377716 0
M  V30 91 O 10.4865 -1.92409 -0.263149 0
M  V30 92 C 7.6165 -3.47256 -0.0552949 0
M  V30 93 C 6.5705 -4.19462 0.850632 0
M  V30 94 C 5.8965 -5.34673 0.0538859 0
M  V30 95 C 7.1965 -4.75603 2.15868 0
M  V30 96 H 8.8905 -2.59962 1.48526 0
M  V30 97 H 6.4365 -1.2496 0.715605 0
M  V30 98 H 8.3895 -4.19917 -0.353233 0
M  V30 99 H 7.1135 -3.11924 -0.968045 0
M  V30 100 H 5.7725 -3.48667 1.13257 0
M  V30 101 H 5.4205 -4.95585 -0.860514 0
M  V30 102 H 5.1205 -5.83913 0.657192 0
M  V30 103 H 6.6445 -6.10138 -0.237598 0
M  V30 104 H 8.0585 -5.40083 1.92311 0
M  V30 105 H 6.4555 -5.3528 2.71284 0
M  V30 106 H 7.5255 -3.94346 2.82169 0
M  V30 107 N 8.8686 -0.792821 -1.36206 0
M  V30 108 C 10.1176 -0.363353 -1.984 0
M  V30 109 C 10.4306 1.07172 -1.63626 0
M  V30 110 O 11.6366 1.60362 -2.19081 0
M  V30 111 C 10.0926 -0.59872 -3.54885 0
M  V30 112 C 9.7006 -2.04543 -3.9858 0
M  V30 113 C 11.4446 -0.233926 -4.23855 0
M  V30 114 C 9.3516 -2.22727 -5.47856 0
M  V30 115 H 8.2816 -0.13212 -0.742334 0
M  V30 116 H 10.9326 -0.974935 -1.55458 0
M  V30 117 H 9.3146 0.0826222 -3.95914 0
M  V30 118 H 10.4886 -2.76345 -3.68741 0
M  V30 119 H 8.8036 -2.36879 -3.42458 0
M  V30 120 H 11.4006 -0.348027 -5.33566 0
M  V30 121 H 11.7436 0.818351 -4.08177 0
M  V30 122 H 12.2766 -0.868639 -3.882 0
M  V30 123 H 9.0156 -3.2635 -5.68486 0
M  V30 124 H 8.5356 -1.55434 -5.7931 0
M  V30 125 H 10.2146 -2.03607 -6.14128 0
M  V30 126 N 10.3467 1.47872 -0.545128 0
M  V30 127 C 11.5867 2.04391 -0.0187854 0
M  V30 128 C 11.9507 1.41162 1.30144 0
M  V30 129 O 13.1517 1.88656 1.91474 0
M  V30 130 C 11.4227 3.57299 0.0850867 0
M  V30 131 S 12.9817 4.35221 0.559302 0
M  V30 132 H 9.7997 0.710737 -0.0193301 0
M  V30 133 H 12.4017 1.81395 -0.729125 0
M  V30 134 H 11.1057 4.00847 -0.880351 0
M  V30 135 H 10.6367 3.84773 0.819348 0
M  V30 136 H 12.6517 4.61571 1.82118 0
M  V30 137 N 11.8248 0.280983 1.55075 0
M  V30 138 C 12.7878 -0.590896 2.21452 0
M  V30 139 C 13.7878 -1.07682 1.19421 0
M  V30 140 O 14.9778 -0.97605 1.44288 0
M  V30 141 C 12.1098 -1.81587 2.88511 0
M  V30 142 H 13.3028 -0.0112554 2.99898 0
M  V30 143 H 10.8558 0.0316438 1.56268 0
M  V30 144 H 11.5908 -2.43587 2.14093 0
M  V30 145 H 11.3758 -1.4753 3.63287 0
M  V30 146 H 12.8658 -2.43575 3.39206 0
M  V30 147 N 13.3029 -1.57598 0.00835791 0
M  V30 148 C 14.5309 -1.95214 -0.68549 0
M  V30 149 C 14.9459 -0.883706 -1.66841 0
M  V30 150 O 14.3029 0.136565 -1.81988 0
M  V30 151 C 14.3539 -3.32865 -1.41007 0
M  V30 152 O 14.0749 -4.35609 -0.466552 0
M  V30 153 C 15.5759 -3.84991 -2.19765 0
M  V30 154 H 12.7959 -0.643422 -0.190392 0
M  V30 155 H 15.3399 -2.04406 0.0619607 0
M  V30 156 H 13.4949 -3.24956 -2.10908 0
M  V30 157 H 13.9089 -5.15288 -0.978699 0
M  V30 158 H 15.3829 -4.8371 -2.65948 0
M  V30 159 H 15.8599 -3.18137 -3.02796 0
M  V30 160 H 16.4659 -3.96103 -1.54864 0
M  V30 161 N 14.781 0.264519 -1.55364 0
M  V30 162 C 15.744 1.31046 -1.88042 0
M  V30 163 C 16.744 1.41943 -0.755569 0
M  V30 164 O 17.934 1.40947 -1.02369 0
M  V30 165 C 15.066 2.69067 -2.09323 0
M  V30 166 H 16.259 1.03297 -2.81549 0
M  V30 167 H 13.812 0.502989 -1.47986 0
M  V30 168 H 14.547 3.01982 -1.18226 0
M  V30 169 H 14.332 2.62542 -2.91229 0
M  V30 170 H 15.822 3.44623 -2.35848 0
M  V30 171 N 16.2591 1.48442 0.529413 0
M  V30 172 C 17.4841 1.60406 1.31471 0
M  V30 173 C 17.9091 0.264738 1.86228 0
M  V30 174 O 17.2671 -0.763668 1.64432 0
M  V30 175 C 17.3151 2.65419 2.44101 0
M  V30 176 O 16.4191 2.22618 3.47153 0
M  V30 177 H 15.7601 0.537863 0.389357 0
M  V30 178 H 18.2901 1.94432 0.636965 0
M  V30 179 H 18.3001 2.86709 2.90279 0
M  V30 180 H 16.9751 3.62652 2.03608 0
M  V30 181 H 15.5521 2.11543 3.0709 0
M  V30 182 N 17.7372 -0.778329 1.37039 0
M  V30 183 C 18.9862 -1.53189 1.3121 0
M  V30 184 C 19.2992 -1.95328 -0.103095 0
M  V30 185 O 20.5052 -2.70012 -0.283826 0
M  V30 186 C 18.9612 -2.76591 2.30272 0
M  V30 187 C 18.5692 -2.41577 3.77286 0
M  V30 188 C 20.3132 -3.5455 2.33441 0
M  V30 189 C 18.2202 -3.61441 4.68096 0
M  V30 190 H 17.1502 -0.5751 0.487622 0
M  V30 191 H 19.8012 -0.853101 1.62464 0
M  V30 192 H 18.1832 -3.46326 1.92027 0
M  V30 193 H 19.3572 -1.79668 4.2433 0
M  V30 194 H 17.6722 -1.76806 3.76999 0
M  V30 195 H 20.2692 -4.43628 2.98493 0
M  V30 196 H 20.6122 -3.93936 1.34611 0
M  V30 197 H 21.1452 -2.91805 2.7036 0
M  V30 198 H 17.8842 -3.27142 5.6803 0
M  V30 199 H 17.4042 -4.22478 4.25761 0
M  V30 200 H 19.0832 -4.28335 4.8491 0
M  V30 201 N 19.2153 -1.21501 -1.00376 0
M  V30 202 C 20.1633 -0.972442 -2.11297 0
M  V30 203 C 21.1573 0.080731 -1.69208 0
M  V30 204 O 22.3633 -0.0707666 -1.79861 0
M  V30 205 H 18.7383 -0.297218 -0.690772 0
M  V30 206 H 20.7093 -1.91394 -2.28934 0
M  V30 207 C 19.4583 -0.555065 -3.43241 0
M  V30 208 H 18.7813 -1.35709 -3.76062 0
M  V30 209 H 20.2213 -0.424664 -4.21868 0
M  V30 210 C 18.6803 0.734147 -3.28804 0
M  V30 211 O 19.2103 1.78937 -3.59645 0
M  V30 212 N 17.4163 0.701133 -2.82015 0
M  V30 213 H 16.9633 -0.157874 -2.57116 0
M  V30 214 H 16.9213 1.56403 -2.72737 0
M  V30 215 N 20.6934 1.19889 -1.02296 0
M  V30 216 C 21.9394 1.89701 -0.717033 0
M  V30 217 C 22.2724 1.7905 0.751989 0
M  V30 218 O 21.5474 1.17891 1.547 0
M  V30 219 C 21.8304 3.40858 -1.16136 0
M  V30 220 C 21.6834 3.60411 -2.69117 0
M  V30 221 C 23.0024 4.33876 -0.737549 0
M  V30 222 H 20.1214 0.688874 -0.261957 0
M  V30 223 H 22.7634 1.41154 -1.27183 0
M  V30 224 H 20.9134 3.82335 -0.689342 0
M  V30 225 H 22.5854 3.28145 -3.2422 0
M  V30 226 H 20.8284 3.03665 -3.0979 0
M  V30 227 H 21.4994 4.66396 -2.95261 0
M  V30 228 H 23.9754 4.00081 -1.14344 0
M  V30 229 H 22.8514 5.38242 -1.0764 0
M  V30 230 H 23.1124 4.40628 0.360436 0
M  V30 231 N 22.1715 0.800033 1.35784 0
M  V30 232 C 23.4205 0.37387 1.98205 0
M  V30 233 C 23.7335 -1.06302 1.64193 0
M  V30 234 O 24.9395 -1.59198 2.19928 0
M  V30 235 C 23.3955 0.617532 3.54562 0
M  V30 236 C 23.0035 2.06654 3.9749 0
M  V30 237 C 24.7475 0.256401 4.23725 0
M  V30 238 C 22.6545 2.2563 5.46667 0
M  V30 239 H 21.5845 0.136055 0.741623 0
M  V30 240 H 24.2355 0.983166 1.54939 0
M  V30 241 H 22.6175 -0.0616248 3.95952 0
M  V30 242 H 23.7915 2.78296 3.67271 0
M  V30 243 H 22.1065 2.38691 3.41197 0
M  V30 244 H 24.7035 0.376318 5.33374 0
M  V30 245 H 25.0465 -0.796692 4.08606 0
M  V30 246 H 25.5795 0.889214 3.87734 0
M  V30 247 H 22.3185 3.2936 5.66747 0
M  V30 248 H 21.8385 1.58504 5.78478 0
M  V30 249 H 23.5175 2.06861 6.1304 0
M  V30 250 N 23.6496 -1.47581 0.552962 0
M  V30 251 C 24.5976 -2.31648 -0.21023 0
M  V30 252 C 25.5916 -1.42663 -0.913432 0
M  V30 253 O 26.7976 -1.5945 -0.835201 0
M  V30 254 H 23.1726 -0.746989 -0.0866676 0
M  V30 255 H 25.1436 -2.93869 0.518051 0
M  V30 256 C 23.8926 -3.25226 -1.22976 0
M  V30 257 H 23.2156 -3.93658 -0.698077 0
M  V30 258 H 24.6556 -3.86889 -1.73473 0
M  V30 259 C 23.1146 -2.48448 -2.27542 0
M  V30 260 O 23.6446 -2.22585 -3.34393 0
M  V30 261 N 21.8506 -2.09532 -2.01357 0
M  V30 262 H 21.3976 -2.30765 -1.14478 0
M  V30 263 H 21.3556 -1.58476 -2.71538 0
M  V30 264 N 25.1277 -0.289203 -1.54924 0
M  V30 265 C 26.3767 0.324231 -1.99077 0
M  V30 266 C 26.6897 1.5591 -1.18117 0
M  V30 267 O 27.8957 2.24637 -1.52481 0
M  V30 268 C 26.3517 0.628209 -3.54375 0
M  V30 269 C 25.9597 -0.587647 -4.44129 0
M  V30 270 C 27.7037 1.20349 -4.07083 0
M  V30 271 C 25.6107 -0.257475 -5.90839 0
M  V30 272 H 24.5407 0.124924 -0.743579 0
M  V30 273 H 27.1917 -0.396063 -1.79175 0
M  V30 274 H 25.5737 1.40778 -3.70132 0
M  V30 275 H 26.7477 -1.36418 -4.40144 0
M  V30 276 H 25.0627 -1.08074 -4.0213 0
M  V30 277 H 27.6597 1.46456 -5.14252 0
M  V30 278 H 28.0027 2.14195 -3.56968 0
M  V30 279 H 28.5357 0.485889 -3.94821 0
M  V30 280 H 25.2747 -1.16419 -6.45079 0
M  V30 281 H 24.7947 0.482018 -5.9786 0
M  V30 282 H 26.4737 0.145238 -6.46837 0
M  V30 283 N 26.6058 1.57591 -0.0167156 0
M  V30 284 C 27.5538 2.10604 0.987353 0
M  V30 285 C 28.5478 1.02977 1.34507 0
M  V30 286 O 29.7538 1.21425 1.32875 0
M  V30 287 H 26.1288 0.672695 0.336134 0
M  V30 288 H 28.0998 2.93925 0.514817 0
M  V30 289 C 26.8488 2.6382 2.26483 0
M  V30 290 H 26.1718 3.46278 1.99829 0
M  V30 291 H 27.6118 3.04573 2.94977 0
M  V30 292 C 26.0708 1.55992 2.9861 0
M  V30 293 O 26.6008 0.952521 3.90243 0
M  V30 294 N 24.8068 1.28335 2.60727 0
M  V30 295 H 24.3538 1.77914 1.86291 0
M  V30 296 H 24.3118 0.564115 3.09298 0
M  V30 297 N 28.0839 -0.256276 1.55502 0
M  V30 298 C 29.0339 -1.31981 1.85916 0
M  V30 299 C 30.0179 -1.43927 0.719296 0
M  V30 300 O 31.2099 -1.47326 0.981019 0
M  V30 301 C 28.3389 -2.67703 2.14918 0
M  V30 302 C 27.4249 -2.59801 3.35208 0
M  V30 303 N 27.8159 -2.21524 4.54709 0
M  V30 304 C 26.1139 -2.90832 3.38131 0
M  V30 305 C 26.8149 -2.24024 5.36832 0
M  V30 306 N 25.7909 -2.63158 4.75656 0
M  V30 307 H 29.5929 -1.01423 2.75845 0
M  V30 308 H 27.1069 -0.464911 1.55603 0
M  V30 309 H 29.1039 -3.44445 2.34869 0
M  V30 310 H 27.7639 -2.99137 1.26282 0
M  V30 311 H 28.7749 -1.93223 4.80505 0
M  V30 312 H 25.4519 -3.26867 2.59739 0
M  V30 313 H 26.8419 -1.9685 6.42417 0
M  V30 314 N 29.562 -1.4872 -0.521534 0
M  V30 315 C 30.792 -1.6061 -1.29954 0
M  V30 316 C 31.2 -0.268728 -1.87282 0
M  V30 317 O 30.543 0.753221 -1.67548 0
M  V30 318 C 30.605 -2.60013 -2.48261 0
M  V30 319 C 30.269 -4.04874 -2.11957 0
M  V30 320 C 31.266 -4.92304 -1.67132 0
M  V30 321 C 28.951 -4.5047 -2.22221 0
M  V30 322 C 30.945 -6.2336 -1.33047 0
M  V30 323 C 28.632 -5.81544 -1.87748 0
M  V30 324 C 29.63 -6.67812 -1.43234 0
M  V30 325 O 29.318 -7.96446 -1.09217 0
M  V30 326 H 29.05 -0.544116 -0.401141 0
M  V30 327 H 31.604 -1.95339 -0.634958 0
M  V30 328 H 29.834 -2.20422 -3.17728 0
M  V30 329 H 31.523 -2.61648 -3.10315 0
M  V30 330 H 32.289 -4.58312 -1.58665 0
M  V30 331 H 28.168 -3.83504 -2.55823 0
M  V30 332 H 31.712 -6.90649 -0.982299 0
M  V30 333 H 27.609 -6.15069 -1.95858 0
M  V30 334 H 28.377 -8.09275 -1.22542 0
M  V30 335 N 31.0401 0.771051 -1.3745 0
M  V30 336 C 32.2891 1.52491 -1.3202 0
M  V30 337 C 32.6021 1.9538 0.0927347 0
M  V30 338 O 33.8081 2.70159 0.269503 0
M  V30 339 C 32.2641 2.75366 -2.31736 0
M  V30 340 C 31.8721 2.39573 -3.78562 0
M  V30 341 C 33.6161 3.53307 -2.35318 0
M  V30 342 C 31.5231 3.58954 -4.70007 0
M  V30 343 H 30.4531 0.572506 -0.490666 0
M  V30 344 H 33.1041 0.844474 -1.62914 0
M  V30 345 H 31.4861 3.45303 -1.93861 0
M  V30 346 H 32.6601 1.77415 -4.25277 0
M  V30 347 H 30.9751 1.74805 -3.77932 0
M  V30 348 H 33.5721 4.42039 -3.00842 0
M  V30 349 H 33.9151 3.93217 -1.36698 0
M  V30 350 H 34.4481 2.90367 -2.71904 0
M  V30 351 H 31.1871 3.24125 -5.69757 0
M  V30 352 H 30.7071 4.20214 -4.27996 0
M  V30 353 H 32.3861 4.25758 -4.87175 0
M  V30 354 N 32.5182 1.22032 0.997298 0
M  V30 355 C 33.7642 1.04376 1.73878 0
M  V30 356 C 34.0972 -0.420716 1.89588 0
M  V30 357 O 33.3722 -1.31202 1.43583 0
M  V30 358 C 33.6552 1.75047 3.14691 0
M  V30 359 C 33.5082 3.29062 3.06656 0
M  V30 360 C 34.8272 1.49928 4.13775 0
M  V30 361 H 31.9462 0.380578 0.631133 0
M  V30 362 H 34.5882 1.50312 1.16217 0
M  V30 363 H 32.7382 1.35996 3.63919 0
M  V30 364 H 34.4102 3.7753 2.65083 0
M  V30 365 H 32.6532 3.58967 2.43568 0
M  V30 366 H 33.3242 3.73683 4.06282 0
M  V30 367 H 35.8002 1.83842 3.73285 0
M  V30 368 H 34.6762 2.01878 5.10428 0
M  V30 369 H 34.9372 0.430929 4.39995 0
M  V30 370 N 33.9963 -1.19345 1.0293 0
M  V30 371 C 34.9063 -2.26245 0.620515 0
M  V30 372 C 35.9223 -1.70486 -0.347928 0
M  V30 373 O 37.0983 -2.00347 -0.205704 0
M  V30 374 C 34.1633 -3.46693 -0.0218957 0
M  V30 375 C 33.2243 -4.17632 0.994102 0
M  V30 376 C 32.4573 -5.32329 0.382253 0
M  V30 377 O 32.6803 -5.64552 -0.814676 0
M  V30 378 O 31.6143 -5.91664 1.10531 0
M  V30 379 H 35.4403 -2.63453 1.51083 0
M  V30 380 H 33.0253 -1.26207 0.799513 0
M  V30 381 H 34.9073 -4.19683 -0.380072 0
M  V30 382 H 33.5823 -3.11333 -0.886209 0
M  V30 383 H 32.4893 -3.4676 1.40387 0
M  V30 384 H 33.8223 -4.56964 1.8288 0
M  V30 385 N 35.4744 -0.807222 -1.35358 0
M  V30 386 C 36.4044 -0.232509 -2.3234 0
M  V30 387 C 37.3854 0.642386 -1.57504 0
M  V30 388 O 38.5704 0.572526 -1.85569 0
M  V30 389 C 35.7004 0.619238 -3.41735 0
M  V30 390 C 34.6544 -0.157215 -4.27711 0
M  V30 391 C 33.9804 0.816273 -5.28433 0
M  V30 392 C 35.2804 -1.35656 -5.04376 0
M  V30 393 H 36.9744 -1.04276 -2.80654 0
M  V30 394 H 34.5204 -0.50288 -1.34934 0
M  V30 395 H 36.4734 1.03137 -4.08584 0
M  V30 396 H 35.1974 1.46239 -2.92031 0
M  V30 397 H 33.8564 -0.550525 -3.62443 0
M  V30 398 H 33.5044 1.65494 -4.74996 0
M  V30 399 H 33.2044 0.301067 -5.86828 0
M  V30 400 H 34.7284 1.22659 -5.98153 0
M  V30 401 H 36.1424 -1.01927 -5.64166 0
M  V30 402 H 34.5394 -1.8063 -5.7227 0
M  V30 403 H 35.6094 -2.14288 -4.34981 0
M  V30 404 N 36.9525 1.47285 -0.560781 0
M  V30 405 C 37.8995 2.30058 0.18491 0
M  V30 406 C 38.8695 1.39281 0.904986 0
M  V30 407 O 40.0545 1.68241 0.899979 0
M  V30 408 C 37.1945 3.23317 1.20666 0
M  V30 409 C 36.3075 4.29186 0.492285 0
M  V30 410 C 35.4425 5.09592 1.49964 0
M  V30 411 C 34.4815 6.07232 0.770439 0
M  V30 412 N 33.6185 6.80584 1.72479 0
M  V30 413 H 38.4585 2.93302 -0.527048 0
M  V30 414 H 35.9955 1.44568 -0.271738 0
M  V30 415 H 37.9535 3.75811 1.81168 0
M  V30 416 H 36.5835 2.61929 1.88661 0
M  V30 417 H 35.6355 3.7972 -0.227333 0
M  V30 418 H 36.9475 4.98738 -0.0787929 0
M  V30 419 H 36.1015 5.66254 2.17809 0
M  V30 420 H 34.8405 4.3995 2.10464 0
M  V30 421 H 33.8455 5.49745 0.0780846 0
M  V30 422 H 35.0705 6.78884 0.171134 0
M  V30 423 H 33.0165 6.1367 2.3183 0
M  V30 424 H 32.9335 7.46319 1.20596 0
M  V30 425 H 34.2015 7.41818 2.39428 0
M  V30 426 N 38.4306 0.297415 1.54768 0
M  V30 427 C 39.3626 -0.613881 2.20826 0
M  V30 428 C 40.3756 -1.10032 1.19987 0
M  V30 429 O 41.5646 -1.01839 1.46598 0
M  V30 430 C 38.6646 -1.852 2.83821 0
M  V30 431 C 37.8376 -1.50865 4.10559 0
M  V30 432 C 36.8966 -2.60154 4.57391 0
M  V30 433 O 35.9226 -2.25398 5.2267 0
M  V30 434 N 37.1246 -3.90629 4.29406 0
M  V30 435 H 39.8896 -0.048389 2.99661 0
M  V30 436 H 37.4506 0.11946 1.61459 0
M  V30 437 H 39.4426 -2.57652 3.12086 0
M  V30 438 H 38.0126 -2.32597 2.08847 0
M  V30 439 H 37.2326 -0.616925 3.89343 0
M  V30 440 H 38.5206 -1.25458 4.9309 0
M  V30 441 H 37.9186 -4.21677 3.77101 0
M  V30 442 H 36.4756 -4.59391 4.62388 0
M  V30 443 N 39.9087 -1.5758 0.0250728 0
M  V30 444 C 40.8587 -2.06468 -0.967201 0
M  V30 445 C 41.8427 -0.964376 -1.28797 0
M  V30 446 O 43.0347 -1.22797 -1.27475 0
M  V30 447 C 40.1637 -2.59203 -2.25097 0
M  V30 448 C 39.2497 -3.76157 -1.95874 0
M  V30 449 N 39.6407 -4.86919 -1.36905 0
M  V30 450 C 37.9387 -3.84566 -2.25887 0
M  V30 451 C 38.6397 -5.68172 -1.24724 0
M  V30 452 N 37.6157 -5.14953 -1.74138 0
M  V30 453 H 41.4177 -2.89508 -0.506176 0
M  V30 454 H 38.9317 -1.61399 -0.18004 0
M  V30 455 H 40.9287 -2.92517 -2.97052 0
M  V30 456 H 39.5887 -1.77592 -2.71829 0
M  V30 457 H 40.5997 -5.07256 -1.04459 0
M  V30 458 H 37.2767 -3.13854 -2.75321 0
M  V30 459 H 38.6667 -6.67221 -0.791605 0
M  V30 460 N 41.3868 0.248026 -1.55636 0
M  V30 461 C 42.6338 0.976224 -1.77415 0
M  V30 462 C 42.9618 1.85361 -0.589193 0
M  V30 463 O 42.2168 1.90973 0.427529 0
M  V30 464 C 42.5158 1.86819 -3.04686 0
M  V30 465 C 42.1818 1.14625 -4.36087 0
M  V30 466 C 40.8438 0.946723 -4.71795 0
M  V30 467 C 43.1958 0.634463 -5.17324 0
M  V30 468 C 40.5238 0.223091 -5.86276 0
M  V30 469 C 42.8758 -0.0756959 -6.32555 0
M  V30 470 C 41.5398 -0.286711 -6.66884 0
M  V30 471 H 40.8098 0.357226 -0.649208 0
M  V30 472 H 43.4568 0.246415 -1.89908 0
M  V30 473 H 41.7618 2.66502 -2.872 0
M  V30 474 H 43.4588 2.43329 -3.18735 0
M  V30 475 H 40.0488 1.3117 -4.08035 0
M  V30 476 H 44.2328 0.77616 -4.90193 0
M  V30 477 H 39.4888 0.0491185 -6.1138 0
M  V30 478 H 43.6628 -0.479899 -6.94745 0
M  V30 479 H 41.2898 -0.849389 -7.5544 0
M  V30 480 N 42.8649 1.48995 0.513639 0
M  V30 481 C 44.1419 1.48338 1.27495 0
M  V30 482 C 44.5219 0.204065 2.10111 0
M  V30 483 O 43.8699 -0.813881 2.13514 0
M  V30 484 C 44.0799 2.75498 2.14247 0
M  V30 485 C 45.4279 3.24484 2.73852 0
M  V30 486 O 46.4519 2.76528 2.24523 0
M  V30 487 O 45.3109 4.07974 3.6362 0
M  V30 488 H 42.4049 0.593149 0.576284 0
M  V30 489 H 44.9509 1.61246 0.528948 0
M  V30 490 H 43.7229 3.60109 1.53092 0
M  V30 491 H 43.3459 2.6539 2.96064 0
M  V30 492 N 44.343 -0.763751 1.37857 0
M  V30 493 C 45.253 -1.90817 1.36478 0
M  V30 494 C 46.269 -1.71997 0.263248 0
M  V30 495 O 47.445 -1.95095 0.499979 0
M  V30 496 C 44.51 -3.2605 1.17864 0
M  V30 497 C 43.571 -3.57467 2.3773 0
M  V30 498 C 42.804 -4.86249 2.19995 0
M  V30 499 O 43.027 -5.57884 1.18836 0
M  V30 500 O 41.961 -5.16911 3.08361 0
M  V30 501 H 45.787 -1.94933 2.32884 0
M  V30 502 H 43.372 -0.907619 1.1867 0
M  V30 503 H 45.254 -4.06924 1.09504 0
M  V30 504 H 43.929 -3.22769 0.245372 0
M  V30 505 H 42.836 -2.76796 2.51664 0
M  V30 506 H 44.169 -3.655 3.29652 0
M  V30 507 N 45.8211 -1.22559 -0.990812 0
M  V30 508 C 47.0671 -1.05297 -1.73322 0
M  V30 509 C 47.4001 0.410655 -1.89808 0
M  V30 510 O 46.6751 1.30439 -1.44277 0
M  V30 511 C 46.9581 -1.76713 -3.13759 0
M  V30 512 C 46.8111 -3.30684 -3.04907 0
M  V30 513 C 48.1301 -1.52121 -4.12974 0
M  V30 514 H 45.2491 -0.38392 -0.629106 0
M  V30 515 H 47.8911 -1.50926 -1.15418 0
M  V30 516 H 46.0411 -1.37924 -3.63193 0
M  V30 517 H 47.7131 -3.7893 -2.63077 0
M  V30 518 H 45.9561 -3.60253 -2.41661 0
M  V30 519 H 46.6271 -3.75833 -4.04294 0
M  V30 520 H 49.1031 -1.85819 -3.72304 0
M  V30 521 H 47.9791 -2.04582 -5.0935 0
M  V30 522 H 48.2401 -0.454257 -4.3976 0
M  V30 523 N 47.2992 1.18797 -1.03562 0
M  V30 524 C 48.2472 2.24297 -0.615905 0
M  V30 525 C 49.2412 1.65643 0.354808 0
M  V30 526 O 50.4472 1.78618 0.22265 0
M  V30 527 H 46.8222 0.729909 -0.180934 0
M  V30 528 H 48.7932 2.5701 -1.5162 0
M  V30 529 C 47.5422 3.47698 0.0104735 0
M  V30 530 H 46.8652 3.93125 -0.727509 0
M  V30 531 H 48.3052 4.23159 0.266995 0
M  V30 532 C 46.7642 3.12489 1.25905 0
M  V30 533 O 47.2942 3.25761 2.35038 0
M  V30 534 N 45.5002 2.6686 1.15039 0
M  V30 535 H 45.0472 2.56261 0.262328 0
M  V30 536 H 45.0052 2.43674 1.98672 0
M  V30 537 N 48.7773 0.814389 1.34928 0
M  V30 538 C 50.0263 0.394871 1.97797 0
M  V30 539 C 50.3393 -1.04555 1.65311 0
M  V30 540 O 51.5453 -1.56856 2.21604 0
M  V30 541 C 50.0013 0.655103 3.53888 0
M  V30 542 C 49.6093 2.10858 3.95276 0
M  V30 543 C 51.3533 0.301329 4.23429 0
M  V30 544 C 49.2603 2.31415 5.44244 0
M  V30 545 H 48.1903 0.143913 0.740139 0
M  V30 546 H 50.8413 0.999544 1.53888 0
M  V30 547 H 49.2233 -0.0196253 3.95995 0
M  V30 548 H 50.3973 2.82176 3.64298 0
M  V30 549 H 48.7123 2.42297 3.38646 0
M  V30 550 H 51.3093 0.432869 5.32945 0
M  V30 551 H 51.6523 -0.75331 4.09428 0
M  V30 552 H 52.1853 0.930288 3.86769 0
M  V30 553 H 48.9243 3.35353 5.63222 0
M  V30 554 H 48.4443 1.6463 5.76764 0
M  V30 555 H 50.1233 2.13352 6.10811 0
M  V30 556 N 50.2554 -1.46986 0.568584 0
M  V30 557 C 51.1854 -2.32946 -0.160753 0
M  V30 558 C 52.1664 -1.44487 -0.897631 0
M  V30 559 O 53.3514 -1.73327 -0.875867 0
M  V30 560 C 50.4814 -3.26494 -1.18403 0
M  V30 561 C 49.4354 -4.24282 -0.562895 0
M  V30 562 C 48.7614 -5.07236 -1.69163 0
M  V30 563 C 50.0614 -5.19989 0.490761 0
M  V30 564 H 51.7554 -2.94175 0.556916 0
M  V30 565 H 49.3014 -1.4146 0.26927 0
M  V30 566 H 51.2544 -3.85477 -1.70251 0
M  V30 567 H 49.9784 -2.63343 -1.93179 0
M  V30 568 H 48.6374 -3.66541 -0.0656164 0
M  V30 569 H 48.2854 -4.4048 -2.42871 0
M  V30 570 H 47.9854 -5.7345 -1.28174 0
M  V30 571 H 49.5094 -5.6908 -2.21314 0
M  V30 572 H 50.9234 -5.73271 0.0579047 0
M  V30 573 H 49.3204 -5.94469 0.820165 0
M  V30 574 H 50.3904 -4.64777 1.3824 0
M  V30 575 N 51.7335 -0.305618 -1.54608 0
M  V30 576 C 52.9805 0.302298 -2.00231 0
M  V30 577 C 53.3085 1.5354 -1.19398 0
M  V30 578 O 52.5635 1.93973 -0.259423 0
M  V30 579 C 52.8625 0.698983 -3.50498 0
M  V30 580 C 52.5285 -0.432903 -4.48817 0
M  V30 581 C 51.1905 -0.743622 -4.75419 0
M  V30 582 C 53.5425 -1.19409 -5.07337 0
M  V30 583 C 50.8705 -1.81857 -5.57804 0
M  V30 584 C 53.2225 -2.25899 -5.90891 0
M  V30 585 C 51.8865 -2.57572 -6.15803 0
M  V30 586 H 51.1565 0.110619 -0.732697 0
M  V30 587 H 53.8035 -0.425674 -1.86709 0
M  V30 588 H 52.1085 1.50711 -3.61654 0
M  V30 589 H 53.8055 1.1806 -3.83227 0
M  V30 590 H 50.3955 -0.18063 -4.28219 0
M  V30 591 H 54.5795 -0.967295 -4.86782 0
M  V30 592 H 49.8355 -2.06864 -5.75341 0
M  V30 593 H 54.0095 -2.85335 -6.35261 0
M  V30 594 H 51.6365 -3.40998 -6.7943 0
M  V30 595 N 53.2116 1.57565 -0.0334293 0
M  V30 596 C 54.4366 1.96689 0.657895 0
M  V30 597 C 54.8616 0.910057 1.64619 0
M  V30 598 O 54.2196 -0.128598 1.80843 0
M  V30 599 C 54.2676 3.34905 1.33683 0
M  V30 600 O 53.3716 3.31574 2.45219 0
M  V30 601 H 52.7126 0.641205 0.172489 0
M  V30 602 H 55.2426 2.04372 -0.0965621 0
M  V30 603 H 55.2526 3.71234 1.69262 0
M  V30 604 H 53.9276 4.11366 0.612411 0
M  V30 605 H 52.5046 3.06968 2.11719 0
M  V30 606 N 54.6897 -0.239769 1.55765 0
M  V30 607 C 56.1007 -0.808263 1.68297 0
M  V30 608 C 56.4517 -1.85736 0.632181 0
M  V30 609 O 55.5767 -2.15277 -0.220204 0
M  V30 610 C 56.1717 -1.47284 3.05111 0
M  V30 611 C 54.7307 -1.98895 3.19559 0
M  V30 612 C 53.8777 -0.842575 2.64189 0
M  V30 613 H 56.8287 -0.0154422 1.58692 0
M  V30 614 H 56.8497 -2.34111 2.99954 0
M  V30 615 H 56.3617 -0.709053 3.81568 0
M  V30 616 H 54.4627 -2.78132 2.47938 0
M  V30 617 H 54.5757 -2.18143 4.26556 0
M  V30 618 H 52.9397 -1.24501 2.22197 0
M  V30 619 H 53.7227 -0.0917552 3.43177 0
M  V30 620 N 56.1678 -1.49265 -0.50573 0
M  V30 621 C 57.3928 -1.62478 -1.28902 0
M  V30 622 C 57.8178 -0.294332 -1.85783 0
M  V30 623 O 57.1758 0.737412 -1.65626 0
M  V30 624 C 57.2238 -2.69268 -2.39848 0
M  V30 625 O 56.3278 -2.28113 -3.43567 0
M  V30 626 H 55.6688 -0.54399 -0.380751 0
M  V30 627 H 58.1988 -1.95421 -0.605952 0
M  V30 628 H 58.2088 -2.91291 -2.85681 0
M  V30 629 H 56.8838 -3.65846 -1.97812 0
M  V30 630 H 55.4608 -2.16401 -3.03685 0
M  V30 631 N 57.6459 0.756429 -1.3826 0
M  V30 632 C 58.8709 1.55077 -1.37717 0
M  V30 633 C 59.2959 1.88073 0.03164 0
M  V30 634 O 58.6539 1.50364 1.01293 0
M  V30 635 C 58.7019 2.8283 -2.23695 0
M  V30 636 O 57.8059 3.77862 -1.6521 0
M  V30 637 H 57.1469 0.469152 -0.469885 0
M  V30 638 H 59.6769 0.935019 -1.81985 0
M  V30 639 H 59.6869 3.31783 -2.37453 0
M  V30 640 H 58.3619 2.58144 -3.2609 0
M  V30 641 H 56.9389 3.36555 -1.60578 0
M  V30 642 N 59.124 1.23083 0.984299 0
M  V30 643 C 60.071 1.00854 2.07598 0
M  V30 644 C 61.041 -0.0726709 1.65941 0
M  V30 645 O 62.226 0.0786535 1.90638 0
M  V30 646 C 59.366 0.601645 3.39815 0
M  V30 647 C 58.479 1.75456 3.94765 0
M  V30 648 C 57.614 1.29482 5.15177 0
M  V30 649 C 56.653 2.41873 5.62284 0
M  V30 650 N 55.79 1.96885 6.73929 0
M  V30 651 H 60.63 1.943 2.25946 0
M  V30 652 H 58.167 0.968001 1.10762 0
M  V30 653 H 60.125 0.346854 4.15756 0
M  V30 654 H 58.755 -0.295803 3.21442 0
M  V30 655 H 57.807 2.12346 3.15616 0
M  V30 656 H 59.119 2.59965 4.25699 0
M  V30 657 H 58.273 0.997923 5.98437 0
M  V30 658 H 57.012 0.420046 4.85888 0
M  V30 659 H 56.017 2.72342 4.77608 0
M  V30 660 H 57.242 3.29881 5.93595 0
M  V30 661 H 55.188 1.11782 6.46406 0
M  V30 662 H 55.105 2.74956 7.04227 0
M  V30 663 H 56.373 1.70289 7.60672 0
M  V30 664 N 60.6021 -1.18246 1.0419 0
M  V30 665 C 61.5501 -2.23968 0.627792 0
M  V30 666 C 62.5441 -1.65828 -0.346019 0
M  V30 667 O 63.7501 -1.78733 -0.213175 0
M  V30 668 H 60.1251 -0.728939 0.184802 0
M  V30 669 H 62.0961 -2.56202 1.52981 0
M  V30 670 C 60.8451 -3.47699 0.00796591 0
M  V30 671 H 60.1681 -3.92734 0.748347 0
M  V30 672 H 61.6081 -4.23294 -0.24455 0
M  V30 673 C 60.0671 -3.13153 -1.24246 0
M  V30 674 O 60.5971 -3.27003 -2.33307 0
M  V30 675 N 58.8031 -2.67467 -1.13622 0
M  V30 676 H 58.3501 -2.56396 -0.248734 0
M  V30 677 H 58.3081 -2.44724 -1.97377 0
M  V30 678 N 62.0802 -0.821533 -1.34494 0
M  V30 679 C 63.3272 -0.408946 -1.98328 0
M  V30 680 C 63.6552 1.02764 -1.65136 0
M  V30 681 O 62.9102 1.73026 -0.914349 0
M  V30 682 C 63.2092 -0.556512 -3.53041 0
M  V30 683 C 62.8752 -1.95861 -4.0614 0
M  V30 684 C 61.5372 -2.34217 -4.20352 0
M  V30 685 C 63.8892 -2.87523 -4.34718 0
M  V30 686 C 61.2172 -3.63572 -4.6047 0
M  V30 687 C 63.5692 -4.1634 -4.76281 0
M  V30 688 C 62.2332 -4.54675 -4.88699 0
M  V30 689 H 61.5032 -0.149644 -0.725732 0
M  V30 690 H 64.1502 -1.04521 -1.6046 0
M  V30 691 H 62.4552 0.163148 -3.9146 0
M  V30 692 H 64.1522 -0.217826 -4.00408 0
M  V30 693 H 60.7422 -1.65066 -3.95539 0
M  V30 694 H 64.9262 -2.59133 -4.23277 0
M  V30 695 H 60.1822 -3.93101 -4.68275 0
M  V30 696 H 64.3562 -4.87455 -4.97354 0
M  V30 697 H 61.9832 -5.54959 -5.19542 0
M  V30 698 N 63.5583 1.46682 -0.576371 0
M  V30 699 C 64.8073 2.01619 -0.0572825 0
M  V30 700 C 65.1203 1.45417 1.30818 0
M  V30 701 O 66.3263 1.92133 1.91825 0
M  V30 702 C 64.7823 3.59863 -0.0518371 0
M  V30 703 C 64.3903 4.25059 -1.41523 0
M  V30 704 C 66.1343 4.2248 0.413639 0
M  V30 705 C 64.0413 5.75364 -1.36785 0
M  V30 706 H 62.9713 0.753794 -0.0176448 0
M  V30 707 H 65.6223 1.68481 -0.727076 0
M  V30 708 H 64.0043 3.90048 0.683994 0
M  V30 709 H 65.1783 4.06491 -2.17029 0
M  V30 710 H 63.4933 3.7451 -1.8202 0
M  V30 711 H 66.0903 5.3265 0.467779 0
M  V30 712 H 66.4333 3.90976 1.42982 0
M  V30 713 H 66.9663 3.96897 -0.267929 0
M  V30 714 H 63.7053 6.11518 -2.36063 0
M  V30 715 H 63.2253 5.96214 -0.654895 0
M  V30 716 H 64.9043 6.37955 -1.07805 0
M  V30 717 N 65.0364 0.313813 1.54444 0
M  V30 718 C 65.9844 -0.572171 2.25453 0
M  V30 719 C 66.9784 -1.12657 1.2651 0
M  V30 720 O 68.1844 -1.07573 1.44319 0
M  V30 721 H 64.5594 -0.203146 0.724041 0
M  V30 722 H 66.5304 0.0491145 2.9836 0
M  V30 723 C 65.2794 -1.72626 3.0182 0
M  V30 724 H 64.6024 -1.30891 3.77767 0
M  V30 725 H 66.0424 -2.32199 3.54767 0
M  V30 726 C 64.5014 -2.63806 2.09542 0
M  V30 727 O 65.0314 -3.65256 1.67185 0
M  V30 728 N 63.2374 -2.31824 1.75232 0
M  V30 729 H 62.7844 -1.49368 2.09873 0
M  V30 730 H 62.7424 -2.93095 1.13767 0
M  V30 731 N 66.5145 -1.57545 0.0417849 0
M  V30 732 C 67.7425 -1.96624 -0.643928 0
M  V30 733 C 68.1575 -0.918897 -1.64929 0
M  V30 734 O 67.5145 0.0979323 -1.82237 0
M  V30 735 C 67.5655 -3.35781 -1.33914 0
M  V30 736 O 67.2865 -4.365 -0.374048 0
M  V30 737 C 68.7875 -3.89566 -2.1155 0
M  V30 738 H 66.0075 -0.647316 -0.176702 0
M  V30 739 H 68.5515 -2.04229 0.105304 0
M  V30 740 H 66.7065 -3.29357 -2.03968 0
M  V30 741 H 67.1205 -5.17248 -0.869179 0
M  V30 742 H 68.5945 -4.89242 -2.55628 0
M  V30 743 H 69.0715 -3.24488 -2.9598 0
M  V30 744 H 69.6775 -3.99298 -1.46427 0
M  V30 745 N 67.9926 0.231505 -1.5589 0
M  V30 746 C 69.2696 0.981096 -1.69215 0
M  V30 747 C 69.6496 2.02799 -0.586164 0
M  V30 748 O 68.9976 2.24823 0.408253 0
M  V30 749 C 69.2076 1.60054 -3.10135 0
M  V30 750 C 70.5556 2.09658 -3.69227 0
M  V30 751 O 71.5796 1.69967 -3.13033 0
M  V30 752 O 70.4386 2.8258 -4.67772 0
M  V30 753 H 67.5326 0.457653 -0.688827 0
M  V30 754 H 70.0786 0.224073 -1.68214 0
M  V30 755 H 68.8506 0.844105 -3.82087 0
M  V30 756 H 68.4736 2.42336 -3.15212 0
M  V30 757 N 69.4707 1.49531 0.497807 0
M  V30 758 C 70.7167 1.59415 1.25358 0
M  V30 759 C 71.0497 0.281422 1.9215 0
M  V30 760 O 70.3247 -0.715249 1.80871 0
M  V30 761 C 70.6077 2.75566 2.3181 0
M  V30 762 C 70.4607 4.16642 1.69498 0
M  V30 763 C 71.7797 2.87347 3.33346 0
M  V30 764 H 68.8987 0.580244 0.454408 0
M  V30 765 H 71.5407 1.81827 0.551262 0
M  V30 766 H 69.6907 2.56587 2.91711 0
M  V30 767 H 71.3627 4.47145 1.13399 0
M  V30 768 H 69.6057 4.22141 0.998978 0
M  V30 769 H 70.2767 4.93792 2.46725 0
M  V30 770 H 72.7527 3.04634 2.83438 0
M  V30 771 H 71.6287 3.70289 4.05188 0
M  V30 772 H 71.8897 1.96834 3.95865 0
M  V30 773 N 70.9488 -0.749086 1.3866 0
M  V30 774 C 71.8788 -1.8764 1.38973 0
M  V30 775 C 72.8598 -1.68178 0.255004 0
M  V30 776 O 74.0448 -1.88704 0.458754 0
M  V30 777 C 71.1748 -3.25222 1.21851 0
M  V30 778 C 70.1288 -3.59295 2.32575 0
M  V30 779 C 69.4548 -4.95663 2.00555 0
M  V30 780 C 70.7548 -3.63709 3.7485 0
M  V30 781 H 72.4488 -1.87635 2.3331 0
M  V30 782 H 69.9948 -0.901329 1.12303 0
M  V30 783 H 71.9478 -4.03746 1.20695 0
M  V30 784 H 70.6718 -3.25719 0.239775 0
M  V30 785 H 69.3308 -2.83093 2.32925 0
M  V30 786 H 68.9788 -4.92724 1.01154 0
M  V30 787 H 68.6788 -5.19429 2.74714 0
M  V30 788 H 70.2028 -5.7656 2.01024 0
M  V30 789 H 71.6168 -4.32338 3.76506 0
M  V30 790 H 70.0138 -3.98986 4.48252 0
M  V30 791 H 71.0838 -2.63834 4.06841 0
M  V30 792 N 72.4269 -1.23603 -0.977757 0
M  V30 793 C 73.3739 -1.01954 -2.07061 0
M  V30 794 C 74.3439 0.0638697 -1.65977 0
M  V30 795 O 75.5289 -0.0887624 -1.90593 0
M  V30 796 C 72.6689 -0.619658 -3.39491 0
M  V30 797 C 71.7819 -1.77547 -3.93829 0
M  V30 798 C 70.9169 -1.32212 -5.14484 0
M  V30 799 C 69.9559 -2.44852 -5.60994 0
M  V30 800 N 69.0929 -2.00456 -6.72876 0
M  V30 801 H 73.9329 -1.95495 -2.24913 0
M  V30 802 H 71.4699 -0.973861 -1.10247 0
M  V30 803 H 73.4279 -0.368898 -4.15566 0
M  V30 804 H 72.0579 0.278752 -3.21594 0
M  V30 805 H 71.1099 -2.14016 -3.14486 0
M  V30 806 H 72.4219 -2.62219 -4.24314 0
M  V30 807 H 71.5759 -1.02965 -5.97899 0
M  V30 808 H 70.3149 -0.445808 -4.85658 0
M  V30 809 H 69.3199 -2.74871 -4.76157 0
M  V30 810 H 70.5449 -3.33024 -5.91837 0
M  V30 811 H 68.4909 -1.15208 -6.45804 0
M  V30 812 H 68.4079 -2.78687 -7.02759 0
M  V30 813 H 69.6759 -1.7432 -7.59758 0
M  V30 814 N 73.905 1.17692 -1.04816 0
M  V30 815 C 74.835 2.23777 -0.666791 0
M  V30 816 C 75.816 1.66796 0.33361 0
M  V30 817 O 77.001 1.93039 0.212042 0
M  V30 818 C 74.131 3.47281 -0.0367933 0
M  V30 819 C 73.085 4.17059 -0.961546 0
M  V30 820 C 72.411 5.34342 -0.195626 0
M  V30 821 C 73.711 4.69713 -2.28402 0
M  V30 822 H 75.405 2.55933 -1.55367 0
M  V30 823 H 72.951 1.23019 -0.748484 0
M  V30 824 H 74.904 4.20706 0.241775 0
M  V30 825 H 73.628 3.14381 0.885004 0
M  V30 826 H 72.287 3.45541 -1.22462 0
M  V30 827 H 71.935 4.97692 0.728816 0
M  V30 828 H 71.635 5.81966 -0.811775 0
M  V30 829 H 73.159 6.10553 0.0757473 0
M  V30 830 H 74.573 5.34794 -2.06563 0
M  V30 831 H 72.97 5.279 -2.8538 0
M  V30 832 H 74.04 3.86726 -2.92525 0
M  V30 833 N 75.3831 0.828654 1.34056 0
M  V30 834 C 76.6301 0.419458 1.98108 0
M  V30 835 C 76.9581 -1.01886 1.65679 0
M  V30 836 O 76.2131 -1.72539 0.923512 0
M  V30 837 C 76.5121 0.575226 3.52741 0
M  V30 838 C 76.1781 1.98012 4.05095 0
M  V30 839 C 74.8401 2.36442 4.19104 0
M  V30 840 C 77.1921 2.89824 4.33188 0
M  V30 841 C 74.5201 3.66009 4.58535 0
M  V30 842 C 76.8721 4.1886 4.74066 0
M  V30 843 C 75.5361 4.5726 4.86281 0
M  V30 844 H 74.8061 0.153491 0.724929 0
M  V30 845 H 77.4531 1.05371 1.59904 0
M  V30 846 H 75.7581 -0.142385 3.91541 0
M  V30 847 H 77.4551 0.239057 4.00287 0
M  V30 848 H 74.0451 1.67162 3.94658 0
M  V30 849 H 78.2291 2.61375 4.21897 0
M  V30 850 H 73.4851 3.95579 4.66184 0
M  V30 851 H 77.6591 4.90086 4.94761 0
M  V30 852 H 75.2861 5.57707 5.16592 0
M  V30 853 N 76.8612 -1.46375 0.584142 0
M  V30 854 C 78.1012 -2.0427 0.0729695 0
M  V30 855 C 78.4652 -1.44563 -1.26355 0
M  V30 856 O 79.6662 -1.93667 -1.86405 0
M  V30 857 C 77.9372 -3.57399 0.00967464 0
M  V30 858 S 79.4962 -4.36551 -0.443714 0
M  V30 859 H 76.3142 -0.709975 0.0381673 0
M  V30 860 H 78.9162 -1.79398 0.776962 0
M  V30 861 H 77.6202 -3.98372 0.986319 0
M  V30 862 H 77.1512 -3.8681 -0.717044 0
M  V30 863 H 79.1662 -4.66237 -1.69816 0
M  V30 864 N 78.3393 -0.321999 -1.54275 0
M  V30 865 C 79.6163 0.335232 -1.92706 0
M  V30 866 C 79.9963 1.70006 -1.25145 0
M  V30 867 O 79.3443 2.25067 -0.394596 0
M  V30 868 C 79.5543 0.429008 -3.46353 0
M  V30 869 C 80.9023 0.690029 -4.18956 0
M  V30 870 O 81.9263 0.511992 -3.52501 0
M  V30 871 O 80.7853 1.03338 -5.36641 0
M  V30 872 H 77.8793 0.191143 -0.804608 0
M  V30 873 H 80.4253 -0.3716 -1.65581 0
M  V30 874 H 79.1973 -0.529611 -3.87699 0
M  V30 875 H 78.8203 1.18348 -3.79578 0
M  V30 876 N 79.8174 1.5752 -0.0501392 0
M  V30 877 C 80.7654 2.12651 0.942459 0
M  V30 878 C 81.7594 1.05807 1.32292 0
M  V30 879 O 82.9654 1.24217 1.3027 0
M  V30 880 H 79.3404 0.679673 0.321789 0
M  V30 881 H 81.3114 2.94951 0.452356 0
M  V30 882 C 80.0604 2.68565 2.20836 0
M  V30 883 H 79.3834 3.50439 1.92439 0
M  V30 884 H 80.8234 3.10761 2.8845 0
M  V30 885 C 79.2824 1.62291 2.95234 0
M  V30 886 O 79.8124 1.03508 3.88135 0
M  V30 887 N 78.0184 1.33836 2.57946 0
M  V30 888 H 77.5654 1.81826 1.82475 0
M  V30 889 H 77.5234 0.629595 3.08032 0
M  V30 890 N 81.2955 -0.223234 1.56011 0
M  V30 891 C 82.2255 -1.27988 1.95298 0
M  V30 892 C 83.2065 -1.48976 0.820979 0
M  V30 893 O 84.3915 -1.61188 1.08315 0
M  V30 894 C 81.5215 -2.63 2.26822 0
M  V30 895 C 80.4755 -2.56671 3.42497 0
M  V30 896 C 79.8015 -3.95697 3.59622 0
M  V30 897 C 81.1015 -2.11601 4.77517 0
M  V30 898 H 82.7955 -0.953525 2.8381 0
M  V30 899 H 80.3415 -0.457244 1.36548 0
M  V30 900 H 82.2945 -3.37077 2.52898 0
M  V30 901 H 81.0185 -2.9732 1.35161 0
M  V30 902 H 79.6775 -1.85051 3.16467 0
M  V30 903 H 79.3255 -4.27322 2.6534 0
M  V30 904 H 79.0255 -3.92345 4.37424 0
M  V30 905 H 80.5495 -4.71438 3.88044 0
M  V30 906 H 81.9635 -2.7542 5.02809 0
M  V30 907 H 80.3605 -2.19311 5.5859 0
M  V30 908 H 81.4305 -1.06824 4.72987 0
M  V30 909 N 82.7736 -1.49793 -0.48987 0
M  V30 910 C 84.0036 -1.6333 -1.26518 0
M  V30 911 C 84.4116 -0.308392 -1.8667 0
M  V30 912 O 83.7546 0.717512 -1.69108 0
M  V30 913 C 83.8166 -2.6522 -2.4269 0
M  V30 914 C 83.4806 -4.09279 -2.03321 0
M  V30 915 C 84.4776 -4.95738 -1.56652 0
M  V30 916 C 82.1626 -4.55082 -2.12616 0
M  V30 917 C 84.1566 -6.26041 -1.19795 0
M  V30 918 C 81.8436 -5.85396 -1.75371 0
M  V30 919 C 82.8416 -6.707 -1.29036 0
M  V30 920 O 82.5296 -7.98584 -0.92299 0
M  V30 921 H 82.2616 -0.552502 -0.389509 0
M  V30 922 H 84.8156 -1.96642 -0.593381 0
M  V30 923 H 83.0456 -2.27112 -3.12981 0
M  V30 924 H 84.7346 -2.68171 -3.04695 0
M  V30 925 H 85.5006 -4.61575 -1.48908 0
M  V30 926 H 81.3796 -3.88844 -2.47631 0
M  V30 927 H 84.9236 -6.92578 -0.835582 0
M  V30 928 H 80.8206 -6.19085 -1.82768 0
M  V30 929 H 81.5886 -8.11692 -1.05349 0
M  V30 930 N 84.2517 0.741722 -1.39055 0
M  V30 931 C 85.5287 1.49252 -1.26425 0
M  V30 932 C 85.9087 2.10705 0.129144 0
M  V30 933 O 85.2567 1.98045 1.13976 0
M  V30 934 C 85.4667 2.54934 -2.38347 0
M  V30 935 C 86.8147 3.21506 -2.77343 0
M  V30 936 O 87.8387 2.65245 -2.37747 0
M  V30 937 O 86.6977 4.23294 -3.45665 0
M  V30 938 H 83.7917 0.662451 -0.495064 0
M  V30 939 H 86.3377 0.776121 -1.50912 0
M  V30 940 H 85.1097 2.07857 -3.31529 0
M  V30 941 H 84.7327 3.34141 -2.15489 0
M  V30 942 N 85.7298 1.2412 0.971189 0
M  V30 943 C 86.6398 1.04747 2.09917 0
M  V30 944 C 87.6558 -0.0107162 1.73997 0
M  V30 945 O 88.8318 0.186714 2.00533 0
M  V30 946 C 85.8968 0.650828 3.40537 0
M  V30 947 C 84.9578 1.7851 3.90426 0
M  V30 948 C 84.1908 1.40729 5.14812 0
M  V30 949 O 84.4138 0.29557 5.69634 0
M  V30 950 O 83.3478 2.23168 5.58999 0
M  V30 951 H 87.1738 1.99304 2.29154 0
M  V30 952 H 84.7588 1.02908 1.08307 0
M  V30 953 H 86.6408 0.440992 4.19086 0
M  V30 954 H 85.3158 -0.265649 3.22608 0
M  V30 955 H 84.2228 2.04966 3.12953 0
M  V30 956 H 85.5558 2.68023 4.12825 0
M  V30 957 N 87.2079 -1.17134 1.05439 0
M  V30 958 C 88.4569 -1.86791 0.761049 0
M  V30 959 C 88.7699 -1.82072 -0.714795 0
M  V30 960 O 89.9759 -2.47223 -1.12218 0
M  V30 961 C 88.4319 -3.35166 1.31117 0
M  V30 962 C 88.0399 -3.48381 2.81664 0
M  V30 963 C 89.7839 -4.10134 1.09499 0
M  V30 964 C 87.6909 -4.90793 3.29964 0
M  V30 965 H 86.6209 -0.699681 0.281002 0
M  V30 966 H 89.2719 -1.3226 1.27199 0
M  V30 967 H 87.6539 -3.8925 0.72803 0
M  V30 968 H 88.8279 -3.04502 3.45855 0
M  V30 969 H 87.1429 -2.86836 3.01851 0
M  V30 970 H 89.7399 -5.152 1.43084 0
M  V30 971 H 90.0829 -4.16287 0.0328772 0
M  V30 972 H 90.6159 -3.62264 1.64346 0
M  V30 973 H 87.3549 -4.89816 4.35616 0
M  V30 974 H 86.8749 -5.35333 2.70516 0
M  V30 975 H 88.5539 -5.59573 3.24787 0
M  V30 976 N 88.686 -0.835752 -1.33615 0
M  V30 977 C 89.633 -0.26473 -2.29277 0
M  V30 978 C 90.603 0.617712 -1.54187 0
M  V30 979 O 91.788 0.556641 -1.825 0
M  V30 980 C 88.928 0.556777 -3.40579 0
M  V30 981 C 88.041 -0.349339 -4.30585 0
M  V30 982 C 87.176 0.482969 -5.29 0
M  V30 983 C 86.215 -0.421732 -6.10645 0
M  V30 984 N 85.352 0.372262 -7.01112 0
M  V30 985 H 90.192 -1.08582 -2.77514 0
M  V30 986 H 87.729 -0.546927 -1.36554 0
M  V30 987 H 89.687 1.04852 -4.03809 0
M  V30 988 H 88.317 1.34286 -2.93542 0
M  V30 989 H 87.369 -0.959372 -3.68104 0
M  V30 990 H 88.681 -1.04445 -4.87742 0
M  V30 991 H 87.835 1.03866 -5.97743 0
M  V30 992 H 86.574 1.21153 -4.72412 0
M  V30 993 H 85.579 -0.989464 -5.40823 0
M  V30 994 H 86.804 -1.14861 -6.69316 0
M  V30 995 H 84.75 1.08426 -6.46977 0
M  V30 996 H 84.667 -0.264198 -7.55538 0
M  V30 997 H 85.935 0.910293 -7.74167 0
M  V30 998 N 90.1641 1.46063 -0.591896 0
M  V30 999 C 91.4411 1.95595 -0.0137119 0
M  V30 1000 C 91.8211 1.5345 1.4497 0
M  V30 1001 O 91.1691 0.789543 2.14426 0
M  V30 1002 C 91.3791 3.48453 -0.195373 0
M  V30 1003 C 92.7271 4.24546 -0.0679765 0
M  V30 1004 O 93.7511 3.55982 -0.124681 0
M  V30 1005 O 92.6101 5.46467 0.0600579 0
M  V30 1006 H 89.7041 0.825795 0.0446279 0
M  V30 1007 H 92.2501 1.56303 -0.660859 0
M  V30 1008 H 91.0221 3.72045 -1.21235 0
M  V30 1009 H 90.6451 3.94597 0.487775 0
M  V30 1010 N 91.6422 0.330177 1.54103 0
M  V30 1011 C 93.0532 -0.15652 1.86043 0
M  V30 1012 C 93.4042 -1.51086 1.2517 0
M  V30 1013 O 92.5292 -2.09023 0.560217 0
M  V30 1014 C 93.1242 -0.290784 3.3755 0
M  V30 1015 C 91.6832 -0.721705 3.69416 0
M  V30 1016 C 90.8302 0.152622 2.7688 0
M  V30 1017 H 93.7812 0.550237 1.48856 0
M  V30 1018 H 93.8022 -1.12058 3.63625 0
M  V30 1019 H 93.3142 0.695068 3.81825 0
M  V30 1020 H 91.4152 -1.71706 3.30678 0
M  V30 1021 H 91.5282 -0.520869 4.7626 0
M  V30 1022 H 89.8922 -0.372894 2.51956 0
M  V30 1023 H 90.6752 1.13536 3.23982 0
M  V30 1024 N 93.1203 -1.57491 0.0584922 0
M  V30 1025 C 94.0503 -2.14988 -0.911178 0
M  V30 1026 C 95.0313 -1.07343 -1.31952 0
M  V30 1027 O 96.2163 -1.35318 -1.39294 0
M  V30 1028 C 93.3463 -2.70078 -2.18347 0
M  V30 1029 C 92.3003 -3.82771 -1.91495 0
M  V30 1030 C 91.6263 -4.24408 -3.25241 0
M  V30 1031 C 92.9263 -5.07592 -1.23075 0
M  V30 1032 H 94.6203 -2.96263 -0.432246 0
M  V30 1033 H 92.1663 -1.42512 -0.206469 0
M  V30 1034 H 94.1193 -3.08943 -2.86587 0
M  V30 1035 H 92.8433 -1.86005 -2.68458 0
M  V30 1036 H 91.5023 -3.44389 -1.25664 0
M  V30 1037 H 91.1503 -3.37275 -3.73168 0
M  V30 1038 H 90.8503 -5.00366 -3.08071 0
M  V30 1039 H 92.3743 -4.65879 -3.94701 0
M  V30 1040 H 93.7883 -5.43857 -1.81362 0
M  V30 1041 H 92.1853 -5.88741 -1.16207 0
M  V30 1042 H 93.2553 -4.84454 -0.207847 0
M  V30 1043 N 94.5984 0.214957 -1.56127 0
M  V30 1044 C 95.5284 1.2695 -1.95974 0
M  V30 1045 C 96.5094 1.48539 -0.828868 0
M  V30 1046 O 97.6944 1.60611 -1.09168 0
M  V30 1047 C 94.8244 2.61794 -2.28214 0
M  V30 1048 C 93.7784 2.54851 -3.43853 0
M  V30 1049 C 93.1044 3.93785 -3.61715 0
M  V30 1050 C 94.4044 2.09065 -4.78632 0
M  V30 1051 H 96.0984 0.93846 -2.84312 0
M  V30 1052 H 93.6444 0.449996 -1.36788 0
M  V30 1053 H 95.5974 3.35731 -2.54682 0
M  V30 1054 H 94.3214 2.96599 -1.36736 0
M  V30 1055 H 92.9804 1.8337 -3.17444 0
M  V30 1056 H 92.6284 4.25908 -2.67602 0
M  V30 1057 H 92.3284 3.90019 -4.39498 0
M  V30 1058 H 93.8524 4.69374 -3.90539 0
M  V30 1059 H 95.2664 2.7275 -5.04262 0
M  V30 1060 H 93.6634 2.16346 -5.59745 0
M  V30 1061 H 94.7334 1.04315 -4.73547 0
M  V30 1062 N 96.0765 1.50051 0.48192 0
M  V30 1063 C 97.0245 1.68635 1.60203 0
M  V30 1064 C 98.0185 0.552184 1.60148 0
M  V30 1065 O 99.2245 0.732377 1.64427 0
M  V30 1066 H 95.5995 0.532081 0.531407 0
M  V30 1067 H 97.5705 2.62616 1.41688 0
M  V30 1068 C 96.3195 1.78775 2.9822 0
M  V30 1069 H 95.6425 2.6543 2.98976 0
M  V30 1070 H 97.0825 1.95806 3.7608 0
M  V30 1071 C 95.5415 0.536849 3.32595 0
M  V30 1072 O 96.0715 -0.328897 4.00351 0
M  V30 1073 N 94.2775 0.394091 2.87915 0
M  V30 1074 H 93.8245 1.09962 2.32951 0
M  V30 1075 H 93.7825 -0.441737 3.11281 0
M  V30 1076 N 97.5546 -0.734337 1.39446 0
M  V30 1077 C 98.5046 -1.83949 1.34709 0
M  V30 1078 C 99.4886 -1.59279 0.227851 0
M  V30 1079 O 100.681 -1.70771 0.465438 0
M  V30 1080 C 97.8096 -3.21884 1.19356 0
M  V30 1081 C 96.8956 -3.52381 2.35984 0
M  V30 1082 N 97.2866 -3.53811 3.61457 0
M  V30 1083 C 95.5846 -3.82747 2.28956 0
M  V30 1084 C 96.2856 -3.82122 4.38586 0
M  V30 1085 N 95.2616 -3.9993 3.68181 0
M  V30 1086 H 99.0636 -1.83361 2.29687 0
M  V30 1087 H 96.5776 -0.932609 1.32952 0
M  V30 1088 H 98.5746 -4.00998 1.14046 0
M  V30 1089 H 97.2346 -3.23711 0.253295 0
M  V30 1090 H 98.2456 -3.35107 3.94872 0
M  V30 1091 H 94.9226 -3.92175 1.43194 0
M  V30 1092 H 96.3126 -3.89691 5.47349 0
M  V30 1093 N 99.0327 -1.24633 -0.964593 0
M  V30 1094 C 100.282 -1.08188 -1.7023 0
M  V30 1095 C 100.595 0.37873 -1.91898 0
M  V30 1096 O 101.801 0.663427 -2.6327 0
M  V30 1097 C 100.257 -1.88773 -3.06419 0
M  V30 1098 C 99.8647 -3.39263 -2.92582 0
M  V30 1099 C 101.609 -1.80867 -3.84041 0
M  V30 1100 C 99.5157 -4.1218 -4.24101 0
M  V30 1101 H 98.4457 -0.401245 -0.638372 0
M  V30 1102 H 101.097 -1.48742 -1.07462 0
M  V30 1103 H 99.4787 -1.41035 -3.70034 0
M  V30 1104 H 100.653 -3.94603 -2.37961 0
M  V30 1105 H 98.9677 -3.48154 -2.28424 0
M  V30 1106 H 101.565 -2.32646 -4.81435 0
M  V30 1107 H 101.908 -0.774543 -4.09031 0
M  V30 1108 H 102.441 -2.26301 -3.27159 0
M  V30 1109 H 99.1797 -5.15965 -4.04303 0
M  V30 1110 H 98.6997 -3.61626 -4.78526 0
M  V30 1111 H 100.379 -4.19349 -4.92702 0
M  V30 1112 N 100.511 1.16574 -1.06058 0
M  V30 1113 C 101.459 2.22941 -0.663343 0
M  V30 1114 C 102.453 1.66358 0.319593 0
M  V30 1115 O 103.659 1.7905 0.184713 0
M  V30 1116 H 100.034 0.725907 -0.196376 0
M  V30 1117 H 102.005 2.53736 -1.57037 0
M  V30 1118 C 100.754 3.47642 -0.0632808 0
M  V30 1119 H 100.077 3.91493 -0.810733 0
M  V30 1120 H 101.517 4.2363 0.177177 0
M  V30 1121 C 99.9758 3.1509 1.19248 0
M  V30 1122 O 100.506 3.30673 2.28075 0
M  V30 1123 N 98.7118 2.6924 1.09353 0
M  V30 1124 H 98.2588 2.5676 0.207912 0
M  V30 1125 H 98.2168 2.47833 1.93458 0
M  V30 1126 N 101.989 0.842826 1.3317 0
M  V30 1127 C 103.238 0.436738 1.96915 0
M  V30 1128 C 103.551 -1.01025 1.67491 0
M  V30 1129 O 104.757 -1.5212 2.24881 0
M  V30 1130 C 103.213 0.730021 3.52418 0
M  V30 1131 C 102.821 2.19195 3.90714 0
M  V30 1132 C 104.565 0.391076 4.22695 0
M  V30 1133 C 102.472 2.42907 5.39212 0
M  V30 1134 H 101.402 0.15958 0.736919 0
M  V30 1135 H 104.053 1.03196 1.51733 0
M  V30 1136 H 102.435 0.0643755 3.95948 0
M  V30 1137 H 103.609 2.8984 3.58231 0
M  V30 1138 H 101.924 2.49425 3.33431 0
M  V30 1139 H 104.521 0.545817 5.31907 0
M  V30 1140 H 104.864 -0.666294 4.10933 0
M  V30 1141 H 105.397 1.01212 3.84709 0
M  V30 1142 H 102.136 3.47224 5.55982 0
M  V30 1143 H 101.656 1.76827 5.73142 0
M  V30 1144 H 103.335 2.2626 6.06148 0
M  V30 1145 N 103.467 -1.45747 0.599634 0
M  V30 1146 C 104.713 -2.02592 0.0918643 0
M  V30 1147 C 105.046 -1.46806 -1.27128 0
M  V30 1148 O 104.321 -0.639658 -1.83681 0
M  V30 1149 C 104.604 -3.60073 0.0443398 0
M  V30 1150 C 104.457 -4.26208 1.43759 0
M  V30 1151 C 105.776 -4.35309 -0.647608 0
M  V30 1152 H 102.895 -0.736175 0.034857 0
M  V30 1153 H 105.537 -1.73694 0.770081 0
M  V30 1154 H 103.687 -3.84823 -0.533224 0
M  V30 1155 H 105.359 -4.12668 2.06162 0
M  V30 1156 H 103.602 -3.84916 2.00056 0
M  V30 1157 H 104.273 -5.35069 1.35665 0
M  V30 1158 H 106.749 -4.15805 -0.156776 0
M  V30 1159 H 105.625 -5.45038 -0.649942 0
M  V30 1160 H 105.886 -4.07598 -1.71219 0
M  V30 1161 N 104.945 -0.338344 -1.53925 0
M  V30 1162 C 105.855 0.529421 -2.28548 0
M  V30 1163 C 106.871 1.11645 -1.3346 0
M  V30 1164 O 108.047 1.13325 -1.66492 0
M  V30 1165 C 105.112 1.66713 -3.03987 0
M  V30 1166 C 104.173 1.11041 -4.14691 0
M  V30 1167 C 103.406 2.19389 -4.86522 0
M  V30 1168 O 103.629 3.40013 -4.57982 0
M  V30 1169 O 102.563 1.83976 -5.73094 0
M  V30 1170 H 106.389 -0.0770399 -3.03602 0
M  V30 1171 H 103.974 -0.103555 -1.49041 0
M  V30 1172 H 105.856 2.32918 -3.5118 0
M  V30 1173 H 104.531 2.25949 -2.31794 0
M  V30 1174 H 103.438 0.413024 -3.71813 0
M  V30 1175 H 104.771 0.562975 -4.8897 0
M  V30 1176 N 106.423 1.57458 -0.0668435 0
M  V30 1177 C 107.371 2.13639 0.919851 0
M  V30 1178 C 108.365 1.07204 1.31163 0
M  V30 1179 O 109.571 1.25591 1.28945 0
M  V30 1180 H 105.946 0.683048 0.314562 0
M  V30 1181 H 107.917 2.95415 0.421047 0
M  V30 1182 C 106.666 2.70892 2.17975 0
M  V30 1183 H 105.989 3.5246 1.88711 0
M  V30 1184 H 107.429 3.13803 2.85138 0
M  V30 1185 C 105.888 1.65414 2.93496 0
M  V30 1186 O 106.418 1.07619 3.87015 0
M  V30 1187 N 104.624 1.36564 2.56512 0
M  V30 1188 H 104.171 1.83751 1.80536 0
M  V30 1189 H 104.129 0.66223 3.07347 0
M  V30 1190 N 107.901 -0.206675 1.56239 0
M  V30 1191 C 108.851 -1.26 1.90021 0
M  V30 1192 C 109.835 -1.41566 0.764721 0
M  V30 1193 O 111.027 -1.44131 1.02739 0
M  V30 1194 C 108.156 -2.6073 2.23326 0
M  V30 1195 C 107.242 -2.49005 3.43304 0
M  V30 1196 N 107.633 -2.06946 4.61527 0
M  V30 1197 C 105.931 -2.79927 3.47213 0
M  V30 1198 C 106.632 -2.06832 5.43687 0
M  V30 1199 N 105.608 -2.47892 4.83788 0
M  V30 1200 H 109.41 -0.925955 2.78932 0
M  V30 1201 H 106.924 -0.415172 1.57003 0
M  V30 1202 H 108.921 -3.36798 2.45708 0
M  V30 1203 H 107.581 -2.94968 1.35735 0
M  V30 1204 H 108.592 -1.77839 4.86409 0
M  V30 1205 H 105.269 -3.18438 2.70006 0
M  V30 1206 H 106.659 -1.76312 6.48354 0
M  V30 1207 N 109.379 -1.50304 -0.473955 0
M  V30 1208 C 110.289 -1.7174 -1.5982 0
M  V30 1209 C 111.305 -0.600457 -1.63311 0
M  V30 1210 O 112.481 -0.878441 -1.81233 0
M  V30 1211 C 109.546 -1.80427 -2.96052 0
M  V30 1212 C 108.607 -3.04148 -3.02972 0
M  V30 1213 C 107.84 -3.12411 -4.32706 0
M  V30 1214 O 108.063 -2.27542 -5.23049 0
M  V30 1215 O 106.997 -4.05113 -4.45159 0
M  V30 1216 H 110.823 -2.67035 -1.44657 0
M  V30 1217 H 108.408 -1.34366 -0.653148 0
M  V30 1218 H 110.29 -1.88338 -3.7697 0
M  V30 1219 H 108.965 -0.883156 -3.11419 0
M  V30 1220 H 107.872 -3.0174 -2.21142 0
M  V30 1221 H 109.205 -3.95829 -2.92541 0
M  V30 1222 N 110.857 0.726932 -1.39834 0
M  V30 1223 C 112.087 1.51393 -1.40583 0
M  V30 1224 C 112.495 1.892 -0.000740625 0
M  V30 1225 O 111.838 1.55189 0.982951 0
M  V30 1226 C 111.9 2.82588 -2.22226 0
M  V30 1227 C 111.564 2.67169 -3.70769 0
M  V30 1228 C 112.561 2.3518 -4.63666 0
M  V30 1229 C 110.246 2.83788 -4.14451 0
M  V30 1230 C 112.24 2.20002 -5.98229 0
M  V30 1231 C 109.927 2.68229 -5.49087 0
M  V30 1232 C 110.925 2.36382 -6.4079 0
M  V30 1233 O 110.613 2.2093 -7.72946 0
M  V30 1234 H 110.345 0.474168 -0.48181 0
M  V30 1235 H 112.899 0.905247 -1.84376 0
M  V30 1236 H 111.129 3.45746 -1.73195 0
M  V30 1237 H 112.818 3.44247 -2.15055 0
M  V30 1238 H 113.584 2.21984 -4.31217 0
M  V30 1239 H 109.463 3.07566 -3.43401 0
M  V30 1240 H 113.007 1.95067 -6.69772 0
M  V30 1241 H 108.904 2.81006 -5.81125 0
M  V30 1242 H 109.672 2.35937 -7.83757 0
M  V30 1243 N 112.336 1.25143 0.95797 0
M  V30 1244 C 113.585 1.0909 1.69654 0
M  V30 1245 C 113.898 -0.368548 1.92097 0
M  V30 1246 O 115.104 -0.649455 2.63618 0
M  V30 1247 C 113.56 1.90395 3.05414 0
M  V30 1248 C 113.168 3.4081 2.90779 0
M  V30 1249 C 114.912 1.82901 3.83076 0
M  V30 1250 C 112.819 4.14423 4.21909 0
M  V30 1251 H 111.749 0.404625 0.636235 0
M  V30 1252 H 114.4 1.4931 1.06672 0
M  V30 1253 H 112.782 1.42996 3.69281 0
M  V30 1254 H 113.956 3.95859 2.35865 0
M  V30 1255 H 112.271 3.49361 2.26575 0
M  V30 1256 H 114.868 2.35196 4.80195 0
M  V30 1257 H 115.211 0.796224 4.08615 0
M  V30 1258 H 115.744 2.28033 3.25954 0
M  V30 1259 H 112.483 5.18102 4.01561 0
M  V30 1260 H 112.003 3.64159 4.76601 0
M  V30 1261 H 113.682 4.21956 4.90471 0
M  V30 1262 N 113.814 -1.1601 1.06675 0
M  V30 1263 C 114.744 -2.22688 0.702307 0
M  V30 1264 C 115.725 -1.67306 -0.307032 0
M  V30 1265 O 116.91 -1.93352 -0.181305 0
M  V30 1266 C 114.04 -3.47178 0.092038 0
M  V30 1267 C 112.994 -4.15477 1.02777 0
M  V30 1268 C 112.32 -5.33963 0.28061 0
M  V30 1269 C 113.62 -4.66019 2.35846 0
M  V30 1270 H 115.314 -2.53429 1.59419 0
M  V30 1271 H 112.86 -1.21813 0.767961 0
M  V30 1272 H 114.813 -4.21037 -0.174814 0
M  V30 1273 H 113.537 -3.15749 -0.834877 0
M  V30 1274 H 112.196 -3.43549 1.27944 0
M  V30 1275 H 111.844 -4.98788 -0.649545 0
M  V30 1276 H 111.544 -5.806 0.904258 0
M  V30 1277 H 113.068 -6.10596 0.021396 0
M  V30 1278 H 114.482 -5.3144 2.15045 0
M  V30 1279 H 112.879 -5.23293 2.93743 0
M  V30 1280 H 113.949 -3.82023 2.98641 0
M  V30 1281 N 115.292 -0.849877 -1.32721 0
M  V30 1282 C 116.538 -0.451591 -1.97708 0
M  V30 1283 C 116.871 0.989175 -1.6712 0
M  V30 1284 O 116.146 1.69334 -0.956891 0
M  V30 1285 C 116.429 -0.685598 -3.53513 0
M  V30 1286 C 116.282 -2.17444 -3.93749 0
M  V30 1287 C 117.601 -0.138874 -4.39881 0
M  V30 1288 H 114.72 -0.16555 -0.718166 0
M  V30 1289 H 117.362 -1.06742 -1.57182 0
M  V30 1290 H 115.512 -0.161416 -3.88165 0
M  V30 1291 H 117.184 -2.76433 -3.693 0
M  V30 1292 H 115.427 -2.65476 -3.43081 0
M  V30 1293 H 116.098 -2.28888 -5.02309 0
M  V30 1294 H 118.574 -0.587068 -4.11938 0
M  V30 1295 H 117.45 -0.332213 -5.47894 0
M  V30 1296 H 117.711 0.95806 -4.31594 0
M  V30 1297 N 116.77 1.45427 -0.607355 0
M  V30 1298 C 117.7 2.3329 0.0989352 0
M  V30 1299 C 118.681 1.46816 0.859007 0
M  V30 1300 O 119.866 1.75588 0.829604 0
M  V30 1301 C 116.996 3.29518 1.09705 0
M  V30 1302 C 115.95 4.25626 0.450206 0
M  V30 1303 C 115.276 5.11542 1.55655 0
M  V30 1304 C 116.576 5.18505 -0.628455 0
M  V30 1305 H 118.27 2.92595 -0.634716 0
M  V30 1306 H 115.816 1.40696 -0.306681 0
M  V30 1307 H 117.769 3.89855 1.59971 0
M  V30 1308 H 116.493 2.68372 1.86129 0
M  V30 1309 H 115.152 3.66586 -0.0315886 0
M  V30 1310 H 114.8 4.46765 2.31107 0
M  V30 1311 H 114.5 5.76647 1.12925 0
M  V30 1312 H 116.024 5.74748 2.06148 0
M  V30 1313 H 117.438 5.72916 -0.209877 0
M  V30 1314 H 115.835 5.92085 -0.977489 0
M  V30 1315 H 116.905 4.60948 -1.50514 0
M  V30 1316 N 118.248 0.346503 1.53744 0
M  V30 1317 C 119.659 -0.136779 1.86198 0
M  V30 1318 C 120.01 -1.49749 1.26766 0
M  V30 1319 O 119.135 -2.08417 0.582355 0
M  V30 1320 C 119.73 -0.254966 3.37839 0
M  V30 1321 C 118.289 -0.682482 3.70161 0
M  V30 1322 C 117.436 0.181981 2.76702 0
M  V30 1323 H 120.387 0.565994 1.48264 0
M  V30 1324 H 120.408 -1.08195 3.64793 0
M  V30 1325 H 119.92 0.735526 3.81066 0
M  V30 1326 H 118.021 -1.68189 3.3248 0
M  V30 1327 H 118.134 -0.470326 4.76786 0
M  V30 1328 H 116.498 -0.34615 2.52337 0
M  V30 1329 H 117.281 1.16966 3.2276 0
M  V30 1330 N 119.726 -1.57421 0.075193 0
M  V30 1331 C 120.689 -2.11791 -0.876203 0
M  V30 1332 C 121.689 -1.04268 -1.22412 0
M  V30 1333 O 122.879 -1.30242 -1.15684 0
M  V30 1334 C 120.011 -2.62207 -2.17854 0
M  V30 1335 H 121.204 -2.9716 -0.40444 0
M  V30 1336 H 118.757 -1.55333 -0.173557 0
M  V30 1337 H 119.492 -1.803 -2.6956 0
M  V30 1338 H 119.277 -3.40802 -1.93897 0
M  V30 1339 H 120.767 -3.04335 -2.85955 0
M  V30 1340 N 121.204 0.198386 -1.56346 0
M  V30 1341 C 122.429 0.939682 -1.84891 0
M  V30 1342 C 122.854 1.76202 -0.658369 0
M  V30 1343 O 122.212 1.76993 0.392851 0
M  V30 1344 C 122.26 1.81428 -3.11635 0
M  V30 1345 O 121.364 2.91265 -2.91956 0
M  V30 1346 H 120.705 0.264807 -0.608912 0
M  V30 1347 H 123.235 0.204695 -2.03573 0
M  V30 1348 H 123.245 2.21958 -3.42343 0
M  V30 1349 H 121.92 1.21004 -3.97908 0
M  V30 1350 H 120.497 2.54514 -2.72538 0
M  V30 1351 N 122.682 1.50554 0.465978 0
M  V30 1352 C 123.645 1.69233 1.54574 0
M  V30 1353 C 124.645 0.562901 1.50626 0
M  V30 1354 O 125.835 0.830016 1.53155 0
M  V30 1355 C 122.967 1.7223 2.94193 0
M  V30 1356 H 124.16 2.65571 1.39327 0
M  V30 1357 H 121.713 1.40111 0.692711 0
M  V30 1358 H 122.448 0.77603 3.14878 0
M  V30 1359 H 122.233 2.54285 2.98466 0
M  V30 1360 H 123.723 1.88618 3.72576 0
M  V30 1361 N 124.16 -0.719506 1.40217 0
M  V30 1362 C 125.108 -1.85493 1.40339 0
M  V30 1363 C 126.102 -1.66995 0.284415 0
M  V30 1364 O 127.308 -1.74148 0.455252 0
M  V30 1365 H 123.683 -0.610857 0.438586 0
M  V30 1366 H 125.654 -1.82506 2.36081 0
M  V30 1367 C 124.403 -3.23321 1.27901 0
M  V30 1368 H 123.726 -3.38159 2.1328 0
M  V30 1369 H 125.166 -4.02914 1.32045 0
M  V30 1370 C 123.625 -3.36898 -0.0111355 0
M  V30 1371 O 124.155 -3.89674 -0.975538 0
M  V30 1372 N 122.361 -2.90492 -0.0793393 0
M  V30 1373 H 121.908 -2.47731 0.706183 0
M  V30 1374 H 121.866 -2.99955 -0.942038 0
M  V30 1375 N 125.638 -1.25649 -0.95132 0
M  V30 1376 C 126.866 -1.13343 -1.73092 0
M  V30 1377 C 127.281 0.312434 -1.86197 0
M  V30 1378 O 126.638 1.21465 -1.36207 0
M  V30 1379 C 126.689 -1.78602 -3.14299 0
M  V30 1380 O 126.41 -3.17537 -3.01831 0
M  V30 1381 C 127.911 -1.72119 -4.08522 0
M  V30 1382 H 125.131 -0.395181 -0.542285 0
M  V30 1383 H 127.675 -1.66076 -1.19328 0
M  V30 1384 H 125.83 -1.29832 -3.64996 0
M  V30 1385 H 126.244 -3.49676 -3.90931 0
M  V30 1386 H 127.718 -2.22435 -5.052 0
M  V30 1387 H 128.195 -0.685635 -4.33815 0
M  V30 1388 H 128.801 -2.20393 -3.63741 0
M  V30 1389 N 127.117 1.15442 -1.07289 0
M  V30 1390 C 128.366 1.85557 -0.790669 0
M  V30 1391 C 128.679 1.83186 0.685739 0
M  V30 1392 O 129.885 2.48977 1.0827 0
M  V30 1393 C 128.341 3.33038 -1.36433 0
M  V30 1394 C 127.949 3.43856 -2.8717 0
M  V30 1395 C 129.693 4.0834 -1.1601 0
M  V30 1396 C 127.6 4.85482 -3.3773 0
M  V30 1397 H 126.53 0.695122 -0.292098 0
M  V30 1398 H 129.181 1.30219 -1.29287 0
M  V30 1399 H 127.563 3.88043 -0.789864 0
M  V30 1400 H 128.737 2.98961 -3.50655 0
M  V30 1401 H 127.052 2.81998 -3.06376 0
M  V30 1402 H 129.649 5.12859 -1.51262 0
M  V30 1403 H 129.992 4.16182 -0.0991007 0
M  V30 1404 H 130.525 3.59603 -1.70089 0
M  V30 1405 H 127.264 4.82823 -4.43353 0
M  V30 1406 H 126.784 5.30961 -2.78999 0
M  V30 1407 H 128.463 5.54335 -3.33648 0
M  V30 1408 N 128.595 0.856903 1.32268 0
M  V30 1409 C 129.543 0.291987 2.3076 0
M  V30 1410 C 130.537 -0.585857 1.58947 0
M  V30 1411 O 131.743 -0.47341 1.73663 0
M  V30 1412 H 128.118 0.075721 0.748178 0
M  V30 1413 H 130.089 1.13687 2.75895 0
M  V30 1414 C 128.838 -0.502869 3.44044 0
M  V30 1415 H 128.161 0.163328 3.99466 0
M  V30 1416 H 129.601 -0.863691 4.1511 0
M  V30 1417 C 128.06 -1.68898 2.91505 0
M  V30 1418 O 128.59 -2.78811 2.89184 0
M  V30 1419 N 126.796 -1.51679 2.47875 0
M  V30 1420 H 126.343 -0.622666 2.49961 0
M  V30 1421 H 126.301 -2.31184 2.13076 0
M  V30 1422 N 130.073 -1.45103 0.615059 0
M  V30 1423 C 131.02 -2.30586 -0.0993978 0
M  V30 1424 C 131.99 -1.42544 -0.852669 0
M  V30 1425 O 133.175 -1.71465 -0.836917 0
M  V30 1426 C 130.315 -3.27572 -1.08583 0
M  V30 1427 C 129.428 -4.30717 -0.332656 0
M  V30 1428 C 128.563 -5.14807 -1.30947 0
M  V30 1429 C 127.602 -6.09673 -0.544538 0
M  V30 1430 N 126.739 -6.86517 -1.47101 0
M  V30 1431 H 131.579 -2.91144 0.635542 0
M  V30 1432 H 129.116 -1.4346 0.325206 0
M  V30 1433 H 131.074 -3.82276 -1.67095 0
M  V30 1434 H 129.704 -2.68751 -1.78809 0
M  V30 1435 H 128.756 -3.78615 0.368107 0
M  V30 1436 H 130.068 -4.98102 0.263842 0
M  V30 1437 H 129.222 -5.73948 -1.96643 0
M  V30 1438 H 127.961 -4.47458 -1.9399 0
M  V30 1439 H 126.966 -5.49656 0.126003 0
M  V30 1440 H 128.191 -6.79052 0.080947 0
M  V30 1441 H 126.137 -6.21851 -2.08895 0
M  V30 1442 H 126.054 -7.50281 -0.928137 0
M  V30 1443 H 127.322 -7.50194 -2.11731 0
M  V30 1444 N 131.551 -0.354651 -1.53558 0
M  V30 1445 C 132.8 0.239504 -2.00273 0
M  V30 1446 C 133.113 1.50759 -1.24623 0
M  V30 1447 O 134.319 2.17968 -1.61871 0
M  V30 1448 C 132.775 0.477341 -3.5672 0
M  V30 1449 C 132.383 -0.775488 -4.41237 0
M  V30 1450 C 134.127 1.02975 -4.11821 0
M  V30 1451 C 132.034 -0.507838 -5.89216 0
M  V30 1452 H 130.964 0.0932743 -0.748208 0
M  V30 1453 H 133.615 -0.471701 -1.77334 0
M  V30 1454 H 131.997 1.24953 -3.7577 0
M  V30 1455 H 133.171 -1.54963 -4.33962 0
M  V30 1456 H 131.486 -1.25033 -3.97185 0
M  V30 1457 H 134.083 1.24513 -5.2 0
M  V30 1458 H 134.426 1.98862 -3.65731 0
M  V30 1459 H 134.959 0.317994 -3.96527 0
M  V30 1460 H 131.698 -1.43674 -6.39561 0
M  V30 1461 H 131.218 0.228011 -5.99366 0
M  V30 1462 H 132.897 -0.129238 -6.46871 0
M  V30 1463 N 133.029 1.57378 -0.0835403 0
M  V30 1464 C 133.992 2.12252 0.864959 0
M  V30 1465 C 134.992 1.04916 1.21858 0
M  V30 1466 O 136.182 1.30853 1.14991 0
M  V30 1467 C 133.314 2.63358 2.16461 0
M  V30 1468 H 134.507 2.97371 0.388676 0
M  V30 1469 H 132.06 1.55423 0.165317 0
M  V30 1470 H 132.795 1.81727 2.686 0
M  V30 1471 H 132.58 3.41826 1.92087 0
M  V30 1472 H 134.07 3.05847 2.84337 0
M  V30 1473 N 134.507 -0.190092 1.56449 0
M  V30 1474 C 135.455 -1.25501 1.95837 0
M  V30 1475 C 136.449 -1.4685 0.844485 0
M  V30 1476 O 137.655 -1.47651 1.02952 0
M  V30 1477 H 134.03 -0.421447 0.622805 0
M  V30 1478 H 136.001 -0.895821 2.84636 0
M  V30 1479 C 134.75 -2.59124 2.31841 0
M  V30 1480 H 134.073 -2.43514 3.17082 0
M  V30 1481 H 135.513 -3.32371 2.6326 0
M  V30 1482 C 133.972 -3.16488 1.15486 0
M  V30 1483 O 134.502 -3.99365 0.432535 0
M  V30 1484 N 132.708 -2.75305 0.930349 0
M  V30 1485 H 132.255 -2.08013 1.51948 0
M  V30 1486 H 132.213 -3.14024 0.153634 0
M  V30 1487 N 135.985 -1.50799 -0.457987 0
M  V30 1488 C 137.233 -1.62121 -1.2067 0
M  V30 1489 C 137.554 -0.329793 -1.92191 0
M  V30 1490 O 136.824 0.653409 -1.84682 0
M  V30 1491 H 135.404 -0.597441 -0.448411 0
M  V30 1492 H 138.066 -1.87637 -0.527096 0
M  V30 1493 H 137.162 -2.43882 -1.94751 0
M  V30 1494 N 137.463 0.71206 -1.40597 0
M  V30 1495 C 138.712 1.46754 -1.38369 0
M  V30 1496 C 139.025 1.95598 0.0097839 0
M  V30 1497 O 140.231 2.71059 0.154677 0
M  V30 1498 C 138.687 2.65289 -2.43207 0
M  V30 1499 C 138.295 2.23301 -3.88382 0
M  V30 1500 C 140.039 3.43008 -2.50091 0
M  V30 1501 C 137.946 3.38696 -4.84808 0
M  V30 1502 H 136.876 0.55118 -0.514506 0
M  V30 1503 H 139.527 0.774616 -1.66349 0
M  V30 1504 H 137.909 3.36769 -2.08332 0
M  V30 1505 H 139.083 1.59218 -4.32419 0
M  V30 1506 H 137.398 1.58618 -3.85006 0
M  V30 1507 H 139.995 4.28881 -3.1932 0
M  V30 1508 H 140.338 3.87065 -1.53253 0
M  V30 1509 H 140.871 2.78574 -2.83974 0
M  V30 1510 H 137.61 2.99668 -5.82992 0
M  V30 1511 H 137.13 4.01683 -4.45433 0
M  V30 1512 H 138.809 4.04712 -5.04794 0
M  V30 1513 N 138.941 1.26152 0.944643 0
M  V30 1514 C 140.181 1.12708 1.70517 0
M  V30 1515 C 140.545 -0.324727 1.89234 0
M  V30 1516 O 141.746 -0.581211 2.62441 0
M  V30 1517 C 140.017 1.8713 3.04495 0
M  V30 1518 S 141.576 1.89698 3.95677 0
M  V30 1519 H 138.394 0.402665 0.585988 0
M  V30 1520 H 140.996 1.59821 1.12594 0
M  V30 1521 H 139.7 2.91833 2.88551 0
M  V30 1522 H 139.231 1.40444 3.67477 0
M  V30 1523 H 141.246 0.981198 4.86402 0
M  V30 1524 N 140.419 -1.14872 1.07899 0
M  V30 1525 C 141.696 -1.81928 0.71845 0
M  V30 1526 C 142.076 -1.95417 -0.798455 0
M  V30 1527 O 141.424 -1.50997 -1.715 0
M  V30 1528 C 141.634 -3.17937 1.43935 0
M  V30 1529 C 142.982 -3.93501 1.59506 0
M  V30 1530 O 144.006 -3.27509 1.40058 0
M  V30 1531 O 142.865 -5.1183 1.91551 0
M  V30 1532 H 139.959 -0.78628 0.256305 0
M  V30 1533 H 142.505 -1.21934 1.18026 0
M  V30 1534 H 141.277 -3.0325 2.47295 0
M  V30 1535 H 140.9 -3.85619 0.968687 0
M  V30 1536 N 141.898 -0.863906 -1.31812 0
M  V30 1537 C 142.846 -0.30422 -2.30602 0
M  V30 1538 C 143.84 0.577419 -1.59255 0
M  V30 1539 O 145.046 0.464194 -1.73912 0
M  V30 1540 H 141.421 -0.0796877 -0.747766 0
M  V30 1541 H 143.392 -1.15148 -2.75288 0
M  V30 1542 C 142.141 0.484617 -3.44306 0
M  V30 1543 H 141.464 -0.18451 -3.99374 0
M  V30 1544 H 142.904 0.841664 -4.15562 0
M  V30 1545 C 141.363 1.6735 -2.92396 0
M  V30 1546 O 141.893 2.77273 -2.90659 0
M  V30 1547 N 140.099 1.50362 -2.48676 0
M  V30 1548 H 139.646 0.609402 -2.50288 0
M  V30 1549 H 139.604 2.30051 -2.14299 0
M  V30 1550 N 143.376 1.44774 -0.622745 0
M  V30 1551 C 144.306 2.33382 0.0741861 0
M  V30 1552 C 145.287 1.47719 0.843387 0
M  V30 1553 O 146.472 1.76458 0.810934 0
M  V30 1554 C 143.602 3.30663 1.06204 0
M  V30 1555 C 142.556 4.26079 0.405037 0
M  V30 1556 C 141.882 5.13165 1.5022 0
M  V30 1557 C 143.182 5.1781 -0.683414 0
M  V30 1558 H 144.876 2.91905 -0.665713 0
M  V30 1559 H 142.422 1.40363 -0.321587 0
M  V30 1560 H 144.375 3.9153 1.55827 0
M  V30 1561 H 143.099 2.70331 1.83272 0
M  V30 1562 H 141.758 3.66532 -0.0704683 0
M  V30 1563 H 141.406 4.49191 2.26355 0
M  V30 1564 H 141.106 5.77812 1.06803 0
M  V30 1565 H 142.63 5.76902 2.00041 0
M  V30 1566 H 144.044 5.72661 -0.270631 0
M  V30 1567 H 142.441 5.91015 -1.04023 0
M  V30 1568 H 143.511 4.59326 -1.55395 0
M  V30 1569 N 144.854 0.36279 1.53368 0
M  V30 1570 C 145.784 -0.476976 2.28576 0
M  V30 1571 C 146.765 -1.08631 1.30894 0
M  V30 1572 O 147.95 -1.10409 1.59761 0
M  V30 1573 C 145.08 -1.61828 3.07293 0
M  V30 1574 C 144.034 -1.13633 4.1264 0
M  V30 1575 C 143.36 -2.36766 4.79423 0
M  V30 1576 C 144.66 -0.223061 5.21823 0
M  V30 1577 H 146.354 0.150474 2.99022 0
M  V30 1578 H 143.9 0.0738103 1.43811 0
M  V30 1579 H 145.853 -2.21237 3.58653 0
M  V30 1580 H 144.577 -2.27292 2.34533 0
M  V30 1581 H 143.236 -0.564945 3.62221 0
M  V30 1582 H 142.884 -3.0068 4.03238 0
M  V30 1583 H 142.584 -2.05192 5.50609 0
M  V30 1584 H 144.108 -2.96865 5.33576 0
M  V30 1585 H 145.522 -0.724545 5.68703 0
M  V30 1586 H 143.919 0.001678 6.001 0
M  V30 1587 H 144.989 0.735553 4.79289 0
M  V30 1588 N 146.332 -1.57332 0.0918853 0
M  V30 1589 C 147.56 -1.98574 -0.581048 0
M  V30 1590 C 147.975 -0.970903 -1.61923 0
M  V30 1591 O 147.332 0.0399054 -1.82456 0
M  V30 1592 C 147.383 -3.39872 -1.23164 0
M  V30 1593 O 147.104 -4.37469 -0.234989 0
M  V30 1594 C 148.605 -3.96099 -1.99049 0
M  V30 1595 H 145.825 -0.65261 -0.156018 0
M  V30 1596 H 148.369 -2.0379 0.170225 0
M  V30 1597 H 146.524 -3.35679 -1.93386 0
M  V30 1598 H 146.938 -5.19751 -0.70418 0
M  V30 1599 H 148.412 -4.97127 -2.39934 0
M  V30 1600 H 148.889 -3.3374 -2.85507 0
M  V30 1601 H 149.495 -4.03755 -1.3365 0
M  V30 1602 N 147.81 0.181792 -1.56548 0
M  V30 1603 C 149.038 0.915947 -1.85521 0
M  V30 1604 C 149.453 1.76282 -0.676016 0
M  V30 1605 O 148.81 1.79012 0.355077 0
M  V30 1606 C 148.861 1.80126 -3.13427 0
M  V30 1607 O 148.582 0.988562 -4.26801 0
M  V30 1608 C 150.083 2.64597 -3.55673 0
M  V30 1609 H 147.303 0.26661 -0.61576 0
M  V30 1610 H 149.847 0.185039 -2.03661 0
M  V30 1611 H 148.002 2.48563 -2.97145 0
M  V30 1612 H 148.416 1.59308 -4.99721 0
M  V30 1613 H 149.89 3.2235 -4.48101 0
M  V30 1614 H 150.367 3.38958 -2.79292 0
M  V30 1615 H 150.973 2.0151 -3.74532 0
M  V30 1616 N 149.288 1.51039 0.449983 0
M  V30 1617 C 150.534 1.63322 1.20223 0
M  V30 1618 C 150.867 0.34241 1.91158 0
M  V30 1619 O 150.142 -0.657344 1.83055 0
M  V30 1620 C 150.425 2.82801 2.22925 0
M  V30 1621 C 150.278 4.21823 1.56157 0
M  V30 1622 C 151.597 2.97807 3.24035 0
M  V30 1623 H 148.716 0.594407 0.435718 0
M  V30 1624 H 151.358 1.83489 0.493136 0
M  V30 1625 H 149.508 2.65738 2.834 0
M  V30 1626 H 151.18 4.50526 0.991162 0
M  V30 1627 H 149.423 4.25105 0.864172 0
M  V30 1628 H 150.094 5.01391 2.30891 0
M  V30 1629 H 152.57 3.13497 2.73603 0
M  V30 1630 H 151.446 3.82992 3.93202 0
M  V30 1631 H 151.707 2.09328 3.89402 0
M  V30 1632 N 150.766 -0.704594 1.40972 0
M  V30 1633 C 152.006 -1.47691 1.41304 0
M  V30 1634 C 152.37 -1.91992 0.0178582 0
M  V30 1635 O 153.571 -2.68599 -0.103996 0
M  V30 1636 C 151.842 -2.66254 2.38419 0
M  V30 1637 S 153.401 -3.55516 2.57204 0
M  V30 1638 H 150.219 -0.504808 0.500689 0
M  V30 1639 H 152.821 -0.822962 1.77335 0
M  V30 1640 H 151.525 -2.31897 3.38603 0
M  V30 1641 H 151.056 -3.3655 2.03711 0
M  V30 1642 H 153.071 -4.61115 1.83268 0
M  V30 1643 N 152.244 -1.26651 -0.937939 0
M  V30 1644 C 153.174 -1.10993 -2.05433 0
M  V30 1645 C 154.155 -0.0142161 -1.70094 0
M  V30 1646 O 155.34 -0.186837 -1.93299 0
M  V30 1647 C 152.47 -0.745561 -3.39203 0
M  V30 1648 C 151.424 -1.79337 -3.88616 0
M  V30 1649 C 150.75 -1.28324 -5.19073 0
M  V30 1650 C 152.05 -3.19553 -4.13138 0
M  V30 1651 H 153.744 -2.0438 -2.1879 0
M  V30 1652 H 151.29 -0.984041 -1.05131 0
M  V30 1653 H 153.243 -0.622888 -4.16771 0
M  V30 1654 H 151.967 0.22401 -3.25831 0
M  V30 1655 H 150.626 -1.90477 -3.13231 0
M  V30 1656 H 150.274 -0.303414 -5.02084 0
M  V30 1657 H 149.974 -1.98369 -5.53103 0
M  V30 1658 H 151.498 -1.1733 -5.99221 0
M  V30 1659 H 152.912 -3.11471 -4.81309 0
M  V30 1660 H 151.309 -3.87218 -4.58457 0
M  V30 1661 H 152.379 -3.65368 -3.18801 0
M  V30 1662 N 153.722 1.14298 -1.08507 0
M  V30 1663 C 154.95 1.89219 -0.836876 0
M  V30 1664 C 155.365 1.78638 0.611054 0
M  V30 1665 O 154.722 1.14643 1.41998 0
M  V30 1666 C 154.773 3.39158 -1.25116 0
M  V30 1667 O 154.494 3.49449 -2.64229 0
M  V30 1668 C 155.995 4.31073 -1.03398 0
M  V30 1669 H 153.215 0.599328 -0.301739 0
M  V30 1670 H 155.759 1.44746 -1.44461 0
M  V30 1671 H 153.914 3.81251 -0.687514 0
M  V30 1672 H 154.328 4.42589 -2.81452 0
M  V30 1673 H 155.802 5.34646 -1.37323 0
M  V30 1674 H 156.279 4.3919 0.0289259 0
M  V30 1675 H 156.885 3.94738 -1.58311 0
M  V30 1676 N 155.201 0.870884 1.31352 0
M  V30 1677 C 156.449 0.48132 1.96285 0
M  V30 1678 C 156.77 -0.969813 1.69173 0
M  V30 1679 O 156.04 -1.67998 1.00764 0
M  V30 1680 H 154.62 0.175002 0.726212 0
M  V30 1681 H 157.282 1.11087 1.60143 0
M  V30 1682 H 156.378 0.639825 3.05471 0
M  V30 1683 N 156.679 -1.44442 0.630414 0
M  V30 1684 C 157.909 -2.06115 0.141465 0
M  V30 1685 C 158.317 -1.47179 -1.1889 0
M  V30 1686 O 157.66 -0.588873 -1.74006 0
M  V30 1687 C 157.722 -3.59467 -0.0484355 0
M  V30 1688 C 157.386 -4.40864 1.20366 0
M  V30 1689 C 158.383 -4.74391 2.12719 0
M  V30 1690 C 156.068 -4.8125 1.43887 0
M  V30 1691 C 158.062 -5.47186 3.26904 0
M  V30 1692 C 155.749 -5.53795 2.5837 0
M  V30 1693 C 156.747 -5.86682 3.49705 0
M  V30 1694 O 156.435 -6.57749 4.62191 0
M  V30 1695 H 156.167 -0.671648 0.0765792 0
M  V30 1696 H 158.721 -1.86312 0.864695 0
M  V30 1697 H 156.951 -3.77758 -0.826803 0
M  V30 1698 H 158.64 -4.02909 -0.491849 0
M  V30 1699 H 159.406 -4.43728 1.95781 0
M  V30 1700 H 155.285 -4.55073 0.736853 0
M  V30 1701 H 158.829 -5.72773 3.98217 0
M  V30 1702 H 154.726 -5.83872 2.75251 0
M  V30 1703 H 155.494 -6.76217 4.61164 0
M  V30 1704 N 158.157 -0.370918 -1.53173 0
M  V30 1705 C 159.089 0.507823 -2.23503 0
M  V30 1706 C 160.102 1.04182 -1.251 0
M  V30 1707 O 161.291 0.947286 -1.5129 0
M  V30 1708 C 158.391 1.71447 -2.92334 0
M  V30 1709 C 157.564 1.31105 -4.17289 0
M  V30 1710 C 156.623 2.38035 -4.69282 0
M  V30 1711 O 155.649 2.00204 -5.32829 0
M  V30 1712 N 156.851 3.69697 -4.47554 0
M  V30 1713 H 159.616 -0.0946382 -2.99551 0
M  V30 1714 H 157.177 -0.196358 -1.60705 0
M  V30 1715 H 159.169 2.42469 -3.24023 0
M  V30 1716 H 157.739 2.22368 -2.19707 0
M  V30 1717 H 156.959 0.430462 -3.91843 0
M  V30 1718 H 158.247 1.0179 -4.98514 0
M  V30 1719 H 157.645 4.03205 -3.9679 0
M  V30 1720 H 156.202 4.36807 -4.8378 0
M  V30 1721 N 159.635 1.57281 -0.100228 0
M  V30 1722 C 160.582 2.14305 0.856858 0
M  V30 1723 C 161.552 1.06296 1.27634 0
M  V30 1724 O 162.737 1.34109 1.35718 0
M  V30 1725 C 159.877 2.73184 2.10866 0
M  V30 1726 C 158.99 3.95442 1.73925 0
M  V30 1727 C 158.125 4.42468 2.93931 0
M  V30 1728 C 157.164 5.57303 2.5314 0
M  V30 1729 N 156.301 5.99158 3.65997 0
M  V30 1730 H 161.141 2.95772 0.363726 0
M  V30 1731 H 158.678 1.46139 0.167858 0
M  V30 1732 H 160.636 3.05442 2.84185 0
M  V30 1733 H 159.266 1.94437 2.57671 0
M  V30 1734 H 158.318 3.69464 0.905554 0
M  V30 1735 H 159.63 4.78769 1.39935 0
M  V30 1736 H 158.784 4.76537 3.75496 0
M  V30 1737 H 157.523 3.58052 3.31134 0
M  V30 1738 H 156.528 5.22857 1.70003 0
M  V30 1739 H 157.753 6.43471 2.17075 0
M  V30 1740 H 155.699 5.17687 4.02909 0
M  V30 1741 H 155.616 6.77295 3.35869 0
M  V30 1742 H 156.884 6.3786 4.48057 0
M  V30 1743 N 161.113 -0.173488 1.56642 0
M  V30 1744 C 162.043 -1.2171 1.99271 0
M  V30 1745 C 163.024 -1.46289 0.867959 0
M  V30 1746 O 164.209 -1.5766 1.13388 0
M  V30 1747 C 161.339 -2.55651 2.35074 0
M  V30 1748 C 160.293 -2.45645 3.50489 0
M  V30 1749 C 159.619 -3.84056 3.72028 0
M  V30 1750 C 160.919 -1.96302 4.84007 0
M  V30 1751 H 162.613 -0.86275 2.867 0
M  V30 1752 H 160.159 -0.413571 1.37933 0
M  V30 1753 H 162.112 -3.2886 2.63494 0
M  V30 1754 H 160.836 -2.92869 1.44552 0
M  V30 1755 H 159.495 -1.7489 3.22194 0
M  V30 1756 H 159.143 -4.18664 2.788 0
M  V30 1757 H 158.843 -3.7823 4.49684 0
M  V30 1758 H 160.367 -4.58854 4.02846 0
M  V30 1759 H 161.781 -2.59284 5.11317 0
M  V30 1760 H 160.178 -2.01429 5.65284 0
M  V30 1761 H 161.248 -0.917226 4.76146 0
M  V30 1762 N 162.591 -1.51276 -0.441967 0
M  V30 1763 C 163.838 -1.63715 -1.19179 0
M  V30 1764 C 164.166 -0.351175 -1.91303 0
M  V30 1765 O 163.421 0.664524 -1.84072 0
M  V30 1766 C 163.72 -2.78746 -2.23686 0
M  V30 1767 C 163.386 -4.18189 -1.68607 0
M  V30 1768 C 162.048 -4.56125 -1.53308 0
M  V30 1769 C 164.4 -5.05222 -1.28062 0
M  V30 1770 C 161.728 -5.78804 -0.959317 0
M  V30 1771 C 164.08 -6.28476 -0.721162 0
M  V30 1772 C 162.744 -6.65188 -0.55504 0
M  V30 1773 H 162.014 -0.599076 -0.436106 0
M  V30 1774 H 164.661 -1.85296 -0.48351 0
M  V30 1775 H 162.966 -2.51369 -3.00535 0
M  V30 1776 H 164.663 -2.8557 -2.81515 0
M  V30 1777 H 161.253 -3.88277 -1.8149 0
M  V30 1778 H 165.437 -4.76524 -1.38704 0
M  V30 1779 H 160.693 -6.05899 -0.81833 0
M  V30 1780 H 164.867 -6.95259 -0.398458 0
M  V30 1781 H 162.494 -7.60123 -0.108311 0
M  V30 1782 N 164.069 0.697108 -1.41344 0
M  V30 1783 C 165.318 1.45279 -1.39918 0
M  V30 1784 C 165.631 1.95597 -0.0109624 0
M  V30 1785 O 166.837 2.71208 0.125919 0
M  V30 1786 C 165.293 2.62695 -2.46007 0
M  V30 1787 C 164.901 2.19169 -3.90729 0
M  V30 1788 C 166.645 3.40336 -2.53715 0
M  V30 1789 C 164.552 3.33535 -4.88373 0
M  V30 1790 H 163.482 0.545692 -0.520323 0
M  V30 1791 H 166.133 0.756929 -1.67161 0
M  V30 1792 H 164.515 3.34541 -2.11892 0
M  V30 1793 H 165.689 1.54623 -4.34083 0
M  V30 1794 H 164.004 1.54525 -3.86666 0
M  V30 1795 H 166.601 4.2547 -3.2385 0
M  V30 1796 H 166.944 3.85418 -1.5735 0
M  V30 1797 H 167.477 2.75546 -2.86913 0
M  V30 1798 H 164.216 2.93468 -5.86137 0
M  V30 1799 H 163.736 3.96936 -4.49668 0
M  V30 1800 H 165.415 3.99335 -5.09059 0
M  V30 1801 N 165.547 1.27147 0.931209 0
M  V30 1802 C 166.794 1.13278 1.67852 0
M  V30 1803 C 167.122 -0.32204 1.91815 0
M  V30 1804 O 166.377 -1.25224 1.50391 0
M  V30 1805 C 166.676 1.8579 3.05314 0
M  V30 1806 C 166.342 3.35657 3.01073 0
M  V30 1807 C 165.004 3.76536 2.99623 0
M  V30 1808 C 167.356 4.31299 2.92627 0
M  V30 1809 C 164.684 5.11426 2.87506 0
M  V30 1810 C 167.036 5.66242 2.82051 0
M  V30 1811 C 165.7 6.06418 2.7895 0
M  V30 1812 H 164.97 0.414515 0.614214 0
M  V30 1813 H 167.617 1.57712 1.08624 0
M  V30 1814 H 165.922 1.33854 3.68226 0
M  V30 1815 H 167.619 1.72491 3.62005 0
M  V30 1816 H 164.209 3.03146 3.02986 0
M  V30 1817 H 168.393 4.00692 2.92848 0
M  V30 1818 H 163.649 5.41705 2.83489 0
M  V30 1819 H 167.823 6.40026 2.74481 0
M  V30 1820 H 165.45 7.10895 2.69318 0
M  V30 1821 N 167.025 -1.13721 1.09112 0
M  V30 1822 C 168.436 -1.6648 0.845068 0
M  V30 1823 C 168.787 -1.85911 -0.62701 0
M  V30 1824 O 167.912 -1.57556 -1.48341 0
M  V30 1825 C 168.507 -3.02413 1.52748 0
M  V30 1826 C 167.066 -3.52176 1.32849 0
M  V30 1827 C 166.213 -2.27492 1.58564 0
M  V30 1828 H 169.164 -0.976872 1.25072 0
M  V30 1829 H 169.185 -3.68223 0.958752 0
M  V30 1830 H 168.697 -2.88238 2.59885 0
M  V30 1831 H 166.798 -3.7156 0.278137 0
M  V30 1832 H 166.911 -4.32499 2.0611 0
M  V30 1833 H 165.275 -2.33923 1.00758 0
M  V30 1834 H 166.058 -2.15886 2.66924 0
M  V30 1835 N 168.503 -0.877838 -1.30888 0
M  V30 1836 C 169.451 -0.328662 -2.30266 0
M  V30 1837 C 170.445 0.560496 -1.59859 0
M  V30 1838 O 171.651 0.445722 -1.74394 0
M  V30 1839 H 168.026 -0.0876142 -0.746879 0
M  V30 1840 H 169.997 -1.18061 -2.74051 0
M  V30 1841 C 168.746 0.448071 -3.44801 0
M  V30 1842 H 168.069 -0.226859 -3.99156 0
M  V30 1843 H 169.509 0.797541 -4.16432 0
M  V30 1844 C 167.968 1.64239 -2.94155 0
M  V30 1845 O 168.498 2.74175 -2.93583 0
M  V30 1846 N 166.704 1.47716 -2.50256 0
M  V30 1847 H 166.251 0.582821 -2.5092 0
M  V30 1848 H 166.209 2.27765 -2.16727 0
M  V30 1849 N 169.982 1.44106 -0.638065 0
M  V30 1850 C 170.915 2.27924 0.112161 0
M  V30 1851 C 171.893 1.38945 0.844574 0
M  V30 1852 O 173.077 1.68386 0.847248 0
M  V30 1853 C 170.204 3.18029 1.16512 0
M  V30 1854 C 169.25 4.23163 0.532458 0
M  V30 1855 S 170.083 5.31131 -0.682666 0
M  V30 1856 C 171.239 6.24805 0.37013 0
M  V30 1857 H 171.472 2.91205 -0.598887 0
M  V30 1858 H 169.005 1.48394 -0.426441 0
M  V30 1859 H 170.963 3.70492 1.76766 0
M  V30 1860 H 169.624 2.53955 1.8484 0
M  V30 1861 H 168.817 4.86252 1.32571 0
M  V30 1862 H 168.419 3.74 0.00437644 0
M  V30 1863 H 170.711 6.66042 1.24071 0
M  V30 1864 H 171.654 7.07741 -0.225349 0
M  V30 1865 H 172.062 5.60154 0.699141 0
M  V30 1866 N 171.46 0.379036 1.52974 0
M  V30 1867 C 172.408 -0.476033 2.27677 0
M  V30 1868 C 173.402 -1.0719 1.31174 0
M  V30 1869 O 174.608 -1.01355 1.48752 0
M  V30 1870 H 170.983 -0.172255 0.732006 0
M  V30 1871 H 172.954 0.175615 2.97883 0
M  V30 1872 C 171.703 -1.5967 3.0887 0
M  V30 1873 H 171.026 -1.1475 3.82978 0
M  V30 1874 H 172.466 -2.16943 3.64296 0
M  V30 1875 C 170.925 -2.54682 2.20542 0
M  V30 1876 O 171.455 -3.57836 1.82527 0
M  V30 1877 N 169.661 -2.24183 1.84907 0
M  V30 1878 H 169.208 -1.40333 2.1602 0
M  V30 1879 H 169.166 -2.88006 1.26096 0
M  V30 1880 N 172.938 -1.57226 0.108567 0
M  V30 1881 C 174.187 -1.94008 -0.551703 0
M  V30 1882 C 174.5 -0.993442 -1.68494 0
M  V30 1883 O 175.706 -1.25551 -2.40726 0
M  V30 1884 C 174.162 -3.44763 -1.03279 0
M  V30 1885 C 173.77 -4.47943 0.0714193 0
M  V30 1886 C 175.514 -3.90483 -1.66503 0
M  V30 1887 C 173.421 -5.89865 -0.425779 0
M  V30 1888 H 172.351 -0.724206 -0.209863 0
M  V30 1889 H 175.002 -1.82547 0.186741 0
M  V30 1890 H 173.384 -3.51422 -1.82533 0
M  V30 1891 H 174.558 -4.52942 0.847365 0
M  V30 1892 H 172.873 -4.11913 0.609669 0
M  V30 1893 H 175.47 -4.93925 -2.04798 0
M  V30 1894 H 175.813 -3.29877 -2.53942 0
M  V30 1895 H 176.346 -3.86581 -0.938074 0
M  V30 1896 H 173.085 -6.54202 0.412316 0
M  V30 1897 H 172.605 -5.88309 -1.16843 0
M  V30 1898 H 174.284 -6.40844 -0.890397 0
M  V30 1899 N 174.416 0.165178 -1.56732 0
M  V30 1900 C 175.832 0.517174 -1.50988 0
M  V30 1901 C 176.032 1.84331 -0.813894 0
M  V30 1902 O 175.088 2.49672 -0.37682 0
M  V30 1903 C 176.401 0.544261 -2.95733 0
M  V30 1904 C 177.949 0.631039 -3.06573 0
M  V30 1905 C 178.424 0.68896 -4.52788 0
M  V30 1906 N 179.915 0.751683 -4.5706 0
M  V30 1907 C 180.65 0.817177 -5.67547 0
M  V30 1908 N 180.146 0.843129 -6.8765 0
M  V30 1909 N 181.939 0.856668 -5.55534 0
M  V30 1910 H 174.09 -0.704318 -2.00382 0
M  V30 1911 H 176.353 -0.254687 -0.913148 0
M  V30 1912 H 176.059 -0.361607 -3.49836 0
M  V30 1913 H 175.933 1.3886 -3.5071 0
M  V30 1914 H 178.32 1.52733 -2.52501 0
M  V30 1915 H 178.401 -0.240095 -2.54671 0
M  V30 1916 H 178.045 -0.2031 -5.07494 0
M  V30 1917 H 177.975 1.57633 -5.02454 0
M  V30 1918 H 180.466 0.739661 -3.70591 0
M  V30 1919 H 180.779 0.894448 -7.67606 0
M  V30 1920 H 179.124 0.811304 -6.90248 0
M  V30 1921 H 182.315 0.833437 -4.60621 0
M  V30 1922 H 182.488 0.904247 -6.4166 0
M  V30 1923 N 175.894 1.51508 0.433938 0
M  V30 1924 C 176.827 1.67756 1.54704 0
M  V30 1925 C 177.805 0.525127 1.53887 0
M  V30 1926 O 178.989 0.749393 1.72963 0
M  V30 1927 C 176.116 1.69424 2.9328 0
M  V30 1928 C 175.162 2.90673 3.12108 0
M  V30 1929 S 175.995 4.51431 2.88046 0
M  V30 1930 C 177.151 4.55849 4.28897 0
M  V30 1931 H 177.384 2.61904 1.40689 0
M  V30 1932 H 174.917 1.41235 0.62386 0
M  V30 1933 H 176.875 1.7107 3.73156 0
M  V30 1934 H 175.536 0.764464 3.04655 0
M  V30 1935 H 174.729 2.88251 4.13434 0
M  V30 1936 H 174.331 2.86786 2.40062 0
M  V30 1937 H 176.623 4.31699 5.22152 0
M  V30 1938 H 177.566 5.57676 4.36351 0
M  V30 1939 H 177.974 3.85137 4.12711 0
M  V30 1940 N 177.372 -0.689602 1.41712 0
M  V30 1941 C 178.618 -1.45041 1.42599 0
M  V30 1942 C 178.973 -1.92366 0.0363764 0
M  V30 1943 O 178.266 -1.67022 -0.938844 0
M  V30 1944 C 178.46 -2.67298 2.37247 0
M  V30 1945 C 178.289 -2.31935 3.85274 0
M  V30 1946 C 177.059 -2.2201 4.53916 0
M  V30 1947 C 179.257 -1.94526 4.76093 0
M  V30 1948 N 177.239 -1.79594 5.87043 0
M  V30 1949 C 178.61 -1.62915 5.98213 0
M  V30 1950 C 180.665 -1.81388 4.63684 0
M  V30 1951 C 179.368 -1.19486 7.09306 0
M  V30 1952 C 181.394 -1.39364 5.74745 0
M  V30 1953 C 180.756 -1.08668 6.95967 0
M  V30 1954 H 176.855 -0.527806 0.577014 0
M  V30 1955 H 179.439 -0.797266 1.77628 0
M  V30 1956 H 177.61 -3.30325 2.04304 0
M  V30 1957 H 179.342 -3.33806 2.28814 0
M  V30 1958 H 176.097 -2.406 4.07932 0
M  V30 1959 H 176.521 -1.60851 6.57614 0
M  V30 1960 H 181.163 -2.03772 3.70455 0
M  V30 1961 H 178.881 -0.958477 8.02396 0
M  V30 1962 H 182.467 -1.2974 5.6715 0
M  V30 1963 H 181.347 -0.766417 7.80446 0
M  V30 1964 N 178.85 -1.27639 -0.924453 0
M  V30 1965 C 180.098 -1.13941 -1.66918 0
M  V30 1966 C 180.419 0.314589 -1.92446 0
M  V30 1967 O 179.689 1.21964 -1.53303 0
M  V30 1968 H 178.269 -0.418678 -0.618642 0
M  V30 1969 H 180.931 -1.60213 -1.10985 0
M  V30 1970 H 180.027 -1.67094 -2.63602 0
M  V30 1971 N 180.328 1.1314 -1.09713 0
M  V30 1972 C 181.276 2.20717 -0.733934 0
M  V30 1973 C 182.27 1.6729 0.266506 0
M  V30 1974 O 183.476 1.79547 0.127656 0
M  V30 1975 H 179.851 0.719292 -0.21937 0
M  V30 1976 H 181.822 2.48611 -1.6503 0
M  V30 1977 C 180.571 3.47265 -0.173849 0
M  V30 1978 H 179.894 3.88716 -0.934873 0
M  V30 1979 H 181.334 4.23979 0.0423126 0
M  V30 1980 C 179.793 3.18724 1.09164 0
M  V30 1981 O 180.323 3.37762 2.17439 0
M  V30 1982 N 178.529 2.72583 1.00732 0
M  V30 1983 H 178.076 2.57291 0.126121 0
M  V30 1984 H 178.034 2.53862 1.85476 0
M  V30 1985 N 181.806 0.884767 1.30421 0
M  V30 1986 C 183.217 0.553656 1.78302 0
M  V30 1987 C 183.568 -0.930153 1.7275 0
M  V30 1988 O 182.693 -1.72681 1.30423 0
M  V30 1989 C 183.288 0.998234 3.2376 0
M  V30 1990 C 181.847 0.71854 3.69478 0
M  V30 1991 C 180.994 1.18132 2.50879 0
M  V30 1992 H 183.945 1.06901 1.17294 0
M  V30 1993 H 183.966 0.327118 3.79091 0
M  V30 1994 H 183.478 2.0782 3.27769 0
M  V30 1995 H 181.579 -0.349444 3.70958 0
M  V30 1996 H 181.692 1.30595 4.60958 0
M  V30 1997 H 180.056 0.600669 2.47516 0
M  V30 1998 H 180.839 2.26902 2.57624 0
M  V30 1999 N 183.284 -1.43765 0.645699 0
M  V30 2000 C 184.531 -2.01898 0.15604 0
M  V30 2001 C 184.859 -1.50887 -1.22733 0
M  V30 2002 O 184.114 -0.689271 -1.8316 0
M  V30 2003 C 184.413 -3.57238 0.107679 0
M  V30 2004 C 184.079 -4.27564 1.43178 0
M  V30 2005 C 182.741 -4.46492 1.7944 0
M  V30 2006 C 185.093 -4.67454 2.30513 0
M  V30 2007 C 182.421 -5.02573 3.02716 0
M  V30 2008 C 184.773 -5.24901 3.53074 0
M  V30 2009 C 183.437 -5.42046 3.89541 0
M  V30 2010 H 182.707 -0.738797 0.057099 0
M  V30 2011 H 185.354 -1.72341 0.834912 0
M  V30 2012 H 183.659 -3.86293 -0.654618 0
M  V30 2013 H 185.356 -3.99965 -0.287938 0
M  V30 2014 H 181.946 -4.13171 1.13963 0
M  V30 2015 H 186.13 -4.5253 2.0379 0
M  V30 2016 H 181.386 -5.14033 3.31028 0
M  V30 2017 H 185.56 -5.54758 4.20971 0
M  V30 2018 H 183.187 -5.85268 4.85145 0
M  V30 2019 N 184.763 -0.387143 -1.52771 0
M  V30 2020 C 185.693 0.440551 -2.29306 0
M  V30 2021 C 186.674 1.06535 -1.32606 0
M  V30 2022 O 187.859 1.07853 -1.61497 0
M  V30 2023 C 184.989 1.56919 -3.09829 0
M  V30 2024 C 183.943 1.07054 -4.14395 0
M  V30 2025 C 183.269 2.29109 -4.83129 0
M  V30 2026 C 184.569 0.140015 -5.22112 0
M  V30 2027 H 186.263 -0.198026 -2.98744 0
M  V30 2028 H 183.809 -0.09668 -1.43675 0
M  V30 2029 H 185.762 2.15503 -3.62128 0
M  V30 2030 H 184.486 2.23532 -2.3812 0
M  V30 2031 H 183.145 0.507247 -3.63074 0
M  V30 2032 H 182.793 2.94227 -4.0797 0
M  V30 2033 H 182.493 1.96406 -5.53804 0
M  V30 2034 H 184.017 2.88339 -5.38231 0
M  V30 2035 H 185.431 0.633978 -5.69784 0
M  V30 2036 H 183.828 -0.0971485 -6.00021 0
M  V30 2037 H 184.898 -0.811711 -4.78058 0
M  V30 2038 N 186.241 1.57166 -0.116904 0
M  V30 2039 C 187.173 2.12271 0.864507 0
M  V30 2040 C 188.186 1.06494 1.23138 0
M  V30 2041 O 189.375 1.33873 1.18069 0
M  V30 2042 C 186.475 2.60564 2.16702 0
M  V30 2043 C 185.648 3.90416 1.97216 0
M  V30 2044 C 184.707 4.24329 3.11178 0
M  V30 2045 O 183.733 4.93182 2.84184 0
M  V30 2046 N 184.935 3.8148 4.37554 0
M  V30 2047 H 187.7 2.97102 0.393726 0
M  V30 2048 H 185.261 1.61759 0.0675805 0
M  V30 2049 H 187.253 2.80282 2.91932 0
M  V30 2050 H 185.823 1.80623 2.55135 0
M  V30 2051 H 185.043 3.79627 1.06192 0
M  V30 2052 H 186.331 4.75327 1.81499 0
M  V30 2053 H 185.729 3.25943 4.62361 0
M  V30 2054 H 184.286 4.06311 5.09661 0
M  V30 2055 N 187.719 -0.156864 1.56817 0
M  V30 2056 C 188.666 -1.19394 1.97519 0
M  V30 2057 C 189.636 -1.4322 0.841265 0
M  V30 2058 O 190.821 -1.55719 1.10255 0
M  V30 2059 C 187.961 -2.52483 2.35258 0
M  V30 2060 C 187.074 -2.35914 3.61896 0
M  V30 2061 C 186.209 -3.61969 3.88782 0
M  V30 2062 C 185.248 -3.40395 5.08722 0
M  V30 2063 N 184.385 -4.58556 5.31668 0
M  V30 2064 H 189.225 -0.839845 2.85921 0
M  V30 2065 H 186.762 -0.403264 1.41464 0
M  V30 2066 H 188.72 -3.30071 2.55165 0
M  V30 2067 H 187.35 -2.85859 1.49949 0
M  V30 2068 H 186.402 -1.49429 3.49821 0
M  V30 2069 H 187.714 -2.15926 4.49641 0
M  V30 2070 H 186.868 -4.47989 4.09135 0
M  V30 2071 H 185.607 -3.84951 2.9944 0
M  V30 2072 H 184.612 -2.52763 4.88253 0
M  V30 2073 H 185.837 -3.18822 5.99608 0
M  V30 2074 H 183.783 -4.81729 4.45279 0
M  V30 2075 H 183.7 -4.41535 6.13664 0
M  V30 2076 H 184.968 -5.45817 5.5651 0
M  V30 2077 N 189.197 -1.51736 -0.425897 0
M  V30 2078 C 190.145 -1.74464 -1.53834 0
M  V30 2079 C 191.139 -0.611241 -1.57988 0
M  V30 2080 O 192.345 -0.792899 -1.61596 0
M  V30 2081 H 188.72 -0.551437 -0.511293 0
M  V30 2082 H 190.691 -2.67694 -1.31843 0
M  V30 2083 C 189.44 -1.8972 -2.91379 0
M  V30 2084 H 188.763 -2.76344 -2.88919 0
M  V30 2085 H 190.203 -2.09629 -3.68553 0
M  V30 2086 C 188.662 -0.65992 -3.30374 0
M  V30 2087 O 189.192 0.180083 -4.01296 0
M  V30 2088 N 187.398 -0.500677 -2.86254 0
M  V30 2089 H 186.945 -1.18532 -2.28709 0
M  V30 2090 H 186.903 0.325903 -3.12706 0
M  V30 2091 N 190.675 0.682077 -1.42076 0
M  V30 2092 C 191.924 1.43786 -1.41451 0
M  V30 2093 C 192.237 1.95574 -0.0317074 0
M  V30 2094 O 193.443 2.71326 0.0971462 0
M  V30 2095 C 191.899 2.60071 -2.48779 0
M  V30 2096 C 191.507 2.15013 -3.93031 0
M  V30 2097 C 193.251 3.37626 -2.57311 0
M  V30 2098 C 191.158 3.28336 -4.91883 0
M  V30 2099 H 190.088 0.540143 -0.526082 0
M  V30 2100 H 192.739 0.739157 -1.67955 0
M  V30 2101 H 191.121 3.32275 -2.15429 0
M  V30 2102 H 192.295 1.5001 -4.35699 0
M  V30 2103 H 190.61 1.50416 -3.88284 0
M  V30 2104 H 193.207 4.22012 -3.28345 0
M  V30 2105 H 193.55 3.83727 -1.61429 0
M  V30 2106 H 194.083 2.72488 -2.89819 0
M  V30 2107 H 190.822 2.87234 -5.89217 0
M  V30 2108 H 190.342 3.92145 -4.53853 0
M  V30 2109 H 192.021 3.93913 -5.13265 0
M  V30 2110 N 192.153 1.28127 0.917671 0
M  V30 2111 C 193.43 1.05761 1.64542 0
M  V30 2112 C 193.81 -0.404344 2.07191 0
M  V30 2113 O 193.158 -1.38963 1.81388 0
M  V30 2114 C 193.368 2.02857 2.83989 0
M  V30 2115 C 194.716 2.32786 3.551 0
M  V30 2116 O 195.74 2.0091 2.94132 0
M  V30 2117 O 194.599 2.87169 4.64969 0
M  V30 2118 H 191.693 0.403916 0.721652 0
M  V30 2119 H 194.239 1.39431 0.967322 0
M  V30 2120 H 193.011 3.01407 2.49538 0
M  V30 2121 H 192.634 1.69809 3.59514 0
M  V30 2122 N 193.631 -1.12557 1.10312 0
M  V30 2123 C 194.561 -2.20341 0.772798 0
M  V30 2124 C 195.542 -1.68198 -0.25365 0
M  V30 2125 O 196.727 -1.93831 -0.119699 0
M  V30 2126 C 193.857 -3.46709 0.202443 0
M  V30 2127 C 192.811 -4.11996 1.15943 0
M  V30 2128 C 192.137 -5.328 0.450345 0
M  V30 2129 C 193.437 -4.5828 2.50552 0
M  V30 2130 H 195.131 -2.48229 1.674 0
M  V30 2131 H 192.677 -1.19308 0.806326 0
M  V30 2132 H 194.63 -4.2138 -0.0407752 0
M  V30 2133 H 193.354 -3.18245 -0.734001 0
M  V30 2134 H 192.013 -3.39305 1.38808 0
M  V30 2135 H 191.661 -5.00602 -0.490531 0
M  V30 2136 H 191.361 -5.7743 1.08851 0
M  V30 2137 H 192.885 -6.10219 0.215642 0
M  V30 2138 H 194.299 -5.2433 2.31843 0
M  V30 2139 H 192.696 -5.13683 3.10242 0
M  V30 2140 H 193.766 -3.72329 3.10643 0
M  V30 2141 N 195.109 -0.891671 -1.2995 0
M  V30 2142 C 196.039 -0.379797 -2.30391 0
M  V30 2143 C 197.02 0.540919 -1.6127 0
M  V30 2144 O 198.205 0.453352 -1.88834 0
M  V30 2145 C 195.335 0.400654 -3.44981 0
M  V30 2146 C 194.289 -0.428905 -4.25846 0
M  V30 2147 C 193.615 0.478557 -5.32554 0
M  V30 2148 C 194.915 -1.67458 -4.94727 0
M  V30 2149 H 196.609 -1.21914 -2.73454 0
M  V30 2150 H 194.155 -0.587675 -1.31462 0
M  V30 2151 H 196.108 0.769434 -4.14316 0
M  V30 2152 H 194.832 1.27371 -3.0074 0
M  V30 2153 H 193.491 -0.779911 -3.58208 0
M  V30 2154 H 193.139 1.34951 -4.84559 0
M  V30 2155 H 192.839 -0.0727433 -5.87555 0
M  V30 2156 H 194.363 0.843705 -6.04743 0
M  V30 2157 H 195.777 -1.376 -5.56542 0
M  V30 2158 H 194.174 -2.16659 -5.59624 0
M  V30 2159 H 195.244 -2.41518 -4.20473 0
M  V30 2160 N 196.587 1.43421 -0.653314 0
M  V30 2161 C 197.534 2.30768 0.0382271 0
M  V30 2162 C 198.504 1.44755 0.814576 0
M  V30 2163 O 199.689 1.73624 0.791162 0
M  V30 2164 C 196.829 3.30336 0.998599 0
M  V30 2165 C 195.942 4.31448 0.218342 0
M  V30 2166 C 195.077 5.18098 1.17252 0
M  V30 2167 C 194.116 6.10902 0.382702 0
M  V30 2168 N 193.253 6.90176 1.28848 0
M  V30 2169 H 198.093 2.89357 -0.712511 0
M  V30 2170 H 195.63 1.42548 -0.363128 0
M  V30 2171 H 197.588 3.86572 1.56901 0
M  V30 2172 H 196.218 2.73397 1.71621 0
M  V30 2173 H 195.27 3.77506 -0.46836 0
M  V30 2174 H 196.582 4.97227 -0.395812 0
M  V30 2175 H 195.736 5.7896 1.81356 0
M  V30 2176 H 194.475 4.52444 1.82058 0
M  V30 2177 H 193.48 5.49128 -0.27169 0
M  V30 2178 H 194.705 6.78598 -0.260957 0
M  V30 2179 H 192.651 6.27171 1.92334 0
M  V30 2180 H 192.568 7.52478 0.728887 0
M  V30 2181 H 193.836 7.55543 1.91766 0
M  V30 2182 N 198.065 0.39524 1.52563 0
M  V30 2183 C 199.013 -0.451859 2.28169 0
M  V30 2184 C 200.007 -1.05792 1.32304 0
M  V30 2185 O 201.213 -0.997718 1.49818 0
M  V30 2186 H 197.588 -0.164481 0.733792 0
M  V30 2187 H 199.559 0.207199 2.9768 0
M  V30 2188 C 198.308 -1.56385 3.10546 0
M  V30 2189 H 197.631 -1.10682 3.84174 0
M  V30 2190 H 199.071 -2.13067 3.66577 0
M  V30 2191 C 197.53 -2.52328 2.23231 0
M  V30 2192 O 198.06 -3.5588 1.86312 0
M  V30 2193 N 196.266 -2.22209 1.87274 0
M  V30 2194 H 195.813 -1.38033 2.17496 0
M  V30 2195 H 195.771 -2.86652 1.29143 0
M  V30 2196 N 199.544 -1.57102 0.125237 0
M  V30 2197 C 200.492 -2.16905 -0.839927 0
M  V30 2198 C 201.486 -1.11998 -1.27094 0
M  V30 2199 O 202.692 -1.3029 -1.24195 0
M  V30 2200 H 199.067 -0.694252 -0.288995 0
M  V30 2201 H 201.038 -2.96774 -0.311115 0
M  V30 2202 C 199.787 -2.78795 -2.07771 0
M  V30 2203 H 199.11 -3.59221 -1.755 0
M  V30 2204 H 200.55 -3.2417 -2.73295 0
M  V30 2205 C 199.009 -1.76193 -2.87155 0
M  V30 2206 O 199.539 -1.21909 -3.82755 0
M  V30 2207 N 197.745 -1.45991 -2.51267 0
M  V30 2208 H 197.292 -1.90325 -1.73592 0
M  V30 2209 H 197.25 -0.775844 -3.04677 0
M  V30 2210 N 201.022 0.148545 -1.56898 0
M  V30 2211 C 202.299 0.890019 -1.74178 0
M  V30 2212 C 202.679 1.99407 -0.692839 0
M  V30 2213 O 202.027 2.26671 0.288505 0
M  V30 2214 C 202.237 1.43389 -3.18183 0
M  V30 2215 C 203.585 1.89791 -3.79822 0
M  V30 2216 O 204.609 1.53134 -3.21603 0
M  V30 2217 O 203.468 2.57387 -4.82093 0
M  V30 2218 H 200.562 0.420496 -0.712118 0
M  V30 2219 H 203.108 0.134591 -1.69165 0
M  V30 2220 H 201.88 0.640383 -3.86024 0
M  V30 2221 H 201.503 2.25287 -3.27615 0
M  V30 2222 N 202.5 1.5196 0.417844 0
M  V30 2223 C 203.746 1.65836 1.16732 0
M  V30 2224 C 204.079 0.382881 1.90388 0
M  V30 2225 O 203.354 -0.618368 1.84408 0
M  V30 2226 C 203.637 2.87466 2.16876 0
M  V30 2227 C 203.49 4.25041 1.47174 0
M  V30 2228 C 204.809 3.04613 3.17646 0
M  V30 2229 H 201.928 0.603515 0.423011 0
M  V30 2230 H 204.57 1.84494 0.454105 0
M  V30 2231 H 202.72 2.71689 2.777 0
M  V30 2232 H 204.392 4.52527 0.895376 0
M  V30 2233 H 202.635 4.26843 0.773806 0
M  V30 2234 H 203.306 5.06176 2.20204 0
M  V30 2235 H 205.782 3.1923 2.66892 0
M  V30 2236 H 204.658 3.91247 3.8499 0
M  V30 2237 H 204.919 2.17541 3.84874 0
M  V30 2238 N 203.978 -0.674533 1.42435 0
M  V30 2239 C 204.925 -1.78807 1.45934 0
M  V30 2240 C 205.895 -1.63157 0.311271 0
M  V30 2241 O 207.08 -1.83707 0.515383 0
M  V30 2242 C 204.22 -3.16839 1.36773 0
M  V30 2243 C 203.333 -3.43774 2.61617 0
M  V30 2244 C 202.468 -4.71536 2.44597 0
M  V30 2245 C 201.507 -4.91505 3.64814 0
M  V30 2246 N 200.644 -6.10508 3.46734 0
M  V30 2247 H 205.484 -1.75151 2.41093 0
M  V30 2248 H 203.021 -0.85504 1.19697 0
M  V30 2249 H 204.979 -3.96606 1.29459 0
M  V30 2250 H 203.609 -3.19619 0.452089 0
M  V30 2251 H 202.661 -2.58259 2.79297 0
M  V30 2252 H 203.973 -3.54423 3.50978 0
M  V30 2253 H 203.127 -5.59393 2.3487 0
M  V30 2254 H 201.866 -4.6317 1.52726 0
M  V30 2255 H 200.871 -4.0209 3.74972 0
M  V30 2256 H 202.096 -5.01716 4.57665 0
M  V30 2257 H 200.042 -6.03315 2.5758 0
M  V30 2258 H 199.959 -6.2202 4.29682 0
M  V30 2259 H 201.227 -7.01044 3.40819 0
M  V30 2260 N 205.456 -1.28612 -0.910864 0
M  V30 2261 C 206.702 -1.16106 -1.66274 0
M  V30 2262 C 207.035 0.289113 -1.92036 0
M  V30 2263 O 206.31 1.21 -1.52281 0
M  V30 2264 C 206.593 -1.96309 -3.01885 0
M  V30 2265 C 206.446 -3.49405 -2.8326 0
M  V30 2266 C 207.765 -1.78076 -4.02463 0
M  V30 2267 H 204.884 -0.423152 -0.603417 0
M  V30 2268 H 207.526 -1.57961 -1.05586 0
M  V30 2269 H 205.676 -1.60742 -3.53687 0
M  V30 2270 H 207.348 -3.94894 -2.38446 0
M  V30 2271 H 205.591 -3.74893 -2.18261 0
M  V30 2272 H 206.262 -4.00784 -3.79574 0
M  V30 2273 H 208.738 -2.0912 -3.59733 0
M  V30 2274 H 207.614 -2.36561 -4.95308 0
M  V30 2275 H 207.875 -0.733008 -4.35981 0
M  V30 2276 N 206.934 1.1197 -1.10907 0
M  V30 2277 C 208.164 1.8713 -0.875553 0
M  V30 2278 C 208.572 1.8016 0.577843 0
M  V30 2279 O 207.915 1.17699 1.41042 0
M  V30 2280 C 207.977 3.37005 -1.2517 0
M  V30 2281 C 207.641 3.67748 -2.71313 0
M  V30 2282 C 208.638 3.65698 -3.69542 0
M  V30 2283 C 206.323 3.96928 -3.07821 0
M  V30 2284 C 208.317 3.92395 -5.023 0
M  V30 2285 C 206.004 4.23284 -4.40765 0
M  V30 2286 C 207.002 4.21005 -5.37814 0
M  V30 2287 O 206.69 4.46704 -6.68364 0
M  V30 2288 H 206.422 0.598786 -0.313737 0
M  V30 2289 H 208.976 1.42568 -1.47863 0
M  V30 2290 H 207.206 3.82146 -0.591741 0
M  V30 2291 H 208.895 3.93519 -0.994877 0
M  V30 2292 H 209.661 3.43211 -3.42682 0
M  V30 2293 H 205.54 3.97841 -2.32902 0
M  V30 2294 H 209.084 3.90531 -5.78041 0
M  V30 2295 H 204.981 4.45246 -4.67361 0
M  V30 2296 H 205.749 4.64299 -6.74069 0
M  V30 2297 N 208.412 0.89855 1.29475 0
M  V30 2298 C 209.637 0.538561 2.00285 0
M  V30 2299 C 210.062 -0.869135 1.66816 0
M  V30 2300 O 209.42 -1.57831 0.892145 0
M  V30 2301 C 209.468 0.736475 3.52999 0
M  V30 2302 O 208.572 -0.211537 4.11857 0
M  V30 2303 H 207.913 0.210563 0.62973 0
M  V30 2304 H 210.443 1.20982 1.64998 0
M  V30 2305 H 210.453 0.640685 4.02938 0
M  V30 2306 H 209.128 1.76276 3.76696 0
M  V30 2307 H 207.705 -0.0682991 3.72837 0
M  V30 2308 N 209.89 -1.43072 0.660911 0
M  V30 2309 C 211.301 -1.84932 0.256348 0
M  V30 2310 C 211.652 -1.55325 -1.19868 0
M  V30 2311 O 210.777 -1.00607 -1.91591 0
M  V30 2312 C 211.372 -3.35684 0.458475 0
M  V30 2313 C 209.931 -3.76245 0.108161 0
M  V30 2314 C 209.078 -2.66749 0.757641 0
M  V30 2315 H 212.029 -1.33116 0.864051 0
M  V30 2316 H 212.05 -3.79365 -0.293683 0
M  V30 2317 H 211.562 -3.572 1.51755 0
M  V30 2318 H 209.663 -3.60338 -0.948014 0
M  V30 2319 H 209.776 -4.76058 0.538992 0
M  V30 2320 H 208.14 -2.53989 0.190185 0
M  V30 2321 H 208.923 -2.91092 1.81989 0
M  V30 2322 N 211.368 -0.403325 -1.52352 0
M  V30 2323 C 212.645 0.232611 -1.94212 0
M  V30 2324 C 213.025 1.63133 -1.33981 0
M  V30 2325 O 212.373 2.22659 -0.513344 0
M  V30 2326 C 212.583 0.244811 -3.4814 0
M  V30 2327 C 213.931 0.46698 -4.22024 0
M  V30 2328 O 214.955 0.324419 -3.5472 0
M  V30 2329 O 213.814 0.74747 -5.41364 0
M  V30 2330 H 210.908 0.148223 -0.813609 0
M  V30 2331 H 213.454 -0.458848 -1.63379 0
M  V30 2332 H 212.226 -0.734378 -3.84347 0
M  V30 2333 H 211.849 0.980611 -3.85318 0
M  V30 2334 N 212.846 1.57033 -0.133567 0
M  V30 2335 C 213.779 2.11824 0.848872 0
M  V30 2336 C 214.757 1.03833 1.2513 0
M  V30 2337 O 215.941 1.31579 1.34978 0
M  V30 2338 C 213.068 2.62692 2.138 0
M  V30 2339 C 212.114 3.82705 1.88253 0
M  V30 2340 S 212.947 5.2438 1.08563 0
M  V30 2341 C 214.103 5.78627 2.38624 0
M  V30 2342 H 214.336 2.94824 0.38289 0
M  V30 2343 H 211.869 1.5419 0.0804796 0
M  V30 2344 H 213.827 2.92652 2.87863 0
M  V30 2345 H 212.488 1.79847 2.57515 0
M  V30 2346 H 211.681 4.16496 2.83809 0
M  V30 2347 H 211.283 3.53437 1.22305 0
M  V30 2348 H 213.575 5.8924 3.34369 0
M  V30 2349 H 214.518 6.76443 2.09358 0
M  V30 2350 H 214.926 5.06783 2.48658 0
M  V30 2351 N 214.325 -0.140222 1.56975 0
M  V30 2352 C 215.273 -1.19207 1.99731 0
M  V30 2353 C 216.267 -1.44089 0.890777 0
M  V30 2354 O 217.473 -1.44301 1.07597 0
M  V30 2355 H 213.848 -0.40142 0.635898 0
M  V30 2356 H 215.819 -0.804813 2.87342 0
M  V30 2357 C 214.568 -2.51617 2.39967 0
M  V30 2358 H 213.891 -2.33303 3.24669 0
M  V30 2359 H 215.331 -3.23827 2.73701 0
M  V30 2360 C 213.79 -3.12654 1.25496 0
M  V30 2361 O 214.32 -3.97786 0.559371 0
M  V30 2362 N 212.526 -2.72206 1.01746 0
M  V30 2363 H 212.073 -2.03074 1.58489 0
M  V30 2364 H 212.031 -3.13377 0.253461 0
M  V30 2365 N 215.803 -1.52179 -0.40978 0
M  V30 2366 C 216.75 -1.75475 -1.49924 0
M  V30 2367 C 217.72 -0.597175 -1.54994 0
M  V30 2368 O 218.905 -0.834655 -1.71575 0
M  V30 2369 C 216.045 -1.9107 -2.87378 0
M  V30 2370 C 215.158 -3.18717 -2.91622 0
M  V30 2371 C 214.293 -3.24747 -4.20372 0
M  V30 2372 C 213.332 -4.46598 -4.18588 0
M  V30 2373 N 212.469 -4.50025 -5.38908 0
M  V30 2374 H 217.309 -2.68458 -1.29361 0
M  V30 2375 H 214.846 -1.33024 -0.627934 0
M  V30 2376 H 216.804 -1.98096 -3.6717 0
M  V30 2377 H 215.434 -1.01469 -3.06437 0
M  V30 2378 H 214.486 -3.20866 -2.04326 0
M  V30 2379 H 215.798 -4.08544 -2.86169 0
M  V30 2380 H 214.952 -3.30841 -5.08556 0
M  V30 2381 H 213.691 -2.32857 -4.28519 0
M  V30 2382 H 212.696 -4.40652 -3.28794 0
M  V30 2383 H 213.921 -5.39783 -4.12081 0
M  V30 2384 H 211.867 -3.61017 -5.47725 0
M  V30 2385 H 211.784 -5.33697 -5.35447 0
M  V30 2386 H 213.052 -4.60347 -6.29048 0
M  V30 2387 N 217.281 0.66697 -1.42791 0
M  V30 2388 C 218.506 1.46004 -1.47301 0
M  V30 2389 C 218.931 1.87894 -0.0880317 0
M  V30 2390 O 218.289 1.56502 0.915253 0
M  V30 2391 C 218.337 2.68031 -2.41229 0
M  V30 2392 O 217.441 3.6659 -1.88906 0
M  V30 2393 H 216.782 0.43832 -0.49877 0
M  V30 2394 H 219.312 0.817391 -1.87563 0
M  V30 2395 H 219.322 3.1601 -2.58073 0
M  V30 2396 H 217.997 2.36883 -3.41847 0
M  V30 2397 H 216.574 3.25661 -1.81656 0
M  V30 2398 N 218.759 1.29093 0.90403 0
M  V30 2399 C 220.006 1.16813 1.65411 0
M  V30 2400 C 220.334 -0.28128 1.92455 0
M  V30 2401 O 219.589 -1.22006 1.53013 0
M  V30 2402 C 219.888 1.92224 3.01305 0
M  V30 2403 C 219.554 3.41968 2.93885 0
M  V30 2404 C 218.216 3.82807 2.91569 0
M  V30 2405 C 220.568 4.37409 2.83413 0
M  V30 2406 C 217.896 5.1741 2.76594 0
M  V30 2407 C 220.248 5.72097 2.69977 0
M  V30 2408 C 218.912 6.12199 2.66024 0
M  V30 2409 H 218.182 0.42745 0.605283 0
M  V30 2410 H 220.829 1.59981 1.05254 0
M  V30 2411 H 219.134 1.41635 3.65304 0
M  V30 2412 H 220.831 1.80131 3.58265 0
M  V30 2413 H 217.421 3.09504 2.96488 0
M  V30 2414 H 221.605 4.06813 2.84283 0
M  V30 2415 H 216.861 5.47596 2.71935 0
M  V30 2416 H 221.035 6.45704 2.60844 0
M  V30 2417 H 218.662 7.16448 2.54178 0
M  V30 2418 N 220.237 -1.11381 1.11499 0
M  V30 2419 C 221.147 -2.21019 0.786628 0
M  V30 2420 C 222.163 -1.72597 -0.220507 0
M  V30 2421 O 223.339 -2.01321 -0.0565251 0
M  V30 2422 C 220.404 -3.459 0.235333 0
M  V30 2423 C 219.465 -4.09107 1.30115 0
M  V30 2424 C 218.698 -5.28027 0.776068 0
M  V30 2425 O 218.921 -5.6904 -0.393661 0
M  V30 2426 O 217.855 -5.81835 1.54114 0
M  V30 2427 H 221.681 -2.51521 1.70209 0
M  V30 2428 H 219.266 -1.19928 0.890928 0
M  V30 2429 H 221.148 -4.21346 -0.067715 0
M  V30 2430 H 219.823 -3.17049 -0.652828 0
M  V30 2431 H 218.73 -3.35391 1.65722 0
M  V30 2432 H 220.063 -4.42139 2.16273 0
M  V30 2433 N 221.715 -0.905404 -1.28997 0
M  V30 2434 C 222.964 -0.530191 -1.94607 0
M  V30 2435 C 223.277 0.929185 -1.72121 0
M  V30 2436 O 224.483 1.41218 -2.31883 0
M  V30 2437 C 222.939 -0.897333 -3.48534 0
M  V30 2438 C 222.547 -2.37587 -3.79811 0
M  V30 2439 C 224.291 -0.592304 -4.20347 0
M  V30 2440 C 222.198 -2.68357 -5.27009 0
M  V30 2441 H 221.128 -0.194558 -0.728466 0
M  V30 2442 H 223.779 -1.10318 -1.46636 0
M  V30 2443 H 222.161 -0.253214 -3.9519 0
M  V30 2444 H 223.335 -3.06602 -3.43994 0
M  V30 2445 H 221.65 -2.6505 -3.2115 0
M  V30 2446 H 224.247 -0.798975 -5.28697 0
M  V30 2447 H 224.59 0.469474 -4.13644 0
M  V30 2448 H 225.123 -1.19452 -3.79442 0
M  V30 2449 H 221.862 -3.73355 -5.38782 0
M  V30 2450 H 221.382 -2.03971 -5.64053 0
M  V30 2451 H 223.061 -2.54922 -5.94663 0
M  V30 2452 N 223.193 1.4272 -0.668489 0
M  V30 2453 C 224.418 2.06484 -0.194758 0
M  V30 2454 C 224.843 1.49862 1.13679 0
M  V30 2455 O 224.201 0.614582 1.70565 0
M  V30 2456 C 224.249 3.60353 -0.133546 0
M  V30 2457 O 223.353 4.02464 0.899806 0
M  V30 2458 H 222.694 0.656137 -0.10188 0
M  V30 2459 H 225.224 1.82964 -0.915722 0
M  V30 2460 H 225.234 4.07976 0.0447041 0
M  V30 2461 H 223.909 4.00938 -1.1055 0
M  V30 2462 H 222.486 3.66402 0.693109 0
M  V30 2463 N 224.671 0.411399 1.52136 0
M  V30 2464 C 225.896 -0.165538 2.06738 0
M  V30 2465 C 226.321 -1.379 1.27926 0
M  V30 2466 O 225.679 -1.78628 0.310114 0
M  V30 2467 C 225.727 -0.492124 3.57226 0
M  V30 2468 O 224.831 -1.58276 3.80818 0
M  V30 2469 H 224.172 -0.0132132 0.663869 0
M  V30 2470 H 226.702 0.585253 1.96051 0
M  V30 2471 H 226.712 -0.750104 4.01045 0
M  V30 2472 H 225.387 0.394922 4.14021 0
M  V30 2473 H 223.964 -1.31677 3.48877 0
M  V30 2474 N 226.149 -1.5696 0.141893 0
M  V30 2475 C 227.397 -1.95573 -0.509484 0
M  V30 2476 C 227.718 -1.02746 -1.65736 0
M  V30 2477 O 226.988 -0.0880311 -1.95702 0
M  V30 2478 H 225.568 -0.722115 -0.191205 0
M  V30 2479 H 228.23 -1.93697 0.216196 0
M  V30 2480 H 227.326 -2.99171 -0.889 0
M  V30 2481 N 227.627 0.131896 -1.57047 0
M  V30 2482 C 229.043 0.485031 -1.52051 0
M  V30 2483 C 229.243 1.82563 -0.85281 0
M  V30 2484 O 228.299 2.48817 -0.429694 0
M  V30 2485 C 229.612 0.481409 -2.96821 0
M  V30 2486 C 231.16 0.565868 -3.07842 0
M  V30 2487 C 231.635 0.592762 -4.54148 0
M  V30 2488 N 233.126 0.654564 -4.58552 0
M  V30 2489 C 233.861 0.696608 -5.69153 0
M  V30 2490 N 233.357 0.697078 -6.89284 0
M  V30 2491 N 235.15 0.738639 -5.57226 0
M  V30 2492 H 227.301 -0.746664 -1.98843 0
M  V30 2493 H 229.564 -0.273999 -0.90754 0
M  V30 2494 H 229.27 -0.435731 -3.4899 0
M  V30 2495 H 229.144 1.3139 -3.53577 0
M  V30 2496 H 231.531 1.47343 -2.55684 0
M  V30 2497 H 231.612 -0.29406 -2.54104 0
M  V30 2498 H 231.256 -0.310701 -5.06949 0
M  V30 2499 H 231.186 1.46939 -5.05684 0
M  V30 2500 H 233.677 0.660887 -3.72076 0
M  V30 2501 H 233.99 0.731426 -7.69331 0
M  V30 2502 H 232.335 0.66471 -6.91814 0
M  V30 2503 H 235.526 0.735545 -4.62285 0
M  V30 2504 H 235.699 0.767938 -6.43434 0
M  V30 2505 N 229.106 1.52395 0.401703 0
M  V30 2506 C 230.336 1.70429 1.1678 0
M  V30 2507 C 230.744 0.416702 1.84554 0
M  V30 2508 O 230.087 -0.617697 1.73003 0
M  V30 2509 C 230.149 2.78919 2.26814 0
M  V30 2510 C 229.813 4.20437 1.79113 0
M  V30 2511 C 230.81 5.04028 1.27482 0
M  V30 2512 C 228.495 4.66704 1.85722 0
M  V30 2513 C 230.489 6.31961 0.830913 0
M  V30 2514 C 228.176 5.94625 1.40942 0
M  V30 2515 C 229.174 6.77082 0.897128 0
M  V30 2516 O 228.862 8.02607 0.455822 0
M  V30 2517 H 228.594 0.574272 0.356634 0
M  V30 2518 H 231.148 1.99767 0.477724 0
M  V30 2519 H 229.378 2.44973 2.99207 0
M  V30 2520 H 231.067 2.8548 2.88541 0
M  V30 2521 H 231.833 4.69471 1.21744 0
M  V30 2522 H 227.712 4.0262 2.24539 0
M  V30 2523 H 231.256 6.96271 0.430368 0
M  V30 2524 H 227.153 6.28688 1.46362 0
M  V30 2525 H 227.921 8.16453 0.578457 0
M  V30 2526 N 230.584 -0.659388 1.43143 0
M  V30 2527 C 231.531 -1.77249 1.47822 0
M  V30 2528 C 232.501 -1.62818 0.328558 0
M  V30 2529 O 233.686 -1.83151 0.534838 0
M  V30 2530 C 230.826 -3.15371 1.40126 0
M  V30 2531 C 229.939 -3.4098 2.65249 0
M  V30 2532 C 229.074 -4.68915 2.49584 0
M  V30 2533 C 228.113 -4.87608 3.70006 0
M  V30 2534 N 227.25 -6.06796 3.53189 0
M  V30 2535 H 232.09 -1.72584 2.42938 0
M  V30 2536 H 229.627 -0.842297 1.20598 0
M  V30 2537 H 231.585 -3.9521 1.33659 0
M  V30 2538 H 230.215 -3.19121 0.485964 0
M  V30 2539 H 229.267 -2.55282 2.8202 0
M  V30 2540 H 230.579 -3.50681 3.54717 0
M  V30 2541 H 229.733 -5.56871 2.4079 0
M  V30 2542 H 228.472 -4.61524 1.5763 0
M  V30 2543 H 227.477 -3.9809 3.79215 0
M  V30 2544 H 228.702 -4.96834 4.62961 0
M  V30 2545 H 226.648 -6.00549 2.63965 0
M  V30 2546 H 226.565 -6.17428 4.36255 0
M  V30 2547 H 227.833 -6.9739 3.48236 0
M  V30 2548 N 232.062 -1.29571 -0.897171 0
M  V30 2549 C 233.01 -1.14802 -2.02295 0
M  V30 2550 C 234.004 -0.0629637 -1.69283 0
M  V30 2551 O 235.21 -0.222945 -1.78614 0
M  V30 2552 H 231.585 -0.354692 -0.663097 0
M  V30 2553 H 233.556 -2.10108 -2.11889 0
M  V30 2554 C 232.305 -0.843966 -3.37302 0
M  V30 2555 H 231.628 -1.67093 -3.63208 0
M  V30 2556 H 233.068 -0.780672 -4.16751 0
M  V30 2557 C 231.527 0.452843 -3.33843 0
M  V30 2558 O 232.057 1.47813 -3.73516 0
M  V30 2559 N 230.263 0.459601 -2.86943 0
M  V30 2560 H 229.81 -0.375213 -2.54853 0
M  V30 2561 H 229.768 1.32726 -2.85011 0
M  V30 2562 N 233.54 1.10788 -1.12088 0
M  V30 2563 C 234.488 2.19111 -0.780587 0
M  V30 2564 C 235.482 1.67818 0.230961 0
M  V30 2565 O 236.688 1.79777 0.0895427 0
M  V30 2566 H 233.063 0.714477 -0.234578 0
M  V30 2567 H 235.034 2.45055 -1.70266 0
M  V30 2568 C 233.783 3.46818 -0.24747 0
M  V30 2569 H 233.106 3.86646 -1.01712 0
M  V30 2570 H 234.546 4.23973 -0.0476291 0
M  V30 2571 C 233.005 3.20968 1.02378 0
M  V30 2572 O 233.535 3.42298 2.10226 0
M  V30 2573 N 231.741 2.74658 0.949271 0
M  V30 2574 H 231.288 2.57501 0.0715173 0
M  V30 2575 H 231.246 2.57739 1.80049 0
M  V30 2576 N 235.018 0.912232 1.28515 0
M  V30 2577 C 236.267 0.540504 1.94323 0
M  V30 2578 C 236.58 -0.920044 1.72611 0
M  V30 2579 O 237.786 -1.39986 2.32629 0
M  V30 2580 C 236.242 0.915803 3.48053 0
M  V30 2581 C 235.85 2.39598 3.78546 0
M  V30 2582 C 237.594 0.614588 4.20027 0
M  V30 2583 C 235.501 2.71148 5.25578 0
M  V30 2584 H 234.431 0.198418 0.727424 0
M  V30 2585 H 237.082 1.11094 1.46049 0
M  V30 2586 H 235.464 0.274168 3.9505 0
M  V30 2587 H 236.638 3.08422 3.42364 0
M  V30 2588 H 234.953 2.66749 3.1974 0
M  V30 2589 H 237.55 0.827002 5.28266 0
M  V30 2590 H 237.893 -0.447531 4.13887 0
M  V30 2591 H 238.426 1.21462 3.78803 0
M  V30 2592 H 235.165 3.76207 5.36794 0
M  V30 2593 H 234.685 2.0696 5.62963 0
M  V30 2594 H 236.364 2.58072 5.93302 0
M  V30 2595 N 236.496 -1.42363 0.676048 0
M  V30 2596 C 237.724 -2.05859 0.207268 0
M  V30 2597 C 238.139 -1.50796 -1.13605 0
M  V30 2598 O 237.496 -0.648265 -1.70598 0
M  V30 2599 C 237.547 -3.61248 0.134975 0
M  V30 2600 O 237.268 -4.1427 1.42521 0
M  V30 2601 C 238.769 -4.41859 -0.357151 0
M  V30 2602 H 235.989 -0.663431 0.100503 0
M  V30 2603 H 238.533 -1.82479 0.923136 0
M  V30 2604 H 236.688 -3.83735 -0.531588 0
M  V30 2605 H 237.102 -5.0815 1.29939 0
M  V30 2606 H 238.576 -5.50847 -0.356641 0
M  V30 2607 H 239.053 -4.16536 -1.39264 0
M  V30 2608 H 239.659 -4.24392 0.27772 0
M  V30 2609 N 237.974 -0.419461 -1.51915 0
M  V30 2610 C 238.907 0.445751 -2.23804 0
M  V30 2611 C 239.885 1.03951 -1.25031 0
M  V30 2612 O 241.069 1.08541 -1.54114 0
M  V30 2613 C 238.196 1.61964 -2.97465 0
M  V30 2614 C 237.242 1.14828 -4.10751 0
M  V30 2615 S 238.075 0.104938 -5.35397 0
M  V30 2616 C 239.231 1.28391 -6.1259 0
M  V30 2617 H 239.464 -0.164627 -2.96844 0
M  V30 2618 H 236.997 -0.203833 -1.53049 0
M  V30 2619 H 238.955 2.29271 -3.40507 0
M  V30 2620 H 237.616 2.20139 -2.24048 0
M  V30 2621 H 236.809 2.02561 -4.61503 0
M  V30 2622 H 236.411 0.553712 -3.69878 0
M  V30 2623 H 238.703 2.20563 -6.40592 0
M  V30 2624 H 239.646 0.816724 -7.03374 0
M  V30 2625 H 240.054 1.51439 -5.43807 0
M  V30 2626 N 239.452 1.56882 -0.150215 0
M  V30 2627 C 240.863 1.82995 0.370076 0
M  V30 2628 C 241.214 1.06907 1.64515 0
M  V30 2629 O 240.339 0.315369 2.1409 0
M  V30 2630 C 240.934 3.31942 0.678208 0
M  V30 2631 C 239.493 3.58625 1.14301 0
M  V30 2632 C 238.64 2.76792 0.167778 0
M  V30 2633 H 241.591 1.54209 -0.374858 0
M  V30 2634 H 241.612 3.48272 1.53254 0
M  V30 2635 H 241.124 3.87294 -0.249991 0
M  V30 2636 H 239.225 3.08664 2.08704 0
M  V30 2637 H 239.338 4.67073 1.06676 0
M  V30 2638 H 237.702 2.45972 0.661037 0
M  V30 2639 H 238.485 3.34916 -0.754069 0
M  V30 2640 N 240.93 -0.123565 1.57115 0
M  V30 2641 C 241.878 -1.17082 2.00984 0
M  V30 2642 C 242.872 -1.43136 0.906009 0
M  V30 2643 O 244.078 -1.43152 1.09121 0
M  V30 2644 H 240.453 -0.394653 0.64012 0
M  V30 2645 H 242.424 -0.774292 2.88179 0
M  V30 2646 C 241.173 -2.49057 2.42623 0
M  V30 2647 H 240.496 -2.29846 3.27125 0
M  V30 2648 H 241.936 -3.20906 2.7712 0
M  V30 2649 C 240.395 -3.11305 1.28805 0
M  V30 2650 O 240.925 -3.97171 0.60153 0
M  V30 2651 N 239.131 -2.71111 1.04628 0
M  V30 2652 H 238.678 -2.01382 1.60634 0
M  V30 2653 H 238.636 -3.1309 0.286685 0
M  V30 2654 N 242.408 -1.52605 -0.393616 0
M  V30 2655 C 243.657 -1.66649 -1.13627 0
M  V30 2656 C 243.97 -0.410364 -1.91247 0
M  V30 2657 O 245.176 -0.430854 -2.68059 0
M  V30 2658 C 243.632 -2.9449 -2.06891 0
M  V30 2659 C 243.24 -4.27266 -1.34714 0
M  V30 2660 C 244.984 -3.17899 -2.81319 0
M  V30 2661 C 242.891 -5.46217 -2.26717 0
M  V30 2662 H 241.821 -0.62084 -0.427871 0
M  V30 2663 H 244.472 -1.791 -0.399428 0
M  V30 2664 H 242.854 -2.75774 -2.84191 0
M  V30 2665 H 244.028 -4.56518 -0.626714 0
M  V30 2666 H 242.343 -4.10081 -0.722643 0
M  V30 2667 H 244.94 -4.03949 -3.50328 0
M  V30 2668 H 245.283 -2.32777 -3.45139 0
M  V30 2669 H 245.816 -3.37159 -2.11113 0
M  V30 2670 H 242.555 -6.33733 -1.67521 0
M  V30 2671 H 242.075 -5.21283 -2.96689 0
M  V30 2672 H 243.754 -5.7991 -2.86903 0
M  V30 2673 N 243.887 0.651787 -1.4349 0
M  V30 2674 C 244.797 1.79368 -1.5121 0
M  V30 2675 C 245.813 1.69361 -0.399093 0
M  V30 2676 O 246.989 1.90505 -0.653431 0
M  V30 2677 C 244.054 3.15653 -1.43401 0
M  V30 2678 C 243.115 3.37446 -2.65384 0
M  V30 2679 C 242.348 4.67229 -2.57939 0
M  V30 2680 O 242.571 5.46676 -1.62792 0
M  V30 2681 O 241.505 4.90773 -3.48462 0
M  V30 2682 H 245.331 1.7581 -2.47638 0
M  V30 2683 H 242.916 0.810447 -1.25507 0
M  V30 2684 H 244.798 3.96935 -1.41494 0
M  V30 2685 H 243.473 3.19798 -0.501085 0
M  V30 2686 H 242.38 2.55923 -2.72863 0
M  V30 2687 H 243.713 3.38148 -3.57654 0
M  V30 2688 N 245.365 1.30045 0.890287 0
M  V30 2689 C 246.313 1.15873 2.01683 0
M  V30 2690 C 247.307 0.0719403 1.69247 0
M  V30 2691 O 248.513 0.232414 1.78493 0
M  V30 2692 H 244.888 0.358203 0.661207 0
M  V30 2693 H 246.859 2.11229 2.10772 0
M  V30 2694 C 245.608 0.861842 3.36849 0
M  V30 2695 H 244.931 1.69016 3.62317 0
M  V30 2696 H 246.371 0.802762 4.16331 0
M  V30 2697 C 244.83 -0.435132 3.34078 0
M  V30 2698 O 245.36 -1.4583 3.74295 0
M  V30 2699 N 243.566 -0.444377 2.87182 0
M  V30 2700 H 243.113 0.388723 2.5465 0
M  V30 2701 H 243.071 -1.31213 2.85711 0
M  V30 2702 N 246.843 -1.10192 1.12674 0
M  V30 2703 C 248.089 -1.82475 0.884915 0
M  V30 2704 C 248.422 -1.85093 -0.58773 0
M  V30 2705 O 247.697 -1.3134 -1.43457 0
M  V30 2706 C 247.98 -3.29018 1.46353 0
M  V30 2707 C 247.833 -3.34718 3.00473 0
M  V30 2708 C 249.152 -4.25473 1.12519 0
M  V30 2709 H 246.271 -0.662492 0.322915 0
M  V30 2710 H 248.913 -1.2913 1.39375 0
M  V30 2711 H 247.063 -3.74576 1.03077 0
M  V30 2712 H 248.735 -2.97622 3.52447 0
M  V30 2713 H 246.978 -2.74541 3.35872 0
M  V30 2714 H 247.649 -4.37918 3.36053 0
M  V30 2715 H 250.125 -3.88161 1.499 0
M  V30 2716 H 249.001 -5.26365 1.55663 0
M  V30 2717 H 249.262 -4.42084 0.0377407 0
M  V30 2718 N 248.321 -0.919034 -1.28029 0
M  V30 2719 C 249.251 -0.428581 -2.29533 0
M  V30 2720 C 250.232 0.50659 -1.62381 0
M  V30 2721 O 251.417 0.413195 -1.89753 0
M  V30 2722 C 248.547 0.327388 -3.45753 0
M  V30 2723 C 247.501 -0.519137 -4.2484 0
M  V30 2724 C 246.827 0.365486 -5.33449 0
M  V30 2725 C 248.127 -1.77914 -4.91064 0
M  V30 2726 H 249.821 -1.27687 -2.70807 0
M  V30 2727 H 247.367 -0.615428 -1.30186 0
M  V30 2728 H 249.32 0.681378 -4.15855 0
M  V30 2729 H 248.044 1.20963 -3.03374 0
M  V30 2730 H 246.703 -0.855717 -3.56473 0
M  V30 2731 H 246.351 1.24642 -4.87312 0
M  V30 2732 H 246.051 -0.197356 -5.87268 0
M  V30 2733 H 247.575 0.715241 -6.06396 0
M  V30 2734 H 248.989 -1.49374 -5.53498 0
M  V30 2735 H 247.386 -2.2848 -5.54903 0
M  V30 2736 H 248.456 -2.50382 -4.15255 0
M  V30 2737 N 249.799 1.42003 -0.683588 0
M  V30 2738 C 250.747 2.326 0.000815408 0
M  V30 2739 C 251.741 1.50308 0.781278 0
M  V30 2740 O 252.947 1.66322 0.688251 0
M  V30 2741 H 249.322 0.751758 0.0190616 0
M  V30 2742 H 251.293 2.88011 -0.780528 0
M  V30 2743 C 250.042 3.34978 0.93195 0
M  V30 2744 H 249.365 3.98345 0.340817 0
M  V30 2745 H 250.805 4.00936 1.37936 0
M  V30 2746 C 249.264 2.67925 2.04249 0
M  V30 2747 O 249.794 2.51788 3.12995 0
M  V30 2748 N 248 2.2681 1.81675 0
M  V30 2749 H 247.547 2.40135 0.932363 0
M  V30 2750 H 247.505 1.8228 2.56167 0
M  V30 2751 N 251.277 0.427512 1.51691 0
M  V30 2752 C 252.524 -0.142229 2.02 0
M  V30 2753 C 252.852 -1.43566 1.31221 0
M  V30 2754 O 252.107 -1.91298 0.412744 0
M  V30 2755 C 252.406 -0.418249 3.54944 0
M  V30 2756 C 252.072 0.788187 4.43958 0
M  V30 2757 C 250.734 1.11906 4.68007 0
M  V30 2758 C 253.086 1.59347 4.96244 0
M  V30 2759 C 250.414 2.25608 5.41588 0
M  V30 2760 C 252.766 2.7214 5.71072 0
M  V30 2761 C 251.43 3.05692 5.93387 0
M  V30 2762 H 250.7 -0.0520451 0.73917 0
M  V30 2763 H 253.347 0.572697 1.82736 0
M  V30 2764 H 251.652 -1.21496 3.72486 0
M  V30 2765 H 253.349 -0.872339 3.91397 0
M  V30 2766 H 249.939 0.520344 4.2543 0
M  V30 2767 H 254.123 1.35106 4.77556 0
M  V30 2768 H 249.379 2.51929 5.57083 0
M  V30 2769 H 253.553 3.34914 6.10578 0
M  V30 2770 H 251.18 3.9391 6.50184 0
M  V30 2771 N 252.755 -1.56801 0.158532 0
M  V30 2772 C 254.001 -1.96781 -0.490405 0
M  V30 2773 C 254.334 -1.04397 -1.63753 0
M  V30 2774 O 253.609 -0.0885805 -1.94298 0
M  V30 2775 C 253.892 -3.4635 -0.985594 0
M  V30 2776 C 253.745 -4.49512 0.160824 0
M  V30 2777 C 255.064 -3.98697 -1.86355 0
M  V30 2778 H 252.183 -0.715482 -0.176788 0
M  V30 2779 H 254.825 -1.88451 0.242088 0
M  V30 2780 H 252.975 -3.53579 -1.60978 0
M  V30 2781 H 254.647 -4.54353 0.797537 0
M  V30 2782 H 252.89 -4.26013 0.818256 0
M  V30 2783 H 253.561 -5.51531 -0.227569 0
M  V30 2784 H 256.037 -3.94019 -1.33746 0
M  V30 2785 H 254.913 -5.03792 -2.17909 0
M  V30 2786 H 255.174 -3.41744 -2.8047 0
M  V30 2787 N 254.233 0.115231 -1.57178 0
M  V30 2788 C 255.163 1.1423 -2.03651 0
M  V30 2789 C 256.144 1.42967 -0.921655 0
M  V30 2790 O 257.329 1.53343 -1.19162 0
M  V30 2791 C 254.459 2.4675 -2.44401 0
M  V30 2792 C 253.413 2.32467 -3.59365 0
M  V30 2793 C 252.739 3.69984 -3.86026 0
M  V30 2794 C 254.039 1.78203 -4.90959 0
M  V30 2795 H 255.733 0.755749 -2.89705 0
M  V30 2796 H 253.279 0.362093 -1.39373 0
M  V30 2797 H 255.232 3.18854 -2.75517 0
M  V30 2798 H 253.956 2.87302 -1.55322 0
M  V30 2799 H 252.615 1.62811 -3.28463 0
M  V30 2800 H 252.263 4.08028 -2.94147 0
M  V30 2801 H 251.963 3.61279 -4.63412 0
M  V30 2802 H 253.487 4.43587 -4.19599 0
M  V30 2803 H 254.901 2.40128 -5.20587 0
M  V30 2804 H 253.298 1.8031 -5.72371 0
M  V30 2805 H 254.368 0.739876 -4.79222 0
M  V30 2806 N 255.711 1.52812 0.385517 0
M  V30 2807 C 256.659 1.78482 1.49155 0
M  V30 2808 C 257.653 0.652914 1.56312 0
M  V30 2809 O 258.859 0.835464 1.59436 0
M  V30 2810 H 255.234 0.5648 0.496493 0
M  V30 2811 H 257.205 2.71095 1.24699 0
M  V30 2812 C 255.954 1.97378 2.86247 0
M  V30 2813 H 255.277 2.83907 2.81491 0
M  V30 2814 H 256.717 2.19327 3.62866 0
M  V30 2815 C 255.176 0.74728 3.28508 0
M  V30 2816 O 255.706 -0.0736232 4.01633 0
M  V30 2817 N 253.912 0.576396 2.84826 0
M  V30 2818 H 253.459 1.24555 2.25486 0
M  V30 2819 H 253.417 -0.24288 3.1346 0
M  V30 2820 N 257.189 -0.644168 1.43834 0
M  V30 2821 C 258.137 -1.77793 1.49974 0
M  V30 2822 C 259.131 -1.65253 0.372536 0
M  V30 2823 O 260.337 -1.7149 0.546924 0
M  V30 2824 H 256.712 -0.58675 0.47035 0
M  V30 2825 H 258.683 -1.69736 2.45423 0
M  V30 2826 C 257.432 -3.16087 1.4486 0
M  V30 2827 H 256.755 -3.26378 2.30905 0
M  V30 2828 H 258.195 -3.95349 1.53217 0
M  V30 2829 C 256.654 -3.36484 0.167463 0
M  V30 2830 O 257.184 -3.94298 -0.767609 0
M  V30 2831 N 255.39 -2.90504 0.0747556 0
M  V30 2832 H 254.937 -2.4364 0.836507 0
M  V30 2833 H 254.895 -3.04527 -0.781714 0
M  V30 2834 N 258.668 -1.30515 -0.883378 0
M  V30 2835 C 259.578 -1.18959 -2.02203 0
M  V30 2836 C 260.594 -0.109172 -1.73657 0
M  V30 2837 O 261.77 -0.324413 -1.9877 0
M  V30 2838 C 258.835 -0.883871 -3.35244 0
M  V30 2839 C 257.896 -2.04982 -3.77201 0
M  V30 2840 C 257.129 -1.75859 -5.03894 0
M  V30 2841 O 257.352 -0.687276 -5.66244 0
M  V30 2842 O 256.286 -2.61146 -5.42297 0
M  V30 2843 H 260.112 -2.14616 -2.1488 0
M  V30 2844 H 257.697 -1.10124 -1.0096 0
M  V30 2845 H 259.579 -0.728644 -4.15053 0
M  V30 2846 H 258.254 0.0427798 -3.23672 0
M  V30 2847 H 257.161 -2.26038 -2.9809 0
M  V30 2848 H 258.494 -2.95825 -3.93381 0
M  V30 2849 N 260.146 1.09593 -1.13257 0
M  V30 2850 C 261.093 2.1618 -0.808381 0
M  V30 2851 C 262.063 1.64517 0.228754 0
M  V30 2852 O 263.248 1.9053 0.101381 0
M  V30 2853 C 260.388 3.43973 -0.278675 0
M  V30 2854 C 259.501 4.09545 -1.37466 0
M  V30 2855 C 258.636 5.25088 -0.803479 0
M  V30 2856 C 257.675 5.82579 -1.87799 0
M  V30 2857 N 256.812 6.89486 -1.32488 0
M  V30 2858 H 261.652 2.43254 -1.72138 0
M  V30 2859 H 259.189 1.19392 -0.859294 0
M  V30 2860 H 261.147 4.17174 0.0465583 0
M  V30 2861 H 259.777 3.17223 0.597459 0
M  V30 2862 H 258.829 3.34226 -1.81652 0
M  V30 2863 H 260.141 4.48307 -2.18684 0
M  V30 2864 H 259.295 6.05178 -0.429427 0
M  V30 2865 H 258.034 4.87684 0.0397956 0
M  V30 2866 H 257.039 5.01152 -2.26113 0
M  V30 2867 H 258.264 6.22045 -2.72463 0
M  V30 2868 H 256.21 6.54064 -0.503575 0
M  V30 2869 H 256.127 7.27007 -2.07355 0
M  V30 2870 H 257.395 7.73336 -0.978336 0
M  V30 2871 N 261.624 0.925811 1.2754 0
M  V30 2872 C 263.04 0.625767 1.46821 0
M  V30 2873 C 263.24 -0.825506 1.83814 0
M  V30 2874 O 262.296 -1.60356 1.95044 0
M  V30 2875 C 263.609 1.57402 2.56213 0
M  V30 2876 C 265.157 1.58204 2.70075 0
M  V30 2877 C 265.632 2.51721 3.82623 0
M  V30 2878 N 267.123 2.49917 3.89994 0
M  V30 2879 C 267.858 3.18968 4.76494 0
M  V30 2880 N 267.354 3.97391 5.67496 0
M  V30 2881 N 269.147 3.07996 4.70208 0
M  V30 2882 H 261.298 1.86409 1.01811 0
M  V30 2883 H 263.561 0.800213 0.508295 0
M  V30 2884 H 263.267 2.60925 2.35819 0
M  V30 2885 H 263.141 1.31428 3.53563 0
M  V30 2886 H 265.528 0.554124 2.89851 0
M  V30 2887 H 265.609 1.88226 1.73218 0
M  V30 2888 H 265.253 3.54622 3.63601 0
M  V30 2889 H 265.183 2.18996 4.78903 0
M  V30 2890 H 267.674 1.9296 3.24923 0
M  V30 2891 H 267.987 4.4707 6.30356 0
M  V30 2892 H 266.332 4.01495 5.67298 0
M  V30 2893 H 269.523 2.46223 3.9811 0
M  V30 2894 H 269.696 3.6208 5.37403 0
M  V30 2895 N 263.102 -1.41638 0.69111 0
M  V30 2896 C 264.513 -1.84346 0.295517 0
M  V30 2897 C 264.864 -1.57833 -1.16547 0
M  V30 2898 O 263.989 -1.04648 -1.89414 0
M  V30 2899 C 264.584 -3.34636 0.529575 0
M  V30 2900 C 263.143 -3.7593 0.187944 0
M  V30 2901 C 262.29 -2.65082 0.814052 0
M  V30 2902 H 265.241 -1.31253 0.892092 0
M  V30 2903 H 265.262 -3.79903 -0.213148 0
M  V30 2904 H 264.774 -3.53901 1.59297 0
M  V30 2905 H 262.875 -3.62268 -0.871367 0
M  V30 2906 H 262.988 -4.74808 0.63985 0
M  V30 2907 H 261.352 -2.53528 0.244017 0
M  V30 2908 H 262.135 -2.87167 1.88123 0
M  V30 2909 N 264.58 -0.43555 -1.51462 0
M  V30 2910 C 265.51 0.367376 -2.30592 0
M  V30 2911 C 266.491 1.02263 -1.35928 0
M  V30 2912 O 267.676 1.02661 -1.64847 0
M  V30 2913 C 264.806 1.46983 -3.14664 0
M  V30 2914 C 263.76 0.938161 -4.17591 0
M  V30 2915 C 263.086 2.13622 -4.90173 0
M  V30 2916 C 264.386 -0.0261621 -5.22293 0
M  V30 2917 H 266.08 -0.292969 -2.97963 0
M  V30 2918 H 263.626 -0.14234 -1.43295 0
M  V30 2919 H 265.579 2.03873 -3.688 0
M  V30 2920 H 264.303 2.15843 -2.4511 0
M  V30 2921 H 262.962 0.391481 -3.64504 0
M  V30 2922 H 262.61 2.81098 -4.17124 0
M  V30 2923 H 262.31 1.78688 -5.59772 0
M  V30 2924 H 263.834 2.7107 -5.47132 0
M  V30 2925 H 265.248 0.452384 -5.71512 0
M  V30 2926 H 263.645 -0.287992 -5.99409 0
M  V30 2927 H 264.715 -0.963391 -4.75233 0
M  V30 2928 N 266.058 1.56714 -0.166846 0
M  V30 2929 C 267.335 1.88412 0.525373 0
M  V30 2930 C 267.715 1.07602 1.81618 0
M  V30 2931 O 267.063 0.168621 2.27877 0
M  V30 2932 C 267.273 3.40363 0.771613 0
M  V30 2933 C 268.621 4.10007 1.1036 0
M  V30 2934 O 269.645 3.45655 0.860304 0
M  V30 2935 O 268.504 5.2369 1.56239 0
M  V30 2936 H 265.598 0.781587 0.270278 0
M  V30 2937 H 268.144 1.68458 -0.204946 0
M  V30 2938 H 266.916 3.91046 -0.141093 0
M  V30 2939 H 266.539 3.65914 1.55541 0
M  V30 2940 O 267.575 0.0288451 1.61474 0
M  V30 2941 H 268.266 -0.583771 1.84694 0
M  V30 END ATOM
M  V30 BEGIN BOND
M  V30 END BOND
M  V30 END CTAB
M  END
$$$$
