drugbank_target|P30273 High affinity immunoglobulin epsilon receptor subunit gamma (DB00895)
 OpenBabel12092119233D

  0  0  0     0  0            999 V3000
M  V30 BEGIN CTAB
M  V30 COUNTS 1404 1415 0 0 0
M  V30 BEGIN ATOM
M  V30 1 H -0.908 1.98254 -0.117106 0
M  V30 2 N 0 1.576 0 0
M  V30 3 C 0.933 2.03868 1.02534 0
M  V30 4 C 1.911 0.928543 1.3348 0
M  V30 5 O 3.095 1.19667 1.45644 0
M  V30 6 C 0.222 2.43627 2.35294 0
M  V30 7 C -0.732 3.65373 2.2001 0
M  V30 8 S 0.101 5.13292 1.52614 0
M  V30 9 C 1.257 5.56322 2.86805 0
M  V30 10 H 1.49 2.90518 0.631377 0
M  V30 11 H -0.977 1.52953 0.210867 0
M  V30 12 H 0.981 2.67203 3.11629 0
M  V30 13 H -0.358 1.57376 2.7183 0
M  V30 14 H -1.165 3.90944 3.18086 0
M  V30 15 H -1.563 3.418 1.51819 0
M  V30 16 H 0.729 5.58782 3.83104 0
M  V30 17 H 1.672 6.56266 2.65933 0
M  V30 18 H 2.08 4.83886 2.90714 0
M  V30 19 N 1.4781 -0.272755 1.55222 0
M  V30 20 C 2.7271 -1.00211 1.75045 0
M  V30 21 C 3.0401 -1.87441 0.559046 0
M  V30 22 O 4.2461 -2.63856 0.639698 0
M  V30 23 C 2.7021 -1.83165 3.09804 0
M  V30 24 C 2.3101 -1.008 4.36513 0
M  V30 25 C 4.0541 -2.55529 3.38977 0
M  V30 26 C 1.9611 -1.83194 5.62311 0
M  V30 27 H 0.8911 -0.377878 0.652476 0
M  V30 28 H 3.5421 -0.257776 1.8168 0
M  V30 29 H 1.9241 -2.61694 2.97207 0
M  V30 30 H 3.0981 -0.266855 4.60027 0
M  V30 31 H 1.4131 -0.398897 4.14485 0
M  V30 32 H 4.0101 -3.17578 4.30172 0
M  V30 33 H 4.3531 -3.25825 2.59121 0
M  V30 34 H 4.8861 -1.84029 3.52673 0
M  V30 35 H 1.6251 -1.17318 6.44916 0
M  V30 36 H 1.1451 -2.54905 5.4294 0
M  V30 37 H 2.8241 -2.40552 6.00619 0
M  V30 38 N 2.9562 -1.48159 -0.537278 0
M  V30 39 C 4.3672 -1.49429 -1.11928 0
M  V30 40 C 4.7182 -0.26 -1.9447 0
M  V30 41 O 3.8432 0.633489 -2.0692 0
M  V30 42 C 4.4382 -2.70758 -2.03656 0
M  V30 43 C 2.9972 -2.74923 -2.57088 0
M  V30 44 C 2.1442 -2.42835 -1.3389 0
M  V30 45 H 5.0952 -1.55381 -0.322886 0
M  V30 46 H 5.1162 -2.48861 -2.87834 0
M  V30 47 H 4.6282 -3.60575 -1.43553 0
M  V30 48 H 2.7292 -1.89296 -3.20933 0
M  V30 49 H 2.8422 -3.76157 -2.9672 0
M  V30 50 H 1.2062 -1.93836 -1.65226 0
M  V30 51 H 1.9892 -3.34884 -0.755504 0
M  V30 52 N 4.4343 0.785586 -1.36625 0
M  V30 53 C 5.3973 1.87999 -1.31107 0
M  V30 54 C 6.3973 1.59316 -0.217959 0
M  V30 55 O 7.5873 1.67656 -0.472977 0
M  V30 56 C 4.7193 3.24861 -1.03334 0
M  V30 57 H 5.9123 1.94307 -2.2844 0
M  V30 58 H 3.4653 0.983813 -1.21453 0
M  V30 59 H 4.2003 3.24235 -0.0647432 0
M  V30 60 H 3.9853 3.4707 -1.82441 0
M  V30 61 H 5.4753 4.04929 -1.02088 0
M  V30 62 N 5.9124 1.20967 1.01018 0
M  V30 63 C 7.1584 1.02526 1.74975 0
M  V30 64 C 7.4914 -0.4408 1.89131 0
M  V30 65 O 6.7664 -1.32718 1.42184 0
M  V30 66 C 7.0494 1.71699 3.1653 0
M  V30 67 C 6.9024 3.25791 3.10129 0
M  V30 68 C 8.2214 1.45531 4.15342 0
M  V30 69 H 5.3404 0.373863 0.635134 0
M  V30 70 H 7.9824 1.49071 1.17805 0
M  V30 71 H 6.1324 1.32128 3.65341 0
M  V30 72 H 7.8044 3.74697 2.69072 0
M  V30 73 H 6.0474 3.56363 2.47362 0
M  V30 74 H 6.7184 3.69353 4.10222 0
M  V30 75 H 9.1944 1.79872 3.75213 0
M  V30 76 H 8.0704 1.96453 5.1254 0
M  V30 77 H 8.3314 0.384237 4.40427 0
M  V30 78 N 7.3905 -1.2043 1.01659 0
M  V30 79 C 8.6365 -1.90079 0.706963 0
M  V30 80 C 8.9695 -1.78648 -0.761474 0
M  V30 81 O 8.2445 -1.17069 -1.55323 0
M  V30 82 C 8.5275 -3.41469 1.14327 0
M  V30 83 C 8.3805 -3.61833 2.67201 0
M  V30 84 C 9.6995 -4.34261 0.714529 0
M  V30 85 H 6.8185 -0.690254 0.2583 0
M  V30 86 H 9.4605 -1.41826 1.26433 0
M  V30 87 H 7.6105 -3.82696 0.669056 0
M  V30 88 H 9.2825 -3.2986 3.22475 0
M  V30 89 H 7.5255 -3.05304 3.08175 0
M  V30 90 H 8.1965 -4.67955 2.92783 0
M  V30 91 H 10.6725 -4.00682 1.12221 0
M  V30 92 H 9.5485 -5.38806 1.04784 0
M  V30 93 H 9.8095 -4.40431 -0.383799 0
M  V30 94 N 8.8686 -0.792821 -1.36206 0
M  V30 95 C 9.7986 -0.207853 -2.32573 0
M  V30 96 C 10.7796 0.659055 -1.56813 0
M  V30 97 O 11.9646 0.592176 -1.84951 0
M  V30 98 C 9.0946 0.655449 -3.41059 0
M  V30 99 C 8.0486 -0.111842 -4.27854 0
M  V30 100 C 7.3746 0.872274 -5.27537 0
M  V30 101 C 8.6746 -1.30299 -5.05786 0
M  V30 102 H 10.3686 -1.01294 -2.81744 0
M  V30 103 H 7.9146 -0.48854 -1.3546 0
M  V30 104 H 9.8676 1.07464 -4.07467 0
M  V30 105 H 8.5916 1.49328 -2.90463 0
M  V30 106 H 7.2506 -0.512053 -3.63006 0
M  V30 107 H 6.8986 1.70523 -4.73214 0
M  V30 108 H 6.5986 0.363291 -5.86476 0
M  V30 109 H 8.1226 1.28996 -5.96818 0
M  V30 110 H 9.5366 -0.959379 -5.65216 0
M  V30 111 H 7.9336 -1.7455 -5.74154 0
M  V30 112 H 9.0036 -2.09663 -4.37229 0
M  V30 113 N 10.3467 1.47872 -0.545128 0
M  V30 114 C 11.2767 2.32661 0.197793 0
M  V30 115 C 12.2577 1.43041 0.920504 0
M  V30 116 O 13.4427 1.71912 0.90333 0
M  V30 117 C 10.5727 3.24569 1.23582 0
M  V30 118 C 9.5267 4.23333 0.630323 0
M  V30 119 C 8.8527 5.0448 1.77211 0
M  V30 120 C 10.1527 5.20704 -0.407974 0
M  V30 121 H 11.8467 2.95024 -0.510045 0
M  V30 122 H 9.3927 1.4187 -0.246731 0
M  V30 123 H 11.3457 3.8272 1.76362 0
M  V30 124 H 10.0697 2.60236 1.97344 0
M  V30 125 H 8.7287 3.6639 0.123922 0
M  V30 126 H 8.3767 4.36561 2.49847 0
M  V30 127 H 8.0767 5.71339 1.37281 0
M  V30 128 H 9.6007 5.65487 2.3034 0
M  V30 129 H 11.0147 5.7329 0.033305 0
M  V30 130 H 9.4117 5.95699 -0.725486 0
M  V30 131 H 10.4817 4.66917 -1.30828 0
M  V30 132 N 11.8248 0.280983 1.55075 0
M  V30 133 C 12.7548 -0.597469 2.25727 0
M  V30 134 C 13.7358 -1.15417 1.24952 0
M  V30 135 O 14.9208 -1.18722 1.53684 0
M  V30 136 C 12.0508 -1.7789 2.98283 0
M  V30 137 C 11.0048 -1.35347 4.06036 0
M  V30 138 C 10.3308 -2.61846 4.66198 0
M  V30 139 C 11.6308 -0.499354 5.19907 0
M  V30 140 H 13.3248 -0.00824265 2.99399 0
M  V30 141 H 10.8708 -0.0025244 1.44 0
M  V30 142 H 12.8238 -2.39937 3.46422 0
M  V30 143 H 11.5478 -2.39405 2.22155 0
M  V30 144 H 10.2068 -0.756156 3.58717 0
M  V30 145 H 9.8548 -3.21632 3.86732 0
M  V30 146 H 9.5548 -2.3409 5.38958 0
M  V30 147 H 11.0788 -3.24732 5.1709 0
M  V30 148 H 12.4928 -1.02498 5.64063 0
M  V30 149 H 10.8898 -0.316424 5.99265 0
M  V30 150 H 11.9598 0.480459 4.82514 0
M  V30 151 N 13.3029 -1.57598 0.00835791 0
M  V30 152 C 14.2329 -2.1198 -0.979113 0
M  V30 153 C 15.2139 -1.03091 -1.35301 0
M  V30 154 O 16.3989 -1.30818 -1.43528 0
M  V30 155 C 13.5289 -2.62995 -2.26828 0
M  V30 156 C 12.4829 -3.76485 -2.03576 0
M  V30 157 C 11.8089 -4.13846 -3.38579 0
M  V30 158 C 13.1089 -5.0342 -1.39161 0
M  V30 159 H 14.8029 -2.94738 -0.526281 0
M  V30 160 H 12.3489 -1.41783 -0.251704 0
M  V30 161 H 14.3019 -2.99669 -2.96271 0
M  V30 162 H 13.0259 -1.7737 -2.7424 0
M  V30 163 H 11.6849 -3.40217 -1.36557 0
M  V30 164 H 11.3329 -3.25232 -3.83709 0
M  V30 165 H 11.0329 -4.90312 -3.23834 0
M  V30 166 H 12.5569 -4.53086 -4.09323 0
M  V30 167 H 13.9709 -5.37812 -1.98573 0
M  V30 168 H 12.3679 -5.84746 -1.34878 0
M  V30 169 H 13.4379 -4.83548 -0.361868 0
M  V30 170 N 14.781 0.264519 -1.55364 0
M  V30 171 C 15.711 1.33121 -1.91836 0
M  V30 172 C 16.692 1.51101 -0.781192 0
M  V30 173 O 17.877 1.64003 -1.04003 0
M  V30 174 C 15.007 2.68921 -2.19769 0
M  V30 175 C 13.961 2.65661 -3.35571 0
M  V30 176 C 13.287 4.05093 -3.49004 0
M  V30 177 C 14.587 2.24187 -4.71739 0
M  V30 178 H 16.281 1.02844 -2.81182 0
M  V30 179 H 13.827 0.493286 -1.35287 0
M  V30 180 H 15.78 3.43663 -2.43872 0
M  V30 181 H 14.504 3.00799 -1.27231 0
M  V30 182 H 13.163 1.93377 -3.1145 0
M  V30 183 H 12.811 4.34206 -2.53917 0
M  V30 184 H 12.511 4.03804 -4.26868 0
M  V30 185 H 14.035 4.81561 -3.75408 0
M  V30 186 H 15.449 2.88654 -4.9533 0
M  V30 187 H 13.846 2.34044 -5.52579 0
M  V30 188 H 14.916 1.19327 -4.69988 0
M  V30 189 N 16.2591 1.48442 0.529413 0
M  V30 190 C 17.1891 1.65902 1.64313 0
M  V30 191 C 18.1701 0.507897 1.6234 0
M  V30 192 O 19.3551 0.740503 1.79528 0
M  V30 193 C 16.4851 1.69911 3.02898 0
M  V30 194 C 15.4391 2.8453 3.19729 0
M  V30 195 C 14.7651 2.73629 4.59381 0
M  V30 196 C 16.0651 4.25821 3.02447 0
M  V30 197 H 17.7591 2.5914 1.49955 0
M  V30 198 H 15.3051 1.24709 0.719982 0
M  V30 199 H 17.2581 1.80715 3.80684 0
M  V30 200 H 15.9821 0.732524 3.18279 0
M  V30 201 H 14.6411 2.73283 2.44361 0
M  V30 202 H 14.2891 1.74938 4.71599 0
M  V30 203 H 13.9891 3.50541 4.71588 0
M  V30 204 H 15.5131 2.86401 5.39265 0
M  V30 205 H 16.9271 4.37898 3.70024 0
M  V30 206 H 15.3241 5.03735 3.26146 0
M  V30 207 H 16.3941 4.42244 1.98867 0
M  V30 208 N 17.7372 -0.778329 1.37039 0
M  V30 209 C 18.9832 -1.53892 1.32079 0
M  V30 210 C 19.3162 -1.9396 -0.0965386 0
M  V30 211 O 18.5912 -1.63568 -1.05242 0
M  V30 212 C 18.8742 -2.80847 2.25382 0
M  V30 213 C 18.7272 -2.47076 3.75864 0
M  V30 214 C 20.0462 -3.82741 2.1725 0
M  V30 215 H 17.1652 -0.558303 0.48111 0
M  V30 216 H 19.8072 -0.893397 1.67685 0
M  V30 217 H 17.9572 -3.35931 1.95148 0
M  V30 218 H 19.6292 -1.97957 4.16666 0
M  V30 219 H 17.8722 -1.79863 3.94755 0
M  V30 220 H 18.5432 -3.37798 4.36574 0
M  V30 221 H 21.0192 -3.37133 2.43887 0
M  V30 222 H 19.8952 -4.69303 2.84686 0
M  V30 223 H 20.1562 -4.2652 1.16331 0
M  V30 224 N 19.2153 -1.21501 -1.00376 0
M  V30 225 C 20.1253 -0.991447 -2.12621 0
M  V30 226 C 21.1413 0.0568446 -1.73907 0
M  V30 227 O 22.3173 -0.13348 -2.00957 0
M  V30 228 C 19.3823 -0.560312 -3.42142 0
M  V30 229 C 18.4433 -1.68096 -3.95022 0
M  V30 230 C 17.6763 -1.2703 -5.18362 0
M  V30 231 O 17.8993 -0.144438 -5.70217 0
M  V30 232 O 16.8333 -2.08269 -5.64719 0
M  V30 233 H 20.6593 -1.93158 -2.34358 0
M  V30 234 H 18.2443 -0.999999 -1.10997 0
M  V30 235 H 20.1263 -0.329724 -4.20108 0
M  V30 236 H 18.8013 0.351089 -3.2179 0
M  V30 237 H 17.7083 -1.96597 -3.18278 0
M  V30 238 H 19.0413 -2.56983 -4.19786 0
M  V30 239 N 20.6934 1.19889 -1.02296 0
M  V30 240 C 21.6254 2.22334 -0.556787 0
M  V30 241 C 22.6384 1.58674 0.364199 0
M  V30 242 O 23.8274 1.77768 0.161533 0
M  V30 243 C 20.9274 3.38257 0.208694 0
M  V30 244 C 20.1004 4.31504 -0.71577 0
M  V30 245 C 19.1594 5.262 0.00325597 0
M  V30 246 O 18.1854 5.65798 -0.621357 0
M  V30 247 N 19.3874 5.66303 1.27599 0
M  V30 248 H 22.1524 2.62957 -1.43784 0
M  V30 249 H 19.7134 1.34495 -0.901261 0
M  V30 250 H 21.7054 3.98616 0.699111 0
M  V30 251 H 20.2754 2.96472 0.991102 0
M  V30 252 H 19.4954 3.69016 -1.38638 0
M  V30 253 H 20.7834 4.9072 -1.34428 0
M  V30 254 H 20.1814 5.36155 1.80429 0
M  V30 255 H 18.7384 6.28942 1.71102 0
M  V30 256 N 22.1715 0.800033 1.35784 0
M  V30 257 C 23.1345 0.211565 2.28221 0
M  V30 258 C 24.1345 -0.59728 1.49296 0
M  V30 259 O 25.3245 -0.416721 1.69142 0
M  V30 260 C 22.4565 -0.705846 3.33513 0
M  V30 261 H 23.6495 1.02677 2.81776 0
M  V30 262 H 21.2025 0.570211 1.45528 0
M  V30 263 H 21.9375 -1.54498 2.85133 0
M  V30 264 H 21.7225 -0.127655 3.91892 0
M  V30 265 H 23.2125 -1.11211 4.02519 0
M  V30 266 N 23.6496 -1.47581 0.552962 0
M  V30 267 C 24.6126 -2.28439 -0.186605 0
M  V30 268 C 25.6126 -1.36706 -0.84665 0
M  V30 269 O 26.8026 -1.59378 -0.703164 0
M  V30 270 C 23.9346 -3.16264 -1.2724 0
M  V30 271 H 25.1276 -2.95294 0.523609 0
M  V30 272 H 22.6806 -1.532 0.309745 0
M  V30 273 H 23.4156 -2.54091 -2.01514 0
M  V30 274 H 23.2006 -3.83769 -0.803968 0
M  V30 275 H 24.6906 -3.77198 -1.79196 0
M  V30 276 N 25.1277 -0.289203 -1.54924 0
M  V30 277 C 26.0907 0.579144 -2.21762 0
M  V30 278 C 27.0907 1.07047 -1.1999 0
M  V30 279 O 28.2807 0.968384 -1.44803 0
M  V30 280 C 25.4127 1.80055 -2.8947 0
M  V30 281 H 26.6057 -0.00464908 -2.999 0
M  V30 282 H 24.1587 -0.0399306 -1.56249 0
M  V30 283 H 24.8937 2.42449 -2.15381 0
M  V30 284 H 24.6787 1.45602 -3.64064 0
M  V30 285 H 26.1687 2.41773 -3.40493 0
M  V30 286 N 26.6058 1.57591 -0.0167156 0
M  V30 287 C 27.5358 2.12496 0.967858 0
M  V30 288 C 28.5168 1.03807 1.34752 0
M  V30 289 O 29.7018 1.31577 1.42833 0
M  V30 290 C 26.8318 2.64194 2.25431 0
M  V30 291 C 25.7858 3.77559 2.01576 0
M  V30 292 C 25.1118 4.15636 3.36379 0
M  V30 293 C 26.4118 5.04151 1.36489 0
M  V30 294 H 28.1058 2.95013 0.510643 0
M  V30 295 H 25.6518 1.41915 0.244181 0
M  V30 296 H 27.6048 3.01236 2.94678 0
M  V30 297 H 26.3288 1.78821 2.73296 0
M  V30 298 H 24.9878 3.40937 1.34751 0
M  V30 299 H 24.6358 3.27263 3.81979 0
M  V30 300 H 24.3358 4.92022 3.21229 0
M  V30 301 H 25.8598 4.5525 4.06915 0
M  V30 302 H 27.2738 5.38857 1.95718 0
M  V30 303 H 25.6708 5.85453 1.31776 0
M  V30 304 H 26.7408 4.83733 0.336219 0
M  V30 305 N 28.0839 -0.256276 1.55502 0
M  V30 306 C 29.3319 -0.983672 1.76545 0
M  V30 307 C 29.6529 -1.86206 0.578982 0
M  V30 308 O 28.9229 -1.91656 -0.405577 0
M  V30 309 H 27.5029 -0.366191 0.651086 0
M  V30 310 H 30.1649 -0.276479 1.92929 0
M  V30 311 H 29.2609 -1.61087 2.67315 0
M  V30 312 N 29.562 -1.4872 -0.521534 0
M  V30 313 C 30.472 -1.66569 -1.65203 0
M  V30 314 C 31.488 -0.548197 -1.65139 0
M  V30 315 O 32.664 -0.820339 -1.83936 0
M  V30 316 C 29.729 -1.70917 -3.01642 0
M  V30 317 C 28.79 -2.94356 -3.12495 0
M  V30 318 C 28.023 -2.98487 -4.42426 0
M  V30 319 O 28.246 -2.10786 -5.30024 0
M  V30 320 O 27.18 -3.90746 -4.57822 0
M  V30 321 H 31.006 -2.62298 -1.5308 0
M  V30 322 H 28.591 -1.3222 -0.695565 0
M  V30 323 H 30.473 -1.7625 -3.82771 0
M  V30 324 H 29.148 -0.783633 -3.14071 0
M  V30 325 H 28.055 -2.94552 -2.3063 0
M  V30 326 H 29.388 -3.86322 -3.04986 0
M  V30 327 N 31.0401 0.771051 -1.3745 0
M  V30 328 C 32.4511 1.34737 -1.29239 0
M  V30 329 C 32.8021 1.96109 0.0596908 0
M  V30 330 O 31.9271 1.93865 0.961534 0
M  V30 331 C 32.5221 2.44973 -2.34037 0
M  V30 332 C 31.0811 2.98372 -2.29458 0
M  V30 333 C 30.2281 1.71595 -2.17831 0
M  V30 334 H 33.1791 0.571256 -1.48062 0
M  V30 335 H 33.2001 3.24471 -1.98744 0
M  V30 336 H 32.7121 2.00276 -3.32432 0
M  V30 337 H 30.8131 3.47443 -1.34589 0
M  V30 338 H 30.9261 3.53939 -3.229 0
M  V30 339 H 29.2901 1.94547 -1.64388 0
M  V30 340 H 30.0731 1.29001 -3.18141 0
M  V30 341 N 32.5182 1.22032 0.997298 0
M  V30 342 C 33.4502 0.944263 2.08845 0
M  V30 343 C 34.4632 -0.0754663 1.62625 0
M  V30 344 O 35.6522 0.157994 1.77799 0
M  V30 345 C 32.7522 0.397723 3.36558 0
M  V30 346 C 31.9252 1.47362 4.11829 0
M  V30 347 C 30.9842 0.934951 5.17827 0
M  V30 348 O 30.0102 1.62016 5.45655 0
M  V30 349 N 31.2122 -0.245895 5.79979 0
M  V30 350 H 33.9772 1.88363 2.33109 0
M  V30 351 H 31.5382 1.12661 1.16272 0
M  V30 352 H 33.5302 0.0227771 4.04694 0
M  V30 353 H 32.1002 -0.446646 3.09393 0
M  V30 354 H 31.3202 2.02208 3.38386 0
M  V30 355 H 32.6082 2.19764 4.58891 0
M  V30 356 H 32.0062 -0.819475 5.59733 0
M  V30 357 H 30.5632 -0.562272 6.4937 0
M  V30 358 N 33.9963 -1.19345 1.0293 0
M  V30 359 C 34.9263 -2.2481 0.631105 0
M  V30 360 C 35.9073 -1.66245 -0.360104 0
M  V30 361 O 37.0923 -1.92677 -0.242726 0
M  V30 362 C 34.2223 -3.47295 -0.0184607 0
M  V30 363 C 33.1763 -4.18536 0.895073 0
M  V30 364 C 32.5023 -5.34586 0.110592 0
M  V30 365 C 33.8023 -4.73287 2.209 0
M  V30 366 H 35.4963 -2.58372 1.51275 0
M  V30 367 H 33.0423 -1.24194 0.728818 0
M  V30 368 H 34.9953 -4.20268 -0.308675 0
M  V30 369 H 33.7193 -3.12933 -0.934907 0
M  V30 370 H 32.3783 -3.47446 1.16949 0
M  V30 371 H 32.0263 -4.96469 -0.807902 0
M  V30 372 H 31.7263 -5.83183 0.719087 0
M  V30 373 H 33.2503 -6.10355 -0.172871 0
M  V30 374 H 34.6643 -5.38013 1.98028 0
M  V30 375 H 33.0613 -5.32373 2.76946 0
M  V30 376 H 34.1313 -3.91331 2.86336 0
M  V30 377 N 35.4744 -0.807222 -1.35358 0
M  V30 378 C 36.7144 -0.393534 -2.00576 0
M  V30 379 C 37.0784 1.0203 -1.62647 0
M  V30 380 O 38.2794 1.53603 -2.20589 0
M  V30 381 C 36.5504 -0.572017 -3.52793 0
M  V30 382 S 38.1094 -0.248845 -4.38094 0
M  V30 383 H 34.9274 -0.149425 -0.695121 0
M  V30 384 H 37.5294 -1.04961 -1.64935 0
M  V30 385 H 36.2334 -1.60097 -3.77885 0
M  V30 386 H 35.7644 0.099359 -3.93275 0
M  V30 387 H 37.7794 0.943253 -4.87152 0
M  V30 388 N 36.9525 1.47285 -0.560781 0
M  V30 389 C 38.1825 2.06555 -0.0429638 0
M  V30 390 C 38.5905 1.41339 1.25777 0
M  V30 391 O 37.9335 0.505182 1.76617 0
M  V30 392 C 37.9955 3.58827 0.219887 0
M  V30 393 C 37.6595 4.46105 -0.991944 0
M  V30 394 C 38.6565 4.84 -1.89843 0
M  V30 395 C 36.3415 4.87567 -1.20762 0
M  V30 396 C 38.3355 5.6216 -3.00425 0
M  V30 397 C 36.0225 5.65491 -2.31653 0
M  V30 398 C 37.0205 6.02699 -3.21315 0
M  V30 399 O 36.7085 6.79052 -4.30283 0
M  V30 400 H 36.4405 0.674537 -0.0444468 0
M  V30 401 H 38.9945 1.90225 -0.774818 0
M  V30 402 H 37.2245 3.73383 1.00609 0
M  V30 403 H 38.9135 4.00103 0.683522 0
M  V30 404 H 39.6795 4.52564 -1.74387 0
M  V30 405 H 35.5585 4.5807 -0.518893 0
M  V30 406 H 39.1025 5.9112 -3.70436 0
M  V30 407 H 34.9995 5.9634 -2.47081 0
M  V30 408 H 35.7675 6.9745 -4.28376 0
M  V30 409 N 38.4306 0.297415 1.54768 0
M  V30 410 C 39.6796 -0.313669 1.99246 0
M  V30 411 C 39.9926 -1.55281 1.18942 0
M  V30 412 O 41.1986 -2.23825 1.5367 0
M  V30 413 C 39.6546 -0.609407 3.54703 0
M  V30 414 C 39.2626 0.611192 4.43811 0
M  V30 415 C 41.0066 -1.18188 4.07715 0
M  V30 416 C 38.9136 0.288805 5.90694 0
M  V30 417 H 37.8436 -0.120979 0.744231 0
M  V30 418 H 40.4946 0.40556 1.78962 0
M  V30 419 H 38.8766 -1.38813 3.70873 0
M  V30 420 H 40.0506 1.3875 4.39414 0
M  V30 421 H 38.3656 1.10205 4.01552 0
M  V30 422 H 40.9626 -1.43727 5.15021 0
M  V30 423 H 41.3056 -2.12299 3.58099 0
M  V30 424 H 41.8386 -0.464944 3.95074 0
M  V30 425 H 38.5776 1.19838 6.44453 0
M  V30 426 H 38.0976 -0.450305 5.98107 0
M  V30 427 H 39.7766 -0.110933 6.46905 0
M  V30 428 N 39.9087 -1.5758 0.0250728 0
M  V30 429 C 40.8387 -2.13007 -0.956575 0
M  V30 430 C 41.8197 -1.0452 -1.342 0
M  V30 431 O 43.0047 -1.32332 -1.42133 0
M  V30 432 C 40.1347 -2.65386 -2.24026 0
M  V30 433 C 39.0887 -3.78623 -1.99571 0
M  V30 434 C 38.4147 -4.17414 -3.3417 0
M  V30 435 C 39.7147 -5.04867 -1.33814 0
M  V30 436 H 41.4087 -2.9528 -0.494991 0
M  V30 437 H 38.9547 -1.42042 -0.236651 0
M  V30 438 H 40.9077 -3.02794 -2.93076 0
M  V30 439 H 39.6317 -1.80268 -2.72343 0
M  V30 440 H 38.2907 -3.41646 -1.32941 0
M  V30 441 H 37.9387 -3.29284 -3.80238 0
M  V30 442 H 37.6387 -4.93719 -3.18615 0
M  V30 443 H 39.1627 -4.57402 -4.04495 0
M  V30 444 H 40.5767 -5.39888 -1.92857 0
M  V30 445 H 38.9737 -5.86144 -1.28669 0
M  V30 446 H 40.0437 -4.83904 -0.310561 0
M  V30 447 N 41.3868 0.248026 -1.55636 0
M  V30 448 C 42.6638 0.998988 -1.68165 0
M  V30 449 C 43.0438 2.03409 -0.564621 0
M  V30 450 O 42.3918 2.24378 0.432076 0
M  V30 451 C 42.6018 1.63334 -3.0842 0
M  V30 452 C 43.9498 2.13562 -3.66983 0
M  V30 453 O 44.9738 1.73277 -3.11213 0
M  V30 454 O 43.8328 2.87526 -4.64749 0
M  V30 455 H 40.9268 0.464933 -0.683935 0
M  V30 456 H 43.4728 0.241902 -1.67967 0
M  V30 457 H 42.2448 0.884583 -3.8117 0
M  V30 458 H 41.8678 2.45666 -3.12624 0
M  V30 459 N 42.8649 1.48995 0.513639 0
M  V30 460 C 43.8279 1.64229 1.59879 0
M  V30 461 C 44.8279 0.514696 1.5234 0
M  V30 462 O 46.0179 0.78087 1.55718 0
M  V30 463 C 43.1499 1.62783 2.99524 0
M  V30 464 H 44.3429 2.61004 1.47705 0
M  V30 465 H 41.8959 1.37837 0.736936 0
M  V30 466 H 42.6309 0.675461 3.17188 0
M  V30 467 H 42.4159 2.4466 3.06404 0
M  V30 468 H 43.9059 1.76669 3.78388 0
M  V30 469 N 44.343 -0.763751 1.37857 0
M  V30 470 C 45.592 -1.51789 1.32827 0
M  V30 471 C 45.905 -1.95426 -0.0823719 0
M  V30 472 O 47.111 -2.70298 -0.255172 0
M  V30 473 C 45.567 -2.74133 2.33193 0
M  V30 474 C 45.175 -2.37562 3.79827 0
M  V30 475 C 46.919 -3.52054 2.37188 0
M  V30 476 C 44.826 -3.56456 4.71904 0
M  V30 477 H 43.756 -0.569896 0.493695 0
M  V30 478 H 46.407 -0.835822 1.63359 0
M  V30 479 H 44.789 -3.4427 1.9569 0
M  V30 480 H 45.963 -1.75157 4.26212 0
M  V30 481 H 44.278 -1.72798 3.78853 0
M  V30 482 H 46.875 -4.40437 3.03182 0
M  V30 483 H 47.218 -3.92486 1.38782 0
M  V30 484 H 47.751 -2.88921 2.7344 0
M  V30 485 H 44.49 -3.21099 5.71468 0
M  V30 486 H 44.01 -4.17938 4.30218 0
M  V30 487 H 45.689 -4.23168 4.89426 0
M  V30 488 N 45.8211 -1.22559 -0.990812 0
M  V30 489 C 46.7511 -1.0218 -2.09956 0
M  V30 490 C 47.7321 0.0579394 -1.70001 0
M  V30 491 O 48.9171 -0.104684 -1.93918 0
M  V30 492 C 46.0471 -0.601023 -3.4206 0
M  V30 493 C 45.0011 -1.62694 -3.95872 0
M  V30 494 C 44.3271 -1.06193 -5.24049 0
M  V30 495 C 45.6271 -3.01743 -4.2632 0
M  V30 496 H 47.3211 -1.94916 -2.27262 0
M  V30 497 H 44.8671 -0.938566 -1.09211 0
M  V30 498 H 46.8201 -0.445561 -4.19038 0
M  V30 499 H 45.5441 0.362005 -3.24588 0
M  V30 500 H 44.2031 -1.77021 -3.21028 0
M  V30 501 H 43.8511 -0.0901903 -5.02919 0
M  V30 502 H 43.5511 -1.74732 -5.61019 0
M  V30 503 H 45.0751 -0.918092 -6.03658 0
M  V30 504 H 46.4891 -2.90777 -4.94087 0
M  V30 505 H 44.8861 -3.67425 -4.74467 0
M  V30 506 H 45.9561 -3.51518 -3.34011 0
M  V30 507 N 47.2992 1.18797 -1.03562 0
M  V30 508 C 48.5462 1.8865 -0.736023 0
M  V30 509 C 48.8742 1.80041 0.735889 0
M  V30 510 O 48.1292 1.19179 1.55225 0
M  V30 511 C 48.4282 3.38692 -1.14117 0
M  V30 512 C 48.0942 3.67504 -2.6125 0
M  V30 513 C 46.7562 3.75078 -3.01447 0
M  V30 514 C 49.1082 3.80293 -3.56408 0
M  V30 515 C 46.4362 3.92915 -4.35701 0
M  V30 516 C 48.7882 3.99645 -4.90374 0
M  V30 517 C 47.4522 4.05453 -5.30249 0
M  V30 518 H 46.7222 0.690321 -0.26933 0
M  V30 519 H 49.3692 1.40641 -1.29971 0
M  V30 520 H 47.6742 3.88645 -0.496202 0
M  V30 521 H 49.3712 3.91072 -0.886789 0
M  V30 522 H 45.9612 3.62223 -2.29113 0
M  V30 523 H 50.1452 3.73779 -3.26501 0
M  V30 524 H 45.4012 3.95653 -4.66121 0
M  V30 525 H 49.5752 4.08482 -5.64017 0
M  V30 526 H 47.2022 4.19027 -6.34288 0
M  V30 527 N 48.7773 0.814389 1.34928 0
M  V30 528 C 49.7073 0.244827 2.32213 0
M  V30 529 C 50.6883 -0.634024 1.57842 0
M  V30 530 O 51.8733 -0.562676 1.8587 0
M  V30 531 C 49.0033 -0.601106 3.42058 0
M  V30 532 C 47.9573 0.179896 4.27622 0
M  V30 533 C 47.2833 -0.788237 5.28858 0
M  V30 534 C 48.5833 1.38329 5.03649 0
M  V30 535 H 50.2773 1.05763 2.80097 0
M  V30 536 H 47.8233 0.510029 1.34665 0
M  V30 537 H 49.7763 -1.00968 4.09125 0
M  V30 538 H 48.5003 -1.44688 2.92802 0
M  V30 539 H 47.1593 0.569739 3.62146 0
M  V30 540 H 46.8073 -1.62973 4.75866 0
M  V30 541 H 46.5073 -0.269942 5.8698 0
M  V30 542 H 48.0313 -1.19485 5.98795 0
M  V30 543 H 49.4453 1.04918 5.63618 0
M  V30 544 H 47.8423 1.83662 5.71304 0
M  V30 545 H 48.9123 2.16592 4.33839 0
M  V30 546 N 50.2554 -1.46986 0.568584 0
M  V30 547 C 51.4854 -2.0653 0.0539173 0
M  V30 548 C 51.8934 -1.42004 -1.25026 0
M  V30 549 O 51.2364 -0.514541 -1.76347 0
M  V30 550 C 51.2984 -3.58938 -0.200854 0
M  V30 551 C 50.9624 -4.45572 1.01559 0
M  V30 552 C 51.9594 -4.82986 1.92407 0
M  V30 553 C 49.6444 -4.8692 1.23346 0
M  V30 554 C 51.6384 -5.60559 3.03402 0
M  V30 555 C 49.3254 -5.64255 2.34649 0
M  V30 556 C 50.3234 -6.00986 3.24507 0
M  V30 557 O 50.0114 -6.76761 4.33878 0
M  V30 558 H 49.7434 -0.674292 0.0480234 0
M  V30 559 H 52.2974 -1.89812 0.784896 0
M  V30 560 H 50.5274 -3.73911 -0.986279 0
M  V30 561 H 52.2164 -4.0046 -0.662294 0
M  V30 562 H 52.9824 -4.51633 1.76785 0
M  V30 563 H 48.8614 -4.57789 0.543178 0
M  V30 564 H 52.4054 -5.89147 3.73565 0
M  V30 565 H 48.3024 -5.95021 2.5024 0
M  V30 566 H 49.0704 -6.95168 4.32068 0
M  V30 567 N 51.7335 -0.305618 -1.54608 0
M  V30 568 C 52.9815 0.301701 -1.99835 0
M  V30 569 C 53.3025 1.54054 -1.19551 0
M  V30 570 O 52.5725 1.93702 -0.292658 0
M  V30 571 H 51.1525 0.114468 -0.738178 0
M  V30 572 H 53.8145 -0.418016 -1.90364 0
M  V30 573 H 52.9105 0.570548 -3.06841 0
M  V30 574 N 53.2116 1.57565 -0.0334293 0
M  V30 575 C 54.4606 1.91155 0.643639 0
M  V30 576 C 54.7736 0.91192 1.73042 0
M  V30 577 O 55.9796 1.13923 2.46442 0
M  V30 578 C 54.4356 3.39443 1.1961 0
M  V30 579 C 54.0436 4.47774 0.142381 0
M  V30 580 C 55.7876 3.82094 1.84944 0
M  V30 581 C 53.6946 5.87162 0.706727 0
M  V30 582 H 52.6246 0.713368 0.244176 0
M  V30 583 H 55.2756 1.8323 -0.0994323 0
M  V30 584 H 53.6576 3.42313 1.99092 0
M  V30 585 H 54.8316 4.56469 -0.630296 0
M  V30 586 H 53.1466 4.14352 -0.412446 0
M  V30 587 H 55.7436 4.83591 2.2813 0
M  V30 588 H 56.0866 3.17386 2.69392 0
M  V30 589 H 56.6196 3.81665 1.12145 0
M  V30 590 H 53.3586 6.55424 -0.0997178 0
M  V30 591 H 52.8786 5.82064 1.44779 0
M  V30 592 H 54.5576 6.35866 1.19514 0
M  V30 593 N 54.6897 -0.239769 1.55765 0
M  V30 594 C 55.9357 -0.968234 1.78194 0
M  V30 595 C 56.2687 -1.84701 0.599938 0
M  V30 596 O 55.5437 -1.9031 -0.401524 0
M  V30 597 C 55.8267 -1.8227 3.10564 0
M  V30 598 C 55.6797 -0.971633 4.3918 0
M  V30 599 C 56.9987 -2.80388 3.39221 0
M  V30 600 H 54.1177 -0.350572 0.648281 0
M  V30 601 H 56.7597 -0.238259 1.885 0
M  V30 602 H 54.9097 -2.44507 3.01908 0
M  V30 603 H 56.5817 -0.367408 4.59835 0
M  V30 604 H 54.8247 -0.276276 4.32919 0
M  V30 605 H 55.4957 -1.60346 5.28198 0
M  V30 606 H 57.9717 -2.28287 3.47885 0
M  V30 607 H 56.8477 -3.3729 4.33044 0
M  V30 608 H 57.1087 -3.57212 2.60484 0
M  V30 609 N 56.1678 -1.49265 -0.50573 0
M  V30 610 C 57.0978 -1.68495 -1.61653 0
M  V30 611 C 58.0788 -0.53366 -1.61512 0
M  V30 612 O 59.2638 -0.76897 -1.78327 0
M  V30 613 C 56.3938 -1.74709 -3.00157 0
M  V30 614 C 55.3478 -2.89581 -3.15162 0
M  V30 615 C 54.6738 -2.80903 -4.5497 0
M  V30 616 C 55.9738 -4.30578 -2.95634 0
M  V30 617 H 57.6678 -2.61493 -1.45814 0
M  V30 618 H 55.2138 -1.25838 -0.70005 0
M  V30 619 H 57.1668 -1.86748 -3.77761 0
M  V30 620 H 55.8908 -0.783067 -3.17074 0
M  V30 621 H 54.5498 -2.77136 -2.39982 0
M  V30 622 H 54.1978 -1.82419 -4.68756 0
M  V30 623 H 53.8978 -3.57999 -4.65951 0
M  V30 624 H 55.4218 -2.94944 -5.34641 0
M  V30 625 H 56.8358 -4.4373 -3.63011 0
M  V30 626 H 55.2328 -5.0886 -3.18091 0
M  V30 627 H 56.3028 -4.45352 -1.91806 0
M  V30 628 N 57.6459 0.756429 -1.3826 0
M  V30 629 C 58.8739 1.54565 -1.3754 0
M  V30 630 C 59.2889 1.88767 0.0355331 0
M  V30 631 O 58.6459 1.52572 1.0014 0
M  V30 632 C 58.6969 2.84654 -2.22833 0
M  V30 633 O 58.4179 2.51912 -3.5843 0
M  V30 634 C 59.9189 3.78807 -2.30261 0
M  V30 635 H 57.1389 0.478353 -0.470553 0
M  V30 636 H 59.6829 0.936381 -1.81803 0
M  V30 637 H 57.8379 3.41965 -1.8204 0
M  V30 638 H 58.2519 3.35325 -4.03308 0
M  V30 639 H 59.7259 4.67045 -2.94233 0
M  V30 640 H 60.2029 4.19038 -1.31545 0
M  V30 641 H 60.8089 3.2742 -2.71433 0
M  V30 642 N 59.124 1.23083 0.984299 0
M  V30 643 C 60.054 1.03292 2.09411 0
M  V30 644 C 61.035 -0.048923 1.7003 0
M  V30 645 O 62.22 0.114967 1.93859 0
M  V30 646 C 59.35 0.619155 3.41736 0
M  V30 647 C 58.304 1.64791 3.95004 0
M  V30 648 C 57.63 1.0897 5.23478 0
M  V30 649 C 58.93 3.03999 4.24714 0
M  V30 650 H 60.624 1.96119 2.26225 0
M  V30 651 H 58.17 0.944344 1.08711 0
M  V30 652 H 60.123 0.467777 4.18796 0
M  V30 653 H 58.847 -0.344786 3.24775 0
M  V30 654 H 57.506 1.78721 3.20085 0
M  V30 655 H 57.154 0.11686 5.02864 0
M  V30 656 H 56.854 1.77704 5.60085 0
M  V30 657 H 58.378 0.950093 6.03163 0
M  V30 658 H 59.792 2.93393 4.92538 0
M  V30 659 H 58.189 3.69936 4.72512 0
M  V30 660 H 59.259 3.53285 3.32142 0
M  V30 661 N 60.6021 -1.18246 1.0419 0
M  V30 662 C 61.5321 -2.24127 0.654914 0
M  V30 663 C 62.5131 -1.66617 -0.342451 0
M  V30 664 O 63.6981 -1.92924 -0.222277 0
M  V30 665 C 60.8281 -3.47295 0.0183757 0
M  V30 666 C 59.7821 -4.17563 0.939414 0
M  V30 667 C 59.1081 -5.34438 0.167286 0
M  V30 668 C 60.4081 -4.70917 2.25908 0
M  V30 669 H 62.1021 -2.56753 1.54007 0
M  V30 670 H 59.6481 -1.23414 0.74195 0
M  V30 671 H 61.6011 -4.20572 -0.264082 0
M  V30 672 H 60.3251 -3.13907 -0.901664 0
M  V30 673 H 58.9841 -3.46186 1.20628 0
M  V30 674 H 58.6321 -4.97298 -0.7552 0
M  V30 675 H 58.3321 -5.82388 0.780901 0
M  V30 676 H 59.8561 -6.10504 -0.108125 0
M  V30 677 H 61.2701 -5.35882 2.03724 0
M  V30 678 H 59.6671 -5.29406 2.82577 0
M  V30 679 H 60.7371 -3.88272 2.9047 0
M  V30 680 N 62.0802 -0.821533 -1.34494 0
M  V30 681 C 63.3102 -0.421272 -2.02259 0
M  V30 682 C 63.7182 0.977047 -1.6202 0
M  V30 683 O 63.0612 1.64348 -0.820703 0
M  V30 684 C 63.1232 -0.44231 -3.56769 0
M  V30 685 C 62.7872 -1.79372 -4.20327 0
M  V30 686 C 63.7842 -2.75435 -4.40944 0
M  V30 687 C 61.4692 -2.08182 -4.57127 0
M  V30 688 C 63.4632 -3.98482 -4.97484 0
M  V30 689 C 61.1502 -3.31489 -5.13379 0
M  V30 690 C 62.1482 -4.26457 -5.33501 0
M  V30 691 O 61.8362 -5.47585 -5.88562 0
M  V30 692 H 61.5682 -0.167473 -0.654927 0
M  V30 693 H 64.1222 -1.11073 -1.72777 0
M  V30 694 H 62.3522 0.303836 -3.85505 0
M  V30 695 H 64.0412 -0.0622925 -4.05852 0
M  V30 696 H 64.8072 -2.54473 -4.12878 0
M  V30 697 H 60.6862 -1.35066 -4.4077 0
M  V30 698 H 64.2302 -4.72618 -5.13106 0
M  V30 699 H 60.1272 -3.52316 -5.40873 0
M  V30 700 H 60.8952 -5.49086 -6.06998 0
M  V30 701 N 63.5583 1.46682 -0.576371 0
M  V30 702 C 64.7983 2.04306 -0.0621356 0
M  V30 703 C 65.1623 1.4389 1.2712 0
M  V30 704 O 66.3633 1.92675 1.87429 0
M  V30 705 C 64.6343 3.57399 0.00927922 0
M  V30 706 S 66.1933 4.36309 0.466859 0
M  V30 707 H 63.0113 0.710167 -0.0344016 0
M  V30 708 H 65.6133 1.79807 -0.767437 0
M  V30 709 H 64.3173 3.98889 -0.965178 0
M  V30 710 H 63.8483 3.86424 0.737547 0
M  V30 711 H 65.8633 4.6533 1.72287 0
M  V30 712 N 65.0364 0.313813 1.54444 0
M  V30 713 C 66.4524 -0.0391619 1.59552 0
M  V30 714 C 66.6524 -1.51322 1.33056 0
M  V30 715 O 65.7084 -2.26782 1.11022 0
M  V30 716 C 67.0214 0.370302 2.98411 0
M  V30 717 C 68.5694 0.320139 3.11358 0
M  V30 718 C 69.0444 0.704617 4.52547 0
M  V30 719 N 70.5354 0.657645 4.58508 0
M  V30 720 C 71.2704 0.927453 5.6585 0
M  V30 721 N 70.7664 1.26389 6.81174 0
M  V30 722 N 72.5594 0.853662 5.5558 0
M  V30 723 H 64.7104 1.27433 1.69925 0
M  V30 724 H 66.9734 0.517511 0.794284 0
M  V30 725 H 66.6794 1.39694 3.22767 0
M  V30 726 H 66.5534 -0.269619 3.76235 0
M  V30 727 H 68.9404 -0.697275 2.86744 0
M  V30 728 H 69.0214 0.99486 2.35661 0
M  V30 729 H 68.6654 1.7199 4.77893 0
M  V30 730 H 68.5954 0.00768843 5.26599 0
M  V30 731 H 71.0864 0.409067 3.75679 0
M  V30 732 H 71.3994 1.4554 7.58972 0
M  V30 733 H 69.7444 1.30206 6.82694 0
M  V30 734 H 72.9354 0.590383 4.64362 0
M  V30 735 H 73.1084 1.0673 6.3915 0
M  V30 736 N 66.5145 -1.57545 0.0417849 0
M  V30 737 C 67.4445 -2.14009 -0.933929 0
M  V30 738 C 68.4255 -1.05938 -1.33083 0
M  V30 739 O 69.6105 -1.33833 -1.40721 0
M  V30 740 C 66.7405 -2.67747 -2.21199 0
M  V30 741 C 65.6945 -3.80718 -1.95544 0
M  V30 742 C 65.0205 -4.20935 -3.29724 0
M  V30 743 C 66.3205 -5.06258 -1.28452 0
M  V30 744 H 68.0145 -2.95788 -0.463645 0
M  V30 745 H 65.5605 -1.42285 -0.221573 0
M  V30 746 H 67.5135 -3.05886 -2.89848 0
M  V30 747 H 66.2375 -1.83147 -2.70416 0
M  V30 748 H 64.8965 -3.43037 -1.2931 0
M  V30 749 H 64.5445 -3.33298 -3.76724 0
M  V30 750 H 64.2445 -4.9707 -3.13361 0
M  V30 751 H 65.7685 -4.61666 -3.9962 0
M  V30 752 H 67.1825 -5.41903 -1.8712 0
M  V30 753 H 65.5795 -5.87475 -1.22445 0
M  V30 754 H 66.6495 -4.84207 -0.259219 0
M  V30 755 N 67.9926 0.231505 -1.5589 0
M  V30 756 C 68.9396 1.28682 -1.91598 0
M  V30 757 C 69.9096 1.47071 -0.771974 0
M  V30 758 O 71.0946 1.60802 -1.027 0
M  V30 759 C 68.2346 2.6342 -2.22944 0
M  V30 760 C 67.3476 2.52912 -3.50228 0
M  V30 761 C 66.4826 3.80106 -3.7107 0
M  V30 762 C 65.5216 3.64279 -4.91902 0
M  V30 763 N 64.6586 4.834 -5.09184 0
M  V30 764 H 69.4986 0.975305 -2.81588 0
M  V30 765 H 67.0356 0.470299 -1.39379 0
M  V30 766 H 68.9936 3.41869 -2.39126 0
M  V30 767 H 67.6236 2.92687 -1.36139 0
M  V30 768 H 66.6756 1.6595 -3.42294 0
M  V30 769 H 67.9876 2.37133 -4.38827 0
M  V30 770 H 67.1416 4.66999 -3.87295 0
M  V30 771 H 65.8806 3.98799 -2.80733 0
M  V30 772 H 64.8856 2.7577 -4.75637 0
M  V30 773 H 66.1106 3.47067 -5.83714 0
M  V30 774 H 64.0566 5.02425 -4.21788 0
M  V30 775 H 63.9736 4.70311 -5.91898 0
M  V30 776 H 65.2416 5.71747 -5.29835 0
M  V30 777 N 69.4707 1.49531 0.497807 0
M  V30 778 C 70.7197 1.58426 1.24837 0
M  V30 779 C 71.0327 0.277643 1.93619 0
M  V30 780 O 72.2387 0.24517 2.70391 0
M  V30 781 C 70.6947 2.79538 2.26686 0
M  V30 782 C 70.3027 4.16971 1.63828 0
M  V30 783 C 72.0467 2.97764 3.0255 0
M  V30 784 C 69.9537 5.29301 2.63807 0
M  V30 785 H 68.8837 0.58989 0.469623 0
M  V30 786 H 71.5347 1.75923 0.521857 0
M  V30 787 H 69.9167 2.55542 3.02514 0
M  V30 788 H 71.0907 4.51116 0.939711 0
M  V30 789 H 69.4057 4.04129 1.00342 0
M  V30 790 H 72.0027 3.78856 3.77323 0
M  V30 791 H 72.3457 2.08448 3.60354 0
M  V30 792 H 72.8787 3.21815 2.33838 0
M  V30 793 H 69.6177 6.20687 2.10779 0
M  V30 794 H 69.1377 4.99606 3.31894 0
M  V30 795 H 70.8167 5.58768 3.2617 0
M  V30 796 N 70.9488 -0.749086 1.3866 0
M  V30 797 C 71.8808 -1.87273 1.32142 0
M  V30 798 C 72.8938 -1.61127 0.232787 0
M  V30 799 O 74.0828 -1.71623 0.49069 0
M  V30 800 C 71.1828 -3.23005 1.02571 0
M  V30 801 C 70.3558 -3.7662 2.22433 0
M  V30 802 C 69.4148 -4.90879 1.89537 0
M  V30 803 O 68.4408 -5.05276 2.62078 0
M  V30 804 N 69.6428 -5.74198 0.853031 0
M  V30 805 H 72.4078 -1.93373 2.28969 0
M  V30 806 H 69.9688 -0.929216 1.32579 0
M  V30 807 H 71.9608 -3.96992 0.786085 0
M  V30 808 H 70.5308 -3.12262 0.145249 0
M  V30 809 H 69.7508 -2.94147 2.62434 0
M  V30 810 H 71.0388 -4.09173 3.02415 0
M  V30 811 H 70.4368 -5.6514 0.25155 0
M  V30 812 H 68.9938 -6.48313 0.67329 0
M  V30 813 N 72.4269 -1.23603 -0.977757 0
M  V30 814 C 73.6729 -1.07129 -1.72195 0
M  V30 815 C 74.0059 0.390501 -1.90233 0
M  V30 816 O 73.2809 1.28902 -1.45653 0
M  V30 817 C 73.5639 -1.80031 -3.11867 0
M  V30 818 C 73.4169 -3.33899 -3.01383 0
M  V30 819 C 74.7359 -1.56492 -4.11337 0
M  V30 820 H 71.8549 -0.390571 -0.624999 0
M  V30 821 H 74.4969 -1.52142 -1.13811 0
M  V30 822 H 72.6469 -1.41768 -3.6171 0
M  V30 823 H 74.3189 -3.81699 -2.59043 0
M  V30 824 H 72.5619 -3.62796 -2.37827 0
M  V30 825 H 73.2329 -3.801 -4.00285 0
M  V30 826 H 75.7089 -1.89757 -3.70313 0
M  V30 827 H 74.5849 -2.09973 -5.07151 0
M  V30 828 H 74.8459 -0.500874 -4.39254 0
M  V30 829 N 73.905 1.17692 -1.04816 0
M  V30 830 C 75.321 1.39863 -0.768794 0
M  V30 831 C 75.521 1.91118 0.638451 0
M  V30 832 O 74.577 2.10036 1.40146 0
M  V30 833 C 75.89 2.39274 -1.82122 0
M  V30 834 C 77.438 2.52987 -1.843 0
M  V30 835 C 77.913 3.55669 -2.88555 0
M  V30 836 N 79.404 3.63183 -2.87493 0
M  V30 837 C 80.139 4.42381 -3.64811 0
M  V30 838 N 79.635 5.25125 -4.51903 0
M  V30 839 N 81.428 4.37217 -3.53267 0
M  V30 840 H 73.579 0.82752 -1.95617 0
M  V30 841 H 75.842 0.426123 -0.846831 0
M  V30 842 H 75.548 2.08678 -2.83102 0
M  V30 843 H 75.422 3.38725 -1.65967 0
M  V30 844 H 77.809 2.82896 -0.839869 0
M  V30 845 H 77.89 1.53623 -2.04532 0
M  V30 846 H 77.534 3.26499 -3.89051 0
M  V30 847 H 77.464 4.54728 -2.65575 0
M  V30 848 H 79.955 3.04103 -2.24343 0
M  V30 849 H 80.268 5.82728 -5.07591 0
M  V30 850 H 78.613 5.24519 -4.55966 0
M  V30 851 H 81.804 3.71626 -2.84625 0
M  V30 852 H 81.977 4.98696 -4.13771 0
M  V30 853 N 75.3831 0.828654 1.34056 0
M  V30 854 C 76.3301 0.252567 2.29414 0
M  V30 855 C 77.3001 -0.62588 1.53857 0
M  V30 856 O 78.4851 -0.566312 1.82202 0
M  V30 857 C 75.6251 -0.574831 3.40279 0
M  V30 858 C 74.7381 0.326499 4.30764 0
M  V30 859 C 73.8731 -0.511016 5.28736 0
M  V30 860 C 72.9121 0.389342 6.1086 0
M  V30 861 N 72.0491 -0.409439 7.00905 0
M  V30 862 H 76.8891 1.07108 2.78086 0
M  V30 863 H 74.4261 0.539677 1.36843 0
M  V30 864 H 76.3841 -1.06992 4.03248 0
M  V30 865 H 75.0141 -1.35841 2.92826 0
M  V30 866 H 74.0661 0.939837 3.68607 0
M  V30 867 H 75.3781 1.01857 4.88289 0
M  V30 868 H 74.5321 -1.07035 5.97184 0
M  V30 869 H 73.2711 -1.23657 4.71763 0
M  V30 870 H 72.2761 0.960769 5.4134 0
M  V30 871 H 73.5011 1.1131 6.69916 0
M  V30 872 H 71.4471 -1.11856 6.46393 0
M  V30 873 H 71.3641 0.224126 7.55668 0
M  V30 874 H 72.6321 -0.951336 7.73673 0
M  V30 875 N 76.8612 -1.46375 0.584142 0
M  V30 876 C 77.8242 -2.28784 -0.138108 0
M  V30 877 C 78.8242 -1.38471 -0.817462 0
M  V30 878 O 80.0142 -1.60833 -0.669199 0
M  V30 879 C 77.1462 -3.18892 -1.20503 0
M  V30 880 H 78.3392 -2.94117 0.586127 0
M  V30 881 H 75.8922 -1.52509 0.342171 0
M  V30 882 H 76.6272 -2.58309 -1.96079 0
M  V30 883 H 76.4122 -3.85388 -0.722384 0
M  V30 884 H 77.9022 -3.80914 -1.71155 0
M  V30 885 N 78.3393 -0.321999 -1.54275 0
M  V30 886 C 79.3023 0.531975 -2.22941 0
M  V30 887 C 80.3023 1.04478 -1.22234 0
M  V30 888 O 81.4923 0.937452 -1.46825 0
M  V30 889 C 78.6243 1.73874 -2.93224 0
M  V30 890 H 79.8173 -0.0682612 -2.99822 0
M  V30 891 H 77.3703 -0.0730644 -1.56129 0
M  V30 892 H 78.1053 2.37825 -2.20476 0
M  V30 893 H 77.8903 1.37847 -3.6707 0
M  V30 894 H 79.3803 2.34496 -3.45545 0
M  V30 895 N 79.8174 1.5752 -0.0501392 0
M  V30 896 C 81.0664 1.91827 0.623328 0
M  V30 897 C 81.3794 0.930222 1.72065 0
M  V30 898 O 82.5854 1.1653 2.4522 0
M  V30 899 C 81.0414 3.40692 1.16003 0
M  V30 900 C 80.6494 4.479 0.0948811 0
M  V30 901 C 82.3934 3.84034 1.80881 0
M  V30 902 C 80.3004 5.87879 0.644411 0
M  V30 903 H 79.2304 0.715918 0.236596 0
M  V30 904 H 81.8814 1.83115 -0.118861 0
M  V30 905 H 80.2634 3.44405 1.9545 0
M  V30 906 H 81.4374 4.55775 -0.678675 0
M  V30 907 H 79.7524 4.13892 -0.45637 0
M  V30 908 H 82.3494 4.85984 2.22988 0
M  V30 909 H 82.6924 3.20225 2.6601 0
M  V30 910 H 83.2254 3.82833 1.0809 0
M  V30 911 H 79.9644 6.55282 -0.169229 0
M  V30 912 H 79.4844 5.83567 1.38598 0
M  V30 913 H 81.1634 6.37098 1.12763 0
M  V30 914 N 81.2955 -0.223234 1.56011 0
M  V30 915 C 82.5235 -0.964812 1.83027 0
M  V30 916 C 82.9385 -1.78013 0.62904 0
M  V30 917 O 82.2955 -1.78008 -0.402414 0
M  V30 918 C 82.3465 -1.88373 3.08542 0
M  V30 919 O 82.0675 -1.10137 4.2403 0
M  V30 920 C 83.5685 -2.73934 3.48533 0
M  V30 921 H 80.7885 -0.282842 0.608475 0
M  V30 922 H 83.3325 -0.238971 2.03099 0
M  V30 923 H 81.4875 -2.56354 2.9045 0
M  V30 924 H 81.9015 -1.72501 4.95322 0
M  V30 925 H 83.3755 -3.34117 4.39397 0
M  V30 926 H 83.8525 -3.46244 2.70207 0
M  V30 927 H 84.4585 -2.11369 3.69057 0
M  V30 928 N 82.7736 -1.49793 -0.48987 0
M  V30 929 C 83.9986 -1.63836 -1.27172 0
M  V30 930 C 84.4236 -0.31402 -1.8546 0
M  V30 931 O 83.7816 0.719803 -1.66399 0
M  V30 932 C 83.8296 -2.71797 -2.36978 0
M  V30 933 O 82.9336 -2.31744 -3.41128 0
M  V30 934 H 82.2746 -0.547997 -0.37496 0
M  V30 935 H 84.8046 -1.96053 -0.585191 0
M  V30 936 H 84.8146 -2.94305 -2.82575 0
M  V30 937 H 83.4896 -3.67923 -1.93921 0
M  V30 938 H 82.0666 -2.1961 -3.01373 0
M  V30 939 N 84.2517 0.741722 -1.39055 0
M  V30 940 C 85.4817 1.52876 -1.3897 0
M  V30 941 C 85.8897 1.8919 0.0193266 0
M  V30 942 O 85.2327 1.54138 0.999356 0
M  V30 943 C 85.2947 2.84929 -2.19216 0
M  V30 944 C 84.9587 2.71086 -3.67915 0
M  V30 945 C 85.9557 2.40084 -4.61146 0
M  V30 946 C 83.6407 2.88168 -4.11418 0
M  V30 947 C 85.6347 2.26335 -5.95862 0
M  V30 948 C 83.3217 2.74037 -5.46211 0
M  V30 949 C 84.3197 2.43166 -6.38247 0
M  V30 950 O 84.0077 2.29115 -7.70559 0
M  V30 951 H 83.7397 0.479252 -0.476753 0
M  V30 952 H 86.2937 0.924751 -1.83405 0
M  V30 953 H 84.5237 3.47564 -1.69518 0
M  V30 954 H 86.2127 3.46509 -2.11392 0
M  V30 955 H 86.9787 2.26545 -4.28838 0
M  V30 956 H 82.8577 3.11191 -3.40119 0
M  V30 957 H 86.4017 2.0216 -6.67665 0
M  V30 958 H 82.2987 2.87153 -5.78112 0
M  V30 959 H 83.0667 2.44237 -7.81211 0
M  V30 960 N 85.7298 1.2412 0.971189 0
M  V30 961 C 86.6398 1.04747 2.09917 0
M  V30 962 C 87.6558 -0.0107162 1.73997 0
M  V30 963 O 88.8318 0.186714 2.00533 0
M  V30 964 C 85.8968 0.650828 3.40537 0
M  V30 965 C 84.9578 1.7851 3.90426 0
M  V30 966 C 84.1908 1.40729 5.14812 0
M  V30 967 O 84.4138 0.29557 5.69634 0
M  V30 968 O 83.3478 2.23168 5.58999 0
M  V30 969 H 87.1738 1.99304 2.29154 0
M  V30 970 H 84.7588 1.02908 1.08307 0
M  V30 971 H 86.6408 0.440992 4.19086 0
M  V30 972 H 85.3158 -0.265649 3.22608 0
M  V30 973 H 84.2228 2.04966 3.12953 0
M  V30 974 H 85.5558 2.68023 4.12825 0
M  V30 975 N 87.2079 -1.17134 1.05439 0
M  V30 976 C 88.1549 -2.21235 0.657539 0
M  V30 977 C 89.1249 -1.62551 -0.341543 0
M  V30 978 O 90.3099 -1.89379 -0.232393 0
M  V30 979 C 87.4499 -3.45076 0.0410575 0
M  V30 980 C 86.5629 -4.18042 1.08927 0
M  V30 981 C 85.6979 -5.29376 0.439848 0
M  V30 982 C 84.7369 -5.94132 1.4722 0
M  V30 983 N 83.8739 -6.96975 0.846756 0
M  V30 984 H 88.7139 -2.54534 1.54972 0
M  V30 985 H 86.2509 -1.25028 0.775006 0
M  V30 986 H 88.2089 -4.15862 -0.33383 0
M  V30 987 H 86.8389 -3.12353 -0.814568 0
M  V30 988 H 85.8909 -3.45945 1.58196 0
M  V30 989 H 87.2029 -4.62306 1.87282 0
M  V30 990 H 86.3569 -6.06699 0.0115125 0
M  V30 991 H 85.0959 -4.86251 -0.375656 0
M  V30 992 H 84.1009 -5.15538 1.91052 0
M  V30 993 H 85.3259 -6.39337 2.28965 0
M  V30 994 H 83.2719 -6.5598 0.0518075 0
M  V30 995 H 83.1889 -7.39565 1.5678 0
M  V30 996 H 84.4569 -7.78239 0.443277 0
M  V30 997 N 88.686 -0.835752 -1.33615 0
M  V30 998 C 89.911 -0.442389 -2.02627 0
M  V30 999 C 90.336 0.947735 -1.62479 0
M  V30 1000 O 89.694 1.61907 -0.815826 0
M  V30 1001 C 89.742 -0.567216 -3.56111 0
M  V30 1002 O 88.846 0.407799 -4.10379 0
M  V30 1003 H 88.187 -0.180278 -0.639059 0
M  V30 1004 H 90.717 -1.12972 -1.70583 0
M  V30 1005 H 90.727 -0.447708 -4.05536 0
M  V30 1006 H 89.402 -1.58103 -3.84677 0
M  V30 1007 H 87.979 0.246107 -3.72087 0
M  V30 1008 N 90.1641 1.46063 -0.591896 0
M  V30 1009 C 91.4411 1.95595 -0.0137119 0
M  V30 1010 C 91.8211 1.5345 1.4497 0
M  V30 1011 O 91.1691 0.789543 2.14426 0
M  V30 1012 C 91.3791 3.48453 -0.195373 0
M  V30 1013 C 92.7271 4.24546 -0.0679765 0
M  V30 1014 O 93.7511 3.55982 -0.124681 0
M  V30 1015 O 92.6101 5.46467 0.0600579 0
M  V30 1016 H 89.7041 0.825795 0.0446279 0
M  V30 1017 H 92.2501 1.56303 -0.660859 0
M  V30 1018 H 91.0221 3.72045 -1.21235 0
M  V30 1019 H 90.6451 3.94597 0.487775 0
M  V30 1020 N 91.6422 0.330177 1.54103 0
M  V30 1021 C 92.8902 -0.269871 2.0029 0
M  V30 1022 C 93.2112 -1.52133 1.21986 0
M  V30 1023 O 92.4812 -1.93212 0.323438 0
M  V30 1024 H 91.0612 -0.10271 0.739905 0
M  V30 1025 H 93.7232 0.448249 1.89675 0
M  V30 1026 H 92.8192 -0.52166 3.07709 0
M  V30 1027 N 93.1203 -1.57491 0.0584922 0
M  V30 1028 C 94.3663 -1.93264 -0.614558 0
M  V30 1029 C 94.6993 -0.937717 -1.7006 0
M  V30 1030 O 93.9743 0.0351652 -1.94468 0
M  V30 1031 C 94.2573 -3.3938 -1.20386 0
M  V30 1032 C 94.1103 -4.49625 -0.125375 0
M  V30 1033 C 95.4293 -3.86039 -2.11334 0
M  V30 1034 H 92.5483 -0.702791 -0.221933 0
M  V30 1035 H 95.1903 -1.8961 0.12175 0
M  V30 1036 H 93.3403 -3.42626 -1.83139 0
M  V30 1037 H 95.0123 -4.58506 0.506971 0
M  V30 1038 H 93.2553 -4.30354 0.545672 0
M  V30 1039 H 93.9263 -5.48967 -0.577861 0
M  V30 1040 H 96.4023 -3.84716 -1.58534 0
M  V30 1041 H 95.2783 -4.88914 -2.49507 0
M  V30 1042 H 95.5393 -3.23215 -3.01636 0
M  V30 1043 N 94.5984 0.214957 -1.56127 0
M  V30 1044 C 95.8284 0.953707 -1.8327 0
M  V30 1045 C 96.2364 1.78181 -0.636262 0
M  V30 1046 O 95.5794 1.79191 0.404516 0
M  V30 1047 C 95.6414 1.91516 -3.0424 0
M  V30 1048 C 95.3054 1.27094 -4.38972 0
M  V30 1049 C 96.3024 0.657575 -5.15725 0
M  V30 1050 C 93.9874 1.28073 -4.85698 0
M  V30 1051 C 95.9814 0.0625968 -6.37369 0
M  V30 1052 C 93.6684 0.681914 -6.07283 0
M  V30 1053 C 94.6664 0.0739046 -6.8296 0
M  V30 1054 O 94.3544 -0.515582 -8.02245 0
M  V30 1055 H 94.0864 0.284764 -0.613095 0
M  V30 1056 H 96.6404 0.233283 -2.04071 0
M  V30 1057 H 94.8704 2.67475 -2.79274 0
M  V30 1058 H 96.5594 2.52001 -3.18198 0
M  V30 1059 H 97.3254 0.642288 -4.80728 0
M  V30 1060 H 93.2044 1.74337 -4.26764 0
M  V30 1061 H 96.7484 -0.412593 -6.96379 0
M  V30 1062 H 92.6454 0.694636 -6.41752 0
M  V30 1063 H 93.4134 -0.410544 -8.1747 0
M  V30 1064 N 96.0765 1.50051 0.48192 0
M  V30 1065 C 97.3045 1.64237 1.25832 0
M  V30 1066 C 97.7195 0.321336 1.86045 0
M  V30 1067 O 97.0765 -0.695478 1.68729 0
M  V30 1068 C 97.1275 2.72548 2.37487 0
M  V30 1069 O 96.8485 3.99529 1.79745 0
M  V30 1070 C 98.3495 2.9761 3.28547 0
M  V30 1071 H 95.5695 0.55237 0.380957 0
M  V30 1072 H 98.1135 1.96207 0.576467 0
M  V30 1073 H 96.2685 2.43303 3.01467 0
M  V30 1074 H 96.6825 4.59342 2.5319 0
M  V30 1075 H 98.1565 3.77084 4.03127 0
M  V30 1076 H 98.6335 2.0826 3.86684 0
M  V30 1077 H 99.2395 3.28345 2.70314 0
M  V30 1078 N 97.5546 -0.734337 1.39446 0
M  V30 1079 C 98.8026 -1.49096 1.36436 0
M  V30 1080 C 99.1236 -1.94961 -0.0388255 0
M  V30 1081 O 98.3936 -1.69033 -0.990191 0
M  V30 1082 H 96.9736 -0.5531 0.502085 0
M  V30 1083 H 99.6356 -0.871725 1.74319 0
M  V30 1084 H 98.7316 -2.37276 2.02747 0
M  V30 1085 N 99.0327 -1.24633 -0.964593 0
M  V30 1086 C 99.9627 -1.06611 -2.07741 0
M  V30 1087 C 100.944 0.0218666 -1.70086 0
M  V30 1088 O 102.129 -0.145793 -1.93652 0
M  V30 1089 C 99.2587 -0.673444 -3.40708 0
M  V30 1090 C 98.2127 -1.71054 -3.92332 0
M  V30 1091 C 97.5387 -1.17285 -5.21678 0
M  V30 1092 C 98.8387 -3.10718 -4.19824 0
M  V30 1093 H 100.533 -1.99693 -2.23076 0
M  V30 1094 H 98.0787 -0.96152 -1.07195 0
M  V30 1095 H 100.032 -0.534345 -4.17998 0
M  V30 1096 H 98.7557 0.293073 -3.25282 0
M  V30 1097 H 97.4147 -1.83791 -3.17201 0
M  V30 1098 H 97.0627 -0.196847 -5.02615 0
M  V30 1099 H 96.7627 -1.86592 -5.57187 0
M  V30 1100 H 98.2867 -1.04593 -6.01575 0
M  V30 1101 H 99.7007 -3.01192 -4.87808 0
M  V30 1102 H 98.0977 -3.77406 -4.66567 0
M  V30 1103 H 99.1677 -3.58524 -3.26479 0
M  V30 1104 N 100.511 1.16574 -1.06058 0
M  V30 1105 C 101.736 1.91493 -0.796562 0
M  V30 1106 C 102.161 1.76773 0.642868 0
M  V30 1107 O 101.519 1.09142 1.44768 0
M  V30 1108 C 101.567 3.40293 -1.19303 0
M  V30 1109 O 100.671 4.11074 -0.330394 0
M  V30 1110 H 100.012 0.596678 -0.291326 0
M  V30 1111 H 102.542 1.47708 -1.41575 0
M  V30 1112 H 102.552 3.91057 -1.16356 0
M  V30 1113 H 101.227 3.50326 -2.24153 0
M  V30 1114 H 99.8038 3.70513 -0.421225 0
M  V30 1115 N 101.989 0.842826 1.3317 0
M  V30 1116 C 103.217 0.454055 2.01856 0
M  V30 1117 C 103.632 -0.94587 1.63397 0
M  V30 1118 O 102.989 -1.61534 0.849302 0
M  V30 1119 C 103.04 0.569715 3.56982 0
M  V30 1120 O 102.761 1.91448 3.94055 0
M  V30 1121 C 104.262 0.178412 4.42941 0
M  V30 1122 H 101.482 0.17979 0.646465 0
M  V30 1123 H 104.026 1.1365 1.70012 0
M  V30 1124 H 102.181 -0.0648587 3.87346 0
M  V30 1125 H 102.595 1.90282 4.88767 0
M  V30 1126 H 104.069 0.310376 5.51127 0
M  V30 1127 H 104.546 -0.880056 4.30293 0
M  V30 1128 H 105.152 0.787579 4.17944 0
M  V30 1129 N 103.467 -1.45747 0.599634 0
M  V30 1130 C 104.883 -1.57424 0.26264 0
M  V30 1131 C 105.083 -1.59222 -1.23493 0
M  V30 1132 O 104.139 -1.51825 -2.01756 0
M  V30 1133 C 105.452 -2.86061 0.926795 0
M  V30 1134 C 107 -2.99722 0.901967 0
M  V30 1135 C 107.475 -4.31119 1.54598 0
M  V30 1136 N 108.966 -4.37858 1.5111 0
M  V30 1137 C 109.701 -5.3818 1.97863 0
M  V30 1138 N 109.197 -6.45083 2.52666 0
M  V30 1139 N 110.99 -5.29487 1.88679 0
M  V30 1140 H 103.141 -1.42823 1.57211 0
M  V30 1141 H 105.404 -0.68235 0.658105 0
M  V30 1142 H 105.11 -2.90605 1.98095 0
M  V30 1143 H 104.984 -3.74563 0.445238 0
M  V30 1144 H 107.371 -2.9475 -0.143617 0
M  V30 1145 H 107.452 -2.12652 1.42171 0
M  V30 1146 H 107.096 -4.36849 2.59085 0
M  V30 1147 H 107.026 -5.16992 1.00132 0
M  V30 1148 H 109.517 -3.61209 1.11068 0
M  V30 1149 H 109.83 -7.17869 2.86155 0
M  V30 1150 H 108.175 -6.45856 2.56701 0
M  V30 1151 H 111.366 -4.44877 1.4561 0
M  V30 1152 H 111.539 -6.07524 2.25429 0
M  V30 1153 N 104.945 -0.338344 -1.53925 0
M  V30 1154 C 105.893 0.536231 -2.26335 0
M  V30 1155 C 106.887 1.1063 -1.28286 0
M  V30 1156 O 108.093 1.05264 -1.46012 0
M  V30 1157 H 104.468 0.191602 -0.727181 0
M  V30 1158 H 106.439 -0.0965747 -2.98244 0
M  V30 1159 C 105.188 1.67803 -3.04528 0
M  V30 1160 H 104.511 1.24864 -3.79801 0
M  V30 1161 H 105.951 2.26526 -3.58416 0
M  V30 1162 C 104.41 2.60439 -2.13712 0
M  V30 1163 O 104.94 3.6255 -1.72975 0
M  V30 1164 N 103.146 2.29006 -1.78898 0
M  V30 1165 H 102.693 1.46011 -2.12223 0
M  V30 1166 H 102.651 2.91248 -1.18416 0
M  V30 1167 N 106.423 1.57458 -0.0668435 0
M  V30 1168 C 107.355 2.09413 0.931601 0
M  V30 1169 C 108.368 1.02522 1.26464 0
M  V30 1170 O 109.557 1.30049 1.22269 0
M  V30 1171 C 106.657 2.53537 2.24882 0
M  V30 1172 C 105.83 3.83944 2.09537 0
M  V30 1173 C 104.889 4.14214 3.2452 0
M  V30 1174 O 103.915 4.83891 2.9973 0
M  V30 1175 N 105.117 3.67367 4.49469 0
M  V30 1176 H 107.882 2.95699 0.488048 0
M  V30 1177 H 105.443 1.61462 0.119009 0
M  V30 1178 H 107.435 2.70853 3.00701 0
M  V30 1179 H 106.005 1.72415 2.60753 0
M  V30 1180 H 105.225 3.76057 1.18215 0
M  V30 1181 H 106.513 4.69312 1.96529 0
M  V30 1182 H 105.911 3.11068 4.72497 0
M  V30 1183 H 104.468 3.89891 5.2233 0
M  V30 1184 N 107.901 -0.206675 1.56239 0
M  V30 1185 C 108.811 -1.27686 1.96808 0
M  V30 1186 C 109.827 -1.50455 0.874035 0
M  V30 1187 O 111.003 -1.63295 1.17884 0
M  V30 1188 C 108.068 -2.60358 2.28942 0
M  V30 1189 C 107.129 -2.45762 3.51994 0
M  V30 1190 C 106.362 -3.72108 3.82585 0
M  V30 1191 O 106.585 -4.75776 3.14631 0
M  V30 1192 O 105.519 -3.6833 4.76043 0
M  V30 1193 H 109.345 -0.962593 2.88041 0
M  V30 1194 H 106.93 -0.410746 1.43643 0
M  V30 1195 H 108.812 -3.38687 2.50737 0
M  V30 1196 H 107.487 -2.91435 1.4088 0
M  V30 1197 H 106.394 -1.65584 3.35459 0
M  V30 1198 H 107.727 -2.19621 4.40486 0
M  V30 1199 N 109.379 -1.50304 -0.473955 0
M  V30 1200 C 110.607 -1.64902 -1.24959 0
M  V30 1201 C 111.022 -0.331198 -1.85872 0
M  V30 1202 O 110.379 0.68652 -1.69095 0
M  V30 1203 C 110.43 -2.73803 -2.36038 0
M  V30 1204 O 110.151 -4.00477 -1.77624 0
M  V30 1205 C 111.652 -2.99349 -3.26964 0
M  V30 1206 H 108.872 -0.554383 -0.378022 0
M  V30 1207 H 111.416 -1.9651 -0.566054 0
M  V30 1208 H 109.571 -2.44898 -3.00173 0
M  V30 1209 H 109.985 -4.60678 -2.5075 0
M  V30 1210 H 111.459 -3.79217 -4.01121 0
M  V30 1211 H 111.936 -2.10307 -3.85574 0
M  V30 1212 H 112.542 -3.29774 -2.68569 0
M  V30 1213 N 110.857 0.726932 -1.39834 0
M  V30 1214 C 112.087 1.51393 -1.40583 0
M  V30 1215 C 112.495 1.892 -0.000740625 0
M  V30 1216 O 111.838 1.55189 0.982951 0
M  V30 1217 C 111.9 2.82588 -2.22226 0
M  V30 1218 C 111.564 2.67169 -3.70769 0
M  V30 1219 C 112.561 2.3518 -4.63666 0
M  V30 1220 C 110.246 2.83788 -4.14451 0
M  V30 1221 C 112.24 2.20002 -5.98229 0
M  V30 1222 C 109.927 2.68229 -5.49087 0
M  V30 1223 C 110.925 2.36382 -6.4079 0
M  V30 1224 O 110.613 2.2093 -7.72946 0
M  V30 1225 H 110.345 0.474168 -0.48181 0
M  V30 1226 H 112.899 0.905247 -1.84376 0
M  V30 1227 H 111.129 3.45746 -1.73195 0
M  V30 1228 H 112.818 3.44247 -2.15055 0
M  V30 1229 H 113.584 2.21984 -4.31217 0
M  V30 1230 H 109.463 3.07566 -3.43401 0
M  V30 1231 H 113.007 1.95067 -6.69772 0
M  V30 1232 H 108.904 2.81006 -5.81125 0
M  V30 1233 H 109.672 2.35937 -7.83757 0
M  V30 1234 N 112.336 1.25143 0.95797 0
M  V30 1235 C 113.246 1.06968 2.08794 0
M  V30 1236 C 114.262 0.00773911 1.73998 0
M  V30 1237 O 115.438 0.207972 2.00323 0
M  V30 1238 C 112.503 0.68691 3.39827 0
M  V30 1239 C 111.564 1.82641 3.88511 0
M  V30 1240 C 110.797 1.46181 5.1329 0
M  V30 1241 O 111.02 0.355971 5.69288 0
M  V30 1242 O 109.954 2.29085 5.566 0
M  V30 1243 H 113.78 2.01723 2.27027 0
M  V30 1244 H 111.365 1.04051 1.07209 0
M  V30 1245 H 113.247 0.485417 4.18595 0
M  V30 1246 H 111.922 -0.231417 3.22872 0
M  V30 1247 H 110.829 2.08274 3.10762 0
M  V30 1248 H 112.162 2.72386 4.09959 0
M  V30 1249 N 113.814 -1.1601 1.06675 0
M  V30 1250 C 115.042 -1.90527 0.806667 0
M  V30 1251 C 115.457 -1.77643 -0.639396 0
M  V30 1252 O 114.814 -1.12369 -1.43803 0
M  V30 1253 C 114.865 -3.41106 1.19705 0
M  V30 1254 O 114.586 -3.53608 2.58636 0
M  V30 1255 C 116.087 -4.32663 0.965266 0
M  V30 1256 H 113.307 -0.604053 0.292166 0
M  V30 1257 H 115.851 -1.47026 1.4214 0
M  V30 1258 H 114.006 -3.82296 0.626774 0
M  V30 1259 H 114.42 -4.47011 2.74375 0
M  V30 1260 H 115.894 -5.36763 1.288 0
M  V30 1261 H 116.371 -4.39089 -0.0987936 0
M  V30 1262 H 116.977 -3.97206 1.52011 0
M  V30 1263 N 115.292 -0.849877 -1.32721 0
M  V30 1264 C 116.222 -0.306308 -2.31482 0
M  V30 1265 C 117.203 0.591952 -1.59468 0
M  V30 1266 O 118.388 0.513199 -1.87296 0
M  V30 1267 C 115.518 0.510204 -3.43532 0
M  V30 1268 C 114.472 -0.293209 -4.26994 0
M  V30 1269 C 113.798 0.647743 -5.30762 0
M  V30 1270 C 115.098 -1.51634 -4.99804 0
M  V30 1271 H 116.792 -1.13153 -2.77195 0
M  V30 1272 H 114.338 -0.545553 -1.33266 0
M  V30 1273 H 116.291 0.900856 -4.11658 0
M  V30 1274 H 115.015 1.36874 -2.96535 0
M  V30 1275 H 113.674 -0.665555 -3.60508 0
M  V30 1276 H 113.322 1.50299 -4.8002 0
M  V30 1277 H 113.022 0.11422 -5.87489 0
M  V30 1278 H 114.546 1.03567 -6.01753 0
M  V30 1279 H 115.96 -1.19824 -5.60638 0
M  V30 1280 H 114.357 -1.98745 -5.66234 0
M  V30 1281 H 115.427 -2.28018 -4.27943 0
M  V30 1282 N 116.77 1.45427 -0.607355 0
M  V30 1283 C 117.717 2.3053 0.111625 0
M  V30 1284 C 118.687 1.4209 0.860216 0
M  V30 1285 O 119.872 1.71019 0.845998 0
M  V30 1286 C 117.012 3.26992 1.10319 0
M  V30 1287 C 116.125 4.30535 0.355493 0
M  V30 1288 C 115.26 5.14105 1.33676 0
M  V30 1289 C 114.299 6.09376 0.576862 0
M  V30 1290 N 113.436 6.85727 1.5074 0
M  V30 1291 H 118.276 2.91477 -0.620093 0
M  V30 1292 H 115.813 1.43631 -0.317594 0
M  V30 1293 H 117.771 3.81385 1.6912 0
M  V30 1294 H 116.401 2.67799 1.80232 0
M  V30 1295 H 115.453 3.78805 -0.348023 0
M  V30 1296 H 116.765 4.98235 -0.237423 0
M  V30 1297 H 115.919 5.72897 1.99684 0
M  V30 1298 H 114.658 4.46423 1.9636 0
M  V30 1299 H 113.663 5.49715 -0.0968519 0
M  V30 1300 H 114.888 6.79085 -0.0449341 0
M  V30 1301 H 112.834 6.20735 2.12189 0
M  V30 1302 H 112.751 7.49778 0.967913 0
M  V30 1303 H 114.019 7.4906 2.15706 0
M  V30 1304 N 118.248 0.346503 1.53744 0
M  V30 1305 C 119.198 -0.524953 2.21874 0
M  V30 1306 C 120.182 -1.06376 1.20718 0
M  V30 1307 O 121.374 -0.996972 1.46251 0
M  V30 1308 C 118.503 -1.6739 2.99726 0
M  V30 1309 C 117.589 -1.14888 4.08242 0
M  V30 1310 N 117.98 -0.345329 5.0462 0
M  V30 1311 C 116.278 -1.4255 4.22606 0
M  V30 1312 C 116.979 -0.0600706 5.81669 0
M  V30 1313 N 115.955 -0.65252 5.39669 0
M  V30 1314 H 119.757 0.0960091 2.93743 0
M  V30 1315 H 117.271 0.15352 1.61673 0
M  V30 1316 H 119.268 -2.3102 3.47038 0
M  V30 1317 H 117.928 -2.29811 2.29384 0
M  V30 1318 H 118.939 0.0138439 5.17898 0
M  V30 1319 H 115.616 -2.05389 3.63486 0
M  V30 1320 H 117.006 0.588321 6.69319 0
M  V30 1321 N 119.726 -1.57421 0.075193 0
M  V30 1322 C 120.636 -2.1642 -0.905511 0
M  V30 1323 C 121.652 -1.12828 -1.32461 0
M  V30 1324 O 122.828 -1.45109 -1.39661 0
M  V30 1325 C 119.893 -2.71693 -2.15369 0
M  V30 1326 C 118.954 -3.90171 -1.79068 0
M  V30 1327 C 118.187 -4.42798 -2.97936 0
M  V30 1328 O 118.41 -3.94416 -4.12058 0
M  V30 1329 O 117.344 -5.34085 -2.77555 0
M  V30 1330 H 121.17 -3.00588 -0.433626 0
M  V30 1331 H 118.755 -1.48664 -0.148067 0
M  V30 1332 H 120.637 -3.07104 -2.88557 0
M  V30 1333 H 119.312 -1.90582 -2.61649 0
M  V30 1334 H 118.219 -3.59606 -1.03122 0
M  V30 1335 H 119.552 -4.72584 -1.37569 0
M  V30 1336 N 121.204 0.198386 -1.56346 0
M  V30 1337 C 122.151 1.24589 -1.94284 0
M  V30 1338 C 123.121 1.454 -0.802997 0
M  V30 1339 O 124.306 1.58588 -1.06087 0
M  V30 1340 C 121.446 2.58631 -2.28482 0
M  V30 1341 C 120.559 2.45426 -3.55514 0
M  V30 1342 C 119.694 3.7215 -3.79049 0
M  V30 1343 C 118.733 3.53763 -4.99518 0
M  V30 1344 N 117.87 4.72491 -5.19323 0
M  V30 1345 H 122.71 0.915356 -2.83593 0
M  V30 1346 H 120.247 0.440629 -1.40346 0
M  V30 1347 H 122.205 3.3672 -2.46324 0
M  V30 1348 H 120.835 2.89734 -1.42317 0
M  V30 1349 H 119.887 1.58652 -3.45737 0
M  V30 1350 H 121.199 2.27772 -4.43758 0
M  V30 1351 H 120.353 4.58679 -3.97113 0
M  V30 1352 H 119.092 3.92754 -2.89129 0
M  V30 1353 H 118.097 2.65619 -4.8138 0
M  V30 1354 H 119.322 3.34607 -5.90944 0
M  V30 1355 H 117.268 4.93365 -4.3235 0
M  V30 1356 H 117.185 4.5765 -6.01741 0
M  V30 1357 H 118.453 5.6038 -5.41843 0
M  V30 1358 N 122.682 1.50554 0.465978 0
M  V30 1359 C 124.093 1.54599 1.04671 0
M  V30 1360 C 124.444 0.352488 1.93008 0
M  V30 1361 O 123.569 -0.534044 2.09707 0
M  V30 1362 C 124.164 2.80166 1.90505 0
M  V30 1363 C 122.723 2.86876 2.43678 0
M  V30 1364 C 121.87 2.48947 1.22151 0
M  V30 1365 H 124.821 1.56744 0.248384 0
M  V30 1366 H 124.842 2.62311 2.75633 0
M  V30 1367 H 124.354 3.67013 1.26186 0
M  V30 1368 H 122.455 2.04393 3.11536 0
M  V30 1369 H 122.568 3.89885 2.78436 0
M  V30 1370 H 120.932 2.01498 1.5579 0
M  V30 1371 H 121.715 3.38107 0.594866 0
M  V30 1372 N 124.16 -0.719506 1.40217 0
M  V30 1373 C 125.571 -1.29848 1.34151 0
M  V30 1374 C 125.922 -1.96196 0.0131349 0
M  V30 1375 O 125.047 -1.973 -0.88892 0
M  V30 1376 C 125.642 -2.36118 2.42968 0
M  V30 1377 C 124.201 -2.8965 2.40374 0
M  V30 1378 C 123.348 -1.63393 2.24049 0
M  V30 1379 H 126.299 -0.51591 1.5008 0
M  V30 1380 H 126.32 -3.16871 2.10649 0
M  V30 1381 H 125.832 -1.878 3.39636 0
M  V30 1382 H 123.933 -3.42208 1.47392 0
M  V30 1383 H 124.046 -3.4171 3.35814 0
M  V30 1384 H 122.41 -1.88312 1.71495 0
M  V30 1385 H 123.193 -1.17104 3.2271 0
M  V30 1386 N 125.638 -1.25649 -0.95132 0
M  V30 1387 C 126.57 -1.02112 -2.05197 0
M  V30 1388 C 127.583 0.0150571 -1.62793 0
M  V30 1389 O 128.772 -0.223874 -1.77091 0
M  V30 1390 C 125.872 -0.522361 -3.3485 0
M  V30 1391 C 125.045 -1.62546 -4.06076 0
M  V30 1392 C 124.104 -1.12649 -5.14001 0
M  V30 1393 O 123.13 -1.82156 -5.39266 0
M  V30 1394 N 124.332 0.03047 -5.80492 0
M  V30 1395 H 127.097 -1.96885 -2.25957 0
M  V30 1396 H 124.658 -1.16899 -1.1201 0
M  V30 1397 H 126.65 -0.172961 -4.0433 0
M  V30 1398 H 125.22 0.33151 -3.10837 0
M  V30 1399 H 124.44 -2.14628 -3.30649 0
M  V30 1400 H 125.728 -2.36644 -4.50419 0
M  V30 1401 H 125.126 0.611169 -5.62389 0
M  V30 1402 H 123.683 0.320875 -6.5101 0
M  V30 1403 O 127.155 1.08449 -1.1967 0
M  V30 1404 H 127.846 1.68999 -0.946525 0
M  V30 END ATOM
M  V30 BEGIN BOND
M  V30 END BOND
M  V30 END CTAB
M  END
$$$$
