drugbank_target|P30405 Peptidyl-prolyl cis-trans isomerase F, mitochondrial (DB00091; DB00172; DB02078; DB08168)
 OpenBabel12092119533D

  0  0  0     0  0            999 V3000
M  V30 BEGIN CTAB
M  V30 COUNTS 3102 3135 0 0 0
M  V30 BEGIN ATOM
M  V30 1 H -0.908 1.98254 -0.117106 0
M  V30 2 N 0 1.576 0 0
M  V30 3 C 0.933 2.03868 1.02534 0
M  V30 4 C 1.911 0.928543 1.3348 0
M  V30 5 O 3.095 1.19667 1.45644 0
M  V30 6 C 0.222 2.43627 2.35294 0
M  V30 7 C -0.732 3.65373 2.2001 0
M  V30 8 S 0.101 5.13292 1.52614 0
M  V30 9 C 1.257 5.56322 2.86805 0
M  V30 10 H 1.49 2.90518 0.631377 0
M  V30 11 H -0.977 1.52953 0.210867 0
M  V30 12 H 0.981 2.67203 3.11629 0
M  V30 13 H -0.358 1.57376 2.7183 0
M  V30 14 H -1.165 3.90944 3.18086 0
M  V30 15 H -1.563 3.418 1.51819 0
M  V30 16 H 0.729 5.58782 3.83104 0
M  V30 17 H 1.672 6.56266 2.65933 0
M  V30 18 H 2.08 4.83886 2.90714 0
M  V30 19 N 1.4781 -0.272755 1.55222 0
M  V30 20 C 2.4081 -1.34136 1.91127 0
M  V30 21 C 3.3891 -1.51513 0.773168 0
M  V30 22 O 4.5741 -1.64552 1.03132 0
M  V30 23 C 1.7041 -2.70083 2.1834 0
M  V30 24 C 0.6581 -2.67437 3.34158 0
M  V30 25 C -0.0159 -4.06938 3.46851 0
M  V30 26 C 1.2841 -2.26686 4.70543 0
M  V30 27 H 2.9781 -1.04333 2.80633 0
M  V30 28 H 0.5241 -0.500454 1.35024 0
M  V30 29 H 2.4771 -3.44952 2.42046 0
M  V30 30 H 1.2011 -3.01469 1.25634 0
M  V30 31 H -0.1399 -1.95026 3.1042 0
M  V30 32 H -0.4919 -4.35547 2.51611 0
M  V30 33 H -0.7919 -4.06062 4.2472 0
M  V30 34 H 0.7321 -4.83545 3.72849 0
M  V30 35 H 2.1461 -2.91277 4.93792 0
M  V30 36 H 0.5431 -2.36971 5.5133 0
M  V30 37 H 1.6131 -1.21818 4.69349 0
M  V30 38 N 2.9562 -1.48159 -0.537278 0
M  V30 39 C 3.9192 -1.61665 -1.62472 0
M  V30 40 C 4.9192 -0.490395 -1.5314 0
M  V30 41 O 6.1092 -0.755998 -1.5694 0
M  V30 42 C 3.2412 -1.57997 -3.02076 0
M  V30 43 H 4.4342 -2.58621 -1.51839 0
M  V30 44 H 1.9872 -1.36647 -0.758771 0
M  V30 45 H 2.7222 -0.624913 -3.18222 0
M  V30 46 H 2.5072 -2.39755 -3.10258 0
M  V30 47 H 3.9972 -1.70627 -3.81151 0
M  V30 48 N 4.4343 0.785586 -1.36625 0
M  V30 49 C 5.3643 1.91259 -1.33949 0
M  V30 50 C 6.3453 1.68795 -0.210325 0
M  V30 51 O 7.5303 1.89854 -0.408561 0
M  V30 52 C 4.6603 3.28339 -1.13186 0
M  V30 53 C 3.6143 3.65335 -2.22967 0
M  V30 54 C 2.9403 5.00806 -1.87342 0
M  V30 55 C 4.2403 3.7352 -3.65075 0
M  V30 56 H 5.9343 1.93755 -2.28253 0
M  V30 57 H 3.4803 0.930788 -1.09874 0
M  V30 58 H 5.4333 4.06804 -1.09948 0
M  V30 59 H 4.1573 3.2624 -0.153332 0
M  V30 60 H 2.8163 2.89169 -2.25337 0
M  V30 61 H 2.4643 4.95233 -0.880545 0
M  V30 62 H 2.1643 5.26529 -2.60846 0
M  V30 63 H 3.6883 5.81687 -1.85667 0
M  V30 64 H 5.1023 4.42168 -3.64911 0
M  V30 65 H 3.4993 4.10731 -4.37516 0
M  V30 66 H 4.5693 2.74527 -3.99703 0
M  V30 67 N 5.9124 1.20967 1.01018 0
M  V30 68 C 7.3284 0.965905 1.27053 0
M  V30 69 C 7.5284 -0.350785 1.98423 0
M  V30 70 O 6.5844 -1.07773 2.28344 0
M  V30 71 C 7.8974 2.15294 2.09926 0
M  V30 72 C 9.4454 2.19463 2.23171 0
M  V30 73 C 9.9204 3.3767 3.09424 0
M  V30 74 N 11.4114 3.37724 3.17012 0
M  V30 75 C 12.1464 4.25837 3.83993 0
M  V30 76 N 11.6424 5.24138 4.53047 0
M  V30 77 N 13.4354 4.1366 3.80581 0
M  V30 78 H 5.5864 2.0565 0.531194 0
M  V30 79 H 7.8494 0.90024 0.297106 0
M  V30 80 H 7.5554 3.10684 1.64828 0
M  V30 81 H 7.4294 2.13923 3.10672 0
M  V30 82 H 9.8164 1.24632 2.6749 0
M  V30 83 H 9.8974 2.2488 1.21912 0
M  V30 84 H 9.5414 4.32791 2.65808 0
M  V30 85 H 9.4714 3.29491 4.10784 0
M  V30 86 H 11.9624 2.6658 2.6785 0
M  V30 87 H 12.2754 5.87684 5.01844 0
M  V30 88 H 10.6204 5.28068 4.5185 0
M  V30 89 H 13.8114 3.36127 3.25785 0
M  V30 90 H 13.9844 4.82538 4.32505 0
M  V30 91 N 7.3905 -1.2043 1.01659 0
M  V30 92 C 8.6305 -1.91507 0.714456 0
M  V30 93 C 8.9945 -1.77073 -0.742237 0
M  V30 94 O 10.1955 -2.42631 -1.15688 0
M  V30 95 C 8.4665 -3.38795 1.13809 0
M  V30 96 S 10.0255 -4.28216 0.957925 0
M  V30 97 H 6.8435 -0.661571 0.260471 0
M  V30 98 H 9.4455 -1.45671 1.30384 0
M  V30 99 H 8.1495 -3.46822 2.19415 0
M  V30 100 H 7.6805 -3.89656 0.541474 0
M  V30 101 H 9.6955 -4.96007 -0.138531 0
M  V30 102 N 8.8686 -0.792821 -1.36206 0
M  V30 103 C 10.1166 -0.366062 -1.98757 0
M  V30 104 C 10.4376 1.0668 -1.63231 0
M  V30 105 O 9.7076 1.73587 -0.907978 0
M  V30 106 H 8.2876 -0.132364 -0.735179 0
M  V30 107 H 10.9496 -1.01562 -1.66347 0
M  V30 108 H 10.0456 -0.460638 -3.08682 0
M  V30 109 N 10.3467 1.47872 -0.545128 0
M  V30 110 C 11.5717 2.07391 -0.0190611 0
M  V30 111 C 11.9967 1.39688 1.25971 0
M  V30 112 O 11.3547 0.467816 1.7516 0
M  V30 113 C 11.4027 3.60188 0.172335 0
M  V30 114 O 10.5067 3.9339 1.23766 0
M  V30 115 H 9.8477 0.662411 -0.0459059 0
M  V30 116 H 12.3777 1.90066 -0.757365 0
M  V30 117 H 12.3877 4.06129 0.390305 0
M  V30 118 H 11.0627 4.08865 -0.761725 0
M  V30 119 H 9.6397 3.5921 1.00114 0
M  V30 120 N 11.8248 0.280983 1.55075 0
M  V30 121 C 13.2408 -0.0729964 1.59433 0
M  V30 122 C 13.4408 -1.5411 1.29817 0
M  V30 123 O 12.4968 -2.29086 1.06187 0
M  V30 124 C 13.8098 0.306921 2.9913 0
M  V30 125 C 15.3578 0.254023 3.11968 0
M  V30 126 C 15.8328 0.608467 4.5394 0
M  V30 127 N 17.3238 0.560241 4.59799 0
M  V30 128 C 18.0588 0.80722 5.6769 0
M  V30 129 N 17.5548 1.11912 6.83701 0
M  V30 130 N 19.3478 0.735623 5.57266 0
M  V30 131 H 11.4988 1.238 1.7259 0
M  V30 132 H 13.7618 0.500547 0.805082 0
M  V30 133 H 13.4678 1.32816 3.25657 0
M  V30 134 H 13.3418 -0.349363 3.75579 0
M  V30 135 H 15.7288 -0.75794 2.852 0
M  V30 136 H 15.8098 0.944649 2.37718 0
M  V30 137 H 15.4538 1.61814 4.81434 0
M  V30 138 H 15.3838 -0.104013 5.26497 0
M  V30 139 H 17.8748 0.329288 3.76463 0
M  V30 140 H 18.1878 1.29409 7.61888 0
M  V30 141 H 16.5328 1.15695 6.85303 0
M  V30 142 H 19.7238 0.491752 4.6551 0
M  V30 143 H 19.8968 0.931482 6.4127 0
M  V30 144 N 13.3029 -1.57598 0.00835791 0
M  V30 145 C 14.5489 -1.92046 -0.670055 0
M  V30 146 C 14.9039 -0.88351 -1.70915 0
M  V30 147 O 14.1969 0.103223 -1.91322 0
M  V30 148 C 14.3909 -3.3101 -1.34787 0
M  V30 149 C 14.2199 -4.48126 -0.375945 0
M  V30 150 C 12.9899 -5.05297 0.0166914 0
M  V30 151 C 15.1879 -5.1303 0.361272 0
M  V30 152 N 13.1699 -6.05931 0.985952 0
M  V30 153 C 14.5409 -6.08571 1.18495 0
M  V30 154 C 16.5959 -4.9609 0.42421 0
M  V30 155 C 15.2989 -6.88996 2.06584 0
M  V30 156 C 17.3249 -5.77107 1.29236 0
M  V30 157 C 16.6869 -6.72248 2.10386 0
M  V30 158 H 12.7859 -0.75096 -0.218136 0
M  V30 159 H 15.3699 -1.94572 0.0706669 0
M  V30 160 H 13.5409 -3.29342 -2.05884 0
M  V30 161 H 15.2729 -3.52864 -1.98164 0
M  V30 162 H 12.0279 -4.72279 -0.353435 0
M  V30 163 H 12.4519 -6.60932 1.4662 0
M  V30 164 H 17.0939 -4.22378 -0.188915 0
M  V30 165 H 14.8119 -7.62028 2.6896 0
M  V30 166 H 18.3979 -5.66038 1.34508 0
M  V30 167 H 17.2779 -7.33846 2.76476 0
M  V30 168 N 14.781 0.264519 -1.55364 0
M  V30 169 C 15.711 1.33121 -1.91836 0
M  V30 170 C 16.692 1.51101 -0.781192 0
M  V30 171 O 17.877 1.64003 -1.04003 0
M  V30 172 C 15.007 2.68921 -2.19769 0
M  V30 173 C 13.961 2.65661 -3.35571 0
M  V30 174 C 13.287 4.05093 -3.49004 0
M  V30 175 C 14.587 2.24187 -4.71739 0
M  V30 176 H 16.281 1.02844 -2.81182 0
M  V30 177 H 13.827 0.493286 -1.35287 0
M  V30 178 H 15.78 3.43663 -2.43872 0
M  V30 179 H 14.504 3.00799 -1.27231 0
M  V30 180 H 13.163 1.93377 -3.1145 0
M  V30 181 H 12.811 4.34206 -2.53917 0
M  V30 182 H 12.511 4.03804 -4.26868 0
M  V30 183 H 14.035 4.81561 -3.75408 0
M  V30 184 H 15.449 2.88654 -4.9533 0
M  V30 185 H 13.846 2.34044 -5.52579 0
M  V30 186 H 14.916 1.19327 -4.69988 0
M  V30 187 N 16.2591 1.48442 0.529413 0
M  V30 188 C 17.5071 1.56179 1.28267 0
M  V30 189 C 17.8281 0.237721 1.93546 0
M  V30 190 O 17.0981 -0.740779 1.81354 0
M  V30 191 H 15.6781 0.575367 0.476405 0
M  V30 192 H 18.3401 1.84909 0.61602 0
M  V30 193 H 17.4361 2.34312 2.06165 0
M  V30 194 N 17.7372 -0.778329 1.37039 0
M  V30 195 C 18.6672 -1.90546 1.34962 0
M  V30 196 C 19.6482 -1.68681 0.219274 0
M  V30 197 O 20.8332 -1.89634 0.418624 0
M  V30 198 C 17.9632 -3.27734 1.14925 0
M  V30 199 C 16.9172 -3.64147 2.24902 0
M  V30 200 C 16.2432 -4.99806 1.89996 0
M  V30 201 C 17.5432 -3.71579 3.67051 0
M  V30 202 H 19.2372 -1.92541 2.29277 0
M  V30 203 H 16.7832 -0.924948 1.10366 0
M  V30 204 H 18.7362 -4.06215 1.12104 0
M  V30 205 H 17.4602 -3.26154 0.170631 0
M  V30 206 H 16.1192 -2.8797 2.26868 0
M  V30 207 H 15.7672 -4.94759 0.906796 0
M  V30 208 H 15.4672 -5.25139 2.63634 0
M  V30 209 H 16.9912 -5.80694 1.88749 0
M  V30 210 H 18.4052 -4.40227 3.67251 0
M  V30 211 H 16.8022 -4.08405 4.39688 0
M  V30 212 H 17.8722 -2.72404 4.01154 0
M  V30 213 N 19.2153 -1.21501 -1.00376 0
M  V30 214 C 20.1453 -0.999478 -2.11028 0
M  V30 215 C 21.1263 0.0759671 -1.6993 0
M  V30 216 O 22.3113 -0.0841106 -1.94018 0
M  V30 217 C 19.4413 -0.564709 -3.42678 0
M  V30 218 C 18.3953 -1.58486 -3.97576 0
M  V30 219 C 17.7213 -1.00628 -5.25146 0
M  V30 220 C 19.0213 -2.97204 -4.29496 0
M  V30 221 H 20.7153 -1.92495 -2.29317 0
M  V30 222 H 18.2613 -0.92693 -1.102 0
M  V30 223 H 20.2143 -0.401091 -4.19487 0
M  V30 224 H 18.9383 0.396411 -3.24185 0
M  V30 225 H 17.5973 -1.73606 -3.22888 0
M  V30 226 H 17.2453 -0.0368439 -5.02987 0
M  V30 227 H 16.9453 -1.68771 -5.62841 0
M  V30 228 H 18.4693 -0.854015 -6.04598 0
M  V30 229 H 19.8833 -2.8552 -4.97143 0
M  V30 230 H 18.2803 -3.62372 -4.78338 0
M  V30 231 H 19.3503 -3.47956 -3.3772 0
M  V30 232 N 20.6934 1.19889 -1.02296 0
M  V30 233 C 21.9184 1.9393 -0.735237 0
M  V30 234 C 22.3434 1.74639 0.698782 0
M  V30 235 O 21.7014 1.04481 1.48167 0
M  V30 236 C 21.7494 3.43916 -1.08417 0
M  V30 237 O 20.8534 4.11917 -0.199446 0
M  V30 238 H 20.1944 0.605645 -0.272196 0
M  V30 239 H 22.7244 1.52137 -1.36804 0
M  V30 240 H 22.7344 3.9456 -1.03856 0
M  V30 241 H 21.4094 3.5728 -2.12894 0
M  V30 242 H 19.9864 3.71666 -0.303136 0
M  V30 243 N 22.1715 0.800033 1.35784 0
M  V30 244 C 23.4175 0.377901 1.99248 0
M  V30 245 C 23.7505 -1.05052 1.63333 0
M  V30 246 O 23.0255 -1.72768 0.893385 0
M  V30 247 C 23.3085 0.553922 3.55814 0
M  V30 248 C 23.1615 2.0268 4.01548 0
M  V30 249 C 24.4805 -0.0244802 4.40093 0
M  V30 250 H 21.5995 0.138782 0.723815 0
M  V30 251 H 24.2415 1.00835 1.61035 0
M  V30 252 H 22.3915 0.0172398 3.88496 0
M  V30 253 H 24.0635 2.62536 3.79305 0
M  V30 254 H 22.3065 2.5256 3.52698 0
M  V30 255 H 22.9775 2.10087 5.10458 0
M  V30 256 H 25.4535 0.433775 4.13833 0
M  V30 257 H 24.3295 0.128637 5.48749 0
M  V30 258 H 24.5905 -1.11758 4.27741 0
M  V30 259 N 23.6496 -1.47581 0.552962 0
M  V30 260 C 25.0606 -1.86324 0.118463 0
M  V30 261 C 25.4116 -1.46006 -1.3106 0
M  V30 262 O 24.5366 -0.861182 -1.98526 0
M  V30 263 C 25.1316 -3.3816 0.20821 0
M  V30 264 C 23.6906 -3.7601 -0.171226 0
M  V30 265 C 22.8376 -2.71634 0.557686 0
M  V30 266 H 25.7886 -1.39159 0.762928 0
M  V30 267 H 25.8096 -3.76141 -0.574278 0
M  V30 268 H 25.3216 -3.67473 1.24841 0
M  V30 269 H 23.4226 -3.52313 -1.21269 0
M  V30 270 H 23.5356 -4.78745 0.184379 0
M  V30 271 H 21.8996 -2.547 0.00125792 0
M  V30 272 H 22.6826 -3.0379 1.59896 0
M  V30 273 N 25.1277 -0.289203 -1.54924 0
M  V30 274 C 26.5437 0.0645403 -1.59469 0
M  V30 275 C 26.7437 1.53419 -1.30632 0
M  V30 276 O 25.7997 2.2852 -1.074 0
M  V30 277 C 27.1127 -0.32278 -2.98963 0
M  V30 278 C 28.6607 -0.270564 -3.11828 0
M  V30 279 C 29.1357 -0.632532 -4.53611 0
M  V30 280 N 30.6267 -0.584617 -4.59496 0
M  V30 281 C 31.3617 -0.837314 -5.67254 0
M  V30 282 N 30.8577 -1.15536 -6.83098 0
M  V30 283 N 32.6507 -0.765166 -5.56868 0
M  V30 284 H 24.8017 -1.24714 -1.71931 0
M  V30 285 H 27.0647 -0.504809 -0.802416 0
M  V30 286 H 26.7707 -1.34541 -3.24948 0
M  V30 287 H 26.6447 0.32944 -3.75759 0
M  V30 288 H 29.0317 0.742805 -2.85598 0
M  V30 289 H 29.1127 -0.957242 -2.37214 0
M  V30 290 H 28.7567 -1.64365 -4.80569 0
M  V30 291 H 28.6867 0.07609 -5.26545 0
M  V30 292 H 31.1777 -0.349248 -3.76283 0
M  V30 293 H 31.4907 -1.33447 -7.61191 0
M  V30 294 H 29.8357 -1.19328 -6.84679 0
M  V30 295 H 33.0267 -0.516432 -4.65243 0
M  V30 296 H 33.1997 -0.965477 -6.40767 0
M  V30 297 N 26.6058 1.57591 -0.0167156 0
M  V30 298 C 27.8308 1.9598 0.67872 0
M  V30 299 C 28.2558 0.892546 1.65575 0
M  V30 300 O 27.6138 -0.147772 1.80697 0
M  V30 301 C 27.6618 3.33468 1.37227 0
M  V30 302 O 26.7658 3.28954 2.48722 0
M  V30 303 H 26.1068 0.639339 0.17928 0
M  V30 304 H 28.6368 2.04463 -0.0748802 0
M  V30 305 H 28.6468 3.69417 1.7319 0
M  V30 306 H 27.3218 4.10694 0.656007 0
M  V30 307 H 25.8988 3.04705 2.14963 0
M  V30 308 N 28.0839 -0.256276 1.55502 0
M  V30 309 C 29.3299 -0.987079 1.77157 0
M  V30 310 C 29.6629 -1.85327 0.580315 0
M  V30 311 O 28.9379 -1.89874 -0.421686 0
M  V30 312 C 29.2209 -1.85553 3.08613 0
M  V30 313 C 29.0739 -1.01816 4.38125 0
M  V30 314 C 30.3929 -2.8397 3.36228 0
M  V30 315 H 27.5119 -0.357428 0.644526 0
M  V30 316 H 30.1539 -0.258239 1.88237 0
M  V30 317 H 28.3039 -2.47695 2.99298 0
M  V30 318 H 29.9759 -0.416159 4.59419 0
M  V30 319 H 28.2189 -0.322178 4.32602 0
M  V30 320 H 28.8899 -1.65939 5.26468 0
M  V30 321 H 31.3659 -2.31964 3.45445 0
M  V30 322 H 30.2419 -3.41864 4.29442 0
M  V30 323 H 30.5029 -3.59955 2.56681 0
M  V30 324 N 29.562 -1.4872 -0.521534 0
M  V30 325 C 30.973 -1.50607 -1.10337 0
M  V30 326 C 31.324 -0.280612 -1.94183 0
M  V30 327 O 30.449 0.611507 -2.0758 0
M  V30 328 C 31.044 -2.72903 -2.00772 0
M  V30 329 C 29.603 -2.77634 -2.54158 0
M  V30 330 C 28.75 -2.44241 -1.31307 0
M  V30 331 H 31.701 -1.55714 -0.306388 0
M  V30 332 H 31.722 -2.519 -2.85178 0
M  V30 333 H 31.234 -3.62077 -1.39721 0
M  V30 334 H 29.335 -1.92689 -3.18907 0
M  V30 335 H 29.448 -3.79283 -2.92714 0
M  V30 336 H 27.812 -1.95577 -1.63161 0
M  V30 337 H 28.595 -3.35666 -0.719943 0
M  V30 338 N 31.0401 0.771051 -1.3745 0
M  V30 339 C 31.9701 1.89827 -1.3597 0
M  V30 340 C 32.9511 1.68562 -0.228216 0
M  V30 341 O 34.1361 1.8941 -0.428675 0
M  V30 342 C 31.2661 3.2712 -1.16662 0
M  V30 343 C 30.2201 3.6295 -2.2683 0
M  V30 344 C 29.5461 4.98791 -1.92644 0
M  V30 345 C 30.8461 3.69627 -3.69017 0
M  V30 346 H 32.5401 1.91323 -2.30295 0
M  V30 347 H 30.0861 0.919082 -1.10855 0
M  V30 348 H 32.0391 4.05615 -1.14256 0
M  V30 349 H 30.7631 3.26059 -0.187926 0
M  V30 350 H 29.4221 2.86763 -2.28392 0
M  V30 351 H 29.0701 4.94271 -0.933021 0
M  V30 352 H 28.7701 5.23733 -2.66416 0
M  V30 353 H 30.2941 5.79685 -1.91826 0
M  V30 354 H 31.7081 4.38273 -3.69581 0
M  V30 355 H 30.1051 4.06067 -4.41848 0
M  V30 356 H 31.1751 2.70273 -4.02592 0
M  V30 357 N 32.5182 1.22032 0.997298 0
M  V30 358 C 33.9342 0.979326 1.26021 0
M  V30 359 C 34.1342 -0.32972 1.98784 0
M  V30 360 O 33.1902 -1.05345 2.29475 0
M  V30 361 C 34.5032 2.17509 2.07631 0
M  V30 362 C 36.0512 2.21817 2.2083 0
M  V30 363 C 36.5262 3.40933 3.05825 0
M  V30 364 N 38.0172 3.41067 3.13412 0
M  V30 365 C 38.7522 4.29885 3.79455 0
M  V30 366 N 38.2482 5.28914 4.47462 0
M  V30 367 N 40.0412 4.17673 3.76173 0
M  V30 368 H 32.1922 2.06202 0.509352 0
M  V30 369 H 34.4552 0.90334 0.287541 0
M  V30 370 H 34.1612 3.12415 1.61524 0
M  V30 371 H 34.0352 2.17206 3.08385 0
M  V30 372 H 36.4222 1.27462 2.66153 0
M  V30 373 H 36.5032 2.2616 1.1952 0
M  V30 374 H 36.1472 4.35586 2.61203 0
M  V30 375 H 36.0772 3.33829 4.07266 0
M  V30 376 H 38.5682 2.69406 2.65007 0
M  V30 377 H 38.8812 5.92973 4.95583 0
M  V30 378 H 37.2262 5.32831 4.46224 0
M  V30 379 H 40.4172 3.39564 3.22202 0
M  V30 380 H 40.5902 4.87098 4.27363 0
M  V30 381 N 33.9963 -1.19345 1.0293 0
M  V30 382 C 34.9263 -2.2481 0.631105 0
M  V30 383 C 35.9073 -1.66245 -0.360104 0
M  V30 384 O 37.0923 -1.92677 -0.242726 0
M  V30 385 C 34.2223 -3.47295 -0.0184607 0
M  V30 386 C 33.1763 -4.18536 0.895073 0
M  V30 387 C 32.5023 -5.34586 0.110592 0
M  V30 388 C 33.8023 -4.73287 2.209 0
M  V30 389 H 35.4963 -2.58372 1.51275 0
M  V30 390 H 33.0423 -1.24194 0.728818 0
M  V30 391 H 34.9953 -4.20268 -0.308675 0
M  V30 392 H 33.7193 -3.12933 -0.934907 0
M  V30 393 H 32.3783 -3.47446 1.16949 0
M  V30 394 H 32.0263 -4.96469 -0.807902 0
M  V30 395 H 31.7263 -5.83183 0.719087 0
M  V30 396 H 33.2503 -6.10355 -0.172871 0
M  V30 397 H 34.6643 -5.38013 1.98028 0
M  V30 398 H 33.0613 -5.32373 2.76946 0
M  V30 399 H 34.1313 -3.91331 2.86336 0
M  V30 400 N 35.4744 -0.807222 -1.35358 0
M  V30 401 C 36.8854 -0.44876 -1.81226 0
M  V30 402 C 37.2364 1.02929 -1.67033 0
M  V30 403 O 36.3614 1.79991 -1.20133 0
M  V30 404 C 36.9564 -0.807774 -3.2903 0
M  V30 405 C 35.5154 -0.501901 -3.73039 0
M  V30 406 C 34.6624 -1.03304 -2.57339 0
M  V30 407 H 37.6134 -0.998808 -1.23327 0
M  V30 408 H 37.6344 -0.10554 -3.80354 0
M  V30 409 H 37.1464 -1.88357 -3.39328 0
M  V30 410 H 35.2474 0.565128 -3.68289 0
M  V30 411 H 35.3604 -1.03497 -4.67787 0
M  V30 412 H 33.7244 -0.455339 -2.50597 0
M  V30 413 H 34.5074 -2.11496 -2.70415 0
M  V30 414 N 36.9525 1.47285 -0.560781 0
M  V30 415 C 37.9155 2.28535 0.174488 0
M  V30 416 C 38.9155 1.37153 0.839388 0
M  V30 417 O 40.1055 1.59748 0.694702 0
M  V30 418 C 37.2375 3.16934 1.25561 0
M  V30 419 H 38.4305 2.95012 -0.539262 0
M  V30 420 H 35.9835 1.53034 -0.317865 0
M  V30 421 H 36.7185 2.55157 2.00164 0
M  V30 422 H 36.5035 3.8419 0.783604 0
M  V30 423 H 37.9935 3.78143 1.77193 0
M  V30 424 N 38.4306 0.297415 1.54768 0
M  V30 425 C 39.3936 -0.567375 2.22066 0
M  V30 426 C 40.3936 -1.06409 1.20556 0
M  V30 427 O 41.5836 -0.960691 1.45315 0
M  V30 428 C 38.7156 -1.78517 2.90421 0
M  V30 429 H 39.9086 0.0205534 2.99893 0
M  V30 430 H 37.4616 0.0482163 1.56226 0
M  V30 431 H 38.1966 -2.41303 2.16664 0
M  V30 432 H 37.9816 -1.43669 3.64831 0
M  V30 433 H 39.4716 -2.39964 3.41771 0
M  V30 434 N 39.9087 -1.5758 0.0250728 0
M  V30 435 C 41.3247 -1.56124 -0.331282 0
M  V30 436 C 41.5247 -1.03029 -1.73169 0
M  V30 437 O 40.5807 -0.675215 -2.43305 0
M  V30 438 C 41.8937 -3.00139 -0.183584 0
M  V30 439 C 43.4417 -3.11946 -0.256654 0
M  V30 440 C 43.9167 -4.57793 -0.137792 0
M  V30 441 N 45.4077 -4.6279 -0.194904 0
M  V30 442 C 46.1427 -5.7326 -0.126655 0
M  V30 443 N 45.6387 -6.928 -0.00755288 0
M  V30 444 N 47.4317 -5.61811 -0.180348 0
M  V30 445 H 39.5827 -1.90424 0.94087 0
M  V30 446 H 41.8457 -0.875761 0.362968 0
M  V30 447 H 41.5517 -3.4292 0.780927 0
M  V30 448 H 41.4257 -3.64899 -0.955448 0
M  V30 449 H 43.8127 -2.69079 -1.21162 0
M  V30 450 H 43.8937 -2.49915 0.545517 0
M  V30 451 H 43.5377 -5.01339 0.813739 0
M  V30 452 H 43.4677 -5.17798 -0.958775 0
M  V30 453 H 45.9587 -3.76807 -0.287267 0
M  V30 454 H 46.2717 -7.72791 0.0379428 0
M  V30 455 H 44.6167 -6.94995 0.0271731 0
M  V30 456 H 47.8077 -4.6731 -0.271767 0
M  V30 457 H 47.9807 -6.47882 -0.123697 0
M  V30 458 N 41.3868 0.248026 -1.55636 0
M  V30 459 C 42.3498 1.29044 -1.89421 0
M  V30 460 C 43.3498 1.41134 -0.770581 0
M  V30 461 O 44.5398 1.39854 -1.03858 0
M  V30 462 C 41.6718 2.66831 -2.12165 0
M  V30 463 H 42.8648 1.00305 -2.82629 0
M  V30 464 H 40.4178 0.487265 -1.48511 0
M  V30 465 H 41.1528 3.00711 -1.21422 0
M  V30 466 H 40.9378 2.59438 -2.93997 0
M  V30 467 H 42.4278 3.42103 -2.3949 0
M  V30 468 N 42.8649 1.48995 0.513639 0
M  V30 469 C 44.1049 1.59452 1.27885 0
M  V30 470 C 44.4689 0.269479 1.90099 0
M  V30 471 O 45.6699 0.249139 2.67643 0
M  V30 472 C 43.9409 2.71277 2.32688 0
M  V30 473 S 45.4999 3.01604 3.18717 0
M  V30 474 H 42.3179 0.562565 0.434789 0
M  V30 475 H 44.9199 1.86595 0.583301 0
M  V30 476 H 43.6239 3.66089 1.8549 0
M  V30 477 H 43.1549 2.46086 3.06929 0
M  V30 478 H 45.1699 2.42155 4.331 0
M  V30 479 N 44.343 -0.763751 1.37857 0
M  V30 480 C 45.568 -1.55805 1.36893 0
M  V30 481 C 45.993 -1.88054 -0.0416135 0
M  V30 482 O 45.351 -1.49825 -1.02089 0
M  V30 483 C 45.399 -2.84012 2.22192 0
M  V30 484 O 44.503 -3.78732 1.63204 0
M  V30 485 H 43.844 -0.471638 0.46739 0
M  V30 486 H 46.374 -0.944657 1.81487 0
M  V30 487 H 46.384 -3.33037 2.35691 0
M  V30 488 H 45.059 -2.59869 3.24716 0
M  V30 489 H 43.636 -3.37402 1.58791 0
M  V30 490 N 45.8211 -1.22559 -0.990812 0
M  V30 491 C 46.7681 -0.997519 -2.0813 0
M  V30 492 C 47.7381 0.0814702 -1.659 0
M  V30 493 O 48.9231 -0.0685424 -1.90677 0
M  V30 494 C 46.0631 -0.583615 -3.40129 0
M  V30 495 C 45.1761 -1.7336 -3.9569 0
M  V30 496 C 44.3111 -1.26748 -5.15857 0
M  V30 497 C 43.3501 -2.38888 -5.63559 0
M  V30 498 N 42.4871 -1.93308 -6.74964 0
M  V30 499 H 47.3271 -1.93099 -2.26973 0
M  V30 500 H 44.8641 -0.962114 -1.11273 0
M  V30 501 H 46.8221 -0.324801 -4.15934 0
M  V30 502 H 45.4521 0.312845 -3.2128 0
M  V30 503 H 44.5041 -2.10669 -3.16738 0
M  V30 504 H 45.8161 -2.57704 -4.27071 0
M  V30 505 H 44.9701 -0.966173 -5.98957 0
M  V30 506 H 43.7091 -0.394272 -4.86104 0
M  V30 507 H 42.7141 -2.69805 -4.79046 0
M  V30 508 H 43.9391 -3.26728 -5.95336 0
M  V30 509 H 41.8851 -1.08352 -6.4699 0
M  V30 510 H 41.8021 -2.71217 -7.05675 0
M  V30 511 H 43.0701 -1.66252 -7.61564 0
M  V30 512 N 47.2992 1.18797 -1.03562 0
M  V30 513 C 48.5472 1.88278 -0.734569 0
M  V30 514 C 48.8682 1.8043 0.739586 0
M  V30 515 O 48.1382 1.21925 1.53333 0
M  V30 516 H 46.7182 0.696991 -0.268725 0
M  V30 517 H 49.3802 1.44192 -1.31129 0
M  V30 518 H 48.4762 2.94443 -1.03489 0
M  V30 519 N 48.7773 0.814389 1.34928 0
M  V30 520 C 50.0023 0.410097 2.03305 0
M  V30 521 C 50.4273 -0.973464 1.60951 0
M  V30 522 O 49.7853 -1.63185 0.789964 0
M  V30 523 C 49.8333 0.51049 3.56968 0
M  V30 524 O 48.9373 -0.473035 4.09678 0
M  V30 525 H 48.2783 0.170088 0.641846 0
M  V30 526 H 50.8083 1.10244 1.72358 0
M  V30 527 H 50.8183 0.383135 4.06197 0
M  V30 528 H 49.4933 1.51963 3.87144 0
M  V30 529 H 48.0703 -0.305272 3.71648 0
M  V30 530 N 50.2554 -1.46986 0.568584 0
M  V30 531 C 51.5034 -2.02041 0.0487022 0
M  V30 532 C 51.8244 -1.44408 -1.31039 0
M  V30 533 O 51.0944 -0.623477 -1.85714 0
M  V30 534 H 49.6744 -0.746849 0.015014 0
M  V30 535 H 52.3364 -1.80257 0.741168 0
M  V30 536 H 51.4324 -3.12085 -0.0308961 0
M  V30 537 N 51.7335 -0.305618 -1.54608 0
M  V30 538 C 53.0105 0.355652 -1.92339 0
M  V30 539 C 53.3905 1.71324 -1.23335 0
M  V30 540 O 52.7385 2.25473 -0.370702 0
M  V30 541 C 52.9485 0.46572 -3.45879 0
M  V30 542 C 54.2965 0.734426 -4.182 0
M  V30 543 O 55.3205 0.54935 -3.51938 0
M  V30 544 O 54.1795 1.09024 -5.35515 0
M  V30 545 H 51.2735 0.199666 -0.802535 0
M  V30 546 H 53.8195 -0.354017 -1.65966 0
M  V30 547 H 52.5915 -0.488461 -3.88239 0
M  V30 548 H 52.2145 1.22367 -3.78301 0
M  V30 549 N 53.2116 1.57565 -0.0334293 0
M  V30 550 C 54.6226 1.79746 0.504798 0
M  V30 551 C 54.9736 0.944091 1.71992 0
M  V30 552 O 54.0986 0.155694 2.15839 0
M  V30 553 C 54.6936 3.25997 0.922567 0
M  V30 554 C 53.2526 3.49159 1.40588 0
M  V30 555 C 52.3996 2.74785 0.372633 0
M  V30 556 H 55.3506 1.56565 -0.259436 0
M  V30 557 H 55.3716 3.35945 1.78666 0
M  V30 558 H 54.8836 3.88081 0.0379825 0
M  V30 559 H 52.9846 2.92332 2.31025 0
M  V30 560 H 53.0976 4.57873 1.41028 0
M  V30 561 H 51.4616 2.40391 0.841672 0
M  V30 562 H 52.2446 3.39587 -0.503559 0
M  V30 563 N 54.6897 -0.239769 1.55765 0
M  V30 564 C 55.9147 -0.988373 1.82335 0
M  V30 565 C 56.3397 -1.77886 0.611421 0
M  V30 566 O 55.6977 -1.75889 -0.439639 0
M  V30 567 C 55.7457 -1.89627 3.06715 0
M  V30 568 O 54.8497 -2.98904 2.84131 0
M  V30 569 H 54.1907 -0.280858 0.601677 0
M  V30 570 H 56.7207 -0.258597 2.02959 0
M  V30 571 H 56.7307 -2.30957 3.36338 0
M  V30 572 H 55.4057 -1.31511 3.9456 0
M  V30 573 H 53.9827 -2.61651 2.65694 0
M  V30 574 N 56.1678 -1.49265 -0.50573 0
M  V30 575 C 57.3928 -1.62478 -1.28902 0
M  V30 576 C 57.8178 -0.294332 -1.85783 0
M  V30 577 O 57.1758 0.737412 -1.65626 0
M  V30 578 C 57.2238 -2.69268 -2.39848 0
M  V30 579 O 56.3278 -2.28113 -3.43567 0
M  V30 580 H 55.6688 -0.54399 -0.380751 0
M  V30 581 H 58.1988 -1.95421 -0.605952 0
M  V30 582 H 58.2088 -2.91291 -2.85681 0
M  V30 583 H 56.8838 -3.65846 -1.97812 0
M  V30 584 H 55.4608 -2.16401 -3.03685 0
M  V30 585 N 57.6459 0.756429 -1.3826 0
M  V30 586 C 58.8709 1.55077 -1.37717 0
M  V30 587 C 59.2959 1.88073 0.03164 0
M  V30 588 O 58.6539 1.50364 1.01293 0
M  V30 589 C 58.7019 2.8283 -2.23695 0
M  V30 590 O 57.8059 3.77862 -1.6521 0
M  V30 591 H 57.1469 0.469152 -0.469885 0
M  V30 592 H 59.6769 0.935019 -1.81985 0
M  V30 593 H 59.6869 3.31783 -2.37453 0
M  V30 594 H 58.3619 2.58144 -3.2609 0
M  V30 595 H 56.9389 3.36555 -1.60578 0
M  V30 596 N 59.124 1.23083 0.984299 0
M  V30 597 C 60.349 1.088 1.76571 0
M  V30 598 C 60.774 -0.356657 1.84688 0
M  V30 599 O 60.132 -1.25788 1.30565 0
M  V30 600 C 60.18 1.71371 3.17277 0
M  V30 601 O 59.284 0.973213 4.00752 0
M  V30 602 H 58.625 0.381599 0.543395 0
M  V30 603 H 61.155 1.63057 1.23587 0
M  V30 604 H 61.165 1.76449 3.67872 0
M  V30 605 H 59.84 2.76493 3.10684 0
M  V30 606 H 58.417 0.999078 3.59267 0
M  V30 607 N 60.6021 -1.18246 1.0419 0
M  V30 608 C 61.8271 -1.92736 0.765996 0
M  V30 609 C 62.2521 -1.75728 -0.67091 0
M  V30 610 O 61.6101 -1.06825 -1.46486 0
M  V30 611 C 61.6581 -3.42148 1.13875 0
M  V30 612 O 60.7621 -4.11548 0.264954 0
M  V30 613 H 60.1031 -0.601238 0.281797 0
M  V30 614 H 62.6331 -1.49942 1.39207 0
M  V30 615 H 62.6431 -3.92858 1.1012 0
M  V30 616 H 61.3181 -3.53848 2.18551 0
M  V30 617 H 59.8951 -3.71137 0.362226 0
M  V30 618 N 62.0802 -0.821533 -1.34494 0
M  V30 619 C 63.3052 -0.420873 -2.03085 0
M  V30 620 C 63.7302 0.964915 -1.61465 0
M  V30 621 O 63.0882 1.62763 -0.798607 0
M  V30 622 C 63.1362 -0.529414 -3.56693 0
M  V30 623 O 62.2402 0.451302 -4.09923 0
M  V30 624 H 61.5812 -0.173489 -0.640935 0
M  V30 625 H 64.1112 -1.11157 -1.71771 0
M  V30 626 H 64.1212 -0.404671 -4.05988 0
M  V30 627 H 62.7962 -1.54014 -3.86332 0
M  V30 628 H 61.3732 0.285558 -3.71805 0
M  V30 629 N 63.5583 1.46682 -0.576371 0
M  V30 630 C 64.8063 2.02013 -0.0594163 0
M  V30 631 C 65.1273 1.45101 1.30271 0
M  V30 632 O 64.3973 0.633317 1.8538 0
M  V30 633 H 62.9773 0.746759 -0.0189745 0
M  V30 634 H 65.6393 1.79862 -0.750717 0
M  V30 635 H 64.7353 3.12097 0.014345 0
M  V30 636 N 65.0364 0.313813 1.54444 0
M  V30 637 C 65.9844 -0.572171 2.25453 0
M  V30 638 C 66.9784 -1.12657 1.2651 0
M  V30 639 O 68.1844 -1.07573 1.44319 0
M  V30 640 H 64.5594 -0.203146 0.724041 0
M  V30 641 H 66.5304 0.0491145 2.9836 0
M  V30 642 C 65.2794 -1.72626 3.0182 0
M  V30 643 H 64.6024 -1.30891 3.77767 0
M  V30 644 H 66.0424 -2.32199 3.54767 0
M  V30 645 C 64.5014 -2.63806 2.09542 0
M  V30 646 O 65.0314 -3.65256 1.67185 0
M  V30 647 N 63.2374 -2.31824 1.75232 0
M  V30 648 H 62.7844 -1.49368 2.09873 0
M  V30 649 H 62.7424 -2.93095 1.13767 0
M  V30 650 N 66.5145 -1.57545 0.0417849 0
M  V30 651 C 67.9255 -1.80011 -0.495259 0
M  V30 652 C 68.2765 -0.953199 -1.71489 0
M  V30 653 O 67.4015 -0.167138 -2.15754 0
M  V30 654 C 67.9965 -3.26482 -0.905265 0
M  V30 655 C 66.5555 -3.499 -1.38734 0
M  V30 656 C 65.7025 -2.74979 -0.358056 0
M  V30 657 H 68.6535 -1.56425 0.267736 0
M  V30 658 H 68.6745 -3.36887 -1.76882 0
M  V30 659 H 68.1865 -3.88096 -0.017401 0
M  V30 660 H 66.2875 -2.93553 -2.29471 0
M  V30 661 H 66.4005 -4.58615 -1.38598 0
M  V30 662 H 64.7645 -2.40834 -0.828912 0
M  V30 663 H 65.5475 -3.39315 0.521561 0
M  V30 664 N 67.9926 0.231505 -1.5589 0
M  V30 665 C 68.9226 1.29022 -1.94617 0
M  V30 666 C 69.9036 1.4941 -0.813067 0
M  V30 667 O 71.0886 1.6176 -1.07459 0
M  V30 668 C 68.2186 2.64199 -2.25424 0
M  V30 669 C 67.1726 2.58484 -3.41131 0
M  V30 670 C 66.4986 3.97599 -3.57518 0
M  V30 671 C 67.7986 2.1413 -4.76388 0
M  V30 672 H 69.4926 0.968563 -2.83301 0
M  V30 673 H 67.0386 0.464479 -1.36303 0
M  V30 674 H 68.9916 3.38413 -2.51107 0
M  V30 675 H 67.7156 2.98032 -1.33583 0
M  V30 676 H 66.3746 1.86727 -3.15481 0
M  V30 677 H 66.0226 4.28723 -2.6307 0
M  V30 678 H 65.7226 3.94659 -4.35337 0
M  V30 679 H 67.2466 4.7349 -3.85538 0
M  V30 680 H 68.6606 2.78083 -5.01341 0
M  V30 681 H 67.0576 2.2227 -5.57419 0
M  V30 682 H 68.1276 1.09331 -4.72414 0
M  V30 683 N 69.4707 1.49531 0.497807 0
M  V30 684 C 70.7167 1.59415 1.25358 0
M  V30 685 C 71.0497 0.281422 1.9215 0
M  V30 686 O 70.3247 -0.715249 1.80871 0
M  V30 687 C 70.6077 2.75566 2.3181 0
M  V30 688 C 70.4607 4.16642 1.69498 0
M  V30 689 C 71.7797 2.87347 3.33346 0
M  V30 690 H 68.8987 0.580244 0.454408 0
M  V30 691 H 71.5407 1.81827 0.551262 0
M  V30 692 H 69.6907 2.56587 2.91711 0
M  V30 693 H 71.3627 4.47145 1.13399 0
M  V30 694 H 69.6057 4.22141 0.998978 0
M  V30 695 H 70.2767 4.93792 2.46725 0
M  V30 696 H 72.7527 3.04634 2.83438 0
M  V30 697 H 71.6287 3.70289 4.05188 0
M  V30 698 H 71.8897 1.96834 3.95865 0
M  V30 699 N 70.9488 -0.749086 1.3866 0
M  V30 700 C 72.1788 -1.53611 1.38157 0
M  V30 701 C 72.5868 -1.89177 -0.0293595 0
M  V30 702 O 71.9298 -1.53606 -1.00752 0
M  V30 703 C 71.9918 -2.86087 2.17702 0
M  V30 704 C 71.6558 -2.73034 3.66472 0
M  V30 705 C 72.6528 -2.42526 4.59866 0
M  V30 706 C 70.3378 -2.90345 4.09884 0
M  V30 707 C 72.3318 -2.29492 5.94653 0
M  V30 708 C 70.0188 -2.7693 5.4475 0
M  V30 709 C 71.0168 -2.46547 6.36949 0
M  V30 710 O 70.7048 -2.33199 7.69333 0
M  V30 711 H 70.4368 -0.481773 0.474205 0
M  V30 712 H 72.9908 -0.934465 1.82912 0
M  V30 713 H 71.2208 -3.48458 1.67672 0
M  V30 714 H 72.9098 -3.47625 2.09551 0
M  V30 715 H 73.6758 -2.28816 4.27631 0
M  V30 716 H 69.5548 -3.1299 3.38464 0
M  V30 717 H 73.0988 -2.05698 6.66584 0
M  V30 718 H 68.9958 -2.90215 5.76581 0
M  V30 719 H 69.7638 -2.48376 7.79905 0
M  V30 720 N 72.4269 -1.23603 -0.977757 0
M  V30 721 C 73.3569 -1.04401 -2.0886 0
M  V30 722 C 74.3379 0.0399052 -1.70053 0
M  V30 723 O 75.5229 -0.125246 -1.93796 0
M  V30 724 C 72.6529 -0.637269 -3.41403 0
M  V30 725 C 71.6069 -1.66883 -3.94124 0
M  V30 726 C 70.9329 -1.11745 -5.22893 0
M  V30 727 C 72.2329 -3.06247 -4.23096 0
M  V30 728 H 73.9269 -1.97316 -2.25182 0
M  V30 729 H 71.4729 -0.950096 -1.08209 0
M  V30 730 H 73.4259 -0.48998 -4.18542 0
M  V30 731 H 72.1499 0.327557 -3.24953 0
M  V30 732 H 70.8089 -1.80416 -3.19133 0
M  V30 733 H 70.4569 -0.143527 -5.02795 0
M  V30 734 H 70.1569 -1.80672 -5.59134 0
M  V30 735 H 71.6809 -0.982067 -6.02651 0
M  V30 736 H 73.0949 -2.96001 -4.90975 0
M  V30 737 H 71.4919 -3.72436 -4.70544 0
M  V30 738 H 72.5619 -3.55041 -3.30263 0
M  V30 739 N 73.905 1.17692 -1.04816 0
M  V30 740 C 75.182 1.83768 -0.669963 0
M  V30 741 C 75.562 1.93232 0.849986 0
M  V30 742 O 74.91 1.46397 1.75443 0
M  V30 743 C 75.12 3.21641 -1.35455 0
M  V30 744 C 76.468 3.97592 -1.49017 0
M  V30 745 O 77.492 3.31107 -1.31326 0
M  V30 746 O 76.351 5.16729 -1.77914 0
M  V30 747 H 73.445 0.792799 -0.235368 0
M  V30 748 H 75.991 1.25021 -1.14751 0
M  V30 749 H 74.763 3.097 -2.39168 0
M  V30 750 H 74.386 3.88052 -0.866107 0
M  V30 751 N 75.3831 0.828654 1.34056 0
M  V30 752 C 76.6291 0.42008 1.98402 0
M  V30 753 C 76.9621 -1.01564 1.65525 0
M  V30 754 O 76.2371 -1.70834 0.929831 0
M  V30 755 C 76.5201 0.62927 3.54559 0
M  V30 756 C 76.3731 2.11152 3.97159 0
M  V30 757 C 77.6921 0.0688756 4.40046 0
M  V30 758 H 74.8111 0.154104 0.720709 0
M  V30 759 H 77.4531 1.04228 1.5886 0
M  V30 760 H 75.6031 0.0996418 3.88372 0
M  V30 761 H 77.2751 2.70522 3.73651 0
M  V30 762 H 75.5181 2.59985 3.47261 0
M  V30 763 H 76.1891 2.20868 5.05887 0
M  V30 764 H 78.6651 0.521458 4.1282 0
M  V30 765 H 77.5411 0.245006 5.48353 0
M  V30 766 H 77.8021 -1.0266 4.30015 0
M  V30 767 N 76.8612 -1.46375 0.584142 0
M  V30 768 C 78.1382 -1.956 0.0033388 0
M  V30 769 C 78.5182 -1.52679 -1.45782 0
M  V30 770 O 77.8662 -0.77816 -2.14842 0
M  V30 771 C 78.0762 -3.48551 0.176891 0
M  V30 772 C 79.4242 -4.24576 0.0454609 0
M  V30 773 O 80.4482 -3.56043 0.105801 0
M  V30 774 O 79.3072 -5.46427 -0.0890376 0
M  V30 775 H 76.4012 -0.825547 -0.0490066 0
M  V30 776 H 78.9472 -1.56652 0.65256 0
M  V30 777 H 77.7192 -3.72683 1.1926 0
M  V30 778 H 77.3422 -3.94332 -0.508695 0
M  V30 779 N 78.3393 -0.321999 -1.54275 0
M  V30 780 C 79.3023 0.531975 -2.22941 0
M  V30 781 C 80.3023 1.04478 -1.22234 0
M  V30 782 O 81.4923 0.937452 -1.46825 0
M  V30 783 C 78.6243 1.73874 -2.93224 0
M  V30 784 H 79.8173 -0.0682612 -2.99822 0
M  V30 785 H 77.3703 -0.0730644 -1.56129 0
M  V30 786 H 78.1053 2.37825 -2.20476 0
M  V30 787 H 77.8903 1.37847 -3.6707 0
M  V30 788 H 79.3803 2.34496 -3.45545 0
M  V30 789 N 79.8174 1.5752 -0.0501392 0
M  V30 790 C 80.7654 2.12651 0.942459 0
M  V30 791 C 81.7594 1.05807 1.32292 0
M  V30 792 O 82.9654 1.24217 1.3027 0
M  V30 793 H 79.3404 0.679673 0.321789 0
M  V30 794 H 81.3114 2.94951 0.452356 0
M  V30 795 C 80.0604 2.68565 2.20836 0
M  V30 796 H 79.3834 3.50439 1.92439 0
M  V30 797 H 80.8234 3.10761 2.8845 0
M  V30 798 C 79.2824 1.62291 2.95234 0
M  V30 799 O 79.8124 1.03508 3.88135 0
M  V30 800 N 78.0184 1.33836 2.57946 0
M  V30 801 H 77.5654 1.81826 1.82475 0
M  V30 802 H 77.5234 0.629595 3.08032 0
M  V30 803 N 81.2955 -0.223234 1.56011 0
M  V30 804 C 82.5435 -0.946003 1.78592 0
M  V30 805 C 82.8645 -1.84936 0.618349 0
M  V30 806 O 82.1345 -1.92473 -0.364833 0
M  V30 807 H 80.7145 -0.352298 0.658707 0
M  V30 808 H 83.3765 -0.235494 1.93472 0
M  V30 809 H 82.4725 -1.55381 2.70672 0
M  V30 810 N 82.7736 -1.49793 -0.48987 0
M  V30 811 C 83.7206 -1.67281 -1.59014 0
M  V30 812 C 84.6906 -0.514177 -1.57941 0
M  V30 813 O 85.8756 -0.742533 -1.75759 0
M  V30 814 C 83.0156 -1.75569 -2.97102 0
M  V30 815 C 82.1286 -3.0281 -3.08107 0
M  V30 816 C 81.2636 -3.02008 -4.36995 0
M  V30 817 C 80.3026 -4.23782 -4.41673 0
M  V30 818 N 79.4396 -4.20826 -5.62005 0
M  V30 819 H 84.2796 -2.61224 -1.43409 0
M  V30 820 H 81.8166 -1.29508 -0.697565 0
M  V30 821 H 83.7746 -1.78354 -3.77155 0
M  V30 822 H 82.4046 -0.850827 -3.11385 0
M  V30 823 H 81.4566 -3.09584 -2.21047 0
M  V30 824 H 82.7686 -3.92801 -3.07423 0
M  V30 825 H 81.9226 -3.03418 -5.25378 0
M  V30 826 H 80.6616 -2.09815 -4.4026 0
M  V30 827 H 79.6666 -4.22604 -3.5169 0
M  V30 828 H 80.8916 -5.17181 -4.40115 0
M  V30 829 H 78.8376 -3.31476 -5.66091 0
M  V30 830 H 78.7546 -5.04564 -5.62984 0
M  V30 831 H 80.0226 -4.26355 -6.52565 0
M  V30 832 N 84.2517 0.741722 -1.39055 0
M  V30 833 C 85.6627 1.31966 -1.32068 0
M  V30 834 C 86.0137 1.96192 0.0180797 0
M  V30 835 O 85.1387 1.95861 0.920196 0
M  V30 836 C 85.7337 2.39954 -2.39181 0
M  V30 837 C 84.2927 2.93438 -2.35735 0
M  V30 838 C 83.4397 1.66936 -2.21422 0
M  V30 839 H 86.3907 0.539721 -1.4924 0
M  V30 840 H 86.4117 3.20182 -2.05581 0
M  V30 841 H 85.9237 1.9318 -3.36605 0
M  V30 842 H 84.0247 3.4451 -1.41929 0
M  V30 843 H 84.1377 3.4701 -3.30335 0
M  V30 844 H 82.5017 1.91016 -1.68478 0
M  V30 845 H 83.2847 1.22224 -3.20806 0
M  V30 846 N 85.7298 1.2412 0.971189 0
M  V30 847 C 86.6598 1.05508 2.08304 0
M  V30 848 C 87.6408 -0.0308864 1.70072 0
M  V30 849 O 88.8258 0.135521 1.93727 0
M  V30 850 C 85.9558 0.655365 3.4106 0
M  V30 851 C 84.9098 1.68971 3.93234 0
M  V30 852 C 84.2358 1.14516 5.22293 0
M  V30 853 C 85.5358 3.08487 4.21465 0
M  V30 854 H 87.2298 1.98507 2.24132 0
M  V30 855 H 84.7758 0.955821 1.07704 0
M  V30 856 H 86.7288 0.51217 4.18276 0
M  V30 857 H 85.4528 -0.31032 3.25122 0
M  V30 858 H 84.1118 1.82106 3.18171 0
M  V30 859 H 83.7598 0.170189 5.02712 0
M  V30 860 H 83.4598 1.83635 5.58168 0
M  V30 861 H 84.9838 1.01401 6.02121 0
M  V30 862 H 86.3978 2.98601 4.89398 0
M  V30 863 H 84.7948 3.74926 4.68562 0
M  V30 864 H 85.8648 3.56787 3.28376 0
M  V30 865 N 87.2079 -1.17134 1.05439 0
M  V30 866 C 88.4559 -1.87085 0.764429 0
M  V30 867 C 88.7769 -1.81584 -0.710787 0
M  V30 868 O 88.0469 -1.24349 -1.51374 0
M  V30 869 H 86.6269 -0.692627 0.279779 0
M  V30 870 H 89.2889 -1.42087 1.33406 0
M  V30 871 H 88.3849 -2.92759 1.0816 0
M  V30 872 N 88.686 -0.835752 -1.33615 0
M  V30 873 C 90.102 -0.523139 -1.50783 0
M  V30 874 C 90.302 0.950171 -1.77691 0
M  V30 875 O 89.358 1.73411 -1.83534 0
M  V30 876 C 90.671 -1.39378 -2.66448 0
M  V30 877 C 92.219 -1.39223 -2.80332 0
M  V30 878 C 92.694 -2.24765 -3.99055 0
M  V30 879 N 94.185 -2.22458 -4.06284 0
M  V30 880 C 94.92 -2.85386 -4.97336 0
M  V30 881 N 94.416 -3.57354 -5.93523 0
M  V30 882 N 96.209 -2.74872 -4.90308 0
M  V30 883 H 88.36 -1.78952 -1.14411 0
M  V30 884 H 90.623 -0.763297 -0.562212 0
M  V30 885 H 90.329 -2.44061 -2.53234 0
M  V30 886 H 90.203 -1.0676 -3.61776 0
M  V30 887 H 92.59 -0.353136 -2.92979 0
M  V30 888 H 92.671 -1.75846 -1.85773 0
M  V30 889 H 92.315 -3.28732 -3.87167 0
M  V30 890 H 92.245 -1.85485 -4.92852 0
M  V30 891 H 94.736 -1.70119 -3.37443 0
M  V30 892 H 95.049 -4.02584 -6.59656 0
M  V30 893 H 93.394 -3.61461 -5.93608 0
M  V30 894 H 96.585 -2.18213 -4.14126 0
M  V30 895 H 96.758 -3.24199 -5.61069 0
M  V30 896 N 90.1641 1.46063 -0.591896 0
M  V30 897 C 91.4101 2.02638 -0.0811191 0
M  V30 898 C 91.7431 1.4613 1.27905 0
M  V30 899 O 91.0181 0.629908 1.84017 0
M  V30 900 C 91.3011 3.60091 -0.0252436 0
M  V30 901 C 91.1541 4.26965 -1.41496 0
M  V30 902 C 92.4731 4.3496 0.670685 0
M  V30 903 H 89.5921 0.73635 -0.0309524 0
M  V30 904 H 92.2341 1.741 -0.760859 0
M  V30 905 H 90.3841 3.84535 0.553624 0
M  V30 906 H 92.0561 4.13756 -2.0397 0
M  V30 907 H 90.2991 3.85971 -1.98011 0
M  V30 908 H 90.9701 5.35781 -1.32825 0
M  V30 909 H 93.4461 4.15716 0.178825 0
M  V30 910 H 92.3221 5.44686 0.678837 0
M  V30 911 H 92.5831 4.06685 1.73379 0
M  V30 912 N 91.6422 0.330177 1.54103 0
M  V30 913 C 92.8882 -0.270806 2.00984 0
M  V30 914 C 93.2212 -1.51265 1.21789 0
M  V30 915 O 92.4962 -1.92142 0.301927 0
M  V30 916 C 92.7792 -0.598339 3.55094 0
M  V30 917 C 92.6322 0.654674 4.4501 0
M  V30 918 C 93.9512 -1.41334 4.16789 0
M  V30 919 H 91.0702 -0.0969531 0.730595 0
M  V30 920 H 93.7122 0.448066 1.84641 0
M  V30 921 H 91.8622 -1.21078 3.69151 0
M  V30 922 H 93.5342 1.29285 4.42813 0
M  V30 923 H 91.7772 1.28224 4.14416 0
M  V30 924 H 92.4482 0.380944 5.50684 0
M  V30 925 H 94.9242 -0.895597 4.06347 0
M  V30 926 H 93.8002 -1.61127 5.24718 0
M  V30 927 H 94.0612 -2.41146 3.70541 0
M  V30 928 N 93.1203 -1.57491 0.0584922 0
M  V30 929 C 94.0503 -2.14988 -0.911178 0
M  V30 930 C 95.0313 -1.07343 -1.31952 0
M  V30 931 O 96.2163 -1.35318 -1.39294 0
M  V30 932 C 93.3463 -2.70078 -2.18347 0
M  V30 933 C 92.3003 -3.82771 -1.91495 0
M  V30 934 C 91.6263 -4.24408 -3.25241 0
M  V30 935 C 92.9263 -5.07592 -1.23075 0
M  V30 936 H 94.6203 -2.96263 -0.432246 0
M  V30 937 H 92.1663 -1.42512 -0.206469 0
M  V30 938 H 94.1193 -3.08943 -2.86587 0
M  V30 939 H 92.8433 -1.86005 -2.68458 0
M  V30 940 H 91.5023 -3.44389 -1.25664 0
M  V30 941 H 91.1503 -3.37275 -3.73168 0
M  V30 942 H 90.8503 -5.00366 -3.08071 0
M  V30 943 H 92.3743 -4.65879 -3.94701 0
M  V30 944 H 93.7883 -5.43857 -1.81362 0
M  V30 945 H 92.1853 -5.88741 -1.16207 0
M  V30 946 H 93.2553 -4.84454 -0.207847 0
M  V30 947 N 94.5984 0.214957 -1.56127 0
M  V30 948 C 95.5084 1.28727 -1.96129 0
M  V30 949 C 96.5244 1.50916 -0.866044 0
M  V30 950 O 97.7004 1.63918 -1.17016 0
M  V30 951 C 94.7654 2.61569 -2.27558 0
M  V30 952 C 93.8264 2.47625 -3.50685 0
M  V30 953 C 93.0594 3.74132 -3.80606 0
M  V30 954 O 93.2824 4.77438 -3.12104 0
M  V30 955 O 92.2164 3.70849 -4.74083 0
M  V30 956 H 96.0424 0.977855 -2.87527 0
M  V30 957 H 93.6274 0.418358 -1.43423 0
M  V30 958 H 95.5094 3.40012 -2.48938 0
M  V30 959 H 94.1844 2.92178 -1.39332 0
M  V30 960 H 93.0914 1.67361 -3.34576 0
M  V30 961 H 94.4244 2.21954 -4.39315 0
M  V30 962 N 96.0765 1.50051 0.48192 0
M  V30 963 C 97.0065 1.71046 1.58951 0
M  V30 964 C 97.9875 0.559288 1.60642 0
M  V30 965 O 99.1725 0.797243 1.77081 0
M  V30 966 C 96.3025 1.79462 2.97339 0
M  V30 967 C 95.2565 2.94558 3.10515 0
M  V30 968 C 94.5825 2.88105 4.50444 0
M  V30 969 C 95.8825 4.35227 2.88747 0
M  V30 970 H 97.5765 2.6378 1.41635 0
M  V30 971 H 95.1225 1.26936 0.679942 0
M  V30 972 H 97.0755 1.92734 3.74742 0
M  V30 973 H 95.7995 0.833412 3.15788 0
M  V30 974 H 94.4585 2.80918 2.35543 0
M  V30 975 H 94.1065 1.89853 4.65795 0
M  V30 976 H 93.8065 3.65366 4.60197 0
M  V30 977 H 95.3305 3.03412 5.29881 0
M  V30 978 H 96.7445 4.49449 3.55905 0
M  V30 979 H 95.1415 5.13856 3.09955 0
M  V30 980 H 96.2115 4.48347 1.84696 0
M  V30 981 N 97.5546 -0.734337 1.39446 0
M  V30 982 C 98.5016 -1.84835 1.38219 0
M  V30 983 C 99.4716 -1.64331 0.24179 0
M  V30 984 O 100.657 -1.85728 0.437002 0
M  V30 985 C 97.7966 -3.22355 1.23212 0
M  V30 986 C 96.9096 -3.5456 2.46801 0
M  V30 987 C 96.0446 -4.81485 2.24377 0
M  V30 988 C 95.0836 -5.06536 3.43639 0
M  V30 989 N 94.2206 -6.24665 3.20528 0
M  V30 990 H 99.0606 -1.85219 2.33448 0
M  V30 991 H 96.5976 -0.905039 1.15963 0
M  V30 992 H 98.5556 -4.0174 1.12522 0
M  V30 993 H 97.1856 -3.21248 0.316121 0
M  V30 994 H 96.2376 -2.69872 2.68092 0
M  V30 995 H 97.5496 -3.6899 3.3563 0
M  V30 996 H 96.7036 -5.68852 2.10933 0
M  V30 997 H 95.4426 -4.6923 1.32944 0
M  V30 998 H 94.4476 -4.17632 3.5758 0
M  V30 999 H 95.6726 -5.20676 4.35974 0
M  V30 1000 H 93.6186 -6.13696 2.3176 0
M  V30 1001 H 93.5356 -6.39685 4.02913 0
M  V30 1002 H 94.8036 -7.14868 3.10779 0
M  V30 1003 N 99.0327 -1.24633 -0.964593 0
M  V30 1004 C 99.9957 -1.0424 -2.04124 0
M  V30 1005 C 100.996 0.00137563 -1.608 0
M  V30 1006 O 102.186 -0.239883 -1.7254 0
M  V30 1007 C 99.3177 -0.580588 -3.3592 0
M  V30 1008 H 100.511 -1.99803 -2.23649 0
M  V30 1009 H 98.0637 -1.06899 -1.14027 0
M  V30 1010 H 98.7987 0.3781 -3.22088 0
M  V30 1011 H 98.5837 -1.33398 -3.6871 0
M  V30 1012 H 100.074 -0.459034 -4.15069 0
M  V30 1013 N 100.511 1.16574 -1.06058 0
M  V30 1014 C 101.788 1.83048 -0.689416 0
M  V30 1015 C 102.168 1.94122 0.829443 0
M  V30 1016 O 101.516 1.48249 1.7388 0
M  V30 1017 C 101.726 3.20186 -1.38859 0
M  V30 1018 C 103.074 3.95989 -1.53226 0
M  V30 1019 O 104.098 3.29696 -1.3483 0
M  V30 1020 O 102.957 5.14813 -1.83384 0
M  V30 1021 H 100.051 0.790258 -0.243764 0
M  V30 1022 H 102.597 1.23797 -1.16071 0
M  V30 1023 H 101.369 3.07146 -2.4244 0
M  V30 1024 H 100.992 3.87112 -0.907216 0
M  V30 1025 N 101.989 0.842826 1.3317 0
M  V30 1026 C 103.235 0.441099 1.97945 0
M  V30 1027 C 103.568 -0.998024 1.66593 0
M  V30 1028 O 102.843 -1.69839 0.947898 0
M  V30 1029 C 103.126 0.666841 3.53872 0
M  V30 1030 C 102.979 2.15352 3.94897 0
M  V30 1031 C 104.298 0.115544 4.39948 0
M  V30 1032 H 101.417 0.161739 0.719034 0
M  V30 1033 H 104.059 1.05907 1.57746 0
M  V30 1034 H 102.209 0.140828 3.88245 0
M  V30 1035 H 103.881 2.7447 3.70761 0
M  V30 1036 H 102.124 2.63653 3.44484 0
M  V30 1037 H 102.795 2.26221 5.03516 0
M  V30 1038 H 105.271 0.565213 4.12243 0
M  V30 1039 H 104.147 0.303152 5.48062 0
M  V30 1040 H 104.408 -0.980935 4.3108 0
M  V30 1041 N 103.467 -1.45747 0.599634 0
M  V30 1042 C 104.713 -2.02592 0.0918643 0
M  V30 1043 C 105.046 -1.46806 -1.27128 0
M  V30 1044 O 104.321 -0.639658 -1.83681 0
M  V30 1045 C 104.604 -3.60073 0.0443398 0
M  V30 1046 C 104.457 -4.26208 1.43759 0
M  V30 1047 C 105.776 -4.35309 -0.647608 0
M  V30 1048 H 102.895 -0.736175 0.034857 0
M  V30 1049 H 105.537 -1.73694 0.770081 0
M  V30 1050 H 103.687 -3.84823 -0.533224 0
M  V30 1051 H 105.359 -4.12668 2.06162 0
M  V30 1052 H 103.602 -3.84916 2.00056 0
M  V30 1053 H 104.273 -5.35069 1.35665 0
M  V30 1054 H 106.749 -4.15805 -0.156776 0
M  V30 1055 H 105.625 -5.45038 -0.649942 0
M  V30 1056 H 105.886 -4.07598 -1.71219 0
M  V30 1057 N 104.945 -0.338344 -1.53925 0
M  V30 1058 C 106.356 0.146651 -1.86123 0
M  V30 1059 C 106.707 1.5042 -1.2597 0
M  V30 1060 O 105.832 2.08723 -0.571294 0
M  V30 1061 C 106.427 0.272879 -3.37699 0
M  V30 1062 C 104.986 0.702103 -3.69794 0
M  V30 1063 C 104.133 -0.167304 -2.76795 0
M  V30 1064 H 107.084 -0.558123 -1.48562 0
M  V30 1065 H 107.105 1.10128 -3.64214 0
M  V30 1066 H 106.617 -0.715307 -3.81451 0
M  V30 1067 H 104.718 1.6995 -3.31584 0
M  V30 1068 H 104.831 0.495604 -4.7653 0
M  V30 1069 H 103.195 0.359527 -2.5215 0
M  V30 1070 H 103.978 -1.15253 -3.23375 0
M  V30 1071 N 106.423 1.57458 -0.0668435 0
M  V30 1072 C 107.37 2.12439 0.902122 0
M  V30 1073 C 108.34 1.03565 1.2986 0
M  V30 1074 O 109.525 1.312 1.38532 0
M  V30 1075 C 106.665 2.6865 2.16614 0
M  V30 1076 C 105.778 3.91663 1.82274 0
M  V30 1077 C 104.913 4.36134 3.0325 0
M  V30 1078 C 103.952 5.51808 2.64904 0
M  V30 1079 N 103.089 5.9126 3.78624 0
M  V30 1080 H 107.929 2.94934 0.426382 0
M  V30 1081 H 105.466 1.4575 0.198819 0
M  V30 1082 H 107.424 2.99346 2.90599 0
M  V30 1083 H 106.054 1.88928 2.61737 0
M  V30 1084 H 105.106 3.6746 0.983719 0
M  V30 1085 H 106.418 4.75693 1.50059 0
M  V30 1086 H 105.572 4.68465 3.85519 0
M  V30 1087 H 104.311 3.50948 3.38655 0
M  V30 1088 H 103.316 5.19133 1.81055 0
M  V30 1089 H 104.541 6.38722 2.30675 0
M  V30 1090 H 102.487 5.09024 4.138 0
M  V30 1091 H 102.404 6.70018 3.5016 0
M  V30 1092 H 103.672 6.28212 4.61486 0
M  V30 1093 N 107.901 -0.206675 1.56239 0
M  V30 1094 C 109.129 -0.945345 1.8404 0
M  V30 1095 C 109.544 -1.77336 0.647885 0
M  V30 1096 O 108.901 -1.78425 -0.383511 0
M  V30 1097 C 108.952 -1.8509 3.10522 0
M  V30 1098 O 108.673 -1.05634 4.25174 0
M  V30 1099 C 110.174 -2.70222 3.51418 0
M  V30 1100 H 107.394 -0.276372 0.61144 0
M  V30 1101 H 109.938 -0.217417 2.03341 0
M  V30 1102 H 108.093 -2.53259 2.93153 0
M  V30 1103 H 108.507 -1.67238 4.97124 0
M  V30 1104 H 109.981 -3.29438 4.42916 0
M  V30 1105 H 110.458 -3.43358 2.73864 0
M  V30 1106 H 111.064 -2.07443 3.71278 0
M  V30 1107 N 109.379 -1.50304 -0.473955 0
M  V30 1108 C 110.342 -1.6841 -1.55469 0
M  V30 1109 C 111.342 -0.554905 -1.50922 0
M  V30 1110 O 112.532 -0.821882 -1.53593 0
M  V30 1111 C 109.664 -1.70667 -2.95102 0
M  V30 1112 H 110.857 -2.64828 -1.40733 0
M  V30 1113 H 108.41 -1.39742 -0.700132 0
M  V30 1114 H 109.145 -0.75932 -3.15285 0
M  V30 1115 H 108.93 -2.52698 -2.9981 0
M  V30 1116 H 110.42 -1.8664 -3.73571 0
M  V30 1117 N 110.857 0.726932 -1.39834 0
M  V30 1118 C 111.767 1.87131 -1.41489 0
M  V30 1119 C 112.783 1.71239 -0.308757 0
M  V30 1120 O 113.959 1.93701 -0.551529 0
M  V30 1121 C 111.024 3.22811 -1.26468 0
M  V30 1122 C 110.085 3.51039 -2.47124 0
M  V30 1123 C 109.318 4.80245 -2.3281 0
M  V30 1124 O 109.541 5.54537 -1.33585 0
M  V30 1125 O 108.475 5.08554 -3.21957 0
M  V30 1126 H 112.301 1.8869 -2.3797 0
M  V30 1127 H 109.886 0.875837 -1.21035 0
M  V30 1128 H 111.768 4.03877 -1.20255 0
M  V30 1129 H 110.443 3.22005 -0.330862 0
M  V30 1130 H 109.35 2.70027 -2.58914 0
M  V30 1131 H 110.683 3.56632 -3.39227 0
M  V30 1132 N 112.336 1.25143 0.95797 0
M  V30 1133 C 113.284 1.05019 2.07542 0
M  V30 1134 C 114.278 -0.0178751 1.69391 0
M  V30 1135 O 115.484 0.137472 1.79474 0
M  V30 1136 H 111.859 0.32265 0.679265 0
M  V30 1137 H 113.83 1.99759 2.21673 0
M  V30 1138 C 112.579 0.682074 3.40944 0
M  V30 1139 H 111.902 1.49573 3.70767 0
M  V30 1140 H 113.342 0.580945 4.20001 0
M  V30 1141 C 111.801 -0.611608 3.31302 0
M  V30 1142 O 112.331 -1.65465 3.66038 0
M  V30 1143 N 110.537 -0.595982 2.84423 0
M  V30 1144 H 110.084 0.253192 2.56353 0
M  V30 1145 H 110.042 -1.46173 2.78354 0
M  V30 1146 N 113.814 -1.1601 1.06675 0
M  V30 1147 C 115.061 -1.86633 0.785781 0
M  V30 1148 C 115.389 -1.81929 -0.687896 0
M  V30 1149 O 114.644 -1.23253 -1.52011 0
M  V30 1150 C 114.943 -3.35547 1.23057 0
M  V30 1151 C 114.609 -3.60448 2.70902 0
M  V30 1152 C 113.271 -3.66954 3.11285 0
M  V30 1153 C 115.623 -3.7071 3.66365 0
M  V30 1154 C 112.951 -3.81225 4.45965 0
M  V30 1155 C 115.303 -3.86503 5.00797 0
M  V30 1156 C 113.967 -3.91252 5.40813 0
M  V30 1157 H 113.237 -0.682937 0.287538 0
M  V30 1158 H 115.884 -1.37146 1.33654 0
M  V30 1159 H 114.189 -3.87193 0.59907 0
M  V30 1160 H 115.886 -3.88583 0.990163 0
M  V30 1161 H 112.476 -3.56021 2.38636 0
M  V30 1162 H 116.66 -3.64991 3.36296 0
M  V30 1163 H 111.916 -3.83155 4.76447 0
M  V30 1164 H 116.09 -3.93385 5.74649 0
M  V30 1165 H 113.717 -4.02062 6.45174 0
M  V30 1166 N 115.292 -0.849877 -1.32721 0
M  V30 1167 C 116.708 -0.539102 -1.50219 0
M  V30 1168 C 116.908 0.931271 -1.78689 0
M  V30 1169 O 115.964 1.71455 -1.85363 0
M  V30 1170 C 117.277 -1.42196 -2.64954 0
M  V30 1171 C 118.825 -1.42189 -2.78839 0
M  V30 1172 C 119.3 -2.28985 -3.96648 0
M  V30 1173 N 120.791 -2.26754 -4.03902 0
M  V30 1174 C 121.526 -2.90644 -4.94281 0
M  V30 1175 N 121.022 -3.63629 -5.897 0
M  V30 1176 N 122.815 -2.80057 -4.87365 0
M  V30 1177 H 114.966 -1.80156 -1.12506 0
M  V30 1178 H 117.229 -0.769217 -0.554085 0
M  V30 1179 H 116.935 -2.46733 -2.50631 0
M  V30 1180 H 116.809 -1.10591 -3.60624 0
M  V30 1181 H 119.196 -0.38419 -2.92588 0
M  V30 1182 H 119.277 -1.77807 -1.83898 0
M  V30 1183 H 118.921 -3.32819 -3.83658 0
M  V30 1184 H 118.851 -1.90702 -4.90857 0
M  V30 1185 H 121.342 -1.73688 -3.3562 0
M  V30 1186 H 121.655 -4.09558 -6.55349 0
M  V30 1187 H 120 -3.67737 -5.89741 0
M  V30 1188 H 123.191 -2.22593 -4.11789 0
M  V30 1189 H 123.364 -3.30132 -5.57599 0
M  V30 1190 N 116.77 1.45427 -0.607355 0
M  V30 1191 C 117.733 2.28974 0.101693 0
M  V30 1192 C 118.733 1.39754 0.795329 0
M  V30 1193 O 119.923 1.61878 0.643527 0
M  V30 1194 C 117.055 3.20768 1.15414 0
M  V30 1195 H 118.248 2.93147 -0.632844 0
M  V30 1196 H 115.801 1.51945 -0.366391 0
M  V30 1197 H 116.536 2.61395 1.91945 0
M  V30 1198 H 116.321 3.86489 0.66098 0
M  V30 1199 H 117.811 3.83589 1.65073 0
M  V30 1200 N 118.248 0.346503 1.53744 0
M  V30 1201 C 119.178 -0.501193 2.28058 0
M  V30 1202 C 120.159 -1.10014 1.29734 0
M  V30 1203 O 121.344 -1.12097 1.58581 0
M  V30 1204 C 118.474 -1.65078 3.05559 0
M  V30 1205 C 117.428 -1.18003 4.11411 0
M  V30 1206 C 116.754 -2.41837 4.76884 0
M  V30 1207 C 118.054 -0.278394 5.21558 0
M  V30 1208 H 119.748 0.11875 2.99164 0
M  V30 1209 H 117.294 0.0585531 1.43881 0
M  V30 1210 H 119.247 -2.25028 3.56287 0
M  V30 1211 H 117.971 -2.29767 2.32109 0
M  V30 1212 H 116.63 -0.603331 3.61601 0
M  V30 1213 H 116.278 -3.0494 4.00026 0
M  V30 1214 H 115.978 -2.1102 5.48402 0
M  V30 1215 H 117.502 -3.02508 5.30397 0
M  V30 1216 H 118.916 -0.784823 5.67903 0
M  V30 1217 H 117.313 -0.0619707 6.00068 0
M  V30 1218 H 118.383 0.684677 4.80042 0
M  V30 1219 N 119.726 -1.57421 0.075193 0
M  V30 1220 C 120.966 -1.95495 -0.596757 0
M  V30 1221 C 121.33 -0.954886 -1.66571 0
M  V30 1222 O 122.531 -1.22341 -2.39345 0
M  V30 1223 C 120.802 -3.382 -1.15566 0
M  V30 1224 S 122.361 -3.98254 -1.84226 0
M  V30 1225 H 119.179 -0.683649 -0.195307 0
M  V30 1226 H 121.781 -1.94925 0.149859 0
M  V30 1227 H 120.485 -4.08766 -0.36588 0
M  V30 1228 H 120.016 -3.42321 -1.93856 0
M  V30 1229 H 122.031 -3.85435 -3.12497 0
M  V30 1230 N 121.204 0.198386 -1.56346 0
M  V30 1231 C 122.432 0.935572 -1.84539 0
M  V30 1232 C 122.847 1.76989 -0.657281 0
M  V30 1233 O 122.204 1.78626 0.374043 0
M  V30 1234 C 122.255 1.8344 -3.11499 0
M  V30 1235 O 121.976 1.03377 -4.25728 0
M  V30 1236 C 123.477 2.68355 -3.52846 0
M  V30 1237 H 120.697 0.273126 -0.612897 0
M  V30 1238 H 123.241 0.20663 -2.03453 0
M  V30 1239 H 121.396 2.51701 -2.94492 0
M  V30 1240 H 121.81 1.64599 -4.98003 0
M  V30 1241 H 123.284 3.27085 -4.44657 0
M  V30 1242 H 123.761 3.41901 -2.75681 0
M  V30 1243 H 124.367 2.05471 -3.72373 0
M  V30 1244 N 122.682 1.50554 0.465978 0
M  V30 1245 C 123.93 1.61479 1.21528 0
M  V30 1246 C 124.251 0.319596 1.92363 0
M  V30 1247 O 123.521 -0.663194 1.84333 0
M  V30 1248 H 122.101 0.595055 0.451573 0
M  V30 1249 H 124.763 1.87355 0.53704 0
M  V30 1250 H 123.859 2.42846 1.96042 0
M  V30 1251 N 124.16 -0.719506 1.40217 0
M  V30 1252 C 125.07 -1.86378 1.42479 0
M  V30 1253 C 126.086 -1.71073 0.317834 0
M  V30 1254 O 127.262 -1.93406 0.561794 0
M  V30 1255 C 124.327 -3.22136 1.28178 0
M  V30 1256 C 123.388 -3.49723 2.48982 0
M  V30 1257 C 122.621 -4.79004 2.35353 0
M  V30 1258 O 122.844 -5.53821 1.36524 0
M  V30 1259 O 121.778 -5.06839 3.2465 0
M  V30 1260 H 125.604 -1.87425 2.38968 0
M  V30 1261 H 123.189 -0.869405 1.21498 0
M  V30 1262 H 125.071 -4.03234 1.22395 0
M  V30 1263 H 123.746 -3.21825 0.347934 0
M  V30 1264 H 122.653 -2.6865 2.60342 0
M  V30 1265 H 123.986 -3.54828 3.41113 0
M  V30 1266 N 125.638 -1.25649 -0.95132 0
M  V30 1267 C 126.585 -1.06323 -2.04851 0
M  V30 1268 C 127.555 0.0286491 -1.66075 0
M  V30 1269 O 128.74 -0.12917 -1.90362 0
M  V30 1270 C 125.88 -0.691529 -3.381 0
M  V30 1271 C 124.993 -1.85861 -3.89974 0
M  V30 1272 C 124.128 -1.43096 -5.11563 0
M  V30 1273 C 123.167 -2.56696 -5.55674 0
M  V30 1274 N 122.304 -2.14684 -6.68472 0
M  V30 1275 H 127.144 -2.00222 -2.20715 0
M  V30 1276 H 124.681 -0.997027 -1.08156 0
M  V30 1277 H 126.639 -0.456963 -4.1469 0
M  V30 1278 H 125.269 0.210474 -3.22113 0
M  V30 1279 H 124.321 -2.20639 -3.09875 0
M  V30 1280 H 125.633 -2.71161 -4.18657 0
M  V30 1281 H 124.787 -1.15624 -5.9558 0
M  V30 1282 H 123.526 -0.548722 -4.84603 0
M  V30 1283 H 122.531 -2.84909 -4.7022 0
M  V30 1284 H 123.756 -3.45503 -5.8464 0
M  V30 1285 H 121.702 -1.28881 -6.43215 0
M  V30 1286 H 121.619 -2.9353 -6.96689 0
M  V30 1287 H 122.887 -1.90397 -7.5589 0
M  V30 1288 N 127.117 1.15442 -1.07289 0
M  V30 1289 C 128.365 1.85845 -0.794096 0
M  V30 1290 C 128.686 1.82692 0.681809 0
M  V30 1291 O 127.956 1.26741 1.49377 0
M  V30 1292 H 126.536 0.688089 -0.290763 0
M  V30 1293 H 129.198 1.39947 -1.3565 0
M  V30 1294 H 128.294 2.91001 -1.12804 0
M  V30 1295 N 128.595 0.856903 1.32268 0
M  V30 1296 C 129.842 0.461386 1.97174 0
M  V30 1297 C 130.17 -0.983491 1.67803 0
M  V30 1298 O 129.425 -1.70541 0.959903 0
M  V30 1299 C 129.724 0.649919 3.51441 0
M  V30 1300 C 129.39 2.0656 4.00804 0
M  V30 1301 C 128.052 2.45279 4.13995 0
M  V30 1302 C 130.404 2.98947 4.26943 0
M  V30 1303 C 127.732 3.75653 4.50668 0
M  V30 1304 C 130.084 4.28822 4.65075 0
M  V30 1305 C 128.748 4.67472 4.76472 0
M  V30 1306 H 128.018 0.168833 0.72151 0
M  V30 1307 H 130.665 1.08739 1.57633 0
M  V30 1308 H 128.97 -0.0593018 3.91755 0
M  V30 1309 H 130.667 0.32391 3.9969 0
M  V30 1310 H 127.257 1.75495 3.91024 0
M  V30 1311 H 131.441 2.70265 4.16258 0
M  V30 1312 H 126.697 4.05379 4.57688 0
M  V30 1313 H 130.871 5.0047 4.84255 0
M  V30 1314 H 128.498 5.68539 5.04646 0
M  V30 1315 N 130.073 -1.45103 0.615059 0
M  V30 1316 C 131.321 -2.01784 0.112955 0
M  V30 1317 C 131.642 -1.48504 -1.26378 0
M  V30 1318 O 130.912 -0.682245 -1.83636 0
M  V30 1319 H 129.492 -0.745993 0.0387668 0
M  V30 1320 H 132.154 -1.77808 0.798141 0
M  V30 1321 H 131.25 -3.12025 0.0684069 0
M  V30 1322 N 131.551 -0.354651 -1.53558 0
M  V30 1323 C 132.781 0.239167 -2.05211 0
M  V30 1324 C 133.189 1.43879 -1.22863 0
M  V30 1325 O 132.532 1.81857 -0.259565 0
M  V30 1326 C 132.594 0.707251 -3.52474 0
M  V30 1327 C 132.258 -0.374212 -4.55465 0
M  V30 1328 C 133.255 -1.22054 -5.0537 0
M  V30 1329 C 130.94 -0.531323 -4.99482 0
M  V30 1330 C 132.934 -2.20942 -5.97882 0
M  V30 1331 C 130.621 -1.52358 -5.91802 0
M  V30 1332 C 131.619 -2.36108 -6.40892 0
M  V30 1333 O 131.307 -3.33643 -7.31394 0
M  V30 1334 H 131.039 0.0479716 -0.674296 0
M  V30 1335 H 133.593 -0.508121 -1.99016 0
M  V30 1336 H 131.823 1.50596 -3.56171 0
M  V30 1337 H 133.512 1.22285 -3.87042 0
M  V30 1338 H 134.278 -1.1103 -4.7212 0
M  V30 1339 H 130.157 0.110738 -4.60867 0
M  V30 1340 H 133.701 -2.86348 -6.36121 0
M  V30 1341 H 129.598 -1.63434 -6.24467 0
M  V30 1342 H 130.366 -3.29244 -7.4936 0
M  V30 1343 N 133.029 1.57378 -0.0835403 0
M  V30 1344 C 133.976 2.13384 0.879539 0
M  V30 1345 C 134.946 1.04936 1.28754 0
M  V30 1346 O 136.131 1.32662 1.37133 0
M  V30 1347 C 133.271 2.70932 2.13752 0
M  V30 1348 C 132.384 3.93575 1.7811 0
M  V30 1349 C 131.519 4.39326 2.98607 0
M  V30 1350 C 130.558 5.54587 2.59037 0
M  V30 1351 N 129.695 5.95243 3.72331 0
M  V30 1352 H 134.535 2.9537 0.395076 0
M  V30 1353 H 132.072 1.45953 0.183349 0
M  V30 1354 H 134.03 3.02411 2.87408 0
M  V30 1355 H 132.66 1.91693 2.59718 0
M  V30 1356 H 131.712 3.68483 0.94469 0
M  V30 1357 H 133.024 4.77258 1.45005 0
M  V30 1358 H 132.178 4.72528 3.80529 0
M  V30 1359 H 130.917 3.5452 3.34913 0
M  V30 1360 H 129.922 5.21024 1.75539 0
M  V30 1361 H 131.147 6.41133 2.23887 0
M  V30 1362 H 129.093 5.13385 4.08378 0
M  V30 1363 H 129.01 6.73694 3.43034 0
M  V30 1364 H 130.278 6.33072 4.54797 0
M  V30 1365 N 134.507 -0.190092 1.56449 0
M  V30 1366 C 135.755 -0.907908 1.80559 0
M  V30 1367 C 136.076 -1.83583 0.657438 0
M  V30 1368 O 135.346 -1.93203 -0.323924 0
M  V30 1369 H 133.926 -0.338247 0.666032 0
M  V30 1370 H 136.588 -0.194403 1.93928 0
M  V30 1371 H 135.684 -1.49604 2.73907 0
M  V30 1372 N 135.985 -1.50799 -0.457987 0
M  V30 1373 C 137.21 -1.66496 -1.23668 0
M  V30 1374 C 137.635 -0.353288 -1.84752 0
M  V30 1375 O 136.993 0.684346 -1.67888 0
M  V30 1376 C 137.041 -2.76763 -2.3116 0
M  V30 1377 O 136.145 -2.38928 -3.36136 0
M  V30 1378 H 135.486 -0.555828 -0.363252 0
M  V30 1379 H 138.016 -1.9725 -0.543474 0
M  V30 1380 H 138.026 -3.00232 -2.76269 0
M  V30 1381 H 136.701 -3.71954 -1.86073 0
M  V30 1382 H 135.278 -2.25953 -2.96647 0
M  V30 1383 N 137.463 0.71206 -1.40597 0
M  V30 1384 C 138.691 1.50111 -1.42388 0
M  V30 1385 C 139.106 1.88784 -0.0245395 0
M  V30 1386 O 138.463 1.55681 0.952351 0
M  V30 1387 C 138.514 2.7742 -2.31776 0
M  V30 1388 O 138.235 2.40382 -3.66262 0
M  V30 1389 C 139.736 3.7129 -2.42196 0
M  V30 1390 H 136.956 0.46314 -0.485533 0
M  V30 1391 H 139.5 0.878068 -1.8469 0
M  V30 1392 H 137.655 3.36001 -1.92827 0
M  V30 1393 H 138.069 3.22324 -4.13772 0
M  V30 1394 H 139.543 4.57448 -3.08943 0
M  V30 1395 H 140.02 4.14641 -1.44809 0
M  V30 1396 H 140.626 3.18619 -2.81712 0
M  V30 1397 N 138.941 1.26152 0.944643 0
M  V30 1398 C 140.188 1.11492 1.69044 0
M  V30 1399 C 140.516 -0.342366 1.91463 0
M  V30 1400 O 139.771 -1.26812 1.49054 0
M  V30 1401 C 140.07 1.82541 3.07268 0
M  V30 1402 C 139.736 3.32445 3.04616 0
M  V30 1403 C 138.398 3.73337 3.036 0
M  V30 1404 C 140.75 4.28171 2.97185 0
M  V30 1405 C 138.078 5.08348 2.92915 0
M  V30 1406 C 140.43 5.63218 2.88041 0
M  V30 1407 C 139.094 6.03426 2.85366 0
M  V30 1408 H 138.364 0.407977 0.618576 0
M  V30 1409 H 141.011 1.56551 1.10291 0
M  V30 1410 H 139.316 1.29941 3.69625 0
M  V30 1411 H 141.013 1.68642 3.63815 0
M  V30 1412 H 137.603 2.99915 3.06185 0
M  V30 1413 H 141.787 3.97563 2.97081 0
M  V30 1414 H 137.043 5.38667 2.89219 0
M  V30 1415 H 141.217 6.37078 2.81254 0
M  V30 1416 H 138.844 7.07999 2.76842 0
M  V30 1417 N 140.419 -1.14872 1.07899 0
M  V30 1418 C 141.369 -2.17809 0.674027 0
M  V30 1419 C 142.353 -1.58008 -0.303699 0
M  V30 1420 O 143.545 -1.76616 -0.11654 0
M  V30 1421 C 140.674 -3.43208 0.0793318 0
M  V30 1422 C 139.76 -4.10051 1.08253 0
M  V30 1423 N 140.151 -4.52296 2.2641 0
M  V30 1424 C 138.449 -4.36469 0.917124 0
M  V30 1425 C 139.15 -5.04199 2.901 0
M  V30 1426 N 138.126 -4.98088 2.17736 0
M  V30 1427 H 141.928 -2.48207 1.57386 0
M  V30 1428 H 139.442 -1.315 0.952976 0
M  V30 1429 H 141.439 -4.16272 -0.228719 0
M  V30 1430 H 140.099 -3.14291 -0.815551 0
M  V30 1431 H 141.11 -4.45504 2.64096 0
M  V30 1432 H 137.787 -4.17432 0.0756078 0
M  V30 1433 H 139.177 -5.46802 3.90458 0
M  V30 1434 N 141.898 -0.863906 -1.31812 0
M  V30 1435 C 143.314 -0.555004 -1.49639 0
M  V30 1436 C 143.514 0.912266 -1.79666 0
M  V30 1437 O 142.57 1.69479 -1.87171 0
M  V30 1438 C 143.883 -1.44998 -2.63431 0
M  V30 1439 C 145.431 -1.45138 -2.77316 0
M  V30 1440 C 145.906 -2.33179 -3.94197 0
M  V30 1441 N 147.397 -2.31025 -4.01474 0
M  V30 1442 C 148.132 -2.95871 -4.9117 0
M  V30 1443 N 147.628 -3.69863 -5.8581 0
M  V30 1444 N 149.421 -2.85211 -4.84367 0
M  V30 1445 H 141.572 -1.81339 -1.10589 0
M  V30 1446 H 143.835 -0.77505 -0.545895 0
M  V30 1447 H 143.541 -2.49377 -2.48 0
M  V30 1448 H 143.415 -1.14409 -3.59431 0
M  V30 1449 H 145.802 -0.415201 -2.92164 0
M  V30 1450 H 145.883 -1.79747 -1.82001 0
M  V30 1451 H 145.527 -3.3687 -3.80107 0
M  V30 1452 H 145.457 -1.95897 -4.88807 0
M  V30 1453 H 147.948 -1.77238 -3.33759 0
M  V30 1454 H 148.261 -4.16486 -6.50968 0
M  V30 1455 H 146.606 -3.73971 -5.85808 0
M  V30 1456 H 149.797 -2.26948 -4.09405 0
M  V30 1457 H 149.97 -3.36027 -5.54066 0
M  V30 1458 N 143.376 1.44774 -0.622745 0
M  V30 1459 C 144.622 2.0242 -0.124083 0
M  V30 1460 C 144.955 1.4881 1.24777 0
M  V30 1461 O 144.23 0.668799 1.8264 0
M  V30 1462 C 144.513 3.59957 -0.101619 0
M  V30 1463 C 144.366 4.23867 -1.50521 0
M  V30 1464 C 145.685 4.36284 0.578272 0
M  V30 1465 H 142.804 0.735528 -0.0465645 0
M  V30 1466 H 145.446 1.72447 -0.797617 0
M  V30 1467 H 143.596 3.85623 0.471934 0
M  V30 1468 H 145.268 4.09336 -2.12701 0
M  V30 1469 H 143.511 3.81684 -2.06154 0
M  V30 1470 H 144.182 5.32843 -1.4416 0
M  V30 1471 H 146.658 4.16001 0.0906057 0
M  V30 1472 H 145.534 5.46004 0.563149 0
M  V30 1473 H 145.795 4.10271 1.64713 0
M  V30 1474 N 144.854 0.36279 1.53368 0
M  V30 1475 C 146.103 -0.22888 2.00397 0
M  V30 1476 C 146.416 -1.50096 1.25421 0
M  V30 1477 O 147.622 -2.17106 1.63025 0
M  V30 1478 C 146.078 -0.458417 3.56969 0
M  V30 1479 C 145.686 0.798877 4.4082 0
M  V30 1480 C 147.43 -1.00789 4.12361 0
M  V30 1481 C 145.337 0.539078 5.88938 0
M  V30 1482 H 144.267 -0.089305 0.748693 0
M  V30 1483 H 146.918 0.481099 1.77081 0
M  V30 1484 H 145.3 -1.22959 3.76427 0
M  V30 1485 H 146.474 1.57262 4.33134 0
M  V30 1486 H 144.789 1.27137 3.96516 0
M  V30 1487 H 147.386 -1.21754 5.20653 0
M  V30 1488 H 147.729 -1.9692 3.66781 0
M  V30 1489 H 148.262 -0.296961 3.9669 0
M  V30 1490 H 145.001 1.47064 6.3879 0
M  V30 1491 H 144.521 -0.196222 5.99479 0
M  V30 1492 H 146.2 0.163542 6.46793 0
M  V30 1493 N 146.332 -1.57332 0.0918853 0
M  V30 1494 C 147.743 -1.81496 -0.437739 0
M  V30 1495 C 148.094 -1.00727 -1.6837 0
M  V30 1496 O 147.219 -0.235694 -2.15113 0
M  V30 1497 C 147.814 -3.29197 -0.800939 0
M  V30 1498 C 146.373 -3.54136 -1.27532 0
M  V30 1499 C 145.52 -2.75979 -0.270392 0
M  V30 1500 H 148.471 -1.55494 0.317366 0
M  V30 1501 H 148.492 -3.42344 -1.66074 0
M  V30 1502 H 148.004 -3.87955 0.106078 0
M  V30 1503 H 146.105 -3.00705 -2.20016 0
M  V30 1504 H 146.218 -4.62792 -1.23938 0
M  V30 1505 H 144.582 -2.43349 -0.751872 0
M  V30 1506 H 145.365 -3.37484 0.629248 0
M  V30 1507 N 147.81 0.181792 -1.56548 0
M  V30 1508 C 149.035 0.920019 -1.85877 0
M  V30 1509 C 149.46 1.75494 -0.677021 0
M  V30 1510 O 148.818 1.77399 0.374056 0
M  V30 1511 C 148.866 1.78112 -3.13542 0
M  V30 1512 O 147.97 2.88152 -2.95029 0
M  V30 1513 H 147.311 0.258334 -0.611686 0
M  V30 1514 H 149.841 0.183092 -2.03779 0
M  V30 1515 H 149.851 2.18314 -3.44678 0
M  V30 1516 H 148.526 1.16777 -3.99169 0
M  V30 1517 H 147.103 2.51609 -2.75222 0
M  V30 1518 N 149.288 1.51039 0.449983 0
M  V30 1519 C 150.535 1.63081 1.20045 0
M  V30 1520 C 150.863 0.341024 1.91487 0
M  V30 1521 O 150.118 -0.674276 1.83717 0
M  V30 1522 C 150.417 2.77556 2.25161 0
M  V30 1523 C 150.083 4.17289 1.70823 0
M  V30 1524 C 148.745 4.55305 1.55725 0
M  V30 1525 C 151.097 5.04536 1.3074 0
M  V30 1526 C 148.425 5.78287 0.989999 0
M  V30 1527 C 150.777 6.28085 0.754482 0
M  V30 1528 C 149.441 6.64885 0.590308 0
M  V30 1529 H 148.711 0.596755 0.439277 0
M  V30 1530 H 151.358 1.85037 0.49333 0
M  V30 1531 H 149.663 2.49771 3.01863 0
M  V30 1532 H 151.36 2.84073 2.83026 0
M  V30 1533 H 147.95 3.8731 1.83546 0
M  V30 1534 H 152.134 4.75782 1.41229 0
M  V30 1535 H 147.39 6.05456 0.850451 0
M  V30 1536 H 151.564 6.95038 0.435324 0
M  V30 1537 H 149.191 7.60055 0.14862 0
M  V30 1538 N 150.766 -0.704594 1.40972 0
M  V30 1539 C 151.699 -1.82861 1.36518 0
M  V30 1540 C 152.677 -1.6091 0.23382 0
M  V30 1541 O 153.861 -1.83778 0.419271 0
M  V30 1542 C 150.988 -3.1939 1.12729 0
M  V30 1543 C 150.034 -3.60148 2.28463 0
M  V30 1544 S 150.867 -3.65994 3.90907 0
M  V30 1545 C 152.023 -5.05264 3.69403 0
M  V30 1546 H 152.256 -1.86361 2.3164 0
M  V30 1547 H 149.789 -0.872439 1.27389 0
M  V30 1548 H 151.747 -3.98211 0.996893 0
M  V30 1549 H 150.408 -3.1351 0.192427 0
M  V30 1550 H 149.601 -4.59309 2.07489 0
M  V30 1551 H 149.203 -2.88612 2.37863 0
M  V30 1552 H 151.495 -5.92504 3.28551 0
M  V30 1553 H 152.438 -5.31278 4.68134 0
M  V30 1554 H 152.846 -4.76377 3.02862 0
M  V30 1555 N 152.244 -1.26651 -0.937939 0
M  V30 1556 C 153.484 -1.13611 -1.69917 0
M  V30 1557 C 153.848 0.314687 -1.89404 0
M  V30 1558 O 155.049 0.567285 -2.62746 0
M  V30 1559 C 153.32 -1.88742 -3.03498 0
M  V30 1560 S 154.879 -1.91794 -3.94665 0
M  V30 1561 H 151.697 -0.405767 -0.583844 0
M  V30 1562 H 154.299 -1.60416 -1.11745 0
M  V30 1563 H 153.003 -2.9336 -2.86999 0
M  V30 1564 H 152.534 -1.42391 -3.66727 0
M  V30 1565 H 154.549 -1.00698 -4.85875 0
M  V30 1566 N 153.722 1.14298 -1.08507 0
M  V30 1567 C 154.654 2.1907 -0.673859 0
M  V30 1568 C 155.667 1.60381 0.279577 0
M  V30 1569 O 156.856 1.78374 0.0670754 0
M  V30 1570 C 153.956 3.38888 0.0290979 0
M  V30 1571 C 153.129 4.27103 -0.943494 0
M  V30 1572 C 152.188 5.25477 -0.275676 0
M  V30 1573 O 151.214 5.61709 -0.920401 0
M  V30 1574 N 152.416 5.7227 0.974013 0
M  V30 1575 H 155.181 2.54965 -1.57521 0
M  V30 1576 H 152.742 1.29528 -0.971287 0
M  V30 1577 H 154.734 4.01761 0.48683 0
M  V30 1578 H 153.304 3.01309 0.832555 0
M  V30 1579 H 152.524 3.61149 -1.58004 0
M  V30 1580 H 153.812 4.82905 -1.60251 0
M  V30 1581 H 153.21 5.44965 1.51755 0
M  V30 1582 H 151.767 6.37127 1.37522 0
M  V30 1583 N 155.201 0.870884 1.31352 0
M  V30 1584 C 156.164 0.332243 2.26779 0
M  V30 1585 C 157.164 -0.517302 1.52252 0
M  V30 1586 O 158.354 -0.326477 1.71113 0
M  V30 1587 C 155.486 -0.528066 3.36785 0
M  V30 1588 H 156.679 1.17469 2.75937 0
M  V30 1589 H 154.232 0.64655 1.423 0
M  V30 1590 H 154.967 -1.39167 2.92922 0
M  V30 1591 H 154.752 0.0802582 3.92018 0
M  V30 1592 H 156.242 -0.897179 4.07849 0
M  V30 1593 N 156.679 -1.44442 0.630414 0
M  V30 1594 C 157.927 -2.01653 0.134351 0
M  V30 1595 C 158.248 -1.49836 -1.24796 0
M  V30 1596 O 157.518 -0.701684 -1.82902 0
M  V30 1597 H 156.098 -0.74554 0.0466769 0
M  V30 1598 H 158.76 -1.76952 0.816955 0
M  V30 1599 H 157.856 -3.11935 0.101498 0
M  V30 1600 N 158.157 -0.370918 -1.53173 0
M  V30 1601 C 159.434 0.273754 -1.93675 0
M  V30 1602 C 159.814 1.65938 -1.3049 0
M  V30 1603 O 159.162 2.23698 -0.465999 0
M  V30 1604 C 159.372 0.318602 -3.47543 0
M  V30 1605 C 160.72 0.556392 -4.20939 0
M  V30 1606 O 161.744 0.399587 -3.53952 0
M  V30 1607 O 160.603 0.862133 -5.39657 0
M  V30 1608 H 157.697 0.165448 -0.810281 0
M  V30 1609 H 160.243 -0.42409 -1.64315 0
M  V30 1610 H 159.015 -0.652687 -3.85818 0
M  V30 1611 H 158.638 1.06212 -3.83151 0
M  V30 1612 N 159.635 1.57281 -0.100228 0
M  V30 1613 C 160.882 1.94537 0.562268 0
M  V30 1614 C 161.21 0.982315 1.67871 0
M  V30 1615 O 160.465 0.00280936 1.957 0
M  V30 1616 C 160.764 3.38305 1.15259 0
M  V30 1617 C 160.43 4.50618 0.159409 0
M  V30 1618 C 159.092 4.81066 -0.113741 0
M  V30 1619 C 161.444 5.18615 -0.518461 0
M  V30 1620 C 158.772 5.76835 -1.07137 0
M  V30 1621 C 161.124 6.15412 -1.46459 0
M  V30 1622 C 159.788 6.44262 -1.74592 0
M  V30 1623 H 159.058 0.711863 0.205748 0
M  V30 1624 H 161.705 1.90679 -0.17715 0
M  V30 1625 H 160.01 3.38766 1.96836 0
M  V30 1626 H 161.707 3.64435 1.67297 0
M  V30 1627 H 158.297 4.2689 0.382491 0
M  V30 1628 H 162.481 4.95264 -0.320581 0
M  V30 1629 H 157.737 5.975 -1.29628 0
M  V30 1630 H 161.911 6.67194 -1.99564 0
M  V30 1631 H 159.538 7.1828 -2.48953 0
M  V30 1632 N 161.113 -0.173488 1.56642 0
M  V30 1633 C 162.341 -0.906095 1.86004 0
M  V30 1634 C 162.756 -1.75921 0.685355 0
M  V30 1635 O 162.113 -1.79198 -0.345578 0
M  V30 1636 C 162.164 -1.78462 3.14378 0
M  V30 1637 O 161.885 -0.965914 4.27319 0
M  V30 1638 C 163.386 -2.62707 3.57071 0
M  V30 1639 H 160.606 -0.263341 0.617165 0
M  V30 1640 H 163.15 -0.174236 2.03756 0
M  V30 1641 H 161.305 -2.46984 2.98459 0
M  V30 1642 H 161.719 -1.56655 5.00559 0
M  V30 1643 H 163.193 -3.19969 4.49804 0
M  V30 1644 H 163.67 -3.37472 2.81086 0
M  V30 1645 H 164.276 -1.99521 3.75595 0
M  V30 1646 N 162.591 -1.51276 -0.441967 0
M  V30 1647 C 163.539 -1.72823 -1.55676 0
M  V30 1648 C 164.533 -0.59445 -1.58627 0
M  V30 1649 O 165.739 -0.775715 -1.62427 0
M  V30 1650 H 162.114 -0.545983 -0.517113 0
M  V30 1651 H 164.085 -2.6628 -1.34675 0
M  V30 1652 C 162.834 -1.86619 -2.93375 0
M  V30 1653 H 162.157 -2.73264 -2.91834 0
M  V30 1654 H 163.597 -2.05709 -3.70756 0
M  V30 1655 C 162.056 -0.624842 -3.31055 0
M  V30 1656 O 162.586 0.222636 -4.01083 0
M  V30 1657 N 160.792 -0.470288 -2.86769 0
M  V30 1658 H 160.339 -1.161 -2.29953 0
M  V30 1659 H 160.297 0.359051 -3.12343 0
M  V30 1660 N 164.069 0.697108 -1.41344 0
M  V30 1661 C 165.019 1.80313 -1.39539 0
M  V30 1662 C 166.003 1.58618 -0.270001 0
M  V30 1663 O 167.195 1.69477 -0.510551 0
M  V30 1664 C 164.324 3.18606 -1.27848 0
M  V30 1665 C 163.41 3.46001 -2.45244 0
M  V30 1666 N 163.801 3.44103 -3.70711 0
M  V30 1667 C 162.099 3.76542 -2.39023 0
M  V30 1668 C 162.8 3.7036 -4.48563 0
M  V30 1669 N 161.776 3.90027 -3.78655 0
M  V30 1670 H 165.578 1.77207 -2.34468 0
M  V30 1671 H 163.092 0.897031 -1.35378 0
M  V30 1672 H 165.089 3.97833 -1.24637 0
M  V30 1673 H 163.749 3.22925 -0.339032 0
M  V30 1674 H 164.76 3.2452 -4.03618 0
M  V30 1675 H 161.437 3.88241 -1.53542 0
M  V30 1676 H 162.827 3.75042 -5.57488 0
M  V30 1677 N 165.547 1.27147 0.931209 0
M  V30 1678 C 166.495 1.09398 2.05268 0
M  V30 1679 C 167.489 0.0180591 1.6939 0
M  V30 1680 O 168.695 0.17551 1.79142 0
M  V30 1681 H 165.07 0.336986 0.672268 0
M  V30 1682 H 167.041 2.04416 2.17386 0
M  V30 1683 C 165.79 0.75424 3.39421 0
M  V30 1684 H 165.113 1.57404 3.67511 0
M  V30 1685 H 166.553 0.669903 4.18674 0
M  V30 1686 C 165.012 -0.541197 3.32525 0
M  V30 1687 O 165.542 -1.57664 3.69466 0
M  V30 1688 N 163.748 -0.535517 2.85623 0
M  V30 1689 H 163.295 0.307511 2.55758 0
M  V30 1690 H 163.253 -1.40236 2.81392 0
M  V30 1691 N 167.025 -1.13721 1.09112 0
M  V30 1692 C 168.273 -1.84559 0.823562 0
M  V30 1693 C 168.594 -1.83754 -0.652658 0
M  V30 1694 O 167.864 -1.29102 -1.47342 0
M  V30 1695 H 166.444 -0.683376 0.301673 0
M  V30 1696 H 169.106 -1.37771 1.37859 0
M  V30 1697 H 168.202 -2.8917 1.17419 0
M  V30 1698 N 168.503 -0.877838 -1.30888 0
M  V30 1699 C 169.731 -0.507414 -2.00581 0
M  V30 1700 C 170.146 0.902216 -1.65848 0
M  V30 1701 O 169.503 1.59225 -0.891831 0
M  V30 1702 C 169.554 -0.664162 -3.55347 0
M  V30 1703 O 169.275 -2.01829 -3.8884 0
M  V30 1704 C 170.776 -0.295787 -4.42312 0
M  V30 1705 H 167.996 -0.196866 -0.641471 0
M  V30 1706 H 170.54 -1.18117 -1.66939 0
M  V30 1707 H 168.695 -0.0378619 -3.87381 0
M  V30 1708 H 169.109 -2.03174 -4.8355 0
M  V30 1709 H 170.583 -0.456388 -5.5011 0
M  V30 1710 H 171.06 0.765663 -4.32475 0
M  V30 1711 H 171.666 -0.898113 -4.15709 0
M  V30 1712 N 169.982 1.44106 -0.638065 0
M  V30 1713 C 171.23 2.01579 -0.145043 0
M  V30 1714 C 171.551 1.50496 1.24 0
M  V30 1715 O 170.821 0.711374 1.82527 0
M  V30 1716 H 169.401 0.745282 -0.05063 0
M  V30 1717 H 172.063 1.76516 -0.826327 0
M  V30 1718 H 171.159 3.11877 -0.118039 0
M  V30 1719 N 171.46 0.379036 1.52974 0
M  V30 1720 C 172.708 -0.206014 2.01047 0
M  V30 1721 C 173.029 -1.48175 1.26765 0
M  V30 1722 O 172.299 -1.92085 0.384743 0
M  V30 1723 H 170.879 -0.0791184 0.742798 0
M  V30 1724 H 173.541 0.508366 1.88153 0
M  V30 1725 H 172.637 -0.423501 3.09213 0
M  V30 1726 N 172.938 -1.57226 0.108567 0
M  V30 1727 C 173.885 -2.14756 -0.845481 0
M  V30 1728 C 174.855 -1.06971 -1.27068 0
M  V30 1729 O 176.04 -1.34827 -1.35005 0
M  V30 1730 C 173.18 -2.74298 -2.09415 0
M  V30 1731 C 172.293 -3.96358 -1.71826 0
M  V30 1732 C 171.428 -4.44021 -2.9158 0
M  V30 1733 C 170.467 -5.58637 -2.50181 0
M  V30 1734 N 169.604 -6.01091 -3.62814 0
M  V30 1735 H 174.444 -2.95961 -0.348035 0
M  V30 1736 H 171.981 -1.46226 -0.160106 0
M  V30 1737 H 173.939 -3.06945 -2.82561 0
M  V30 1738 H 172.569 -1.95801 -2.56636 0
M  V30 1739 H 171.621 -3.69939 -0.885947 0
M  V30 1740 H 172.933 -4.79504 -1.37394 0
M  V30 1741 H 172.087 -4.78522 -3.72963 0
M  V30 1742 H 170.826 -3.59803 -3.29231 0
M  V30 1743 H 169.831 -5.23751 -1.67228 0
M  V30 1744 H 171.056 -6.44613 -2.13659 0
M  V30 1745 H 169.002 -5.19817 -4.00158 0
M  V30 1746 H 168.919 -6.79066 -3.32273 0
M  V30 1747 H 170.187 -6.40227 -4.44668 0
M  V30 1748 N 174.416 0.165178 -1.56732 0
M  V30 1749 C 175.641 0.900253 -1.86843 0
M  V30 1750 C 176.066 1.74766 -0.695596 0
M  V30 1751 O 175.424 1.77786 0.35522 0
M  V30 1752 C 175.472 1.74777 -3.15413 0
M  V30 1753 O 174.576 2.85007 -2.98068 0
M  V30 1754 H 173.917 0.251832 -0.614391 0
M  V30 1755 H 176.447 0.161468 -2.03962 0
M  V30 1756 H 176.457 2.14646 -3.46974 0
M  V30 1757 H 175.132 1.12537 -4.00385 0
M  V30 1758 H 173.709 2.48676 -2.77875 0
M  V30 1759 N 175.894 1.51508 0.433938 0
M  V30 1760 C 177.143 1.63578 1.18005 0
M  V30 1761 C 177.456 0.359514 1.92268 0
M  V30 1762 O 178.662 0.359632 2.69108 0
M  V30 1763 C 177.118 2.88901 2.14626 0
M  V30 1764 C 176.726 4.23544 1.45995 0
M  V30 1765 C 178.47 3.10328 2.89649 0
M  V30 1766 C 176.377 5.40014 2.4112 0
M  V30 1767 H 175.307 0.609277 0.444182 0
M  V30 1768 H 177.958 1.77978 0.446773 0
M  V30 1769 H 176.34 2.68142 2.91403 0
M  V30 1770 H 177.514 4.54696 0.747532 0
M  V30 1771 H 175.829 4.08021 0.831115 0
M  V30 1772 H 178.426 3.94518 3.60915 0
M  V30 1773 H 178.769 2.23544 3.51189 0
M  V30 1774 H 179.302 3.31443 2.19978 0
M  V30 1775 H 176.041 6.29068 1.84264 0
M  V30 1776 H 175.561 5.13233 3.10406 0
M  V30 1777 H 177.24 5.72099 3.02177 0
M  V30 1778 N 177.372 -0.689602 1.41712 0
M  V30 1779 C 178.602 -1.47613 1.44548 0
M  V30 1780 C 179.01 -1.89132 0.0509034 0
M  V30 1781 O 178.353 -1.57741 -0.94146 0
M  V30 1782 C 178.415 -2.76596 2.2964 0
M  V30 1783 C 178.079 -2.57245 3.77722 0
M  V30 1784 C 179.076 -2.22804 4.69739 0
M  V30 1785 C 176.761 -2.727 4.2183 0
M  V30 1786 C 178.755 -2.04064 6.03851 0
M  V30 1787 C 176.442 -2.53576 5.56006 0
M  V30 1788 C 177.44 -2.1931 6.46832 0
M  V30 1789 O 177.128 -2.00359 7.78532 0
M  V30 1790 H 176.86 -0.461227 0.494212 0
M  V30 1791 H 179.414 -0.856045 1.86711 0
M  V30 1792 H 177.644 -3.41033 1.82301 0
M  V30 1793 H 179.333 -3.38424 2.24107 0
M  V30 1794 H 180.099 -2.10473 4.36951 0
M  V30 1795 H 175.978 -2.98353 3.51435 0
M  V30 1796 H 179.522 -1.77241 6.74708 0
M  V30 1797 H 175.419 -2.65499 5.88371 0
M  V30 1798 H 176.187 -2.15075 7.89737 0
M  V30 1799 N 178.85 -1.27639 -0.924453 0
M  V30 1800 C 180.098 -1.13941 -1.66918 0
M  V30 1801 C 180.419 0.314589 -1.92446 0
M  V30 1802 O 179.689 1.21964 -1.53303 0
M  V30 1803 H 178.269 -0.418678 -0.618642 0
M  V30 1804 H 180.931 -1.60213 -1.10985 0
M  V30 1805 H 180.027 -1.67094 -2.63602 0
M  V30 1806 N 180.328 1.1314 -1.09713 0
M  V30 1807 C 181.553 1.88862 -0.857081 0
M  V30 1808 C 181.978 1.78729 0.586304 0
M  V30 1809 O 181.336 1.13692 1.41222 0
M  V30 1810 C 181.384 3.36325 -1.30069 0
M  V30 1811 O 180.488 4.09815 -0.461007 0
M  V30 1812 H 179.829 0.587108 -0.310162 0
M  V30 1813 H 182.359 1.43129 -1.46203 0
M  V30 1814 H 182.369 3.87157 -1.28738 0
M  V30 1815 H 181.044 3.43017 -2.35185 0
M  V30 1816 H 179.621 3.68986 -0.538888 0
M  V30 1817 N 181.806 0.884767 1.30421 0
M  V30 1818 C 183.222 0.57874 1.48737 0
M  V30 1819 C 183.422 -0.883567 1.81095 0
M  V30 1820 O 182.478 -1.6648 1.89844 0
M  V30 1821 C 183.791 1.49171 2.61091 0
M  V30 1822 C 185.339 1.49532 2.74971 0
M  V30 1823 C 185.814 2.39421 3.90438 0
M  V30 1824 N 187.305 2.37383 3.97748 0
M  V30 1825 C 188.04 3.03647 4.86401 0
M  V30 1826 N 187.536 3.79136 5.79852 0
M  V30 1827 N 189.329 2.9288 4.79768 0
M  V30 1828 H 181.48 1.83075 1.0769 0
M  V30 1829 H 183.743 0.783637 0.533495 0
M  V30 1830 H 183.449 2.53291 2.44001 0
M  V30 1831 H 183.323 1.20113 3.57565 0
M  V30 1832 H 185.71 0.46163 2.91467 0
M  V30 1833 H 185.791 1.8262 1.79119 0
M  V30 1834 H 185.435 3.42874 3.74699 0
M  V30 1835 H 185.365 2.03649 4.85628 0
M  V30 1836 H 187.856 1.82525 3.30897 0
M  V30 1837 H 188.169 4.26789 6.4426 0
M  V30 1838 H 186.514 3.83243 5.79784 0
M  V30 1839 H 189.705 2.33433 4.05742 0
M  V30 1840 H 189.878 3.448 5.4865 0
M  V30 1841 N 183.284 -1.43765 0.645699 0
M  V30 1842 C 184.531 -2.01898 0.15604 0
M  V30 1843 C 184.859 -1.50887 -1.22733 0
M  V30 1844 O 184.114 -0.689271 -1.8316 0
M  V30 1845 C 184.413 -3.57238 0.107679 0
M  V30 1846 C 184.079 -4.27564 1.43178 0
M  V30 1847 C 182.741 -4.46492 1.7944 0
M  V30 1848 C 185.093 -4.67454 2.30513 0
M  V30 1849 C 182.421 -5.02573 3.02716 0
M  V30 1850 C 184.773 -5.24901 3.53074 0
M  V30 1851 C 183.437 -5.42046 3.89541 0
M  V30 1852 H 182.707 -0.738797 0.057099 0
M  V30 1853 H 185.354 -1.72341 0.834912 0
M  V30 1854 H 183.659 -3.86293 -0.654618 0
M  V30 1855 H 185.356 -3.99965 -0.287938 0
M  V30 1856 H 181.946 -4.13171 1.13963 0
M  V30 1857 H 186.13 -4.5253 2.0379 0
M  V30 1858 H 181.386 -5.14033 3.31028 0
M  V30 1859 H 185.56 -5.54758 4.20971 0
M  V30 1860 H 183.187 -5.85268 4.85145 0
M  V30 1861 N 184.763 -0.387143 -1.52771 0
M  V30 1862 C 186.174 0.0873634 -1.86495 0
M  V30 1863 C 186.525 1.46336 -1.30691 0
M  V30 1864 O 185.65 2.068 -0.637409 0
M  V30 1865 C 186.245 0.165305 -3.38396 0
M  V30 1866 C 184.804 0.584101 -3.7184 0
M  V30 1867 C 183.951 -0.255279 -2.76122 0
M  V30 1868 H 186.902 -0.605104 -1.46711 0
M  V30 1869 H 186.923 0.984848 -3.67534 0
M  V30 1870 H 186.435 -0.836301 -3.78982 0
M  V30 1871 H 184.536 1.59315 -3.36823 0
M  V30 1872 H 184.649 0.343749 -4.77865 0
M  V30 1873 H 183.013 0.279126 -2.53166 0
M  V30 1874 H 183.796 -1.25482 -3.19545 0
M  V30 1875 N 186.241 1.57166 -0.116904 0
M  V30 1876 C 187.518 1.86645 0.585049 0
M  V30 1877 C 187.898 1.0177 1.84949 0
M  V30 1878 O 187.246 0.0960379 2.28298 0
M  V30 1879 C 187.456 3.37736 0.879507 0
M  V30 1880 C 188.804 4.06289 1.23348 0
M  V30 1881 O 189.828 3.42743 0.969836 0
M  V30 1882 O 188.687 5.18455 1.7282 0
M  V30 1883 H 185.781 0.772593 0.295007 0
M  V30 1884 H 188.327 1.69025 -0.151249 0
M  V30 1885 H 187.099 3.91296 -0.0166136 0
M  V30 1886 H 186.722 3.6078 1.67103 0
M  V30 1887 N 187.719 -0.156864 1.56817 0
M  V30 1888 C 188.629 -1.2136 2.00771 0
M  V30 1889 C 189.645 -1.47598 0.921459 0
M  V30 1890 O 190.821 -1.59462 1.2302 0
M  V30 1891 C 187.886 -2.52943 2.37109 0
M  V30 1892 C 186.947 -2.34439 3.59634 0
M  V30 1893 C 186.18 -3.59748 3.94229 0
M  V30 1894 O 186.403 -4.65526 3.29609 0
M  V30 1895 O 185.337 -3.52998 4.8752 0
M  V30 1896 H 189.163 -0.870468 2.90958 0
M  V30 1897 H 186.748 -0.36484 1.44877 0
M  V30 1898 H 188.63 -3.30538 2.61386 0
M  V30 1899 H 187.305 -2.86806 1.5008 0
M  V30 1900 H 186.212 -1.54828 3.40557 0
M  V30 1901 H 187.545 -2.05496 4.4725 0
M  V30 1902 N 189.197 -1.51736 -0.425897 0
M  V30 1903 C 190.145 -1.74464 -1.53834 0
M  V30 1904 C 191.139 -0.611241 -1.57988 0
M  V30 1905 O 192.345 -0.792899 -1.61596 0
M  V30 1906 H 188.72 -0.551437 -0.511293 0
M  V30 1907 H 190.691 -2.67694 -1.31843 0
M  V30 1908 C 189.44 -1.8972 -2.91379 0
M  V30 1909 H 188.763 -2.76344 -2.88919 0
M  V30 1910 H 190.203 -2.09629 -3.68553 0
M  V30 1911 C 188.662 -0.65992 -3.30374 0
M  V30 1912 O 189.192 0.180083 -4.01296 0
M  V30 1913 N 187.398 -0.500677 -2.86254 0
M  V30 1914 H 186.945 -1.18532 -2.28709 0
M  V30 1915 H 186.903 0.325903 -3.12706 0
M  V30 1916 N 190.675 0.682077 -1.42076 0
M  V30 1917 C 191.922 1.44215 -1.42156 0
M  V30 1918 C 192.25 1.94468 -0.0354186 0
M  V30 1919 O 191.505 1.70816 0.955002 0
M  V30 1920 C 191.804 2.66036 -2.38662 0
M  V30 1921 C 191.47 2.34366 -3.85206 0
M  V30 1922 C 190.132 2.25439 -4.25124 0
M  V30 1923 C 192.484 2.08513 -4.77673 0
M  V30 1924 C 189.812 1.88775 -5.55501 0
M  V30 1925 C 192.164 1.73354 -6.08384 0
M  V30 1926 C 190.828 1.62933 -6.47309 0
M  V30 1927 H 190.098 0.527718 -0.520187 0
M  V30 1928 H 192.745 0.778387 -1.74967 0
M  V30 1929 H 191.05 3.3741 -1.99152 0
M  V30 1930 H 192.747 3.24205 -2.35991 0
M  V30 1931 H 189.337 2.42213 -3.53597 0
M  V30 1932 H 193.521 2.14346 -4.47626 0
M  V30 1933 H 188.777 1.7927 -5.84527 0
M  V30 1934 H 192.951 1.52373 -6.79526 0
M  V30 1935 H 190.578 1.34292 -7.48244 0
M  V30 1936 N 192.153 1.28127 0.917671 0
M  V30 1937 C 193.381 1.17892 1.70026 0
M  V30 1938 C 193.796 -0.262958 1.8696 0
M  V30 1939 O 193.153 -1.17811 1.3938 0
M  V30 1940 C 193.204 1.86872 3.09453 0
M  V30 1941 O 192.925 3.25428 2.93306 0
M  V30 1942 C 194.426 1.8289 4.03815 0
M  V30 1943 H 191.646 0.40942 0.531617 0
M  V30 1944 H 194.19 1.69181 1.14883 0
M  V30 1945 H 192.345 1.39464 3.61426 0
M  V30 1946 H 192.759 3.59918 3.81523 0
M  V30 1947 H 194.233 2.35751 4.99125 0
M  V30 1948 H 194.71 0.800412 4.31845 0
M  V30 1949 H 195.316 2.29959 3.57769 0
M  V30 1950 N 193.631 -1.12557 1.10312 0
M  V30 1951 C 194.561 -2.20341 0.772798 0
M  V30 1952 C 195.542 -1.68198 -0.25365 0
M  V30 1953 O 196.727 -1.93831 -0.119699 0
M  V30 1954 C 193.857 -3.46709 0.202443 0
M  V30 1955 C 192.811 -4.11996 1.15943 0
M  V30 1956 C 192.137 -5.328 0.450345 0
M  V30 1957 C 193.437 -4.5828 2.50552 0
M  V30 1958 H 195.131 -2.48229 1.674 0
M  V30 1959 H 192.677 -1.19308 0.806326 0
M  V30 1960 H 194.63 -4.2138 -0.0407752 0
M  V30 1961 H 193.354 -3.18245 -0.734001 0
M  V30 1962 H 192.013 -3.39305 1.38808 0
M  V30 1963 H 191.661 -5.00602 -0.490531 0
M  V30 1964 H 191.361 -5.7743 1.08851 0
M  V30 1965 H 192.885 -6.10219 0.215642 0
M  V30 1966 H 194.299 -5.2433 2.31843 0
M  V30 1967 H 192.696 -5.13683 3.10242 0
M  V30 1968 H 193.766 -3.72329 3.10643 0
M  V30 1969 N 195.109 -0.891671 -1.2995 0
M  V30 1970 C 196.056 -0.361736 -2.27948 0
M  V30 1971 C 197.026 0.551761 -1.56668 0
M  V30 1972 O 198.211 0.478736 -1.84696 0
M  V30 1973 C 195.351 0.411825 -3.42634 0
M  V30 1974 C 194.464 -0.531651 -4.28716 0
M  V30 1975 C 193.599 0.258167 -5.30572 0
M  V30 1976 C 192.638 -0.680349 -6.08307 0
M  V30 1977 N 191.775 0.0745613 -7.0206 0
M  V30 1978 H 196.615 -1.20254 -2.72659 0
M  V30 1979 H 194.152 -0.604352 -1.34112 0
M  V30 1980 H 196.11 0.876304 -4.07893 0
M  V30 1981 H 194.74 1.21715 -2.98974 0
M  V30 1982 H 193.792 -1.11463 -3.63703 0
M  V30 1983 H 195.104 -1.25038 -4.82874 0
M  V30 1984 H 194.258 0.784204 -6.0161 0
M  V30 1985 H 192.997 1.01008 -4.77126 0
M  V30 1986 H 192.002 -1.21796 -5.3614 0
M  V30 1987 H 193.227 -1.43145 -6.63842 0
M  V30 1988 H 191.173 0.808883 -6.50994 0
M  V30 1989 H 191.09 -0.584409 -7.53738 0
M  V30 1990 H 192.358 0.581123 -7.77331 0
M  V30 1991 N 196.587 1.43421 -0.653314 0
M  V30 1992 C 197.537 2.2792 0.060558 0
M  V30 1993 C 198.521 1.39906 0.794677 0
M  V30 1994 O 199.713 1.63536 0.677128 0
M  V30 1995 C 196.842 3.27603 1.0262 0
M  V30 1996 C 195.928 4.23104 0.290551 0
M  V30 1997 N 196.319 5.01031 -0.692967 0
M  V30 1998 C 194.617 4.42816 0.531984 0
M  V30 1999 C 195.318 5.70626 -1.12963 0
M  V30 2000 N 194.294 5.41617 -0.463867 0
M  V30 2001 H 198.096 2.85585 -0.694143 0
M  V30 2002 H 195.61 1.55126 -0.480602 0
M  V30 2003 H 197.607 3.86918 1.55242 0
M  V30 2004 H 196.267 2.71499 1.78096 0
M  V30 2005 H 197.278 5.0669 -1.07169 0
M  V30 2006 H 193.955 3.97782 1.26791 0
M  V30 2007 H 195.345 6.4318 -1.94343 0
M  V30 2008 N 198.065 0.39524 1.52563 0
M  V30 2009 C 199.311 -0.185318 2.01952 0
M  V30 2010 C 199.644 -1.45964 1.28095 0
M  V30 2011 O 198.919 -1.90689 0.38315 0
M  V30 2012 C 199.202 -0.447193 3.57312 0
M  V30 2013 C 199.055 0.842828 4.41833 0
M  V30 2014 C 200.374 -1.23529 4.22408 0
M  V30 2015 H 197.493 -0.0658788 0.73405 0
M  V30 2016 H 200.135 0.525975 1.82575 0
M  V30 2017 H 198.285 -1.05312 3.73954 0
M  V30 2018 H 199.957 1.4795 4.36931 0
M  V30 2019 H 198.2 1.45686 4.08605 0
M  V30 2020 H 198.871 0.614165 5.48573 0
M  V30 2021 H 201.347 -0.722445 4.0978 0
M  V30 2022 H 200.223 -1.38727 5.3108 0
M  V30 2023 H 200.484 -2.25213 3.80436 0
M  V30 2024 N 199.544 -1.57102 0.125237 0
M  V30 2025 C 200.792 -1.95021 -0.530198 0
M  V30 2026 C 201.113 -1.00982 -1.66816 0
M  V30 2027 O 200.383 -0.0672693 -1.95784 0
M  V30 2028 H 198.963 -0.720046 -0.198853 0
M  V30 2029 H 201.625 -1.93916 0.19564 0
M  V30 2030 H 200.721 -2.98211 -0.920681 0
M  V30 2031 N 201.022 0.148545 -1.56898 0
M  V30 2032 C 202.433 0.708766 -1.72723 0
M  V30 2033 C 202.784 1.81734 -0.739395 0
M  V30 2034 O 201.909 2.16194 0.0943169 0
M  V30 2035 C 202.504 1.29245 -3.13179 0
M  V30 2036 C 201.063 1.79925 -3.30611 0
M  V30 2037 C 200.21 0.687111 -2.68652 0
M  V30 2038 H 203.161 -0.0771063 -1.58513 0
M  V30 2039 H 203.182 2.16224 -3.13093 0
M  V30 2040 H 202.694 0.485382 -3.85053 0
M  V30 2041 H 200.795 2.63203 -2.63732 0
M  V30 2042 H 200.908 1.92903 -4.38549 0
M  V30 2043 H 199.272 1.11335 -2.29078 0
M  V30 2044 H 200.055 -0.108483 -3.43129 0
M  V30 2045 N 202.5 1.5196 0.417844 0
M  V30 2046 C 203.748 1.65263 1.16329 0
M  V30 2047 C 204.069 0.380634 1.91249 0
M  V30 2048 O 203.339 -0.604214 1.86349 0
M  V30 2049 H 201.919 0.60912 0.432414 0
M  V30 2050 H 204.581 1.88969 0.477162 0
M  V30 2051 H 203.677 2.4896 1.88217 0
M  V30 2052 N 203.978 -0.674533 1.42435 0
M  V30 2053 C 205.224 -1.43671 1.43131 0
M  V30 2054 C 205.557 -1.94142 0.0476021 0
M  V30 2055 O 204.832 -1.70924 -0.928188 0
M  V30 2056 C 205.115 -2.63355 2.45594 0
M  V30 2057 C 204.968 -2.18514 3.93156 0
M  V30 2058 C 206.287 -3.65571 2.45043 0
M  V30 2059 H 203.406 -0.521077 0.521198 0
M  V30 2060 H 206.048 -0.766551 1.7385 0
M  V30 2061 H 204.198 -3.2053 2.19528 0
M  V30 2062 H 205.87 -1.66504 4.30202 0
M  V30 2063 H 204.113 -1.50086 4.07009 0
M  V30 2064 H 204.784 -3.04484 4.60428 0
M  V30 2065 H 207.26 -3.18113 2.68223 0
M  V30 2066 H 206.136 -4.46893 3.18713 0
M  V30 2067 H 206.397 -4.16716 1.47649 0
M  V30 2068 N 205.456 -1.28612 -0.910864 0
M  V30 2069 C 206.386 -1.15326 -2.03032 0
M  V30 2070 C 207.367 -0.0502924 -1.70026 0
M  V30 2071 O 208.552 -0.227797 -1.92859 0
M  V30 2072 C 205.682 -0.817343 -3.37545 0
M  V30 2073 C 204.636 -1.8754 -3.84724 0
M  V30 2074 C 203.962 -1.39305 -5.16235 0
M  V30 2075 C 205.262 -3.28244 -4.06267 0
M  V30 2076 H 206.956 -2.08975 -2.14406 0
M  V30 2077 H 204.502 -1.00612 -1.03021 0
M  V30 2078 H 206.455 -0.711151 -4.15356 0
M  V30 2079 H 205.179 0.154846 -3.26233 0
M  V30 2080 H 203.838 -1.97079 -3.09121 0
M  V30 2081 H 203.486 -0.409846 -5.01328 0
M  V30 2082 H 203.186 -2.10057 -5.48771 0
M  V30 2083 H 204.71 -1.30014 -5.96598 0
M  V30 2084 H 206.124 -3.21611 -4.74594 0
M  V30 2085 H 204.521 -3.96855 -4.5014 0
M  V30 2086 H 205.591 -3.72048 -3.10979 0
M  V30 2087 N 206.934 1.1197 -1.10907 0
M  V30 2088 C 208.159 1.87942 -0.877064 0
M  V30 2089 C 208.584 1.79341 0.567314 0
M  V30 2090 O 207.942 1.15184 1.40009 0
M  V30 2091 C 207.99 3.34926 -1.33629 0
M  V30 2092 O 207.094 4.09303 -0.504447 0
M  V30 2093 H 206.435 0.583785 -0.316371 0
M  V30 2094 H 208.965 1.4157 -1.47712 0
M  V30 2095 H 208.975 3.8577 -1.32837 0
M  V30 2096 H 207.65 3.40504 -2.3881 0
M  V30 2097 H 206.227 3.68393 -0.577993 0
M  V30 2098 N 208.412 0.89855 1.29475 0
M  V30 2099 C 209.345 0.319981 2.25945 0
M  V30 2100 C 210.323 -0.567189 1.52387 0
M  V30 2101 O 211.507 -0.514254 1.8135 0
M  V30 2102 C 208.634 -0.544013 3.34303 0
M  V30 2103 C 207.68 0.275682 4.25608 0
M  V30 2104 S 208.513 1.67272 5.08704 0
M  V30 2105 C 209.669 0.815621 6.20563 0
M  V30 2106 H 209.902 1.13767 2.74671 0
M  V30 2107 H 207.435 0.69882 1.3768 0
M  V30 2108 H 209.393 -1.03673 3.97193 0
M  V30 2109 H 208.054 -1.33593 2.84274 0
M  V30 2110 H 207.247 -0.384263 5.02533 0
M  V30 2111 H 206.849 0.701496 3.67362 0
M  V30 2112 H 209.141 0.0385042 6.77489 0
M  V30 2113 H 210.084 1.55691 6.90772 0
M  V30 2114 H 210.492 0.370516 5.63283 0
M  V30 2115 N 209.89 -1.43072 0.660911 0
M  V30 2116 C 210.853 -2.29194 -0.0166406 0
M  V30 2117 C 211.853 -1.42609 -0.742912 0
M  V30 2118 O 213.043 -1.64155 -0.583004 0
M  V30 2119 C 210.175 -3.24831 -1.0343 0
M  V30 2120 H 211.368 -2.90596 0.741208 0
M  V30 2121 H 208.921 -1.5048 0.422532 0
M  V30 2122 H 209.656 -2.68339 -1.82111 0
M  V30 2123 H 209.441 -3.88676 -0.517082 0
M  V30 2124 H 210.931 -3.89451 -1.50723 0
M  V30 2125 N 211.368 -0.403325 -1.52352 0
M  V30 2126 C 212.316 0.439752 -2.28405 0
M  V30 2127 C 213.31 1.05089 -1.32863 0
M  V30 2128 O 214.516 0.989759 -1.50345 0
M  V30 2129 H 210.891 0.160587 -0.734653 0
M  V30 2130 H 212.862 -0.222983 -2.97566 0
M  V30 2131 C 211.611 1.54736 -3.11371 0
M  V30 2132 H 210.934 1.08643 -3.84755 0
M  V30 2133 H 212.374 2.1112 -3.67701 0
M  V30 2134 C 210.833 2.51141 -2.24566 0
M  V30 2135 O 211.363 3.54887 -1.88196 0
M  V30 2136 N 209.569 2.21213 -1.8845 0
M  V30 2137 H 209.116 1.36878 -2.18225 0
M  V30 2138 H 209.074 2.85963 -1.30662 0
M  V30 2139 N 212.846 1.57033 -0.133567 0
M  V30 2140 C 213.809 2.14897 0.796995 0
M  V30 2141 C 214.809 1.0874 1.18458 0
M  V30 2142 O 215.999 1.34446 1.1077 0
M  V30 2143 C 213.131 2.70112 2.07973 0
M  V30 2144 H 214.324 2.98457 0.293873 0
M  V30 2145 H 211.877 1.55871 0.115787 0
M  V30 2146 H 212.612 1.9018 2.62682 0
M  V30 2147 H 212.397 3.47764 1.81115 0
M  V30 2148 H 213.887 3.14738 2.74462 0
M  V30 2149 N 214.325 -0.140222 1.56975 0
M  V30 2150 C 215.573 -0.850005 1.83356 0
M  V30 2151 C 215.894 -1.81399 0.71551 0
M  V30 2152 O 215.164 -1.94136 -0.262294 0
M  V30 2153 H 213.744 -0.316886 0.676456 0
M  V30 2154 H 216.406 -0.132608 1.94448 0
M  V30 2155 H 215.502 -1.40814 2.78528 0
M  V30 2156 N 215.803 -1.52179 -0.40978 0
M  V30 2157 C 217.214 -1.58377 -0.988615 0
M  V30 2158 C 217.565 -0.423879 -1.91566 0
M  V30 2159 O 216.69 0.455844 -2.11544 0
M  V30 2160 C 217.285 -2.87044 -1.79976 0
M  V30 2161 C 215.844 -2.95722 -2.32863 0
M  V30 2162 C 214.991 -2.53309 -1.12828 0
M  V30 2163 H 217.942 -1.57558 -0.190039 0
M  V30 2164 H 217.963 -2.7236 -2.65707 0
M  V30 2165 H 217.475 -3.71444 -1.12478 0
M  V30 2166 H 215.576 -2.15814 -3.03735 0
M  V30 2167 H 215.689 -3.99951 -2.63773 0
M  V30 2168 H 214.053 -2.07142 -1.48204 0
M  V30 2169 H 214.836 -3.40082 -0.46897 0
M  V30 2170 N 217.281 0.66697 -1.42791 0
M  V30 2171 C 218.229 1.80157 -1.47127 0
M  V30 2172 C 219.223 1.65825 -0.346199 0
M  V30 2173 O 220.429 1.72338 -0.519572 0
M  V30 2174 H 216.804 0.594158 -0.460956 0
M  V30 2175 H 218.775 1.73619 -2.42692 0
M  V30 2176 C 217.524 3.18351 -1.39813 0
M  V30 2177 H 216.847 3.3001 -2.25684 0
M  V30 2178 H 218.287 3.97736 -1.46908 0
M  V30 2179 C 216.746 3.36707 -0.11391 0
M  V30 2180 O 217.276 3.93027 0.830241 0
M  V30 2181 N 215.482 2.90586 -0.0285295 0
M  V30 2182 H 215.029 2.4494 -0.79764 0
M  V30 2183 H 214.987 3.03245 0.830063 0
M  V30 2184 N 218.759 1.29093 0.90403 0
M  V30 2185 C 219.987 1.19689 1.68766 0
M  V30 2186 C 220.402 -0.243113 1.87228 0
M  V30 2187 O 219.759 -1.16326 1.40621 0
M  V30 2188 C 219.81 1.90144 3.07453 0
M  V30 2189 O 219.531 3.2852 2.89838 0
M  V30 2190 C 221.032 1.87162 4.01852 0
M  V30 2191 H 218.252 0.415035 0.527244 0
M  V30 2192 H 220.796 1.7039 1.13082 0
M  V30 2193 H 218.951 1.43289 3.59926 0
M  V30 2194 H 219.365 3.63944 3.77684 0
M  V30 2195 H 220.839 2.41032 4.96596 0
M  V30 2196 H 221.316 0.84617 4.30972 0
M  V30 2197 H 221.922 2.33741 3.5531 0
M  V30 2198 N 220.237 -1.11381 1.11499 0
M  V30 2199 C 221.185 -2.19522 0.768956 0
M  V30 2200 C 222.179 -1.67693 -0.239857 0
M  V30 2201 O 223.385 -1.79727 -0.0990755 0
M  V30 2202 H 219.76 -0.715711 0.230786 0
M  V30 2203 H 221.731 -2.45954 1.68964 0
M  V30 2204 C 220.48 -3.46945 0.229073 0
M  V30 2205 H 219.803 -3.8718 0.996596 0
M  V30 2206 H 221.243 -4.23993 0.0251441 0
M  V30 2207 C 219.702 -3.2042 -1.04079 0
M  V30 2208 O 220.232 -3.41178 -2.12038 0
M  V30 2209 N 218.438 -2.74151 -0.963823 0
M  V30 2210 H 217.985 -2.57459 -0.0851722 0
M  V30 2211 H 217.943 -2.56781 -1.81414 0
M  V30 2212 N 221.715 -0.905404 -1.28997 0
M  V30 2213 C 222.963 -0.533192 -1.9494 0
M  V30 2214 C 223.284 0.924618 -1.71685 0
M  V30 2215 O 222.554 1.65268 -1.05183 0
M  V30 2216 H 221.134 -0.194194 -0.721317 0
M  V30 2217 H 223.796 -1.15294 -1.57141 0
M  V30 2218 H 222.892 -0.72059 -3.03667 0
M  V30 2219 N 223.193 1.4272 -0.668489 0
M  V30 2220 C 224.418 2.06484 -0.194758 0
M  V30 2221 C 224.843 1.49862 1.13679 0
M  V30 2222 O 224.201 0.614582 1.70565 0
M  V30 2223 C 224.249 3.60353 -0.133546 0
M  V30 2224 O 223.353 4.02464 0.899806 0
M  V30 2225 H 222.694 0.656137 -0.10188 0
M  V30 2226 H 225.224 1.82964 -0.915722 0
M  V30 2227 H 225.234 4.07976 0.0447041 0
M  V30 2228 H 223.909 4.00938 -1.1055 0
M  V30 2229 H 222.486 3.66402 0.693109 0
M  V30 2230 N 224.671 0.411399 1.52136 0
M  V30 2231 C 225.603 -0.448386 2.24771 0
M  V30 2232 C 226.616 -1.00828 1.27818 0
M  V30 2233 O 227.805 -0.906841 1.53749 0
M  V30 2234 C 224.905 -1.63636 2.96777 0
M  V30 2235 C 224.078 -1.19995 4.20618 0
M  V30 2236 C 223.137 -2.25509 4.75428 0
M  V30 2237 O 222.163 -1.86007 5.3795 0
M  V30 2238 N 223.365 -3.577 4.57199 0
M  V30 2239 H 226.13 0.174025 2.99194 0
M  V30 2240 H 223.691 0.238897 1.60128 0
M  V30 2241 H 225.683 -2.33793 3.30338 0
M  V30 2242 H 224.253 -2.16465 2.25526 0
M  V30 2243 H 223.473 -0.326421 3.92846 0
M  V30 2244 H 224.761 -0.885365 5.01038 0
M  V30 2245 H 224.159 -3.92543 4.07341 0
M  V30 2246 H 222.716 -4.23827 4.95191 0
M  V30 2247 N 226.149 -1.5696 0.141893 0
M  V30 2248 C 227.396 -1.9596 -0.510492 0
M  V30 2249 C 227.724 -1.02648 -1.65208 0
M  V30 2250 O 226.979 -0.0546947 -1.95624 0
M  V30 2251 C 227.278 -3.41242 -1.06249 0
M  V30 2252 C 226.944 -4.50882 -0.0398791 0
M  V30 2253 C 225.606 -4.80595 0.241247 0
M  V30 2254 C 227.958 -5.17058 0.65578 0
M  V30 2255 C 225.286 -5.73792 1.22393 0
M  V30 2256 C 227.638 -6.11313 1.62724 0
M  V30 2257 C 226.302 -6.39407 1.91612 0
M  V30 2258 H 225.572 -0.717068 -0.186802 0
M  V30 2259 H 228.219 -1.90142 0.227643 0
M  V30 2260 H 226.524 -3.43866 -1.87785 0
M  V30 2261 H 228.221 -3.68742 -1.57576 0
M  V30 2262 H 224.811 -4.27754 -0.269174 0
M  V30 2263 H 228.995 -4.94239 0.451779 0
M  V30 2264 H 224.251 -5.93853 1.45424 0
M  V30 2265 H 228.425 -6.61668 2.17183 0
M  V30 2266 H 226.052 -7.11427 2.6791 0
M  V30 2267 N 227.627 0.131896 -1.57047 0
M  V30 2268 C 228.874 0.841932 -1.84168 0
M  V30 2269 C 229.202 1.8048 -0.725066 0
M  V30 2270 O 228.457 1.93618 0.284692 0
M  V30 2271 C 228.756 1.63703 -3.17704 0
M  V30 2272 C 228.422 0.81961 -4.43388 0
M  V30 2273 C 227.084 0.594148 -4.77518 0
M  V30 2274 C 229.436 0.248977 -5.20605 0
M  V30 2275 C 226.764 -0.212409 -5.86315 0
M  V30 2276 C 229.116 -0.544701 -6.30251 0
M  V30 2277 C 227.78 -0.780599 -6.6292 0
M  V30 2278 H 227.05 0.308085 -0.673917 0
M  V30 2279 H 229.697 0.104867 -1.91213 0
M  V30 2280 H 228.002 2.44464 -3.06177 0
M  V30 2281 H 229.699 2.19015 -3.35907 0
M  V30 2282 H 226.289 1.00542 -4.16641 0
M  V30 2283 H 230.473 0.410408 -4.946 0
M  V30 2284 H 225.729 -0.404524 -6.1006 0
M  V30 2285 H 229.903 -0.993922 -6.89271 0
M  V30 2286 H 227.53 -1.40742 -7.47058 0
M  V30 2287 N 229.106 1.52395 0.401703 0
M  V30 2288 C 230.355 1.66044 1.14509 0
M  V30 2289 C 230.668 0.400216 1.91462 0
M  V30 2290 O 231.874 0.416632 2.68284 0
M  V30 2291 C 230.33 2.93388 2.0845 0
M  V30 2292 C 229.938 4.26545 1.36978 0
M  V30 2293 C 231.682 3.16402 2.83001 0
M  V30 2294 C 229.589 5.45007 2.29611 0
M  V30 2295 H 228.519 0.618562 0.431158 0
M  V30 2296 H 231.17 1.78886 0.40892 0
M  V30 2297 H 229.552 2.74263 2.8565 0
M  V30 2298 H 230.726 4.56179 0.650916 0
M  V30 2299 H 229.041 4.09692 0.74438 0
M  V30 2300 H 231.638 4.02085 3.52465 0
M  V30 2301 H 231.981 2.30943 3.46368 0
M  V30 2302 H 232.514 3.36034 2.12898 0
M  V30 2303 H 229.253 6.32835 1.70879 0
M  V30 2304 H 228.773 5.19702 2.9945 0
M  V30 2305 H 230.452 5.7838 2.89974 0
M  V30 2306 N 230.584 -0.659388 1.43143 0
M  V30 2307 C 231.824 -1.43121 1.45931 0
M  V30 2308 C 232.188 -1.91838 0.0789298 0
M  V30 2309 O 233.389 -2.68794 -0.018491 0
M  V30 2310 C 231.66 -2.58534 2.46769 0
M  V30 2311 S 233.219 -3.47154 2.68384 0
M  V30 2312 H 230.037 -0.488624 0.516496 0
M  V30 2313 H 232.639 -0.766128 1.79863 0
M  V30 2314 H 231.343 -2.21007 3.45809 0
M  V30 2315 H 230.874 -3.29898 2.14315 0
M  V30 2316 H 232.889 -4.55051 1.97845 0
M  V30 2317 N 232.062 -1.29571 -0.897171 0
M  V30 2318 C 233.29 -1.20583 -1.68129 0
M  V30 2319 C 233.705 0.233181 -1.87354 0
M  V30 2320 O 233.062 1.15579 -1.41236 0
M  V30 2321 C 233.113 -1.91772 -3.06441 0
M  V30 2322 O 232.834 -3.30053 -2.88091 0
M  V30 2323 C 234.335 -1.89291 -4.00854 0
M  V30 2324 H 231.555 -0.417826 -0.525036 0
M  V30 2325 H 234.099 -1.70987 -1.12177 0
M  V30 2326 H 232.254 -1.45196 -3.59161 0
M  V30 2327 H 232.668 -3.65942 -3.75748 0
M  V30 2328 H 234.142 -2.43662 -4.95311 0
M  V30 2329 H 234.619 -0.869014 -4.30517 0
M  V30 2330 H 235.225 -2.35622 -3.54066 0
M  V30 2331 N 233.54 1.10788 -1.12088 0
M  V30 2332 C 234.789 1.82036 -0.868659 0
M  V30 2333 C 235.102 1.85929 0.607426 0
M  V30 2334 O 236.308 2.53346 0.97613 0
M  V30 2335 C 234.764 3.26951 -1.50435 0
M  V30 2336 C 234.372 3.31367 -3.01496 0
M  V30 2337 C 236.116 4.03053 -1.33225 0
M  V30 2338 C 234.023 4.7072 -3.58017 0
M  V30 2339 H 232.953 0.682108 -0.321318 0
M  V30 2340 H 235.604 1.24618 -1.34694 0
M  V30 2341 H 233.986 3.84343 -0.953735 0
M  V30 2342 H 235.16 2.83819 -3.6302 0
M  V30 2343 H 233.475 2.6875 -3.18061 0
M  V30 2344 H 236.072 5.05981 -1.72878 0
M  V30 2345 H 236.415 4.15387 -0.275529 0
M  V30 2346 H 236.948 3.52066 -1.85188 0
M  V30 2347 H 233.687 4.63585 -4.63432 0
M  V30 2348 H 233.207 5.1865 -3.01268 0
M  V30 2349 H 234.886 5.39685 -3.56859 0
M  V30 2350 N 235.018 0.912232 1.28515 0
M  V30 2351 C 235.965 0.397954 2.27343 0
M  V30 2352 C 236.935 -0.526766 1.57526 0
M  V30 2353 O 238.12 -0.449292 1.85435 0
M  V30 2354 C 235.26 -0.357263 3.43246 0
M  V30 2355 C 234.373 0.599788 4.27816 0
M  V30 2356 C 233.508 -0.173725 5.30916 0
M  V30 2357 C 232.547 0.777039 6.07148 0
M  V30 2358 N 231.684 0.0371398 7.0209 0
M  V30 2359 H 236.524 1.24577 2.70711 0
M  V30 2360 H 234.061 0.625612 1.33133 0
M  V30 2361 H 236.019 -0.8113 4.09236 0
M  V30 2362 H 234.649 -1.16943 3.00872 0
M  V30 2363 H 233.701 1.17235 3.61884 0
M  V30 2364 H 235.013 1.32704 4.80823 0
M  V30 2365 H 234.167 -0.688394 6.02782 0
M  V30 2366 H 232.906 -0.934041 4.78672 0
M  V30 2367 H 231.911 1.3031 5.34134 0
M  V30 2368 H 233.136 1.53689 6.61481 0
M  V30 2369 H 231.082 -0.705213 6.52198 0
M  V30 2370 H 230.999 0.704249 7.52713 0
M  V30 2371 H 232.267 -0.457383 7.78157 0
M  V30 2372 N 236.496 -1.42363 0.676048 0
M  V30 2373 C 237.724 -2.05859 0.207268 0
M  V30 2374 C 238.139 -1.50796 -1.13605 0
M  V30 2375 O 237.496 -0.648265 -1.70598 0
M  V30 2376 C 237.547 -3.61248 0.134975 0
M  V30 2377 O 237.268 -4.1427 1.42521 0
M  V30 2378 C 238.769 -4.41859 -0.357151 0
M  V30 2379 H 235.989 -0.663431 0.100503 0
M  V30 2380 H 238.533 -1.82479 0.923136 0
M  V30 2381 H 236.688 -3.83735 -0.531588 0
M  V30 2382 H 237.102 -5.0815 1.29939 0
M  V30 2383 H 238.576 -5.50847 -0.356641 0
M  V30 2384 H 239.053 -4.16536 -1.39264 0
M  V30 2385 H 239.659 -4.24392 0.27772 0
M  V30 2386 N 237.974 -0.419461 -1.51915 0
M  V30 2387 C 239.251 0.211999 -1.94448 0
M  V30 2388 C 239.631 1.61703 -1.35703 0
M  V30 2389 O 238.979 2.22102 -0.536931 0
M  V30 2390 C 239.189 0.207872 -3.4838 0
M  V30 2391 C 240.537 0.422192 -4.22496 0
M  V30 2392 O 241.561 0.286778 -3.55044 0
M  V30 2393 O 240.42 0.690009 -5.42126 0
M  V30 2394 H 237.514 0.139586 -0.815135 0
M  V30 2395 H 240.06 -0.476151 -1.62883 0
M  V30 2396 H 238.832 -0.775102 -3.83546 0
M  V30 2397 H 238.455 0.939688 -3.86336 0
M  V30 2398 N 239.452 1.56882 -0.150215 0
M  V30 2399 C 240.698 1.97299 0.494427 0
M  V30 2400 C 241.053 1.0338 1.62266 0
M  V30 2401 O 240.346 0.0694497 1.91474 0
M  V30 2402 C 240.54 3.41801 1.04437 0
M  V30 2403 C 240.369 4.49691 -0.0290451 0
M  V30 2404 C 239.139 5.03095 -0.47156 0
M  V30 2405 C 241.337 5.07693 -0.821703 0
M  V30 2406 N 239.319 5.94593 -1.52749 0
M  V30 2407 C 240.69 5.95431 -1.72805 0
M  V30 2408 C 242.745 4.90256 -0.869134 0
M  V30 2409 C 241.448 6.67599 -2.67777 0
M  V30 2410 C 243.474 5.63127 -1.8067 0
M  V30 2411 C 242.836 6.50576 -2.70057 0
M  V30 2412 H 238.935 0.76755 0.149639 0
M  V30 2413 H 241.519 1.93145 -0.24556 0
M  V30 2414 H 239.69 3.46541 1.75396 0
M  V30 2415 H 241.422 3.69272 1.6559 0
M  V30 2416 H 238.177 4.73543 -0.0732101 0
M  V30 2417 H 238.601 6.45047 -2.05531 0
M  V30 2418 H 243.243 4.22363 -0.192134 0
M  V30 2419 H 240.961 7.34717 -3.36476 0
M  V30 2420 H 244.547 5.51629 -1.84924 0
M  V30 2421 H 243.427 7.05974 -3.41424 0
M  V30 2422 N 240.93 -0.123565 1.57115 0
M  V30 2423 C 241.86 -1.15309 2.03042 0
M  V30 2424 C 242.841 -1.43454 0.914061 0
M  V30 2425 O 244.026 -1.53973 1.18347 0
M  V30 2426 C 241.156 -2.48043 2.43089 0
M  V30 2427 C 240.11 -2.3437 3.58127 0
M  V30 2428 C 239.436 -3.72026 3.84059 0
M  V30 2429 C 240.736 -1.80804 4.90007 0
M  V30 2430 H 242.43 -0.771102 2.893 0
M  V30 2431 H 239.976 -0.369479 1.39179 0
M  V30 2432 H 241.929 -3.20311 2.73823 0
M  V30 2433 H 240.653 -2.88122 1.53796 0
M  V30 2434 H 239.312 -1.64551 3.27595 0
M  V30 2435 H 238.96 -4.09582 2.91979 0
M  V30 2436 H 238.66 -3.63732 4.6149 0
M  V30 2437 H 240.184 -4.45806 4.1724 0
M  V30 2438 H 241.598 -2.42886 5.19307 0
M  V30 2439 H 239.995 -1.83343 5.71407 0
M  V30 2440 H 241.065 -0.76528 4.78823 0
M  V30 2441 N 242.408 -1.52605 -0.393616 0
M  V30 2442 C 243.685 -1.58001 -1.15304 0
M  V30 2443 C 244.065 -0.370385 -2.07825 0
M  V30 2444 O 243.413 0.641638 -2.19306 0
M  V30 2445 C 243.623 -2.91652 -1.91677 0
M  V30 2446 C 244.971 -3.4522 -2.47201 0
M  V30 2447 O 245.995 -2.93495 -2.01839 0
M  V30 2448 O 244.854 -4.35579 -3.3005 0
M  V30 2449 H 241.948 -0.637068 -0.527327 0
M  V30 2450 H 244.494 -1.64939 -0.399141 0
M  V30 2451 H 243.266 -3.71136 -1.23992 0
M  V30 2452 H 242.889 -2.88077 -2.74039 0
M  V30 2453 N 243.887 0.651787 -1.4349 0
M  V30 2454 C 245.135 1.40888 -1.44897 0
M  V30 2455 C 245.456 1.94856 -0.0749086 0
M  V30 2456 O 244.726 1.74518 0.889956 0
M  V30 2457 H 243.306 0.522887 -0.533478 0
M  V30 2458 H 245.968 0.768609 -1.79104 0
M  V30 2459 H 245.064 2.25052 -2.16236 0
M  V30 2460 N 245.365 1.30045 0.890287 0
M  V30 2461 C 246.312 1.15976 1.99545 0
M  V30 2462 C 247.282 0.0506202 1.66023 0
M  V30 2463 O 248.467 0.219847 1.89529 0
M  V30 2464 C 245.607 0.852054 3.34416 0
M  V30 2465 C 244.72 2.04255 3.80662 0
M  V30 2466 C 243.855 1.6734 5.04154 0
M  V30 2467 C 242.894 2.82916 5.42794 0
M  V30 2468 N 242.031 2.46333 6.57468 0
M  V30 2469 H 246.871 2.10524 2.10911 0
M  V30 2470 H 244.408 1.04749 1.03276 0
M  V30 2471 H 246.366 0.654296 4.12037 0
M  V30 2472 H 244.996 -0.0565502 3.2275 0
M  V30 2473 H 244.048 2.35172 2.98995 0
M  V30 2474 H 245.36 2.90826 4.05242 0
M  V30 2475 H 244.514 1.43908 5.89386 0
M  V30 2476 H 243.253 0.779308 4.81433 0
M  V30 2477 H 242.258 3.0702 4.56091 0
M  V30 2478 H 243.483 3.73004 5.6749 0
M  V30 2479 H 241.429 1.59423 6.36334 0
M  V30 2480 H 241.346 3.26436 6.81891 0
M  V30 2481 H 242.614 2.26244 7.45945 0
M  V30 2482 N 246.843 -1.10192 1.12674 0
M  V30 2483 C 247.793 -2.14754 0.765801 0
M  V30 2484 C 248.777 -1.59154 -0.236409 0
M  V30 2485 O 249.969 -1.76951 -0.0415261 0
M  V30 2486 C 247.098 -3.42563 0.224827 0
M  V30 2487 C 246.184 -4.05091 1.25548 0
M  V30 2488 N 246.575 -4.42287 2.4539 0
M  V30 2489 C 244.873 -4.32186 1.10142 0
M  V30 2490 C 245.574 -4.91441 3.11224 0
M  V30 2491 N 244.55 -4.88405 2.38666 0
M  V30 2492 H 248.352 -2.41309 1.67772 0
M  V30 2493 H 245.866 -1.27339 1.00789 0
M  V30 2494 H 247.863 -4.16868 -0.0519578 0
M  V30 2495 H 246.523 -3.17467 -0.681515 0
M  V30 2496 H 247.534 -4.33902 2.82754 0
M  V30 2497 H 244.211 -4.16735 0.252587 0
M  V30 2498 H 245.601 -5.29749 4.13298 0
M  V30 2499 N 248.321 -0.919034 -1.28029 0
M  V30 2500 C 249.567 -0.555757 -1.95036 0
M  V30 2501 C 249.9 0.899198 -1.72128 0
M  V30 2502 O 249.175 1.64023 -1.04531 0
M  V30 2503 C 249.458 -0.872024 -3.49382 0
M  V30 2504 C 249.311 -2.3801 -3.81669 0
M  V30 2505 C 250.63 -0.37185 -4.38526 0
M  V30 2506 H 247.749 -0.203386 -0.708381 0
M  V30 2507 H 250.391 -1.14924 -1.51303 0
M  V30 2508 H 248.541 -0.366946 -3.86763 0
M  V30 2509 H 250.213 -2.9562 -3.54128 0
M  V30 2510 H 248.456 -2.83289 -3.28526 0
M  V30 2511 H 249.127 -2.55192 -4.8947 0
M  V30 2512 H 251.603 -0.804602 -4.08247 0
M  V30 2513 H 250.479 -0.622173 -5.45362 0
M  V30 2514 H 250.74 0.727934 -4.36066 0
M  V30 2515 N 249.799 1.42003 -0.683588 0
M  V30 2516 C 251.045 2.01712 -0.209825 0
M  V30 2517 C 251.378 1.53968 1.18353 0
M  V30 2518 O 250.653 0.745661 1.79639 0
M  V30 2519 C 250.936 3.59202 -0.254197 0
M  V30 2520 C 250.789 4.17102 -1.68363 0
M  V30 2521 C 252.108 4.38344 0.392709 0
M  V30 2522 H 249.227 0.732891 -0.0777189 0
M  V30 2523 H 251.869 1.68909 -0.87004 0
M  V30 2524 H 250.019 3.87278 0.307954 0
M  V30 2525 H 251.691 3.99946 -2.29871 0
M  V30 2526 H 249.934 3.72597 -2.22157 0
M  V30 2527 H 250.605 5.26249 -1.6663 0
M  V30 2528 H 253.081 4.16011 -0.0859162 0
M  V30 2529 H 251.957 5.47901 0.331063 0
M  V30 2530 H 252.218 4.16887 1.47164 0
M  V30 2531 N 251.277 0.427512 1.51691 0
M  V30 2532 C 252.524 -0.142229 2.02 0
M  V30 2533 C 252.852 -1.43566 1.31221 0
M  V30 2534 O 252.107 -1.91298 0.412744 0
M  V30 2535 C 252.406 -0.418249 3.54944 0
M  V30 2536 C 252.072 0.788187 4.43958 0
M  V30 2537 C 250.734 1.11906 4.68007 0
M  V30 2538 C 253.086 1.59347 4.96244 0
M  V30 2539 C 250.414 2.25608 5.41588 0
M  V30 2540 C 252.766 2.7214 5.71072 0
M  V30 2541 C 251.43 3.05692 5.93387 0
M  V30 2542 H 250.7 -0.0520451 0.73917 0
M  V30 2543 H 253.347 0.572697 1.82736 0
M  V30 2544 H 251.652 -1.21496 3.72486 0
M  V30 2545 H 253.349 -0.872339 3.91397 0
M  V30 2546 H 249.939 0.520344 4.2543 0
M  V30 2547 H 254.123 1.35106 4.77556 0
M  V30 2548 H 249.379 2.51929 5.57083 0
M  V30 2549 H 253.553 3.34914 6.10578 0
M  V30 2550 H 251.18 3.9391 6.50184 0
M  V30 2551 N 252.755 -1.56801 0.158532 0
M  V30 2552 C 254.003 -1.96102 -0.488712 0
M  V30 2553 C 254.324 -1.04498 -1.64636 0
M  V30 2554 O 253.594 -0.108783 -1.95598 0
M  V30 2555 H 252.174 -0.724102 -0.183535 0
M  V30 2556 H 254.836 -1.93457 0.236728 0
M  V30 2557 H 253.932 -3.00097 -0.857219 0
M  V30 2558 N 254.233 0.115231 -1.57178 0
M  V30 2559 C 255.183 1.14707 -1.97044 0
M  V30 2560 C 256.167 1.36866 -0.845957 0
M  V30 2561 O 257.359 1.37895 -1.10968 0
M  V30 2562 C 254.488 2.47266 -2.38148 0
M  V30 2563 C 253.574 2.28566 -3.57237 0
M  V30 2564 N 253.965 1.79685 -4.72807 0
M  V30 2565 C 252.263 2.59208 -3.62943 0
M  V30 2566 C 252.964 1.74781 -5.54821 0
M  V30 2567 N 251.94 2.19264 -4.97417 0
M  V30 2568 H 255.742 0.761754 -2.83857 0
M  V30 2569 H 253.256 0.322928 -1.59157 0
M  V30 2570 H 255.253 3.219 -2.64927 0
M  V30 2571 H 253.913 2.86552 -1.52702 0
M  V30 2572 H 254.924 1.49177 -4.9595 0
M  V30 2573 H 251.601 3.02154 -2.88113 0
M  V30 2574 H 252.991 1.38212 -6.57531 0
M  V30 2575 N 255.711 1.52812 0.385517 0
M  V30 2576 C 256.957 1.68275 1.13188 0
M  V30 2577 C 257.29 0.423179 1.89533 0
M  V30 2578 O 256.565 -0.579113 1.85679 0
M  V30 2579 C 256.848 2.92001 2.1073 0
M  V30 2580 C 256.701 4.28067 1.38125 0
M  V30 2581 C 258.02 3.11283 3.11113 0
M  V30 2582 H 255.139 0.612352 0.410115 0
M  V30 2583 H 257.781 1.85415 0.414869 0
M  V30 2584 H 255.931 2.77519 2.71874 0
M  V30 2585 H 257.603 4.54324 0.799187 0
M  V30 2586 H 255.846 4.28388 0.683092 0
M  V30 2587 H 256.517 5.10733 2.09417 0
M  V30 2588 H 258.993 3.2482 2.6006 0
M  V30 2589 H 257.869 3.99325 3.76605 0
M  V30 2590 H 258.13 2.25656 3.80173 0
M  V30 2591 N 257.189 -0.644168 1.43834 0
M  V30 2592 C 258.136 -1.75671 1.49694 0
M  V30 2593 C 259.106 -1.6246 0.345809 0
M  V30 2594 O 260.291 -1.82573 0.554234 0
M  V30 2595 C 257.431 -3.13867 1.43463 0
M  V30 2596 C 256.544 -3.38147 2.6885 0
M  V30 2597 C 255.679 -4.66241 2.54544 0
M  V30 2598 C 254.718 -4.83657 3.75157 0
M  V30 2599 N 253.855 -6.03016 3.59605 0
M  V30 2600 H 258.695 -1.69998 2.44754 0
M  V30 2601 H 256.232 -0.829458 1.21484 0
M  V30 2602 H 258.19 -3.9377 1.37843 0
M  V30 2603 H 256.82 -3.18588 0.519783 0
M  V30 2604 H 255.872 -2.52276 2.84712 0
M  V30 2605 H 257.184 -3.46899 3.58417 0
M  V30 2606 H 256.338 -5.54285 2.46683 0
M  V30 2607 H 255.077 -4.59826 1.62516 0
M  V30 2608 H 254.082 -3.94046 3.83416 0
M  V30 2609 H 255.307 -4.91896 4.68204 0
M  V30 2610 H 253.253 -5.97715 2.7032 0
M  V30 2611 H 253.17 -6.12766 4.42779 0
M  V30 2612 H 254.438 -6.93657 3.55613 0
M  V30 2613 N 258.668 -1.30515 -0.883378 0
M  V30 2614 C 259.578 -1.18959 -2.02203 0
M  V30 2615 C 260.594 -0.109172 -1.73657 0
M  V30 2616 O 261.77 -0.324413 -1.9877 0
M  V30 2617 C 258.835 -0.883871 -3.35244 0
M  V30 2618 C 257.896 -2.04982 -3.77201 0
M  V30 2619 C 257.129 -1.75859 -5.03894 0
M  V30 2620 O 257.352 -0.687276 -5.66244 0
M  V30 2621 O 256.286 -2.61146 -5.42297 0
M  V30 2622 H 260.112 -2.14616 -2.1488 0
M  V30 2623 H 257.697 -1.10124 -1.0096 0
M  V30 2624 H 259.579 -0.728644 -4.15053 0
M  V30 2625 H 258.254 0.0427798 -3.23672 0
M  V30 2626 H 257.161 -2.26038 -2.9809 0
M  V30 2627 H 258.494 -2.95825 -3.93381 0
M  V30 2628 N 260.146 1.09593 -1.13257 0
M  V30 2629 C 261.394 1.81375 -0.891492 0
M  V30 2630 C 261.715 1.86049 0.584009 0
M  V30 2631 O 260.985 1.34481 1.42449 0
M  V30 2632 H 259.565 0.671708 -0.326828 0
M  V30 2633 H 262.227 1.3256 -1.42877 0
M  V30 2634 H 261.323 2.84612 -1.28071 0
M  V30 2635 N 261.624 0.925811 1.2754 0
M  V30 2636 C 262.557 0.367836 2.25216 0
M  V30 2637 C 263.535 -0.534738 1.53556 0
M  V30 2638 O 264.719 -0.475672 1.824 0
M  V30 2639 C 261.846 -0.47298 3.35381 0
M  V30 2640 C 260.892 0.365898 4.24928 0
M  V30 2641 S 261.725 1.78025 5.05042 0
M  V30 2642 C 262.881 0.947068 6.18693 0
M  V30 2643 H 263.114 1.19568 2.72196 0
M  V30 2644 H 260.647 0.727867 1.36167 0
M  V30 2645 H 262.605 -0.952242 3.99303 0
M  V30 2646 H 261.266 -1.27533 2.87044 0
M  V30 2647 H 260.459 -0.277582 5.03235 0
M  V30 2648 H 260.061 0.779261 3.65792 0
M  V30 2649 H 262.353 0.182201 6.77255 0
M  V30 2650 H 263.296 1.70309 6.87314 0
M  V30 2651 H 263.704 0.489913 5.6237 0
M  V30 2652 N 263.102 -1.41638 0.69111 0
M  V30 2653 C 264.379 -1.95036 0.148421 0
M  V30 2654 C 264.759 -1.63072 -1.34055 0
M  V30 2655 O 264.107 -0.93538 -2.08478 0
M  V30 2656 C 264.317 -3.46279 0.434951 0
M  V30 2657 C 265.665 -4.23069 0.360275 0
M  V30 2658 O 266.689 -3.54277 0.369613 0
M  V30 2659 O 265.548 -5.45583 0.316534 0
M  V30 2660 H 262.642 -0.826908 0.0123654 0
M  V30 2661 H 265.188 -1.5138 0.766963 0
M  V30 2662 H 263.96 -3.6281 1.46576 0
M  V30 2663 H 263.583 -3.97019 -0.214787 0
M  V30 2664 N 264.58 -0.43555 -1.51462 0
M  V30 2665 C 265.826 0.131709 -2.02372 0
M  V30 2666 C 266.159 1.42516 -1.3192 0
M  V30 2667 O 265.434 1.89606 -0.433573 0
M  V30 2668 C 265.717 0.352301 -3.58373 0
M  V30 2669 C 265.57 -0.959676 -4.39443 0
M  V30 2670 C 266.889 1.12286 -4.25535 0
M  V30 2671 H 264.008 0.0463936 -0.735538 0
M  V30 2672 H 266.65 -0.574197 -1.81116 0
M  V30 2673 H 264.8 0.9536 -3.76615 0
M  V30 2674 H 266.472 -1.59482 -4.32855 0
M  V30 2675 H 264.715 -1.56468 -4.04599 0
M  V30 2676 H 265.386 -0.759394 -5.46752 0
M  V30 2677 H 267.862 0.613545 -4.11552 0
M  V30 2678 H 266.738 1.24598 -5.34571 0
M  V30 2679 H 266.999 2.15048 -3.86273 0
M  V30 2680 N 266.058 1.56714 -0.166846 0
M  V30 2681 C 267.304 1.97039 0.479962 0
M  V30 2682 C 267.637 1.05264 1.63197 0
M  V30 2683 O 266.912 0.0988833 1.94248 0
M  V30 2684 C 267.195 3.46867 0.967212 0
M  V30 2685 C 267.048 4.49421 -0.18466 0
M  V30 2686 C 268.367 3.9968 1.84238 0
M  V30 2687 H 265.486 0.71641 0.172992 0
M  V30 2688 H 268.128 1.8832 -0.252079 0
M  V30 2689 H 266.278 3.54428 1.59101 0
M  V30 2690 H 267.95 4.53924 -0.821621 0
M  V30 2691 H 266.193 4.25573 -0.840837 0
M  V30 2692 H 266.864 5.51644 0.198317 0
M  V30 2693 H 269.34 3.94723 1.31655 0
M  V30 2694 H 268.216 5.04941 2.15234 0
M  V30 2695 H 268.477 3.43226 2.78654 0
M  V30 2696 N 267.536 -0.106894 1.57237 0
M  V30 2697 C 268.483 -1.13049 2.01217 0
M  V30 2698 C 269.453 -1.40471 0.886403 0
M  V30 2699 O 270.638 -1.52133 1.15153 0
M  V30 2700 C 267.778 -2.4487 2.43172 0
M  V30 2701 C 266.891 -2.24281 3.69218 0
M  V30 2702 C 266.026 -3.49417 4.00101 0
M  V30 2703 C 265.065 -3.24038 5.19294 0
M  V30 2704 N 264.202 -4.41409 5.45988 0
M  V30 2705 H 269.042 -0.748456 2.88448 0
M  V30 2706 H 266.579 -0.358054 1.42676 0
M  V30 2707 H 268.537 -3.21786 2.65537 0
M  V30 2708 H 267.167 -2.80944 1.58967 0
M  V30 2709 H 266.219 -1.38224 3.54398 0
M  V30 2710 H 267.531 -2.01512 4.56283 0
M  V30 2711 H 266.685 -4.34746 4.2318 0
M  V30 2712 H 265.424 -3.75229 3.11535 0
M  V30 2713 H 264.429 -2.37102 4.96047 0
M  V30 2714 H 265.654 -2.99584 6.09447 0
M  V30 2715 H 263.6 -4.67319 4.60379 0
M  V30 2716 H 263.517 -4.21788 6.274 0
M  V30 2717 H 264.785 -5.27836 5.73593 0
M  V30 2718 N 269.014 -1.53014 -0.377408 0
M  V30 2719 C 269.961 -1.78616 -1.46168 0
M  V30 2720 C 270.931 -0.629917 -1.53692 0
M  V30 2721 O 272.116 -0.870861 -1.69766 0
M  V30 2722 C 269.256 -1.97123 -2.8326 0
M  V30 2723 C 268.369 -3.24831 -2.84796 0
M  V30 2724 C 267.504 -3.33591 -4.13389 0
M  V30 2725 C 266.543 -4.55377 -4.09021 0
M  V30 2726 N 265.68 -4.61355 -5.29241 0
M  V30 2727 H 270.52 -2.71142 -1.23637 0
M  V30 2728 H 268.057 -1.34326 -0.599577 0
M  V30 2729 H 270.015 -2.05839 -3.62886 0
M  V30 2730 H 268.645 -1.07946 -3.04216 0
M  V30 2731 H 267.697 -3.25128 -1.97474 0
M  V30 2732 H 269.009 -4.14523 -2.77439 0
M  V30 2733 H 268.163 -3.41554 -5.01424 0
M  V30 2734 H 266.902 -2.41894 -4.23484 0
M  V30 2735 H 265.907 -4.47527 -3.19373 0
M  V30 2736 H 267.132 -5.48402 -4.00539 0
M  V30 2737 H 265.078 -3.72554 -5.39944 0
M  V30 2738 H 264.995 -5.44935 -5.24006 0
M  V30 2739 H 266.263 -4.73586 -6.19141 0
M  V30 2740 N 270.492 0.636531 -1.44174 0
M  V30 2741 C 271.741 1.39213 -1.45954 0
M  V30 2742 C 272.054 1.95374 -0.0939119 0
M  V30 2743 O 273.26 2.71498 0.0107767 0
M  V30 2744 C 271.716 2.52025 -2.56927 0
M  V30 2745 C 271.324 2.024 -3.99673 0
M  V30 2746 C 273.068 3.29269 -2.67922 0
M  V30 2747 C 270.975 3.12521 -5.0208 0
M  V30 2748 H 269.905 0.523132 -0.542999 0
M  V30 2749 H 272.556 0.685349 -1.70221 0
M  V30 2750 H 270.938 3.25253 -2.25891 0
M  V30 2751 H 272.112 1.36073 -4.40251 0
M  V30 2752 H 270.427 1.37987 -3.92872 0
M  V30 2753 H 273.024 4.11352 -3.41605 0
M  V30 2754 H 273.367 3.78397 -1.73555 0
M  V30 2755 H 273.9 2.63129 -2.98342 0
M  V30 2756 H 270.639 2.68343 -5.98057 0
M  V30 2757 H 270.159 3.77507 -4.66099 0
M  V30 2758 H 271.838 3.77385 -5.25538 0
M  V30 2759 N 271.97 1.30982 0.876444 0
M  V30 2760 C 272.88 1.2003 2.01569 0
M  V30 2761 C 273.896 0.11838 1.73597 0
M  V30 2762 O 275.072 0.33495 1.98595 0
M  V30 2763 C 272.137 0.901637 3.34771 0
M  V30 2764 C 271.198 2.06979 3.76109 0
M  V30 2765 C 270.431 1.78529 5.02954 0
M  V30 2766 O 270.654 0.717296 5.65872 0
M  V30 2767 O 269.588 2.64019 5.40905 0
M  V30 2768 H 273.414 2.15753 2.13739 0
M  V30 2769 H 270.999 1.10658 1.00375 0
M  V30 2770 H 272.881 0.750645 4.1466 0
M  V30 2771 H 271.556 -0.0256141 3.2369 0
M  V30 2772 H 270.463 2.27616 2.96887 0
M  V30 2773 H 271.796 2.97907 3.91807 0
M  V30 2774 N 273.449 -1.08991 1.13837 0
M  V30 2775 C 274.674 -1.85551 0.926585 0
M  V30 2776 C 275.099 -1.80782 -0.519566 0
M  V30 2777 O 274.457 -1.18855 -1.36906 0
M  V30 2778 C 274.505 -3.31266 1.42462 0
M  V30 2779 O 273.609 -4.07822 0.612789 0
M  V30 2780 H 272.95 -0.575192 0.331738 0
M  V30 2781 H 275.48 -1.37604 1.51414 0
M  V30 2782 H 275.49 -3.82112 1.43019 0
M  V30 2783 H 274.165 -3.34052 2.47754 0
M  V30 2784 H 272.742 -3.66731 0.675463 0
M  V30 2785 N 274.927 -0.932562 -1.27047 0
M  V30 2786 C 276.174 -0.575559 -1.94148 0
M  V30 2787 C 276.502 0.883984 -1.73251 0
M  V30 2788 O 275.757 1.64655 -1.0577 0
M  V30 2789 C 276.056 -0.853713 -3.47054 0
M  V30 2790 C 275.722 -2.29577 -3.88079 0
M  V30 2791 C 274.384 -2.68999 -3.9899 0
M  V30 2792 C 276.736 -3.23331 -4.08787 0
M  V30 2793 C 274.064 -4.01289 -4.28 0
M  V30 2794 C 276.416 -4.55207 -4.39282 0
M  V30 2795 C 275.08 -4.94457 -4.48407 0
M  V30 2796 H 274.35 -0.210612 -0.710439 0
M  V30 2797 H 276.997 -1.17744 -1.51025 0
M  V30 2798 H 275.302 -0.169204 -3.91434 0
M  V30 2799 H 276.999 -0.55639 -3.97121 0
M  V30 2800 H 273.589 -1.97994 -3.80127 0
M  V30 2801 H 277.773 -2.94074 -3.99793 0
M  V30 2802 H 273.029 -4.31374 -4.33275 0
M  V30 2803 H 277.203 -5.27852 -4.54252 0
M  V30 2804 H 274.83 -5.96994 -4.7064 0
M  V30 2805 N 276.405 1.4127 -0.698611 0
M  V30 2806 C 277.653 2.00782 -0.230409 0
M  V30 2807 C 277.974 1.5562 1.17505 0
M  V30 2808 O 277.244 0.78815 1.79346 0
M  V30 2809 H 275.824 0.742464 -0.0821944 0
M  V30 2810 H 278.486 1.72852 -0.90045 0
M  V30 2811 H 277.582 3.11095 -0.25021 0
M  V30 2812 N 277.883 0.443576 1.51229 0
M  V30 2813 C 279.108 -0.121648 2.07043 0
M  V30 2814 C 279.533 -1.35156 1.30823 0
M  V30 2815 O 278.891 -1.7793 0.347934 0
M  V30 2816 C 278.939 -0.41624 3.5819 0
M  V30 2817 O 278.043 -1.50163 3.8409 0
M  V30 2818 H 277.384 0.000871367 0.663999 0
M  V30 2819 H 279.914 0.626706 1.94765 0
M  V30 2820 H 279.924 -0.664867 4.02546 0
M  V30 2821 H 278.599 0.482653 4.1309 0
M  V30 2822 H 277.176 -1.24248 3.51592 0
M  V30 2823 N 279.361 -1.56624 0.175154 0
M  V30 2824 C 280.308 -2.18149 -0.753634 0
M  V30 2825 C 281.278 -1.12265 -1.22417 0
M  V30 2826 O 282.463 -1.40432 -1.29165 0
M  V30 2827 C 279.603 -2.82933 -1.97592 0
M  V30 2828 C 278.716 -4.03289 -1.5486 0
M  V30 2829 C 277.851 -4.55988 -2.72485 0
M  V30 2830 C 276.89 -5.68746 -2.26262 0
M  V30 2831 N 276.027 -6.15938 -3.36994 0
M  V30 2832 H 280.867 -2.9717 -0.222195 0
M  V30 2833 H 278.404 -1.46774 -0.0979422 0
M  V30 2834 H 280.362 -3.18653 -2.69288 0
M  V30 2835 H 278.992 -2.06509 -2.481 0
M  V30 2836 H 278.044 -3.73364 -0.728246 0
M  V30 2837 H 279.356 -4.849 -1.16933 0
M  V30 2838 H 278.51 -4.9391 -3.52332 0
M  V30 2839 H 277.249 -3.73443 -3.13674 0
M  V30 2840 H 276.254 -5.30372 -1.44863 0
M  V30 2841 H 277.479 -6.53095 -1.86127 0
M  V30 2842 H 275.425 -5.36321 -3.77751 0
M  V30 2843 H 275.342 -6.92548 -3.03172 0
M  V30 2844 H 276.61 -6.58511 -4.17114 0
M  V30 2845 N 280.839 0.0985539 -1.57292 0
M  V30 2846 C 282.064 0.820196 -1.90493 0
M  V30 2847 C 282.489 1.71658 -0.769094 0
M  V30 2848 O 281.847 1.79133 0.279495 0
M  V30 2849 C 281.895 1.61242 -3.22542 0
M  V30 2850 O 280.999 2.72108 -3.09888 0
M  V30 2851 H 280.34 0.225547 -0.62452 0
M  V30 2852 H 282.87 0.0748159 -2.04463 0
M  V30 2853 H 282.88 1.99737 -3.55766 0
M  V30 2854 H 281.555 0.954535 -4.04798 0
M  V30 2855 H 280.132 2.36667 -2.88172 0
M  V30 2856 N 282.317 1.53212 0.369288 0
M  V30 2857 C 283.565 1.68881 1.11012 0
M  V30 2858 C 283.886 0.441285 1.89941 0
M  V30 2859 O 283.156 -0.544623 1.88177 0
M  V30 2860 H 281.736 0.622569 0.412816 0
M  V30 2861 H 284.398 1.90391 0.416802 0
M  V30 2862 H 283.494 2.54822 1.80201 0
M  V30 2863 N 283.795 -0.628877 1.44509 0
M  V30 2864 C 285.211 -0.947305 1.28446 0
M  V30 2865 C 285.411 -2.00275 0.221872 0
M  V30 2866 O 284.467 -2.49447 -0.391471 0
M  V30 2867 C 285.78 -1.40843 2.65676 0
M  V30 2868 C 287.328 -1.52379 2.73404 0
M  V30 2869 C 287.803 -2.01875 4.11109 0
M  V30 2870 N 289.294 -2.09142 4.13296 0
M  V30 2871 C 290.029 -2.48615 5.16699 0
M  V30 2872 N 289.525 -2.87209 6.30462 0
M  V30 2873 N 291.318 -2.48768 5.04054 0
M  V30 2874 H 283.469 0.0690977 2.12288 0
M  V30 2875 H 285.732 -0.0317164 0.947469 0
M  V30 2876 H 285.438 -0.707206 3.44516 0
M  V30 2877 H 285.312 -2.37902 2.92716 0
M  V30 2878 H 287.699 -2.21598 1.9488 0
M  V30 2879 H 287.78 -0.536898 2.50102 0
M  V30 2880 H 287.424 -1.3325 4.90109 0
M  V30 2881 H 287.354 -3.0144 4.31789 0
M  V30 2882 H 289.845 -1.81991 3.31191 0
M  V30 2883 H 290.158 -3.16149 7.05174 0
M  V30 2884 H 288.503 -2.84955 6.33897 0
M  V30 2885 H 291.694 -2.18009 4.14234 0
M  V30 2886 H 291.867 -2.79207 5.84763 0
M  V30 2887 N 285.273 -1.31445 -0.869486 0
M  V30 2888 C 286.501 -1.24122 -1.65534 0
M  V30 2889 C 286.916 0.193387 -1.87807 0
M  V30 2890 O 286.273 1.12557 -1.43656 0
M  V30 2891 C 286.324 -1.98229 -3.02304 0
M  V30 2892 O 286.045 -3.3609 -2.81026 0
M  V30 2893 C 287.546 -1.97751 -3.96749 0
M  V30 2894 H 284.766 -0.428868 -0.516055 0
M  V30 2895 H 287.31 -1.73328 -1.08525 0
M  V30 2896 H 285.465 -1.52782 -3.56001 0
M  V30 2897 H 285.879 -3.7383 -3.67902 0
M  V30 2898 H 287.353 -2.54114 -4.90031 0
M  V30 2899 H 287.83 -0.960137 -4.28577 0
M  V30 2900 H 288.436 -2.43079 -3.48988 0
M  V30 2901 N 286.751 1.08385 -1.14413 0
M  V30 2902 C 287.976 1.85057 -0.936413 0
M  V30 2903 C 288.401 1.81055 0.509971 0
M  V30 2904 O 287.759 1.1958 1.36273 0
M  V30 2905 C 287.807 3.30505 -1.44217 0
M  V30 2906 O 286.911 4.07491 -0.634409 0
M  V30 2907 H 286.252 0.573425 -0.334784 0
M  V30 2908 H 288.782 1.36799 -1.52142 0
M  V30 2909 H 288.792 3.81348 -1.45043 0
M  V30 2910 H 287.467 3.32734 -2.49522 0
M  V30 2911 H 286.044 3.66368 -0.694902 0
M  V30 2912 N 288.23 0.939286 1.26551 0
M  V30 2913 C 289.177 0.446088 2.26448 0
M  V30 2914 C 290.147 -0.493234 1.58608 0
M  V30 2915 O 291.332 -0.409857 1.86346 0
M  V30 2916 C 288.472 -0.284375 3.43926 0
M  V30 2917 C 287.585 0.690399 4.26448 0
M  V30 2918 C 286.72 -0.0610712 5.31165 0
M  V30 2919 C 285.759 0.905649 6.05363 0
M  V30 2920 N 284.896 0.186055 7.01853 0
M  V30 2921 H 289.736 1.30291 2.68008 0
M  V30 2922 H 287.273 0.65371 1.31776 0
M  V30 2923 H 289.231 -0.724313 4.10864 0
M  V30 2924 H 287.861 -1.10535 3.03285 0
M  V30 2925 H 286.913 1.24885 3.59316 0
M  V30 2926 H 288.225 1.42873 4.779 0
M  V30 2927 H 287.379 -0.56038 6.04106 0
M  V30 2928 H 286.118 -0.832297 4.80546 0
M  V30 2929 H 285.123 1.4161 5.3125 0
M  V30 2930 H 286.348 1.67685 6.58072 0
M  V30 2931 H 284.294 -0.566714 6.53548 0
M  V30 2932 H 284.211 0.863752 7.51049 0
M  V30 2933 H 285.479 -0.292221 7.78952 0
M  V30 2934 N 289.708 -1.40897 0.706093 0
M  V30 2935 C 290.655 -2.30751 0.0474474 0
M  V30 2936 C 291.625 -1.47678 -0.76029 0
M  V30 2937 O 292.81 -1.76441 -0.726177 0
M  V30 2938 C 289.95 -3.33815 -0.875309 0
M  V30 2939 C 289.063 -4.31961 -0.0580623 0
M  V30 2940 C 288.198 -5.22093 -0.979425 0
M  V30 2941 C 287.237 -6.11902 -0.155706 0
M  V30 2942 N 286.374 -6.94482 -1.03144 0
M  V30 2943 H 291.214 -2.86513 0.819413 0
M  V30 2944 H 288.751 -1.41102 0.415783 0
M  V30 2945 H 290.709 -3.92129 -1.42446 0
M  V30 2946 H 289.339 -2.79579 -1.61356 0
M  V30 2947 H 288.391 -3.75507 0.608147 0
M  V30 2948 H 289.703 -4.95415 0.580082 0
M  V30 2949 H 288.857 -5.85292 -1.59744 0
M  V30 2950 H 287.596 -4.5889 -1.65141 0
M  V30 2951 H 286.601 -5.47742 0.475309 0
M  V30 2952 H 287.826 -6.77162 0.512635 0
M  V30 2953 H 285.772 -6.33877 -1.68924 0
M  V30 2954 H 285.689 -7.54665 -0.449108 0
M  V30 2955 H 286.957 -7.6214 -1.63593 0
M  V30 2956 N 291.186 -0.45159 -1.50991 0
M  V30 2957 C 292.435 0.111653 -2.01391 0
M  V30 2958 C 292.748 1.42529 -1.33959 0
M  V30 2959 O 293.954 2.07232 -1.75405 0
M  V30 2960 C 292.41 0.249514 -3.59034 0
M  V30 2961 C 292.018 -1.05453 -4.35412 0
M  V30 2962 C 293.762 0.765762 -4.17536 0
M  V30 2963 C 291.669 -0.881529 -5.84793 0
M  V30 2964 H 290.599 0.0455022 -0.752626 0
M  V30 2965 H 293.25 -0.583524 -1.73975 0
M  V30 2966 H 291.632 1.00803 -3.82955 0
M  V30 2967 H 292.806 -1.82248 -4.23229 0
M  V30 2968 H 291.121 -1.50039 -3.88429 0
M  V30 2969 H 293.718 0.911913 -5.26866 0
M  V30 2970 H 294.061 1.75201 -3.77638 0
M  V30 2971 H 294.594 0.0651744 -3.97747 0
M  V30 2972 H 291.333 -1.84057 -6.29129 0
M  V30 2973 H 290.853 -0.153625 -5.99603 0
M  V30 2974 H 292.532 -0.540363 -6.4474 0
M  V30 2975 N 292.664 1.56529 -0.183458 0
M  V30 2976 C 293.91 1.97537 0.459036 0
M  V30 2977 C 294.243 1.06989 1.62071 0
M  V30 2978 O 293.518 0.11948 1.94133 0
M  V30 2979 C 293.801 3.47874 0.930368 0
M  V30 2980 C 293.654 4.492 -0.232317 0
M  V30 2981 C 294.973 4.01612 1.79989 0
M  V30 2982 H 292.092 0.718204 0.165383 0
M  V30 2983 H 294.734 1.88042 -0.272038 0
M  V30 2984 H 292.884 3.56095 1.55333 0
M  V30 2985 H 294.556 4.53027 -0.86972 0
M  V30 2986 H 292.799 4.24657 -0.885928 0
M  V30 2987 H 293.47 5.51823 0.139796 0
M  V30 2988 H 295.946 3.96097 1.27461 0
M  V30 2989 H 294.822 5.07195 2.09867 0
M  V30 2990 H 295.083 3.46163 2.74998 0
M  V30 2991 N 294.142 -0.090211 1.57342 0
M  V30 2992 C 295.391 -0.791531 1.8552 0
M  V30 2993 C 295.704 -1.79659 0.773441 0
M  V30 2994 O 296.91 -2.54616 0.942497 0
M  V30 2995 C 295.366 -1.45856 3.2902 0
M  V30 2996 C 294.974 -0.493017 4.45279 0
M  V30 2997 C 296.718 -2.14332 3.66418 0
M  V30 2998 C 294.625 -1.16491 5.79814 0
M  V30 2999 H 293.555 -0.299356 0.692027 0
M  V30 3000 H 296.206 -0.0445343 1.83446 0
M  V30 3001 H 294.588 -2.25318 3.2565 0
M  V30 3002 H 295.762 0.270464 4.60006 0
M  V30 3003 H 294.077 0.0863061 4.16311 0
M  V30 3004 H 296.674 -2.65344 4.64216 0
M  V30 3005 H 297.017 -2.93447 2.95287 0
M  V30 3006 H 297.55 -1.41724 3.71698 0
M  V30 3007 H 294.289 -0.41447 6.54188 0
M  V30 3008 H 293.809 -1.8997 5.68921 0
M  V30 3009 H 295.488 -1.69001 6.24538 0
M  V30 3010 N 295.62 -1.53406 -0.361157 0
M  V30 3011 C 296.848 -1.73717 -1.12383 0
M  V30 3012 C 297.263 -0.468161 -1.82904 0
M  V30 3013 O 296.62 0.559198 -1.73722 0
M  V30 3014 C 296.671 -2.90558 -2.15078 0
M  V30 3015 O 296.392 -4.12549 -1.47428 0
M  V30 3016 C 297.893 -3.22777 -3.03858 0
M  V30 3017 H 295.113 -0.580896 -0.335858 0
M  V30 3018 H 297.657 -2.00167 -0.418728 0
M  V30 3019 H 295.812 -2.66489 -2.8118 0
M  V30 3020 H 296.226 -4.78009 -2.15887 0
M  V30 3021 H 297.7 -4.07927 -3.71887 0
M  V30 3022 H 298.177 -2.38329 -3.68912 0
M  V30 3023 H 298.783 -3.48787 -2.43367 0
M  V30 3024 N 297.098 0.621204 -1.44841 0
M  V30 3025 C 298.375 1.38 -1.38619 0
M  V30 3026 C 298.755 2.11041 -0.0498935 0
M  V30 3027 O 298.103 2.06992 0.967816 0
M  V30 3028 C 298.313 2.33817 -2.59096 0
M  V30 3029 C 299.661 2.96844 -3.03593 0
M  V30 3030 O 300.685 2.44141 -2.59371 0
M  V30 3031 O 299.544 3.92476 -3.80296 0
M  V30 3032 H 296.638 0.61811 -0.549426 0
M  V30 3033 H 299.184 0.645429 -1.56947 0
M  V30 3034 H 297.956 1.79012 -3.47952 0
M  V30 3035 H 297.579 3.14676 -2.43032 0
M  V30 3036 N 298.576 1.31904 0.862503 0
M  V30 3037 C 299.816 1.23324 1.63004 0
M  V30 3038 C 300.18 -0.203724 1.90916 0
M  V30 3039 O 301.381 -0.413132 2.65606 0
M  V30 3040 C 299.652 2.06116 2.91978 0
M  V30 3041 S 301.211 2.14478 3.82812 0
M  V30 3042 H 298.029 0.439117 0.559193 0
M  V30 3043 H 300.631 1.66658 1.02202 0
M  V30 3044 H 299.335 3.09593 2.69407 0
M  V30 3045 H 298.866 1.6353 3.57801 0
M  V30 3046 H 300.881 1.28855 4.79177 0
M  V30 3047 N 300.054 -1.07777 1.14986 0
M  V30 3048 C 301.302 -1.79934 0.920235 0
M  V30 3049 C 301.623 -1.86955 -0.554336 0
M  V30 3050 O 300.893 -1.36731 -1.40291 0
M  V30 3051 H 299.473 -0.666424 0.337473 0
M  V30 3052 H 302.135 -1.3027 1.44968 0
M  V30 3053 H 301.231 -2.82539 1.32583 0
M  V30 3054 N 301.532 -0.945985 -1.26051 0
M  V30 3055 C 302.464 -0.416662 -2.25381 0
M  V30 3056 C 303.477 0.462712 -1.56086 0
M  V30 3057 O 304.666 0.272383 -1.7641 0
M  V30 3058 C 301.766 0.419812 -3.3629 0
M  V30 3059 C 300.939 -0.444531 -4.35135 0
M  V30 3060 C 299.998 0.332305 -5.2515 0
M  V30 3061 O 299.024 -0.266324 -5.68577 0
M  V30 3062 N 300.226 1.62763 -5.57215 0
M  V30 3063 H 302.991 -1.27059 -2.71433 0
M  V30 3064 H 300.552 -0.815392 -1.39868 0
M  V30 3065 H 302.544 0.947013 -3.93464 0
M  V30 3066 H 301.114 1.17456 -2.89694 0
M  V30 3067 H 300.334 -1.15291 -3.76964 0
M  V30 3068 H 301.622 -1.03478 -4.98166 0
M  V30 3069 H 301.02 2.13603 -5.23823 0
M  V30 3070 H 299.577 2.10097 -6.17011 0
M  V30 3071 N 303.011 1.40521 -0.713556 0
M  V30 3072 C 303.941 2.33381 -0.0743864 0
M  V30 3073 C 304.922 1.52784 0.747735 0
M  V30 3074 O 306.107 1.81258 0.697071 0
M  V30 3075 C 303.237 3.36748 0.849598 0
M  V30 3076 C 302.191 4.27793 0.133247 0
M  V30 3077 C 301.517 5.21679 1.17281 0
M  V30 3078 C 302.817 5.12415 -1.01134 0
M  V30 3079 H 304.511 2.87081 -0.850007 0
M  V30 3080 H 302.057 1.38034 -0.410201 0
M  V30 3081 H 304.01 4.00648 1.30612 0
M  V30 3082 H 302.734 2.81439 1.65709 0
M  V30 3083 H 301.393 3.65342 -0.303426 0
M  V30 3084 H 301.041 4.62677 1.9733 0
M  V30 3085 H 300.741 5.83435 0.698397 0
M  V30 3086 H 302.265 5.88456 1.62947 0
M  V30 3087 H 303.679 5.69781 -0.634274 0
M  V30 3088 H 302.076 5.83203 -1.41399 0
M  V30 3089 H 303.146 4.48514 -1.84292 0
M  V30 3090 N 304.489 0.459591 1.5075 0
M  V30 3091 C 305.714 -0.0996819 2.0716 0
M  V30 3092 C 306.139 -1.33761 1.32249 0
M  V30 3093 O 305.497 -1.77551 0.366786 0
M  V30 3094 C 305.545 -0.378226 3.58611 0
M  V30 3095 O 304.649 -1.46081 3.85661 0
M  V30 3096 H 303.99 0.00791392 0.663953 0
M  V30 3097 H 306.52 0.647329 1.9409 0
M  V30 3098 H 306.53 -0.622135 4.03229 0
M  V30 3099 H 305.205 0.526439 4.12555 0
M  V30 3100 H 303.782 -1.20511 3.5289 0
M  V30 3101 O 306.006 -1.58029 0.333053 0
M  V30 3102 H 306.697 -1.92392 -0.224736 0
M  V30 END ATOM
M  V30 BEGIN BOND
M  V30 END BOND
M  V30 END CTAB
M  END
$$$$
