drugbank_target|P30418 Glycylpeptide N-tetradecanoyltransferase (DB02180; DB02477; DB03062)
 OpenBabel12092119553D

  0  0  0     0  0            999 V3000
M  V30 BEGIN CTAB
M  V30 COUNTS 7290 7384 0 0 0
M  V30 BEGIN ATOM
M  V30 1 H -0.908 1.98254 -0.117106 0
M  V30 2 N 0 1.576 0 0
M  V30 3 C 0.933 2.03868 1.02534 0
M  V30 4 C 1.911 0.928543 1.3348 0
M  V30 5 O 3.095 1.19667 1.45644 0
M  V30 6 C 0.222 2.43627 2.35294 0
M  V30 7 C -0.732 3.65373 2.2001 0
M  V30 8 S 0.101 5.13292 1.52614 0
M  V30 9 C 1.257 5.56322 2.86805 0
M  V30 10 H 1.49 2.90518 0.631377 0
M  V30 11 H -0.977 1.52953 0.210867 0
M  V30 12 H 0.981 2.67203 3.11629 0
M  V30 13 H -0.358 1.57376 2.7183 0
M  V30 14 H -1.165 3.90944 3.18086 0
M  V30 15 H -1.563 3.418 1.51819 0
M  V30 16 H 0.729 5.58782 3.83104 0
M  V30 17 H 1.672 6.56266 2.65933 0
M  V30 18 H 2.08 4.83886 2.90714 0
M  V30 19 N 1.4781 -0.272755 1.55222 0
M  V30 20 C 2.7031 -1.02683 1.80197 0
M  V30 21 C 3.1281 -1.79142 0.573551 0
M  V30 22 O 2.4861 -1.74917 -0.476849 0
M  V30 23 C 2.5341 -1.9609 3.02624 0
M  V30 24 O 1.6381 -3.04863 2.77727 0
M  V30 25 H 0.9791 -0.293557 0.595584 0
M  V30 26 H 3.5091 -0.30159 2.02365 0
M  V30 27 H 3.5191 -2.38039 3.31363 0
M  V30 28 H 2.1941 -1.39851 3.91682 0
M  V30 29 H 0.7711 -2.67228 2.60084 0
M  V30 30 N 2.9562 -1.48159 -0.537278 0
M  V30 31 C 4.2042 -1.55497 -1.29094 0
M  V30 32 C 4.5252 -0.227454 -1.93669 0
M  V30 33 O 3.7952 0.750386 -1.80959 0
M  V30 34 H 2.3752 -0.572832 -0.47945 0
M  V30 35 H 5.0372 -1.84579 -0.625818 0
M  V30 36 H 4.1332 -2.33216 -2.07405 0
M  V30 37 N 4.4343 0.785586 -1.36625 0
M  V30 38 C 5.7113 1.53198 -1.21613 0
M  V30 39 C 6.0913 2.10187 0.196113 0
M  V30 40 O 5.4393 1.94318 1.20219 0
M  V30 41 C 5.6493 2.62388 -2.30116 0
M  V30 42 C 6.9973 3.30167 -2.66974 0
M  V30 43 O 8.0213 2.72674 -2.29188 0
M  V30 44 O 6.8803 4.34077 -3.32023 0
M  V30 45 H 3.9743 0.677865 -0.473738 0
M  V30 46 H 6.5203 0.823739 -1.48367 0
M  V30 47 H 5.2923 2.18299 -3.24748 0
M  V30 48 H 4.9153 3.40827 -2.0475 0
M  V30 49 N 5.9124 1.20967 1.01018 0
M  V30 50 C 6.8604 0.961223 2.1181 0
M  V30 51 C 7.8544 -0.0897034 1.69162 0
M  V30 52 O 9.0604 0.0612271 1.79896 0
M  V30 53 H 5.4354 0.29355 0.692338 0
M  V30 54 H 7.4064 1.90178 2.29946 0
M  V30 55 C 6.1554 0.536854 3.4353 0
M  V30 56 H 5.4784 1.33713 3.76777 0
M  V30 57 H 6.9184 0.402286 4.22087 0
M  V30 58 C 5.3774 -0.751574 3.2841 0
M  V30 59 O 5.9074 -1.80841 3.58691 0
M  V30 60 N 4.1134 -0.716079 2.81639 0
M  V30 61 H 3.6604 0.144236 2.57196 0
M  V30 62 H 3.6184 -1.57847 2.71904 0
M  V30 63 N 7.3905 -1.2043 1.01659 0
M  V30 64 C 8.6185 -1.93777 0.725132 0
M  V30 65 C 9.0335 -1.74772 -0.714166 0
M  V30 66 O 8.3905 -1.06169 -1.4844 0
M  V30 67 C 8.4415 -3.45876 1.05129 0
M  V30 68 O 8.1625 -3.6426 2.43406 0
M  V30 69 C 9.6635 -4.36368 0.780891 0
M  V30 70 H 6.8835 -0.615901 0.266284 0
M  V30 71 H 9.4275 -1.52922 1.35776 0
M  V30 72 H 7.5825 -3.8461 0.464065 0
M  V30 73 H 7.9965 -4.58246 2.55169 0
M  V30 74 H 9.4705 -5.41743 1.05918 0
M  V30 75 H 9.9475 -4.38275 -0.284937 0
M  V30 76 H 10.5535 -4.03296 1.35027 0
M  V30 77 N 8.8686 -0.792821 -1.36206 0
M  V30 78 C 10.1166 -0.366062 -1.98757 0
M  V30 79 C 10.4376 1.0668 -1.63231 0
M  V30 80 O 9.7076 1.73587 -0.907978 0
M  V30 81 H 8.2876 -0.132364 -0.735179 0
M  V30 82 H 10.9496 -1.01562 -1.66347 0
M  V30 83 H 10.0456 -0.460638 -3.08682 0
M  V30 84 N 10.3467 1.47872 -0.545128 0
M  V30 85 C 11.2947 2.31533 0.222512 0
M  V30 86 C 12.2887 1.42177 0.920985 0
M  V30 87 O 13.4947 1.59005 0.843645 0
M  V30 88 H 9.8697 0.746519 0.0906278 0
M  V30 89 H 11.8407 2.94139 -0.50246 0
M  V30 90 C 10.5897 3.2457 1.24699 0
M  V30 91 H 9.9127 3.93283 0.718944 0
M  V30 92 H 11.3527 3.85963 1.75523 0
M  V30 93 C 9.8117 2.47237 2.28856 0
M  V30 94 O 10.3417 2.20808 3.35569 0
M  V30 95 N 8.5477 2.08461 2.02466 0
M  V30 96 H 8.0947 2.30155 1.157 0
M  V30 97 H 8.0527 1.57033 2.72375 0
M  V30 98 N 11.8248 0.280983 1.55075 0
M  V30 99 C 12.7718 -0.603937 2.22758 0
M  V30 100 C 13.7418 -1.1452 1.20309 0
M  V30 101 O 14.9268 -1.19343 1.48869 0
M  V30 102 C 12.0668 -1.77947 2.95684 0
M  V30 103 C 11.1798 -1.2715 4.12864 0
M  V30 104 C 10.3148 -2.4093 4.7342 0
M  V30 105 C 9.3538 -1.87165 5.82783 0
M  V30 106 N 8.4908 -2.94441 6.37377 0
M  V30 107 H 13.3308 -0.020124 2.97993 0
M  V30 108 H 10.8678 0.00183425 1.471 0
M  V30 109 H 12.8258 -2.47055 3.36184 0
M  V30 110 H 11.4558 -2.33522 2.22861 0
M  V30 111 H 10.5078 -0.473331 3.77444 0
M  V30 112 H 11.8198 -0.837751 4.91715 0
M  V30 113 H 10.9738 -3.18021 5.1667 0
M  V30 114 H 9.7128 -2.87623 3.93859 0
M  V30 115 H 8.7178 -1.08556 5.38976 0
M  V30 116 H 9.9428 -1.41401 6.64216 0
M  V30 117 H 7.8888 -3.40505 5.60707 0
M  V30 118 H 7.8058 -2.55501 7.11516 0
M  V30 119 H 9.0738 -3.71489 6.85285 0
M  V30 120 N 13.3029 -1.57598 0.00835791 0
M  V30 121 C 14.5279 -1.95617 -0.689103 0
M  V30 122 C 14.9529 -0.883753 -1.66046 0
M  V30 123 O 14.3109 0.157352 -1.80616 0
M  V30 124 C 14.3589 -3.32736 -1.38994 0
M  V30 125 O 13.4629 -3.27631 -2.50463 0
M  V30 126 H 12.8039 -0.638379 -0.182668 0
M  V30 127 H 15.3339 -2.045 0.064036 0
M  V30 128 H 15.3439 -3.68494 -1.75147 0
M  V30 129 H 14.0189 -4.1034 -0.677778 0
M  V30 130 H 12.5959 -3.03561 -2.16576 0
M  V30 131 N 14.781 0.264519 -1.55364 0
M  V30 132 C 15.729 1.34702 -1.89626 0
M  V30 133 C 16.723 1.50712 -0.773459 0
M  V30 134 O 17.929 1.52395 -0.957897 0
M  V30 135 H 14.304 0.450682 -0.601988 0
M  V30 136 H 16.275 1.0306 -2.80038 0
M  V30 137 C 15.024 2.6989 -2.19214 0
M  V30 138 H 14.347 2.58365 -3.05103 0
M  V30 139 H 15.787 3.44553 -2.47102 0
M  V30 140 C 14.246 3.21637 -1.00254 0
M  V30 141 O 14.776 4.00973 -0.241501 0
M  V30 142 N 12.982 2.7943 -0.797938 0
M  V30 143 H 12.529 2.15026 -1.4185 0
M  V30 144 H 12.487 3.144 -0.00363422 0
M  V30 145 N 16.2591 1.48442 0.529413 0
M  V30 146 C 17.4841 1.60406 1.31471 0
M  V30 147 C 17.9091 0.264738 1.86228 0
M  V30 148 O 17.2671 -0.763668 1.64432 0
M  V30 149 C 17.3151 2.65419 2.44101 0
M  V30 150 O 16.4191 2.22618 3.47153 0
M  V30 151 H 15.7601 0.537863 0.389357 0
M  V30 152 H 18.2901 1.94432 0.636965 0
M  V30 153 H 18.3001 2.86709 2.90279 0
M  V30 154 H 16.9751 3.62652 2.03608 0
M  V30 155 H 15.5521 2.11543 3.0709 0
M  V30 156 N 17.7372 -0.778329 1.37039 0
M  V30 157 C 18.7002 -1.87301 1.32102 0
M  V30 158 C 19.7002 -1.59198 0.226405 0
M  V30 159 O 20.8902 -1.67403 0.481861 0
M  V30 160 C 18.0222 -3.24309 1.05055 0
M  V30 161 H 19.2152 -1.93093 2.29467 0
M  V30 162 H 16.7682 -0.977358 1.21973 0
M  V30 163 H 17.5032 -3.24196 0.0819373 0
M  V30 164 H 17.2882 -3.46098 1.84279 0
M  V30 165 H 18.7782 -4.04382 1.04234 0
M  V30 166 N 19.2153 -1.21501 -1.00376 0
M  V30 167 C 20.6263 -1.03146 -1.55621 0
M  V30 168 C 20.9773 0.408375 -1.91903 0
M  V30 169 O 20.1023 1.29177 -1.73616 0
M  V30 170 C 20.6973 -1.86612 -2.82775 0
M  V30 171 C 19.2563 -1.72586 -3.34501 0
M  V30 172 C 18.4033 -1.83747 -2.07683 0
M  V30 173 H 21.3543 -1.35505 -0.826081 0
M  V30 174 H 21.3753 -1.3771 -3.54706 0
M  V30 175 H 20.8873 -2.91399 -2.56336 0
M  V30 176 H 18.9883 -0.704877 -3.65872 0
M  V30 177 H 19.1013 -2.54623 -4.05837 0
M  V30 178 H 17.4653 -1.27069 -2.20739 0
M  V30 179 H 18.2483 -2.90044 -1.83655 0
M  V30 180 N 20.6934 1.19889 -1.02296 0
M  V30 181 C 21.9184 1.9393 -0.735237 0
M  V30 182 C 22.3434 1.74639 0.698782 0
M  V30 183 O 21.7014 1.04481 1.48167 0
M  V30 184 C 21.7494 3.43916 -1.08417 0
M  V30 185 O 20.8534 4.11917 -0.199446 0
M  V30 186 H 20.1944 0.605645 -0.272196 0
M  V30 187 H 22.7244 1.52137 -1.36804 0
M  V30 188 H 22.7344 3.9456 -1.03856 0
M  V30 189 H 21.4094 3.5728 -2.12894 0
M  V30 190 H 19.9864 3.71666 -0.303136 0
M  V30 191 N 22.1715 0.800033 1.35784 0
M  V30 192 C 23.1185 0.203848 2.29898 0
M  V30 193 C 24.0885 -0.658375 1.52495 0
M  V30 194 O 25.2735 -0.604832 1.8096 0
M  V30 195 C 22.4135 -0.64688 3.38983 0
M  V30 196 C 21.5265 0.235054 4.3136 0
M  V30 197 C 20.6615 -0.623054 5.27533 0
M  V30 198 C 19.7005 0.259682 6.11549 0
M  V30 199 N 18.8375 -0.558019 6.99879 0
M  V30 200 H 23.6775 1.01186 2.80295 0
M  V30 201 H 21.2145 0.51053 1.37957 0
M  V30 202 H 23.1725 -1.15521 4.00887 0
M  V30 203 H 21.8025 -1.42021 2.89879 0
M  V30 204 H 20.8545 0.861438 3.70518 0
M  V30 205 H 22.1665 0.914768 4.9034 0
M  V30 206 H 21.3205 -1.19678 5.94779 0
M  V30 207 H 20.0595 -1.33636 4.69034 0
M  V30 208 H 19.0645 0.845726 5.43256 0
M  V30 209 H 20.2895 0.970748 6.72126 0
M  V30 210 H 18.2355 -1.25542 6.43875 0
M  V30 211 H 18.1525 0.0637872 7.55973 0
M  V30 212 H 19.4205 -1.11523 7.71481 0
M  V30 213 N 23.6496 -1.47581 0.552962 0
M  V30 214 C 24.8746 -2.07378 0.0300593 0
M  V30 215 C 25.2996 -1.40355 -1.25229 0
M  V30 216 O 24.6576 -0.477099 -1.7491 0
M  V30 217 C 24.7056 -3.60274 -0.153231 0
M  V30 218 O 23.8096 -3.94041 -1.21678 0
M  V30 219 H 23.1506 -0.662158 0.0494182 0
M  V30 220 H 25.6806 -1.89662 0.767434 0
M  V30 221 H 25.6906 -4.0633 -0.368761 0
M  V30 222 H 24.3656 -4.08455 0.783397 0
M  V30 223 H 22.9426 -3.59735 -0.982079 0
M  V30 224 N 25.1277 -0.289203 -1.54924 0
M  V30 225 C 26.3767 0.324231 -1.99077 0
M  V30 226 C 26.6897 1.5591 -1.18117 0
M  V30 227 O 27.8957 2.24637 -1.52481 0
M  V30 228 C 26.3517 0.628209 -3.54375 0
M  V30 229 C 25.9597 -0.587647 -4.44129 0
M  V30 230 C 27.7037 1.20349 -4.07083 0
M  V30 231 C 25.6107 -0.257475 -5.90839 0
M  V30 232 H 24.5407 0.124924 -0.743579 0
M  V30 233 H 27.1917 -0.396063 -1.79175 0
M  V30 234 H 25.5737 1.40778 -3.70132 0
M  V30 235 H 26.7477 -1.36418 -4.40144 0
M  V30 236 H 25.0627 -1.08074 -4.0213 0
M  V30 237 H 27.6597 1.46456 -5.14252 0
M  V30 238 H 28.0027 2.14195 -3.56968 0
M  V30 239 H 28.5357 0.485889 -3.94821 0
M  V30 240 H 25.2747 -1.16419 -6.45079 0
M  V30 241 H 24.7947 0.482018 -5.9786 0
M  V30 242 H 26.4737 0.145238 -6.46837 0
M  V30 243 N 26.6058 1.57591 -0.0167156 0
M  V30 244 C 27.5158 2.1291 0.98521 0
M  V30 245 C 28.5318 1.07834 1.36557 0
M  V30 246 O 29.7078 1.39826 1.44951 0
M  V30 247 C 26.7728 2.63512 2.25305 0
M  V30 248 C 25.8338 3.83256 1.93426 0
M  V30 249 C 25.0668 4.31435 3.14165 0
M  V30 250 O 25.2898 3.78851 4.26413 0
M  V30 251 O 24.2238 5.23416 2.97186 0
M  V30 252 H 28.0498 2.98772 0.544888 0
M  V30 253 H 25.6348 1.48012 0.203141 0
M  V30 254 H 27.5168 2.96183 2.99756 0
M  V30 255 H 26.1918 1.8074 2.68542 0
M  V30 256 H 25.0988 3.55531 1.16398 0
M  V30 257 H 26.4318 4.67153 1.55013 0
M  V30 258 N 28.0839 -0.256276 1.55502 0
M  V30 259 C 28.9939 -1.33882 1.92647 0
M  V30 260 C 30.0099 -1.53159 0.825727 0
M  V30 261 O 31.1859 -1.66963 1.12629 0
M  V30 262 C 28.2509 -2.6751 2.20543 0
M  V30 263 C 27.3119 -2.56836 3.43997 0
M  V30 264 C 26.5449 -3.84092 3.70553 0
M  V30 265 O 26.7679 -4.85545 2.99336 0
M  V30 266 O 25.7019 -3.83288 4.64084 0
M  V30 267 H 29.5279 -1.05374 2.84833 0
M  V30 268 H 27.1129 -0.456237 1.42263 0
M  V30 269 H 28.9949 -3.46492 2.39835 0
M  V30 270 H 27.6699 -2.9577 1.31536 0
M  V30 271 H 26.5769 -1.76172 3.30021 0
M  V30 272 H 27.9099 -2.33523 4.33275 0
M  V30 273 N 29.562 -1.4872 -0.521534 0
M  V30 274 C 30.492 -1.66771 -1.63431 0
M  V30 275 C 31.473 -0.516499 -1.62069 0
M  V30 276 O 32.658 -0.750013 -1.79132 0
M  V30 277 C 29.788 -1.71515 -3.01993 0
M  V30 278 C 28.742 -2.86222 -3.18216 0
M  V30 279 C 28.068 -2.76061 -4.57924 0
M  V30 280 C 29.368 -4.27419 -3.00184 0
M  V30 281 H 31.062 -2.59932 -1.48579 0
M  V30 282 H 28.608 -1.25089 -0.713358 0
M  V30 283 H 30.561 -1.82731 -3.7972 0
M  V30 284 H 29.285 -0.749393 -3.17886 0
M  V30 285 H 27.944 -2.74575 -2.42908 0
M  V30 286 H 27.592 -1.77437 -4.70665 0
M  V30 287 H 27.292 -3.53037 -4.69722 0
M  V30 288 H 28.816 -2.89256 -5.37739 0
M  V30 289 H 30.23 -4.39855 -3.67697 0
M  V30 290 H 28.627 -5.05458 -3.2347 0
M  V30 291 H 29.697 -4.43293 -1.96518 0
M  V30 292 N 31.0401 0.771051 -1.3745 0
M  V30 293 C 31.9701 1.89827 -1.3597 0
M  V30 294 C 32.9511 1.68562 -0.228216 0
M  V30 295 O 34.1361 1.8941 -0.428675 0
M  V30 296 C 31.2661 3.2712 -1.16662 0
M  V30 297 C 30.2201 3.6295 -2.2683 0
M  V30 298 C 29.5461 4.98791 -1.92644 0
M  V30 299 C 30.8461 3.69627 -3.69017 0
M  V30 300 H 32.5401 1.91323 -2.30295 0
M  V30 301 H 30.0861 0.919082 -1.10855 0
M  V30 302 H 32.0391 4.05615 -1.14256 0
M  V30 303 H 30.7631 3.26059 -0.187926 0
M  V30 304 H 29.4221 2.86763 -2.28392 0
M  V30 305 H 29.0701 4.94271 -0.933021 0
M  V30 306 H 28.7701 5.23733 -2.66416 0
M  V30 307 H 30.2941 5.79685 -1.91826 0
M  V30 308 H 31.7081 4.38273 -3.69581 0
M  V30 309 H 30.1051 4.06067 -4.41848 0
M  V30 310 H 31.1751 2.70273 -4.02592 0
M  V30 311 N 32.5182 1.22032 0.997298 0
M  V30 312 C 33.4652 0.986467 2.08656 0
M  V30 313 C 34.4352 -0.0902671 1.65855 0
M  V30 314 O 35.6202 0.0584294 1.90711 0
M  V30 315 C 32.7602 0.565569 3.40434 0
M  V30 316 C 31.8732 1.71259 3.96604 0
M  V30 317 C 31.0082 1.24011 5.16522 0
M  V30 318 C 30.0472 2.35896 5.64818 0
M  V30 319 N 29.1842 1.89726 6.7598 0
M  V30 320 H 34.0242 1.91892 2.27994 0
M  V30 321 H 31.5612 0.956199 1.11782 0
M  V30 322 H 33.5192 0.302738 4.161 0
M  V30 323 H 32.1492 -0.329879 3.2111 0
M  V30 324 H 31.2012 2.08986 3.17851 0
M  V30 325 H 32.5132 2.55436 4.28432 0
M  V30 326 H 31.6672 0.934395 5.99461 0
M  V30 327 H 30.4062 0.368487 4.86306 0
M  V30 328 H 29.4112 2.67261 4.8047 0
M  V30 329 H 30.6362 3.23567 5.97061 0
M  V30 330 H 28.5822 1.0492 6.47555 0
M  V30 331 H 28.4992 2.67471 7.07103 0
M  V30 332 H 29.7672 1.62211 7.62435 0
M  V30 333 N 33.9963 -1.19345 1.0293 0
M  V30 334 C 34.9263 -2.2481 0.631105 0
M  V30 335 C 35.9073 -1.66245 -0.360104 0
M  V30 336 O 37.0923 -1.92677 -0.242726 0
M  V30 337 C 34.2223 -3.47295 -0.0184607 0
M  V30 338 C 33.1763 -4.18536 0.895073 0
M  V30 339 C 32.5023 -5.34586 0.110592 0
M  V30 340 C 33.8023 -4.73287 2.209 0
M  V30 341 H 35.4963 -2.58372 1.51275 0
M  V30 342 H 33.0423 -1.24194 0.728818 0
M  V30 343 H 34.9953 -4.20268 -0.308675 0
M  V30 344 H 33.7193 -3.12933 -0.934907 0
M  V30 345 H 32.3783 -3.47446 1.16949 0
M  V30 346 H 32.0263 -4.96469 -0.807902 0
M  V30 347 H 31.7263 -5.83183 0.719087 0
M  V30 348 H 33.2503 -6.10355 -0.172871 0
M  V30 349 H 34.6643 -5.38013 1.98028 0
M  V30 350 H 33.0613 -5.32373 2.76946 0
M  V30 351 H 34.1313 -3.91331 2.86336 0
M  V30 352 N 35.4744 -0.807222 -1.35358 0
M  V30 353 C 36.4044 -0.232509 -2.3234 0
M  V30 354 C 37.3854 0.642386 -1.57504 0
M  V30 355 O 38.5704 0.572526 -1.85569 0
M  V30 356 C 35.7004 0.619238 -3.41735 0
M  V30 357 C 34.6544 -0.157215 -4.27711 0
M  V30 358 C 33.9804 0.816273 -5.28433 0
M  V30 359 C 35.2804 -1.35656 -5.04376 0
M  V30 360 H 36.9744 -1.04276 -2.80654 0
M  V30 361 H 34.5204 -0.50288 -1.34934 0
M  V30 362 H 36.4734 1.03137 -4.08584 0
M  V30 363 H 35.1974 1.46239 -2.92031 0
M  V30 364 H 33.8564 -0.550525 -3.62443 0
M  V30 365 H 33.5044 1.65494 -4.74996 0
M  V30 366 H 33.2044 0.301067 -5.86828 0
M  V30 367 H 34.7284 1.22659 -5.98153 0
M  V30 368 H 36.1424 -1.01927 -5.64166 0
M  V30 369 H 34.5394 -1.8063 -5.7227 0
M  V30 370 H 35.6094 -2.14288 -4.34981 0
M  V30 371 N 36.9525 1.47285 -0.560781 0
M  V30 372 C 37.9155 2.28535 0.174488 0
M  V30 373 C 38.9155 1.37153 0.839388 0
M  V30 374 O 40.1055 1.59748 0.694702 0
M  V30 375 C 37.2375 3.16934 1.25561 0
M  V30 376 H 38.4305 2.95012 -0.539262 0
M  V30 377 H 35.9835 1.53034 -0.317865 0
M  V30 378 H 36.7185 2.55157 2.00164 0
M  V30 379 H 36.5035 3.8419 0.783604 0
M  V30 380 H 37.9935 3.78143 1.77193 0
M  V30 381 N 38.4306 0.297415 1.54768 0
M  V30 382 C 39.3636 -0.622188 2.19554 0
M  V30 383 C 40.3416 -1.13558 1.16376 0
M  V30 384 O 41.5256 -1.20444 1.45002 0
M  V30 385 C 38.6526 -1.8509 2.83653 0
M  V30 386 C 37.6986 -1.47106 4.00328 0
M  V30 387 S 38.5316 -0.53006 5.3287 0
M  V30 388 C 39.6876 -1.76665 6.0045 0
M  V30 389 H 39.9206 -0.0717806 2.97213 0
M  V30 390 H 37.4536 0.0815678 1.54184 0
M  V30 391 H 39.4116 -2.55605 3.21211 0
M  V30 392 H 38.0726 -2.37247 2.05846 0
M  V30 393 H 37.2656 -2.38594 4.43947 0
M  V30 394 H 36.8676 -0.845885 3.64309 0
M  V30 395 H 39.1596 -2.7077 6.21039 0
M  V30 396 H 40.1026 -1.37308 6.9466 0
M  V30 397 H 40.5106 -1.94174 5.30054 0
M  V30 398 N 39.9087 -1.5758 0.0250728 0
M  V30 399 C 41.1567 -1.91255 -0.653151 0
M  V30 400 C 41.4777 -0.901691 -1.729 0
M  V30 401 O 40.7477 0.0573785 -1.95816 0
M  V30 402 H 39.3277 -0.705942 -0.244243 0
M  V30 403 H 41.9897 -1.94767 0.0719209 0
M  V30 404 H 41.0857 -2.91752 -1.10847 0
M  V30 405 N 41.3868 0.248026 -1.55636 0
M  V30 406 C 42.3188 1.32993 -1.8667 0
M  V30 407 C 43.3318 1.44345 -0.752877 0
M  V30 408 O 44.5208 1.45715 -1.03098 0
M  V30 409 C 41.6208 2.70863 -2.03682 0
M  V30 410 C 40.7938 2.81792 -3.34532 0
M  V30 411 C 39.8528 4.005 -3.41301 0
M  V30 412 O 38.8788 3.9008 -4.14519 0
M  V30 413 N 40.0808 5.13618 -2.70512 0
M  V30 414 H 42.8458 1.06707 -2.8006 0
M  V30 415 H 40.4068 0.438129 -1.55859 0
M  V30 416 H 42.3988 3.48612 -2.05553 0
M  V30 417 H 40.9688 2.89862 -1.17041 0
M  V30 418 H 40.1888 1.90729 -3.44987 0
M  V30 419 H 41.4768 2.86043 -4.20781 0
M  V30 420 H 40.8748 5.24975 -2.10755 0
M  V30 421 H 39.4318 5.89505 -2.78077 0
M  V30 422 N 42.8649 1.48995 0.513639 0
M  V30 423 C 43.7749 1.67443 1.64317 0
M  V30 424 C 44.7909 0.556947 1.64846 0
M  V30 425 O 45.9669 0.830082 1.83498 0
M  V30 426 C 43.0319 1.72515 3.00732 0
M  V30 427 C 42.0929 2.96009 3.1093 0
M  V30 428 C 41.3259 3.00829 4.40837 0
M  V30 429 O 41.5489 2.13594 5.28898 0
M  V30 430 O 40.4829 3.93168 4.55744 0
M  V30 431 H 44.3089 2.63106 1.51687 0
M  V30 432 H 41.8939 1.32588 0.688543 0
M  V30 433 H 43.7759 1.78277 3.81831 0
M  V30 434 H 42.4509 0.800278 3.13651 0
M  V30 435 H 41.3579 2.9577 2.29065 0
M  V30 436 H 42.6909 3.87934 3.02933 0
M  V30 437 N 44.343 -0.763751 1.37857 0
M  V30 438 C 45.273 -1.89103 1.36975 0
M  V30 439 C 46.254 -1.68439 0.237152 0
M  V30 440 O 47.439 -1.8918 0.438713 0
M  V30 441 C 44.569 -3.26496 1.18395 0
M  V30 442 C 43.523 -3.61741 2.28751 0
M  V30 443 C 42.849 -4.97762 1.95286 0
M  V30 444 C 44.149 -3.67665 3.70972 0
M  V30 445 H 45.843 -1.90099 2.31307 0
M  V30 446 H 43.389 -0.91319 1.11341 0
M  V30 447 H 45.342 -4.05003 1.16406 0
M  V30 448 H 44.066 -3.25955 0.205215 0
M  V30 449 H 42.725 -2.85547 2.29909 0
M  V30 450 H 42.373 -4.93769 0.959221 0
M  V30 451 H 42.073 -5.22313 2.69189 0
M  V30 452 H 43.597 -5.7866 1.94898 0
M  V30 453 H 45.011 -4.36307 3.719 0
M  V30 454 H 43.408 -4.03718 4.43995 0
M  V30 455 H 44.478 -2.68134 4.0402 0
M  V30 456 N 45.8211 -1.22559 -0.990812 0
M  V30 457 C 47.0461 -1.07862 -1.77145 0
M  V30 458 C 47.4711 0.366447 -1.84496 0
M  V30 459 O 46.8291 1.26478 -1.29896 0
M  V30 460 C 46.8771 -1.69686 -3.18181 0
M  V30 461 O 45.9811 -0.951946 -4.01263 0
M  V30 462 H 45.3221 -0.378712 -0.545411 0
M  V30 463 H 47.8521 -1.62399 -1.2445 0
M  V30 464 H 47.8621 -1.74496 -3.68802 0
M  V30 465 H 46.5371 -2.74841 -3.12146 0
M  V30 466 H 45.1141 -0.980011 -3.59792 0
M  V30 467 N 47.2992 1.18797 -1.03562 0
M  V30 468 C 48.7102 1.70322 -0.764676 0
M  V30 469 C 49.0612 1.82708 0.714996 0
M  V30 470 O 48.1862 1.50299 1.55689 0
M  V30 471 C 48.7812 3.09356 -1.38145 0
M  V30 472 C 47.3402 3.58114 -1.15895 0
M  V30 473 C 46.4872 2.34798 -1.4753 0
M  V30 474 H 49.4382 1.03543 -1.20268 0
M  V30 475 H 49.4592 3.72378 -0.781977 0
M  V30 476 H 48.9712 3.00309 -2.45837 0
M  V30 477 H 47.0722 3.72464 -0.100544 0
M  V30 478 H 47.1852 4.4184 -1.8524 0
M  V30 479 H 45.5492 2.38464 -0.894829 0
M  V30 480 H 46.3322 2.28375 -2.56319 0
M  V30 481 N 48.7773 0.814389 1.34928 0
M  V30 482 C 49.7403 0.235759 2.27984 0
M  V30 483 C 50.7403 -0.581412 1.49921 0
M  V30 484 O 51.9303 -0.398758 1.69575 0
M  V30 485 C 49.0623 -0.670433 3.34242 0
M  V30 486 H 50.2553 1.05659 2.80671 0
M  V30 487 H 47.8083 0.585614 1.44915 0
M  V30 488 H 48.5433 -1.51466 2.86755 0
M  V30 489 H 48.3283 -0.0860822 3.92005 0
M  V30 490 H 49.8183 -1.06935 4.03676 0
M  V30 491 N 50.2554 -1.46986 0.568584 0
M  V30 492 C 51.1874 -2.28233 -0.210337 0
M  V30 493 C 52.2004 -1.37682 -0.868767 0
M  V30 494 O 53.3894 -1.62406 -0.740705 0
M  V30 495 C 50.4894 -3.12293 -1.3163 0
M  V30 496 C 49.6624 -4.30878 -0.7525 0
M  V30 497 C 48.7214 -4.96445 -1.74439 0
M  V30 498 O 47.7474 -5.54482 -1.286 0
M  V30 499 N 48.9494 -4.92171 -3.07812 0
M  V30 500 H 51.7144 -2.95723 0.486648 0
M  V30 501 H 49.2754 -1.56742 0.405409 0
M  V30 502 H 51.2674 -3.53022 -1.97883 0
M  V30 503 H 49.8374 -2.46971 -1.91636 0
M  V30 504 H 49.0574 -3.94104 0.0871128 0
M  V30 505 H 50.3454 -5.07558 -0.35536 0
M  V30 506 H 49.7434 -4.46239 -3.47688 0
M  V30 507 H 48.3004 -5.36884 -3.69592 0
M  V30 508 N 51.7335 -0.305618 -1.54608 0
M  V30 509 C 52.6655 0.602161 -2.21149 0
M  V30 510 C 53.6785 1.09394 -1.20569 0
M  V30 511 O 54.8675 1.0106 -1.47136 0
M  V30 512 C 51.9675 1.83692 -2.84799 0
M  V30 513 C 51.1405 1.48686 -4.11353 0
M  V30 514 C 50.1995 2.57725 -4.58764 0
M  V30 515 O 49.2255 2.22623 -5.23858 0
M  V30 516 N 50.4275 3.88346 -4.31471 0
M  V30 517 H 53.1925 0.0324966 -2.99682 0
M  V30 518 H 50.7535 -0.128021 -1.61393 0
M  V30 519 H 52.7455 2.55994 -3.13448 0
M  V30 520 H 51.3155 2.31486 -2.10078 0
M  V30 521 H 50.5355 0.596269 -3.89664 0
M  V30 522 H 51.8235 1.22842 -4.93748 0
M  V30 523 H 51.2215 4.19671 -3.79331 0
M  V30 524 H 49.7785 4.56932 -4.64818 0
M  V30 525 N 53.2116 1.57565 -0.0334293 0
M  V30 526 C 54.1586 2.10478 0.946981 0
M  V30 527 C 55.1286 1.00787 1.32027 0
M  V30 528 O 56.3136 1.28232 1.41284 0
M  V30 529 C 53.4536 2.63994 2.22263 0
M  V30 530 C 52.5666 3.87709 1.90541 0
M  V30 531 C 51.7016 4.29604 3.12433 0
M  V30 532 C 50.7406 5.46065 2.76549 0
M  V30 533 N 49.8776 5.83096 3.9108 0
M  V30 534 H 54.7176 2.93963 0.488846 0
M  V30 535 H 52.2546 1.45296 0.22969 0
M  V30 536 H 54.2126 2.93114 2.96884 0
M  V30 537 H 52.8426 1.83333 2.65685 0
M  V30 538 H 51.8946 3.65291 1.06144 0
M  V30 539 H 53.2066 4.72403 1.60116 0
M  V30 540 H 52.3606 4.60182 3.9537 0
M  V30 541 H 51.0996 3.43685 3.46023 0
M  V30 542 H 50.1046 5.15176 1.92026 0
M  V30 543 H 51.3296 6.33685 2.44171 0
M  V30 544 H 49.2756 5.00132 4.24504 0
M  V30 545 H 49.1926 6.6244 3.64293 0
M  V30 546 H 50.4606 6.18282 4.74708 0
M  V30 547 N 54.6897 -0.239769 1.55765 0
M  V30 548 C 55.5997 -1.31831 1.94056 0
M  V30 549 C 56.6157 -1.52275 0.841925 0
M  V30 550 O 57.7917 -1.65759 1.14394 0
M  V30 551 C 54.8567 -2.65156 2.23368 0
M  V30 552 C 53.9177 -2.53173 3.46701 0
M  V30 553 C 53.1507 -3.8014 3.74606 0
M  V30 554 O 53.3737 -4.82343 3.04469 0
M  V30 555 O 52.3077 -3.78344 4.68123 0
M  V30 556 H 56.1337 -1.02347 2.85935 0
M  V30 557 H 53.7187 -0.441123 1.42739 0
M  V30 558 H 55.6007 -3.43929 2.43497 0
M  V30 559 H 54.2757 -2.94358 1.34666 0
M  V30 560 H 53.1827 -1.72662 3.31871 0
M  V30 561 H 54.5157 -2.28915 4.35728 0
M  V30 562 N 56.1678 -1.49265 -0.50573 0
M  V30 563 C 57.1008 -1.60183 -1.62532 0
M  V30 564 C 58.0788 -0.451107 -1.56217 0
M  V30 565 O 59.2628 -0.666016 -1.76342 0
M  V30 566 C 56.3898 -1.55238 -3.01029 0
M  V30 567 C 55.4358 -2.7545 -3.25621 0
M  V30 568 S 56.2688 -4.37174 -3.09256 0
M  V30 569 C 57.4248 -4.34866 -4.50158 0
M  V30 570 H 57.6578 -2.54894 -1.53025 0
M  V30 571 H 55.1908 -1.38098 -0.690535 0
M  V30 572 H 57.1488 -1.53071 -3.80893 0
M  V30 573 H 55.8098 -0.618238 -3.07956 0
M  V30 574 H 55.0028 -2.68197 -4.26716 0
M  V30 575 H 54.6048 -2.75005 -2.53472 0
M  V30 576 H 56.8968 -4.06295 -5.42154 0
M  V30 577 H 57.8398 -5.36223 -4.62462 0
M  V30 578 H 58.2478 -3.65007 -4.30616 0
M  V30 579 N 57.6459 0.756429 -1.3826 0
M  V30 580 C 58.5929 1.87011 -1.35261 0
M  V30 581 C 59.5629 1.64695 -0.215616 0
M  V30 582 O 60.7479 1.864 -0.407399 0
M  V30 583 C 57.8879 3.24275 -1.18068 0
M  V30 584 C 57.0009 3.58442 -2.41129 0
M  V30 585 C 56.1359 4.84994 -2.16689 0
M  V30 586 C 55.1749 5.11939 -3.35537 0
M  V30 587 N 54.3119 6.29685 -3.10549 0
M  V30 588 H 59.1519 1.8891 -2.30472 0
M  V30 589 H 56.6889 0.923373 -1.14509 0
M  V30 590 H 58.6469 4.03479 -1.06116 0
M  V30 591 H 57.2769 3.21711 -0.264973 0
M  V30 592 H 56.3289 2.74103 -2.63764 0
M  V30 593 H 57.6409 3.74283 -3.29717 0
M  V30 594 H 56.7949 5.72135 -2.01857 0
M  V30 595 H 55.5339 4.71286 -1.25462 0
M  V30 596 H 54.5389 4.23268 -3.50891 0
M  V30 597 H 55.7639 5.27546 -4.27635 0
M  V30 598 H 53.7099 6.17306 -2.21967 0
M  V30 599 H 53.6269 6.46014 -3.92686 0
M  V30 600 H 54.8949 7.19722 -2.99367 0
M  V30 601 N 59.124 1.23083 0.984299 0
M  V30 602 C 60.401 0.9689 1.69917 0
M  V30 603 C 60.781 -0.513604 2.04757 0
M  V30 604 O 60.129 -1.48383 1.73767 0
M  V30 605 C 60.339 1.87518 2.94343 0
M  V30 606 C 61.687 2.13636 3.6694 0
M  V30 607 O 62.711 1.85036 3.04368 0
M  V30 608 O 61.57 2.62119 4.79537 0
M  V30 609 H 58.664 0.365095 0.742048 0
M  V30 610 H 61.21 1.34107 1.03987 0
M  V30 611 H 59.982 2.87756 2.65164 0
M  V30 612 H 59.605 1.50514 3.6801 0
M  V30 613 N 60.6021 -1.18246 1.0419 0
M  V30 614 C 61.8321 -1.91916 0.764961 0
M  V30 615 C 62.2401 -1.76485 -0.681898 0
M  V30 616 O 61.5831 -1.09275 -1.47664 0
M  V30 617 C 61.6451 -3.4373 1.05309 0
M  V30 618 C 61.3091 -3.8294 2.4941 0
M  V30 619 C 62.3061 -3.86621 3.47592 0
M  V30 620 C 59.9911 -4.142 2.84155 0
M  V30 621 C 61.9851 -4.21013 4.78568 0
M  V30 622 C 59.6721 -4.48262 4.15337 0
M  V30 623 C 60.6701 -4.51645 5.12353 0
M  V30 624 O 60.3581 -4.84911 6.41183 0
M  V30 625 H 60.0901 -0.61606 0.278292 0
M  V30 626 H 62.6441 -1.50947 1.39299 0
M  V30 627 H 60.8741 -3.84946 0.367933 0
M  V30 628 H 62.5631 -3.9865 0.763752 0
M  V30 629 H 63.3291 -3.62607 3.22089 0
M  V30 630 H 59.2081 -4.10743 2.09311 0
M  V30 631 H 62.7521 -4.23568 5.54289 0
M  V30 632 H 58.6491 -4.71737 4.40607 0
M  V30 633 H 59.4171 -5.02809 6.45852 0
M  V30 634 N 62.0802 -0.821533 -1.34494 0
M  V30 635 C 63.0272 -0.240397 -2.29545 0
M  V30 636 C 63.9972 0.634031 -1.53523 0
M  V30 637 O 65.1822 0.575966 -1.81899 0
M  V30 638 C 62.3222 0.592869 -3.39969 0
M  V30 639 C 61.4352 -0.30365 -4.30932 0
M  V30 640 C 60.5702 0.539049 -5.28458 0
M  V30 641 C 59.6092 -0.356942 -6.11058 0
M  V30 642 N 58.7462 0.446603 -7.00678 0
M  V30 643 H 63.5862 -1.05632 -2.7865 0
M  V30 644 H 61.1232 -0.532413 -1.37127 0
M  V30 645 H 63.0812 1.09129 -4.02675 0
M  V30 646 H 61.7112 1.37392 -2.92102 0
M  V30 647 H 60.7632 -0.920276 -3.691 0
M  V30 648 H 62.0752 -0.992661 -4.88823 0
M  V30 649 H 61.2292 1.102 -5.96608 0
M  V30 650 H 59.9682 1.26157 -4.71101 0
M  V30 651 H 58.9732 -0.932047 -5.41842 0
M  V30 652 H 60.1982 -1.07755 -6.70497 0
M  V30 653 H 58.1442 1.15282 -6.45791 0
M  V30 654 H 58.0612 -0.184048 -7.55776 0
M  V30 655 H 59.3292 0.992352 -7.73158 0
M  V30 656 N 63.5583 1.46682 -0.576371 0
M  V30 657 C 64.8053 2.02412 -0.0595339 0
M  V30 658 C 65.1333 1.44859 1.29793 0
M  V30 659 O 64.3883 0.601099 1.8624 0
M  V30 660 C 64.6873 3.57345 0.062886 0
M  V30 661 C 64.3533 4.33908 -1.22616 0
M  V30 662 C 63.0153 4.54544 -1.57933 0
M  V30 663 C 65.3673 4.77919 -2.07948 0
M  V30 664 C 62.6953 5.16444 -2.78393 0
M  V30 665 C 65.0473 5.41149 -3.27629 0
M  V30 666 C 63.7113 5.60014 -3.63236 0
M  V30 667 H 62.9813 0.74068 -0.021785 0
M  V30 668 H 65.6283 1.76128 -0.751735 0
M  V30 669 H 63.9333 3.82729 0.838178 0
M  V30 670 H 65.6303 3.98136 0.478439 0
M  V30 671 H 62.2203 4.18138 -0.941202 0
M  V30 672 H 66.4043 4.61738 -1.81967 0
M  V30 673 H 61.6603 5.29242 -3.06126 0
M  V30 674 H 65.8343 5.74211 -3.94023 0
M  V30 675 H 63.4613 6.07748 -4.56669 0
M  V30 676 N 65.0364 0.313813 1.54444 0
M  V30 677 C 66.2824 -0.284918 2.01395 0
M  V30 678 C 66.6374 -1.50537 1.19818 0
M  V30 679 O 65.9304 -1.89692 0.269748 0
M  V30 680 C 66.1244 -0.680386 3.50864 0
M  V30 681 C 65.9534 0.500198 4.4691 0
M  V30 682 C 64.7234 0.996248 4.95382 0
M  V30 683 C 66.9214 1.34928 4.96285 0
M  V30 684 N 64.9034 2.14226 5.75309 0
M  V30 685 C 66.2744 2.3426 5.7404 0
M  V30 686 C 68.3294 1.37818 4.78446 0
M  V30 687 C 67.0324 3.36272 6.35856 0
M  V30 688 C 69.0584 2.38695 5.4109 0
M  V30 689 C 68.4204 3.36755 6.18688 0
M  V30 690 H 64.5194 -0.0683689 0.779006 0
M  V30 691 H 67.1034 0.44664 1.89508 0
M  V30 692 H 65.2744 -1.38109 3.63016 0
M  V30 693 H 67.0064 -1.25975 3.84594 0
M  V30 694 H 63.7614 0.56912 4.70168 0
M  V30 695 H 64.1854 2.72005 6.19953 0
M  V30 696 H 68.8274 0.633747 4.18023 0
M  V30 697 H 66.5454 4.11627 6.95405 0
M  V30 698 H 70.1314 2.41721 5.29209 0
M  V30 699 H 69.0114 4.13535 6.66302 0
M  V30 700 N 66.5145 -1.57545 0.0417849 0
M  V30 701 C 67.4615 -2.10977 -0.935805 0
M  V30 702 C 68.4315 -1.01486 -1.31491 0
M  V30 703 O 69.6165 -1.2898 -1.40602 0
M  V30 704 C 66.7565 -2.65169 -2.2086 0
M  V30 705 C 65.8695 -3.88714 -1.88482 0
M  V30 706 C 65.0045 -4.31254 -3.1015 0
M  V30 707 C 64.0435 -5.47524 -2.7365 0
M  V30 708 N 63.1805 -5.85162 -3.87982 0
M  V30 709 H 68.0205 -2.94218 -0.473249 0
M  V30 710 H 65.5575 -1.45415 -0.221981 0
M  V30 711 H 67.5155 -2.94685 -2.95325 0
M  V30 712 H 66.1455 -1.8474 -2.64709 0
M  V30 713 H 65.1975 -3.65849 -1.04205 0
M  V30 714 H 66.5095 -4.73245 -1.57608 0
M  V30 715 H 65.6635 -4.62273 -3.92923 0
M  V30 716 H 64.4025 -3.45516 -3.44195 0
M  V30 717 H 63.4075 -5.16187 -1.89291 0
M  V30 718 H 64.6325 -6.34971 -2.40807 0
M  V30 719 H 62.5785 -5.02377 -4.21846 0
M  V30 720 H 62.4955 -6.64362 -3.60775 0
M  V30 721 H 63.7635 -6.20791 -4.71422 0
M  V30 722 N 67.9926 0.231505 -1.5589 0
M  V30 723 C 69.2206 0.974505 -1.82513 0
M  V30 724 C 69.6356 1.78344 -0.619591 0
M  V30 725 O 68.9926 1.77792 0.411848 0
M  V30 726 C 69.0436 1.90007 -3.07538 0
M  V30 727 O 68.7646 1.12385 -4.2344 0
M  V30 728 C 70.2656 2.75779 -3.47075 0
M  V30 729 H 67.4856 0.286065 -0.606966 0
M  V30 730 H 70.0296 0.249739 -2.02969 0
M  V30 731 H 68.1846 2.57891 -2.89086 0
M  V30 732 H 68.5986 1.75125 -4.944 0
M  V30 733 H 70.0726 3.36443 -4.37619 0
M  V30 734 H 70.5496 3.47672 -2.68367 0
M  V30 735 H 71.1556 2.13323 -3.67931 0
M  V30 736 N 69.4707 1.49531 0.497807 0
M  V30 737 C 70.4027 1.62559 1.61578 0
M  V30 738 C 71.4157 0.508134 1.54667 0
M  V30 739 O 72.6047 0.780309 1.60541 0
M  V30 740 C 69.7047 1.56925 3.00379 0
M  V30 741 C 68.8777 2.84257 3.3244 0
M  V30 742 C 67.9367 2.71632 4.50669 0
M  V30 743 O 66.9627 3.4557 4.52294 0
M  V30 744 N 68.1647 1.83391 5.5077 0
M  V30 745 H 70.9297 2.58981 1.50828 0
M  V30 746 H 68.4907 1.4666 0.685743 0
M  V30 747 H 70.4827 1.46129 3.77397 0
M  V30 748 H 69.0527 0.683483 3.05037 0
M  V30 749 H 68.2727 3.09381 2.44289 0
M  V30 750 H 69.5607 3.68666 3.5066 0
M  V30 751 H 68.9587 1.22583 5.52259 0
M  V30 752 H 67.5157 1.78515 6.26878 0
M  V30 753 N 70.9488 -0.749086 1.3866 0
M  V30 754 C 72.3598 -1.32664 1.31366 0
M  V30 755 C 72.7108 -1.96179 -0.028484 0
M  V30 756 O 71.8358 -1.9537 -0.93057 0
M  V30 757 C 72.4308 -2.41219 2.37905 0
M  V30 758 C 70.9898 -2.94684 2.34176 0
M  V30 759 C 70.1368 -1.68108 2.20533 0
M  V30 760 H 73.0878 -0.547628 1.48952 0
M  V30 761 H 73.1088 -3.21268 2.0388 0
M  V30 762 H 72.6208 -1.94962 3.35576 0
M  V30 763 H 70.7218 -3.45258 1.401 0
M  V30 764 H 70.8348 -3.48757 3.2849 0
M  V30 765 H 69.1988 -1.91907 1.67463 0
M  V30 766 H 69.9818 -1.23923 3.20153 0
M  V30 767 N 72.4269 -1.23603 -0.977757 0
M  V30 768 C 73.6729 -1.07129 -1.72195 0
M  V30 769 C 74.0059 0.390501 -1.90233 0
M  V30 770 O 73.2809 1.28902 -1.45653 0
M  V30 771 C 73.5639 -1.80031 -3.11867 0
M  V30 772 C 73.4169 -3.33899 -3.01383 0
M  V30 773 C 74.7359 -1.56492 -4.11337 0
M  V30 774 H 71.8549 -0.390571 -0.624999 0
M  V30 775 H 74.4969 -1.52142 -1.13811 0
M  V30 776 H 72.6469 -1.41768 -3.6171 0
M  V30 777 H 74.3189 -3.81699 -2.59043 0
M  V30 778 H 72.5619 -3.62796 -2.37827 0
M  V30 779 H 73.2329 -3.801 -4.00285 0
M  V30 780 H 75.7089 -1.89757 -3.70313 0
M  V30 781 H 74.5849 -2.09973 -5.07151 0
M  V30 782 H 74.8459 -0.500874 -4.39254 0
M  V30 783 N 73.905 1.17692 -1.04816 0
M  V30 784 C 75.316 1.69501 -0.782698 0
M  V30 785 C 75.667 1.83456 0.695577 0
M  V30 786 O 74.792 1.51942 1.54086 0
M  V30 787 C 75.387 3.07874 -1.41419 0
M  V30 788 C 73.946 3.56864 -1.19686 0
M  V30 789 C 73.093 2.3322 -1.50012 0
M  V30 790 H 76.044 1.02262 -1.2136 0
M  V30 791 H 76.065 3.71528 -0.821428 0
M  V30 792 H 75.577 2.97685 -2.49009 0
M  V30 793 H 73.678 3.72337 -0.140043 0
M  V30 794 H 73.791 4.39851 -1.89916 0
M  V30 795 H 72.155 2.37501 -0.920071 0
M  V30 796 H 72.938 2.25644 -2.58727 0
M  V30 797 N 75.3831 0.828654 1.34056 0
M  V30 798 C 76.6081 0.431637 2.02859 0
M  V30 799 C 77.0331 -0.956339 1.61975 0
M  V30 800 O 76.3911 -1.62338 0.807228 0
M  V30 801 C 76.4391 0.548323 3.56407 0
M  V30 802 O 75.5431 -0.429556 4.10157 0
M  V30 803 H 74.8841 0.176886 0.640006 0
M  V30 804 H 77.4141 1.12066 1.71179 0
M  V30 805 H 77.4241 0.426196 4.05768 0
M  V30 806 H 76.0991 1.5606 3.8551 0
M  V30 807 H 74.6761 -0.265836 3.71951 0
M  V30 808 N 76.8612 -1.46375 0.584142 0
M  V30 809 C 77.7912 -2.33103 -0.136037 0
M  V30 810 C 78.7722 -1.45431 -0.882255 0
M  V30 811 O 79.9572 -1.74246 -0.857434 0
M  V30 812 C 77.0872 -3.27731 -1.14933 0
M  V30 813 C 76.0412 -4.24855 -0.517862 0
M  V30 814 C 75.3672 -5.09001 -1.63773 0
M  V30 815 C 76.6672 -5.19439 0.545886 0
M  V30 816 H 78.3612 -2.93568 0.588086 0
M  V30 817 H 75.9072 -1.41166 0.284259 0
M  V30 818 H 77.8602 -3.87261 -1.66153 0
M  V30 819 H 76.5842 -2.65377 -1.90375 0
M  V30 820 H 75.2432 -3.6659 -0.0267361 0
M  V30 821 H 74.8912 -4.43031 -2.38185 0
M  V30 822 H 74.5912 -5.74777 -1.22085 0
M  V30 823 H 76.1152 -5.71396 -2.15266 0
M  V30 824 H 77.5292 -5.73177 0.118704 0
M  V30 825 H 75.9262 -5.93566 0.88317 0
M  V30 826 H 76.9962 -4.63285 1.43162 0
M  V30 827 N 78.3393 -0.321999 -1.54275 0
M  V30 828 C 79.5643 0.285791 -2.05422 0
M  V30 829 C 79.9893 1.45124 -1.19669 0
M  V30 830 O 79.3473 1.80132 -0.205441 0
M  V30 831 C 79.3953 0.69956 -3.53749 0
M  V30 832 O 78.4993 1.8021 -3.70942 0
M  V30 833 H 77.8403 0.0518962 -0.661969 0
M  V30 834 H 80.3703 -0.469954 -1.9913 0
M  V30 835 H 80.3803 0.982649 -3.9599 0
M  V30 836 H 79.0553 -0.152864 -4.15619 0
M  V30 837 H 77.6323 1.51794 -3.40607 0
M  V30 838 N 79.8174 1.5752 -0.0501392 0
M  V30 839 C 80.7274 2.14952 0.939827 0
M  V30 840 C 81.7434 1.10706 1.34239 0
M  V30 841 O 82.9194 1.42869 1.41952 0
M  V30 842 C 79.9844 2.68232 2.19665 0
M  V30 843 C 79.0454 3.87272 1.85253 0
M  V30 844 C 78.2784 4.38002 3.04943 0
M  V30 845 O 78.5014 3.87811 4.18281 0
M  V30 846 O 77.4354 5.29602 2.86017 0
M  V30 847 H 81.2614 2.9986 0.481392 0
M  V30 848 H 78.8464 1.4841 0.171699 0
M  V30 849 H 80.7284 3.02475 2.93406 0
M  V30 850 H 79.4034 1.86395 2.64648 0
M  V30 851 H 78.3104 3.5792 1.0883 0
M  V30 852 H 79.6434 4.70336 1.4507 0
M  V30 853 N 81.2955 -0.223234 1.56011 0
M  V30 854 C 82.5235 -0.964812 1.83027 0
M  V30 855 C 82.9385 -1.78013 0.62904 0
M  V30 856 O 82.2955 -1.78008 -0.402414 0
M  V30 857 C 82.3465 -1.88373 3.08542 0
M  V30 858 O 82.0675 -1.10137 4.2403 0
M  V30 859 C 83.5685 -2.73934 3.48533 0
M  V30 860 H 80.7885 -0.282842 0.608475 0
M  V30 861 H 83.3325 -0.238971 2.03099 0
M  V30 862 H 81.4875 -2.56354 2.9045 0
M  V30 863 H 81.9015 -1.72501 4.95322 0
M  V30 864 H 83.3755 -3.34117 4.39397 0
M  V30 865 H 83.8525 -3.46244 2.70207 0
M  V30 866 H 84.4585 -2.11369 3.69057 0
M  V30 867 N 82.7736 -1.49793 -0.48987 0
M  V30 868 C 84.0196 -1.60078 -1.24511 0
M  V30 869 C 84.3526 -0.291608 -1.91998 0
M  V30 870 O 83.6276 0.705647 -1.81248 0
M  V30 871 C 83.9106 -2.76791 -2.30345 0
M  V30 872 C 83.7636 -4.17535 -1.67286 0
M  V30 873 C 85.0826 -2.89111 -3.31817 0
M  V30 874 H 82.2016 -0.582645 -0.451324 0
M  V30 875 H 84.8436 -1.82117 -0.541612 0
M  V30 876 H 82.9936 -2.5813 -2.90346 0
M  V30 877 H 84.6656 -4.4774 -1.11026 0
M  V30 878 H 82.9086 -4.22665 -0.976577 0
M  V30 879 H 83.5796 -4.95094 -2.44103 0
M  V30 880 H 86.0556 -3.06133 -2.81819 0
M  V30 881 H 84.9316 -3.72433 -4.03219 0
M  V30 882 H 85.1926 -1.9893 -3.94815 0
M  V30 883 N 84.2517 0.741722 -1.39055 0
M  V30 884 C 85.4797 1.53098 -1.39171 0
M  V30 885 C 85.8947 1.88794 0.0155099 0
M  V30 886 O 85.2517 1.53626 0.985159 0
M  V30 887 C 85.3027 2.82274 -2.2584 0
M  V30 888 O 85.0237 2.48097 -3.61081 0
M  V30 889 C 86.5247 3.76343 -2.34266 0
M  V30 890 H 83.7447 0.473335 -0.4756 0
M  V30 891 H 86.2887 0.917045 -1.82785 0
M  V30 892 H 84.4437 3.40015 -1.85656 0
M  V30 893 H 84.8577 3.31029 -4.06842 0
M  V30 894 H 86.3317 4.63898 -2.9917 0
M  V30 895 H 86.8087 4.17619 -1.35982 0
M  V30 896 H 87.4147 3.24523 -2.74891 0
M  V30 897 N 85.7298 1.2412 0.971189 0
M  V30 898 C 86.6398 1.04747 2.09917 0
M  V30 899 C 87.6558 -0.0107162 1.73997 0
M  V30 900 O 88.8318 0.186714 2.00533 0
M  V30 901 C 85.8968 0.650828 3.40537 0
M  V30 902 C 84.9578 1.7851 3.90426 0
M  V30 903 C 84.1908 1.40729 5.14812 0
M  V30 904 O 84.4138 0.29557 5.69634 0
M  V30 905 O 83.3478 2.23168 5.58999 0
M  V30 906 H 87.1738 1.99304 2.29154 0
M  V30 907 H 84.7588 1.02908 1.08307 0
M  V30 908 H 86.6408 0.440992 4.19086 0
M  V30 909 H 85.3158 -0.265649 3.22608 0
M  V30 910 H 84.2228 2.04966 3.12953 0
M  V30 911 H 85.5558 2.68023 4.12825 0
M  V30 912 N 87.2079 -1.17134 1.05439 0
M  V30 913 C 88.1179 -2.24878 0.668365 0
M  V30 914 C 89.1339 -1.71186 -0.311687 0
M  V30 915 O 90.3099 -2.00738 -0.163161 0
M  V30 916 C 87.3749 -3.46662 0.051648 0
M  V30 917 C 86.4359 -4.15429 1.08246 0
M  V30 918 C 85.6689 -5.31399 0.495082 0
M  V30 919 O 85.8919 -5.66153 -0.694743 0
M  V30 920 O 84.8259 -5.89187 1.23056 0
M  V30 921 H 88.6519 -2.60189 1.56637 0
M  V30 922 H 86.2369 -1.24482 0.826104 0
M  V30 923 H 88.1189 -4.20394 -0.290966 0
M  V30 924 H 86.7939 -3.13142 -0.819971 0
M  V30 925 H 85.7009 -3.43704 1.47711 0
M  V30 926 H 87.0339 -4.52982 1.92532 0
M  V30 927 N 88.686 -0.835752 -1.33615 0
M  V30 928 C 89.934 -0.429109 -1.97492 0
M  V30 929 C 90.255 1.01433 -1.66543 0
M  V30 930 O 89.525 1.70611 -0.962744 0
M  V30 931 H 88.105 -0.155686 -0.730596 0
M  V30 932 H 90.767 -1.06802 -1.63031 0
M  V30 933 H 89.863 -0.55861 -3.0706 0
M  V30 934 N 90.1641 1.46063 -0.591896 0
M  V30 935 C 91.5751 1.85944 -0.167822 0
M  V30 936 C 91.9261 1.49429 1.27143 0
M  V30 937 O 91.0511 0.913515 1.96173 0
M  V30 938 C 91.6461 3.37489 -0.297794 0
M  V30 939 C 90.2051 3.76332 0.0714732 0
M  V30 940 C 89.3521 2.7006 -0.629509 0
M  V30 941 H 92.3031 1.37087 -0.799555 0
M  V30 942 H 92.3241 3.77532 0.474349 0
M  V30 943 H 91.8361 3.64034 -1.3454 0
M  V30 944 H 89.9371 3.55405 1.11886 0
M  V30 945 H 90.0501 4.78088 -0.311245 0
M  V30 946 H 88.4141 2.54607 -0.0687867 0
M  V30 947 H 89.1971 2.99444 -1.67894 0
M  V30 948 N 91.6422 0.330177 1.54103 0
M  V30 949 C 92.8912 -0.271336 1.99867 0
M  V30 950 C 93.2042 -1.52723 1.22209 0
M  V30 951 O 94.4102 -2.20515 1.58383 0
M  V30 952 C 92.8662 -0.534032 3.55916 0
M  V30 953 C 92.4742 0.705193 4.42415 0
M  V30 954 C 94.2182 -1.09514 4.1013 0
M  V30 955 C 92.1252 0.414035 5.89949 0
M  V30 956 H 91.0552 -0.105166 0.74663 0
M  V30 957 H 93.7062 0.443429 1.78062 0
M  V30 958 H 92.0882 -1.30915 3.73734 0
M  V30 959 H 93.2622 1.4804 4.36372 0
M  V30 960 H 91.5772 1.18698 3.99124 0
M  V30 961 H 94.1742 -1.3277 5.17954 0
M  V30 962 H 94.5172 -2.04656 3.62521 0
M  V30 963 H 95.0502 -0.381038 3.95971 0
M  V30 964 H 91.7892 1.33481 6.41766 0
M  V30 965 H 91.3092 -0.323336 5.98928 0
M  V30 966 H 92.9882 0.0263105 6.46995 0
M  V30 967 N 93.1203 -1.57491 0.0584922 0
M  V30 968 C 94.3973 -1.84346 -0.653918 0
M  V30 969 C 94.7773 -0.948355 -1.88599 0
M  V30 970 O 94.1253 -0.0112403 -2.28497 0
M  V30 971 C 94.3353 -3.34239 -1.00425 0
M  V30 972 C 95.6833 -4.01431 -1.38342 0
M  V30 973 O 96.7073 -3.38907 -1.09637 0
M  V30 974 O 95.5663 -5.11683 -1.91943 0
M  V30 975 H 92.6603 -0.761112 -0.323478 0
M  V30 976 H 95.2063 -1.6947 0.0884125 0
M  V30 977 H 93.9783 -3.91089 -0.128625 0
M  V30 978 H 93.6013 -3.54329 -1.80378 0
M  V30 979 N 94.5984 0.214957 -1.56127 0
M  V30 980 C 95.5454 1.26642 -1.92952 0
M  V30 981 C 96.5154 1.46244 -0.78753 0
M  V30 982 O 97.7004 1.59704 -1.04399 0
M  V30 983 C 94.8404 2.6104 -2.25726 0
M  V30 984 C 93.9534 2.49183 -3.52891 0
M  V30 985 C 93.0884 3.76149 -3.7508 0
M  V30 986 C 92.1274 3.59041 -4.95738 0
M  V30 987 N 91.2644 4.77972 -5.14283 0
M  V30 988 H 96.1044 0.945384 -2.82607 0
M  V30 989 H 93.6414 0.455489 -1.3987 0
M  V30 990 H 95.5994 3.39313 -2.42739 0
M  V30 991 H 94.2294 2.91227 -1.39236 0
M  V30 992 H 93.2814 1.6231 -3.44034 0
M  V30 993 H 94.5934 2.32466 -4.41318 0
M  V30 994 H 93.7474 4.62865 -3.92226 0
M  V30 995 H 92.4864 3.95799 -2.84947 0
M  V30 996 H 91.4914 2.7071 -4.78535 0
M  V30 997 H 92.7164 3.40856 -5.87362 0
M  V30 998 H 90.6624 4.97923 -4.27093 0
M  V30 999 H 90.5794 4.64006 -5.96853 0
M  V30 1000 H 91.8474 5.66096 -5.35869 0
M  V30 1001 N 96.0765 1.50051 0.48192 0
M  V30 1002 C 97.0065 1.71046 1.58951 0
M  V30 1003 C 97.9875 0.559288 1.60642 0
M  V30 1004 O 99.1725 0.797243 1.77081 0
M  V30 1005 C 96.3025 1.79462 2.97339 0
M  V30 1006 C 95.2565 2.94558 3.10515 0
M  V30 1007 C 94.5825 2.88105 4.50444 0
M  V30 1008 C 95.8825 4.35227 2.88747 0
M  V30 1009 H 97.5765 2.6378 1.41635 0
M  V30 1010 H 95.1225 1.26936 0.679942 0
M  V30 1011 H 97.0755 1.92734 3.74742 0
M  V30 1012 H 95.7995 0.833412 3.15788 0
M  V30 1013 H 94.4585 2.80918 2.35543 0
M  V30 1014 H 94.1065 1.89853 4.65795 0
M  V30 1015 H 93.8065 3.65366 4.60197 0
M  V30 1016 H 95.3305 3.03412 5.29881 0
M  V30 1017 H 96.7445 4.49449 3.55905 0
M  V30 1018 H 95.1415 5.13856 3.09955 0
M  V30 1019 H 96.2115 4.48347 1.84696 0
M  V30 1020 N 97.5546 -0.734337 1.39446 0
M  V30 1021 C 98.5016 -1.84835 1.38219 0
M  V30 1022 C 99.4716 -1.64331 0.24179 0
M  V30 1023 O 100.657 -1.85728 0.437002 0
M  V30 1024 C 97.7966 -3.22355 1.23212 0
M  V30 1025 C 96.9096 -3.5456 2.46801 0
M  V30 1026 C 96.0446 -4.81485 2.24377 0
M  V30 1027 C 95.0836 -5.06536 3.43639 0
M  V30 1028 N 94.2206 -6.24665 3.20528 0
M  V30 1029 H 99.0606 -1.85219 2.33448 0
M  V30 1030 H 96.5976 -0.905039 1.15963 0
M  V30 1031 H 98.5556 -4.0174 1.12522 0
M  V30 1032 H 97.1856 -3.21248 0.316121 0
M  V30 1033 H 96.2376 -2.69872 2.68092 0
M  V30 1034 H 97.5496 -3.6899 3.3563 0
M  V30 1035 H 96.7036 -5.68852 2.10933 0
M  V30 1036 H 95.4426 -4.6923 1.32944 0
M  V30 1037 H 94.4476 -4.17632 3.5758 0
M  V30 1038 H 95.6726 -5.20676 4.35974 0
M  V30 1039 H 93.6186 -6.13696 2.3176 0
M  V30 1040 H 93.5356 -6.39685 4.02913 0
M  V30 1041 H 94.8036 -7.14868 3.10779 0
M  V30 1042 N 99.0327 -1.24633 -0.964593 0
M  V30 1043 C 100.261 -1.11501 -1.74285 0
M  V30 1044 C 100.676 0.332165 -1.85855 0
M  V30 1045 O 100.033 1.22903 -1.34911 0
M  V30 1046 C 100.084 -1.75258 -3.16175 0
M  V30 1047 O 99.8047 -3.14318 -3.05182 0
M  V30 1048 C 101.306 -1.67776 -4.10324 0
M  V30 1049 H 98.5257 -0.389407 -0.546446 0
M  V30 1050 H 101.07 -1.64801 -1.21083 0
M  V30 1051 H 99.2247 -1.25954 -3.66353 0
M  V30 1052 H 99.6387 -3.4551 -3.94618 0
M  V30 1053 H 101.113 -2.17064 -5.0753 0
M  V30 1054 H 101.59 -0.639584 -4.34518 0
M  V30 1055 H 102.196 -2.16522 -3.66058 0
M  V30 1056 N 100.511 1.16574 -1.06058 0
M  V30 1057 C 101.922 1.68662 -0.800632 0
M  V30 1058 C 102.273 1.84184 0.67608 0
M  V30 1059 O 101.398 1.53568 1.52466 0
M  V30 1060 C 101.993 3.06356 -1.44676 0
M  V30 1061 C 100.552 3.55575 -1.23465 0
M  V30 1062 C 99.6988 2.31616 -1.52477 0
M  V30 1063 H 102.65 1.00969 -1.22438 0
M  V30 1064 H 102.671 3.70636 -0.860788 0
M  V30 1065 H 102.183 2.95027 -2.52152 0
M  V30 1066 H 100.284 3.72167 -0.179527 0
M  V30 1067 H 100.397 4.37812 -1.94571 0
M  V30 1068 H 98.7608 2.36512 -0.945209 0
M  V30 1069 H 99.5438 2.22887 -2.61106 0
M  V30 1070 N 101.989 0.842826 1.3317 0
M  V30 1071 C 102.899 0.281444 2.32906 0
M  V30 1072 C 103.915 -0.594587 1.63526 0
M  V30 1073 O 105.091 -0.49777 1.95152 0
M  V30 1074 C 102.156 -0.530929 3.42611 0
M  V30 1075 C 101.217 0.369843 4.27704 0
M  V30 1076 C 100.45 -0.403853 5.3217 0
M  V30 1077 O 100.673 -1.63513 5.46461 0
M  V30 1078 O 99.6069 0.224199 6.01482 0
M  V30 1079 H 103.433 1.10744 2.82789 0
M  V30 1080 H 101.018 0.60545 1.36582 0
M  V30 1081 H 102.9 -0.992437 4.09547 0
M  V30 1082 H 101.575 -1.33392 2.94938 0
M  V30 1083 H 100.482 0.879275 3.6362 0
M  V30 1084 H 101.815 1.13771 4.78871 0
M  V30 1085 N 103.467 -1.45747 0.599634 0
M  V30 1086 C 104.744 -1.95585 0.0240846 0
M  V30 1087 C 105.124 -1.54217 -1.44154 0
M  V30 1088 O 104.472 -0.800903 -2.14004 0
M  V30 1089 C 104.682 -3.48344 0.21385 0
M  V30 1090 C 106.03 -4.24504 0.0904902 0
M  V30 1091 O 107.054 -3.55911 0.143558 0
M  V30 1092 O 105.913 -5.46491 -0.0310766 0
M  V30 1093 H 103.007 -0.82602 -0.0402478 0
M  V30 1094 H 105.553 -1.55951 0.669139 0
M  V30 1095 H 104.325 -3.71397 1.23206 0
M  V30 1096 H 103.948 -3.9485 -0.466842 0
M  V30 1097 N 104.945 -0.338344 -1.53925 0
M  V30 1098 C 106.191 0.260143 -2.01125 0
M  V30 1099 C 106.524 1.50617 -1.22589 0
M  V30 1100 O 105.799 1.91979 -0.312113 0
M  V30 1101 C 106.082 0.579499 -3.55407 0
M  V30 1102 C 105.935 -0.678264 -4.44657 0
M  V30 1103 C 107.254 1.39122 -4.17532 0
M  V30 1104 H 104.373 0.0930772 -0.731099 0
M  V30 1105 H 107.015 -0.457852 -1.84401 0
M  V30 1106 H 105.165 1.19118 -3.69788 0
M  V30 1107 H 106.837 -1.31631 -4.42121 0
M  V30 1108 H 105.08 -1.3042 -4.13731 0
M  V30 1109 H 105.751 -0.410143 -5.50474 0
M  V30 1110 H 108.227 0.874035 -4.06817 0
M  V30 1111 H 107.103 1.58342 -5.25565 0
M  V30 1112 H 107.364 2.39178 -3.71815 0
M  V30 1113 N 106.423 1.57458 -0.0668435 0
M  V30 1114 C 107.834 1.80776 0.466558 0
M  V30 1115 C 108.185 0.980361 1.69951 0
M  V30 1116 O 107.31 0.201441 2.1546 0
M  V30 1117 C 107.905 3.27881 0.85321 0
M  V30 1118 C 106.464 3.52062 1.3315 0
M  V30 1119 C 105.611 2.75513 0.314264 0
M  V30 1120 H 108.562 1.5598 -0.292588 0
M  V30 1121 H 108.583 3.39659 1.715 0
M  V30 1122 H 108.095 3.88075 -0.0443439 0
M  V30 1123 H 106.196 2.97167 2.24772 0
M  V30 1124 H 106.309 4.60762 1.31285 0
M  V30 1125 H 104.673 2.42123 0.790492 0
M  V30 1126 H 105.456 3.38442 -0.575477 0
M  V30 1127 N 107.901 -0.206675 1.56239 0
M  V30 1128 C 108.849 -1.27571 1.94495 0
M  V30 1129 C 109.843 -1.47737 0.828862 0
M  V30 1130 O 111.049 -1.48735 1.0138 0
M  V30 1131 H 107.424 -0.428029 0.6183 0
M  V30 1132 H 109.395 -0.925961 2.8367 0
M  V30 1133 C 108.144 -2.61568 2.29079 0
M  V30 1134 H 107.467 -2.46863 3.14482 0
M  V30 1135 H 108.907 -3.35144 2.5972 0
M  V30 1136 C 107.366 -3.17695 1.12123 0
M  V30 1137 O 107.896 -3.99801 0.390153 0
M  V30 1138 N 106.102 -2.76276 0.901097 0
M  V30 1139 H 105.649 -2.09613 1.49733 0
M  V30 1140 H 105.607 -3.1417 0.120319 0
M  V30 1141 N 109.379 -1.50304 -0.473955 0
M  V30 1142 C 110.656 -1.51667 -1.23518 0
M  V30 1143 C 111.036 -0.259701 -2.09496 0
M  V30 1144 O 110.384 0.756986 -2.15597 0
M  V30 1145 C 110.594 -2.81082 -2.06868 0
M  V30 1146 C 111.942 -3.31631 -2.65153 0
M  V30 1147 O 112.966 -2.82384 -2.17113 0
M  V30 1148 O 111.825 -4.17471 -3.52675 0
M  V30 1149 H 108.919 -0.60822 -0.560355 0
M  V30 1150 H 111.465 -1.62592 -0.486011 0
M  V30 1151 H 110.237 -3.64041 -1.4349 0
M  V30 1152 H 109.86 -2.73146 -2.88924 0
M  V30 1153 N 110.857 0.726932 -1.39834 0
M  V30 1154 C 112.268 1.30558 -1.3346 0
M  V30 1155 C 112.619 1.962 -0.00273003 0
M  V30 1156 O 111.744 1.96826 0.899371 0
M  V30 1157 C 112.339 2.37404 -2.41713 0
M  V30 1158 C 110.898 2.90921 -2.38835 0
M  V30 1159 C 110.045 1.64578 -2.2318 0
M  V30 1160 H 112.996 0.523862 -1.49804 0
M  V30 1161 H 113.017 3.17984 -2.08966 0
M  V30 1162 H 112.529 1.89599 -3.38635 0
M  V30 1163 H 110.63 3.42985 -1.45575 0
M  V30 1164 H 110.743 3.43487 -3.33997 0
M  V30 1165 H 109.107 1.89219 -1.70494 0
M  V30 1166 H 109.89 1.18814 -3.22084 0
M  V30 1167 N 112.336 1.25143 0.95797 0
M  V30 1168 C 113.266 1.07711 2.07173 0
M  V30 1169 C 114.247 -0.0128462 1.70095 0
M  V30 1170 O 115.432 0.156061 1.93572 0
M  V30 1171 C 112.562 0.691503 3.40346 0
M  V30 1172 C 111.516 1.73132 3.9142 0
M  V30 1173 C 110.842 1.20049 5.21049 0
M  V30 1174 C 112.142 3.1294 4.1817 0
M  V30 1175 H 113.836 2.00873 2.22014 0
M  V30 1176 H 111.382 0.967191 1.06684 0
M  V30 1177 H 113.335 0.556505 4.17709 0
M  V30 1178 H 112.059 -0.275819 3.25433 0
M  V30 1179 H 110.718 1.8547 3.16222 0
M  V30 1180 H 110.366 0.223499 5.02503 0
M  V30 1181 H 110.066 1.89545 5.56189 0
M  V30 1182 H 111.59 1.07782 6.01012 0
M  V30 1183 H 113.004 3.03775 4.86203 0
M  V30 1184 H 111.401 3.79875 4.64559 0
M  V30 1185 H 112.471 3.6025 3.24573 0
M  V30 1186 N 113.814 -1.1601 1.06675 0
M  V30 1187 C 115.225 -1.68235 0.809565 0
M  V30 1188 C 115.576 -1.8454 -0.666303 0
M  V30 1189 O 114.701 -1.54374 -1.5165 0
M  V30 1190 C 115.296 -3.05585 1.46299 0
M  V30 1191 C 113.855 -3.54915 1.25349 0
M  V30 1192 C 113.002 -2.30804 1.53703 0
M  V30 1193 H 115.953 -1.00318 1.22971 0
M  V30 1194 H 115.974 -3.70174 0.880431 0
M  V30 1195 H 115.486 -2.93686 2.53713 0
M  V30 1196 H 113.587 -3.72067 0.199261 0
M  V30 1197 H 113.7 -4.36774 1.9689 0
M  V30 1198 H 112.064 -2.36007 0.957739 0
M  V30 1199 H 112.847 -2.21499 2.62284 0
M  V30 1200 N 115.292 -0.849877 -1.32721 0
M  V30 1201 C 116.222 -0.306308 -2.31482 0
M  V30 1202 C 117.203 0.591952 -1.59468 0
M  V30 1203 O 118.388 0.513199 -1.87296 0
M  V30 1204 C 115.518 0.510204 -3.43532 0
M  V30 1205 C 114.472 -0.293209 -4.26994 0
M  V30 1206 C 113.798 0.647743 -5.30762 0
M  V30 1207 C 115.098 -1.51634 -4.99804 0
M  V30 1208 H 116.792 -1.13153 -2.77195 0
M  V30 1209 H 114.338 -0.545553 -1.33266 0
M  V30 1210 H 116.291 0.900856 -4.11658 0
M  V30 1211 H 115.015 1.36874 -2.96535 0
M  V30 1212 H 113.674 -0.665555 -3.60508 0
M  V30 1213 H 113.322 1.50299 -4.8002 0
M  V30 1214 H 113.022 0.11422 -5.87489 0
M  V30 1215 H 114.546 1.03567 -6.01753 0
M  V30 1216 H 115.96 -1.19824 -5.60638 0
M  V30 1217 H 114.357 -1.98745 -5.66234 0
M  V30 1218 H 115.427 -2.28018 -4.27943 0
M  V30 1219 N 116.77 1.45427 -0.607355 0
M  V30 1220 C 118.019 2.01452 -0.100036 0
M  V30 1221 C 118.332 1.48159 1.27704 0
M  V30 1222 O 119.538 1.96159 1.87707 0
M  V30 1223 C 117.994 3.59672 -0.128158 0
M  V30 1224 C 117.602 4.21962 -1.50507 0
M  V30 1225 C 119.346 4.23262 0.323932 0
M  V30 1226 C 117.253 5.72333 -1.48959 0
M  V30 1227 H 116.183 0.75325 -0.0336299 0
M  V30 1228 H 118.834 1.66901 -0.76265 0
M  V30 1229 H 117.216 3.91411 0.601105 0
M  V30 1230 H 118.39 4.01796 -2.25602 0
M  V30 1231 H 116.705 3.70565 -1.89923 0
M  V30 1232 H 119.302 5.33522 0.354691 0
M  V30 1233 H 119.645 3.93921 1.34656 0
M  V30 1234 H 120.178 3.96239 -0.352056 0
M  V30 1235 H 116.917 6.06373 -2.48981 0
M  V30 1236 H 116.437 5.94691 -0.781214 0
M  V30 1237 H 118.116 6.35525 -1.21313 0
M  V30 1238 N 118.248 0.346503 1.53744 0
M  V30 1239 C 119.473 -0.253074 2.0585 0
M  V30 1240 C 119.898 -1.43202 1.21962 0
M  V30 1241 O 119.256 -1.79783 0.234073 0
M  V30 1242 C 119.304 -0.643193 3.54817 0
M  V30 1243 O 118.408 -1.74286 3.73762 0
M  V30 1244 H 117.749 -0.0413583 0.662711 0
M  V30 1245 H 120.279 0.501574 1.98357 0
M  V30 1246 H 120.289 -0.919526 3.97503 0
M  V30 1247 H 118.964 0.218966 4.15323 0
M  V30 1248 H 117.541 -1.46356 3.42979 0
M  V30 1249 N 119.726 -1.57421 0.075193 0
M  V30 1250 C 121.003 -1.85029 -0.634329 0
M  V30 1251 C 121.383 -0.968305 -1.87582 0
M  V30 1252 O 120.731 -0.0354749 -2.28472 0
M  V30 1253 C 120.941 -3.35286 -0.968742 0
M  V30 1254 C 122.289 -4.02875 -1.34077 0
M  V30 1255 O 123.313 -3.40051 -1.06037 0
M  V30 1256 O 122.172 -5.13691 -1.86506 0
M  V30 1257 H 119.266 -0.7645 -0.315387 0
M  V30 1258 H 121.812 -1.69366 0.106382 0
M  V30 1259 H 120.584 -3.91203 -0.0871376 0
M  V30 1260 H 120.207 -3.56223 -1.7661 0
M  V30 1261 N 121.204 0.198386 -1.56346 0
M  V30 1262 C 122.451 0.919286 -1.80431 0
M  V30 1263 C 122.779 1.83393 -0.647866 0
M  V30 1264 O 122.034 1.92236 0.366556 0
M  V30 1265 C 122.333 1.77031 -3.10475 0
M  V30 1266 C 121.999 1.00693 -4.39513 0
M  V30 1267 C 120.661 0.796145 -4.74568 0
M  V30 1268 C 123.013 0.469559 -5.19081 0
M  V30 1269 C 120.341 0.0364588 -5.86689 0
M  V30 1270 C 122.693 -0.2769 -6.31994 0
M  V30 1271 C 121.357 -0.49873 -6.65634 0
M  V30 1272 H 120.627 0.336391 -0.660244 0
M  V30 1273 H 123.274 0.185872 -1.90596 0
M  V30 1274 H 121.579 2.5723 -2.95533 0
M  V30 1275 H 123.276 2.33065 -3.26315 0
M  V30 1276 H 119.866 1.18122 -4.12001 0
M  V30 1277 H 124.05 0.619816 -4.92414 0
M  V30 1278 H 119.306 -0.145412 -6.11227 0
M  V30 1279 H 123.48 -0.700684 -6.92866 0
M  V30 1280 H 121.107 -1.0893 -7.52355 0
M  V30 1281 N 122.682 1.50554 0.465978 0
M  V30 1282 C 123.592 1.72585 1.58907 0
M  V30 1283 C 124.608 0.60911 1.6299 0
M  V30 1284 O 125.784 0.88804 1.80765 0
M  V30 1285 C 122.849 1.81995 2.95091 0
M  V30 1286 C 121.91 3.05751 3.01355 0
M  V30 1287 C 121.143 3.14702 4.31043 0
M  V30 1288 O 121.366 2.30313 5.21835 0
M  V30 1289 O 120.3 4.07468 4.43005 0
M  V30 1290 H 124.126 2.67799 1.43239 0
M  V30 1291 H 121.711 1.34711 0.646013 0
M  V30 1292 H 123.593 1.90335 3.75966 0
M  V30 1293 H 122.268 0.899659 3.10947 0
M  V30 1294 H 121.175 3.02908 2.19539 0
M  V30 1295 H 122.508 3.97375 2.90437 0
M  V30 1296 N 124.16 -0.719506 1.40217 0
M  V30 1297 C 125.406 -1.48034 1.39491 0
M  V30 1298 C 125.761 -1.92399 -0.00443536 0
M  V30 1299 O 125.054 -1.64993 -0.974061 0
M  V30 1300 C 125.248 -2.72271 2.31524 0
M  V30 1301 C 125.077 -2.40055 3.80268 0
M  V30 1302 C 123.847 -2.31588 4.49105 0
M  V30 1303 C 126.045 -2.04581 4.71859 0
M  V30 1304 N 124.027 -1.92006 5.83101 0
M  V30 1305 C 125.398 -1.75568 5.94623 0
M  V30 1306 C 127.453 -1.91183 4.59732 0
M  V30 1307 C 126.156 -1.34505 7.06612 0
M  V30 1308 C 128.182 -1.51524 5.71659 0
M  V30 1309 C 127.544 -1.23406 6.93506 0
M  V30 1310 H 123.643 -0.539927 0.565688 0
M  V30 1311 H 126.227 -0.834764 1.75897 0
M  V30 1312 H 124.398 -3.34584 1.97251 0
M  V30 1313 H 126.13 -3.38584 2.21682 0
M  V30 1314 H 122.885 -2.49199 4.02737 0
M  V30 1315 H 123.309 -1.74764 6.54054 0
M  V30 1316 H 127.951 -2.11584 3.66049 0
M  V30 1317 H 125.669 -1.12846 8.00182 0
M  V30 1318 H 129.255 -1.41741 5.6427 0
M  V30 1319 H 128.135 -0.931788 7.78645 0
M  V30 1320 N 125.638 -1.25649 -0.95132 0
M  V30 1321 C 126.863 -1.13443 -1.73624 0
M  V30 1322 C 127.288 0.307565 -1.85568 0
M  V30 1323 O 126.646 1.22282 -1.33854 0
M  V30 1324 C 126.694 -1.79723 -3.12621 0
M  V30 1325 O 125.798 -1.07912 -3.98031 0
M  V30 1326 H 125.139 -0.395872 -0.533086 0
M  V30 1327 H 127.669 -1.66276 -1.1922 0
M  V30 1328 H 127.679 -1.86141 -3.63064 0
M  V30 1329 H 126.354 -2.84633 -3.03244 0
M  V30 1330 H 124.931 -1.09398 -3.56492 0
M  V30 1331 N 127.117 1.15442 -1.07289 0
M  V30 1332 C 128.345 1.90096 -0.81676 0
M  V30 1333 C 128.76 1.7798 0.629966 0
M  V30 1334 O 128.117 1.1313 1.43206 0
M  V30 1335 C 128.168 3.40466 -1.21512 0
M  V30 1336 O 127.889 3.52232 -2.60508 0
M  V30 1337 C 129.39 4.32145 -0.988198 0
M  V30 1338 H 126.61 0.602495 -0.295366 0
M  V30 1339 H 129.154 1.4627 -1.42918 0
M  V30 1340 H 127.309 3.81958 -0.647039 0
M  V30 1341 H 127.723 4.45549 -2.76742 0
M  V30 1342 H 129.197 5.36072 -1.31645 0
M  V30 1343 H 129.674 4.39135 0.0755063 0
M  V30 1344 H 130.28 3.96395 -1.54115 0
M  V30 1345 N 128.595 0.856903 1.32268 0
M  V30 1346 C 129.525 0.31858 2.31316 0
M  V30 1347 C 130.506 -0.583487 1.59779 0
M  V30 1348 O 131.691 -0.503259 1.87566 0
M  V30 1349 C 128.821 -0.491979 3.43798 0
M  V30 1350 C 127.775 0.315849 4.26833 0
M  V30 1351 C 127.101 -0.619586 5.31098 0
M  V30 1352 C 128.401 1.54282 4.98993 0
M  V30 1353 H 130.095 1.14621 2.76591 0
M  V30 1354 H 127.641 0.552613 1.32974 0
M  V30 1355 H 129.594 -0.879012 4.1213 0
M  V30 1356 H 128.318 -1.35299 2.97257 0
M  V30 1357 H 126.977 0.684664 3.6015 0
M  V30 1358 H 126.625 -1.47751 4.8081 0
M  V30 1359 H 126.325 -0.0830621 5.87541 0
M  V30 1360 H 127.849 -1.00375 6.02293 0
M  V30 1361 H 129.263 1.22796 5.59995 0
M  V30 1362 H 127.66 2.01745 5.65172 0
M  V30 1363 H 128.73 2.30285 4.26728 0
M  V30 1364 N 130.073 -1.45103 0.615059 0
M  V30 1365 C 131.35 -1.95549 0.0448276 0
M  V30 1366 C 131.73 -1.55737 -1.4251 0
M  V30 1367 O 131.078 -0.823556 -2.13143 0
M  V30 1368 C 131.288 -3.48098 0.250785 0
M  V30 1369 C 132.636 -4.24384 0.135509 0
M  V30 1370 O 133.66 -3.55738 0.181299 0
M  V30 1371 O 132.519 -5.46493 0.0268878 0
M  V30 1372 H 129.613 -0.8264 -0.0314845 0
M  V30 1373 H 132.159 -1.55232 0.685642 0
M  V30 1374 H 130.931 -3.7007 1.27139 0
M  V30 1375 H 130.554 -3.95323 -0.424937 0
M  V30 1376 N 131.551 -0.354651 -1.53558 0
M  V30 1377 C 132.8 0.239504 -2.00273 0
M  V30 1378 C 133.113 1.50759 -1.24623 0
M  V30 1379 O 134.319 2.17968 -1.61871 0
M  V30 1380 C 132.775 0.477341 -3.5672 0
M  V30 1381 C 132.383 -0.775488 -4.41237 0
M  V30 1382 C 134.127 1.02975 -4.11821 0
M  V30 1383 C 132.034 -0.507838 -5.89216 0
M  V30 1384 H 130.964 0.0932743 -0.748208 0
M  V30 1385 H 133.615 -0.471701 -1.77334 0
M  V30 1386 H 131.997 1.24953 -3.7577 0
M  V30 1387 H 133.171 -1.54963 -4.33962 0
M  V30 1388 H 131.486 -1.25033 -3.97185 0
M  V30 1389 H 134.083 1.24513 -5.2 0
M  V30 1390 H 134.426 1.98862 -3.65731 0
M  V30 1391 H 134.959 0.317994 -3.96527 0
M  V30 1392 H 131.698 -1.43674 -6.39561 0
M  V30 1393 H 131.218 0.228011 -5.99366 0
M  V30 1394 H 132.897 -0.129238 -6.46871 0
M  V30 1395 N 133.029 1.57378 -0.0835403 0
M  V30 1396 C 134.306 1.85363 0.624507 0
M  V30 1397 C 134.686 0.978239 1.87066 0
M  V30 1398 O 134.034 0.0475908 2.2845 0
M  V30 1399 C 134.244 3.35795 0.950947 0
M  V30 1400 C 135.592 4.03581 1.31939 0
M  V30 1401 O 136.616 3.40609 1.04232 0
M  V30 1402 O 135.475 5.14672 1.83779 0
M  V30 1403 H 132.569 0.766162 0.311329 0
M  V30 1404 H 135.115 1.69307 -0.115362 0
M  V30 1405 H 133.887 3.91244 0.0663899 0
M  V30 1406 H 133.51 3.57154 1.74719 0
M  V30 1407 N 134.507 -0.190092 1.56449 0
M  V30 1408 C 135.784 -0.935886 1.71757 0
M  V30 1409 C 136.164 -2.01173 0.639726 0
M  V30 1410 O 135.512 -2.25827 -0.348502 0
M  V30 1411 C 135.722 -1.51775 3.1427 0
M  V30 1412 C 137.07 -1.99794 3.74656 0
M  V30 1413 O 138.094 -1.61607 3.1743 0
M  V30 1414 O 136.953 -2.70079 4.751 0
M  V30 1415 H 134.047 -0.439229 0.700719 0
M  V30 1416 H 136.593 -0.179395 1.68749 0
M  V30 1417 H 135.365 -0.742505 3.84191 0
M  V30 1418 H 134.988 -2.33894 3.21527 0
M  V30 1419 N 135.985 -1.50799 -0.457987 0
M  V30 1420 C 136.933 -1.71162 -1.575 0
M  V30 1421 C 137.927 -0.577592 -1.59249 0
M  V30 1422 O 139.133 -0.758443 -1.63241 0
M  V30 1423 H 135.508 -0.540468 -0.522875 0
M  V30 1424 H 137.479 -2.64837 -1.37492 0
M  V30 1425 C 136.228 -1.83496 -2.95338 0
M  V30 1426 H 135.551 -2.70153 -2.94716 0
M  V30 1427 H 136.991 -2.01765 -3.72917 0
M  V30 1428 C 135.45 -0.589694 -3.31699 0
M  V30 1429 O 135.98 0.265163 -4.00824 0
M  V30 1430 N 134.186 -0.439845 -2.87252 0
M  V30 1431 H 133.733 -1.13655 -2.31172 0
M  V30 1432 H 133.691 0.392159 -3.11945 0
M  V30 1433 N 137.463 0.71206 -1.40597 0
M  V30 1434 C 138.393 1.83889 -1.43899 0
M  V30 1435 C 139.374 1.67442 -0.299504 0
M  V30 1436 O 140.559 1.87421 -0.508624 0
M  V30 1437 C 137.689 3.21877 -1.30431 0
M  V30 1438 C 136.643 3.53002 -2.42019 0
M  V30 1439 C 135.969 4.90172 -2.13626 0
M  V30 1440 C 137.269 3.53643 -3.84362 0
M  V30 1441 H 138.963 1.81383 -2.38203 0
M  V30 1442 H 136.509 0.871237 -1.14654 0
M  V30 1443 H 138.462 4.00404 -1.31357 0
M  V30 1444 H 137.186 3.24968 -0.326049 0
M  V30 1445 H 135.845 2.76818 -2.40349 0
M  V30 1446 H 135.493 4.89869 -1.14182 0
M  V30 1447 H 135.193 5.11962 -2.88389 0
M  V30 1448 H 136.717 5.71028 -2.1624 0
M  V30 1449 H 138.131 4.22203 -3.87837 0
M  V30 1450 H 136.528 3.86961 -4.58673 0
M  V30 1451 H 137.598 2.52954 -4.13693 0
M  V30 1452 N 138.941 1.26152 0.944643 0
M  V30 1453 C 139.873 1.03199 2.04652 0
M  V30 1454 C 140.886 -0.00642356 1.62799 0
M  V30 1455 O 142.075 0.233263 1.76969 0
M  V30 1456 C 139.175 0.540111 3.34568 0
M  V30 1457 C 138.348 1.64697 4.05208 0
M  V30 1458 C 137.407 1.15374 5.13396 0
M  V30 1459 O 136.433 1.85013 5.38293 0
M  V30 1460 N 137.635 0.00031529 5.805 0
M  V30 1461 H 140.4 1.9808 2.2491 0
M  V30 1462 H 137.961 1.17491 1.11389 0
M  V30 1463 H 139.953 0.194401 4.04233 0
M  V30 1464 H 138.523 -0.315021 3.11009 0
M  V30 1465 H 137.743 2.16379 3.29506 0
M  V30 1466 H 139.031 2.3903 4.49157 0
M  V30 1467 H 138.429 -0.581336 5.62705 0
M  V30 1468 H 136.986 -0.286346 6.51171 0
M  V30 1469 N 140.419 -1.14872 1.07899 0
M  V30 1470 C 141.349 -2.2193 0.725887 0
M  V30 1471 C 142.33 -1.67622 -0.28927 0
M  V30 1472 O 143.515 -1.93533 -0.160787 0
M  V30 1473 C 140.645 -3.47061 0.128856 0
M  V30 1474 C 139.599 -4.14363 1.07178 0
M  V30 1475 C 138.925 -5.33636 0.337229 0
M  V30 1476 C 140.225 -4.63492 2.40775 0
M  V30 1477 H 141.919 -2.51724 1.62097 0
M  V30 1478 H 139.465 -1.20991 0.780838 0
M  V30 1479 H 141.418 -4.21199 -0.130147 0
M  V30 1480 H 140.142 -3.16617 -0.80134 0
M  V30 1481 H 138.801 -3.42173 1.3158 0
M  V30 1482 H 138.449 -4.99449 -0.596606 0
M  V30 1483 H 138.149 -5.79609 0.965788 0
M  V30 1484 H 139.673 -6.10539 0.0861567 0
M  V30 1485 H 141.087 -5.2913 2.20669 0
M  V30 1486 H 139.484 -5.20148 2.99276 0
M  V30 1487 H 140.554 -3.78834 3.02676 0
M  V30 1488 N 141.898 -0.863906 -1.31812 0
M  V30 1489 C 143.175 -0.39275 -1.91616 0
M  V30 1490 C 143.555 1.12461 -1.7865 0
M  V30 1491 O 142.903 1.95045 -1.19037 0
M  V30 1492 C 143.113 -0.867385 -3.38049 0
M  V30 1493 C 144.461 -0.889966 -4.15168 0
M  V30 1494 O 145.485 -0.812635 -3.46806 0
M  V30 1495 O 144.344 -1.00079 -5.37258 0
M  V30 1496 H 141.438 -0.116358 -0.818773 0
M  V30 1497 H 143.984 -0.951418 -1.40521 0
M  V30 1498 H 142.756 -1.91081 -3.41473 0
M  V30 1499 H 142.379 -0.286687 -3.96565 0
M  V30 1500 N 143.376 1.44774 -0.622745 0
M  V30 1501 C 144.286 2.34433 0.0886031 0
M  V30 1502 C 145.302 1.52131 0.844529 0
M  V30 1503 O 146.478 1.84886 0.798691 0
M  V30 1504 C 143.543 3.29986 1.0635 0
M  V30 1505 C 142.604 4.28195 0.307873 0
M  V30 1506 C 141.837 5.19183 1.23633 0
M  V30 1507 O 142.06 5.13918 2.47476 0
M  V30 1508 O 140.994 5.97515 0.725189 0
M  V30 1509 H 144.82 2.96693 -0.648599 0
M  V30 1510 H 142.405 1.44408 -0.382957 0
M  V30 1511 H 144.287 3.88825 1.6246 0
M  V30 1512 H 142.962 2.70269 1.78146 0
M  V30 1513 H 141.869 3.72927 -0.296064 0
M  V30 1514 H 143.202 4.90808 -0.3699 0
M  V30 1515 N 144.854 0.36279 1.53368 0
M  V30 1516 C 145.784 -0.476976 2.28576 0
M  V30 1517 C 146.765 -1.08631 1.30894 0
M  V30 1518 O 147.95 -1.10409 1.59761 0
M  V30 1519 C 145.08 -1.61828 3.07293 0
M  V30 1520 C 144.034 -1.13633 4.1264 0
M  V30 1521 C 143.36 -2.36766 4.79423 0
M  V30 1522 C 144.66 -0.223061 5.21823 0
M  V30 1523 H 146.354 0.150474 2.99022 0
M  V30 1524 H 143.9 0.0738103 1.43811 0
M  V30 1525 H 145.853 -2.21237 3.58653 0
M  V30 1526 H 144.577 -2.27292 2.34533 0
M  V30 1527 H 143.236 -0.564945 3.62221 0
M  V30 1528 H 142.884 -3.0068 4.03238 0
M  V30 1529 H 142.584 -2.05192 5.50609 0
M  V30 1530 H 144.108 -2.96865 5.33576 0
M  V30 1531 H 145.522 -0.724545 5.68703 0
M  V30 1532 H 143.919 0.001678 6.001 0
M  V30 1533 H 144.989 0.735553 4.79289 0
M  V30 1534 N 146.332 -1.57332 0.0918853 0
M  V30 1535 C 147.562 -1.98286 -0.580205 0
M  V30 1536 C 147.97 -0.969713 -1.6246 0
M  V30 1537 O 147.313 0.0493501 -1.83634 0
M  V30 1538 C 147.375 -3.35603 -1.28882 0
M  V30 1539 C 147.039 -4.55285 -0.395559 0
M  V30 1540 C 148.036 -5.18687 0.355002 0
M  V30 1541 C 145.721 -5.01314 -0.314556 0
M  V30 1542 C 147.715 -6.26484 1.17458 0
M  V30 1543 C 145.402 -6.08979 0.508677 0
M  V30 1544 C 146.4 -6.71429 1.2519 0
M  V30 1545 O 146.088 -7.77018 2.06151 0
M  V30 1546 H 145.82 -0.656678 -0.160466 0
M  V30 1547 H 148.374 -2.04721 0.16688 0
M  V30 1548 H 146.604 -3.25842 -2.08241 0
M  V30 1549 H 148.293 -3.61026 -1.85512 0
M  V30 1550 H 149.059 -4.84058 0.302134 0
M  V30 1551 H 144.938 -4.5247 -0.882697 0
M  V30 1552 H 148.482 -6.75159 1.75518 0
M  V30 1553 H 144.379 -6.4304 0.563037 0
M  V30 1554 H 145.147 -7.93991 1.98799 0
M  V30 1555 N 147.81 0.181792 -1.56548 0
M  V30 1556 C 148.757 1.22521 -1.95595 0
M  V30 1557 C 149.727 1.4454 -0.818373 0
M  V30 1558 O 150.912 1.57454 -1.07763 0
M  V30 1559 C 148.052 2.56193 -2.31212 0
M  V30 1560 C 147.165 2.41641 -3.58097 0
M  V30 1561 C 146.3 3.68108 -3.82975 0
M  V30 1562 C 145.339 3.48445 -5.03242 0
M  V30 1563 N 144.476 4.66956 -5.24306 0
M  V30 1564 H 149.316 0.885226 -2.84548 0
M  V30 1565 H 146.853 0.425718 -1.40805 0
M  V30 1566 H 148.811 3.34088 -2.49882 0
M  V30 1567 H 147.441 2.88208 -1.45382 0
M  V30 1568 H 146.493 1.54976 -3.474 0
M  V30 1569 H 147.805 2.23052 -4.46149 0
M  V30 1570 H 146.959 4.54441 -4.01956 0
M  V30 1571 H 145.698 3.89666 -2.93278 0
M  V30 1572 H 144.703 2.60499 -4.8417 0
M  V30 1573 H 145.928 3.2832 -5.9446 0
M  V30 1574 H 143.874 4.88752 -4.37559 0
M  V30 1575 H 143.791 4.51242 -6.06561 0
M  V30 1576 H 145.059 5.54602 -5.47756 0
M  V30 1577 N 149.288 1.51039 0.449983 0
M  V30 1578 C 150.218 1.74379 1.55288 0
M  V30 1579 C 151.199 0.593236 1.5942 0
M  V30 1580 O 152.384 0.834625 1.7535 0
M  V30 1581 C 149.514 1.85728 2.93466 0
M  V30 1582 C 148.468 3.01078 3.04197 0
M  V30 1583 C 147.794 2.97595 4.44231 0
M  V30 1584 C 149.094 4.41254 2.7945 0
M  V30 1585 H 150.788 2.66725 1.36008 0
M  V30 1586 H 148.334 1.2835 0.652864 0
M  V30 1587 H 150.287 2.0064 3.70569 0
M  V30 1588 H 149.011 0.900207 3.13949 0
M  V30 1589 H 147.67 2.85851 2.29531 0
M  V30 1590 H 147.318 1.99691 4.61663 0
M  V30 1591 H 147.018 3.75046 4.52343 0
M  V30 1592 H 148.542 3.14583 5.23326 0
M  V30 1593 H 149.956 4.56897 3.46292 0
M  V30 1594 H 148.353 5.20315 2.98985 0
M  V30 1595 H 149.423 4.52164 1.75144 0
M  V30 1596 N 150.766 -0.704594 1.40972 0
M  V30 1597 C 151.696 -1.83124 1.44872 0
M  V30 1598 C 152.677 -1.67281 0.30838 0
M  V30 1599 O 153.862 -1.87149 0.518556 0
M  V30 1600 C 150.992 -3.21181 1.32136 0
M  V30 1601 C 149.946 -3.51714 2.43888 0
M  V30 1602 C 149.272 -4.89032 2.16222 0
M  V30 1603 C 150.572 -3.516 3.86232 0
M  V30 1604 H 152.266 -1.80117 2.39161 0
M  V30 1605 H 149.812 -0.865145 1.15114 0
M  V30 1606 H 151.765 -3.99702 1.33479 0
M  V30 1607 H 150.489 -3.24791 0.343279 0
M  V30 1608 H 149.148 -2.75539 2.41813 0
M  V30 1609 H 148.796 -4.89256 1.16778 0
M  V30 1610 H 148.496 -5.10426 2.911 0
M  V30 1611 H 150.02 -5.69873 2.19265 0
M  V30 1612 H 151.434 -4.2014 3.9007 0
M  V30 1613 H 149.831 -3.84523 4.60719 0
M  V30 1614 H 150.901 -2.50757 4.15029 0
M  V30 1615 N 152.244 -1.26651 -0.937939 0
M  V30 1616 C 153.474 -1.15006 -1.71631 0
M  V30 1617 C 153.882 0.297026 -1.86854 0
M  V30 1618 O 153.225 1.21493 -1.37786 0
M  V30 1619 C 153.287 -1.74984 -3.14039 0
M  V30 1620 C 152.951 -3.24103 -3.2219 0
M  V30 1621 C 153.948 -4.20877 -3.05219 0
M  V30 1622 C 151.633 -3.64625 -3.45476 0
M  V30 1623 C 153.627 -5.56151 -3.11408 0
M  V30 1624 C 151.314 -5.00032 -3.513 0
M  V30 1625 C 152.312 -5.95604 -3.34282 0
M  V30 1626 O 152 -7.28545 -3.3982 0
M  V30 1627 H 151.732 -0.401183 -0.544085 0
M  V30 1628 H 154.286 -1.67832 -1.18413 0
M  V30 1629 H 152.516 -1.16624 -3.68695 0
M  V30 1630 H 154.205 -1.58199 -3.73802 0
M  V30 1631 H 154.971 -3.90908 -2.87081 0
M  V30 1632 H 150.85 -2.90718 -3.57777 0
M  V30 1633 H 154.394 -6.30727 -2.98043 0
M  V30 1634 H 150.291 -5.29659 -3.68959 0
M  V30 1635 H 151.059 -7.3686 -3.56343 0
M  V30 1636 N 153.722 1.14298 -1.08507 0
M  V30 1637 C 154.999 1.81544 -0.728088 0
M  V30 1638 C 155.379 1.95838 0.78808 0
M  V30 1639 O 154.727 1.51904 1.70697 0
M  V30 1640 C 154.937 3.17169 -1.45619 0
M  V30 1641 C 156.285 3.9265 -1.61591 0
M  V30 1642 O 157.309 3.26762 -1.41793 0
M  V30 1643 O 156.168 5.10807 -1.94263 0
M  V30 1644 H 153.262 0.78491 -0.260471 0
M  V30 1645 H 155.808 1.21307 -1.18671 0
M  V30 1646 H 154.58 3.01934 -2.489 0
M  V30 1647 H 154.203 3.851 -0.989124 0
M  V30 1648 N 155.201 0.870884 1.31352 0
M  V30 1649 C 156.149 0.316445 2.30437 0
M  V30 1650 C 157.143 -0.568965 1.59559 0
M  V30 1651 O 158.349 -0.454964 1.74155 0
M  V30 1652 H 154.724 0.0836521 0.747333 0
M  V30 1653 H 156.695 1.16606 2.74673 0
M  V30 1654 C 155.444 -0.46635 3.44558 0
M  V30 1655 H 154.767 0.205687 3.99271 0
M  V30 1656 H 156.207 -0.819614 4.16003 0
M  V30 1657 C 154.666 -1.65797 2.9328 0
M  V30 1658 O 155.196 -2.75728 2.92125 0
M  V30 1659 N 153.402 -1.49041 2.4947 0
M  V30 1660 H 152.949 -0.59612 2.50608 0
M  V30 1661 H 152.907 -2.28911 2.15516 0
M  V30 1662 N 156.679 -1.44442 0.630414 0
M  V30 1663 C 157.909 -2.06115 0.141465 0
M  V30 1664 C 158.317 -1.47179 -1.1889 0
M  V30 1665 O 157.66 -0.588873 -1.74006 0
M  V30 1666 C 157.722 -3.59467 -0.0484355 0
M  V30 1667 C 157.386 -4.40864 1.20366 0
M  V30 1668 C 158.383 -4.74391 2.12719 0
M  V30 1669 C 156.068 -4.8125 1.43887 0
M  V30 1670 C 158.062 -5.47186 3.26904 0
M  V30 1671 C 155.749 -5.53795 2.5837 0
M  V30 1672 C 156.747 -5.86682 3.49705 0
M  V30 1673 O 156.435 -6.57749 4.62191 0
M  V30 1674 H 156.167 -0.671648 0.0765792 0
M  V30 1675 H 158.721 -1.86312 0.864695 0
M  V30 1676 H 156.951 -3.77758 -0.826803 0
M  V30 1677 H 158.64 -4.02909 -0.491849 0
M  V30 1678 H 159.406 -4.43728 1.95781 0
M  V30 1679 H 155.285 -4.55073 0.736853 0
M  V30 1680 H 158.829 -5.72773 3.98217 0
M  V30 1681 H 154.726 -5.83872 2.75251 0
M  V30 1682 H 155.494 -6.76217 4.61164 0
M  V30 1683 N 158.157 -0.370918 -1.53173 0
M  V30 1684 C 159.403 0.217423 -2.01631 0
M  V30 1685 C 159.736 1.47983 -1.25756 0
M  V30 1686 O 159.011 1.91274 -0.352764 0
M  V30 1687 C 159.294 0.503982 -3.56556 0
M  V30 1688 C 159.147 -0.77243 -4.43118 0
M  V30 1689 C 160.466 1.30234 -4.20389 0
M  V30 1690 H 157.585 0.0775486 -0.732909 0
M  V30 1691 H 160.227 -0.496863 -1.83388 0
M  V30 1692 H 158.377 1.11248 -3.72231 0
M  V30 1693 H 160.049 -1.4098 -4.39229 0
M  V30 1694 H 158.292 -1.39167 -4.10871 0
M  V30 1695 H 158.963 -0.526815 -5.4948 0
M  V30 1696 H 161.439 0.787546 -4.08579 0
M  V30 1697 H 160.315 1.47158 -5.28806 0
M  V30 1698 H 160.576 2.31237 -3.76805 0
M  V30 1699 N 159.635 1.57281 -0.100228 0
M  V30 1700 C 160.545 2.17833 0.870965 0
M  V30 1701 C 161.561 1.14921 1.30649 0
M  V30 1702 O 162.737 1.47313 1.37335 0
M  V30 1703 C 159.802 2.75085 2.1102 0
M  V30 1704 C 158.863 3.9297 1.72838 0
M  V30 1705 C 158.096 4.47482 2.90854 0
M  V30 1706 O 158.319 4.00922 4.05731 0
M  V30 1707 O 157.253 5.38433 2.69023 0
M  V30 1708 H 161.079 3.0124 0.38575 0
M  V30 1709 H 158.664 1.48881 0.124397 0
M  V30 1710 H 160.546 3.11656 2.83634 0
M  V30 1711 H 159.221 1.94721 2.58584 0
M  V30 1712 H 158.128 3.61201 0.973883 0
M  V30 1713 H 159.461 4.74713 1.30033 0
M  V30 1714 N 161.113 -0.173488 1.56642 0
M  V30 1715 C 162.39 -0.917617 1.7274 0
M  V30 1716 C 162.77 -2.00484 0.661027 0
M  V30 1717 O 162.118 -2.26184 -0.32453 0
M  V30 1718 C 162.328 -1.48433 3.15862 0
M  V30 1719 C 163.676 -1.95809 3.76754 0
M  V30 1720 O 164.7 -1.58231 3.19126 0
M  V30 1721 O 163.559 -2.65024 4.77938 0
M  V30 1722 H 160.653 -0.431772 0.705338 0
M  V30 1723 H 163.199 -0.161487 1.6893 0
M  V30 1724 H 161.971 -0.701715 3.84957 0
M  V30 1725 H 161.594 -2.30471 3.23989 0
M  V30 1726 N 162.591 -1.51276 -0.441967 0
M  V30 1727 C 163.84 -1.6295 -1.18871 0
M  V30 1728 C 164.153 -0.349312 -1.92456 0
M  V30 1729 O 165.359 -0.345355 -2.69295 0
M  V30 1730 C 163.815 -2.87759 -2.16155 0
M  V30 1731 C 163.423 -4.22764 -1.48239 0
M  V30 1732 C 165.167 -3.08788 -2.91291 0
M  V30 1733 C 163.074 -5.38728 -2.4398 0
M  V30 1734 H 162.004 -0.606913 -0.447406 0
M  V30 1735 H 164.655 -1.77739 -0.456205 0
M  V30 1736 H 163.037 -2.66593 -2.92821 0
M  V30 1737 H 164.211 -4.54293 -0.771635 0
M  V30 1738 H 162.526 -4.07575 -0.852741 0
M  V30 1739 H 165.123 -3.92599 -3.63002 0
M  V30 1740 H 165.466 -2.21679 -3.5237 0
M  V30 1741 H 165.999 -3.30272 -2.21733 0
M  V30 1742 H 162.738 -6.28082 -1.87598 0
M  V30 1743 H 162.258 -5.1158 -3.13123 0
M  V30 1744 H 163.937 -5.70489 -3.05207 0
M  V30 1745 N 164.069 0.697108 -1.41344 0
M  V30 1746 C 165.346 1.45154 -1.31109 0
M  V30 1747 C 165.726 2.11009 0.0620449 0
M  V30 1748 O 165.074 2.01571 1.07618 0
M  V30 1749 C 165.284 2.47223 -2.46337 0
M  V30 1750 C 166.632 3.1252 -2.87431 0
M  V30 1751 O 167.656 2.57547 -2.46065 0
M  V30 1752 O 166.515 4.12083 -3.58957 0
M  V30 1753 H 163.609 0.646365 -0.515889 0
M  V30 1754 H 166.155 0.727716 -1.53305 0
M  V30 1755 H 164.927 1.97204 -3.37974 0
M  V30 1756 H 164.55 3.27116 -2.2601 0
M  V30 1757 N 165.547 1.27147 0.931209 0
M  V30 1758 C 166.51 1.09615 2.01289 0
M  V30 1759 C 167.51 0.0412581 1.60747 0
M  V30 1760 O 168.7 0.285545 1.71844 0
M  V30 1761 C 165.832 0.669447 3.34262 0
M  V30 1762 H 167.025 2.05662 2.18273 0
M  V30 1763 H 164.578 1.09885 1.11153 0
M  V30 1764 H 165.313 -0.292572 3.22978 0
M  V30 1765 H 165.098 1.43127 3.65044 0
M  V30 1766 H 166.588 0.568921 4.13706 0
M  V30 1767 N 167.025 -1.13721 1.09112 0
M  V30 1768 C 168.253 -1.88773 0.846899 0
M  V30 1769 C 168.668 -1.7896 -0.601572 0
M  V30 1770 O 168.025 -1.15394 -1.41388 0
M  V30 1771 C 168.076 -3.3849 1.26913 0
M  V30 1772 O 167.797 -3.48043 2.66079 0
M  V30 1773 C 169.298 -4.30518 1.05682 0
M  V30 1774 H 166.518 -0.59772 0.304914 0
M  V30 1775 H 169.062 -1.43977 1.45227 0
M  V30 1776 H 167.217 -3.80881 0.707723 0
M  V30 1777 H 167.631 -4.4109 2.83795 0
M  V30 1778 H 169.105 -5.3391 1.40156 0
M  V30 1779 H 169.582 -4.392 -0.00563416 0
M  V30 1780 H 170.188 -3.93893 1.60402 0
M  V30 1781 N 168.503 -0.877838 -1.30888 0
M  V30 1782 C 169.75 -0.492696 -1.96415 0
M  V30 1783 C 170.078 0.956671 -1.69346 0
M  V30 1784 O 169.333 1.68993 -0.986913 0
M  V30 1785 C 169.632 -0.705748 -3.50363 0
M  V30 1786 C 169.298 -2.1291 -3.97467 0
M  V30 1787 C 167.96 -2.51834 -4.1004 0
M  V30 1788 C 170.312 -3.05702 -4.22132 0
M  V30 1789 C 167.64 -3.82775 -4.44635 0
M  V30 1790 C 169.992 -4.36166 -4.58194 0
M  V30 1791 C 168.656 -4.74993 -4.68975 0
M  V30 1792 H 167.926 -0.18029 -0.718733 0
M  V30 1793 H 170.573 -1.11233 -1.55883 0
M  V30 1794 H 168.878 -0.00303058 -3.918 0
M  V30 1795 H 170.575 -0.387456 -3.99124 0
M  V30 1796 H 167.165 -1.81694 -3.88182 0
M  V30 1797 H 171.349 -2.76853 -4.11906 0
M  V30 1798 H 166.605 -4.12609 -4.51181 0
M  V30 1799 H 170.779 -5.08111 -4.76231 0
M  V30 1800 H 168.406 -5.76495 -4.95537 0
M  V30 1801 N 169.982 1.44106 -0.638065 0
M  V30 1802 C 171.398 1.56672 -0.304286 0
M  V30 1803 C 171.598 1.6244 1.19228 0
M  V30 1804 O 170.654 1.57121 1.9766 0
M  V30 1805 C 171.967 2.83503 -1.00231 0
M  V30 1806 C 173.515 2.97226 -0.981116 0
M  V30 1807 C 173.99 4.26868 -1.65974 0
M  V30 1808 N 175.481 4.33698 -1.62666 0
M  V30 1809 C 176.216 5.32745 -2.12063 0
M  V30 1810 N 175.712 6.38157 -2.6968 0
M  V30 1811 N 177.505 5.24299 -2.02651 0
M  V30 1812 H 169.656 1.38605 -1.60942 0
M  V30 1813 H 171.919 0.664661 -0.675965 0
M  V30 1814 H 171.625 2.85251 -2.0573 0
M  V30 1815 H 171.499 3.73251 -0.54439 0
M  V30 1816 H 173.886 2.95027 0.0654188 0
M  V30 1817 H 173.967 2.08808 -1.47759 0
M  V30 1818 H 173.611 4.29826 -2.70576 0
M  V30 1819 H 173.541 5.14156 -1.13804 0
M  V30 1820 H 176.032 3.58138 -1.20606 0
M  V30 1821 H 176.345 7.10029 -3.05087 0
M  V30 1822 H 174.69 6.38823 -2.73734 0
M  V30 1823 H 177.881 4.4086 -1.57353 0
M  V30 1824 H 178.054 6.01334 -2.41457 0
M  V30 1825 N 171.46 0.379036 1.52974 0
M  V30 1826 C 172.707 -0.206421 2.01445 0
M  V30 1827 C 173.035 -1.47668 1.26587 0
M  V30 1828 O 172.29 -1.92514 0.351675 0
M  V30 1829 C 172.589 -0.53096 3.53434 0
M  V30 1830 C 172.255 0.646546 4.46241 0
M  V30 1831 C 170.917 0.969604 4.7133 0
M  V30 1832 C 173.269 1.43479 5.01062 0
M  V30 1833 C 170.597 2.08263 5.48492 0
M  V30 1834 C 172.949 2.53834 5.7944 0
M  V30 1835 C 171.613 2.86659 6.02812 0
M  V30 1836 H 170.883 -0.0755349 0.73714 0
M  V30 1837 H 173.53 0.514271 1.84465 0
M  V30 1838 H 171.835 -1.33285 3.68432 0
M  V30 1839 H 173.532 -0.996417 3.88423 0
M  V30 1840 H 170.122 0.384734 4.2687 0
M  V30 1841 H 174.306 1.19844 4.81613 0
M  V30 1842 H 169.562 2.34078 5.64816 0
M  V30 1843 H 173.736 3.15319 6.20924 0
M  V30 1844 H 171.363 3.73026 6.62387 0
M  V30 1845 N 172.938 -1.57226 0.108567 0
M  V30 1846 C 173.885 -2.14756 -0.845481 0
M  V30 1847 C 174.855 -1.06971 -1.27068 0
M  V30 1848 O 176.04 -1.34827 -1.35005 0
M  V30 1849 C 173.18 -2.74298 -2.09415 0
M  V30 1850 C 172.293 -3.96358 -1.71826 0
M  V30 1851 C 171.428 -4.44021 -2.9158 0
M  V30 1852 C 170.467 -5.58637 -2.50181 0
M  V30 1853 N 169.604 -6.01091 -3.62814 0
M  V30 1854 H 174.444 -2.95961 -0.348035 0
M  V30 1855 H 171.981 -1.46226 -0.160106 0
M  V30 1856 H 173.939 -3.06945 -2.82561 0
M  V30 1857 H 172.569 -1.95801 -2.56636 0
M  V30 1858 H 171.621 -3.69939 -0.885947 0
M  V30 1859 H 172.933 -4.79504 -1.37394 0
M  V30 1860 H 172.087 -4.78522 -3.72963 0
M  V30 1861 H 170.826 -3.59803 -3.29231 0
M  V30 1862 H 169.831 -5.23751 -1.67228 0
M  V30 1863 H 171.056 -6.44613 -2.13659 0
M  V30 1864 H 169.002 -5.19817 -4.00158 0
M  V30 1865 H 168.919 -6.79066 -3.32273 0
M  V30 1866 H 170.187 -6.40227 -4.44668 0
M  V30 1867 N 174.416 0.165178 -1.56732 0
M  V30 1868 C 175.646 0.894919 -1.86212 0
M  V30 1869 C 176.054 1.76066 -0.692627 0
M  V30 1870 O 175.397 1.80387 0.347303 0
M  V30 1871 C 175.459 1.8174 -3.10179 0
M  V30 1872 C 175.123 1.13064 -4.42793 0
M  V30 1873 C 176.12 0.493169 -5.17556 0
M  V30 1874 C 173.805 1.12556 -4.89527 0
M  V30 1875 C 175.799 -0.140209 -6.37246 0
M  V30 1876 C 173.486 0.488366 -6.09145 0
M  V30 1877 C 174.484 -0.143411 -6.82849 0
M  V30 1878 O 174.172 -0.77055 -8.00199 0
M  V30 1879 H 173.904 0.265114 -0.621844 0
M  V30 1880 H 176.458 0.168242 -2.0471 0
M  V30 1881 H 174.688 2.58455 -2.87642 0
M  V30 1882 H 176.377 2.4175 -3.26055 0
M  V30 1883 H 177.143 0.489023 -4.82528 0
M  V30 1884 H 173.022 1.60672 -4.32094 0
M  V30 1885 H 176.566 -0.633932 -6.94714 0
M  V30 1886 H 172.463 0.490116 -6.43637 0
M  V30 1887 H 173.231 -0.670408 -8.1575 0
M  V30 1888 N 175.894 1.51508 0.433938 0
M  V30 1889 C 177.119 1.68443 1.21003 0
M  V30 1890 C 177.544 0.382636 1.84167 0
M  V30 1891 O 176.902 -0.65755 1.68956 0
M  V30 1892 C 176.95 2.80405 2.26727 0
M  V30 1893 O 176.054 2.44245 3.32292 0
M  V30 1894 H 175.395 0.561536 0.354363 0
M  V30 1895 H 177.925 1.9809 0.512024 0
M  V30 1896 H 177.935 3.0459 2.71457 0
M  V30 1897 H 176.61 3.74867 1.80132 0
M  V30 1898 H 175.187 2.30644 2.93015 0
M  V30 1899 N 177.372 -0.689602 1.41712 0
M  V30 1900 C 178.322 -1.79571 1.40493 0
M  V30 1901 C 179.306 -1.58473 0.278409 0
M  V30 1902 O 180.498 -1.69204 0.519532 0
M  V30 1903 C 177.627 -3.17923 1.29536 0
M  V30 1904 C 176.713 -3.44695 2.47075 0
M  V30 1905 N 177.104 -3.42132 3.72531 0
M  V30 1906 C 175.402 -3.75269 2.41017 0
M  V30 1907 C 176.103 -3.67976 4.50521 0
M  V30 1908 N 175.079 -3.88014 3.80718 0
M  V30 1909 H 178.881 -1.75961 2.35404 0
M  V30 1910 H 176.395 -0.889839 1.35851 0
M  V30 1911 H 178.392 -3.97167 1.26745 0
M  V30 1912 H 177.052 -3.22741 0.356153 0
M  V30 1913 H 178.063 -3.22375 4.05333 0
M  V30 1914 H 174.74 -3.87421 1.55599 0
M  V30 1915 H 176.13 -3.7208 5.59469 0
M  V30 1916 N 178.85 -1.27639 -0.924453 0
M  V30 1917 C 179.76 -1.12466 -2.05885 0
M  V30 1918 C 180.776 -0.053869 -1.73917 0
M  V30 1919 O 181.952 -0.261012 -1.99702 0
M  V30 1920 C 179.017 -0.776768 -3.37886 0
M  V30 1921 C 178.078 -1.92878 -3.83532 0
M  V30 1922 C 177.311 -1.59739 -5.09234 0
M  V30 1923 O 177.534 -0.506782 -5.68144 0
M  V30 1924 O 176.468 -2.43761 -5.50331 0
M  V30 1925 H 180.294 -2.07671 -2.21599 0
M  V30 1926 H 177.879 -1.06857 -1.04413 0
M  V30 1927 H 179.761 -0.596229 -4.17161 0
M  V30 1928 H 178.436 0.145732 -3.23372 0
M  V30 1929 H 177.343 -2.1644 -3.0513 0
M  V30 1930 H 178.676 -2.8316 -4.02593 0
M  V30 1931 N 180.328 1.1314 -1.09713 0
M  V30 1932 C 181.575 1.84484 -0.834987 0
M  V30 1933 C 181.903 1.83689 0.639418 0
M  V30 1934 O 181.158 1.2724 1.4869 0
M  V30 1935 C 181.457 3.32167 -1.3191 0
M  V30 1936 C 181.123 3.53139 -2.80363 0
M  V30 1937 C 179.785 3.58571 -3.20905 0
M  V30 1938 C 182.137 3.60866 -3.76065 0
M  V30 1939 C 179.465 3.69267 -4.55916 0
M  V30 1940 C 181.817 3.73089 -5.10869 0
M  V30 1941 C 180.481 3.76775 -5.50996 0
M  V30 1942 H 179.751 0.675073 -0.305544 0
M  V30 1943 H 182.398 1.33554 -1.37243 0
M  V30 1944 H 180.703 3.85469 -0.701517 0
M  V30 1945 H 182.4 3.85821 -1.09284 0
M  V30 1946 H 178.99 3.49569 -2.47991 0
M  V30 1947 H 183.174 3.55946 -3.45855 0
M  V30 1948 H 178.43 3.70388 -4.86438 0
M  V30 1949 H 182.604 3.78011 -5.84877 0
M  V30 1950 H 180.231 3.84815 -6.55608 0
M  V30 1951 N 181.806 0.884767 1.30421 0
M  V30 1952 C 183.053 0.503105 1.96151 0
M  V30 1953 C 183.381 -0.947676 1.69851 0
M  V30 1954 O 182.636 -1.68467 0.995861 0
M  V30 1955 C 182.935 0.724318 3.49983 0
M  V30 1956 C 182.601 2.15015 3.96332 0
M  V30 1957 C 181.263 2.54005 4.08699 0
M  V30 1958 C 183.615 3.07936 4.20505 0
M  V30 1959 C 180.943 3.85128 4.42599 0
M  V30 1960 C 183.295 4.3859 4.55874 0
M  V30 1961 C 181.959 4.77474 4.66449 0
M  V30 1962 H 181.229 0.184099 0.717766 0
M  V30 1963 H 183.876 1.12058 1.55291 0
M  V30 1964 H 182.181 0.0238086 3.91793 0
M  V30 1965 H 183.878 0.408617 3.98913 0
M  V30 1966 H 180.468 1.8375 3.87213 0
M  V30 1967 H 184.652 2.79033 4.10431 0
M  V30 1968 H 179.908 4.14996 4.48986 0
M  V30 1969 H 184.082 5.10629 4.7353 0
M  V30 1970 H 181.709 5.79115 4.92473 0
M  V30 1971 N 183.284 -1.43765 0.645699 0
M  V30 1972 C 184.216 -2.29027 -0.0890605 0
M  V30 1973 C 185.229 -1.42093 -0.794563 0
M  V30 1974 O 186.418 -1.66104 -0.653575 0
M  V30 1975 C 183.518 -3.18831 -1.14891 0
M  V30 1976 C 182.691 -4.34261 -0.523043 0
M  V30 1977 C 181.75 -5.04994 -1.47878 0
M  V30 1978 O 180.776 -5.6052 -0.990277 0
M  V30 1979 N 181.978 -5.07795 -2.81291 0
M  V30 1980 H 184.743 -2.92727 0.64272 0
M  V30 1981 H 182.304 -1.54373 0.487924 0
M  V30 1982 H 184.296 -3.63015 -1.78892 0
M  V30 1983 H 182.866 -2.56782 -1.78275 0
M  V30 1984 H 182.086 -3.93088 0.295896 0
M  V30 1985 H 183.374 -5.08728 -0.0858147 0
M  V30 1986 H 182.772 -4.64042 -3.23546 0
M  V30 1987 H 181.329 -5.55721 -3.40614 0
M  V30 1988 N 184.763 -0.387143 -1.52771 0
M  V30 1989 C 186.009 0.188506 -2.02525 0
M  V30 1990 C 186.364 1.44649 -1.26864 0
M  V30 1991 O 185.657 1.88189 -0.359945 0
M  V30 1992 C 185.851 0.512209 -3.53711 0
M  V30 1993 C 185.68 -0.712855 -4.44014 0
M  V30 1994 C 184.45 -1.23147 -4.90064 0
M  V30 1995 C 186.648 -1.58453 -4.89282 0
M  V30 1996 N 184.63 -2.41431 -5.64433 0
M  V30 1997 C 186.001 -2.61381 -5.6221 0
M  V30 1998 C 188.056 -1.60488 -4.71326 0
M  V30 1999 C 186.759 -3.66227 -6.19088 0
M  V30 2000 C 188.785 -2.6424 -5.29085 0
M  V30 2001 C 188.147 -3.6589 -6.01917 0
M  V30 2002 H 184.246 0.0311236 -0.78138 0
M  V30 2003 H 186.83 -0.536548 -1.87161 0
M  V30 2004 H 185.001 1.20632 -3.69192 0
M  V30 2005 H 186.733 1.07482 -3.90166 0
M  V30 2006 H 183.488 -0.792795 -4.66917 0
M  V30 2007 H 183.912 -3.01274 -6.0627 0
M  V30 2008 H 188.554 -0.83247 -4.14524 0
M  V30 2009 H 186.272 -4.44337 -6.74974 0
M  V30 2010 H 189.858 -2.66695 -5.17074 0
M  V30 2011 H 188.738 -4.44855 -6.45813 0
M  V30 2012 N 186.241 1.57166 -0.116904 0
M  V30 2013 C 187.204 2.14039 0.819742 0
M  V30 2014 C 188.204 1.07477 1.19605 0
M  V30 2015 O 189.394 1.33263 1.1219 0
M  V30 2016 C 186.526 2.67891 2.10826 0
M  V30 2017 H 187.719 2.98128 0.325511 0
M  V30 2018 H 185.272 1.55739 0.132312 0
M  V30 2019 H 186.007 1.87384 2.64685 0
M  V30 2020 H 185.792 3.45823 1.84793 0
M  V30 2021 H 187.282 3.11809 2.77785 0
M  V30 2022 N 187.719 -0.156864 1.56817 0
M  V30 2023 C 188.649 -1.19589 2.00551 0
M  V30 2024 C 189.63 -1.4536 0.883426 0
M  V30 2025 O 190.815 -1.56449 1.15054 0
M  V30 2026 C 187.945 -2.53143 2.37773 0
M  V30 2027 C 186.899 -2.41913 3.53075 0
M  V30 2028 C 186.225 -3.80088 3.76081 0
M  V30 2029 C 187.525 -1.91157 4.86062 0
M  V30 2030 H 189.219 -0.832293 2.87599 0
M  V30 2031 H 186.765 -0.398918 1.38364 0
M  V30 2032 H 188.718 -3.26047 2.66967 0
M  V30 2033 H 187.442 -2.91319 1.4765 0
M  V30 2034 H 186.101 -1.71462 3.24031 0
M  V30 2035 H 185.749 -4.15683 2.83225 0
M  V30 2036 H 185.449 -3.73439 4.53671 0
M  V30 2037 H 186.973 -4.54556 4.0769 0
M  V30 2038 H 188.387 -2.53846 5.14038 0
M  V30 2039 H 186.784 -1.95422 5.67389 0
M  V30 2040 H 187.854 -0.866673 4.77092 0
M  V30 2041 N 189.197 -1.51736 -0.425897 0
M  V30 2042 C 190.144 -1.73875 -1.51776 0
M  V30 2043 C 191.114 -0.580702 -1.55618 0
M  V30 2044 O 192.299 -0.81641 -1.72451 0
M  V30 2045 C 189.439 -1.88012 -2.89388 0
M  V30 2046 C 188.552 -3.15606 -2.94986 0
M  V30 2047 C 187.687 -3.20271 -4.23793 0
M  V30 2048 C 186.726 -4.42134 -4.23302 0
M  V30 2049 N 185.863 -4.44284 -5.43651 0
M  V30 2050 H 190.703 -2.67071 -1.32201 0
M  V30 2051 H 188.24 -1.32351 -0.642008 0
M  V30 2052 H 190.198 -1.9419 -3.69251 0
M  V30 2053 H 188.828 -0.98213 -3.07496 0
M  V30 2054 H 187.88 -3.18681 -2.07717 0
M  V30 2055 H 189.192 -4.05486 -2.90486 0
M  V30 2056 H 188.346 -3.25428 -5.12036 0
M  V30 2057 H 187.085 -2.28299 -4.30965 0
M  V30 2058 H 186.09 -4.3714 -3.3345 0
M  V30 2059 H 187.315 -5.35382 -4.17783 0
M  V30 2060 H 185.261 -3.55188 -5.51523 0
M  V30 2061 H 185.178 -5.27988 -5.41078 0
M  V30 2062 H 186.446 -4.53649 -6.33895 0
M  V30 2063 N 190.675 0.682077 -1.42076 0
M  V30 2064 C 192.086 1.26246 -1.37546 0
M  V30 2065 C 192.437 1.96092 -0.0651481 0
M  V30 2066 O 191.562 1.99587 0.836297 0
M  V30 2067 C 192.157 2.29594 -2.49143 0
M  V30 2068 C 190.716 2.83175 -2.47969 0
M  V30 2069 C 189.863 1.57395 -2.28303 0
M  V30 2070 H 192.814 0.475937 -1.51395 0
M  V30 2071 H 192.835 3.11175 -2.18976 0
M  V30 2072 H 192.347 1.78729 -3.44496 0
M  V30 2073 H 190.448 3.3818 -1.56413 0
M  V30 2074 H 190.561 3.32687 -3.44755 0
M  V30 2075 H 188.925 1.83699 -1.76428 0
M  V30 2076 H 189.708 1.08507 -3.25701 0
M  V30 2077 N 192.153 1.28127 0.917671 0
M  V30 2078 C 193.564 1.13622 1.48145 0
M  V30 2079 C 193.915 -0.275207 1.9426 0
M  V30 2080 O 193.04 -1.1691 1.82102 0
M  V30 2081 C 193.635 2.05648 2.69248 0
M  V30 2082 C 192.194 1.95219 3.21818 0
M  V30 2083 C 191.341 1.97618 1.94532 0
M  V30 2084 H 194.292 1.40874 0.730772 0
M  V30 2085 H 194.313 1.61818 3.44377 0
M  V30 2086 H 193.825 3.08365 2.35653 0
M  V30 2087 H 191.926 0.955244 3.60147 0
M  V30 2088 H 192.039 2.81976 3.87333 0
M  V30 2089 H 190.403 1.41973 2.11461 0
M  V30 2090 H 191.186 3.02007 1.63238 0
M  V30 2091 N 193.631 -1.12557 1.10312 0
M  V30 2092 C 194.879 -1.83675 0.843091 0
M  V30 2093 C 195.2 -1.84435 -0.633131 0
M  V30 2094 O 194.47 -1.30657 -1.45964 0
M  V30 2095 H 193.05 -0.680138 0.308904 0
M  V30 2096 H 195.712 -1.36301 1.39313 0
M  V30 2097 H 194.808 -2.87908 1.2048 0
M  V30 2098 N 195.109 -0.891671 -1.2995 0
M  V30 2099 C 196.355 -0.523649 -1.96544 0
M  V30 2100 C 196.71 0.918394 -1.69066 0
M  V30 2101 O 196.003 1.64122 -0.988659 0
M  V30 2102 C 196.197 -0.742868 -3.49594 0
M  V30 2103 C 196.026 -2.20467 -3.9195 0
M  V30 2104 C 194.796 -2.85055 -4.17219 0
M  V30 2105 C 196.994 -3.17912 -4.04273 0
M  V30 2106 N 194.976 -4.21762 -4.46083 0
M  V30 2107 C 196.347 -4.39712 -4.37097 0
M  V30 2108 C 198.402 -3.1361 -3.86721 0
M  V30 2109 C 197.105 -5.5776 -4.54199 0
M  V30 2110 C 199.131 -4.30936 -4.05028 0
M  V30 2111 C 198.493 -5.51504 -4.38204 0
M  V30 2112 H 194.592 -0.241072 -0.743914 0
M  V30 2113 H 197.176 -1.15081 -1.5705 0
M  V30 2114 H 195.347 -0.14515 -3.88129 0
M  V30 2115 H 197.079 -0.341081 -4.0326 0
M  V30 2116 H 193.834 -2.35889 -4.10674 0
M  V30 2117 H 194.258 -4.92382 -4.64638 0
M  V30 2118 H 198.9 -2.21489 -3.60142 0
M  V30 2119 H 196.618 -6.50379 -4.79618 0
M  V30 2120 H 200.204 -4.29085 -3.92909 0
M  V30 2121 H 199.084 -6.40778 -4.52077 0
M  V30 2122 N 196.587 1.43421 -0.653314 0
M  V30 2123 C 198.003 1.56341 -0.320886 0
M  V30 2124 C 198.203 1.63696 1.17499 0
M  V30 2125 O 197.259 1.59208 1.95982 0
M  V30 2126 C 198.572 2.82424 -1.03233 0
M  V30 2127 C 200.12 2.96168 -1.01259 0
M  V30 2128 C 200.595 4.25084 -1.70492 0
M  V30 2129 N 202.086 4.31948 -1.67257 0
M  V30 2130 C 202.821 5.30466 -2.17701 0
M  V30 2131 N 202.317 6.35261 -2.76434 0
M  V30 2132 N 204.11 5.2212 -2.082 0
M  V30 2133 H 196.261 1.3689 -1.62403 0
M  V30 2134 H 198.524 0.657455 -0.682977 0
M  V30 2135 H 198.23 2.83053 -2.08744 0
M  V30 2136 H 198.104 3.72653 -0.583948 0
M  V30 2137 H 200.491 2.9508 0.0341235 0
M  V30 2138 H 200.572 2.07229 -1.49966 0
M  V30 2139 H 200.216 4.26932 -2.7512 0
M  V30 2140 H 200.146 5.1292 -1.19251 0
M  V30 2141 H 202.637 3.56838 -1.24398 0
M  V30 2142 H 202.95 7.06754 -3.12601 0
M  V30 2143 H 201.295 6.35884 -2.80495 0
M  V30 2144 H 204.486 4.39166 -1.62021 0
M  V30 2145 H 204.659 5.98739 -2.47822 0
M  V30 2146 N 198.065 0.39524 1.52563 0
M  V30 2147 C 199.012 -0.437036 2.26624 0
M  V30 2148 C 199.982 -1.05281 1.28472 0
M  V30 2149 O 201.167 -1.07971 1.57311 0
M  V30 2150 C 198.307 -1.55524 3.08069 0
M  V30 2151 C 197.42 -0.961745 4.21158 0
M  V30 2152 C 196.555 -2.05149 4.89987 0
M  V30 2153 C 195.594 -1.4342 5.95061 0
M  V30 2154 N 194.731 -2.46351 6.57462 0
M  V30 2155 H 199.571 0.200976 2.97322 0
M  V30 2156 H 197.108 0.110944 1.46681 0
M  V30 2157 H 199.066 -2.21437 3.53584 0
M  V30 2158 H 197.696 -2.16348 2.3957 0
M  V30 2159 H 196.748 -0.192048 3.79915 0
M  V30 2160 H 198.06 -0.470701 4.96574 0
M  V30 2161 H 197.214 -2.78819 5.38837 0
M  V30 2162 H 195.953 -2.57615 4.14109 0
M  V30 2163 H 194.958 -0.682774 5.45544 0
M  V30 2164 H 196.183 -0.917416 6.72875 0
M  V30 2165 H 194.129 -2.97975 5.8442 0
M  V30 2166 H 194.046 -2.02019 7.28508 0
M  V30 2167 H 195.314 -3.19633 7.10954 0
M  V30 2168 N 199.544 -1.57102 0.125237 0
M  V30 2169 C 200.821 -1.86953 -0.575142 0
M  V30 2170 C 201.201 -1.02749 -1.84407 0
M  V30 2171 O 200.549 -0.108144 -2.28244 0
M  V30 2172 C 200.759 -3.38198 -0.861583 0
M  V30 2173 C 202.107 -4.06937 -1.21192 0
M  V30 2174 O 203.131 -3.43252 -0.951645 0
M  V30 2175 O 201.99 -5.19364 -1.70068 0
M  V30 2176 H 199.084 -0.774147 -0.290906 0
M  V30 2177 H 201.63 -1.68942 0.160211 0
M  V30 2178 H 200.402 -3.91282 0.0373647 0
M  V30 2179 H 200.025 -3.61661 -1.65188 0
M  V30 2180 N 201.022 0.148545 -1.56898 0
M  V30 2181 C 202.268 0.857877 -1.84424 0
M  V30 2182 C 202.623 1.7886 -0.709006 0
M  V30 2183 O 201.916 1.89344 0.293139 0
M  V30 2184 C 202.11 1.67064 -3.1595 0
M  V30 2185 C 201.939 0.82011 -4.42159 0
M  V30 2186 C 200.709 0.486328 -5.02954 0
M  V30 2187 C 202.907 0.151155 -5.14078 0
M  V30 2188 N 200.889 -0.377956 -6.12735 0
M  V30 2189 C 202.26 -0.573333 -6.17343 0
M  V30 2190 C 204.315 0.0716685 -4.97848 0
M  V30 2191 C 203.018 -1.3698 -7.06137 0
M  V30 2192 C 205.044 -0.711532 -5.87104 0
M  V30 2193 C 204.406 -1.42431 -6.8985 0
M  V30 2194 H 200.505 0.291798 -0.725519 0
M  V30 2195 H 203.089 0.123347 -1.94309 0
M  V30 2196 H 201.26 2.37642 -3.07215 0
M  V30 2197 H 202.992 2.32302 -3.31388 0
M  V30 2198 H 199.747 0.821753 -4.66416 0
M  V30 2199 H 200.171 -0.801077 -6.72244 0
M  V30 2200 H 204.813 0.608381 -4.184 0
M  V30 2201 H 202.531 -1.91778 -7.85014 0
M  V30 2202 H 206.117 -0.775005 -5.76615 0
M  V30 2203 H 204.997 -2.02061 -7.57721 0
M  V30 2204 N 202.5 1.5196 0.417844 0
M  V30 2205 C 203.45 1.7106 1.5074 0
M  V30 2206 C 204.434 0.564487 1.50673 0
M  V30 2207 O 205.626 0.821206 1.56797 0
M  V30 2208 C 202.755 1.85677 2.88754 0
M  V30 2209 C 201.841 3.06133 2.93502 0
M  V30 2210 N 202.232 4.28987 2.67962 0
M  V30 2211 C 200.53 3.05787 3.24669 0
M  V30 2212 C 201.231 5.10395 2.79055 0
M  V30 2213 N 200.207 4.45455 3.11561 0
M  V30 2214 H 204.009 2.63696 1.29775 0
M  V30 2215 H 201.523 1.49873 0.625436 0
M  V30 2216 H 203.52 1.97475 3.67164 0
M  V30 2217 H 202.18 0.942348 3.10725 0
M  V30 2218 H 203.191 4.57607 2.4252 0
M  V30 2219 H 199.868 2.2405 3.52289 0
M  V30 2220 H 201.258 6.18247 2.63097 0
M  V30 2221 N 203.978 -0.674533 1.42435 0
M  V30 2222 C 205.224 -1.43671 1.43131 0
M  V30 2223 C 205.557 -1.94142 0.0476021 0
M  V30 2224 O 204.832 -1.70924 -0.928188 0
M  V30 2225 C 205.115 -2.63355 2.45594 0
M  V30 2226 C 204.968 -2.18514 3.93156 0
M  V30 2227 C 206.287 -3.65571 2.45043 0
M  V30 2228 H 203.406 -0.521077 0.521198 0
M  V30 2229 H 206.048 -0.766551 1.7385 0
M  V30 2230 H 204.198 -3.2053 2.19528 0
M  V30 2231 H 205.87 -1.66504 4.30202 0
M  V30 2232 H 204.113 -1.50086 4.07009 0
M  V30 2233 H 204.784 -3.04484 4.60428 0
M  V30 2234 H 207.26 -3.18113 2.68223 0
M  V30 2235 H 206.136 -4.46893 3.18713 0
M  V30 2236 H 206.397 -4.16716 1.47649 0
M  V30 2237 N 205.456 -1.28612 -0.910864 0
M  V30 2238 C 206.704 -1.15705 -1.65701 0
M  V30 2239 C 207.025 0.29416 -1.92769 0
M  V30 2240 O 206.295 1.20331 -1.54588 0
M  V30 2241 H 204.875 -0.425216 -0.614167 0
M  V30 2242 H 207.537 -1.61381 -1.0928 0
M  V30 2243 H 206.633 -1.6988 -2.61815 0
M  V30 2244 N 206.934 1.1197 -1.10907 0
M  V30 2245 C 208.18 1.8386 -0.855773 0
M  V30 2246 C 208.513 1.84134 0.617103 0
M  V30 2247 O 207.788 1.29041 1.45529 0
M  V30 2248 C 208.071 3.31305 -1.411 0
M  V30 2249 C 207.924 3.39456 -2.9511 0
M  V30 2250 C 209.243 4.2721 -1.05736 0
M  V30 2251 H 206.362 0.667545 -0.312334 0
M  V30 2252 H 209.004 1.31331 -1.37303 0
M  V30 2253 H 207.154 3.76169 -0.97105 0
M  V30 2254 H 208.826 3.03191 -3.47668 0
M  V30 2255 H 207.069 2.79849 -3.31462 0
M  V30 2256 H 207.74 4.43209 -3.29044 0
M  V30 2257 H 210.216 3.90497 -1.43706 0
M  V30 2258 H 209.092 5.28775 -1.47269 0
M  V30 2259 H 209.353 4.42088 0.0325958 0
M  V30 2260 N 208.412 0.89855 1.29475 0
M  V30 2261 C 209.828 0.594483 1.48115 0
M  V30 2262 C 210.028 -0.86431 1.82022 0
M  V30 2263 O 209.084 -1.64457 1.91599 0
M  V30 2264 C 210.397 1.51932 2.59494 0
M  V30 2265 C 211.945 1.5244 2.7337 0
M  V30 2266 C 212.42 2.43548 3.87877 0
M  V30 2267 N 213.911 2.41589 3.95208 0
M  V30 2268 C 214.646 3.08789 4.83153 0
M  V30 2269 N 214.142 3.85265 5.75798 0
M  V30 2270 N 215.935 2.97952 4.76635 0
M  V30 2271 H 208.086 1.84207 1.05742 0
M  V30 2272 H 210.349 0.789251 0.525154 0
M  V30 2273 H 210.055 2.55865 2.41301 0
M  V30 2274 H 209.929 1.23899 3.56271 0
M  V30 2275 H 212.316 0.492518 2.90961 0
M  V30 2276 H 212.397 1.8451 1.77172 0
M  V30 2277 H 212.041 3.46829 3.71041 0
M  V30 2278 H 211.971 2.08788 4.83441 0
M  V30 2279 H 214.462 1.86025 3.28943 0
M  V30 2280 H 214.775 4.33598 6.39697 0
M  V30 2281 H 213.12 3.89371 5.75687 0
M  V30 2282 H 216.311 2.37723 4.03244 0
M  V30 2283 H 216.484 3.50599 5.44962 0
M  V30 2284 N 209.89 -1.43072 0.660911 0
M  V30 2285 C 211.136 -2.0202 0.177708 0
M  V30 2286 C 211.469 -1.52066 -1.20787 0
M  V30 2287 O 210.744 -0.716987 -1.80802 0
M  V30 2288 C 211.027 -3.59561 0.197019 0
M  V30 2289 C 210.88 -4.19727 1.61706 0
M  V30 2290 C 212.199 -4.37664 -0.462396 0
M  V30 2291 H 209.318 -0.734034 0.0660494 0
M  V30 2292 H 211.96 -1.70272 0.843058 0
M  V30 2293 H 210.11 -3.86739 -0.369527 0
M  V30 2294 H 211.782 -4.03553 2.23479 0
M  V30 2295 H 210.025 -3.76084 2.16201 0
M  V30 2296 H 210.696 -5.28834 1.58237 0
M  V30 2297 H 213.172 -4.16095 0.0197215 0
M  V30 2298 H 212.048 -5.47305 -0.418188 0
M  V30 2299 H 212.309 -4.14493 -1.53778 0
M  V30 2300 N 211.368 -0.403325 -1.52352 0
M  V30 2301 C 212.315 0.425011 -2.26853 0
M  V30 2302 C 213.285 1.04598 -1.29029 0
M  V30 2303 O 214.47 1.07135 -1.57882 0
M  V30 2304 C 211.61 1.53888 -3.08889 0
M  V30 2305 C 210.723 0.939396 -4.21663 0
M  V30 2306 C 209.858 2.02547 -4.91068 0
M  V30 2307 C 208.897 1.40263 -5.95813 0
M  V30 2308 N 208.034 2.4286 -6.58759 0
M  V30 2309 H 212.874 -0.21674 -2.97211 0
M  V30 2310 H 210.411 -0.118722 -1.4662 0
M  V30 2311 H 212.369 2.19558 -3.54753 0
M  V30 2312 H 210.999 2.15074 -2.40714 0
M  V30 2313 H 210.051 0.171898 -3.80011 0
M  V30 2314 H 211.363 0.44436 -4.96817 0
M  V30 2315 H 210.517 2.75958 -5.40308 0
M  V30 2316 H 209.256 2.55415 -4.15469 0
M  V30 2317 H 208.261 0.653833 -5.45898 0
M  V30 2318 H 209.486 0.881719 -6.73352 0
M  V30 2319 H 207.432 2.94871 -5.85992 0
M  V30 2320 H 207.349 1.98152 -7.2957 0
M  V30 2321 H 208.617 3.15858 -7.12639 0
M  V30 2322 N 212.846 1.57033 -0.133567 0
M  V30 2323 C 214.071 2.00475 0.531477 0
M  V30 2324 C 214.496 1.01291 1.58499 0
M  V30 2325 O 213.854 -0.0133279 1.81295 0
M  V30 2326 C 213.902 3.42729 1.12113 0
M  V30 2327 O 213.006 3.46498 2.23636 0
M  V30 2328 H 212.347 0.650876 0.131362 0
M  V30 2329 H 214.877 2.03344 -0.22634 0
M  V30 2330 H 214.887 3.81246 1.4531 0
M  V30 2331 H 213.562 4.14428 0.349557 0
M  V30 2332 H 212.139 3.19811 1.91769 0
M  V30 2333 N 214.325 -0.140222 1.56975 0
M  V30 2334 C 215.553 -0.866437 1.87884 0
M  V30 2335 C 215.968 -1.74428 0.722517 0
M  V30 2336 O 215.325 -1.79891 -0.30749 0
M  V30 2337 C 215.376 -1.71753 3.18093 0
M  V30 2338 O 215.097 -0.875056 4.29272 0
M  V30 2339 C 216.598 -2.55074 3.62563 0
M  V30 2340 H 213.818 -0.25019 0.622612 0
M  V30 2341 H 216.362 -0.130977 2.0408 0
M  V30 2342 H 214.517 -2.40598 3.03631 0
M  V30 2343 H 214.931 -1.46002 5.03769 0
M  V30 2344 H 216.405 -3.10356 4.5649 0
M  V30 2345 H 216.882 -3.31434 2.88181 0
M  V30 2346 H 217.488 -1.91509 3.79743 0
M  V30 2347 N 215.803 -1.52179 -0.40978 0
M  V30 2348 C 217.051 -1.65878 -1.15451 0
M  V30 2349 C 217.372 -0.390771 -1.91044 0
M  V30 2350 O 216.642 0.594323 -1.86667 0
M  V30 2351 H 215.222 -0.611405 -0.429177 0
M  V30 2352 H 217.884 -1.89219 -0.467134 0
M  V30 2353 H 216.98 -2.49954 -1.86894 0
M  V30 2354 N 217.281 0.66697 -1.42791 0
M  V30 2355 C 218.228 1.7803 -1.4688 0
M  V30 2356 C 219.198 1.6299 -0.319919 0
M  V30 2357 O 220.383 1.83432 -0.525118 0
M  V30 2358 C 217.523 3.1611 -1.38451 0
M  V30 2359 C 216.636 3.42381 -2.63437 0
M  V30 2360 C 215.771 4.70232 -2.47094 0
M  V30 2361 C 214.81 4.89564 -3.67415 0
M  V30 2362 N 213.947 6.08661 -3.49966 0
M  V30 2363 H 218.787 1.7387 -2.42019 0
M  V30 2364 H 216.324 0.84868 -1.20149 0
M  V30 2365 H 218.282 3.95914 -1.31561 0
M  V30 2366 H 216.912 3.19374 -0.469033 0
M  V30 2367 H 215.964 2.56774 -2.80662 0
M  V30 2368 H 217.276 3.52557 -3.52853 0
M  V30 2369 H 216.43 5.5814 -2.37834 0
M  V30 2370 H 215.169 4.62353 -1.5518 0
M  V30 2371 H 214.174 4.00096 -3.77099 0
M  V30 2372 H 215.399 4.99282 -4.6032 0
M  V30 2373 H 213.345 6.0194 -2.60776 0
M  V30 2374 H 213.262 6.19733 -4.32975 0
M  V30 2375 H 214.53 6.99226 -3.44532 0
M  V30 2376 N 218.759 1.29093 0.90403 0
M  V30 2377 C 219.689 1.16401 2.02418 0
M  V30 2378 C 220.67 0.0593085 1.69997 0
M  V30 2379 O 221.855 0.238021 1.92736 0
M  V30 2380 C 218.985 0.835233 3.37107 0
M  V30 2381 C 217.939 1.89578 3.83724 0
M  V30 2382 C 217.265 1.42041 5.15489 0
M  V30 2383 C 218.565 3.30394 4.04521 0
M  V30 2384 H 220.259 2.10109 2.13295 0
M  V30 2385 H 217.805 1.01157 1.02486 0
M  V30 2386 H 219.758 0.733169 4.14973 0
M  V30 2387 H 218.482 -0.137543 3.2631 0
M  V30 2388 H 217.141 1.98715 3.08071 0
M  V30 2389 H 216.789 0.436426 5.01103 0
M  V30 2390 H 216.489 2.12964 5.4765 0
M  V30 2391 H 218.013 1.33176 5.959 0
M  V30 2392 H 219.427 3.24123 4.72882 0
M  V30 2393 H 217.824 3.99237 4.48029 0
M  V30 2394 H 218.894 3.73692 3.09002 0
M  V30 2395 N 220.237 -1.11381 1.11499 0
M  V30 2396 C 221.483 -1.83403 0.865512 0
M  V30 2397 C 221.816 -1.84459 -0.607329 0
M  V30 2398 O 221.091 -1.29811 -1.44842 0
M  V30 2399 C 221.374 -3.30552 1.42855 0
M  V30 2400 C 221.227 -3.37886 2.96906 0
M  V30 2401 C 222.546 -4.26643 1.08 0
M  V30 2402 H 219.665 -0.665879 0.31587 0
M  V30 2403 H 222.307 -1.30601 1.37998 0
M  V30 2404 H 220.457 -3.75648 0.990985 0
M  V30 2405 H 222.129 -3.01343 3.49271 0
M  V30 2406 H 220.372 -2.78088 3.32941 0
M  V30 2407 H 221.043 -4.41458 3.31389 0
M  V30 2408 H 223.519 -3.89729 1.45775 0
M  V30 2409 H 222.395 -5.27986 1.50072 0
M  V30 2410 H 222.656 -4.42099 -0.00915037 0
M  V30 2411 N 221.715 -0.905404 -1.28997 0
M  V30 2412 C 222.678 -0.392253 -2.25819 0
M  V30 2413 C 223.678 0.476753 -1.5357 0
M  V30 2414 O 224.868 0.280994 -1.71919 0
M  V30 2415 C 222 0.438588 -3.38067 0
M  V30 2416 H 223.193 -1.24743 -2.72725 0
M  V30 2417 H 220.746 -0.684051 -1.40536 0
M  V30 2418 H 221.481 1.31352 -2.96508 0
M  V30 2419 H 221.266 -0.184167 -3.91667 0
M  V30 2420 H 222.756 0.78873 -4.10084 0
M  V30 2421 N 223.193 1.4272 -0.668489 0
M  V30 2422 C 224.44 2.01624 -0.18814 0
M  V30 2423 C 224.768 1.5282 1.20317 0
M  V30 2424 O 224.023 0.718323 1.8204 0
M  V30 2425 C 224.322 3.57021 -0.164499 0
M  V30 2426 C 223.988 4.25232 -1.49962 0
M  V30 2427 C 222.65 4.4358 -1.8652 0
M  V30 2428 C 225.002 4.63727 -2.37921 0
M  V30 2429 C 222.33 4.97694 -3.10674 0
M  V30 2430 C 224.682 5.19218 -3.6138 0
M  V30 2431 C 223.346 5.3578 -3.98115 0
M  V30 2432 H 222.616 0.737795 -0.0688454 0
M  V30 2433 H 225.263 1.70991 -0.862225 0
M  V30 2434 H 223.568 3.87285 0.593079 0
M  V30 2435 H 225.265 4.00372 0.224271 0
M  V30 2436 H 221.855 4.11306 -1.20522 0
M  V30 2437 H 226.039 4.4923 -2.10964 0
M  V30 2438 H 221.295 5.08702 -3.39164 0
M  V30 2439 H 225.469 5.4799 -4.29743 0
M  V30 2440 H 223.096 5.77475 -4.94395 0
M  V30 2441 N 224.671 0.411399 1.52136 0
M  V30 2442 C 225.92 -0.165009 2.01024 0
M  V30 2443 C 226.233 -1.4603 1.30133 0
M  V30 2444 O 227.439 -2.1181 1.69849 0
M  V30 2445 C 225.895 -0.344618 3.58246 0
M  V30 2446 C 225.503 0.938716 4.38055 0
M  V30 2447 C 227.247 -0.876195 4.15359 0
M  V30 2448 C 225.154 0.726172 5.86925 0
M  V30 2449 H 224.084 -0.0654407 0.751155 0
M  V30 2450 H 226.735 0.537192 1.75461 0
M  V30 2451 H 225.117 -1.10921 3.80148 0
M  V30 2452 H 226.291 1.70963 4.27912 0
M  V30 2453 H 224.606 1.39688 3.92271 0
M  V30 2454 H 227.203 -1.05128 5.24263 0
M  V30 2455 H 227.546 -1.85152 3.7286 0
M  V30 2456 H 228.079 -0.170607 3.97434 0
M  V30 2457 H 224.818 1.67312 6.33788 0
M  V30 2458 H 224.338 -0.00540283 5.998 0
M  V30 2459 H 226.017 0.369231 6.45946 0
M  V30 2460 N 226.149 -1.5696 0.141893 0
M  V30 2461 C 227.112 -2.15316 -0.785587 0
M  V30 2462 C 228.112 -1.09366 -1.1788 0
M  V30 2463 O 229.302 -1.35031 -1.10056 0
M  V30 2464 C 226.434 -2.71211 -2.06537 0
M  V30 2465 H 227.627 -2.98608 -0.278041 0
M  V30 2466 H 225.18 -1.5593 -0.107519 0
M  V30 2467 H 225.915 -1.91571 -2.6167 0
M  V30 2468 H 225.7 -3.4872 -1.79268 0
M  V30 2469 H 227.19 -3.16189 -2.72789 0
M  V30 2470 N 227.627 0.131896 -1.57047 0
M  V30 2471 C 228.59 1.14638 -1.98471 0
M  V30 2472 C 229.59 1.35029 -0.873148 0
M  V30 2473 O 230.78 1.31764 -1.13946 0
M  V30 2474 C 227.912 2.50358 -2.31373 0
M  V30 2475 H 229.105 0.79064 -2.8929 0
M  V30 2476 H 226.658 0.375761 -1.51716 0
M  V30 2477 H 227.393 2.90876 -1.43393 0
M  V30 2478 H 227.178 2.36915 -3.12432 0
M  V30 2479 H 228.668 3.23395 -2.64207 0
M  V30 2480 N 229.106 1.52395 0.401703 0
M  V30 2481 C 230.334 1.70676 1.16949 0
M  V30 2482 C 230.749 0.419503 1.8408 0
M  V30 2483 O 230.106 -0.605061 1.72178 0
M  V30 2484 C 230.157 2.84753 2.22706 0
M  V30 2485 O 229.878 4.08495 1.58314 0
M  V30 2486 C 231.379 3.14608 3.12309 0
M  V30 2487 H 228.599 0.571787 0.351142 0
M  V30 2488 H 231.143 1.98987 0.471652 0
M  V30 2489 H 229.298 2.58941 2.88147 0
M  V30 2490 H 229.712 4.72117 2.28485 0
M  V30 2491 H 231.186 3.97923 3.82572 0
M  V30 2492 H 231.663 2.28464 3.75101 0
M  V30 2493 H 232.269 3.42212 2.52529 0
M  V30 2494 N 230.584 -0.659388 1.43143 0
M  V30 2495 C 231.995 -1.24041 1.39537 0
M  V30 2496 C 232.346 -1.95963 0.0963364 0
M  V30 2497 O 231.471 -2.00892 -0.804438 0
M  V30 2498 C 232.066 -2.25601 2.52764 0
M  V30 2499 C 230.625 -2.79195 2.52443 0
M  V30 2500 C 229.772 -1.53743 2.30778 0
M  V30 2501 H 232.723 -0.451792 1.52133 0
M  V30 2502 H 232.744 -3.07651 2.23899 0
M  V30 2503 H 232.256 -1.73226 3.47296 0
M  V30 2504 H 230.357 -3.35649 1.61773 0
M  V30 2505 H 230.47 -3.2716 3.50004 0
M  V30 2506 H 228.834 -1.80869 1.79328 0
M  V30 2507 H 229.617 -1.03312 3.27386 0
M  V30 2508 N 232.062 -1.29571 -0.897171 0
M  V30 2509 C 233.308 -1.17863 -1.65034 0
M  V30 2510 C 233.641 0.268729 -1.92332 0
M  V30 2511 O 232.916 1.19378 -1.53555 0
M  V30 2512 C 233.199 -1.995 -2.99786 0
M  V30 2513 C 233.052 -3.5239 -2.79538 0
M  V30 2514 C 234.371 -1.82335 -4.00552 0
M  V30 2515 H 231.49 -0.429528 -0.598895 0
M  V30 2516 H 234.132 -1.59072 -1.03905 0
M  V30 2517 H 232.282 -1.64485 -3.51962 0
M  V30 2518 H 233.954 -3.97401 -2.34244 0
M  V30 2519 H 232.197 -3.77187 -2.14273 0
M  V30 2520 H 232.868 -4.04787 -3.75302 0
M  V30 2521 H 235.344 -2.12924 -3.57495 0
M  V30 2522 H 234.22 -2.41801 -4.92771 0
M  V30 2523 H 234.481 -0.779209 -4.35179 0
M  V30 2524 N 233.54 1.10788 -1.12088 0
M  V30 2525 C 234.768 1.86461 -0.896651 0
M  V30 2526 C 235.183 1.80492 0.553912 0
M  V30 2527 O 234.54 1.19102 1.38278 0
M  V30 2528 C 234.591 3.35006 -1.35843 0
M  V30 2529 O 234.312 3.40866 -2.75213 0
M  V30 2530 C 235.813 4.27565 -1.1706 0
M  V30 2531 H 233.033 0.589425 -0.320654 0
M  V30 2532 H 235.577 1.40076 -1.48993 0
M  V30 2533 H 233.732 3.7887 -0.808458 0
M  V30 2534 H 234.146 4.33411 -2.9539 0
M  V30 2535 H 235.62 5.30007 -1.54263 0
M  V30 2536 H 236.097 4.3906 -0.110814 0
M  V30 2537 H 236.703 3.89501 -1.70789 0
M  V30 2538 N 235.018 0.912232 1.28515 0
M  V30 2539 C 236.265 0.544599 1.95039 0
M  V30 2540 C 236.593 -0.911435 1.71823 0
M  V30 2541 O 235.848 -1.66317 1.03137 0
M  V30 2542 C 236.147 0.798392 3.48368 0
M  V30 2543 C 235.813 2.23374 3.91682 0
M  V30 2544 C 234.475 2.62617 4.03219 0
M  V30 2545 C 236.827 3.16786 4.13879 0
M  V30 2546 C 234.155 3.94429 4.3433 0
M  V30 2547 C 236.507 4.48161 4.46469 0
M  V30 2548 C 235.171 4.8726 4.56217 0
M  V30 2549 H 234.441 0.199283 0.7137 0
M  V30 2550 H 237.088 1.15327 1.52879 0
M  V30 2551 H 235.393 0.106908 3.91654 0
M  V30 2552 H 237.09 0.493141 3.97956 0
M  V30 2553 H 233.68 1.91922 3.83228 0
M  V30 2554 H 237.864 2.87677 4.0442 0
M  V30 2555 H 233.12 4.24426 4.40082 0
M  V30 2556 H 237.294 5.20559 4.62592 0
M  V30 2557 H 234.921 5.89431 4.80078 0
M  V30 2558 N 236.496 -1.42363 0.676048 0
M  V30 2559 C 237.443 -2.308 -0.00150904 0
M  V30 2560 C 238.413 -1.46032 -0.791444 0
M  V30 2561 O 239.598 -1.74861 -0.76344 0
M  V30 2562 C 236.738 -3.31883 -0.945919 0
M  V30 2563 C 235.851 -4.31741 -0.149675 0
M  V30 2564 C 234.986 -5.19898 -1.08995 0
M  V30 2565 C 234.025 -6.11434 -0.285465 0
M  V30 2566 N 233.162 -6.92138 -1.17851 0
M  V30 2567 H 238.002 -2.88187 0.758455 0
M  V30 2568 H 235.539 -1.41952 0.38576 0
M  V30 2569 H 237.497 -3.89019 -1.50731 0
M  V30 2570 H 236.127 -2.76093 -1.6725 0
M  V30 2571 H 235.179 -3.76713 0.528359 0
M  V30 2572 H 236.491 -4.96534 0.474866 0
M  V30 2573 H 235.645 -5.81772 -1.72123 0
M  V30 2574 H 234.384 -4.55284 -1.74837 0
M  V30 2575 H 233.389 -5.48627 0.359018 0
M  V30 2576 H 234.614 -6.78097 0.368883 0
M  V30 2577 H 232.56 -6.30152 -1.82332 0
M  V30 2578 H 232.477 -7.53542 -0.609082 0
M  V30 2579 H 233.745 -7.58499 -1.79722 0
M  V30 2580 N 237.974 -0.419461 -1.51915 0
M  V30 2581 C 238.904 0.391813 -2.30189 0
M  V30 2582 C 239.885 1.03699 -1.34836 0
M  V30 2583 O 241.07 1.04403 -1.63748 0
M  V30 2584 C 238.2 1.50312 -3.13087 0
M  V30 2585 C 237.154 0.9824 -4.16573 0
M  V30 2586 C 236.48 2.18809 -4.8788 0
M  V30 2587 C 237.78 0.0292356 -5.22292 0
M  V30 2588 H 239.474 -0.26135 -2.98257 0
M  V30 2589 H 237.02 -0.127134 -1.43438 0
M  V30 2590 H 238.973 2.07773 -3.66617 0
M  V30 2591 H 237.697 2.18431 -2.42807 0
M  V30 2592 H 236.356 0.430119 -3.64068 0
M  V30 2593 H 236.004 2.85507 -4.14119 0
M  V30 2594 H 235.704 1.84615 -5.57845 0
M  V30 2595 H 237.228 2.76858 -5.44226 0
M  V30 2596 H 238.642 0.512976 -5.71 0
M  V30 2597 H 237.039 -0.2244 -5.9968 0
M  V30 2598 H 238.109 -0.912931 -4.76228 0
M  V30 2599 N 239.452 1.56882 -0.150215 0
M  V30 2600 C 240.4 2.18214 0.805313 0
M  V30 2601 C 241.394 1.14006 1.25296 0
M  V30 2602 O 242.6 1.3225 1.22107 0
M  V30 2603 H 238.975 0.698762 0.277913 0
M  V30 2604 H 240.946 2.97231 0.263862 0
M  V30 2605 C 239.695 2.82065 2.03309 0
M  V30 2606 H 239.018 3.61968 1.69763 0
M  V30 2607 H 240.458 3.28477 2.68103 0
M  V30 2608 C 238.917 1.80739 2.84315 0
M  V30 2609 O 239.447 1.27983 3.80767 0
M  V30 2610 N 237.653 1.4997 2.48913 0
M  V30 2611 H 237.2 1.93062 1.70542 0
M  V30 2612 H 237.158 0.824217 3.03404 0
M  V30 2613 N 240.93 -0.123565 1.57115 0
M  V30 2614 C 241.877 -1.15177 2.00007 0
M  V30 2615 C 242.847 -1.41403 0.871454 0
M  V30 2616 O 244.032 -1.53346 1.13533 0
M  V30 2617 C 241.172 -2.47436 2.40561 0
M  V30 2618 C 240.285 -2.28184 3.66819 0
M  V30 2619 C 239.42 -3.53641 3.96373 0
M  V30 2620 C 238.459 -3.29528 5.15827 0
M  V30 2621 N 237.596 -4.47175 5.41275 0
M  V30 2622 H 242.436 -0.779008 2.87638 0
M  V30 2623 H 239.973 -0.373166 1.42288 0
M  V30 2624 H 241.931 -3.24584 2.62109 0
M  V30 2625 H 240.561 -2.82614 1.55978 0
M  V30 2626 H 239.613 -1.41976 3.52912 0
M  V30 2627 H 240.925 -2.0634 4.5412 0
M  V30 2628 H 240.079 -4.39209 4.18545 0
M  V30 2629 H 238.818 -3.78512 3.07538 0
M  V30 2630 H 237.823 -2.42349 4.93505 0
M  V30 2631 H 239.048 -3.06031 6.06236 0
M  V30 2632 H 236.994 -4.72175 4.55397 0
M  V30 2633 H 236.911 -4.28419 6.22891 0
M  V30 2634 H 238.179 -5.3389 5.67963 0
M  V30 2635 N 242.408 -1.52605 -0.393616 0
M  V30 2636 C 243.633 -1.71592 -1.16495 0
M  V30 2637 C 244.058 -0.43133 -1.83088 0
M  V30 2638 O 243.416 0.612523 -1.7064 0
M  V30 2639 C 243.464 -2.86318 -2.19213 0
M  V30 2640 O 242.568 -2.52969 -3.257 0
M  V30 2641 H 241.909 -0.570734 -0.33935 0
M  V30 2642 H 244.439 -1.99377 -0.459324 0
M  V30 2643 H 244.449 -3.1168 -2.63286 0
M  V30 2644 H 243.124 -3.79511 -1.7013 0
M  V30 2645 H 241.701 -2.38332 -2.86797 0
M  V30 2646 N 243.887 0.651787 -1.4349 0
M  V30 2647 C 244.835 1.78586 -1.49029 0
M  V30 2648 C 245.829 1.65448 -0.363767 0
M  V30 2649 O 247.035 1.71777 -0.537821 0
M  V30 2650 H 243.41 0.589236 -0.467231 0
M  V30 2651 H 245.381 1.71035 -2.44519 0
M  V30 2652 C 244.13 3.16851 -1.43181 0
M  V30 2653 H 243.453 3.27598 -2.29171 0
M  V30 2654 H 244.893 3.96156 -1.51118 0
M  V30 2655 C 243.352 3.36568 -0.149616 0
M  V30 2656 O 243.882 3.93885 0.788509 0
M  V30 2657 N 242.088 2.90539 -0.0593484 0
M  V30 2658 H 241.635 2.4408 -0.823575 0
M  V30 2659 H 241.593 3.04108 0.797853 0
M  V30 2660 N 245.365 1.30045 0.890287 0
M  V30 2661 C 246.312 1.15976 1.99545 0
M  V30 2662 C 247.282 0.0506202 1.66023 0
M  V30 2663 O 248.467 0.219847 1.89529 0
M  V30 2664 C 245.607 0.852054 3.34416 0
M  V30 2665 C 244.72 2.04255 3.80662 0
M  V30 2666 C 243.855 1.6734 5.04154 0
M  V30 2667 C 242.894 2.82916 5.42794 0
M  V30 2668 N 242.031 2.46333 6.57468 0
M  V30 2669 H 246.871 2.10524 2.10911 0
M  V30 2670 H 244.408 1.04749 1.03276 0
M  V30 2671 H 246.366 0.654296 4.12037 0
M  V30 2672 H 244.996 -0.0565502 3.2275 0
M  V30 2673 H 244.048 2.35172 2.98995 0
M  V30 2674 H 245.36 2.90826 4.05242 0
M  V30 2675 H 244.514 1.43908 5.89386 0
M  V30 2676 H 243.253 0.779308 4.81433 0
M  V30 2677 H 242.258 3.0702 4.56091 0
M  V30 2678 H 243.483 3.73004 5.6749 0
M  V30 2679 H 241.429 1.59423 6.36334 0
M  V30 2680 H 241.346 3.26436 6.81891 0
M  V30 2681 H 242.614 2.26244 7.45945 0
M  V30 2682 N 246.843 -1.10192 1.12674 0
M  V30 2683 C 248.089 -1.82475 0.884915 0
M  V30 2684 C 248.422 -1.85093 -0.58773 0
M  V30 2685 O 247.697 -1.3134 -1.43457 0
M  V30 2686 C 247.98 -3.29018 1.46353 0
M  V30 2687 C 247.833 -3.34718 3.00473 0
M  V30 2688 C 249.152 -4.25473 1.12519 0
M  V30 2689 H 246.271 -0.662492 0.322915 0
M  V30 2690 H 248.913 -1.2913 1.39375 0
M  V30 2691 H 247.063 -3.74576 1.03077 0
M  V30 2692 H 248.735 -2.97622 3.52447 0
M  V30 2693 H 246.978 -2.74541 3.35872 0
M  V30 2694 H 247.649 -4.37918 3.36053 0
M  V30 2695 H 250.125 -3.88161 1.499 0
M  V30 2696 H 249.001 -5.26365 1.55663 0
M  V30 2697 H 249.262 -4.42084 0.0377407 0
M  V30 2698 N 248.321 -0.919034 -1.28029 0
M  V30 2699 C 249.57 -0.550802 -1.94034 0
M  V30 2700 C 249.883 0.910877 -1.73096 0
M  V30 2701 O 251.089 1.3875 -2.33368 0
M  V30 2702 C 249.545 -0.934249 -3.47563 0
M  V30 2703 C 249.153 -2.41602 -3.7727 0
M  V30 2704 C 250.897 -0.636854 -4.19696 0
M  V30 2705 C 248.804 -2.73932 -5.24133 0
M  V30 2706 H 247.734 -0.202273 -0.726362 0
M  V30 2707 H 250.385 -1.11867 -1.45458 0
M  V30 2708 H 248.767 -0.295115 -3.94899 0
M  V30 2709 H 249.941 -3.10233 -3.40723 0
M  V30 2710 H 248.256 -2.68441 -3.18321 0
M  V30 2711 H 250.853 -0.855005 -5.2782 0
M  V30 2712 H 251.196 0.425575 -4.14119 0
M  V30 2713 H 251.729 -1.23469 -3.78154 0
M  V30 2714 H 248.468 -3.79049 -5.34792 0
M  V30 2715 H 247.988 -2.09942 -5.61858 0
M  V30 2716 H 249.667 -2.61215 -5.91925 0
M  V30 2717 N 249.799 1.42003 -0.683588 0
M  V30 2718 C 251.076 1.95112 -0.138075 0
M  V30 2719 C 251.456 1.62359 1.34918 0
M  V30 2720 O 250.804 0.924311 2.08971 0
M  V30 2721 C 251.014 3.46505 -0.416581 0
M  V30 2722 C 252.362 4.23254 -0.337834 0
M  V30 2723 O 253.386 3.54468 -0.35082 0
M  V30 2724 O 252.245 5.45743 -0.287596 0
M  V30 2725 H 249.339 0.826961 -0.00797996 0
M  V30 2726 H 251.885 1.51784 -0.758924 0
M  V30 2727 H 250.657 3.63582 -1.4465 0
M  V30 2728 H 250.28 3.969 0.235839 0
M  V30 2729 N 251.277 0.427512 1.51691 0
M  V30 2730 C 252.502 -0.143601 2.06902 0
M  V30 2731 C 252.927 -1.36536 1.29382 0
M  V30 2732 O 252.285 -1.78289 0.329043 0
M  V30 2733 C 252.333 -0.454207 3.57728 0
M  V30 2734 O 251.437 -1.54228 3.82475 0
M  V30 2735 H 250.778 -0.00617128 0.663971 0
M  V30 2736 H 253.308 0.606014 1.95419 0
M  V30 2737 H 253.318 -0.707525 4.01818 0
M  V30 2738 H 251.993 0.438812 4.13579 0
M  V30 2739 H 250.57 -1.2797 3.50254 0
M  V30 2740 N 252.755 -1.56801 0.158532 0
M  V30 2741 C 254.001 -1.96781 -0.490405 0
M  V30 2742 C 254.334 -1.04397 -1.63753 0
M  V30 2743 O 253.609 -0.0885805 -1.94298 0
M  V30 2744 C 253.892 -3.4635 -0.985594 0
M  V30 2745 C 253.745 -4.49512 0.160824 0
M  V30 2746 C 255.064 -3.98697 -1.86355 0
M  V30 2747 H 252.183 -0.715482 -0.176788 0
M  V30 2748 H 254.825 -1.88451 0.242088 0
M  V30 2749 H 252.975 -3.53579 -1.60978 0
M  V30 2750 H 254.647 -4.54353 0.797537 0
M  V30 2751 H 252.89 -4.26013 0.818256 0
M  V30 2752 H 253.561 -5.51531 -0.227569 0
M  V30 2753 H 256.037 -3.94019 -1.33746 0
M  V30 2754 H 254.913 -5.03792 -2.17909 0
M  V30 2755 H 255.174 -3.41744 -2.8047 0
M  V30 2756 N 254.233 0.115231 -1.57178 0
M  V30 2757 C 255.143 1.15994 -2.03918 0
M  V30 2758 C 256.159 1.45103 -0.960268 0
M  V30 2759 O 257.335 1.56144 -1.27204 0
M  V30 2760 C 254.4 2.46568 -2.43732 0
M  V30 2761 C 253.461 2.24822 -3.65723 0
M  V30 2762 C 252.694 3.4917 -4.03629 0
M  V30 2763 O 252.917 4.56623 -3.41835 0
M  V30 2764 O 251.851 3.39949 -4.96708 0
M  V30 2765 H 255.677 0.793019 -2.93164 0
M  V30 2766 H 253.262 0.3263 -1.45793 0
M  V30 2767 H 255.144 3.23492 -2.70057 0
M  V30 2768 H 253.819 2.82726 -1.57631 0
M  V30 2769 H 252.726 1.45744 -3.44542 0
M  V30 2770 H 254.059 1.93566 -4.52541 0
M  V30 2771 N 255.711 1.52812 0.385517 0
M  V30 2772 C 256.96 1.67249 1.12741 0
M  V30 2773 C 257.273 0.4205 1.91027 0
M  V30 2774 O 258.479 0.445064 2.67827 0
M  V30 2775 C 256.935 2.95583 2.05326 0
M  V30 2776 C 256.543 4.27974 1.32447 0
M  V30 2777 C 258.287 3.19386 2.7963 0
M  V30 2778 C 256.194 5.47412 2.23818 0
M  V30 2779 H 255.124 0.6231 0.424573 0
M  V30 2780 H 257.775 1.79309 0.389924 0
M  V30 2781 H 256.157 2.77277 2.82725 0
M  V30 2782 H 257.331 4.56844 0.602495 0
M  V30 2783 H 255.646 4.10459 0.700885 0
M  V30 2784 H 258.243 4.05801 3.48181 0
M  V30 2785 H 258.586 2.34604 3.43899 0
M  V30 2786 H 259.119 3.38274 2.09322 0
M  V30 2787 H 255.858 6.34612 1.64157 0
M  V30 2788 H 255.378 5.22849 2.93921 0
M  V30 2789 H 257.057 5.81423 2.83824 0
M  V30 2790 N 257.189 -0.644168 1.43834 0
M  V30 2791 C 258.137 -1.77793 1.49974 0
M  V30 2792 C 259.131 -1.65253 0.372536 0
M  V30 2793 O 260.337 -1.7149 0.546924 0
M  V30 2794 H 256.712 -0.58675 0.47035 0
M  V30 2795 H 258.683 -1.69736 2.45423 0
M  V30 2796 C 257.432 -3.16087 1.4486 0
M  V30 2797 H 256.755 -3.26378 2.30905 0
M  V30 2798 H 258.195 -3.95349 1.53217 0
M  V30 2799 C 256.654 -3.36484 0.167463 0
M  V30 2800 O 257.184 -3.94298 -0.767609 0
M  V30 2801 N 255.39 -2.90504 0.0747556 0
M  V30 2802 H 254.937 -2.4364 0.836507 0
M  V30 2803 H 254.895 -3.04527 -0.781714 0
M  V30 2804 N 258.668 -1.30515 -0.883378 0
M  V30 2805 C 259.915 -1.1943 -1.63532 0
M  V30 2806 C 260.243 0.250627 -1.92878 0
M  V30 2807 O 259.498 1.19556 -1.54935 0
M  V30 2808 C 259.797 -1.96994 -2.98209 0
M  V30 2809 C 259.463 -3.466 -2.88408 0
M  V30 2810 C 258.125 -3.87397 -2.85442 0
M  V30 2811 C 260.477 -4.41863 -2.76418 0
M  V30 2812 C 257.805 -5.21745 -2.68327 0
M  V30 2813 C 260.157 -5.7632 -2.60841 0
M  V30 2814 C 258.821 -6.16354 -2.56251 0
M  V30 2815 H 258.091 -0.437025 -0.598406 0
M  V30 2816 H 260.738 -1.61635 -1.02696 0
M  V30 2817 H 259.043 -1.47429 -3.63004 0
M  V30 2818 H 260.74 -1.85808 -3.55354 0
M  V30 2819 H 257.33 -3.14182 -2.91527 0
M  V30 2820 H 261.514 -4.11285 -2.77775 0
M  V30 2821 H 256.77 -5.51853 -2.63189 0
M  V30 2822 H 260.944 -6.49772 -2.50538 0
M  V30 2823 H 258.571 -7.20401 -2.42748 0
M  V30 2824 N 260.146 1.09593 -1.13257 0
M  V30 2825 C 261.076 2.18214 -0.830946 0
M  V30 2826 C 262.057 1.68812 0.208966 0
M  V30 2827 O 263.242 1.9408 0.0682666 0
M  V30 2828 C 260.372 3.46051 -0.294296 0
M  V30 2829 C 259.326 4.08778 -1.26826 0
M  V30 2830 C 258.652 5.31419 -0.591449 0
M  V30 2831 C 259.952 4.51476 -2.62615 0
M  V30 2832 H 261.646 2.43703 -1.73923 0
M  V30 2833 H 259.192 1.17128 -0.837675 0
M  V30 2834 H 261.145 4.2134 -0.0709606 0
M  V30 2835 H 259.869 3.20079 0.649366 0
M  V30 2836 H 258.528 3.35505 -1.47756 0
M  V30 2837 H 258.176 5.01727 0.357633 0
M  V30 2838 H 257.876 5.74341 -1.24123 0
M  V30 2839 H 259.4 6.09433 -0.377355 0
M  V30 2840 H 260.814 5.17999 -2.45663 0
M  V30 2841 H 259.211 5.05277 -3.23752 0
M  V30 2842 H 260.281 3.63962 -3.20406 0
M  V30 2843 N 261.624 0.925811 1.2754 0
M  V30 2844 C 262.864 0.572521 1.96218 0
M  V30 2845 C 263.228 -0.869719 1.71172 0
M  V30 2846 O 264.429 -1.33119 2.33523 0
M  V30 2847 C 262.7 0.887325 3.4621 0
M  V30 2848 S 264.259 0.642266 4.34074 0
M  V30 2849 H 261.077 0.211403 0.678845 0
M  V30 2850 H 263.679 1.19384 1.54815 0
M  V30 2851 H 262.383 1.93469 3.61936 0
M  V30 2852 H 261.914 0.255123 3.92572 0
M  V30 2853 H 263.929 -0.500822 4.93666 0
M  V30 2854 N 263.102 -1.41638 0.69111 0
M  V30 2855 C 264.351 -2.00526 0.217318 0
M  V30 2856 C 264.664 -1.55353 -1.18848 0
M  V30 2857 O 265.87 -2.06769 -1.75951 0
M  V30 2858 C 264.326 -3.58313 0.337639 0
M  V30 2859 C 263.934 -4.12469 1.74852 0
M  V30 2860 C 265.678 -4.24431 -0.0766066 0
M  V30 2861 C 263.585 -5.62675 1.82074 0
M  V30 2862 H 262.515 -0.750008 0.0774893 0
M  V30 2863 H 265.166 -1.6217 0.858661 0
M  V30 2864 H 263.548 -3.9425 -0.371879 0
M  V30 2865 H 264.722 -3.8796 2.48644 0
M  V30 2866 H 263.037 -3.58861 2.11205 0
M  V30 2867 H 265.634 -5.34683 -0.0430284 0
M  V30 2868 H 265.977 -4.01101 -1.1146 0
M  V30 2869 H 266.51 -3.93512 0.582476 0
M  V30 2870 H 263.249 -5.90826 2.83911 0
M  V30 2871 H 262.769 -5.89124 1.12661 0
M  V30 2872 H 264.448 -6.27371 1.58159 0
M  V30 2873 N 264.58 -0.43555 -1.51462 0
M  V30 2874 C 265.53 0.394701 -2.24558 0
M  V30 2875 C 266.514 0.99157 -1.26715 0
M  V30 2876 O 267.706 0.910007 -1.51815 0
M  V30 2877 C 264.835 1.4963 -3.08975 0
M  V30 2878 C 263.921 0.908912 -4.14246 0
M  V30 2879 N 264.312 0.0505335 -5.05775 0
M  V30 2880 C 262.61 1.17668 -4.30198 0
M  V30 2881 C 263.311 -0.279161 -5.8103 0
M  V30 2882 N 262.287 0.336767 -5.42556 0
M  V30 2883 H 266.089 -0.267106 -2.92684 0
M  V30 2884 H 263.603 -0.247518 -1.60503 0
M  V30 2885 H 265.6 2.10394 -3.59917 0
M  V30 2886 H 264.26 2.16046 -2.42393 0
M  V30 2887 H 265.271 -0.31577 -5.16936 0
M  V30 2888 H 261.948 1.83847 -3.74842 0
M  V30 2889 H 263.338 -0.977553 -6.64751 0
M  V30 2890 N 266.058 1.56714 -0.166846 0
M  V30 2891 C 267.005 2.17746 0.765193 0
M  V30 2892 C 267.975 1.11614 1.23011 0
M  V30 2893 O 269.16 1.39745 1.29908 0
M  V30 2894 C 266.3 2.81882 1.9909 0
M  V30 2895 C 265.413 4.02462 1.56997 0
M  V30 2896 C 264.548 4.54537 2.749 0
M  V30 2897 C 263.587 5.67538 2.29275 0
M  V30 2898 N 262.724 6.14142 3.40255 0
M  V30 2899 H 267.564 2.97048 0.237952 0
M  V30 2900 H 265.101 1.4672 0.105725 0
M  V30 2901 H 267.059 3.17221 2.70974 0
M  V30 2902 H 265.689 2.05191 2.49192 0
M  V30 2903 H 264.741 3.72973 0.748037 0
M  V30 2904 H 266.053 4.84273 1.19503 0
M  V30 2905 H 265.207 4.92035 3.54946 0
M  V30 2906 H 263.946 3.71774 3.1565 0
M  V30 2907 H 262.951 5.29597 1.47674 0
M  V30 2908 H 264.176 6.52099 1.89588 0
M  V30 2909 H 262.122 5.3431 3.8059 0
M  V30 2910 H 262.039 6.9093 3.06841 0
M  V30 2911 H 263.307 6.56289 4.206 0
M  V30 2912 N 267.536 -0.106894 1.57237 0
M  V30 2913 C 268.483 -1.13049 2.01217 0
M  V30 2914 C 269.453 -1.40471 0.886403 0
M  V30 2915 O 270.638 -1.52133 1.15153 0
M  V30 2916 C 267.778 -2.4487 2.43172 0
M  V30 2917 C 266.891 -2.24281 3.69218 0
M  V30 2918 C 266.026 -3.49417 4.00101 0
M  V30 2919 C 265.065 -3.24038 5.19294 0
M  V30 2920 N 264.202 -4.41409 5.45988 0
M  V30 2921 H 269.042 -0.748456 2.88448 0
M  V30 2922 H 266.579 -0.358054 1.42676 0
M  V30 2923 H 268.537 -3.21786 2.65537 0
M  V30 2924 H 267.167 -2.80944 1.58967 0
M  V30 2925 H 266.219 -1.38224 3.54398 0
M  V30 2926 H 267.531 -2.01512 4.56283 0
M  V30 2927 H 266.685 -4.34746 4.2318 0
M  V30 2928 H 265.424 -3.75229 3.11535 0
M  V30 2929 H 264.429 -2.37102 4.96047 0
M  V30 2930 H 265.654 -2.99584 6.09447 0
M  V30 2931 H 263.6 -4.67319 4.60379 0
M  V30 2932 H 263.517 -4.21788 6.274 0
M  V30 2933 H 264.785 -5.27836 5.73593 0
M  V30 2934 N 269.014 -1.53014 -0.377408 0
M  V30 2935 C 269.944 -1.81589 -1.46791 0
M  V30 2936 C 270.925 -0.668622 -1.56408 0
M  V30 2937 O 272.11 -0.917337 -1.71168 0
M  V30 2938 C 269.24 -1.99519 -2.8427 0
M  V30 2939 C 268.194 -3.15249 -2.89486 0
M  V30 2940 C 267.52 -3.18451 -4.29527 0
M  V30 2941 C 268.82 -4.54084 -2.58079 0
M  V30 2942 H 270.514 -2.7291 -1.23127 0
M  V30 2943 H 268.06 -1.31319 -0.590883 0
M  V30 2944 H 270.013 -2.18092 -3.60575 0
M  V30 2945 H 268.737 -1.04897 -3.09296 0
M  V30 2946 H 267.396 -2.96477 -2.15631 0
M  V30 2947 H 267.044 -2.2149 -4.5161 0
M  V30 2948 H 266.744 -3.962 -4.33934 0
M  V30 2949 H 268.268 -3.39193 -5.07721 0
M  V30 2950 H 269.682 -4.72899 -3.24098 0
M  V30 2951 H 268.079 -5.33987 -2.7382 0
M  V30 2952 H 269.149 -4.60006 -1.53372 0
M  V30 2953 N 270.492 0.636531 -1.44174 0
M  V30 2954 C 271.908 0.954104 -1.27941 0
M  V30 2955 C 272.108 2.0039 -0.211248 0
M  V30 2956 O 271.164 2.49236 0.404695 0
M  V30 2957 C 272.477 1.4225 -2.64925 0
M  V30 2958 C 274.025 1.53827 -2.72592 0
M  V30 2959 C 274.5 2.04053 -4.10032 0
M  V30 2960 N 275.991 2.11331 -4.12182 0
M  V30 2961 C 276.726 2.51352 -5.15374 0
M  V30 2962 N 276.222 2.90549 -6.2893 0
M  V30 2963 N 278.015 2.51438 -5.02728 0
M  V30 2964 H 270.166 -0.0578386 -2.12321 0
M  V30 2965 H 272.429 0.0367406 -0.947288 0
M  V30 2966 H 272.135 0.725466 -3.44136 0
M  V30 2967 H 272.009 2.39451 -2.9145 0
M  V30 2968 H 274.396 2.22628 -1.93702 0
M  V30 2969 H 274.477 0.550154 -2.49814 0
M  V30 2970 H 274.121 1.35848 -4.89395 0
M  V30 2971 H 274.051 3.03726 -4.30184 0
M  V30 2972 H 276.542 1.83745 -3.30222 0
M  V30 2973 H 276.855 3.19884 -7.03487 0
M  V30 2974 H 275.2 2.88313 -6.32377 0
M  V30 2975 H 278.391 2.20203 -4.13072 0
M  V30 2976 H 278.564 2.82304 -5.83274 0
M  V30 2977 N 271.97 1.30982 0.876444 0
M  V30 2978 C 272.918 1.18006 2.00443 0
M  V30 2979 C 273.912 0.0898871 1.69161 0
M  V30 2980 O 275.118 0.251333 1.78237 0
M  V30 2981 H 271.493 0.365196 0.65737 0
M  V30 2982 H 273.464 2.13453 2.0852 0
M  V30 2983 C 272.213 0.897521 3.35916 0
M  V30 2984 H 271.536 1.7285 3.60504 0
M  V30 2985 H 272.976 0.846874 4.15456 0
M  V30 2986 C 271.435 -0.399674 3.34521 0
M  V30 2987 O 271.965 -1.41852 3.7582 0
M  V30 2988 N 270.171 -0.413893 2.87637 0
M  V30 2989 H 269.718 0.41571 2.54224 0
M  V30 2990 H 269.676 -1.28175 2.87086 0
M  V30 2991 N 273.449 -1.08991 1.13837 0
M  V30 2992 C 274.396 -2.15748 0.819835 0
M  V30 2993 C 275.366 -1.64636 -0.220026 0
M  V30 2994 O 276.551 -1.90582 -0.0912757 0
M  V30 2995 C 273.691 -3.4382 0.296913 0
M  V30 2996 C 272.804 -4.0881 1.39636 0
M  V30 2997 C 271.939 -5.24655 0.831314 0
M  V30 2998 C 270.978 -5.81575 1.90886 0
M  V30 2999 N 270.115 -6.88774 1.36142 0
M  V30 3000 H 274.955 -2.42338 1.73426 0
M  V30 3001 H 272.492 -1.18935 0.865613 0
M  V30 3002 H 274.45 -4.17193 -0.0244339 0
M  V30 3003 H 273.08 -3.17535 -0.580628 0
M  V30 3004 H 272.132 -3.33258 1.83422 0
M  V30 3005 H 273.444 -4.47141 2.21058 0
M  V30 3006 H 272.598 -6.04942 0.461515 0
M  V30 3007 H 271.337 -4.87698 -0.013932 0
M  V30 3008 H 270.342 -4.99946 2.28767 0
M  V30 3009 H 271.567 -6.20592 2.75758 0
M  V30 3010 H 269.513 -6.53788 0.538254 0
M  V30 3011 H 269.43 -7.25898 2.11208 0
M  V30 3012 H 270.698 -7.72806 1.01933 0
M  V30 3013 N 274.927 -0.932562 -1.27047 0
M  V30 3014 C 276.343 -0.633544 -1.46487 0
M  V30 3015 C 276.543 0.815746 -1.84249 0
M  V30 3016 O 275.599 1.59319 -1.95892 0
M  V30 3017 C 276.912 -1.58758 -2.55375 0
M  V30 3018 C 278.46 -1.59634 -2.69232 0
M  V30 3019 C 278.935 -2.53747 -3.81283 0
M  V30 3020 N 280.426 -2.51982 -3.88664 0
M  V30 3021 C 281.161 -3.21491 -4.74796 0
M  V30 3022 N 280.657 -4.00395 -5.65381 0
M  V30 3023 N 282.45 -3.10485 -4.68568 0
M  V30 3024 H 274.601 -1.86946 -1.00821 0
M  V30 3025 H 276.864 -0.802897 -0.504044 0
M  V30 3026 H 276.57 -2.62172 -2.34432 0
M  V30 3027 H 276.444 -1.33301 -3.52861 0
M  V30 3028 H 278.831 -0.569488 -2.89553 0
M  V30 3029 H 278.912 -1.89142 -1.72218 0
M  V30 3030 H 278.556 -3.56545 -3.61715 0
M  V30 3031 H 278.486 -2.21532 -4.77735 0
M  V30 3032 H 280.977 -1.94681 -3.23895 0
M  V30 3033 H 281.29 -4.50406 -6.27976 0
M  V30 3034 H 279.635 -4.04498 -5.65161 0
M  V30 3035 H 282.826 -2.48331 -3.96799 0
M  V30 3036 H 282.999 -3.64925 -5.35475 0
M  V30 3037 N 276.405 1.4127 -0.698611 0
M  V30 3038 C 277.335 2.33447 -0.049629 0
M  V30 3039 C 278.316 1.51982 0.763898 0
M  V30 3040 O 279.501 1.80509 0.716257 0
M  V30 3041 C 276.631 3.35828 0.885267 0
M  V30 3042 C 275.585 4.27627 0.178613 0
M  V30 3043 C 274.911 5.20406 1.22807 0
M  V30 3044 C 276.211 5.13459 -0.956933 0
M  V30 3045 H 277.905 2.87966 -0.81951 0
M  V30 3046 H 275.451 1.38461 -0.395538 0
M  V30 3047 H 277.404 3.9924 1.34854 0
M  V30 3048 H 276.128 2.79666 1.68685 0
M  V30 3049 H 274.787 3.65643 -0.26466 0
M  V30 3050 H 274.435 4.60558 2.02226 0
M  V30 3051 H 274.135 5.82661 0.760239 0
M  V30 3052 H 275.659 5.86695 1.69179 0
M  V30 3053 H 277.073 5.70421 -0.573805 0
M  V30 3054 H 275.47 5.8467 -1.35205 0
M  V30 3055 H 276.54 4.50443 -1.79524 0
M  V30 3056 N 277.883 0.443576 1.51229 0
M  V30 3057 C 278.846 -0.353132 2.26463 0
M  V30 3058 C 279.846 -0.944338 1.3015 0
M  V30 3059 O 281.036 -0.817813 1.5381 0
M  V30 3060 C 278.168 -1.50023 3.06114 0
M  V30 3061 H 279.361 0.3063 2.98332 0
M  V30 3062 H 276.914 0.196902 1.55055 0
M  V30 3063 H 277.649 -2.19553 2.38677 0
M  V30 3064 H 277.434 -1.08241 3.76864 0
M  V30 3065 H 278.924 -2.06296 3.63087 0
M  V30 3066 N 279.361 -1.56624 0.175154 0
M  V30 3067 C 280.772 -1.83561 -0.340916 0
M  V30 3068 C 281.123 -1.09511 -1.62794 0
M  V30 3069 O 280.248 -0.349389 -2.13561 0
M  V30 3070 C 280.843 -3.32979 -0.625313 0
M  V30 3071 C 279.402 -3.60399 -1.08581 0
M  V30 3072 C 278.549 -2.77024 -0.123722 0
M  V30 3073 H 281.5 -1.53593 0.399344 0
M  V30 3074 H 281.521 -3.50666 -1.47694 0
M  V30 3075 H 281.033 -3.86847 0.311575 0
M  V30 3076 H 279.134 -3.11945 -2.03767 0
M  V30 3077 H 279.247 -4.68711 -0.992317 0
M  V30 3078 H 277.611 -2.46993 -0.621821 0
M  V30 3079 H 278.394 -3.33674 0.807256 0
M  V30 3080 N 280.839 0.0985539 -1.57292 0
M  V30 3081 C 282.085 0.803867 -1.86188 0
M  V30 3082 C 282.418 1.78549 -0.763794 0
M  V30 3083 O 281.693 1.93153 0.22855 0
M  V30 3084 C 281.976 1.53568 -3.25713 0
M  V30 3085 C 281.829 0.572277 -4.46145 0
M  V30 3086 C 283.148 2.48708 -3.63087 0
M  V30 3087 H 280.267 0.290781 -0.677211 0
M  V30 3088 H 282.909 0.0675783 -1.8988 0
M  V30 3089 H 281.059 2.16332 -3.22696 0
M  V30 3090 H 282.731 -0.0480894 -4.61275 0
M  V30 3091 H 280.974 -0.114618 -4.33649 0
M  V30 3092 H 281.645 1.12139 -5.40489 0
M  V30 3093 H 284.121 1.96039 -3.67026 0
M  V30 3094 H 282.997 2.96932 -4.61652 0
M  V30 3095 H 283.258 3.32309 -2.91588 0
M  V30 3096 N 282.317 1.53212 0.369288 0
M  V30 3097 C 283.247 1.82365 1.45826 0
M  V30 3098 C 284.228 0.676907 1.56051 0
M  V30 3099 O 285.413 0.926401 1.70679 0
M  V30 3100 C 282.543 2.01023 2.83208 0
M  V30 3101 C 281.497 3.1678 2.8781 0
M  V30 3102 C 280.823 3.20724 4.27832 0
M  V30 3103 C 282.123 4.55447 2.55667 0
M  V30 3104 H 283.817 2.73559 1.21678 0
M  V30 3105 H 281.363 1.3163 0.583911 0
M  V30 3106 H 283.316 2.20001 3.59413 0
M  V30 3107 H 282.04 1.06536 3.08736 0
M  V30 3108 H 280.699 2.97616 2.14056 0
M  V30 3109 H 280.347 2.23882 4.50429 0
M  V30 3110 H 280.047 3.98496 4.31827 0
M  V30 3111 H 281.571 3.41881 5.05915 0
M  V30 3112 H 282.985 4.74611 3.21586 0
M  V30 3113 H 281.382 5.35432 2.70984 0
M  V30 3114 H 282.452 4.60812 1.5093 0
M  V30 3115 N 283.795 -0.628877 1.44509 0
M  V30 3116 C 285.044 -1.38437 1.4669 0
M  V30 3117 C 285.357 -1.95322 0.104272 0
M  V30 3118 O 286.563 -2.715 0.00362163 0
M  V30 3119 C 285.019 -2.50659 2.5826 0
M  V30 3120 C 284.627 -2.00277 4.0074 0
M  V30 3121 C 286.371 -3.27844 2.69664 0
M  V30 3122 C 284.278 -3.09854 5.0373 0
M  V30 3123 H 283.208 -0.520245 0.545766 0
M  V30 3124 H 285.859 -0.676313 1.70582 0
M  V30 3125 H 284.241 -3.2405 2.27612 0
M  V30 3126 H 285.415 -1.33736 4.40966 0
M  V30 3127 H 283.73 -1.35901 3.93599 0
M  V30 3128 H 286.327 -4.09534 3.43781 0
M  V30 3129 H 286.67 -3.77471 1.75559 0
M  V30 3130 H 287.203 -2.61543 2.99733 0
M  V30 3131 H 283.942 -2.65168 5.99472 0
M  V30 3132 H 283.462 -3.7503 4.68095 0
M  V30 3133 H 285.141 -3.74592 5.27532 0
M  V30 3134 N 285.273 -1.31445 -0.869486 0
M  V30 3135 C 286.22 -1.19135 -1.97675 0
M  V30 3136 C 287.19 -0.0770266 -1.65921 0
M  V30 3137 O 288.375 -0.249972 -1.89155 0
M  V30 3138 C 285.515 -0.905149 -3.33018 0
M  V30 3139 C 284.628 -2.10285 -3.77365 0
M  V30 3140 C 283.763 -1.75339 -5.01427 0
M  V30 3141 C 282.802 -2.91515 -5.38224 0
M  V30 3142 N 281.939 -2.56762 -6.53466 0
M  V30 3143 H 286.779 -2.13853 -2.07535 0
M  V30 3144 H 284.316 -1.06379 -1.01597 0
M  V30 3145 H 286.274 -0.719765 -4.10944 0
M  V30 3146 H 284.904 0.00519624 -3.228 0
M  V30 3147 H 283.956 -2.39899 -2.95216 0
M  V30 3148 H 285.268 -2.97237 -4.00564 0
M  V30 3149 H 284.422 -1.53266 -5.87022 0
M  V30 3150 H 283.161 -0.855801 -4.80133 0
M  V30 3151 H 282.166 -3.14237 -4.51149 0
M  V30 3152 H 283.391 -3.81985 -5.61484 0
M  V30 3153 H 281.337 -1.69526 -6.33717 0
M  V30 3154 H 281.254 -3.37243 -6.76612 0
M  V30 3155 H 282.522 -2.38083 -7.42251 0
M  V30 3156 N 286.751 1.08385 -1.14413 0
M  V30 3157 C 287.661 2.18856 -0.844951 0
M  V30 3158 C 288.677 1.73121 0.174668 0
M  V30 3159 O 289.853 2.014 0.00312857 0
M  V30 3160 C 286.918 3.45155 -0.32696 0
M  V30 3161 C 285.979 4.05513 -1.40916 0
M  V30 3162 C 285.212 5.25784 -0.915793 0
M  V30 3163 O 285.435 5.69884 0.242651 0
M  V30 3164 O 284.369 5.77545 -1.69487 0
M  V30 3165 H 288.195 2.46919 -1.76818 0
M  V30 3166 H 285.78 1.17524 -0.922411 0
M  V30 3167 H 287.662 4.21377 -0.0440211 0
M  V30 3168 H 286.337 3.18668 0.568539 0
M  V30 3169 H 285.244 3.30879 -1.74556 0
M  V30 3170 H 286.577 4.3625 -2.27919 0
M  V30 3171 N 288.23 0.939286 1.26551 0
M  V30 3172 C 289.479 0.581601 1.93133 0
M  V30 3173 C 289.792 -0.883224 1.74524 0
M  V30 3174 O 290.998 -1.3502 2.35546 0
M  V30 3175 C 289.454 0.989425 3.46032 0
M  V30 3176 C 289.062 2.47573 3.73379 0
M  V30 3177 C 290.806 0.703544 4.18629 0
M  V30 3178 C 288.713 2.82235 5.19709 0
M  V30 3179 H 287.643 0.213803 0.723052 0
M  V30 3180 H 290.294 1.14167 1.4366 0
M  V30 3181 H 288.676 0.357902 3.94379 0
M  V30 3182 H 289.85 3.15614 3.35744 0
M  V30 3183 H 288.165 2.73471 3.1401 0
M  V30 3184 H 290.762 0.938869 5.26393 0
M  V30 3185 H 291.105 -0.359639 4.14744 0
M  V30 3186 H 291.638 1.2947 3.76141 0
M  V30 3187 H 288.377 3.87509 5.28694 0
M  V30 3188 H 287.897 2.18854 5.58447 0
M  V30 3189 H 289.576 2.70599 5.87695 0
M  V30 3190 N 289.708 -1.40897 0.706093 0
M  V30 3191 C 290.936 -2.05373 0.250887 0
M  V30 3192 C 291.351 -1.53172 -1.10381 0
M  V30 3193 O 290.708 -0.684305 -1.69185 0
M  V30 3194 C 290.759 -3.6088 0.211571 0
M  V30 3195 O 290.48 -4.11153 1.51276 0
M  V30 3196 C 291.981 -4.42517 -0.263346 0
M  V30 3197 H 289.201 -0.66115 0.114552 0
M  V30 3198 H 291.745 -1.80479 0.961635 0
M  V30 3199 H 289.9 -3.84777 -0.450073 0
M  V30 3200 H 290.314 -5.05279 1.40689 0
M  V30 3201 H 291.788 -5.51479 -0.239718 0
M  V30 3202 H 292.265 -4.19396 -1.30397 0
M  V30 3203 H 292.871 -4.23708 0.367677 0
M  V30 3204 N 291.186 -0.45159 -1.50991 0
M  V30 3205 C 292.602 -0.104647 -1.59257 0
M  V30 3206 C 292.802 1.38728 -1.4614 0
M  V30 3207 O 291.858 2.15866 -1.30989 0
M  V30 3208 C 293.171 -0.637468 -2.93865 0
M  V30 3209 C 294.719 -0.599166 -3.07212 0
M  V30 3210 C 295.194 -1.1092 -4.44366 0
M  V30 3211 N 296.685 -1.06778 -4.50725 0
M  V30 3212 C 297.42 -1.43314 -5.55201 0
M  V30 3213 N 296.916 -1.87204 -6.67028 0
M  V30 3214 N 298.709 -1.3504 -5.45638 0
M  V30 3215 H 290.86 -1.42214 -1.57762 0
M  V30 3216 H 293.123 -0.586921 -0.744465 0
M  V30 3217 H 292.829 -1.68187 -3.08879 0
M  V30 3218 H 292.703 -0.0702139 -3.77135 0
M  V30 3219 H 295.09 0.436277 -2.91857 0
M  V30 3220 H 295.171 -1.20299 -2.25747 0
M  V30 3221 H 294.815 -2.14318 -4.60467 0
M  V30 3222 H 294.745 -0.481773 -5.24392 0
M  V30 3223 H 297.236 -0.745643 -3.70471 0
M  V30 3224 H 297.549 -2.13282 -7.42786 0
M  V30 3225 H 295.894 -1.91142 -6.68199 0
M  V30 3226 H 299.085 -1.00607 -4.57161 0
M  V30 3227 H 299.258 -1.63841 -6.26945 0
M  V30 3228 N 292.664 1.56529 -0.183458 0
M  V30 3229 C 294.08 1.58664 0.172554 0
M  V30 3230 C 294.28 1.19925 1.61926 0
M  V30 3231 O 293.336 0.916534 2.35278 0
M  V30 3232 C 294.649 3.00463 -0.119262 0
M  V30 3233 C 296.197 3.12945 -0.0584396 0
M  V30 3234 C 296.672 4.56857 -0.323408 0
M  V30 3235 N 298.163 4.62403 -0.271612 0
M  V30 3236 C 298.898 5.71626 -0.450639 0
M  V30 3237 N 298.394 6.89362 -0.689384 0
M  V30 3238 N 300.187 5.60775 -0.385701 0
M  V30 3239 H 292.338 1.79994 -1.12765 0
M  V30 3240 H 294.601 0.834808 -0.449222 0
M  V30 3241 H 294.307 3.33326 -1.12192 0
M  V30 3242 H 294.181 3.72659 0.583544 0
M  V30 3243 H 296.568 2.79902 0.934805 0
M  V30 3244 H 296.649 2.4316 -0.794144 0
M  V30 3245 H 296.293 4.9061 -1.31392 0
M  V30 3246 H 296.223 5.24816 0.43305 0
M  V30 3247 H 298.714 3.77785 -0.0932256 0
M  V30 3248 H 299.027 7.68489 -0.815113 0
M  V30 3249 H 297.372 6.91196 -0.726142 0
M  V30 3250 H 300.563 4.67674 -0.199687 0
M  V30 3251 H 300.736 6.4584 -0.528646 0
M  V30 3252 N 294.142 -0.090211 1.57342 0
M  V30 3253 C 295.388 -0.793982 1.86611 0
M  V30 3254 C 295.721 -1.78142 0.773252 0
M  V30 3255 O 294.996 -1.93271 -0.218304 0
M  V30 3256 C 295.279 -1.51839 3.26523 0
M  V30 3257 C 295.132 -0.548609 4.46442 0
M  V30 3258 C 296.451 -2.46779 3.64401 0
M  V30 3259 H 293.57 -0.287186 0.678744 0
M  V30 3260 H 296.212 -0.0575076 1.89913 0
M  V30 3261 H 294.362 -2.14617 3.23839 0
M  V30 3262 H 296.034 0.0725513 4.61243 0
M  V30 3263 H 294.277 0.137614 4.33582 0
M  V30 3264 H 294.948 -1.09271 5.41076 0
M  V30 3265 H 297.424 -1.94089 3.68061 0
M  V30 3266 H 296.3 -2.94479 4.63221 0
M  V30 3267 H 296.561 -3.30758 2.93346 0
M  V30 3268 N 295.62 -1.53406 -0.361157 0
M  V30 3269 C 296.568 -1.80832 -1.46296 0
M  V30 3270 C 297.562 -0.677699 -1.55253 0
M  V30 3271 O 298.768 -0.860723 -1.58087 0
M  V30 3272 H 295.143 -0.572627 -0.487445 0
M  V30 3273 H 297.114 -2.73045 -1.20371 0
M  V30 3274 C 295.863 -2.01907 -2.8307 0
M  V30 3275 H 295.186 -2.88349 -2.76938 0
M  V30 3276 H 296.626 -2.25072 -3.59331 0
M  V30 3277 C 295.085 -0.799449 -3.27277 0
M  V30 3278 O 295.615 0.00971761 -4.01699 0
M  V30 3279 N 293.821 -0.621637 -2.83873 0
M  V30 3280 H 293.368 -1.28126 -2.23476 0
M  V30 3281 H 293.326 0.19298 -3.13807 0
M  V30 3282 N 297.098 0.621204 -1.44841 0
M  V30 3283 C 298.045 1.73267 -1.5247 0
M  V30 3284 C 299.015 1.6189 -0.371611 0
M  V30 3285 O 300.2 1.81668 -0.58321 0
M  V30 3286 C 297.34 3.11545 -1.48438 0
M  V30 3287 C 296.453 3.33827 -2.74196 0
M  V30 3288 C 295.588 4.62133 -2.61929 0
M  V30 3289 C 294.627 4.77627 -3.82804 0
M  V30 3290 N 293.764 5.97219 -3.69153 0
M  V30 3291 H 298.604 1.66082 -2.47428 0
M  V30 3292 H 296.141 0.810026 -1.22788 0
M  V30 3293 H 298.099 3.91528 -1.4409 0
M  V30 3294 H 296.729 3.1772 -0.570402 0
M  V30 3295 H 295.781 2.47715 -2.88689 0
M  V30 3296 H 297.093 3.41153 -3.6389 0
M  V30 3297 H 296.247 5.50291 -2.5547 0
M  V30 3298 H 294.986 4.57182 -1.69811 0
M  V30 3299 H 293.991 3.87896 -3.89637 0
M  V30 3300 H 295.216 4.84385 -4.75971 0
M  V30 3301 H 293.162 5.93339 -2.79794 0
M  V30 3302 H 293.079 6.05644 -4.52472 0
M  V30 3303 H 294.347 6.87912 -3.66603 0
M  V30 3304 N 298.576 1.31904 0.862503 0
M  V30 3305 C 299.508 1.16005 1.97675 0
M  V30 3306 C 300.521 0.0971234 1.6251 0
M  V30 3307 O 301.71 0.345337 1.75128 0
M  V30 3308 C 298.81 0.751791 3.30456 0
M  V30 3309 C 297.983 1.90133 3.93914 0
M  V30 3310 C 297.042 1.4779 5.05019 0
M  V30 3311 O 296.068 2.18872 5.25437 0
M  V30 3312 N 297.27 0.369491 5.79323 0
M  V30 3313 H 300.035 2.11982 2.11857 0
M  V30 3314 H 297.596 1.24337 1.03691 0
M  V30 3315 H 299.588 0.451084 4.02178 0
M  V30 3316 H 298.158 -0.116593 3.12382 0
M  V30 3317 H 297.378 2.36896 3.15078 0
M  V30 3318 H 298.666 2.67111 4.33047 0
M  V30 3319 H 298.064 -0.222299 5.65263 0
M  V30 3320 H 296.621 0.128354 6.51674 0
M  V30 3321 N 300.054 -1.07777 1.14986 0
M  V30 3322 C 301.002 -2.16964 0.838406 0
M  V30 3323 C 301.996 -1.68372 -0.186386 0
M  V30 3324 O 303.202 -1.79951 -0.0418465 0
M  V30 3325 H 299.577 -0.708006 0.253439 0
M  V30 3326 H 301.548 -2.40454 1.76704 0
M  V30 3327 C 300.297 -3.4604 0.339335 0
M  V30 3328 H 299.62 -3.83813 1.11927 0
M  V30 3329 H 301.06 -4.23698 0.160021 0
M  V30 3330 C 299.519 -3.23569 -0.938325 0
M  V30 3331 O 300.049 -3.47752 -2.01077 0
M  V30 3332 N 298.255 -2.77079 -0.876117 0
M  V30 3333 H 297.802 -2.576 -0.00322037 0
M  V30 3334 H 297.76 -2.62422 -1.73153 0
M  V30 3335 N 301.532 -0.945985 -1.26051 0
M  V30 3336 C 302.781 -0.591836 -1.92822 0
M  V30 3337 C 303.094 0.873956 -1.7499 0
M  V30 3338 O 304.3 1.33769 -2.36259 0
M  V30 3339 C 302.756 -1.00776 -3.45503 0
M  V30 3340 C 302.364 -2.4955 -3.7206 0
M  V30 3341 C 304.108 -0.725735 -4.1825 0
M  V30 3342 C 302.015 -2.84988 -5.18205 0
M  V30 3343 H 300.945 -0.217635 -0.721908 0
M  V30 3344 H 303.596 -1.14927 -1.43052 0
M  V30 3345 H 301.978 -0.378812 -3.94184 0
M  V30 3346 H 303.152 -3.1739 -3.34066 0
M  V30 3347 H 301.467 -2.75133 -3.12555 0
M  V30 3348 H 304.064 -0.966771 -5.25887 0
M  V30 3349 H 304.407 0.337639 -4.14929 0
M  V30 3350 H 304.94 -1.31463 -3.7545 0
M  V30 3351 H 301.679 -3.90307 -5.26631 0
M  V30 3352 H 301.199 -2.21813 -5.57278 0
M  V30 3353 H 302.878 -2.73712 -5.86252 0
M  V30 3354 N 303.011 1.40521 -0.713556 0
M  V30 3355 C 304.257 2.01714 -0.261382 0
M  V30 3356 C 304.612 1.55562 1.13217 0
M  V30 3357 O 303.905 0.764893 1.7567 0
M  V30 3358 C 304.099 3.56317 -0.278 0
M  V30 3359 C 303.928 4.17476 -1.67163 0
M  V30 3360 C 302.698 4.50998 -2.2788 0
M  V30 3361 C 304.896 4.42472 -2.6215 0
M  V30 3362 N 302.878 4.9754 -3.5962 0
M  V30 3363 C 304.249 4.90985 -3.78594 0
M  V30 3364 C 306.304 4.24508 -2.60188 0
M  V30 3365 C 305.007 5.2342 -4.9338 0
M  V30 3366 C 307.033 4.58043 -3.741 0
M  V30 3367 C 306.395 5.06743 -4.89276 0
M  V30 3368 H 302.494 0.769104 -0.141434 0
M  V30 3369 H 305.078 1.70785 -0.934915 0
M  V30 3370 H 303.249 3.8668 0.36509 0
M  V30 3371 H 304.981 4.0425 0.190695 0
M  V30 3372 H 301.736 4.38062 -1.79997 0
M  V30 3373 H 302.16 5.25196 -4.27198 0
M  V30 3374 H 306.802 3.86078 -1.72348 0
M  V30 3375 H 304.52 5.60765 -5.81866 0
M  V30 3376 H 308.106 4.45785 -3.73854 0
M  V30 3377 H 306.986 5.32204 -5.75959 0
M  V30 3378 N 304.489 0.459591 1.5075 0
M  V30 3379 C 305.421 -0.37665 2.26084 0
M  V30 3380 C 306.434 -0.967109 1.30961 0
M  V30 3381 O 307.623 -0.857468 1.56556 0
M  V30 3382 C 304.723 -1.54112 3.01832 0
M  V30 3383 C 303.896 -1.06553 4.24223 0
M  V30 3384 C 302.955 -2.1027 4.82362 0
M  V30 3385 O 301.981 -1.68798 5.43595 0
M  V30 3386 N 303.183 -3.42974 4.68347 0
M  V30 3387 H 305.948 0.269124 2.98489 0
M  V30 3388 H 303.509 0.28972 1.59287 0
M  V30 3389 H 305.501 -2.23165 3.37608 0
M  V30 3390 H 304.071 -2.0918 2.32298 0
M  V30 3391 H 303.291 -0.201274 3.93686 0
M  V30 3392 H 304.579 -0.725516 5.03601 0
M  V30 3393 H 303.977 -3.79385 4.19623 0
M  V30 3394 H 302.534 -4.07858 5.08424 0
M  V30 3395 N 305.967 -1.56429 0.191757 0
M  V30 3396 C 306.93 -2.17707 -0.716688 0
M  V30 3397 C 307.93 -1.13061 -1.14341 0
M  V30 3398 O 309.12 -1.38464 -1.05704 0
M  V30 3399 C 306.252 -2.77644 -1.97804 0
M  V30 3400 H 307.445 -2.99342 -0.1829 0
M  V30 3401 H 304.998 -1.56193 -0.0578566 0
M  V30 3402 H 305.733 -1.99799 -2.55443 0
M  V30 3403 H 305.518 -3.54246 -1.68083 0
M  V30 3404 H 307.008 -3.24708 -2.62592 0
M  V30 3405 N 307.445 0.0818655 -1.57387 0
M  V30 3406 C 308.375 1.09885 -2.06028 0
M  V30 3407 C 309.356 1.4098 -0.951774 0
M  V30 3408 O 310.541 1.50781 -1.22387 0
M  V30 3409 C 307.671 2.4151 -2.4958 0
M  V30 3410 C 306.625 2.24792 -3.64215 0
M  V30 3411 C 305.951 3.61712 -3.93787 0
M  V30 3412 C 307.251 1.67749 -4.94629 0
M  V30 3413 H 308.945 0.694128 -2.91243 0
M  V30 3414 H 306.491 0.332448 -1.4011 0
M  V30 3415 H 308.444 3.12939 -2.82219 0
M  V30 3416 H 307.168 2.83943 -1.61381 0
M  V30 3417 H 305.827 1.55807 -3.31843 0
M  V30 3418 H 305.475 4.01697 -3.02735 0
M  V30 3419 H 305.175 3.51368 -4.70971 0
M  V30 3420 H 306.699 4.34587 -4.28913 0
M  V30 3421 H 308.113 2.29032 -5.25564 0
M  V30 3422 H 306.51 1.68128 -5.76067 0
M  V30 3423 H 307.58 0.638059 -4.80684 0
M  V30 3424 N 308.923 1.53595 0.353017 0
M  V30 3425 C 310.153 1.74058 1.11299 0
M  V30 3426 C 310.561 0.475205 1.83135 0
M  V30 3427 O 309.904 -0.562344 1.74881 0
M  V30 3428 C 309.966 2.85994 2.17825 0
M  V30 3429 C 309.63 4.25923 1.65647 0
M  V30 3430 C 310.627 5.07829 1.11383 0
M  V30 3431 C 308.312 4.72377 1.7078 0
M  V30 3432 C 310.306 6.34285 0.629439 0
M  V30 3433 C 307.993 5.98808 1.21953 0
M  V30 3434 C 308.991 6.79594 0.681265 0
M  V30 3435 O 308.679 8.03651 0.200248 0
M  V30 3436 H 308.411 0.585327 0.338183 0
M  V30 3437 H 310.965 2.01186 0.413927 0
M  V30 3438 H 309.195 2.54368 2.91262 0
M  V30 3439 H 310.884 2.94515 2.79313 0
M  V30 3440 H 311.65 4.73107 1.06746 0
M  V30 3441 H 307.529 4.0956 2.11617 0
M  V30 3442 H 311.073 6.97288 0.208636 0
M  V30 3443 H 306.97 6.33026 1.26287 0
M  V30 3444 H 307.738 8.1788 0.318416 0
M  V30 3445 N 310.401 -0.613514 1.45168 0
M  V30 3446 C 311.629 -1.39946 1.5239 0
M  V30 3447 C 312.044 -1.88167 0.154531 0
M  V30 3448 O 311.401 -1.61872 -0.842843 0
M  V30 3449 C 311.452 -2.60795 2.50337 0
M  V30 3450 O 311.173 -2.1458 3.81952 0
M  V30 3451 C 312.674 -3.53723 2.67198 0
M  V30 3452 H 309.894 -0.428593 0.516284 0
M  V30 3453 H 312.438 -0.748753 1.903 0
M  V30 3454 H 310.593 -3.21919 2.15515 0
M  V30 3455 H 311.007 -2.93055 4.34993 0
M  V30 3456 H 312.481 -4.35079 3.39721 0
M  V30 3457 H 312.958 -4.0368 1.73029 0
M  V30 3458 H 313.564 -2.98456 3.02992 0
M  V30 3459 N 311.879 -1.3236 -0.855495 0
M  V30 3460 C 313.127 -1.22629 -1.60644 0
M  V30 3461 C 313.448 0.212136 -1.93843 0
M  V30 3462 O 312.718 1.13666 -1.59552 0
M  V30 3463 H 311.298 -0.450882 -0.595579 0
M  V30 3464 H 313.96 -1.65871 -1.02337 0
M  V30 3465 H 313.056 -1.80832 -2.54374 0
M  V30 3466 N 313.357 1.07166 -1.15556 0
M  V30 3467 C 314.605 1.79443 -0.929764 0
M  V30 3468 C 314.926 1.87246 0.544414 0
M  V30 3469 O 314.196 1.37473 1.39564 0
M  V30 3470 H 312.776 0.664625 -0.341003 0
M  V30 3471 H 315.438 1.29499 -1.45657 0
M  V30 3472 H 314.534 2.81832 -1.34079 0
M  V30 3473 N 314.835 0.952656 1.25548 0
M  V30 3474 C 316.06 0.623025 1.97821 0
M  V30 3475 C 316.485 -0.7976 1.70352 0
M  V30 3476 O 315.843 -1.53905 0.958283 0
M  V30 3477 C 315.891 0.885532 3.49558 0
M  V30 3478 O 314.995 -0.0366641 4.12384 0
M  V30 3479 H 314.336 0.237082 0.620232 0
M  V30 3480 H 316.866 1.27871 1.59719 0
M  V30 3481 H 316.876 0.811009 3.99858 0
M  V30 3482 H 315.551 1.92094 3.6888 0
M  V30 3483 H 314.128 0.0898954 3.72792 0
M  V30 3484 N 316.313 -1.40141 0.720998 0
M  V30 3485 C 317.562 -2.0002 0.259804 0
M  V30 3486 C 317.875 -1.57839 -1.15526 0
M  V30 3487 O 319.081 -2.10455 -1.71525 0
M  V30 3488 C 317.537 -3.57516 0.413566 0
M  V30 3489 C 317.145 -4.08667 1.83562 0
M  V30 3490 C 318.889 -4.24498 0.0134387 0
M  V30 3491 C 316.796 -5.58686 1.93968 0
M  V30 3492 H 315.726 -0.748195 0.0933806 0
M  V30 3493 H 318.377 -1.60313 0.892866 0
M  V30 3494 H 316.759 -3.9495 -0.288169 0
M  V30 3495 H 317.933 -3.82598 2.56817 0
M  V30 3496 H 316.248 -3.543 2.1877 0
M  V30 3497 H 318.845 -5.34654 0.0703954 0
M  V30 3498 H 319.188 -4.03375 -1.02927 0
M  V30 3499 H 319.721 -3.92188 0.665815 0
M  V30 3500 H 316.46 -5.8467 2.96379 0
M  V30 3501 H 315.98 -5.86602 1.25131 0
M  V30 3502 H 317.659 -6.23875 1.71431 0
M  V30 3503 N 317.792 -0.46758 -1.50504 0
M  V30 3504 C 318.722 0.318381 -2.31319 0
M  V30 3505 C 319.703 0.993564 -1.38066 0
M  V30 3506 O 320.888 0.991411 -1.66987 0
M  V30 3507 C 318.018 1.40275 -3.17711 0
M  V30 3508 C 316.972 0.849373 -4.19487 0
M  V30 3509 C 316.298 2.03177 -4.94594 0
M  V30 3510 C 317.598 -0.136942 -5.2212 0
M  V30 3511 H 319.292 -0.356106 -2.97275 0
M  V30 3512 H 316.838 -0.172703 -1.42961 0
M  V30 3513 H 318.791 1.96004 -3.73042 0
M  V30 3514 H 317.515 2.10596 -2.49634 0
M  V30 3515 H 316.174 0.314076 -3.65252 0
M  V30 3516 H 315.822 2.72187 -4.22993 0
M  V30 3517 H 315.522 1.66774 -5.63436 0
M  V30 3518 H 317.046 2.59403 -5.52759 0
M  V30 3519 H 318.46 0.331056 -5.72343 0
M  V30 3520 H 316.857 -0.41507 -5.98663 0
M  V30 3521 H 317.927 -1.06398 -4.73083 0
M  V30 3522 N 319.27 1.56325 -0.20005 0
M  V30 3523 C 320.681 1.8408 0.31167 0
M  V30 3524 C 321.032 1.12087 1.61031 0
M  V30 3525 O 320.157 0.38332 2.12978 0
M  V30 3526 C 320.752 3.33932 0.57226 0
M  V30 3527 C 319.311 3.6208 1.02834 0
M  V30 3528 C 318.458 2.77186 0.079634 0
M  V30 3529 H 321.409 1.52939 -0.423729 0
M  V30 3530 H 321.43 3.52971 1.42096 0
M  V30 3531 H 320.942 3.86303 -0.37308 0
M  V30 3532 H 319.043 3.15147 1.98778 0
M  V30 3533 H 319.156 4.7023 0.917624 0
M  V30 3534 H 317.52 2.47951 0.582448 0
M  V30 3535 H 318.303 3.32347 -0.860238 0
M  V30 3536 N 320.748 -0.0735177 1.57428 0
M  V30 3537 C 321.976 -0.785969 1.9139 0
M  V30 3538 C 322.391 -1.71207 0.795847 0
M  V30 3539 O 321.748 -1.81033 -0.230915 0
M  V30 3540 C 321.799 -1.58107 3.25091 0
M  V30 3541 O 321.52 -0.6922 4.32597 0
M  V30 3542 C 323.021 -2.39467 3.73055 0
M  V30 3543 H 320.241 -0.223558 0.632663 0
M  V30 3544 H 322.785 -0.044302 2.04452 0
M  V30 3545 H 320.94 -2.27503 3.13562 0
M  V30 3546 H 321.354 -1.24504 5.09508 0
M  V30 3547 H 322.828 -2.90716 4.69242 0
M  V30 3548 H 323.305 -3.18913 3.01979 0
M  V30 3549 H 323.911 -1.7523 3.87523 0
M  V30 3550 N 322.226 -1.5378 -0.344866 0
M  V30 3551 C 323.637 -1.62428 -0.920552 0
M  V30 3552 C 323.988 -0.504747 -1.89596 0
M  V30 3553 O 323.113 0.365711 -2.13287 0
M  V30 3554 C 323.708 -2.94419 -1.67639 0
M  V30 3555 C 322.267 -3.05333 -2.20111 0
M  V30 3556 C 321.414 -2.57866 -1.01982 0
M  V30 3557 H 324.365 -1.58222 -0.123042 0
M  V30 3558 H 324.386 -2.83384 -2.53917 0
M  V30 3559 H 323.898 -3.7588 -0.966224 0
M  V30 3560 H 321.999 -2.28502 -2.94308 0
M  V30 3561 H 322.112 -4.10778 -2.46573 0
M  V30 3562 H 320.476 -2.13241 -1.39285 0
M  V30 3563 H 321.259 -3.41765 -0.324308 0
M  V30 3564 N 323.704 0.605807 -1.45491 0
M  V30 3565 C 324.634 1.72709 -1.57143 0
M  V30 3566 C 325.615 1.6476 -0.422884 0
M  V30 3567 O 326.8 1.83132 -0.646247 0
M  V30 3568 C 323.93 3.11316 -1.53948 0
M  V30 3569 C 322.884 3.34077 -2.67537 0
M  V30 3570 C 322.21 4.72975 -2.49397 0
M  V30 3571 C 323.51 3.24158 -4.09535 0
M  V30 3572 H 325.204 1.63214 -2.51001 0
M  V30 3573 H 322.75 0.78379 -1.208 0
M  V30 3574 H 324.703 3.89557 -1.60696 0
M  V30 3575 H 323.427 3.21655 -0.566205 0
M  V30 3576 H 322.086 2.58227 -2.6022 0
M  V30 3577 H 321.734 4.8005 -1.50205 0
M  V30 3578 H 321.434 4.8916 -3.25571 0
M  V30 3579 H 322.958 5.53414 -2.58002 0
M  V30 3580 H 324.372 3.92271 -4.18086 0
M  V30 3581 H 322.769 3.51872 -4.86113 0
M  V30 3582 H 323.839 2.2157 -4.31317 0
M  V30 3583 N 325.182 1.32811 0.848464 0
M  V30 3584 C 326.41 1.26739 1.63538 0
M  V30 3585 C 326.825 -0.163484 1.88091 0
M  V30 3586 O 326.182 -1.10258 1.45429 0
M  V30 3587 C 326.233 2.03013 2.99112 0
M  V30 3588 O 325.954 3.40518 2.75643 0
M  V30 3589 C 327.455 2.04038 3.93552 0
M  V30 3590 H 324.675 0.437024 0.509167 0
M  V30 3591 H 327.219 1.75033 1.05753 0
M  V30 3592 H 325.374 1.58426 3.53525 0
M  V30 3593 H 325.788 3.79635 3.61908 0
M  V30 3594 H 327.262 2.61877 4.85926 0
M  V30 3595 H 327.739 1.0282 4.26995 0
M  V30 3596 H 328.345 2.486 3.45077 0
M  V30 3597 N 326.66 -1.06551 1.16123 0
M  V30 3598 C 327.888 -1.83005 0.965237 0
M  V30 3599 C 328.303 -1.82423 -0.486542 0
M  V30 3600 O 327.66 -1.24152 -1.33763 0
M  V30 3601 C 327.711 -3.29733 1.48183 0
M  V30 3602 O 327.432 -3.30416 2.87674 0
M  V30 3603 C 328.933 -4.22926 1.32848 0
M  V30 3604 H 326.153 -0.577118 0.342309 0
M  V30 3605 H 328.697 -1.3445 1.54089 0
M  V30 3606 H 326.852 -3.75609 0.948517 0
M  V30 3607 H 327.266 -4.22149 3.11272 0
M  V30 3608 H 328.74 -5.23916 1.73827 0
M  V30 3609 H 329.217 -4.38346 0.273692 0
M  V30 3610 H 329.823 -3.82894 1.85127 0
M  V30 3611 N 328.138 -0.959301 -1.25041 0
M  V30 3612 C 329.378 -0.624343 -1.94631 0
M  V30 3613 C 329.742 0.82403 -1.73418 0
M  V30 3614 O 330.943 1.26881 -2.3697 0
M  V30 3615 C 329.214 -0.978805 -3.43736 0
M  V30 3616 S 330.773 -0.757127 -4.32219 0
M  V30 3617 H 327.591 -0.229327 -0.673001 0
M  V30 3618 H 330.193 -1.23447 -1.51595 0
M  V30 3619 H 328.897 -2.02997 -3.56679 0
M  V30 3620 H 328.428 -0.359117 -3.91757 0
M  V30 3621 H 330.443 0.369759 -4.9482 0
M  V30 3622 N 329.616 1.39756 -0.72842 0
M  V30 3623 C 331.032 1.5442 -0.403308 0
M  V30 3624 C 331.232 1.69694 1.08656 0
M  V30 3625 O 330.288 1.69373 1.87267 0
M  V30 3626 C 331.601 2.76555 -1.18058 0
M  V30 3627 C 333.149 2.90384 -1.16815 0
M  V30 3628 C 333.624 4.15449 -1.92785 0
M  V30 3629 N 335.115 4.22475 -1.89918 0
M  V30 3630 C 335.85 5.1818 -2.45514 0
M  V30 3631 N 335.346 6.19714 -3.09719 0
M  V30 3632 N 337.139 5.1035 -2.35584 0
M  V30 3633 H 329.29 1.28089 -1.69431 0
M  V30 3634 H 331.553 0.620327 -0.716867 0
M  V30 3635 H 331.259 2.7159 -2.23455 0
M  V30 3636 H 331.133 3.69033 -0.780662 0
M  V30 3637 H 333.52 2.94846 -0.12234 0
M  V30 3638 H 333.601 1.98988 -1.6074 0
M  V30 3639 H 333.245 4.11749 -2.97364 0
M  V30 3640 H 333.175 5.05877 -1.46272 0
M  V30 3641 H 335.666 3.49743 -1.43138 0
M  V30 3642 H 335.979 6.8919 -3.49625 0
M  V30 3643 H 334.324 6.20121 -3.13807 0
M  V30 3644 H 337.515 4.2996 -1.85072 0
M  V30 3645 H 337.688 5.84761 -2.79211 0
M  V30 3646 N 331.094 0.475555 1.50254 0
M  V30 3647 C 332.324 -0.0753399 2.06463 0
M  V30 3648 C 332.732 -1.33661 1.33908 0
M  V30 3649 O 332.075 -1.79219 0.403257 0
M  V30 3650 C 332.137 -0.424921 3.5698 0
M  V30 3651 C 331.801 0.734965 4.51051 0
M  V30 3652 C 332.798 1.61827 4.94073 0
M  V30 3653 C 330.483 0.926557 4.9368 0
M  V30 3654 C 332.477 2.67754 5.78434 0
M  V30 3655 C 330.164 1.98904 5.77824 0
M  V30 3656 C 331.162 2.8629 6.20103 0
M  V30 3657 O 330.85 3.90708 7.02568 0
M  V30 3658 H 330.582 0.00576308 0.675975 0
M  V30 3659 H 333.136 0.664662 1.94349 0
M  V30 3660 H 331.366 -1.21817 3.67012 0
M  V30 3661 H 333.055 -0.911422 3.95535 0
M  V30 3662 H 333.821 1.48196 4.61804 0
M  V30 3663 H 329.7 0.25584 4.6029 0
M  V30 3664 H 333.244 3.35992 6.11355 0
M  V30 3665 H 329.141 2.12541 6.09505 0
M  V30 3666 H 329.909 3.87751 7.20827 0
M  V30 3667 N 332.573 -1.56217 0.208337 0
M  V30 3668 C 333.505 -2.1695 -0.739276 0
M  V30 3669 C 334.518 -1.13492 -1.1672 0
M  V30 3670 O 335.707 -1.40529 -1.10063 0
M  V30 3671 C 332.807 -2.72755 -2.01142 0
M  V30 3672 C 331.98 -4.0125 -1.74118 0
M  V30 3673 C 331.039 -4.41749 -2.85909 0
M  V30 3674 O 330.065 -5.08912 -2.54946 0
M  V30 3675 N 331.267 -4.06342 -4.14568 0
M  V30 3676 H 334.032 -2.98893 -0.219837 0
M  V30 3677 H 331.593 -1.61878 0.0268445 0
M  V30 3678 H 333.585 -2.96826 -2.75094 0
M  V30 3679 H 332.155 -1.95191 -2.4417 0
M  V30 3680 H 331.375 -3.85173 -0.838775 0
M  V30 3681 H 332.663 -4.851 -1.53477 0
M  V30 3682 H 332.061 -3.52345 -4.42571 0
M  V30 3683 H 330.618 -4.35335 -4.85105 0
M  V30 3684 N 334.051 0.0651679 -1.57465 0
M  V30 3685 C 335.001 1.0838 -2.00594 0
M  V30 3686 C 335.985 1.34106 -0.889071 0
M  V30 3687 O 337.177 1.34295 -1.15299 0
M  V30 3688 C 334.306 2.39565 -2.45894 0
M  V30 3689 C 333.392 2.17085 -3.64328 0
M  V30 3690 N 333.783 1.64553 -4.78285 0
M  V30 3691 C 332.081 2.4753 -3.71006 0
M  V30 3692 C 332.782 1.57042 -5.60101 0
M  V30 3693 N 331.758 2.03328 -5.04141 0
M  V30 3694 H 335.56 0.671062 -2.86136 0
M  V30 3695 H 333.074 0.27213 -1.60104 0
M  V30 3696 H 335.071 3.13308 -2.75034 0
M  V30 3697 H 333.731 2.81549 -1.61741 0
M  V30 3698 H 334.742 1.33323 -5.00445 0
M  V30 3699 H 331.419 2.92835 -2.9758 0
M  V30 3700 H 332.809 1.17223 -6.61595 0
M  V30 3701 N 335.529 1.53961 0.336706 0
M  V30 3702 C 336.945 1.44378 0.680241 0
M  V30 3703 C 337.145 0.606034 1.9217 0
M  V30 3704 O 336.201 0.099688 2.52303 0
M  V30 3705 C 337.514 2.87945 0.8665 0
M  V30 3706 C 339.062 2.97763 0.964682 0
M  V30 3707 C 339.537 4.42453 1.18321 0
M  V30 3708 N 341.028 4.46008 1.25025 0
M  V30 3709 C 341.763 5.55102 1.43697 0
M  V30 3710 N 341.259 6.7419 1.59498 0
M  V30 3711 N 343.052 5.42727 1.463 0
M  V30 3712 H 335.203 2.06918 -0.479455 0
M  V30 3713 H 337.466 0.935634 -0.152619 0
M  V30 3714 H 337.172 3.51691 0.0256937 0
M  V30 3715 H 337.046 3.33293 1.76623 0
M  V30 3716 H 339.433 2.34153 1.796 0
M  V30 3717 H 339.514 2.55766 0.041708 0
M  V30 3718 H 339.158 5.06645 0.356788 0
M  V30 3719 H 339.088 4.82048 2.11985 0
M  V30 3720 H 341.579 3.60196 1.14312 0
M  V30 3721 H 341.892 7.53095 1.734 0
M  V30 3722 H 340.237 6.77123 1.56621 0
M  V30 3723 H 343.428 4.48647 1.33543 0
M  V30 3724 H 343.601 6.27806 1.6051 0
M  V30 3725 N 337.007 -0.598083 1.45811 0
M  V30 3726 C 338.418 -1.18011 1.44673 0
M  V30 3727 C 338.769 -1.95378 0.179364 0
M  V30 3728 O 337.894 -2.04124 -0.718509 0
M  V30 3729 C 338.489 -2.14677 2.62105 0
M  V30 3730 C 337.048 -2.68236 2.64057 0
M  V30 3731 C 336.195 -1.43816 2.37091 0
M  V30 3732 H 339.146 -0.38686 1.53913 0
M  V30 3733 H 339.167 -2.97878 2.36746 0
M  V30 3734 H 338.679 -1.5834 3.5433 0
M  V30 3735 H 336.78 -3.28486 1.75864 0
M  V30 3736 H 336.893 -3.12021 3.63566 0
M  V30 3737 H 335.257 -1.731 1.86838 0
M  V30 3738 H 336.04 -0.893333 3.31473 0
M  V30 3739 N 338.485 -1.33259 -0.841409 0
M  V30 3740 C 339.734 -1.23921 -1.59143 0
M  V30 3741 C 340.047 0.1941 -1.94635 0
M  V30 3742 O 341.253 0.409474 -2.68394 0
M  V30 3743 C 339.709 -2.17119 -2.87032 0
M  V30 3744 C 339.317 -3.65606 -2.58914 0
M  V30 3745 C 341.061 -2.16648 -3.65053 0
M  V30 3746 C 338.968 -4.50726 -3.82884 0
M  V30 3747 H 337.898 -0.460264 -0.597221 0
M  V30 3748 H 340.549 -1.58307 -0.927959 0
M  V30 3749 H 338.931 -1.75663 -3.54906 0
M  V30 3750 H 340.105 -4.15487 -1.99267 0
M  V30 3751 H 338.42 -3.68341 -1.942 0
M  V30 3752 H 341.017 -2.77474 -4.57069 0
M  V30 3753 H 341.36 -1.16088 -3.99787 0
M  V30 3754 H 341.893 -2.56453 -3.041 0
M  V30 3755 H 338.632 -5.52151 -3.53283 0
M  V30 3756 H 338.152 -4.0559 -4.41879 0
M  V30 3757 H 339.831 -4.64401 -4.50489 0
M  V30 3758 N 339.963 1.05934 -1.16686 0
M  V30 3759 C 340.911 2.15603 -0.872817 0
M  V30 3760 C 341.905 1.68647 0.159576 0
M  V30 3761 O 343.111 1.79995 0.0132125 0
M  V30 3762 H 339.486 0.703885 -0.264671 0
M  V30 3763 H 341.457 2.37613 -1.80507 0
M  V30 3764 C 340.206 3.45457 -0.394344 0
M  V30 3765 H 339.529 3.81984 -1.18019 0
M  V30 3766 H 340.969 4.2339 -0.227408 0
M  V30 3767 C 339.428 3.25021 0.88673 0
M  V30 3768 O 339.958 3.50906 1.95519 0
M  V30 3769 N 338.164 2.78437 0.831925 0
M  V30 3770 H 337.711 2.57572 -0.0377619 0
M  V30 3771 H 337.669 2.65144 1.68956 0
M  V30 3772 N 341.441 0.965919 1.2453 0
M  V30 3773 C 342.687 0.637349 1.93156 0
M  V30 3774 C 343.042 -0.818261 1.74133 0
M  V30 3775 O 342.335 -1.58079 1.08266 0
M  V30 3776 C 342.529 0.945428 3.44669 0
M  V30 3777 C 342.358 2.42944 3.78429 0
M  V30 3778 C 341.128 3.08895 3.9989 0
M  V30 3779 C 343.326 3.40941 3.8505 0
M  V30 3780 N 341.308 4.47052 4.20735 0
M  V30 3781 C 342.679 4.64448 4.10717 0
M  V30 3782 C 344.734 3.35624 3.67779 0
M  V30 3783 C 343.437 5.83292 4.20907 0
M  V30 3784 C 345.463 4.53818 3.79214 0
M  V30 3785 C 344.825 5.76114 4.05304 0
M  V30 3786 H 340.924 0.284034 0.728594 0
M  V30 3787 H 343.508 1.24041 1.50073 0
M  V30 3788 H 341.679 0.371193 3.86622 0
M  V30 3789 H 343.411 0.575613 4.00586 0
M  V30 3790 H 340.166 2.59432 3.96222 0
M  V30 3791 H 340.59 5.18634 4.35141 0
M  V30 3792 H 345.232 2.4211 3.46616 0
M  V30 3793 H 342.95 6.77236 4.40883 0
M  V30 3794 H 346.536 4.51263 3.67224 0
M  V30 3795 H 345.416 6.66045 4.13949 0
M  V30 3796 N 342.919 -1.39368 0.735821 0
M  V30 3797 C 344.144 -2.05319 0.293052 0
M  V30 3798 C 344.569 -1.55115 -1.064 0
M  V30 3799 O 343.927 -0.695261 -1.67439 0
M  V30 3800 C 343.975 -3.59305 0.305323 0
M  V30 3801 O 343.079 -4.06299 -0.706761 0
M  V30 3802 H 342.42 -0.650529 0.13307 0
M  V30 3803 H 344.95 -1.78386 1.00197 0
M  V30 3804 H 344.96 -4.07724 0.149997 0
M  V30 3805 H 343.635 -3.95207 1.29553 0
M  V30 3806 H 342.212 -3.69292 -0.517504 0
M  V30 3807 N 344.397 -0.483516 -1.5 0
M  V30 3808 C 345.344 0.304164 -2.28787 0
M  V30 3809 C 346.314 0.976114 -1.34392 0
M  V30 3810 O 347.499 0.986156 -1.63339 0
M  V30 3811 C 344.639 1.37298 -3.16612 0
M  V30 3812 C 343.752 0.714561 -4.26049 0
M  V30 3813 C 342.887 1.76232 -5.01114 0
M  V30 3814 C 341.926 1.08483 -6.0241 0
M  V30 3815 N 341.063 2.076 -6.70706 0
M  V30 3816 H 345.903 -0.373981 -2.95644 0
M  V30 3817 H 343.44 -0.196275 -1.45785 0
M  V30 3818 H 345.398 2.00445 -3.65893 0
M  V30 3819 H 344.028 2.02012 -2.51776 0
M  V30 3820 H 343.08 -0.0297798 -3.80388 0
M  V30 3821 H 344.392 0.180383 -4.98474 0
M  V30 3822 H 343.546 2.46929 -5.54176 0
M  V30 3823 H 342.285 2.33033 -4.28424 0
M  V30 3824 H 341.29 0.363545 -5.48597 0
M  V30 3825 H 342.515 0.523551 -6.77079 0
M  V30 3826 H 340.461 2.63394 -6.00799 0
M  V30 3827 H 340.378 1.59201 -7.39047 0
M  V30 3828 H 341.646 2.77639 -7.2838 0
M  V30 3829 N 345.875 1.56104 -0.216619 0
M  V30 3830 C 346.805 2.23063 0.690296 0
M  V30 3831 C 347.786 1.20072 1.20485 0
M  V30 3832 O 348.971 1.48643 1.24976 0
M  V30 3833 C 346.101 2.90672 1.90072 0
M  V30 3834 C 345.055 4.00092 1.5202 0
M  V30 3835 C 344.381 4.54972 2.80899 0
M  V30 3836 C 345.681 5.17398 0.71391 0
M  V30 3837 H 347.375 2.99109 0.132038 0
M  V30 3838 H 344.921 1.43866 0.0620664 0
M  V30 3839 H 346.874 3.36204 2.54057 0
M  V30 3840 H 345.598 2.12066 2.48386 0
M  V30 3841 H 344.257 3.55283 0.903839 0
M  V30 3842 H 343.905 3.73102 3.37348 0
M  V30 3843 H 343.605 5.28817 2.56176 0
M  V30 3844 H 345.129 5.0322 3.45836 0
M  V30 3845 H 346.543 5.59342 1.25735 0
M  V30 3846 H 344.94 5.97444 0.563951 0
M  V30 3847 H 346.01 4.84088 -0.280527 0
M  V30 3848 N 347.353 -0.0568162 1.57498 0
M  V30 3849 C 348.303 -1.07315 2.01166 0
M  V30 3850 C 349.287 -1.33632 0.896171 0
M  V30 3851 O 350.479 -1.33682 1.16009 0
M  V30 3852 C 347.608 -2.38257 2.47161 0
M  V30 3853 C 346.694 -2.1515 3.65474 0
M  V30 3854 N 347.085 -1.62014 4.7915 0
M  V30 3855 C 345.383 -2.45559 3.72313 0
M  V30 3856 C 346.084 -1.54069 5.60926 0
M  V30 3857 N 345.06 -2.00652 5.05213 0
M  V30 3858 H 348.862 -0.655878 2.86488 0
M  V30 3859 H 346.376 -0.263635 1.60246 0
M  V30 3860 H 348.373 -3.11845 2.76691 0
M  V30 3861 H 347.033 -2.80687 1.63232 0
M  V30 3862 H 348.044 -1.30667 5.01145 0
M  V30 3863 H 344.721 -2.91253 2.99129 0
M  V30 3864 H 346.111 -1.13712 6.62208 0
M  V30 3865 N 348.832 -1.54138 -0.328536 0
M  V30 3866 C 350.109 -1.62749 -1.08499 0
M  V30 3867 C 350.489 -0.458198 -2.06067 0
M  V30 3868 O 349.837 0.548046 -2.2183 0
M  V30 3869 C 350.047 -2.99519 -1.79135 0
M  V30 3870 C 351.395 -3.55394 -2.32337 0
M  V30 3871 O 352.419 -3.01792 -1.89209 0
M  V30 3872 O 351.278 -4.49186 -3.11279 0
M  V30 3873 H 348.372 -0.65886 -0.499832 0
M  V30 3874 H 350.918 -1.66484 -0.328826 0
M  V30 3875 H 349.69 -3.76061 -1.08139 0
M  V30 3876 H 349.313 -2.99441 -2.61574 0
M  V30 3877 N 350.31 0.590341 -1.46126 0
M  V30 3878 C 351.556 1.35082 -1.51264 0
M  V30 3879 C 351.889 1.93534 -0.160711 0
M  V30 3880 O 351.164 1.76045 0.826956 0
M  V30 3881 C 351.447 2.48588 -2.6053 0
M  V30 3882 C 351.3 1.95221 -4.05227 0
M  V30 3883 C 352.619 3.50662 -2.6594 0
M  V30 3884 H 349.738 0.489803 -0.550692 0
M  V30 3885 H 352.38 0.663887 -1.78024 0
M  V30 3886 H 350.53 3.07186 -2.37843 0
M  V30 3887 H 352.202 1.41139 -4.39178 0
M  V30 3888 H 350.445 1.26101 -4.15068 0
M  V30 3889 H 351.116 2.77121 -4.77397 0
M  V30 3890 H 353.592 3.01934 -2.86313 0
M  V30 3891 H 352.468 4.27551 -3.44226 0
M  V30 3892 H 352.729 4.07399 -1.71694 0
M  V30 3893 N 351.788 1.33704 0.83433 0
M  V30 3894 C 353.036 1.25169 1.58673 0
M  V30 3895 C 353.357 -0.18127 1.94156 0
M  V30 3896 O 352.627 -1.11113 1.6134 0
M  V30 3897 H 351.207 0.4603 0.58833 0
M  V30 3898 H 353.869 1.67478 0.996847 0
M  V30 3899 H 352.965 1.84856 2.51465 0
M  V30 3900 N 353.266 -1.05314 1.17247 0
M  V30 3901 C 354.513 -1.78293 0.960091 0
M  V30 3902 C 354.841 -1.87658 -0.51136 0
M  V30 3903 O 354.096 -1.3718 -1.39571 0
M  V30 3904 C 354.395 -3.2229 1.54479 0
M  V30 3905 C 354.061 -3.32987 3.04024 0
M  V30 3906 C 352.723 -3.35613 3.44844 0
M  V30 3907 C 355.075 -3.34102 4.00031 0
M  V30 3908 C 352.403 -3.36982 4.8027 0
M  V30 3909 C 354.755 -3.3701 5.35357 0
M  V30 3910 C 353.419 -3.37923 5.75642 0
M  V30 3911 H 352.689 -0.652422 0.351322 0
M  V30 3912 H 355.336 -1.23782 1.46117 0
M  V30 3913 H 353.641 -3.7972 0.965391 0
M  V30 3914 H 355.338 -3.77376 1.35603 0
M  V30 3915 H 351.928 -3.31655 2.71483 0
M  V30 3916 H 356.112 -3.31276 3.69554 0
M  V30 3917 H 351.368 -3.35999 5.10798 0
M  V30 3918 H 355.542 -3.36822 6.09528 0
M  V30 3919 H 353.169 -3.38738 6.80559 0
M  V30 3920 N 354.744 -0.972509 -1.24016 0
M  V30 3921 C 355.969 -0.654417 -1.96805 0
M  V30 3922 C 356.394 0.770398 -1.716 0
M  V30 3923 O 355.752 1.52361 -0.982647 0
M  V30 3924 C 355.8 -0.941031 -3.48105 0
M  V30 3925 O 354.904 -0.0289472 -4.1239 0
M  V30 3926 H 354.245 -0.24692 -0.616382 0
M  V30 3927 H 356.775 -1.30396 -1.57664 0
M  V30 3928 H 356.785 -0.87452 -3.98517 0
M  V30 3929 H 355.46 -1.97939 -3.65777 0
M  V30 3930 H 354.037 -0.149192 -3.72601 0
M  V30 3931 N 356.222 1.38976 -0.743202 0
M  V30 3932 C 357.172 2.27843 -0.084513 0
M  V30 3933 C 358.156 1.44677 0.704094 0
M  V30 3934 O 359.348 1.67511 0.571755 0
M  V30 3935 C 356.477 3.33466 0.815781 0
M  V30 3936 C 355.563 4.24095 0.0208844 0
M  V30 3937 N 355.954 4.95609 -1.0102 0
M  V30 3938 C 354.252 4.45303 0.249293 0
M  V30 3939 C 354.953 5.62287 -1.49024 0
M  V30 3940 N 353.929 5.37571 -0.807377 0
M  V30 3941 H 357.731 2.80593 -0.87436 0
M  V30 3942 H 355.245 1.51755 -0.578283 0
M  V30 3943 H 357.242 3.96008 1.30321 0
M  V30 3944 H 355.902 2.82276 1.6047 0
M  V30 3945 H 356.913 4.98849 -1.39176 0
M  V30 3946 H 353.59 4.0504 1.01237 0
M  V30 3947 H 354.98 6.29519 -2.34853 0
M  V30 3948 N 357.7 0.491464 1.49741 0
M  V30 3949 C 358.63 -0.28154 2.31796 0
M  V30 3950 C 359.611 -0.971473 1.3963 0
M  V30 3951 O 360.796 -0.964719 1.68543 0
M  V30 3952 C 357.926 -1.35203 3.19902 0
M  V30 3953 C 356.88 -0.782529 4.20786 0
M  V30 3954 C 356.206 -1.95283 4.97764 0
M  V30 3955 C 357.506 0.21999 5.21837 0
M  V30 3956 H 359.2 0.403355 2.96671 0
M  V30 3957 H 356.746 0.195425 1.42668 0
M  V30 3958 H 358.699 -1.90045 3.76113 0
M  V30 3959 H 357.423 -2.06598 2.52953 0
M  V30 3960 H 356.082 -0.255928 3.65706 0
M  V30 3961 H 355.73 -2.65423 4.2727 0
M  V30 3962 H 355.43 -1.57789 5.66018 0
M  V30 3963 H 356.954 -2.50577 5.56816 0
M  V30 3964 H 358.368 -0.23996 5.72798 0
M  V30 3965 H 356.765 0.51026 5.97927 0
M  V30 3966 H 357.835 1.13911 4.7133 0
M  V30 3967 N 359.178 -1.55987 0.224894 0
M  V30 3968 C 360.589 -1.84553 -0.282345 0
M  V30 3969 C 360.94 -1.14634 -1.59227 0
M  V30 3970 O 360.065 -0.417155 -2.12341 0
M  V30 3971 C 360.66 -3.348 -0.519062 0
M  V30 3972 C 359.219 -3.63671 -0.970604 0
M  V30 3973 C 358.366 -2.77277 -0.0355261 0
M  V30 3974 H 361.317 -1.52245 0.448006 0
M  V30 3975 H 361.338 -3.55187 -1.36463 0
M  V30 3976 H 360.85 -3.8566 0.43449 0
M  V30 3977 H 358.951 -3.1827 -1.9374 0
M  V30 3978 H 359.064 -4.71631 -0.842698 0
M  V30 3979 H 357.428 -2.48846 -0.542927 0
M  V30 3980 H 358.211 -3.30937 0.913003 0
M  V30 3981 N 360.656 0.0484629 -1.57525 0
M  V30 3982 C 362.067 0.597486 -1.76881 0
M  V30 3983 C 362.418 1.76664 -0.853475 0
M  V30 3984 O 361.543 2.16357 -0.0433656 0
M  V30 3985 C 362.138 1.09066 -3.20765 0
M  V30 3986 C 360.697 1.58535 -3.41385 0
M  V30 3987 C 359.844 0.514868 -2.72478 0
M  V30 3988 H 362.795 -0.177758 -1.57701 0
M  V30 3989 H 362.816 1.95875 -3.2621 0
M  V30 3990 H 362.328 0.239521 -3.8736 0
M  V30 3991 H 360.429 2.45898 -2.79937 0
M  V30 3992 H 360.542 1.64622 -4.49929 0
M  V30 3993 H 358.906 0.965407 -2.35695 0
M  V30 3994 H 359.689 -0.32648 -3.41744 0
M  V30 3995 N 362.134 1.5431 0.320358 0
M  V30 3996 C 363.082 1.84647 1.4145 0
M  V30 3997 C 364.076 0.718624 1.53402 0
M  V30 3998 O 365.282 0.902335 1.5575 0
M  V30 3999 H 361.657 0.585349 0.472091 0
M  V30 4000 H 363.628 2.7614 1.13089 0
M  V30 4001 C 362.377 2.09341 2.77617 0
M  V30 4002 H 361.7 2.9559 2.69196 0
M  V30 4003 H 363.14 2.3452 3.53237 0
M  V30 4004 C 361.599 0.885939 3.25043 0
M  V30 4005 O 362.129 0.0967891 4.01583 0
M  V30 4006 N 360.335 0.696682 2.82125 0
M  V30 4007 H 359.882 1.34006 2.2 0
M  V30 4008 H 359.84 -0.109712 3.14209 0
M  V30 4009 N 363.613 -0.582584 1.46437 0
M  V30 4010 C 364.545 -1.70618 1.53043 0
M  V30 4011 C 365.558 -1.57322 0.418769 0
M  V30 4012 O 366.747 -1.64744 0.687136 0
M  V30 4013 C 363.847 -3.08869 1.39474 0
M  V30 4014 C 363.02 -3.48166 2.64762 0
M  V30 4015 C 362.079 -4.65478 2.4539 0
M  V30 4016 O 361.105 -4.71333 3.19114 0
M  V30 4017 N 362.307 -5.60365 1.51564 0
M  V30 4018 H 365.072 -1.65405 2.49923 0
M  V30 4019 H 362.633 -0.768567 1.42494 0
M  V30 4020 H 364.625 -3.85143 1.24287 0
M  V30 4021 H 363.195 -3.08449 0.507758 0
M  V30 4022 H 362.415 -2.61598 2.9489 0
M  V30 4023 H 363.703 -3.71188 3.4799 0
M  V30 4024 H 363.101 -5.5837 0.907705 0
M  V30 4025 H 361.658 -6.36068 1.4234 0
M  V30 4026 N 365.091 -1.34144 -0.827227 0
M  V30 4027 C 366.319 -1.29325 -1.61501 0
M  V30 4028 C 366.734 0.13354 -1.88327 0
M  V30 4029 O 366.091 1.0793 -1.47164 0
M  V30 4030 C 366.142 -2.07746 -2.95844 0
M  V30 4031 O 365.863 -3.4486 -2.70191 0
M  V30 4032 C 367.364 -2.10273 -3.90256 0
M  V30 4033 H 364.584 -0.445069 -0.50215 0
M  V30 4034 H 367.128 -1.76693 -1.02955 0
M  V30 4035 H 365.283 -1.6403 -3.5096 0
M  V30 4036 H 365.697 -3.85345 -3.55822 0
M  V30 4037 H 367.171 -2.69575 -4.81698 0
M  V30 4038 H 367.648 -1.096 -4.25305 0
M  V30 4039 H 368.254 -2.54059 -3.41078 0
M  V30 4040 N 366.569 1.04691 -1.17803 0
M  V30 4041 C 367.516 2.12557 -0.899343 0
M  V30 4042 C 368.486 1.65339 0.158771 0
M  V30 4043 O 369.671 1.90789 0.0204797 0
M  V30 4044 C 366.811 3.42481 -0.424315 0
M  V30 4045 C 365.924 4.03346 -1.54713 0
M  V30 4046 C 365.059 5.21208 -1.02546 0
M  V30 4047 C 364.098 5.74089 -2.12339 0
M  V30 4048 N 363.235 6.83247 -1.61612 0
M  V30 4049 H 368.075 2.35734 -1.823 0
M  V30 4050 H 365.612 1.1564 -0.909159 0
M  V30 4051 H 367.57 4.16996 -0.130421 0
M  V30 4052 H 366.2 3.19471 0.462377 0
M  V30 4053 H 365.252 3.2622 -1.95664 0
M  V30 4054 H 366.564 4.38628 -2.37501 0
M  V30 4055 H 365.718 6.02812 -0.685718 0
M  V30 4056 H 364.457 4.87414 -0.167084 0
M  V30 4057 H 363.462 4.91111 -2.47165 0
M  V30 4058 H 364.687 6.0993 -2.98601 0
M  V30 4059 H 362.633 6.5134 -0.780533 0
M  V30 4060 H 362.55 7.17559 -2.38003 0
M  V30 4061 H 363.818 7.68491 -1.30545 0
M  V30 4062 N 368.047 0.979072 1.23499 0
M  V30 4063 C 369.272 0.664845 1.96455 0
M  V30 4064 C 369.697 -0.761287 1.72006 0
M  V30 4065 O 369.055 -1.51837 0.990713 0
M  V30 4066 C 369.103 0.959479 3.47601 0
M  V30 4067 O 368.207 0.0508168 4.12369 0
M  V30 4068 H 367.548 0.250185 0.615064 0
M  V30 4069 H 370.078 1.31231 1.5697 0
M  V30 4070 H 370.088 0.895642 3.98048 0
M  V30 4071 H 368.763 1.99876 3.64723 0
M  V30 4072 H 367.34 0.16895 3.72517 0
M  V30 4073 N 369.525 -1.3858 0.750561 0
M  V30 4074 C 370.75 -2.04997 0.314812 0
M  V30 4075 C 371.175 -1.56235 -1.04749 0
M  V30 4076 O 370.533 -0.712981 -1.66692 0
M  V30 4077 C 370.581 -3.58961 0.343415 0
M  V30 4078 O 369.685 -4.07025 -0.663628 0
M  V30 4079 H 369.026 -0.649081 0.139962 0
M  V30 4080 H 371.556 -1.77313 1.02084 0
M  V30 4081 H 371.566 -4.07542 0.193233 0
M  V30 4082 H 370.241 -3.93811 1.33738 0
M  V30 4083 H 368.818 -3.6982 -0.478307 0
M  V30 4084 N 371.003 -0.499398 -1.49478 0
M  V30 4085 C 371.936 0.326491 -2.25852 0
M  V30 4086 C 372.914 0.971776 -1.30366 0
M  V30 4087 O 374.098 1.00219 -1.59651 0
M  V30 4088 C 371.225 1.45969 -3.05632 0
M  V30 4089 C 370.271 0.928938 -4.16261 0
M  V30 4090 S 371.104 -0.179012 -5.35201 0
M  V30 4091 C 372.26 0.957389 -6.18534 0
M  V30 4092 H 372.493 -0.321746 -2.95554 0
M  V30 4093 H 370.026 -0.284674 -1.51753 0
M  V30 4094 H 371.984 2.109 -3.52181 0
M  V30 4095 H 370.645 2.07953 -2.35402 0
M  V30 4096 H 369.838 1.77813 -4.71592 0
M  V30 4097 H 369.44 0.356869 -3.72293 0
M  V30 4098 H 371.732 1.86296 -6.51383 0
M  V30 4099 H 372.675 0.442733 -7.06715 0
M  V30 4100 H 373.083 1.224 -5.5107 0
M  V30 4101 N 372.481 1.55866 -0.233164 0
M  V30 4102 C 373.727 1.98897 0.395959 0
M  V30 4103 C 374.06 1.12091 1.58585 0
M  V30 4104 O 373.335 0.181182 1.93654 0
M  V30 4105 C 373.618 3.50658 0.819224 0
M  V30 4106 C 373.471 4.48233 -0.375109 0
M  V30 4107 C 374.79 4.07135 1.67121 0
M  V30 4108 H 371.909 0.723102 0.142451 0
M  V30 4109 H 374.551 1.87082 -0.331725 0
M  V30 4110 H 372.701 3.60857 1.43925 0
M  V30 4111 H 374.373 4.50031 -1.01341 0
M  V30 4112 H 372.616 4.21624 -1.02058 0
M  V30 4113 H 373.287 5.51988 -0.0358328 0
M  V30 4114 H 375.763 3.99952 1.14795 0
M  V30 4115 H 374.639 5.13615 1.93625 0
M  V30 4116 H 374.9 3.54736 2.63846 0
M  V30 4117 N 373.959 -0.0401083 1.57549 0
M  V30 4118 C 374.922 -1.02871 2.04817 0
M  V30 4119 C 375.922 -1.29708 0.950388 0
M  V30 4120 O 377.112 -1.24897 1.21435 0
M  V30 4121 C 374.244 -2.36443 2.45576 0
M  V30 4122 H 375.437 -0.620631 2.93408 0
M  V30 4123 H 372.99 -0.286667 1.53649 0
M  V30 4124 H 373.725 -2.82021 1.60108 0
M  V30 4125 H 373.51 -2.18296 3.25713 0
M  V30 4126 H 375 -3.07441 2.82612 0
M  V30 4127 N 375.437 -1.54477 -0.31217 0
M  V30 4128 C 376.662 -1.77526 -1.07235 0
M  V30 4129 C 377.087 -0.527775 -1.80544 0
M  V30 4130 O 376.445 0.52121 -1.73646 0
M  V30 4131 C 376.493 -2.97535 -2.03728 0
M  V30 4132 O 375.597 -2.69878 -3.11833 0
M  V30 4133 H 374.938 -0.58792 -0.30862 0
M  V30 4134 H 377.468 -2.01532 -0.352993 0
M  V30 4135 H 377.478 -3.25198 -2.46395 0
M  V30 4136 H 376.153 -3.87996 -1.49774 0
M  V30 4137 H 374.73 -2.53199 -2.7376 0
M  V30 4138 N 376.915 0.57481 -1.46744 0
M  V30 4139 C 378.145 1.35659 -1.55821 0
M  V30 4140 C 378.553 1.88129 -0.201036 0
M  V30 4141 O 377.896 1.64723 0.813134 0
M  V30 4142 C 377.958 2.57473 -2.50894 0
M  V30 4143 C 377.622 2.26415 -3.9697 0
M  V30 4144 C 378.619 1.84771 -4.85958 0
M  V30 4145 C 376.304 2.38316 -4.42166 0
M  V30 4146 C 378.298 1.55434 -6.18158 0
M  V30 4147 C 375.985 2.08591 -5.74398 0
M  V30 4148 C 376.983 1.67216 -6.62214 0
M  V30 4149 O 376.671 1.37859 -7.91991 0
M  V30 4150 H 376.403 0.420496 -0.529301 0
M  V30 4151 H 378.957 0.704967 -1.92923 0
M  V30 4152 H 377.187 3.25468 -2.08824 0
M  V30 4153 H 378.876 3.19546 -2.50291 0
M  V30 4154 H 379.642 1.75085 -4.52295 0
M  V30 4155 H 375.521 2.69483 -3.74032 0
M  V30 4156 H 379.065 1.23065 -6.86659 0
M  V30 4157 H 374.962 2.17905 -6.07608 0
M  V30 4158 H 375.73 1.51638 -8.04331 0
M  V30 4159 N 378.394 1.34581 0.820102 0
M  V30 4160 C 379.622 1.3018 1.60813 0
M  V30 4161 C 380.037 -0.123551 1.88395 0
M  V30 4162 O 379.394 -1.07148 1.47735 0
M  V30 4163 C 379.445 2.09312 2.94739 0
M  V30 4164 O 379.166 3.46288 2.68358 0
M  V30 4165 C 380.667 2.1234 3.89136 0
M  V30 4166 H 377.887 0.447726 0.499782 0
M  V30 4167 H 380.431 1.77237 1.02017 0
M  V30 4168 H 378.586 1.65889 3.50085 0
M  V30 4169 H 379 3.87227 3.53774 0
M  V30 4170 H 380.474 2.72126 4.80262 0
M  V30 4171 H 380.951 1.11854 4.24718 0
M  V30 4172 H 381.557 2.55864 3.39726 0
M  V30 4173 N 379.872 -1.04064 1.18357 0
M  V30 4174 C 380.802 -2.14001 0.934113 0
M  V30 4175 C 381.783 -1.69616 -0.128186 0
M  V30 4176 O 382.968 -1.94185 0.0244093 0
M  V30 4177 C 380.098 -3.44253 0.459066 0
M  V30 4178 C 379.052 -4.02261 1.46185 0
M  V30 4179 C 378.378 -5.27992 0.844322 0
M  V30 4180 C 379.678 -4.38432 2.83856 0
M  V30 4181 H 381.372 -2.35127 1.85352 0
M  V30 4182 H 378.918 -1.12998 0.892604 0
M  V30 4183 H 380.871 -4.20522 0.271907 0
M  V30 4184 H 379.595 -3.22813 -0.495912 0
M  V30 4185 H 378.254 -3.28074 1.63595 0
M  V30 4186 H 377.902 -5.02862 -0.117845 0
M  V30 4187 H 377.602 -5.67765 1.51384 0
M  V30 4188 H 379.126 -6.06938 0.667693 0
M  V30 4189 H 380.54 -5.05688 2.70098 0
M  V30 4190 H 378.937 -4.89254 3.47491 0
M  V30 4191 H 380.007 -3.4826 3.37406 0
M  V30 4192 N 381.35 -0.985608 -1.22978 0
M  V30 4193 C 382.761 -0.693593 -1.73338 0
M  V30 4194 C 383.112 0.789935 -1.79595 0
M  V30 4195 O 382.237 1.61771 -1.43733 0
M  V30 4196 C 382.832 -1.25235 -3.14804 0
M  V30 4197 C 381.391 -1.00987 -3.626 0
M  V30 4198 C 380.538 -1.37695 -2.40698 0
M  V30 4199 H 383.489 -1.15884 -1.08428 0
M  V30 4200 H 383.51 -0.627329 -3.75293 0
M  V30 4201 H 383.022 -2.33209 -3.10218 0
M  V30 4202 H 381.123 0.0535565 -3.72562 0
M  V30 4203 H 381.236 -1.66812 -4.49122 0
M  V30 4204 H 379.6 -0.795459 -2.4196 0
M  V30 4205 H 380.383 -2.46657 -2.38779 0
M  V30 4206 N 382.828 1.3818 -0.7579 0
M  V30 4207 C 383.776 2.32277 -0.122482 0
M  V30 4208 C 384.77 1.54238 0.700505 0
M  V30 4209 O 385.976 1.69737 0.599119 0
M  V30 4210 H 382.351 0.751712 -0.0208143 0
M  V30 4211 H 384.322 2.83469 -0.932099 0
M  V30 4212 C 383.071 3.39447 0.753076 0
M  V30 4213 H 382.394 3.99591 0.129184 0
M  V30 4214 H 383.834 4.07684 1.16489 0
M  V30 4215 C 382.293 2.78375 1.8976 0
M  V30 4216 O 382.823 2.68025 2.99208 0
M  V30 4217 N 381.029 2.36121 1.69397 0
M  V30 4218 H 380.576 2.4474 0.803762 0
M  V30 4219 H 380.534 1.95602 2.46145 0
M  V30 4220 N 384.306 0.507319 1.49211 0
M  V30 4221 C 385.254 -0.281364 2.30892 0
M  V30 4222 C 386.248 -0.95687 1.39787 0
M  V30 4223 O 387.454 -0.883838 1.56807 0
M  V30 4224 H 383.829 -0.109597 0.743971 0
M  V30 4225 H 385.8 0.42744 2.95323 0
M  V30 4226 C 384.549 -1.32918 3.21291 0
M  V30 4227 H 383.872 -0.818799 3.91326 0
M  V30 4228 H 385.312 -1.85288 3.81372 0
M  V30 4229 C 383.771 -2.35074 2.41333 0
M  V30 4230 O 384.301 -3.4108 2.12197 0
M  V30 4231 N 382.507 -2.07705 2.03241 0
M  V30 4232 H 382.054 -1.2152 2.27136 0
M  V30 4233 H 382.012 -2.76283 1.50051 0
M  V30 4234 N 385.784 -1.5574 0.241426 0
M  V30 4235 C 387.195 -1.84842 -0.262755 0
M  V30 4236 C 387.546 -1.16317 -1.58003 0
M  V30 4237 O 386.671 -0.439653 -2.11887 0
M  V30 4238 C 387.266 -3.35332 -0.483523 0
M  V30 4239 C 385.825 -3.6468 -0.931977 0
M  V30 4240 C 384.972 -2.77299 -0.0061151 0
M  V30 4241 H 387.923 -1.51761 0.464129 0
M  V30 4242 H 387.944 -3.56615 -1.32688 0
M  V30 4243 H 387.456 -3.85178 0.47537 0
M  V30 4244 H 385.557 -3.20307 -1.90353 0
M  V30 4245 H 385.67 -4.72498 -0.792628 0
M  V30 4246 H 384.034 -2.49408 -0.516503 0
M  V30 4247 H 384.817 -3.2995 0.948052 0
M  V30 4248 N 387.262 0.0317525 -1.57568 0
M  V30 4249 C 388.209 1.0332 -2.06382 0
M  V30 4250 C 389.179 1.36082 -0.952414 0
M  V30 4251 O 390.364 1.46466 -1.2228 0
M  V30 4252 C 387.504 2.32989 -2.54578 0
M  V30 4253 C 386.617 2.0641 -3.79498 0
M  V30 4254 C 385.752 3.2993 -4.16317 0
M  V30 4255 C 384.791 2.98893 -5.34162 0
M  V30 4256 N 383.928 4.14857 -5.66426 0
M  V30 4257 H 388.768 0.609982 -2.9169 0
M  V30 4258 H 386.305 0.289573 -1.44222 0
M  V30 4259 H 388.263 3.0875 -2.80587 0
M  V30 4260 H 386.893 2.73039 -1.7219 0
M  V30 4261 H 385.945 1.21158 -3.6059 0
M  V30 4262 H 387.257 1.79513 -4.65378 0
M  V30 4263 H 386.411 4.1406 -4.4344 0
M  V30 4264 H 385.15 3.59938 -3.29083 0
M  V30 4265 H 384.155 2.13164 -5.06795 0
M  V30 4266 H 385.38 2.70165 -6.23047 0
M  V30 4267 H 383.326 4.44821 -4.82151 0
M  V30 4268 H 383.243 3.91374 -6.4681 0
M  V30 4269 H 384.511 4.99868 -5.98124 0
M  V30 4270 N 388.74 1.54641 0.303973 0
M  V30 4271 C 389.67 1.88386 1.3796 0
M  V30 4272 C 390.651 0.742485 1.5304 0
M  V30 4273 O 391.836 0.997959 1.66597 0
M  V30 4274 C 388.966 2.12854 2.74427 0
M  V30 4275 C 387.92 3.28702 2.74115 0
M  V30 4276 C 387.246 3.38582 4.13844 0
M  V30 4277 C 388.546 4.65881 2.3612 0
M  V30 4278 H 390.24 2.78474 1.09966 0
M  V30 4279 H 387.786 1.33988 0.527556 0
M  V30 4280 H 389.739 2.35047 3.49758 0
M  V30 4281 H 388.463 1.19535 3.03939 0
M  V30 4282 H 387.122 3.06428 2.0124 0
M  V30 4283 H 386.77 2.42784 4.40528 0
M  V30 4284 H 386.47 4.16453 4.14537 0
M  V30 4285 H 387.994 3.63031 4.90959 0
M  V30 4286 H 389.408 4.87823 3.01167 0
M  V30 4287 H 387.805 5.46444 2.48031 0
M  V30 4288 H 388.875 4.66799 1.3125 0
M  V30 4289 N 390.218 -0.567019 1.47046 0
M  V30 4290 C 391.165 -1.67489 1.58796 0
M  V30 4291 C 392.135 -1.60399 0.43144 0
M  V30 4292 O 393.32 -1.79378 0.650233 0
M  V30 4293 C 390.46 -3.05821 1.59899 0
M  V30 4294 C 389.573 -3.2342 2.86397 0
M  V30 4295 C 388.708 -4.52093 2.789 0
M  V30 4296 C 387.747 -4.6309 4.00267 0
M  V30 4297 N 386.884 -5.83106 3.91064 0
M  V30 4298 H 391.724 -1.56785 2.53422 0
M  V30 4299 H 389.261 -0.763896 1.2571 0
M  V30 4300 H 391.219 -3.8591 1.58522 0
M  V30 4301 H 389.849 -3.15384 0.687929 0
M  V30 4302 H 388.901 -2.3683 2.97684 0
M  V30 4303 H 390.213 -3.27412 3.76301 0
M  V30 4304 H 389.367 -5.4043 2.75718 0
M  V30 4305 H 388.106 -4.50565 1.86662 0
M  V30 4306 H 387.111 -3.73168 4.03765 0
M  V30 4307 H 388.336 -4.66386 4.93621 0
M  V30 4308 H 386.282 -5.82546 3.01623 0
M  V30 4309 H 386.199 -5.88434 4.74638 0
M  V30 4310 H 387.467 -6.73831 3.91882 0
M  V30 4311 N 391.696 -1.35014 -0.812953 0
M  V30 4312 C 392.944 -1.27678 -1.56661 0
M  V30 4313 C 393.265 0.150359 -1.94419 0
M  V30 4314 O 392.535 1.08532 -1.63088 0
M  V30 4315 H 391.115 -0.469602 -0.580933 0
M  V30 4316 H 393.777 -1.69043 -0.970076 0
M  V30 4317 H 392.873 -1.88833 -2.48492 0
M  V30 4318 N 393.175 1.03435 -1.18907 0
M  V30 4319 C 394.105 2.13503 -0.945448 0
M  V30 4320 C 395.086 1.69682 0.119189 0
M  V30 4321 O 396.271 1.94169 -0.034707 0
M  V30 4322 C 393.401 3.44004 -0.477316 0
M  V30 4323 C 392.355 4.0148 -1.48316 0
M  V30 4324 C 391.681 5.27537 -0.872311 0
M  V30 4325 C 392.981 4.36921 -2.86177 0
M  V30 4326 H 394.675 2.34141 -1.86597 0
M  V30 4327 H 392.221 1.12523 -0.898584 0
M  V30 4328 H 394.174 4.20372 -0.294204 0
M  V30 4329 H 392.898 3.23072 0.478786 0
M  V30 4330 H 391.557 3.27201 -1.65332 0
M  V30 4331 H 391.205 5.02917 0.0911752 0
M  V30 4332 H 390.905 5.66954 -1.54393 0
M  V30 4333 H 392.429 6.06576 -0.699871 0
M  V30 4334 H 393.843 5.04248 -2.72776 0
M  V30 4335 H 392.24 4.87405 -3.50081 0
M  V30 4336 H 393.31 3.46466 -3.39248 0
M  V30 4337 N 394.653 0.992116 1.22453 0
M  V30 4338 C 396.069 0.702713 1.43297 0
M  V30 4339 C 396.269 -0.726909 1.87932 0
M  V30 4340 O 395.325 -1.49792 2.0327 0
M  V30 4341 C 396.638 1.70762 2.47509 0
M  V30 4342 C 398.186 1.72298 2.61309 0
M  V30 4343 C 398.661 2.71649 3.68742 0
M  V30 4344 N 400.152 2.70239 3.76199 0
M  V30 4345 C 400.887 3.43778 4.58917 0
M  V30 4346 N 400.383 4.26914 5.45633 0
M  V30 4347 N 402.176 3.32487 4.5322 0
M  V30 4348 H 394.327 1.91543 0.917871 0
M  V30 4349 H 396.59 0.826031 0.465162 0
M  V30 4350 H 396.296 2.73059 2.21657 0
M  V30 4351 H 396.17 1.49985 3.46099 0
M  V30 4352 H 398.557 0.706989 2.86506 0
M  V30 4353 H 398.638 1.97143 1.62997 0
M  V30 4354 H 398.282 3.73397 3.44292 0
M  V30 4355 H 398.212 2.44074 4.66622 0
M  V30 4356 H 400.703 2.09912 3.14237 0
M  V30 4357 H 401.016 4.79855 6.05771 0
M  V30 4358 H 399.361 4.31002 5.45218 0
M  V30 4359 H 402.552 2.6698 3.84499 0
M  V30 4360 H 402.725 3.90058 5.17454 0
M  V30 4361 N 396.131 -1.37776 0.765217 0
M  V30 4362 C 397.542 -1.82521 0.392819 0
M  V30 4363 C 397.893 -1.63789 -1.08017 0
M  V30 4364 O 397.018 -1.14542 -1.83601 0
M  V30 4365 C 397.613 -3.31358 0.706214 0
M  V30 4366 C 396.172 -3.74406 0.386952 0
M  V30 4367 C 395.319 -2.60394 0.953422 0
M  V30 4368 H 398.27 -1.2634 0.960412 0
M  V30 4369 H 398.291 -3.80498 -0.0114706 0
M  V30 4370 H 397.803 -3.44959 1.77833 0
M  V30 4371 H 395.904 -3.66377 -0.678112 0
M  V30 4372 H 396.017 -4.70749 0.890636 0
M  V30 4373 H 394.381 -2.51878 0.378064 0
M  V30 4374 H 395.164 -2.76791 2.03081 0
M  V30 4375 N 397.609 -0.515225 -1.4894 0
M  V30 4376 C 398.542 0.302518 -2.26186 0
M  V30 4377 C 399.52 0.957895 -1.31389 0
M  V30 4378 O 400.704 0.985198 -1.60705 0
M  V30 4379 C 397.831 1.42719 -3.07163 0
M  V30 4380 C 396.877 0.884736 -4.17223 0
M  V30 4381 S 397.71 -0.235767 -5.34981 0
M  V30 4382 C 398.866 0.891731 -6.19515 0
M  V30 4383 H 399.099 -0.353076 -2.95196 0
M  V30 4384 H 396.632 -0.300753 -1.51443 0
M  V30 4385 H 398.59 2.07152 -3.54398 0
M  V30 4386 H 397.251 2.05445 -2.37595 0
M  V30 4387 H 396.444 1.72801 -4.73451 0
M  V30 4388 H 396.046 0.317362 -3.72651 0
M  V30 4389 H 398.338 1.79377 -6.53322 0
M  V30 4390 H 399.281 0.367751 -7.07144 0
M  V30 4391 H 399.689 1.16548 -5.52338 0
M  V30 4392 N 399.087 1.5561 -0.249682 0
M  V30 4393 C 400.315 2.03411 0.378352 0
M  V30 4394 C 400.73 1.12886 1.51335 0
M  V30 4395 O 400.087 0.143833 1.81932 0
M  V30 4396 C 400.138 3.50537 0.88351 0
M  V30 4397 O 399.859 4.37614 -0.20626 0
M  V30 4398 C 401.36 4.14113 1.58195 0
M  V30 4399 H 398.58 0.664994 0.08958 0
M  V30 4400 H 401.124 2.01044 -0.374357 0
M  V30 4401 H 399.279 3.5343 1.58639 0
M  V30 4402 H 399.693 5.24199 0.177782 0
M  V30 4403 H 401.167 5.18741 1.8871 0
M  V30 4404 H 401.644 3.60767 2.50487 0
M  V30 4405 H 402.25 4.15151 0.923573 0
M  V30 4406 N 400.565 -0.0233959 1.57583 0
M  V30 4407 C 401.813 -0.711654 1.89156 0
M  V30 4408 C 402.134 -1.75591 0.848096 0
M  V30 4409 O 401.404 -1.95547 -0.117566 0
M  V30 4410 H 399.984 -0.265835 0.698098 0
M  V30 4411 H 402.646 0.0119948 1.94896 0
M  V30 4412 H 401.742 -1.19766 2.88206 0
M  V30 4413 N 402.043 -1.548 -0.295768 0
M  V30 4414 C 402.99 -1.86113 -1.36494 0
M  V30 4415 C 403.96 -0.7105 -1.50137 0
M  V30 4416 O 405.145 -0.959626 -1.64912 0
M  V30 4417 C 402.285 -2.11861 -2.72413 0
M  V30 4418 C 401.398 -3.39471 -2.67177 0
M  V30 4419 C 400.533 -3.55035 -3.95125 0
M  V30 4420 C 399.572 -4.76418 -3.84308 0
M  V30 4421 N 398.709 -4.8876 -5.04042 0
M  V30 4422 H 403.549 -2.77314 -1.09091 0
M  V30 4423 H 401.086 -1.37315 -0.52753 0
M  V30 4424 H 403.044 -2.24786 -3.51464 0
M  V30 4425 H 401.674 -1.2392 -2.98066 0
M  V30 4426 H 400.726 -3.35139 -1.79962 0
M  V30 4427 H 402.038 -4.28646 -2.55076 0
M  V30 4428 H 401.192 -3.67653 -4.82614 0
M  V30 4429 H 399.931 -2.64002 -4.10066 0
M  V30 4430 H 398.936 -4.63827 -2.95202 0
M  V30 4431 H 400.161 -5.68863 -3.70906 0
M  V30 4432 H 398.107 -4.00652 -5.19436 0
M  V30 4433 H 398.024 -5.71945 -4.94384 0
M  V30 4434 H 399.292 -5.0574 -5.93167 0
M  V30 4435 N 403.521 0.559213 -1.47345 0
M  V30 4436 C 404.798 1.31997 -1.44348 0
M  V30 4437 C 405.178 2.1064 -0.139358 0
M  V30 4438 O 404.526 2.1091 0.879153 0
M  V30 4439 C 404.736 2.22618 -2.68779 0
M  V30 4440 C 406.084 2.83701 -3.1591 0
M  V30 4441 O 407.108 2.32921 -2.69493 0
M  V30 4442 O 405.967 3.75993 -3.966 0
M  V30 4443 H 403.061 0.594251 -0.575147 0
M  V30 4444 H 405.607 0.578282 -1.59543 0
M  V30 4445 H 404.379 1.64093 -3.55231 0
M  V30 4446 H 404.002 3.04085 -2.5616 0
M  V30 4447 N 404.999 1.35443 0.805782 0
M  V30 4448 C 406.245 1.28952 1.56522 0
M  V30 4449 C 406.578 -0.135597 1.93726 0
M  V30 4450 O 405.853 -1.08516 1.61414 0
M  V30 4451 C 406.136 2.19678 2.85331 0
M  V30 4452 C 405.989 3.7081 2.54598 0
M  V30 4453 C 407.308 2.09495 3.8704 0
M  V30 4454 H 404.427 0.469764 0.567883 0
M  V30 4455 H 407.069 1.65851 0.927001 0
M  V30 4456 H 405.219 1.8834 3.39795 0
M  V30 4457 H 406.891 4.12593 2.06312 0
M  V30 4458 H 405.134 3.91051 1.8778 0
M  V30 4459 H 405.805 4.29679 3.46525 0
M  V30 4460 H 408.281 2.37045 3.41978 0
M  V30 4461 H 407.157 2.75173 4.74943 0
M  V30 4462 H 407.418 1.07714 4.28777 0
M  V30 4463 N 406.477 -1.02803 1.19454 0
M  V30 4464 C 407.702 -1.80378 1.02364 0
M  V30 4465 C 408.127 -1.83282 -0.423007 0
M  V30 4466 O 407.485 -1.25945 -1.30413 0
M  V30 4467 C 407.533 -3.23248 1.59821 0
M  V30 4468 O 406.637 -4.04 0.828105 0
M  V30 4469 H 405.978 -0.556799 0.361761 0
M  V30 4470 H 408.508 -1.29385 1.58495 0
M  V30 4471 H 408.518 -3.73994 1.63073 0
M  V30 4472 H 407.193 -3.2045 2.65113 0
M  V30 4473 H 405.77 -3.62635 0.86891 0
M  V30 4474 N 407.956 -0.998596 -1.21925 0
M  V30 4475 C 409.184 -0.696286 -1.94832 0
M  V30 4476 C 409.599 0.740032 -1.73692 0
M  V30 4477 O 408.956 1.5 -1.03953 0
M  V30 4478 C 409.007 -0.999833 -3.47398 0
M  V30 4479 O 408.728 -2.37972 -3.67833 0
M  V30 4480 C 410.229 -0.716025 -4.37479 0
M  V30 4481 H 407.449 -0.257111 -0.619786 0
M  V30 4482 H 409.993 -1.33491 -1.54921 0
M  V30 4483 H 408.148 -0.406918 -3.85257 0
M  V30 4484 H 408.562 -2.48338 -4.61983 0
M  V30 4485 H 410.036 -0.978642 -5.43256 0
M  V30 4486 H 410.513 0.349968 -4.37803 0
M  V30 4487 H 411.119 -1.29025 -4.05256 0
M  V30 4488 N 409.434 1.37368 -0.772513 0
M  V30 4489 C 410.68 1.99969 -0.337681 0
M  V30 4490 C 411.013 1.61184 1.08321 0
M  V30 4491 O 410.288 0.858395 1.74533 0
M  V30 4492 C 410.571 3.56858 -0.482121 0
M  V30 4493 C 410.424 4.0555 -1.94549 0
M  V30 4494 C 411.743 4.39955 0.113143 0
M  V30 4495 H 408.862 0.726464 -0.124171 0
M  V30 4496 H 411.504 1.63034 -0.975699 0
M  V30 4497 H 409.654 3.88452 0.0610361 0
M  V30 4498 H 411.326 3.84518 -2.54841 0
M  V30 4499 H 409.569 3.57715 -2.45403 0
M  V30 4500 H 410.24 5.14587 -1.9976 0
M  V30 4501 H 412.716 4.14623 -0.35031 0
M  V30 4502 H 411.592 5.48897 -0.0180514 0
M  V30 4503 H 411.853 4.25403 1.20354 0
M  V30 4504 N 410.912 0.523116 1.48665 0
M  V30 4505 C 411.842 -0.23231 2.32342 0
M  V30 4506 C 412.823 -0.941637 1.41659 0
M  V30 4507 O 414.008 -0.928751 1.70552 0
M  V30 4508 C 411.138 -1.28387 3.22698 0
M  V30 4509 C 410.092 -0.693098 4.22351 0
M  V30 4510 C 409.418 -1.8468 5.01794 0
M  V30 4511 C 410.718 0.33063 5.21252 0
M  V30 4512 H 412.412 0.466192 2.95748 0
M  V30 4513 H 409.958 0.225643 1.42221 0
M  V30 4514 H 411.911 -1.82024 3.80059 0
M  V30 4515 H 410.635 -2.01186 2.57278 0
M  V30 4516 H 409.294 -0.178299 3.66166 0
M  V30 4517 H 408.942 -2.56301 4.32804 0
M  V30 4518 H 408.642 -1.45747 5.69238 0
M  V30 4519 H 410.166 -2.38709 5.62006 0
M  V30 4520 H 411.58 -0.118407 5.73178 0
M  V30 4521 H 409.977 0.636974 5.9671 0
M  V30 4522 H 411.047 1.23883 4.68808 0
M  V30 4523 N 412.39 -1.55475 0.257931 0
M  V30 4524 C 413.615 -2.04064 -0.370488 0
M  V30 4525 C 414.04 -1.13565 -1.49948 0
M  V30 4526 O 413.398 -0.130781 -1.80828 0
M  V30 4527 C 413.446 -3.50554 -0.845237 0
M  V30 4528 O 412.55 -3.63173 -1.95394 0
M  V30 4529 H 411.891 -0.659257 -0.0792243 0
M  V30 4530 H 414.421 -2.00903 0.387212 0
M  V30 4531 H 414.431 -3.91588 -1.14555 0
M  V30 4532 H 413.106 -4.15896 -0.0191259 0
M  V30 4533 H 411.683 -3.34039 -1.65748 0
M  V30 4534 N 413.868 0.0150385 -1.57593 0
M  V30 4535 C 414.798 1.01047 -2.10503 0
M  V30 4536 C 415.779 1.36816 -1.01071 0
M  V30 4537 O 416.964 1.45455 -1.28672 0
M  V30 4538 C 414.094 2.30708 -2.59598 0
M  V30 4539 C 413.048 2.09142 -3.73421 0
M  V30 4540 C 412.374 3.44685 -4.08774 0
M  V30 4541 C 413.674 1.46619 -5.01298 0
M  V30 4542 H 415.368 0.569978 -2.93925 0
M  V30 4543 H 412.914 0.272724 -1.41394 0
M  V30 4544 H 414.867 3.00687 -2.95238 0
M  V30 4545 H 413.591 2.76843 -1.73279 0
M  V30 4546 H 412.25 1.41592 -3.38153 0
M  V30 4547 H 411.898 3.88495 -3.195 0
M  V30 4548 H 411.598 3.31077 -4.8545 0
M  V30 4549 H 413.122 4.16004 -4.4696 0
M  V30 4550 H 414.536 2.06535 -5.34805 0
M  V30 4551 H 412.933 1.43544 -5.82679 0
M  V30 4552 H 414.003 0.433611 -4.82957 0
M  V30 4553 N 415.346 1.54954 0.287554 0
M  V30 4554 C 416.276 1.89839 1.35954 0
M  V30 4555 C 417.257 0.758675 1.52244 0
M  V30 4556 O 418.442 1.01557 1.65529 0
M  V30 4557 C 415.572 2.15753 2.72154 0
M  V30 4558 C 414.526 3.3159 2.70614 0
M  V30 4559 C 413.852 3.42952 4.10229 0
M  V30 4560 C 415.152 4.68359 2.31165 0
M  V30 4561 H 416.846 2.79625 1.07007 0
M  V30 4562 H 414.392 1.3454 0.513316 0
M  V30 4563 H 416.345 2.38743 3.47246 0
M  V30 4564 H 415.069 1.22752 3.02654 0
M  V30 4565 H 413.728 3.08545 1.97979 0
M  V30 4566 H 413.376 2.47443 4.37928 0
M  V30 4567 H 413.076 4.20826 4.10097 0
M  V30 4568 H 414.6 3.68218 4.87081 0
M  V30 4569 H 416.014 4.9099 2.95976 0
M  V30 4570 H 414.411 5.49044 2.42221 0
M  V30 4571 H 415.481 4.68165 1.26291 0
M  V30 4572 N 416.824 -0.551391 1.4764 0
M  V30 4573 C 418.054 -1.33163 1.57959 0
M  V30 4574 C 418.462 -1.87785 0.23094 0
M  V30 4575 O 417.805 -1.65996 -0.786825 0
M  V30 4576 C 417.867 -2.53449 2.54958 0
M  V30 4577 C 417.531 -2.20071 4.00522 0
M  V30 4578 C 418.528 -1.77017 4.88836 0
M  V30 4579 C 416.213 -2.31252 4.45901 0
M  V30 4580 C 418.207 -1.4558 6.20552 0
M  V30 4581 C 415.894 -1.99427 5.77644 0
M  V30 4582 C 416.892 -1.56659 6.64791 0
M  V30 4583 O 416.58 -1.25242 7.94084 0
M  V30 4584 H 416.312 -0.412022 0.535923 0
M  V30 4585 H 418.866 -0.674186 1.9402 0
M  V30 4586 H 417.096 -3.22104 2.13976 0
M  V30 4587 H 418.785 -3.15523 2.55343 0
M  V30 4588 H 419.551 -1.67867 4.55023 0
M  V30 4589 H 415.43 -2.63498 3.78272 0
M  V30 4590 H 418.974 -1.12125 6.8853 0
M  V30 4591 H 414.871 -2.08211 6.10998 0
M  V30 4592 H 415.639 -1.38822 8.06642 0
M  V30 4593 N 418.302 -1.35869 -0.798587 0
M  V30 4594 C 419.249 -1.29446 -1.91082 0
M  V30 4595 C 420.219 -0.16487 -1.6528 0
M  V30 4596 O 421.404 -0.349888 -1.87564 0
M  V30 4597 C 418.544 -1.0804 -3.27752 0
M  V30 4598 C 417.657 -2.29993 -3.65687 0
M  V30 4599 C 416.792 -2.01673 -4.91428 0
M  V30 4600 C 415.831 -3.19636 -5.22015 0
M  V30 4601 N 414.968 -2.91039 -6.38937 0
M  V30 4602 H 419.808 -2.24553 -1.95907 0
M  V30 4603 H 417.345 -1.11615 -0.958148 0
M  V30 4604 H 419.303 -0.936586 -4.06551 0
M  V30 4605 H 417.933 -0.16592 -3.22373 0
M  V30 4606 H 416.985 -2.55211 -2.82085 0
M  V30 4607 H 418.297 -3.18052 -3.84245 0
M  V30 4608 H 417.451 -1.84168 -5.78072 0
M  V30 4609 H 416.19 -1.10911 -4.74921 0
M  V30 4610 H 415.195 -3.37709 -4.33858 0
M  V30 4611 H 416.42 -4.11211 -5.40447 0
M  V30 4612 H 414.366 -2.0288 -6.2384 0
M  V30 4613 H 414.283 -3.72635 -6.57784 0
M  V30 4614 H 415.551 -2.77093 -7.28587 0
M  V30 4615 N 419.78 1.02168 -1.19998 0
M  V30 4616 C 421.01 1.79036 -1.031 0
M  V30 4617 C 421.418 1.84409 0.423078 0
M  V30 4618 O 420.761 1.29228 1.30559 0
M  V30 4619 C 420.823 3.25185 -1.53281 0
M  V30 4620 C 420.487 3.43431 -3.01503 0
M  V30 4621 C 421.484 3.33063 -3.99206 0
M  V30 4622 C 419.169 3.69412 -3.40353 0
M  V30 4623 C 421.163 3.48413 -5.33748 0
M  V30 4624 C 418.85 3.84406 -4.75053 0
M  V30 4625 C 419.848 3.7391 -5.71559 0
M  V30 4626 O 419.536 3.88452 -7.03818 0
M  V30 4627 H 419.268 0.570043 -0.363355 0
M  V30 4628 H 421.822 1.29524 -1.59414 0
M  V30 4629 H 420.052 3.75756 -0.913483 0
M  V30 4630 H 421.741 3.83671 -1.32481 0
M  V30 4631 H 422.507 3.12934 -3.70537 0
M  V30 4632 H 418.386 3.76671 -2.65782 0
M  V30 4633 H 421.93 3.40137 -6.09059 0
M  V30 4634 H 417.827 4.04035 -5.03415 0
M  V30 4635 H 418.595 4.055 -7.10993 0
M  V30 4636 N 421.258 1.00505 1.21394 0
M  V30 4637 C 422.19 0.52372 2.23136 0
M  V30 4638 C 423.203 -0.387714 1.58116 0
M  V30 4639 O 424.392 -0.187905 1.77508 0
M  V30 4640 C 421.492 -0.258885 3.3791 0
M  V30 4641 C 420.665 0.651634 4.32519 0
M  V30 4642 C 419.724 -0.0813705 5.26137 0
M  V30 4643 O 418.75 0.537295 5.66658 0
M  V30 4644 N 419.952 -1.35992 5.64346 0
M  V30 4645 H 422.717 1.39865 2.65062 0
M  V30 4646 H 420.278 0.881196 1.35818 0
M  V30 4647 H 422.27 -0.758208 3.97534 0
M  V30 4648 H 420.84 -1.035 2.94968 0
M  V30 4649 H 420.06 1.33145 3.71034 0
M  V30 4650 H 421.348 1.27129 4.92662 0
M  V30 4651 H 420.746 -1.88368 5.33417 0
M  V30 4652 H 419.303 -1.8042 6.26332 0
M  V30 4653 N 422.737 -1.36956 0.779787 0
M  V30 4654 C 423.647 -2.33965 0.172491 0
M  V30 4655 C 424.663 -1.60574 -0.670222 0
M  V30 4656 O 425.839 -1.92617 -0.588263 0
M  V30 4657 C 422.904 -3.39761 -0.690173 0
M  V30 4658 C 421.965 -4.28964 0.169924 0
M  V30 4659 C 421.198 -5.29707 -0.651662 0
M  V30 4660 O 421.421 -5.38238 -1.88827 0
M  V30 4661 O 420.355 -6.01873 -0.0566264 0
M  V30 4662 H 424.181 -2.87647 0.974321 0
M  V30 4663 H 421.766 -1.39258 0.541078 0
M  V30 4664 H 423.648 -4.04471 -1.1824 0
M  V30 4665 H 422.323 -2.88394 -1.47006 0
M  V30 4666 H 421.23 -3.67326 0.708696 0
M  V30 4667 H 422.563 -4.83656 0.913085 0
M  V30 4668 N 424.215 -0.530993 -1.48385 0
M  V30 4669 C 425.631 -0.188919 -1.58478 0
M  V30 4670 C 425.831 1.30786 -1.53288 0
M  V30 4671 O 424.887 2.08619 -1.42248 0
M  V30 4672 C 426.2 -0.792343 -2.90073 0
M  V30 4673 C 427.748 -0.76117 -3.03604 0
M  V30 4674 C 428.223 -1.34319 -4.37861 0
M  V30 4675 N 429.714 -1.3052 -4.44431 0
M  V30 4676 C 430.449 -1.72543 -5.46824 0
M  V30 4677 N 429.945 -2.22299 -6.56167 0
M  V30 4678 N 431.738 -1.63773 -5.37712 0
M  V30 4679 H 423.889 -1.50377 -1.50002 0
M  V30 4680 H 426.152 -0.625559 -0.712306 0
M  V30 4681 H 425.858 -1.84323 -2.99529 0
M  V30 4682 H 425.732 -0.270026 -3.76232 0
M  V30 4683 H 428.119 0.280957 -2.93759 0
M  V30 4684 H 428.2 -1.32097 -2.19053 0
M  V30 4685 H 427.844 -2.38425 -4.4846 0
M  V30 4686 H 427.774 -0.759064 -5.21101 0
M  V30 4687 H 430.265 -0.940973 -3.65997 0
M  V30 4688 H 430.578 -2.52356 -7.30436 0
M  V30 4689 H 428.923 -2.26293 -6.57127 0
M  V30 4690 H 432.114 -1.24698 -4.51185 0
M  V30 4691 H 432.287 -1.96844 -6.17379 0
M  V30 4692 N 425.693 1.55336 -0.266172 0
M  V30 4693 C 426.94 1.99397 0.353158 0
M  V30 4694 C 427.268 1.15451 1.56529 0
M  V30 4695 O 426.523 0.209974 1.9457 0
M  V30 4696 C 426.822 3.48606 0.787957 0
M  V30 4697 C 426.488 4.49773 -0.318541 0
M  V30 4698 C 425.15 4.77158 -0.62239 0
M  V30 4699 C 427.502 5.10212 -1.06459 0
M  V30 4700 C 424.83 5.62251 -1.67602 0
M  V30 4701 C 427.182 5.96449 -2.10788 0
M  V30 4702 C 425.846 6.22158 -2.41817 0
M  V30 4703 H 425.116 0.729644 0.12923 0
M  V30 4704 H 427.763 1.87732 -0.37802 0
M  V30 4705 H 426.068 3.57701 1.59866 0
M  V30 4706 H 427.765 3.80098 1.27775 0
M  V30 4707 H 424.355 4.2854 -0.0715925 0
M  V30 4708 H 428.539 4.89086 -0.843098 0
M  V30 4709 H 423.795 5.80419 -1.92155 0
M  V30 4710 H 427.969 6.42317 -2.69076 0
M  V30 4711 H 425.596 6.87888 -3.23596 0
M  V30 4712 N 427.171 -0.0066808 1.57599 0
M  V30 4713 C 428.448 -0.729586 1.81484 0
M  V30 4714 C 428.828 -1.92359 0.869558 0
M  V30 4715 O 428.176 -2.28348 -0.0832533 0
M  V30 4716 C 428.386 -1.1416 3.29801 0
M  V30 4717 C 429.734 -1.54823 3.95367 0
M  V30 4718 O 430.758 -1.23558 3.34084 0
M  V30 4719 O 429.617 -2.12937 5.03309 0
M  V30 4720 H 426.711 -0.354674 0.747085 0
M  V30 4721 H 429.257 0.0182609 1.6969 0
M  V30 4722 H 428.029 -0.290231 3.90222 0
M  V30 4723 H 427.652 -1.94876 3.46568 0
M  V30 4724 N 428.649 -1.55105 -0.279332 0
M  V30 4725 C 429.898 -1.74618 -1.00952 0
M  V30 4726 C 430.211 -0.551096 -1.87676 0
M  V30 4727 O 431.417 -0.628507 -2.64125 0
M  V30 4728 C 429.873 -3.09025 -1.84476 0
M  V30 4729 C 429.481 -4.36081 -1.0265 0
M  V30 4730 C 431.225 -3.37891 -2.56963 0
M  V30 4731 C 429.132 -5.6153 -1.85576 0
M  V30 4732 H 428.062 -0.650868 -0.38064 0
M  V30 4733 H 430.713 -1.81569 -0.265475 0
M  V30 4734 H 429.095 -2.96095 -2.62952 0
M  V30 4735 H 430.269 -4.59909 -0.286354 0
M  V30 4736 H 428.584 -4.14312 -0.416464 0
M  V30 4737 H 431.181 -4.28822 -3.19399 0
M  V30 4738 H 431.524 -2.57737 -3.26921 0
M  V30 4739 H 432.057 -3.5189 -1.85522 0
M  V30 4740 H 428.796 -6.44413 -1.2005 0
M  V30 4741 H 428.316 -5.41854 -2.57204 0
M  V30 4742 H 429.995 -5.99594 -2.43096 0
M  V30 4743 N 430.127 0.543554 -1.4793 0
M  V30 4744 C 431.373 1.30201 -1.55485 0
M  V30 4745 C 431.706 1.92925 -0.222201 0
M  V30 4746 O 430.981 1.78586 0.77053 0
M  V30 4747 C 431.264 2.40174 -2.68307 0
M  V30 4748 C 431.117 1.8223 -4.11233 0
M  V30 4749 C 432.436 3.42024 -2.76961 0
M  V30 4750 H 429.555 0.472036 -0.565996 0
M  V30 4751 H 432.197 0.606914 -1.80046 0
M  V30 4752 H 430.347 2.99463 -2.47495 0
M  V30 4753 H 432.019 1.27096 -4.43446 0
M  V30 4754 H 430.262 1.12832 -4.18869 0
M  V30 4755 H 430.933 2.61793 -4.85972 0
M  V30 4756 H 433.409 2.92672 -2.95774 0
M  V30 4757 H 432.285 4.16383 -3.57654 0
M  V30 4758 H 432.546 4.0173 -1.84568 0
M  V30 4759 N 431.605 1.3629 0.791371 0
M  V30 4760 C 432.537 1.26321 1.91248 0
M  V30 4761 C 433.55 0.18313 1.61767 0
M  V30 4762 O 434.739 0.437682 1.73051 0
M  V30 4763 C 431.839 0.925901 3.26007 0
M  V30 4764 C 431.012 2.10746 3.83281 0
M  V30 4765 C 430.071 1.74352 4.96475 0
M  V30 4766 O 429.097 2.46416 5.13096 0
M  V30 4767 N 430.299 0.676058 5.7655 0
M  V30 4768 H 433.064 2.22915 2.00323 0
M  V30 4769 H 430.625 1.29659 0.969546 0
M  V30 4770 H 432.617 0.663636 3.99222 0
M  V30 4771 H 431.187 0.0491581 3.12561 0
M  V30 4772 H 430.407 2.53264 3.02077 0
M  V30 4773 H 431.695 2.8969 4.18279 0
M  V30 4774 H 431.093 0.0776467 5.65647 0
M  V30 4775 H 429.65 0.473612 6.50077 0
M  V30 4776 N 433.083 -1.0153 1.20538 0
M  V30 4777 C 434.013 -2.11972 0.979295 0
M  V30 4778 C 434.994 -1.6985 -0.0921787 0
M  V30 4779 O 436.179 -1.94089 0.0655932 0
M  V30 4780 C 433.309 -3.43201 0.531984 0
M  V30 4781 C 432.263 -3.9907 1.54685 0
M  V30 4782 C 431.589 -5.26082 0.956127 0
M  V30 4783 C 432.889 -4.32313 2.93092 0
M  V30 4784 H 434.583 -2.31143 1.90298 0
M  V30 4785 H 432.129 -1.11079 0.916372 0
M  V30 4786 H 434.082 -4.1985 0.361044 0
M  V30 4787 H 432.806 -3.23792 -0.427327 0
M  V30 4788 H 431.465 -3.2453 1.70517 0
M  V30 4789 H 431.113 -5.02999 -0.0111538 0
M  V30 4790 H 430.813 -5.64426 1.63393 0
M  V30 4791 H 432.337 -6.05386 0.796284 0
M  V30 4792 H 433.751 -4.99845 2.80763 0
M  V30 4793 H 432.148 -4.81774 3.57791 0
M  V30 4794 H 433.218 -3.41025 3.44717 0
M  V30 4795 N 434.561 -1.01147 -1.20859 0
M  V30 4796 C 435.808 -0.697865 -1.90095 0
M  V30 4797 C 436.136 0.772014 -1.78522 0
M  V30 4798 O 435.391 1.57595 -1.16027 0
M  V30 4799 C 435.69 -1.0727 -3.40922 0
M  V30 4800 C 435.356 -2.53792 -3.72693 0
M  V30 4801 C 434.018 -2.93829 -3.81075 0
M  V30 4802 C 436.37 -3.48674 -3.87397 0
M  V30 4803 C 433.698 -4.27696 -4.01613 0
M  V30 4804 C 436.05 -4.82223 -4.09444 0
M  V30 4805 C 434.714 -5.21973 -4.16054 0
M  V30 4806 H 433.984 -0.255367 -0.695607 0
M  V30 4807 H 436.631 -1.27111 -1.43231 0
M  V30 4808 H 434.936 -0.417799 -3.89566 0
M  V30 4809 H 436.633 -0.807818 -3.92779 0
M  V30 4810 H 433.223 -2.21768 -3.66765 0
M  V30 4811 H 437.407 -3.18904 -3.80281 0
M  V30 4812 H 432.663 -4.58055 -4.04964 0
M  V30 4813 H 436.837 -5.55672 -4.19763 0
M  V30 4814 H 434.464 -6.25717 -4.31721 0
M  V30 4815 N 436.039 1.36541 -0.78704 0
M  V30 4816 C 437.267 2.03561 -0.370199 0
M  V30 4817 C 437.682 1.59347 1.01263 0
M  V30 4818 O 437.039 0.781781 1.64907 0
M  V30 4819 C 437.09 3.59033 -0.421614 0
M  V30 4820 O 436.811 4.01634 -1.7499 0
M  V30 4821 C 438.312 4.433 0.00489763 0
M  V30 4822 H 435.532 0.653346 -0.152904 0
M  V30 4823 H 438.076 1.74566 -1.06522 0
M  V30 4824 H 436.231 3.86746 0.224971 0
M  V30 4825 H 436.645 4.96217 -1.69909 0
M  V30 4826 H 438.119 5.51939 -0.0822184 0
M  V30 4827 H 438.596 4.26285 1.05723 0
M  V30 4828 H 439.202 4.20843 -0.614085 0
M  V30 4829 N 437.518 0.538854 1.48102 0
M  V30 4830 C 438.428 -0.222648 2.33541 0
M  V30 4831 C 439.444 -0.930225 1.47047 0
M  V30 4832 O 440.62 -0.903211 1.80011 0
M  V30 4833 C 437.685 -1.25064 3.23357 0
M  V30 4834 C 436.746 -0.552469 4.2573 0
M  V30 4835 C 435.979 -1.53149 5.11254 0
M  V30 4836 O 436.202 -2.76487 4.9891 0
M  V30 4837 O 435.136 -1.06602 5.92385 0
M  V30 4838 H 438.962 0.477707 2.99919 0
M  V30 4839 H 436.547 0.299669 1.46364 0
M  V30 4840 H 438.429 -1.8445 3.78888 0
M  V30 4841 H 437.104 -1.93325 2.59629 0
M  V30 4842 H 436.011 0.082114 3.7401 0
M  V30 4843 H 437.344 0.0883526 4.92121 0
M  V30 4844 N 438.996 -1.55193 0.274407 0
M  V30 4845 C 439.906 -2.26164 -0.623473 0
M  V30 4846 C 440.922 -1.28729 -1.17068 0
M  V30 4847 O 442.098 -1.61663 -1.20112 0
M  V30 4848 C 439.163 -2.96833 -1.7914 0
M  V30 4849 C 438.224 -4.09745 -1.28093 0
M  V30 4850 C 437.457 -4.77034 -2.3932 0
M  V30 4851 O 437.68 -4.4353 -3.5866 0
M  V30 4852 O 436.614 -5.64996 -2.07516 0
M  V30 4853 H 440.44 -3.03661 -0.0485661 0
M  V30 4854 H 438.025 -1.49341 0.0418382 0
M  V30 4855 H 439.907 -3.41248 -2.4724 0
M  V30 4856 H 438.582 -2.22253 -2.35341 0
M  V30 4857 H 437.489 -3.69787 -0.566416 0
M  V30 4858 H 438.822 -4.86224 -0.764683 0
M  V30 4859 N 440.474 -0.00167713 -1.576 0
M  V30 4860 C 441.384 1.00548 -2.1196 0
M  V30 4861 C 442.4 1.3758 -1.06526 0
M  V30 4862 O 443.576 1.46278 -1.38436 0
M  V30 4863 C 440.641 2.27809 -2.6135 0
M  V30 4864 C 439.702 1.97074 -3.81393 0
M  V30 4865 C 438.935 3.18267 -4.28417 0
M  V30 4866 O 439.158 4.30009 -3.74765 0
M  V30 4867 O 438.092 3.02167 -5.20556 0
M  V30 4868 H 441.918 0.573373 -2.98238 0
M  V30 4869 H 439.503 0.217255 -1.47812 0
M  V30 4870 H 441.385 3.02568 -2.93309 0
M  V30 4871 H 440.06 2.70254 -1.78169 0
M  V30 4872 H 438.967 1.19785 -3.54404 0
M  V30 4873 H 440.3 1.59464 -4.65652 0
M  V30 4874 N 441.952 1.55251 0.271103 0
M  V30 4875 C 443.199 1.75946 1.00245 0
M  V30 4876 C 443.527 0.561611 1.86215 0
M  V30 4877 O 442.782 -0.455832 1.90317 0
M  V30 4878 C 443.081 3.01879 1.91321 0
M  V30 4879 C 442.747 4.34337 1.21086 0
M  V30 4880 C 441.409 4.70338 1.01666 0
M  V30 4881 C 443.761 5.16325 0.71119 0
M  V30 4882 C 441.089 5.8588 0.310099 0
M  V30 4883 C 443.441 6.32597 0.0182157 0
M  V30 4884 C 442.105 6.67236 -0.18768 0
M  V30 4885 H 441.375 0.643833 0.366824 0
M  V30 4886 H 444.022 1.89521 0.27458 0
M  V30 4887 H 442.327 2.83212 2.70736 0
M  V30 4888 H 444.024 3.15088 2.48033 0
M  V30 4889 H 440.614 4.06043 1.37213 0
M  V30 4890 H 444.798 4.88987 0.848844 0
M  V30 4891 H 440.054 6.1124 0.139873 0
M  V30 4892 H 444.228 6.9538 -0.376711 0
M  V30 4893 H 441.855 7.56618 -0.73715 0
M  V30 4894 N 443.43 -0.535701 1.48216 0
M  V30 4895 C 444.377 -1.64083 1.62312 0
M  V30 4896 C 445.347 -1.59448 0.465365 0
M  V30 4897 O 446.532 -1.77959 0.688135 0
M  V30 4898 C 443.672 -3.0236 1.66349 0
M  V30 4899 C 442.785 -3.17273 2.93193 0
M  V30 4900 C 441.92 -4.46075 2.88427 0
M  V30 4901 C 440.959 -4.54496 4.1 0
M  V30 4902 N 440.096 -5.7468 4.03345 0
M  V30 4903 H 444.936 -1.51374 2.5669 0
M  V30 4904 H 442.473 -0.737059 1.27302 0
M  V30 4905 H 444.431 -3.82461 1.66672 0
M  V30 4906 H 443.061 -3.13854 0.754672 0
M  V30 4907 H 442.113 -2.30462 3.02641 0
M  V30 4908 H 443.425 -3.19357 3.83162 0
M  V30 4909 H 442.579 -5.3446 2.87119 0
M  V30 4910 H 441.318 -4.46504 1.96177 0
M  V30 4911 H 440.323 -3.64519 4.11589 0
M  V30 4912 H 441.548 -4.5581 5.03402 0
M  V30 4913 H 439.494 -5.76017 3.13912 0
M  V30 4914 H 439.411 -5.78234 4.87013 0
M  V30 4915 H 440.679 -6.65367 4.06087 0
M  V30 4916 N 444.908 -1.36708 -0.784132 0
M  V30 4917 C 445.858 -1.2799 -1.88686 0
M  V30 4918 C 446.842 -0.170282 -1.59996 0
M  V30 4919 O 448.034 -0.403571 -1.72338 0
M  V30 4920 C 445.163 -1.07674 -3.25977 0
M  V30 4921 C 444.249 -2.23127 -3.60659 0
M  V30 4922 N 444.64 -3.48467 -3.66612 0
M  V30 4923 C 442.938 -2.15009 -3.90752 0
M  V30 4924 C 443.639 -4.24525 -3.97685 0
M  V30 4925 N 442.615 -3.53524 -4.12943 0
M  V30 4926 H 446.417 -2.22927 -1.91522 0
M  V30 4927 H 443.931 -1.29503 -0.979933 0
M  V30 4928 H 445.928 -0.995151 -4.04849 0
M  V30 4929 H 444.588 -0.13643 -3.24413 0
M  V30 4930 H 445.599 -3.82534 -3.49125 0
M  V30 4931 H 442.276 -1.28963 -3.97083 0
M  V30 4932 H 443.666 -5.32944 -4.0917 0
M  V30 4933 N 446.386 1.0089 -1.21074 0
M  V30 4934 C 447.632 1.7497 -1.03717 0
M  V30 4935 C 447.987 1.8764 0.425344 0
M  V30 4936 O 447.28 1.39679 1.3115 0
M  V30 4937 C 447.474 3.16335 -1.66334 0
M  V30 4938 C 447.303 3.17449 -3.18522 0
M  V30 4939 C 446.073 3.2425 -3.87543 0
M  V30 4940 C 448.271 3.02877 -4.15656 0
M  V30 4941 N 446.253 3.14949 -5.26954 0
M  V30 4942 C 447.624 3.0143 -5.41793 0
M  V30 4943 C 449.679 2.8715 -4.06755 0
M  V30 4944 C 448.382 2.85869 -6.60054 0
M  V30 4945 C 450.408 2.72944 -5.24648 0
M  V30 4946 C 449.77 2.72171 -6.49694 0
M  V30 4947 H 445.869 0.650627 -0.43383 0
M  V30 4948 H 448.453 1.19944 -1.53367 0
M  V30 4949 H 446.624 3.69638 -1.19256 0
M  V30 4950 H 448.356 3.78888 -1.42219 0
M  V30 4951 H 445.111 3.31288 -3.38446 0
M  V30 4952 H 445.535 3.13651 -5.9996 0
M  V30 4953 H 450.177 2.86557 -3.10878 0
M  V30 4954 H 447.895 2.8521 -7.56096 0
M  V30 4955 H 451.481 2.61782 -5.19578 0
M  V30 4956 H 450.361 2.61307 -7.39384 0
M  V30 4957 N 447.864 1.01787 1.20321 0
M  V30 4958 C 448.797 0.533882 2.21867 0
M  V30 4959 C 449.775 -0.419361 1.57099 0
M  V30 4960 O 450.959 -0.339062 1.85426 0
M  V30 4961 C 448.086 -0.222899 3.37966 0
M  V30 4962 C 447.132 0.680091 4.21043 0
M  V30 4963 S 447.965 2.14997 4.90445 0
M  V30 4964 C 449.121 1.40339 6.09964 0
M  V30 4965 H 449.354 1.39429 2.62577 0
M  V30 4966 H 446.887 0.826867 1.30393 0
M  V30 4967 H 448.845 -0.653425 4.05266 0
M  V30 4968 H 447.506 -1.0589 2.95713 0
M  V30 4969 H 446.699 0.0964704 5.03908 0
M  V30 4970 H 446.301 1.04845 3.59004 0
M  V30 4971 H 448.593 0.68407 6.74038 0
M  V30 4972 H 449.536 2.20823 6.72787 0
M  V30 4973 H 449.944 0.905716 5.57187 0
M  V30 4974 N 449.342 -1.36122 0.79427 0
M  V30 4975 C 450.272 -2.32551 0.210328 0
M  V30 4976 C 451.253 -1.56884 -0.657386 0
M  V30 4977 O 452.438 -1.85014 -0.590207 0
M  V30 4978 C 449.568 -3.41128 -0.651819 0
M  V30 4979 C 448.522 -4.27842 0.116395 0
M  V30 4980 C 447.848 -5.2763 -0.86666 0
M  V30 4981 C 449.148 -5.05647 1.30837 0
M  V30 4982 H 450.842 -2.81636 1.01594 0
M  V30 4983 H 448.388 -1.35407 0.489981 0
M  V30 4984 H 450.341 -4.07581 -1.07031 0
M  V30 4985 H 449.065 -2.90622 -1.49019 0
M  V30 4986 H 447.724 -3.62952 0.515915 0
M  V30 4987 H 447.372 -4.73395 -1.70019 0
M  V30 4988 H 447.072 -5.86514 -0.35705 0
M  V30 4989 H 448.596 -5.96955 -1.28361 0
M  V30 4990 H 450.01 -5.65113 0.965393 0
M  V30 4991 H 448.407 -5.73967 1.75161 0
M  V30 4992 H 449.477 -4.37006 2.10128 0
M  V30 4993 N 450.82 -0.546701 -1.47814 0
M  V30 4994 C 452.068 -0.0187037 -2.02091 0
M  V30 4995 C 452.389 1.33168 -1.42447 0
M  V30 4996 O 451.659 1.86619 -0.595839 0
M  V30 4997 H 450.239 -0.00392531 -0.74699 0
M  V30 4998 H 452.901 -0.714327 -1.81338 0
M  V30 4999 H 451.997 0.0772219 -3.12004 0
M  V30 5000 N 452.299 1.55045 -0.282633 0
M  V30 5001 C 453.249 2.19514 0.616249 0
M  V30 5002 C 454.233 1.16216 1.11277 0
M  V30 5003 O 455.425 1.42004 1.05659 0
M  V30 5004 C 452.554 2.92548 1.7964 0
M  V30 5005 C 451.64 4.03142 1.31671 0
M  V30 5006 N 452.031 5.0276 0.553695 0
M  V30 5007 C 450.329 4.1635 1.59903 0
M  V30 5008 C 451.03 5.80923 0.30054 0
M  V30 5009 N 450.006 5.3651 0.875116 0
M  V30 5010 H 453.808 2.93889 0.0255363 0
M  V30 5011 H 451.322 1.62169 -0.0865362 0
M  V30 5012 H 453.319 3.37188 2.45173 0
M  V30 5013 H 451.979 2.19685 2.39099 0
M  V30 5014 H 452.99 5.17512 0.20032 0
M  V30 5015 H 449.667 3.54682 2.20243 0
M  V30 5016 H 451.057 6.7118 -0.311053 0
M  V30 5017 N 453.777 0.010035 1.57597 0
M  V30 5018 C 455.054 -0.710296 1.82248 0
M  V30 5019 C 455.434 -1.91426 0.889911 0
M  V30 5020 O 454.782 -2.28424 -0.0590292 0
M  V30 5021 C 454.992 -1.10655 3.30993 0
M  V30 5022 C 456.34 -1.50621 3.96987 0
M  V30 5023 O 457.364 -1.20007 3.35375 0
M  V30 5024 O 456.223 -2.07587 5.05539 0
M  V30 5025 H 453.317 -0.34673 0.750804 0
M  V30 5026 H 455.863 0.0362578 1.69661 0
M  V30 5027 H 454.635 -0.248826 3.90508 0
M  V30 5028 H 454.258 -1.91189 3.48615 0
M  V30 5029 N 455.255 -1.55392 -0.262866 0
M  V30 5030 C 456.165 -1.92077 -1.34698 0
M  V30 5031 C 457.181 -0.819227 -1.53508 0
M  V30 5032 O 458.357 -1.11921 -1.67439 0
M  V30 5033 C 455.422 -2.19407 -2.68443 0
M  V30 5034 C 454.483 -3.42905 -2.58292 0
M  V30 5035 C 453.716 -3.68921 -3.85659 0
M  V30 5036 O 453.939 -2.97275 -4.8681 0
M  V30 5037 O 452.873 -4.62455 -3.85252 0
M  V30 5038 H 456.699 -2.84384 -1.06581 0
M  V30 5039 H 454.284 -1.42069 -0.462264 0
M  V30 5040 H 456.166 -2.38365 -3.47506 0
M  V30 5041 H 454.841 -1.30282 -2.96325 0
M  V30 5042 H 453.748 -3.29272 -1.7757 0
M  V30 5043 H 455.081 -4.32282 -2.35358 0
M  V30 5044 N 456.733 0.527833 -1.48498 0
M  V30 5045 C 457.681 1.65313 -1.63628 0
M  V30 5046 C 458.675 1.6177 -0.502676 0
M  V30 5047 O 459.881 1.66601 -0.681469 0
M  V30 5048 H 456.256 0.547518 -0.515488 0
M  V30 5049 H 458.227 1.49696 -2.58135 0
M  V30 5050 C 456.976 3.03576 -1.6952 0
M  V30 5051 H 456.299 3.06997 -2.56111 0
M  V30 5052 H 457.739 3.81923 -1.84149 0
M  V30 5053 C 456.198 3.34089 -0.43432 0
M  V30 5054 O 456.728 3.99151 0.451852 0
M  V30 5055 N 454.934 2.88991 -0.305368 0
M  V30 5056 H 454.481 2.36222 -1.02747 0
M  V30 5057 H 454.439 3.09776 0.537249 0
M  V30 5058 N 458.211 1.37122 0.776871 0
M  V30 5059 C 459.436 1.354 1.57104 0
M  V30 5060 C 459.861 -0.0595562 1.88006 0
M  V30 5061 O 459.219 -1.03514 1.48844 0
M  V30 5062 C 459.267 2.19472 2.8612 0
M  V30 5063 O 458.371 1.59582 3.80273 0
M  V30 5064 H 457.712 0.462869 0.476076 0
M  V30 5065 H 460.242 1.80577 0.961932 0
M  V30 5066 H 460.252 2.32502 3.35271 0
M  V30 5067 H 458.927 3.22222 2.62956 0
M  V30 5068 H 457.504 1.55564 3.38902 0
M  V30 5069 N 459.689 -1.00246 1.21608 0
M  V30 5070 C 460.966 -1.71336 0.943568 0
M  V30 5071 C 461.346 -2.03972 -0.543943 0
M  V30 5072 O 460.694 -1.71545 -1.50946 0
M  V30 5073 C 460.904 -2.97094 1.83128 0
M  V30 5074 C 462.252 -3.70071 2.08165 0
M  V30 5075 O 463.276 -3.07081 1.80498 0
M  V30 5076 O 462.135 -4.83376 2.54971 0
M  V30 5077 H 459.229 -0.747386 0.354039 0
M  V30 5078 H 461.775 -1.05967 1.32549 0
M  V30 5079 H 460.547 -2.69407 2.83788 0
M  V30 5080 H 460.17 -3.70204 1.45034 0
M  V30 5081 N 461.167 -1.02423 -1.1978 0
M  V30 5082 C 462.392 -0.7373 -1.93852 0
M  V30 5083 C 462.817 0.696923 -1.74713 0
M  V30 5084 O 462.175 1.48056 -1.04638 0
M  V30 5085 C 462.223 -1.08783 -3.438 0
M  V30 5086 O 461.327 -0.20383 -4.11896 0
M  V30 5087 H 460.668 -0.27284 -0.605355 0
M  V30 5088 H 463.198 -1.36966 -1.51992 0
M  V30 5089 H 463.208 -1.04276 -3.9445 0
M  V30 5090 H 461.883 -2.13274 -3.57053 0
M  V30 5091 H 460.46 -0.307091 -3.71633 0
M  V30 5092 N 462.645 1.35699 -0.801477 0
M  V30 5093 C 463.593 2.3177 -0.196317 0
M  V30 5094 C 464.587 1.56388 0.651081 0
M  V30 5095 O 465.793 1.71557 0.544815 0
M  V30 5096 H 462.168 0.750669 -0.0447189 0
M  V30 5097 H 464.139 2.8036 -1.02181 0
M  V30 5098 C 462.888 3.41671 0.644702 0
M  V30 5099 H 462.211 3.998 0.0019921 0
M  V30 5100 H 463.651 4.11184 1.0346 0
M  V30 5101 C 462.11 2.84271 1.80808 0
M  V30 5102 O 462.64 2.77408 2.9053 0
M  V30 5103 N 460.846 2.41391 1.61799 0
M  V30 5104 H 460.393 2.47173 0.725493 0
M  V30 5105 H 460.351 2.03334 2.39797 0
M  V30 5106 N 464.123 0.554532 1.47522 0
M  V30 5107 C 465.369 0.0295227 2.02779 0
M  V30 5108 C 465.702 -1.31582 1.42828 0
M  V30 5109 O 464.977 -1.85561 0.582872 0
M  V30 5110 C 465.26 -0.0664057 3.60039 0
M  V30 5111 C 465.113 1.30585 4.30427 0
M  V30 5112 C 466.432 -0.781162 4.33112 0
M  V30 5113 H 463.551 0.0122027 0.736899 0
M  V30 5114 H 466.193 0.716305 1.7598 0
M  V30 5115 H 464.343 -0.651307 3.83002 0
M  V30 5116 H 466.015 1.93374 4.18813 0
M  V30 5117 H 464.258 1.88125 3.90886 0
M  V30 5118 H 464.929 1.19147 5.38988 0
M  V30 5119 H 467.405 -0.284565 4.15126 0
M  V30 5120 H 466.281 -0.817237 5.42782 0
M  V30 5121 H 466.542 -1.83672 4.0214 0
M  V30 5122 N 465.601 -1.54893 0.290851 0
M  V30 5123 C 466.847 -2.0023 -0.321867 0
M  V30 5124 C 467.18 -1.179 -1.54316 0
M  V30 5125 O 466.455 -0.25293 -1.92848 0
M  V30 5126 C 466.738 -3.53456 -0.688515 0
M  V30 5127 C 466.591 -4.46532 0.541209 0
M  V30 5128 C 467.91 -4.13057 -1.51895 0
M  V30 5129 H 465.029 -0.727891 -0.115515 0
M  V30 5130 H 467.671 -1.85722 0.400931 0
M  V30 5131 H 465.821 -3.6595 -1.30433 0
M  V30 5132 H 467.493 -4.4596 1.17973 0
M  V30 5133 H 465.736 -4.17545 1.17636 0
M  V30 5134 H 466.407 -5.51475 0.240675 0
M  V30 5135 H 468.883 -4.03937 -0.99872 0
M  V30 5136 H 467.759 -5.20448 -1.74429 0
M  V30 5137 H 468.02 -3.64284 -2.50498 0
M  V30 5138 N 467.08 -0.0183926 -1.57589 0
M  V30 5139 C 468.027 0.967022 -2.09565 0
M  V30 5140 C 468.997 1.32983 -0.995225 0
M  V30 5141 O 470.182 1.42501 -1.26878 0
M  V30 5142 C 467.322 2.24772 -2.61861 0
M  V30 5143 C 466.435 1.94232 -3.85873 0
M  V30 5144 C 465.57 3.16518 -4.26603 0
M  V30 5145 C 464.609 2.81748 -5.43401 0
M  V30 5146 N 463.746 3.96626 -5.79338 0
M  V30 5147 H 468.586 0.516874 -2.93483 0
M  V30 5148 H 466.123 0.243544 -1.4507 0
M  V30 5149 H 468.081 2.99667 -2.90268 0
M  V30 5150 H 466.711 2.67423 -1.8079 0
M  V30 5151 H 465.763 1.09625 -3.64262 0
M  V30 5152 H 467.075 1.64616 -4.70853 0
M  V30 5153 H 466.229 3.99743 -4.56389 0
M  V30 5154 H 464.968 3.49286 -3.40368 0
M  V30 5155 H 463.973 1.96933 -5.1332 0
M  V30 5156 H 465.198 2.50207 -6.31327 0
M  V30 5157 H 463.144 4.29257 -4.96059 0
M  V30 5158 H 463.061 3.70598 -6.58933 0
M  V30 5159 H 464.329 4.80586 -6.13724 0
M  V30 5160 N 468.558 1.5553 0.254621 0
M  V30 5161 C 469.783 1.81383 1.00573 0
M  V30 5162 C 470.208 0.594419 1.78461 0
M  V30 5163 O 469.566 -0.456403 1.75461 0
M  V30 5164 C 469.614 3.04892 1.92545 0
M  V30 5165 O 468.718 2.81266 3.01601 0
M  V30 5166 H 468.059 0.598969 0.286587 0
M  V30 5167 H 470.589 2.02703 0.277952 0
M  V30 5168 H 470.599 3.34119 2.34155 0
M  V30 5169 H 469.274 3.93287 1.3527 0
M  V30 5170 H 467.851 2.63185 2.64174 0
M  V30 5171 N 470.036 -0.519951 1.48776 0
M  V30 5172 C 471.266 -1.29783 1.60748 0
M  V30 5173 C 471.674 -1.87253 0.27072 0
M  V30 5174 O 471.017 -1.67628 -0.751438 0
M  V30 5175 C 471.079 -2.47984 2.60277 0
M  V30 5176 C 470.743 -2.11526 4.051 0
M  V30 5177 C 471.74 -1.66608 4.92481 0
M  V30 5178 C 469.425 -2.21742 4.50706 0
M  V30 5179 C 471.419 -1.32384 6.23501 0
M  V30 5180 C 469.106 -1.87129 5.81744 0
M  V30 5181 C 470.104 -1.42523 6.67964 0
M  V30 5182 O 469.792 -1.0837 7.96562 0
M  V30 5183 H 469.524 -0.400562 0.544542 0
M  V30 5184 H 472.078 -0.632879 1.95407 0
M  V30 5185 H 470.308 -3.17493 2.2076 0
M  V30 5186 H 471.997 -3.10036 2.61978 0
M  V30 5187 H 472.763 -1.58178 4.58481 0
M  V30 5188 H 468.642 -2.55415 3.83776 0
M  V30 5189 H 472.186 -0.974949 6.90754 0
M  V30 5190 H 468.083 -1.95204 6.15277 0
M  V30 5191 H 468.851 -1.21681 8.09405 0
M  V30 5192 N 471.514 -1.37532 -0.769588 0
M  V30 5193 C 472.76 -1.33057 -1.53048 0
M  V30 5194 C 473.093 0.0841865 -1.94017 0
M  V30 5195 O 472.368 1.04198 -1.64235 0
M  V30 5196 C 472.651 -2.27166 -2.79406 0
M  V30 5197 C 472.504 -3.77429 -2.44677 0
M  V30 5198 C 473.823 -2.19683 -3.81349 0
M  V30 5199 H 470.942 -0.484655 -0.555228 0
M  V30 5200 H 473.584 -1.68251 -0.882702 0
M  V30 5201 H 471.734 -1.97283 -3.34682 0
M  V30 5202 H 473.406 -4.17918 -1.953 0
M  V30 5203 H 471.649 -3.95892 -1.77346 0
M  V30 5204 H 472.32 -4.38716 -3.35011 0
M  V30 5205 H 474.796 -2.46029 -3.35573 0
M  V30 5206 H 473.672 -2.87668 -4.67481 0
M  V30 5207 H 473.933 -1.19045 -4.25771 0
M  V30 5208 N 472.992 0.995999 -1.22138 0
M  V30 5209 C 474.238 1.73767 -1.04561 0
M  V30 5210 C 474.571 1.89633 0.418698 0
M  V30 5211 O 473.846 1.43723 1.3105 0
M  V30 5212 C 474.129 3.14505 -1.75382 0
M  V30 5213 C 473.982 3.06306 -3.29388 0
M  V30 5214 C 475.301 4.13615 -1.50369 0
M  V30 5215 H 472.42 0.630728 -0.38125 0
M  V30 5216 H 475.062 1.16057 -1.50435 0
M  V30 5217 H 473.212 3.63775 -1.36383 0
M  V30 5218 H 474.884 2.64681 -3.77812 0
M  V30 5219 H 473.127 2.43186 -3.59226 0
M  V30 5220 H 473.798 4.05884 -3.74116 0
M  V30 5221 H 476.274 3.73089 -1.84239 0
M  V30 5222 H 475.15 5.10212 -2.02421 0
M  V30 5223 H 475.411 4.39949 -0.435611 0
M  V30 5224 N 474.47 1.03057 1.19235 0
M  V30 5225 C 475.38 0.622922 2.26179 0
M  V30 5226 C 476.396 -0.346113 1.70523 0
M  V30 5227 O 477.572 -0.203572 2.00369 0
M  V30 5228 C 474.637 -0.0182063 3.46695 0
M  V30 5229 C 473.698 0.998546 4.17526 0
M  V30 5230 C 472.931 0.387917 5.32288 0
M  V30 5231 O 473.154 -0.808668 5.64639 0
M  V30 5232 O 472.088 1.1116 5.91546 0
M  V30 5233 H 475.914 1.51363 2.63292 0
M  V30 5234 H 473.499 0.800856 1.26122 0
M  V30 5235 H 475.381 -0.375606 4.19723 0
M  V30 5236 H 474.056 -0.882895 3.11427 0
M  V30 5237 H 472.963 1.40756 3.4661 0
M  V30 5238 H 474.296 1.83366 4.56769 0
M  V30 5239 N 475.948 -1.35272 0.808662 0
M  V30 5240 C 477.225 -1.93077 0.313181 0
M  V30 5241 C 477.605 -1.73847 -1.19752 0
M  V30 5242 O 476.953 -1.1087 -1.998 0
M  V30 5243 C 477.163 -3.41347 0.726859 0
M  V30 5244 C 478.511 -4.18493 0.717532 0
M  V30 5245 O 479.535 -3.4987 0.668535 0
M  V30 5246 O 478.394 -5.40937 0.777779 0
M  V30 5247 H 475.488 -0.822885 0.0824018 0
M  V30 5248 H 478.034 -1.44335 0.892499 0
M  V30 5249 H 476.806 -3.49082 1.76797 0
M  V30 5250 H 476.429 -3.97411 0.122461 0
M  V30 5251 N 477.426 -0.562348 -1.47226 0
M  V30 5252 C 478.336 0.185466 -2.33866 0
M  V30 5253 C 479.352 0.906713 -1.48508 0
M  V30 5254 O 480.528 0.874458 -1.81425 0
M  V30 5255 C 477.593 1.19904 -3.25306 0
M  V30 5256 C 476.654 0.484669 -4.26555 0
M  V30 5257 C 475.887 1.44996 -5.13626 0
M  V30 5258 O 476.11 2.68515 -5.03245 0
M  V30 5259 O 475.044 0.971642 -5.94006 0
M  V30 5260 H 478.87 -0.525361 -2.99121 0
M  V30 5261 H 476.455 -0.322916 -1.45868 0
M  V30 5262 H 478.337 1.78399 -3.81774 0
M  V30 5263 H 477.012 1.8917 -2.62672 0
M  V30 5264 H 475.919 -0.141605 -3.73832 0
M  V30 5265 H 477.252 -0.166634 -4.91918 0
M  V30 5266 N 478.904 1.54736 -0.299062 0
M  V30 5267 C 479.852 2.24897 0.593658 0
M  V30 5268 C 480.846 1.25429 1.13859 0
M  V30 5269 O 482.052 1.43286 1.08945 0
M  V30 5270 H 478.427 0.72207 0.210046 0
M  V30 5271 H 480.398 2.98393 -0.0206421 0
M  V30 5272 C 479.147 3.00159 1.75499 0
M  V30 5273 H 478.47 3.76501 1.34489 0
M  V30 5274 H 479.91 3.52535 2.35574 0
M  V30 5275 C 478.369 2.07015 2.65794 0
M  V30 5276 O 478.899 1.63692 3.66835 0
M  V30 5277 N 477.105 1.73012 2.33485 0
M  V30 5278 H 476.652 2.08439 1.51364 0
M  V30 5279 H 476.61 1.10965 2.94167 0
M  V30 5280 N 480.382 0.0267497 1.57577 0
M  V30 5281 C 481.63 -0.651116 1.91324 0
M  V30 5282 C 481.951 -1.72804 0.90353 0
M  V30 5283 O 481.221 -1.95822 -0.0552946 0
M  V30 5284 H 479.801 -0.243491 0.706202 0
M  V30 5285 H 482.463 0.0739935 1.94759 0
M  V30 5286 H 481.559 -1.10536 2.9187 0
M  V30 5287 N 481.861 -1.55662 -0.24637 0
M  V30 5288 C 483.11 -1.7672 -0.972254 0
M  V30 5289 C 483.423 -0.59078 -1.86465 0
M  V30 5290 O 484.629 -0.684391 -2.62732 0
M  V30 5291 C 483.085 -3.12869 -1.7788 0
M  V30 5292 C 482.693 -4.38161 -0.933768 0
M  V30 5293 C 484.437 -3.43265 -2.49738 0
M  V30 5294 C 482.344 -5.6534 -1.73623 0
M  V30 5295 H 481.274 -0.658795 -0.366749 0
M  V30 5296 H 483.925 -1.82092 -0.226902 0
M  V30 5297 H 482.307 -3.01606 -2.56612 0
M  V30 5298 H 483.481 -4.60413 -0.188736 0
M  V30 5299 H 481.796 -4.15102 -0.328488 0
M  V30 5300 H 484.393 -4.35501 -3.10231 0
M  V30 5301 H 484.736 -2.64614 -3.2138 0
M  V30 5302 H 485.269 -3.55746 -1.78016 0
M  V30 5303 H 482.008 -6.46814 -1.06354 0
M  V30 5304 H 481.528 -5.47188 -2.45653 0
M  V30 5305 H 483.207 -6.04616 -2.30323 0
M  V30 5306 N 483.339 0.512053 -1.4905 0
M  V30 5307 C 484.588 1.26343 -1.57227 0
M  V30 5308 C 484.901 1.93876 -0.259155 0
M  V30 5309 O 486.107 2.70612 -0.219358 0
M  V30 5310 C 484.563 2.29343 -2.77362 0
M  V30 5311 C 484.171 1.67799 -4.15388 0
M  V30 5312 C 485.915 3.05378 -2.94864 0
M  V30 5313 C 483.822 2.68845 -5.2676 0
M  V30 5314 H 482.752 0.475231 -0.585382 0
M  V30 5315 H 485.403 0.53862 -1.75417 0
M  V30 5316 H 483.785 3.04938 -2.52643 0
M  V30 5317 H 484.959 0.982715 -4.50199 0
M  V30 5318 H 483.274 1.04194 -4.03153 0
M  V30 5319 H 485.871 3.80921 -3.75238 0
M  V30 5320 H 486.214 3.62327 -2.05 0
M  V30 5321 H 486.747 2.36898 -3.19569 0
M  V30 5322 H 483.486 2.16692 -6.18647 0
M  V30 5323 H 483.006 3.36647 -4.96416 0
M  V30 5324 H 484.685 3.31487 -5.5563 0
M  V30 5325 N 484.817 1.37938 0.762283 0
M  V30 5326 C 486.045 1.36883 1.55147 0
M  V30 5327 C 486.46 -0.0435348 1.8875 0
M  V30 5328 O 485.817 -1.00786 1.52146 0
M  V30 5329 C 485.868 2.21624 2.85596 0
M  V30 5330 O 485.589 3.57358 2.5343 0
M  V30 5331 C 487.09 2.28653 3.7978 0
M  V30 5332 H 484.31 0.468521 0.480343 0
M  V30 5333 H 486.854 1.81404 0.944079 0
M  V30 5334 H 485.009 1.80588 3.42734 0
M  V30 5335 H 485.423 4.01883 3.37032 0
M  V30 5336 H 486.897 2.9225 4.68288 0
M  V30 5337 H 487.374 1.29767 4.19592 0
M  V30 5338 H 487.98 2.70043 3.28568 0
M  V30 5339 N 486.295 -0.989507 1.22664 0
M  V30 5340 C 487.572 -1.70326 0.961688 0
M  V30 5341 C 487.952 -2.04537 -0.522279 0
M  V30 5342 O 487.3 -1.73136 -1.49118 0
M  V30 5343 C 487.51 -2.95135 1.86269 0
M  V30 5344 C 488.858 -3.67842 2.12078 0
M  V30 5345 O 489.882 -3.0515 1.83745 0
M  V30 5346 O 488.741 -4.80644 2.60083 0
M  V30 5347 H 485.835 -0.743589 0.361946 0
M  V30 5348 H 488.381 -1.04555 1.33665 0
M  V30 5349 H 487.153 -2.66382 2.8663 0
M  V30 5350 H 486.776 -3.68645 1.48952 0
M  V30 5351 N 487.773 -1.03688 -1.18687 0
M  V30 5352 C 489.003 -0.756819 -1.92239 0
M  V30 5353 C 489.411 0.689374 -1.76194 0
M  V30 5354 O 488.754 1.48126 -1.08648 0
M  V30 5355 C 488.816 -1.03851 -3.44173 0
M  V30 5356 C 488.48 -2.47785 -3.83994 0
M  V30 5357 C 489.477 -3.4595 -3.88091 0
M  V30 5358 C 487.162 -2.82397 -4.154 0
M  V30 5359 C 489.156 -4.76779 -4.23038 0
M  V30 5360 C 486.843 -4.13433 -4.50018 0
M  V30 5361 C 487.841 -5.10434 -4.53813 0
M  V30 5362 O 487.529 -6.39122 -4.87625 0
M  V30 5363 H 487.261 -0.275678 -0.617234 0
M  V30 5364 H 489.815 -1.38658 -1.51536 0
M  V30 5365 H 488.045 -0.351612 -3.85098 0
M  V30 5366 H 489.734 -0.746846 -3.9897 0
M  V30 5367 H 490.5 -3.20549 -3.63969 0
M  V30 5368 H 486.379 -2.07568 -4.11627 0
M  V30 5369 H 489.923 -5.52488 -4.25914 0
M  V30 5370 H 485.82 -4.38604 -4.736 0
M  V30 5371 H 486.588 -6.43715 -5.05542 0
M  V30 5372 N 489.251 1.34841 -0.815825 0
M  V30 5373 C 490.498 1.98499 -0.400535 0
M  V30 5374 C 490.826 1.64699 1.03463 0
M  V30 5375 O 490.081 0.907006 1.73412 0
M  V30 5376 C 490.38 3.53273 -0.541541 0
M  V30 5377 C 490.046 4.06966 -1.94138 0
M  V30 5378 C 488.708 4.21341 -2.32433 0
M  V30 5379 C 491.06 4.35933 -2.85677 0
M  V30 5380 C 488.388 4.62007 -3.61617 0
M  V30 5381 C 490.74 4.78042 -4.14317 0
M  V30 5382 C 489.404 4.90622 -4.52599 0
M  V30 5383 H 488.674 0.72636 -0.146566 0
M  V30 5384 H 491.321 1.60902 -1.0384 0
M  V30 5385 H 489.626 3.91387 0.179741 0
M  V30 5386 H 491.323 4.00497 -0.20085 0
M  V30 5387 H 487.913 3.96235 -1.63388 0
M  V30 5388 H 492.097 4.24372 -2.57337 0
M  V30 5389 H 487.353 4.69937 -3.91113 0
M  V30 5390 H 491.527 4.99415 -4.85342 0
M  V30 5391 H 489.154 5.2189 -5.52752 0
M  V30 5392 N 490.729 0.570148 1.46925 0
M  V30 5393 C 491.954 0.0542592 2.07329 0
M  V30 5394 C 492.379 -1.23582 1.41806 0
M  V30 5395 O 491.737 -1.74341 0.497479 0
M  V30 5396 C 491.785 -0.111175 3.60429 0
M  V30 5397 O 490.889 -1.17071 3.95434 0
M  V30 5398 H 490.23 0.0571425 0.661537 0
M  V30 5399 H 492.76 0.789516 1.88753 0
M  V30 5400 H 492.77 -0.321315 4.06733 0
M  V30 5401 H 491.445 0.831012 4.07513 0
M  V30 5402 H 490.022 -0.940029 3.60857 0
M  V30 5403 N 492.207 -1.54576 0.307264 0
M  V30 5404 C 493.437 -2.04378 -0.302158 0
M  V30 5405 C 493.845 -1.18381 -1.47589 0
M  V30 5406 O 493.188 -0.20352 -1.82569 0
M  V30 5407 C 493.25 -3.50133 -0.815305 0
M  V30 5408 C 492.914 -4.56401 0.233977 0
M  V30 5409 C 493.911 -5.08884 1.06456 0
M  V30 5410 C 491.596 -5.0088 0.377478 0
M  V30 5411 C 493.59 -6.04394 2.02452 0
M  V30 5412 C 491.277 -5.96208 1.34088 0
M  V30 5413 C 492.275 -6.47849 2.16288 0
M  V30 5414 O 491.963 -7.41308 3.10994 0
M  V30 5415 H 491.695 -0.672502 -0.0686839 0
M  V30 5416 H 494.249 -2.00484 0.446682 0
M  V30 5417 H 492.479 -3.51371 -1.61478 0
M  V30 5418 H 494.168 -3.83098 -1.34129 0
M  V30 5419 H 494.934 -4.75311 0.964596 0
M  V30 5420 H 490.813 -4.60309 -0.252405 0
M  V30 5421 H 494.357 -6.44626 2.66652 0
M  V30 5422 H 490.254 -6.29198 1.44154 0
M  V30 5423 H 491.022 -7.5913 3.06045 0
M  V30 5424 N 493.685 -0.035106 -1.57561 0
M  V30 5425 C 494.915 0.651312 -1.96065 0
M  V30 5426 C 495.323 1.6585 -0.910514 0
M  V30 5427 O 494.666 1.83336 0.11552 0
M  V30 5428 C 494.728 1.40897 -3.30739 0
M  V30 5429 C 494.392 0.559436 -4.53563 0
M  V30 5430 C 495.389 -0.16778 -5.19629 0
M  V30 5431 C 493.074 0.495079 -4.99854 0
M  V30 5432 C 495.068 -0.947963 -6.30311 0
M  V30 5433 C 492.755 -0.288804 -6.10417 0
M  V30 5434 C 493.753 -1.00903 -6.75505 0
M  V30 5435 O 493.441 -1.78005 -7.83945 0
M  V30 5436 H 493.173 0.184036 -0.650467 0
M  V30 5437 H 495.727 -0.0929677 -2.05189 0
M  V30 5438 H 493.957 2.19852 -3.18123 0
M  V30 5439 H 495.646 1.98407 -3.54104 0
M  V30 5440 H 496.412 -0.12743 -4.84833 0
M  V30 5441 H 492.291 1.04524 -4.48994 0
M  V30 5442 H 495.835 -1.51064 -6.81047 0
M  V30 5443 H 491.732 -0.33085 -6.44652 0
M  V30 5444 H 492.5 -1.70046 -8.00641 0
M  V30 5445 N 495.163 1.55791 0.238111 0
M  V30 5446 C 496.093 1.94068 1.29846 0
M  V30 5447 C 497.074 0.806726 1.49753 0
M  V30 5448 O 498.259 1.06772 1.62214 0
M  V30 5449 C 495.389 2.24302 2.65153 0
M  V30 5450 C 494.343 3.40032 2.59927 0
M  V30 5451 C 493.669 3.55829 3.99111 0
M  V30 5452 C 494.969 4.75476 2.16148 0
M  V30 5453 H 496.663 2.82887 0.980563 0
M  V30 5454 H 494.209 1.36105 0.470253 0
M  V30 5455 H 496.162 2.4967 3.39475 0
M  V30 5456 H 494.886 1.32318 2.98596 0
M  V30 5457 H 493.545 3.14687 1.88063 0
M  V30 5458 H 493.193 2.6125 4.29834 0
M  V30 5459 H 492.893 4.3366 3.96501 0
M  V30 5460 H 494.417 3.83528 4.7512 0
M  V30 5461 H 495.831 5.00158 2.80205 0
M  V30 5462 H 494.228 5.56472 2.24631 0
M  V30 5463 H 495.298 4.71946 1.11333 0
M  V30 5464 N 496.642 -0.504142 1.49319 0
M  V30 5465 C 497.572 -1.61473 1.68667 0
M  V30 5466 C 498.553 -1.61455 0.535378 0
M  V30 5467 O 499.738 -1.78245 0.770868 0
M  V30 5468 C 496.868 -2.99971 1.75028 0
M  V30 5469 C 495.822 -3.14854 2.89916 0
M  V30 5470 C 495.148 -4.54671 2.81387 0
M  V30 5471 C 496.448 -2.95176 4.30893 0
M  V30 5472 H 498.142 -1.45535 2.61648 0
M  V30 5473 H 495.688 -0.698711 1.25913 0
M  V30 5474 H 497.641 -3.77562 1.8715 0
M  V30 5475 H 496.365 -3.1699 0.786441 0
M  V30 5476 H 495.024 -2.39687 2.77391 0
M  V30 5477 H 494.672 -4.68562 1.82917 0
M  V30 5478 H 494.372 -4.6557 3.58494 0
M  V30 5479 H 495.896 -5.34327 2.95512 0
M  V30 5480 H 497.31 -3.62538 4.44116 0
M  V30 5481 H 495.707 -3.17549 5.09198 0
M  V30 5482 H 496.777 -1.91332 4.45556 0
M  V30 5483 N 498.12 -1.38341 -0.754957 0
M  V30 5484 C 499.531 -1.30803 -1.3322 0
M  V30 5485 C 499.882 0.0368 -1.96165 0
M  V30 5486 O 499.007 0.938844 -1.94974 0
M  V30 5487 C 499.602 -2.3688 -2.42225 0
M  V30 5488 C 498.161 -2.32925 -2.95674 0
M  V30 5489 C 497.308 -2.19819 -1.69042 0
M  V30 5490 H 500.259 -1.48719 -0.553937 0
M  V30 5491 H 500.28 -2.02517 -3.22129 0
M  V30 5492 H 499.792 -3.34747 -1.96383 0
M  V30 5493 H 497.893 -1.38635 -3.45848 0
M  V30 5494 H 498.006 -3.27008 -3.50146 0
M  V30 5495 H 496.37 -1.66648 -1.92615 0
M  V30 5496 H 497.153 -3.19625 -1.25279 0
M  V30 5497 N 499.598 0.982988 -1.23187 0
M  V30 5498 C 500.845 1.72392 -1.06241 0
M  V30 5499 C 501.173 1.9032 0.40108 0
M  V30 5500 O 500.428 1.45084 1.31336 0
M  V30 5501 C 500.727 3.12736 -1.73006 0
M  V30 5502 C 500.393 3.14695 -3.22921 0
M  V30 5503 C 499.055 3.14937 -3.63824 0
M  V30 5504 C 501.407 3.10211 -4.1883 0
M  V30 5505 C 498.735 3.08408 -4.99101 0
M  V30 5506 C 501.087 3.05224 -5.54095 0
M  V30 5507 C 499.751 3.03787 -5.94365 0
M  V30 5508 H 499.021 0.630829 -0.388762 0
M  V30 5509 H 501.668 1.15053 -1.53085 0
M  V30 5510 H 499.973 3.73446 -1.18514 0
M  V30 5511 H 501.67 3.68828 -1.57374 0
M  V30 5512 H 498.26 3.15262 -2.90358 0
M  V30 5513 H 502.444 3.09166 -3.8824 0
M  V30 5514 H 497.7 3.05646 -5.29519 0
M  V30 5515 H 501.874 3.00712 -6.28128 0
M  V30 5516 H 499.501 2.98483 -6.99151 0
M  V30 5517 N 501.076 1.04316 1.18135 0
M  V30 5518 C 502.304 0.768117 1.92113 0
M  V30 5519 C 502.719 -0.675057 1.76319 0
M  V30 5520 O 502.076 -1.46038 1.09449 0
M  V30 5521 C 502.127 1.12808 3.43448 0
M  V30 5522 O 501.848 2.5146 3.58747 0
M  V30 5523 C 503.349 0.8779 4.3452 0
M  V30 5524 H 500.569 0.279937 0.609817 0
M  V30 5525 H 503.113 1.39149 1.49859 0
M  V30 5526 H 501.268 0.549623 3.83481 0
M  V30 5527 H 501.682 2.65313 4.52448 0
M  V30 5528 H 503.156 1.17959 5.39249 0
M  V30 5529 H 503.633 -0.187239 4.38801 0
M  V30 5530 H 504.239 1.43977 4.00188 0
M  V30 5531 N 502.554 -1.34406 0.822964 0
M  V30 5532 C 503.8 -1.98578 0.411666 0
M  V30 5533 C 504.133 -1.65093 -1.02264 0
M  V30 5534 O 503.408 -0.92258 -1.71227 0
M  V30 5535 C 503.691 -3.54823 0.614235 0
M  V30 5536 C 503.544 -3.9805 2.09466 0
M  V30 5537 C 504.863 -4.40071 0.050221 0
M  V30 5538 H 501.982 -0.721355 0.151047 0
M  V30 5539 H 504.624 -1.59301 1.03554 0
M  V30 5540 H 502.774 -3.88411 0.0831774 0
M  V30 5541 H 504.446 -3.74795 2.68936 0
M  V30 5542 H 502.689 -3.4836 2.5851 0
M  V30 5543 H 503.36 -5.06819 2.18721 0
M  V30 5544 H 505.836 -4.13037 0.503953 0
M  V30 5545 H 504.712 -5.48452 0.221759 0
M  V30 5546 H 504.973 -4.29576 -1.04482 0
M  V30 5547 N 504.032 -0.577932 -1.46621 0
M  V30 5548 C 504.962 0.145917 -2.33044 0
M  V30 5549 C 505.943 0.888412 -1.45056 0
M  V30 5550 O 507.128 0.864812 -1.73881 0
M  V30 5551 C 504.258 1.16322 -3.27241 0
M  V30 5552 C 503.212 0.535868 -4.24632 0
M  V30 5553 C 502.538 1.65929 -5.08303 0
M  V30 5554 C 503.838 -0.523861 -5.19666 0
M  V30 5555 H 505.532 -0.575636 -2.93814 0
M  V30 5556 H 503.078 -0.278272 -1.41286 0
M  V30 5557 H 505.031 1.67793 -3.86553 0
M  V30 5558 H 503.755 1.91498 -2.64567 0
M  V30 5559 H 502.414 0.0422759 -3.66576 0
M  V30 5560 H 502.062 2.40061 -4.42018 0
M  V30 5561 H 501.762 1.2452 -5.74255 0
M  V30 5562 H 503.286 2.17686 -5.70478 0
M  V30 5563 H 504.7 -0.0944059 -5.73222 0
M  V30 5564 H 503.097 -0.858 -5.93935 0
M  V30 5565 H 504.167 -1.41197 -4.63887 0
M  V30 5566 N 505.51 1.54411 -0.315457 0
M  V30 5567 C 506.787 1.92562 0.343398 0
M  V30 5568 C 507.167 1.24423 1.70535 0
M  V30 5569 O 506.515 0.385051 2.25232 0
M  V30 5570 C 506.725 3.46168 0.443687 0
M  V30 5571 C 508.073 4.18659 0.707783 0
M  V30 5572 O 509.097 3.52281 0.52693 0
M  V30 5573 O 507.956 5.36198 1.05612 0
M  V30 5574 H 505.05 0.80379 0.194552 0
M  V30 5575 H 507.596 1.65738 -0.364577 0
M  V30 5576 H 506.368 3.8792 -0.513172 0
M  V30 5577 H 505.991 3.79073 1.19956 0
M  V30 5578 N 506.988 0.0434614 1.5754 0
M  V30 5579 C 507.936 -0.951465 2.1225 0
M  V30 5580 C 508.93 -1.3274 1.05245 0
M  V30 5581 O 510.136 -1.30795 1.23663 0
M  V30 5582 H 506.511 -0.324667 0.678303 0
M  V30 5583 H 508.482 -0.464855 2.94757 0
M  V30 5584 C 507.231 -2.21972 2.67626 0
M  V30 5585 H 506.554 -1.93923 3.4962 0
M  V30 5586 H 507.994 -2.89765 3.09536 0
M  V30 5587 C 506.453 -2.95919 1.61038 0
M  V30 5588 O 506.983 -3.8857 1.01862 0
M  V30 5589 N 505.189 -2.58511 1.32741 0
M  V30 5590 H 504.736 -1.83244 1.81051 0
M  V30 5591 H 504.694 -3.08296 0.616531 0
M  V30 5592 N 508.466 -1.55915 -0.229846 0
M  V30 5593 C 509.429 -1.90914 -1.26824 0
M  V30 5594 C 510.429 -0.786999 -1.40225 0
M  V30 5595 O 511.619 -1.05484 -1.38632 0
M  V30 5596 C 508.751 -2.15264 -2.64337 0
M  V30 5597 H 509.944 -2.8378 -0.969998 0
M  V30 5598 H 507.497 -1.49069 -0.4699 0
M  V30 5599 H 508.232 -1.24923 -2.99274 0
M  V30 5600 H 508.017 -2.97005 -2.55989 0
M  V30 5601 H 509.507 -2.43467 -3.39284 0
M  V30 5602 N 509.944 0.496216 -1.49584 0
M  V30 5603 C 510.876 1.61404 -1.62731 0
M  V30 5604 C 511.889 1.54613 -0.50978 0
M  V30 5605 O 513.078 1.60458 -0.782017 0
M  V30 5606 C 510.178 3.00212 -1.57245 0
M  V30 5607 C 509.351 3.32138 -2.84611 0
M  V30 5608 C 508.41 4.5038 -2.72112 0
M  V30 5609 O 507.436 4.51926 -3.46051 0
M  V30 5610 N 508.638 5.50575 -1.83977 0
M  V30 5611 H 511.403 1.50552 -2.59141 0
M  V30 5612 H 508.964 0.684182 -1.46733 0
M  V30 5613 H 510.956 3.77241 -1.4653 0
M  V30 5614 H 509.526 3.04964 -0.686729 0
M  V30 5615 H 508.746 2.4396 -3.09641 0
M  V30 5616 H 510.034 3.50268 -3.69039 0
M  V30 5617 H 509.432 5.52128 -1.23171 0
M  V30 5618 H 507.989 6.26687 -1.79182 0
M  V30 5619 N 511.423 1.38739 0.74761 0
M  V30 5620 C 512.373 1.32948 1.85226 0
M  V30 5621 C 513.357 0.212642 1.59489 0
M  V30 5622 O 514.549 0.449121 1.71207 0
M  V30 5623 C 511.678 1.16279 3.23008 0
M  V30 5624 C 510.764 2.32611 3.54617 0
M  V30 5625 N 511.155 3.58065 3.57244 0
M  V30 5626 C 509.453 2.25293 3.84914 0
M  V30 5627 C 510.154 4.34919 3.8629 0
M  V30 5628 N 509.13 3.64348 4.03425 0
M  V30 5629 H 512.932 2.27927 1.85544 0
M  V30 5630 H 510.446 1.32056 0.945253 0
M  V30 5631 H 512.443 1.10214 4.02068 0
M  V30 5632 H 511.103 0.222394 3.23937 0
M  V30 5633 H 512.114 3.91656 3.3886 0
M  V30 5634 H 508.791 1.39446 3.93524 0
M  V30 5635 H 510.181 5.43605 3.94896 0
M  V30 5636 N 512.901 -0.976442 1.23707 0
M  V30 5637 C 514.178 -1.69296 0.979699 0
M  V30 5638 C 514.558 -2.0508 -0.500555 0
M  V30 5639 O 513.906 -1.74708 -1.47273 0
M  V30 5640 C 514.116 -2.93143 1.89389 0
M  V30 5641 C 515.464 -3.65572 2.15968 0
M  V30 5642 O 516.488 -3.03184 1.86971 0
M  V30 5643 O 515.347 -4.77859 2.65167 0
M  V30 5644 H 512.441 -0.739708 0.369812 0
M  V30 5645 H 514.987 -1.03131 1.34767 0
M  V30 5646 H 513.759 -2.63327 2.89439 0
M  V30 5647 H 513.382 -3.67044 1.52854 0
M  V30 5648 N 514.379 -1.04941 -1.1758 0
M  V30 5649 C 515.289 -0.658826 -2.25159 0
M  V30 5650 C 516.305 0.318941 -1.71052 0
M  V30 5651 O 517.481 0.171669 -2.00667 0
M  V30 5652 C 514.546 -0.0369522 -3.4668 0
M  V30 5653 C 513.607 -1.06484 -4.15884 0
M  V30 5654 C 512.84 -0.472551 -5.31604 0
M  V30 5655 O 513.063 0.718736 -5.65854 0
M  V30 5656 O 511.997 -1.20557 -5.89703 0
M  V30 5657 H 515.823 -1.55533 -2.60851 0
M  V30 5658 H 513.408 -0.820819 -1.24832 0
M  V30 5659 H 515.29 0.308784 -4.20267 0
M  V30 5660 H 513.965 0.833238 -3.12792 0
M  V30 5661 H 512.872 -1.46253 -3.44327 0
M  V30 5662 H 514.205 -1.9061 -4.53794 0
M  V30 5663 N 515.857 1.33968 -0.830081 0
M  V30 5664 C 516.787 2.31911 -0.271911 0
M  V30 5665 C 517.768 1.58571 0.61556 0
M  V30 5666 O 518.953 1.86514 0.540946 0
M  V30 5667 C 516.083 3.42737 0.561146 0
M  V30 5668 C 515.037 4.27383 -0.229789 0
M  V30 5669 C 514.363 5.29742 0.726463 0
M  V30 5670 C 515.663 5.02 -1.44197 0
M  V30 5671 H 517.357 2.78844 -1.09025 0
M  V30 5672 H 514.903 1.34061 -0.52571 0
M  V30 5673 H 516.856 4.10276 0.961867 0
M  V30 5674 H 515.58 2.94471 1.41261 0
M  V30 5675 H 514.239 3.61456 -0.611964 0
M  V30 5676 H 513.887 4.77736 1.57408 0
M  V30 5677 H 513.587 5.87255 0.20142 0
M  V30 5678 H 515.111 6.00149 1.12489 0
M  V30 5679 H 516.525 5.62355 -1.11488 0
M  V30 5680 H 514.922 5.69122 -1.90317 0
M  V30 5681 H 515.992 4.31281 -2.2164 0
M  V30 5682 N 517.335 0.585699 1.46312 0
M  V30 5683 C 518.583 0.072278 2.01971 0
M  V30 5684 C 518.904 -1.29345 1.45928 0
M  V30 5685 O 518.174 -1.84973 0.645109 0
M  V30 5686 H 516.754 0.023729 0.746623 0
M  V30 5687 H 519.416 0.762155 1.7938 0
M  V30 5688 H 518.512 0.00552767 3.121 0
M  V30 5689 N 518.813 -1.54241 0.323641 0
M  V30 5690 C 520.062 -1.9975 -0.279806 0
M  V30 5691 C 520.375 -1.2156 -1.5324 0
M  V30 5692 O 521.581 -1.57447 -2.21185 0
M  V30 5693 C 520.037 -3.55686 -0.549115 0
M  V30 5694 C 519.645 -4.4271 0.686432 0
M  V30 5695 C 521.389 -4.09663 -1.11251 0
M  V30 5696 C 519.296 -5.90119 0.389022 0
M  V30 5697 H 518.226 -0.746177 -0.10833 0
M  V30 5698 H 520.877 -1.78248 0.435877 0
M  V30 5699 H 519.259 -3.73176 -1.32499 0
M  V30 5700 H 520.433 -4.36996 1.46188 0
M  V30 5701 H 518.748 -3.99623 1.17005 0
M  V30 5702 H 521.345 -5.17386 -1.34965 0
M  V30 5703 H 521.688 -3.61651 -2.06191 0
M  V30 5704 H 522.221 -3.95806 -0.39782 0
M  V30 5705 H 518.96 -6.42326 1.30759 0
M  V30 5706 H 518.48 -5.98785 -0.348722 0
M  V30 5707 H 520.159 -6.47 -0.0011164 0
M  V30 5708 N 520.291 -0.0518155 -1.57515 0
M  V30 5709 C 521.254 0.907547 -2.10467 0
M  V30 5710 C 522.254 1.23947 -1.02439 0
M  V30 5711 O 523.444 1.17604 -1.2851 0
M  V30 5712 C 520.576 2.21723 -2.58944 0
M  V30 5713 H 521.769 0.44851 -2.96527 0
M  V30 5714 H 519.322 0.196598 -1.55059 0
M  V30 5715 H 520.057 2.72206 -1.76279 0
M  V30 5716 H 519.842 1.98935 -3.37886 0
M  V30 5717 H 521.332 2.90441 -3.00056 0
M  V30 5718 N 521.769 1.56035 0.221574 0
M  V30 5719 C 522.999 1.82864 0.961468 0
M  V30 5720 C 523.407 0.628703 1.78449 0
M  V30 5721 O 522.75 -0.412109 1.79018 0
M  V30 5722 C 522.812 3.03425 1.92804 0
M  V30 5723 C 522.476 4.38429 1.28954 0
M  V30 5724 C 523.473 5.15441 0.679431 0
M  V30 5725 C 521.158 4.85151 1.30131 0
M  V30 5726 C 523.152 6.37337 0.0896148 0
M  V30 5727 C 520.839 6.06989 0.707651 0
M  V30 5728 C 521.837 6.82923 0.102855 0
M  V30 5729 O 521.525 8.02456 -0.48157 0
M  V30 5730 H 521.257 0.611883 0.28736 0
M  V30 5731 H 523.811 2.0397 0.241932 0
M  V30 5732 H 522.041 2.78138 2.68656 0
M  V30 5733 H 523.73 3.17127 2.53348 0
M  V30 5734 H 524.496 4.80452 0.662661 0
M  V30 5735 H 520.375 4.26021 1.76145 0
M  V30 5736 H 523.919 6.96547 -0.383069 0
M  V30 5737 H 519.816 6.41451 0.721834 0
M  V30 5738 H 520.584 8.17636 -0.375887 0
M  V30 5739 N 523.247 -0.488276 1.49845 0
M  V30 5740 C 524.177 -1.59675 1.70371 0
M  V30 5741 C 525.158 -1.60878 0.552473 0
M  V30 5742 O 526.343 -1.77417 0.78973 0
M  V30 5743 C 523.473 -2.98098 1.782 0
M  V30 5744 C 522.427 -3.11761 2.93239 0
M  V30 5745 C 521.753 -4.51661 2.86193 0
M  V30 5746 C 523.053 -2.90589 4.33999 0
M  V30 5747 H 524.747 -1.42752 2.63177 0
M  V30 5748 H 522.293 -0.685317 1.26647 0
M  V30 5749 H 524.246 -3.75555 1.91144 0
M  V30 5750 H 522.97 -3.16138 0.820018 0
M  V30 5751 H 521.629 -2.36732 2.79917 0
M  V30 5752 H 521.277 -4.66595 1.87877 0
M  V30 5753 H 520.977 -4.61742 3.63412 0
M  V30 5754 H 522.501 -5.31162 3.01163 0
M  V30 5755 H 523.915 -3.57807 4.47936 0
M  V30 5756 H 522.312 -3.1213 5.12538 0
M  V30 5757 H 523.382 -1.86595 4.4756 0
M  V30 5758 N 524.725 -1.39134 -0.740242 0
M  V30 5759 C 525.972 -1.36071 -1.49969 0
M  V30 5760 C 526.3 0.0450245 -1.94448 0
M  V30 5761 O 525.555 1.02482 -1.66721 0
M  V30 5762 C 525.854 -2.27457 -2.75678 0
M  V30 5763 C 525.52 -3.75185 -2.50094 0
M  V30 5764 C 524.182 -4.15439 -2.42825 0
M  V30 5765 C 526.534 -4.68643 -2.28086 0
M  V30 5766 C 523.862 -5.4722 -2.11584 0
M  V30 5767 C 526.214 -6.00695 -1.98363 0
M  V30 5768 C 524.878 -6.40018 -1.8956 0
M  V30 5769 H 524.148 -0.497921 -0.548777 0
M  V30 5770 H 526.795 -1.71599 -0.85007 0
M  V30 5771 H 525.1 -1.8503 -3.45356 0
M  V30 5772 H 526.797 -2.22384 -3.33686 0
M  V30 5773 H 523.387 -3.43279 -2.56627 0
M  V30 5774 H 527.571 -4.3838 -2.32672 0
M  V30 5775 H 522.827 -5.76615 -2.03287 0
M  V30 5776 H 527.001 -6.72644 -1.80341 0
M  V30 5777 H 524.628 -7.42051 -1.65117 0
M  V30 5778 N 526.204 0.969867 -1.24223 0
M  V30 5779 C 527.434 1.74502 -1.106 0
M  V30 5780 C 527.842 1.86038 0.344483 0
M  V30 5781 O 527.185 1.3465 1.24961 0
M  V30 5782 C 527.247 3.18391 -1.66935 0
M  V30 5783 C 526.911 3.30334 -3.15798 0
M  V30 5784 C 527.908 3.15832 -4.12973 0
M  V30 5785 C 525.593 3.54644 -3.55715 0
M  V30 5786 C 527.587 3.25461 -5.48045 0
M  V30 5787 C 525.274 3.63912 -4.90929 0
M  V30 5788 C 526.272 3.49332 -5.86904 0
M  V30 5789 O 525.96 3.58251 -7.1966 0
M  V30 5790 H 525.692 0.554119 -0.387206 0
M  V30 5791 H 528.246 1.22646 -1.64764 0
M  V30 5792 H 526.476 3.71543 -1.07203 0
M  V30 5793 H 528.165 3.77707 -1.48634 0
M  V30 5794 H 528.931 2.96937 -3.83476 0
M  V30 5795 H 524.81 3.65059 -2.81519 0
M  V30 5796 H 528.354 3.13998 -6.22937 0
M  V30 5797 H 524.251 3.82319 -5.20098 0
M  V30 5798 H 525.019 3.7498 -7.27552 0
M  V30 5799 N 527.682 1.05563 1.17022 0
M  V30 5800 C 528.912 0.787307 1.91011 0
M  V30 5801 C 529.32 -0.661256 1.77268 0
M  V30 5802 O 528.663 -1.46379 1.10991 0
M  V30 5803 C 528.725 1.09313 3.42478 0
M  V30 5804 C 528.389 2.53863 3.80004 0
M  V30 5805 C 529.386 3.52081 3.82538 0
M  V30 5806 C 527.071 2.88969 4.10855 0
M  V30 5807 C 529.065 4.83449 4.15399 0
M  V30 5808 C 526.752 4.2054 4.43384 0
M  V30 5809 C 527.75 5.17589 4.45635 0
M  V30 5810 O 527.438 6.46799 4.77395 0
M  V30 5811 H 527.17 0.285463 0.61277 0
M  V30 5812 H 529.724 1.41051 1.49311 0
M  V30 5813 H 527.954 0.412833 3.8449 0
M  V30 5814 H 529.643 0.810224 3.97731 0
M  V30 5815 H 530.409 3.26299 3.58823 0
M  V30 5816 H 526.288 2.1409 4.08272 0
M  V30 5817 H 529.832 5.59194 4.1707 0
M  V30 5818 H 525.729 4.46083 4.66563 0
M  V30 5819 H 526.497 6.51677 4.95237 0
M  V30 5820 N 529.16 -1.33526 0.837174 0
M  V30 5821 C 530.123 -2.27551 0.274421 0
M  V30 5822 C 531.123 -1.50886 -0.555881 0
M  V30 5823 O 532.313 -1.70227 -0.369918 0
M  V30 5824 C 529.445 -3.35332 -0.613605 0
M  V30 5825 H 530.638 -2.78837 1.10408 0
M  V30 5826 H 528.191 -1.439 0.610126 0
M  V30 5827 H 528.926 -2.89285 -1.46577 0
M  V30 5828 H 528.711 -3.92095 -0.0195341 0
M  V30 5829 H 530.201 -4.05433 -1.00068 0
M  V30 5830 N 530.638 -0.59345 -1.46 0
M  V30 5831 C 531.863 -0.0872365 -2.07216 0
M  V30 5832 C 532.288 1.2131 -1.43755 0
M  V30 5833 O 531.646 1.73528 -0.525152 0
M  V30 5834 C 531.694 0.0538197 -3.6056 0
M  V30 5835 O 530.798 1.10765 -3.97247 0
M  V30 5836 H 530.139 -0.0676598 -0.660544 0
M  V30 5837 H 532.669 -0.819445 -1.87473 0
M  V30 5838 H 532.679 0.256567 -4.07193 0
M  V30 5839 H 531.354 -0.895739 -4.0614 0
M  V30 5840 H 529.931 0.882501 -3.62307 0
M  V30 5841 N 532.116 1.54067 -0.331816 0
M  V30 5842 C 533.393 1.92915 0.322955 0
M  V30 5843 C 533.773 1.26225 1.69205 0
M  V30 5844 O 533.121 0.408919 2.24811 0
M  V30 5845 C 533.331 3.46619 0.406946 0
M  V30 5846 C 534.679 4.19386 0.663339 0
M  V30 5847 O 535.703 3.5282 0.489536 0
M  V30 5848 O 534.562 5.37288 0.999193 0
M  V30 5849 H 531.656 0.805808 0.186016 0
M  V30 5850 H 534.202 1.65342 -0.382135 0
M  V30 5851 H 532.974 3.87354 -0.554287 0
M  V30 5852 H 532.597 3.80324 1.15929 0
M  V30 5853 N 533.594 0.0601682 1.57485 0
M  V30 5854 C 534.819 -0.624416 1.97777 0
M  V30 5855 C 535.244 -1.63051 0.937867 0
M  V30 5856 O 534.602 -1.81036 -0.0978845 0
M  V30 5857 C 534.65 -1.27979 3.37126 0
M  V30 5858 O 533.754 -2.39556 3.35688 0
M  V30 5859 H 533.095 -0.161581 0.64404 0
M  V30 5860 H 535.625 0.131237 2.04179 0
M  V30 5861 H 535.635 -1.62937 3.74053 0
M  V30 5862 H 534.31 -0.542501 4.12347 0
M  V30 5863 H 532.887 -2.06478 3.10517 0
M  V30 5864 N 535.072 -1.5615 -0.213296 0
M  V30 5865 C 536.319 -1.79546 -0.936462 0
M  V30 5866 C 536.647 -0.630337 -1.84003 0
M  V30 5867 O 535.902 0.384883 -1.91878 0
M  V30 5868 C 536.201 -3.08772 -1.79985 0
M  V30 5869 C 535.867 -4.38532 -1.04882 0
M  V30 5870 C 534.529 -4.73787 -0.841393 0
M  V30 5871 C 536.881 -5.18609 -0.51907 0
M  V30 5872 C 534.209 -5.86627 -0.0924403 0
M  V30 5873 C 536.561 -6.32229 0.216581 0
M  V30 5874 C 535.225 -6.6608 0.435191 0
M  V30 5875 H 534.495 -0.657004 -0.342676 0
M  V30 5876 H 537.142 -1.9041 -0.204051 0
M  V30 5877 H 535.447 -2.93065 -2.60038 0
M  V30 5878 H 537.144 -3.24077 -2.36168 0
M  V30 5879 H 533.734 -4.10855 -1.22048 0
M  V30 5880 H 537.918 -4.91801 -0.666775 0
M  V30 5881 H 533.174 -6.11338 0.087081 0
M  V30 5882 H 537.348 -6.93503 0.634538 0
M  V30 5883 H 534.975 -7.5336 1.01746 0
M  V30 5884 N 536.55 0.480323 -1.50102 0
M  V30 5885 C 537.46 1.60547 -1.71061 0
M  V30 5886 C 538.476 1.63564 -0.593529 0
M  V30 5887 O 539.652 1.81604 -0.870751 0
M  V30 5888 C 536.717 2.96814 -1.79171 0
M  V30 5889 C 535.778 3.04259 -3.02861 0
M  V30 5890 C 535.011 4.34027 -3.10574 0
M  V30 5891 O 535.234 5.24009 -2.25323 0
M  V30 5892 O 534.168 4.46873 -4.03223 0
M  V30 5893 H 537.994 1.45788 -2.6642 0
M  V30 5894 H 535.579 0.658838 -1.34088 0
M  V30 5895 H 537.461 3.77765 -1.86738 0
M  V30 5896 H 536.136 3.11791 -0.869947 0
M  V30 5897 H 535.043 2.22419 -3.008 0
M  V30 5898 H 536.376 2.94216 -3.94586 0
M  V30 5899 N 538.028 1.39524 0.732853 0
M  V30 5900 C 538.975 1.38416 1.84688 0
M  V30 5901 C 539.945 0.243539 1.64305 0
M  V30 5902 O 541.13 0.438979 1.85681 0
M  V30 5903 C 538.27 1.23555 3.22224 0
M  V30 5904 C 537.383 2.47179 3.54298 0
M  V30 5905 C 536.518 2.2489 4.81246 0
M  V30 5906 C 535.557 3.44178 5.0617 0
M  V30 5907 N 534.694 3.21192 6.24323 0
M  V30 5908 H 539.534 2.33645 1.84971 0
M  V30 5909 H 537.071 1.16059 0.903804 0
M  V30 5910 H 539.029 1.12949 4.0162 0
M  V30 5911 H 537.659 0.31954 3.21215 0
M  V30 5912 H 536.711 2.68379 2.69587 0
M  V30 5913 H 538.023 3.36022 3.68633 0
M  V30 5914 H 537.177 2.11538 5.68627 0
M  V30 5915 H 535.916 1.33443 4.69089 0
M  V30 5916 H 534.921 3.58025 4.17251 0
M  V30 5917 H 536.146 4.36528 5.20212 0
M  V30 5918 H 534.092 2.32413 6.1345 0
M  V30 5919 H 534.009 4.03594 6.39256 0
M  V30 5920 H 535.277 3.1154 7.14537 0
M  V30 5921 N 539.506 -0.963266 1.24736 0
M  V30 5922 C 540.917 -1.52145 1.08207 0
M  V30 5923 C 541.268 -1.93142 -0.345061 0
M  V30 5924 O 540.393 -1.77769 -1.23399 0
M  V30 5925 C 540.988 -2.76486 1.95808 0
M  V30 5926 C 539.547 -3.28646 1.8349 0
M  V30 5927 C 538.694 -2.01529 1.90476 0
M  V30 5928 H 541.645 -0.781083 1.38148 0
M  V30 5929 H 541.666 -3.49986 1.49297 0
M  V30 5930 H 541.178 -2.46617 2.99669 0
M  V30 5931 H 539.279 -3.63357 0.824787 0
M  V30 5932 H 539.392 -3.97246 2.67829 0
M  V30 5933 H 537.756 -2.16442 1.34258 0
M  V30 5934 H 538.539 -1.7402 2.95926 0
M  V30 5935 N 540.985 -1.06182 -1.16461 0
M  V30 5936 C 541.933 -0.665716 -2.2287 0
M  V30 5937 C 542.927 0.317822 -1.66392 0
M  V30 5938 O 544.133 0.182807 -1.79069 0
M  V30 5939 H 540.508 -0.197148 -0.725697 0
M  V30 5940 H 542.479 -1.57307 -2.53569 0
M  V30 5941 C 541.228 -0.0669803 -3.47635 0
M  V30 5942 H 540.551 -0.814899 -3.91407 0
M  V30 5943 H 541.991 0.172669 -4.23648 0
M  V30 5944 C 540.45 1.18913 -3.15216 0
M  V30 5945 O 540.98 2.27723 -3.30916 0
M  V30 5946 N 539.186 1.09066 -2.69357 0
M  V30 5947 H 538.733 0.20518 -2.56782 0
M  V30 5948 H 538.691 1.93195 -2.48039 0
M  V30 5949 N 542.463 1.3308 -0.844243 0
M  V30 5950 C 543.693 2.01515 -0.455541 0
M  V30 5951 C 544.101 1.63655 0.949406 0
M  V30 5952 O 543.444 0.84848 1.62931 0
M  V30 5953 C 543.506 3.55967 -0.502801 0
M  V30 5954 C 543.17 4.17222 -1.86481 0
M  V30 5955 C 544.167 4.36205 -2.8288 0
M  V30 5956 C 541.852 4.53528 -2.15911 0
M  V30 5957 C 543.846 4.90649 -4.06869 0
M  V30 5958 C 541.533 5.07679 -3.40155 0
M  V30 5959 C 542.531 5.26186 -4.35451 0
M  V30 5960 O 542.219 5.79183 -5.57496 0
M  V30 5961 H 541.951 0.65199 -0.178565 0
M  V30 5962 H 544.505 1.70867 -1.1399 0
M  V30 5963 H 542.735 3.85965 0.23836 0
M  V30 5964 H 544.424 4.05688 -0.131169 0
M  V30 5965 H 545.19 4.085 -2.61444 0
M  V30 5966 H 541.069 4.38414 -1.42528 0
M  V30 5967 H 544.613 5.0501 -4.81259 0
M  V30 5968 H 540.51 5.34815 -3.61446 0
M  V30 5969 H 541.278 5.97591 -5.5931 0
M  V30 5970 N 543.941 0.601185 1.45683 0
M  V30 5971 C 544.888 -0.121396 2.30481 0
M  V30 5972 C 545.858 -0.866232 1.41724 0
M  V30 5973 O 547.043 -0.85324 1.70659 0
M  V30 5974 C 544.183 -1.11704 3.26521 0
M  V30 5975 C 543.296 -0.373741 4.3038 0
M  V30 5976 C 542.431 -1.35854 5.13534 0
M  V30 5977 C 541.47 -0.602689 6.09126 0
M  V30 5978 N 540.607 -1.53645 6.85082 0
M  V30 5979 H 545.447 0.607732 2.91737 0
M  V30 5980 H 542.984 0.311502 1.43764 0
M  V30 5981 H 544.942 -1.70735 3.80664 0
M  V30 5982 H 543.572 -1.81366 2.67032 0
M  V30 5983 H 542.624 0.331962 3.78949 0
M  V30 5984 H 543.936 0.2163 4.98331 0
M  V30 5985 H 543.09 -2.02111 5.72046 0
M  V30 5986 H 541.829 -1.98251 4.45587 0
M  V30 5987 H 540.834 0.0735482 5.49751 0
M  V30 5988 H 542.059 0.0161467 6.79098 0
M  V30 5989 H 540.005 -2.14819 6.1983 0
M  V30 5990 H 539.922 -0.999688 7.49361 0
M  V30 5991 H 541.19 -2.1888 7.48139 0
M  V30 5992 N 545.419 -1.53889 0.339982 0
M  V30 5993 C 546.366 -2.24902 -0.518452 0
M  V30 5994 C 547.336 -1.24593 -1.09844 0
M  V30 5995 O 548.521 -1.53317 -1.13572 0
M  V30 5996 C 545.661 -3.02262 -1.66529 0
M  V30 5997 C 544.774 -4.17418 -1.11295 0
M  V30 5998 C 543.909 -4.82273 -2.2268 0
M  V30 5999 C 542.948 -5.89503 -1.6478 0
M  V30 6000 N 542.085 -6.48153 -2.69893 0
M  V30 6001 H 546.925 -2.97853 0.0936579 0
M  V30 6002 H 544.462 -1.46986 0.0579924 0
M  V30 6003 H 546.42 -3.45371 -2.3404 0
M  V30 6004 H 545.05 -2.31614 -2.24844 0
M  V30 6005 H 544.102 -3.78976 -0.328886 0
M  V30 6006 H 545.414 -4.94554 -0.649414 0
M  V30 6007 H 544.568 -5.28435 -2.98063 0
M  V30 6008 H 543.307 -4.04552 -2.72376 0
M  V30 6009 H 542.312 -5.42728 -0.879004 0
M  V30 6010 H 543.537 -6.6913 -1.1594 0
M  V30 6011 H 541.483 -5.73298 -3.1885 0
M  V30 6012 H 541.4 -7.20752 -2.28151 0
M  V30 6013 H 542.668 -6.98968 -3.45056 0
M  V30 6014 N 546.897 -0.0685191 -1.57451 0
M  V30 6015 C 548.313 0.288101 -1.56978 0
M  V30 6016 C 548.513 1.70262 -1.07765 0
M  V30 6017 O 547.569 2.4135 -0.742054 0
M  V30 6018 C 548.882 0.100745 -3.00531 0
M  V30 6019 C 550.43 0.170531 -3.12535 0
M  V30 6020 C 550.905 0.0114944 -4.57999 0
M  V30 6021 N 552.396 0.0672065 -4.63151 0
M  V30 6022 C 553.131 -0.0314813 -5.73391 0
M  V30 6023 N 552.627 -0.183503 -6.92557 0
M  V30 6024 N 554.42 0.0253489 -5.62094 0
M  V30 6025 H 546.571 -0.993026 -1.87757 0
M  V30 6026 H 548.834 -0.386981 -0.865419 0
M  V30 6027 H 548.54 -0.875197 -3.40636 0
M  V30 6028 H 548.414 0.854457 -3.67395 0
M  V30 6029 H 550.801 1.13696 -2.72318 0
M  V30 6030 H 550.882 -0.614229 -2.48316 0
M  V30 6031 H 550.526 -0.951684 -4.98904 0
M  V30 6032 H 550.456 0.815617 -5.20245 0
M  V30 6033 H 552.947 0.183246 -3.77455 0
M  V30 6034 H 553.26 -0.251041 -7.72392 0
M  V30 6035 H 551.605 -0.218822 -6.94655 0
M  V30 6036 H 554.796 0.142794 -4.67882 0
M  V30 6037 H 554.969 -0.0550166 -6.47977 0
M  V30 6038 N 548.375 1.56261 0.205012 0
M  V30 6039 C 549.305 1.96779 1.257 0
M  V30 6040 C 550.286 0.838309 1.48008 0
M  V30 6041 O 551.471 1.10189 1.59913 0
M  V30 6042 C 548.601 2.29876 2.60335 0
M  V30 6043 C 547.555 3.45469 2.52656 0
M  V30 6044 C 546.881 3.64215 3.91473 0
M  V30 6045 C 548.181 4.79954 2.06014 0
M  V30 6046 H 549.875 2.84904 0.920338 0
M  V30 6047 H 547.421 1.37072 0.441277 0
M  V30 6048 H 549.374 2.56814 3.34102 0
M  V30 6049 H 548.098 1.38622 2.95722 0
M  V30 6050 H 546.757 3.18605 1.81345 0
M  V30 6051 H 546.405 2.70309 4.24196 0
M  V30 6052 H 546.105 4.41973 3.87213 0
M  V30 6053 H 547.629 3.93519 4.66878 0
M  V30 6054 H 549.043 5.05989 2.69533 0
M  V30 6055 H 547.44 5.61111 2.12777 0
M  V30 6056 H 548.51 4.74201 1.01297 0
M  V30 6057 N 549.853 -0.472356 1.50355 0
M  V30 6058 C 550.801 -1.59126 1.69651 0
M  V30 6059 C 551.795 -1.59793 0.56237 0
M  V30 6060 O 553.001 -1.63957 0.742832 0
M  V30 6061 H 549.376 -0.528008 0.535454 0
M  V30 6062 H 551.347 -1.40013 2.63513 0
M  V30 6063 C 550.096 -2.97075 1.8067 0
M  V30 6064 H 549.419 -2.9728 2.67329 0
M  V30 6065 H 550.859 -3.74825 1.98197 0
M  V30 6066 C 549.318 -3.32247 0.558016 0
M  V30 6067 O 549.848 -4.00553 -0.303399 0
M  V30 6068 N 548.054 -2.87659 0.412415 0
M  V30 6069 H 547.601 -2.32246 1.11443 0
M  V30 6070 H 547.559 -3.11556 -0.421908 0
M  V30 6071 N 551.331 -1.39911 -0.725443 0
M  V30 6072 C 552.241 -1.41688 -1.8698 0
M  V30 6073 C 553.257 -0.310579 -1.71206 0
M  V30 6074 O 554.433 -0.55359 -1.93642 0
M  V30 6075 C 551.498 -1.26811 -3.22676 0
M  V30 6076 C 550.559 -2.47497 -3.50776 0
M  V30 6077 C 549.792 -2.3332 -4.79997 0
M  V30 6078 O 550.015 -1.34175 -5.54394 0
M  V30 6079 O 548.949 -3.22498 -5.08211 0
M  V30 6080 H 552.775 -2.38171 -1.88436 0
M  V30 6081 H 550.36 -1.21128 -0.874548 0
M  V30 6082 H 552.242 -1.20684 -4.03749 0
M  V30 6083 H 550.917 -0.334289 -3.21969 0
M  V30 6084 H 549.824 -2.59201 -2.69751 0
M  V30 6085 H 551.157 -3.39606 -3.5627 0
M  V30 6086 N 552.809 0.956637 -1.25245 0
M  V30 6087 C 553.739 2.07058 -1.07931 0
M  V30 6088 C 554.72 1.70096 0.0110361 0
M  V30 6089 O 555.905 1.93555 -0.158121 0
M  V30 6090 C 553.035 3.40272 -0.695124 0
M  V30 6091 C 551.989 3.91235 -1.73549 0
M  V30 6092 C 551.315 5.20921 -1.20604 0
M  V30 6093 C 552.615 4.17837 -3.13385 0
M  V30 6094 H 554.309 2.218 -2.01109 0
M  V30 6095 H 551.855 1.06581 -0.968326 0
M  V30 6096 H 553.808 4.1765 -0.560949 0
M  V30 6097 H 552.532 3.25462 0.272355 0
M  V30 6098 H 551.191 3.16025 -1.85807 0
M  V30 6099 H 550.839 5.02479 -0.228846 0
M  V30 6100 H 550.539 5.55987 -1.90136 0
M  V30 6101 H 552.063 6.00897 -1.08421 0
M  V30 6102 H 553.477 4.8588 -3.04292 0
M  V30 6103 H 551.874 4.64154 -3.80369 0
M  V30 6104 H 552.944 3.2419 -3.60595 0
M  V30 6105 N 554.287 1.06798 1.15896 0
M  V30 6106 C 555.536 0.782796 1.8589 0
M  V30 6107 C 555.849 -0.693498 1.82893 0
M  V30 6108 O 557.055 -1.09325 2.48516 0
M  V30 6109 C 555.511 1.3502 3.33613 0
M  V30 6110 C 555.119 2.8571 3.45071 0
M  V30 6111 C 556.863 1.14278 4.08829 0
M  V30 6112 C 554.77 3.35669 4.86909 0
M  V30 6113 H 553.7 0.289149 0.696354 0
M  V30 6114 H 556.351 1.28734 1.30766 0
M  V30 6115 H 554.733 0.773407 3.88374 0
M  V30 6116 H 555.907 3.49385 3.00445 0
M  V30 6117 H 554.222 3.05178 2.83294 0
M  V30 6118 H 556.819 1.49087 5.13495 0
M  V30 6119 H 557.162 0.0814575 4.1622 0
M  V30 6120 H 557.695 1.68563 3.60321 0
M  V30 6121 H 554.434 4.41302 4.84698 0
M  V30 6122 H 553.954 2.76745 5.32139 0
M  V30 6123 H 555.633 3.31296 5.55745 0
M  V30 6124 N 555.766 -1.3263 0.851289 0
M  V30 6125 C 556.994 -2.01563 0.466899 0
M  V30 6126 C 557.409 -1.63996 -0.935447 0
M  V30 6127 O 556.766 -0.85957 -1.6099 0
M  V30 6128 C 556.817 -3.56613 0.592433 0
M  V30 6129 O 556.538 -3.92828 1.93954 0
M  V30 6130 C 558.039 -4.42818 0.206612 0
M  V30 6131 H 555.259 -0.645307 0.183902 0
M  V30 6132 H 557.803 -1.69285 1.1473 0
M  V30 6133 H 555.958 -3.87379 -0.0401936 0
M  V30 6134 H 556.372 -4.87545 1.9339 0
M  V30 6135 H 557.846 -5.50918 0.345462 0
M  V30 6136 H 558.323 -4.30844 -0.85264 0
M  V30 6137 H 558.929 -4.17434 0.814176 0
M  V30 6138 N 557.244 -0.608902 -1.45362 0
M  V30 6139 C 558.521 -0.0365378 -1.95566 0
M  V30 6140 C 558.901 1.43169 -1.55131 0
M  V30 6141 O 558.249 2.1349 -0.814513 0
M  V30 6142 C 558.459 -0.236026 -3.48201 0
M  V30 6143 C 559.807 -0.117518 -4.24437 0
M  V30 6144 O 560.831 -0.166217 -3.55812 0
M  V30 6145 O 559.69 -0.00372127 -5.465 0
M  V30 6146 H 556.784 0.0349874 -0.82626 0
M  V30 6147 H 559.33 -0.679055 -1.55521 0
M  V30 6148 H 558.102 -1.25569 -3.70605 0
M  V30 6149 H 557.725 0.441691 -3.95139 0
M  V30 6150 N 558.722 1.53707 -0.348139 0
M  V30 6151 C 559.685 2.23812 0.494058 0
M  V30 6152 C 560.685 1.23989 1.02388 0
M  V30 6153 O 561.875 1.48395 0.912396 0
M  V30 6154 C 559.007 2.96133 1.68872 0
M  V30 6155 H 560.2 2.99663 -0.119141 0
M  V30 6156 H 557.753 1.55983 -0.0995539 0
M  V30 6157 H 558.488 2.24481 2.34049 0
M  V30 6158 H 558.273 3.69357 1.31596 0
M  V30 6159 H 559.763 3.49475 2.28597 0
M  V30 6160 N 560.2 0.0768682 1.57412 0
M  V30 6161 C 561.13 -0.886026 2.16037 0
M  V30 6162 C 562.111 -1.30691 1.08876 0
M  V30 6163 O 563.296 -1.37705 1.36934 0
M  V30 6164 C 560.426 -2.1518 2.72608 0
M  V30 6165 C 559.38 -1.87015 3.8498 0
M  V30 6166 C 558.706 -3.20266 4.28175 0
M  V30 6167 C 560.006 -1.17143 5.08994 0
M  V30 6168 H 561.7 -0.397642 2.96748 0
M  V30 6169 H 559.246 -0.189823 1.42743 0
M  V30 6170 H 561.199 -2.82962 3.12266 0
M  V30 6171 H 559.923 -2.66269 1.89125 0
M  V30 6172 H 558.582 -1.21636 3.45833 0
M  V30 6173 H 558.23 -3.69207 3.41607 0
M  V30 6174 H 557.93 -3.0221 5.03927 0
M  V30 6175 H 559.454 -3.89237 4.70454 0
M  V30 6176 H 560.868 -1.75003 5.45937 0
M  V30 6177 H 559.265 -1.09328 5.90057 0
M  V30 6178 H 560.335 -0.151295 4.84664 0
M  V30 6179 N 561.678 -1.56367 -0.196722 0
M  V30 6180 C 562.927 -1.79724 -0.915539 0
M  V30 6181 C 563.24 -0.649804 -1.84491 0
M  V30 6182 O 564.446 -0.767631 -2.60422 0
M  V30 6183 C 562.902 -3.18369 -1.67836 0
M  V30 6184 C 562.51 -4.4091 -0.793897 0
M  V30 6185 C 564.254 -3.51037 -2.38691 0
M  V30 6186 C 562.161 -5.70577 -1.55549 0
M  V30 6187 H 561.091 -0.67013 -0.345604 0
M  V30 6188 H 563.742 -1.82721 -0.168856 0
M  V30 6189 H 562.124 -3.09617 -2.46887 0
M  V30 6190 H 563.298 -4.60781 -0.042163 0
M  V30 6191 H 561.613 -4.15937 -0.19626 0
M  V30 6192 H 564.21 -4.4515 -2.96219 0
M  V30 6193 H 564.553 -2.74704 -3.12799 0
M  V30 6194 H 565.086 -3.61229 -1.66608 0
M  V30 6195 H 561.825 -6.49871 -0.857226 0
M  V30 6196 H 561.345 -5.54726 -2.2812 0
M  V30 6197 H 563.024 -6.11637 -2.10971 0
M  V30 6198 N 563.156 0.464375 -1.50603 0
M  V30 6199 C 564.384 1.23907 -1.65695 0
M  V30 6200 C 564.799 1.85658 -0.343027 0
M  V30 6201 O 564.156 1.69529 0.675739 0
M  V30 6202 C 564.207 2.3429 -2.75301 0
M  V30 6203 O 563.928 1.7507 -4.01599 0
M  V30 6204 C 565.429 3.25051 -3.01424 0
M  V30 6205 H 562.649 0.374485 -0.556778 0
M  V30 6206 H 565.193 0.55353 -1.96866 0
M  V30 6207 H 563.348 2.98607 -2.46804 0
M  V30 6208 H 563.762 2.47812 -4.62266 0
M  V30 6209 H 565.236 3.98699 -3.81763 0
M  V30 6210 H 565.713 3.84227 -2.12758 0
M  V30 6211 H 566.319 2.66463 -3.31477 0
M  V30 6212 N 564.634 1.40294 0.718013 0
M  V30 6213 C 565.859 1.41941 1.5122 0
M  V30 6214 C 566.284 0.0202371 1.88089 0
M  V30 6215 O 565.642 -0.971078 1.53101 0
M  V30 6216 C 565.69 2.3141 2.76554 0
M  V30 6217 O 564.794 1.75567 3.73162 0
M  V30 6218 H 564.135 0.482644 0.456016 0
M  V30 6219 H 566.665 1.84494 0.884478 0
M  V30 6220 H 566.675 2.46513 3.25108 0
M  V30 6221 H 565.35 3.33085 2.49053 0
M  V30 6222 H 563.927 1.69798 3.31999 0
M  V30 6223 N 566.112 -0.949982 1.2575 0
M  V30 6224 C 567.059 -2.04738 1.06541 0
M  V30 6225 C 568.029 -1.66078 -0.0268818 0
M  V30 6226 O 569.214 -1.90348 0.131196 0
M  V30 6227 C 566.354 -3.38027 0.695127 0
M  V30 6228 C 565.467 -3.89776 1.86276 0
M  V30 6229 C 564.602 -5.11411 1.4364 0
M  V30 6230 C 563.641 -5.554 2.57287 0
M  V30 6231 N 562.778 -6.68244 2.15395 0
M  V30 6232 H 567.618 -2.20502 2.00457 0
M  V30 6233 H 565.155 -1.0805 0.998178 0
M  V30 6234 H 567.113 -4.14641 0.461375 0
M  V30 6235 H 565.743 -3.22135 -0.207046 0
M  V30 6236 H 564.795 -3.0964 2.20969 0
M  V30 6237 H 566.107 -4.18368 2.71606 0
M  V30 6238 H 565.261 -5.95457 1.16257 0
M  V30 6239 H 564 -4.84545 0.553879 0
M  V30 6240 H 563.005 -4.69916 2.85409 0
M  V30 6241 H 564.23 -5.84272 3.46125 0
M  V30 6242 H 562.176 -6.43078 1.29565 0
M  V30 6243 H 562.093 -6.96377 2.94272 0
M  V30 6244 H 563.361 -7.55687 1.91201 0
M  V30 6245 N 567.59 -1.07411 -1.15328 0
M  V30 6246 C 568.537 -0.694995 -2.20087 0
M  V30 6247 C 569.507 0.313904 -1.63107 0
M  V30 6248 O 570.692 0.200216 -1.89747 0
M  V30 6249 C 567.832 -0.0996218 -3.44956 0
M  V30 6250 C 566.945 -1.16007 -4.16133 0
M  V30 6251 C 566.08 -0.529636 -5.28553 0
M  V30 6252 C 565.119 -1.57283 -5.91548 0
M  V30 6253 N 564.256 -0.964932 -6.95438 0
M  V30 6254 H 569.096 -1.5927 -2.51867 0
M  V30 6255 H 566.633 -0.796115 -1.23695 0
M  V30 6256 H 568.591 0.263197 -4.16369 0
M  V30 6257 H 567.221 0.761435 -3.13691 0
M  V30 6258 H 566.273 -1.64045 -3.4321 0
M  V30 6259 H 567.585 -1.95101 -4.59061 0
M  V30 6260 H 566.739 -0.114487 -6.06592 0
M  V30 6261 H 565.478 0.29307 -4.86819 0
M  V30 6262 H 564.483 -1.99775 -5.12221 0
M  V30 6263 H 565.708 -2.39783 -6.35359 0
M  V30 6264 H 563.654 -0.16314 -6.55797 0
M  V30 6265 H 563.571 -1.69311 -7.36797 0
M  V30 6266 H 564.839 -0.575305 -7.77374 0
M  V30 6267 N 569.068 1.32177 -0.85831 0
M  V30 6268 C 570.315 1.97125 -0.463484 0
M  V30 6269 C 570.643 1.67907 0.981705 0
M  V30 6270 O 569.898 0.961717 1.70439 0
M  V30 6271 C 570.197 3.51372 -0.653658 0
M  V30 6272 C 569.863 4.00584 -2.06987 0
M  V30 6273 C 568.525 4.13733 -2.4572 0
M  V30 6274 C 570.877 4.26624 -2.99402 0
M  V30 6275 C 568.205 4.50268 -3.76132 0
M  V30 6276 C 570.557 4.64618 -4.29316 0
M  V30 6277 C 569.221 4.75975 -4.67979 0
M  V30 6278 H 568.491 0.72133 -0.169601 0
M  V30 6279 H 571.138 1.57517 -1.08907 0
M  V30 6280 H 569.443 3.91761 0.0551328 0
M  V30 6281 H 571.14 3.99655 -0.328163 0
M  V30 6282 H 567.73 3.90837 -1.75911 0
M  V30 6283 H 571.914 4.1597 -2.70708 0
M  V30 6284 H 567.17 4.57256 -4.05865 0
M  V30 6285 H 571.344 4.83722 -5.00985 0
M  V30 6286 H 568.971 5.04041 -5.69076 0
M  V30 6287 N 570.547 0.616602 1.45037 0
M  V30 6288 C 571.795 0.115103 2.01772 0
M  V30 6289 C 572.116 -1.2622 1.48639 0
M  V30 6290 O 571.386 -1.83563 0.684199 0
M  V30 6291 H 569.966 0.0395607 0.745952 0
M  V30 6292 H 572.628 0.800032 1.77723 0
M  V30 6293 H 571.724 0.0717274 3.12018 0
M  V30 6294 N 572.025 -1.5352 0.356285 0
M  V30 6295 C 573.271 -2.01414 -0.236653 0
M  V30 6296 C 573.604 -1.24339 -1.49176 0
M  V30 6297 O 572.879 -0.334496 -1.91602 0
M  V30 6298 C 573.162 -3.56059 -0.537982 0
M  V30 6299 C 573.015 -4.43835 0.730112 0
M  V30 6300 C 574.334 -4.19127 -1.34239 0
M  V30 6301 H 571.453 -0.732135 -0.0845386 0
M  V30 6302 H 574.095 -1.83854 0.479341 0
M  V30 6303 H 572.245 -3.71153 -1.14795 0
M  V30 6304 H 573.917 -4.40555 1.36782 0
M  V30 6305 H 572.16 -4.1218 1.3524 0
M  V30 6306 H 572.831 -5.49958 0.474358 0
M  V30 6307 H 575.307 -4.07809 -0.826498 0
M  V30 6308 H 574.183 -5.27378 -1.52198 0
M  V30 6309 H 574.444 -3.74581 -2.34822 0
M  V30 6310 N 573.503 -0.0852151 -1.57369 0
M  V30 6311 C 574.78 0.622534 -1.85429 0
M  V30 6312 C 575.16 1.86962 -0.980229 0
M  V30 6313 O 574.508 2.28445 -0.0500219 0
M  V30 6314 C 574.718 0.947374 -3.35896 0
M  V30 6315 C 576.066 1.31509 -4.03721 0
M  V30 6316 O 577.09 1.03869 -3.40719 0
M  V30 6317 O 575.949 1.83231 -5.14868 0
M  V30 6318 H 573.043 0.310513 -0.766492 0
M  V30 6319 H 575.589 -0.117164 -1.69295 0
M  V30 6320 H 574.361 0.0622264 -3.91251 0
M  V30 6321 H 573.984 1.74338 -3.5734 0
M  V30 6322 N 574.981 1.5647 0.188427 0
M  V30 6323 C 576.227 1.81281 0.909124 0
M  V30 6324 C 576.56 0.66034 1.82628 0
M  V30 6325 O 575.835 -0.338737 1.91528 0
M  V30 6326 C 576.118 3.16388 1.7196 0
M  V30 6327 C 575.971 4.42137 0.826714 0
M  V30 6328 C 577.29 3.48256 2.69083 0
M  V30 6329 H 574.409 0.659457 0.329068 0
M  V30 6330 H 577.051 1.89182 0.176156 0
M  V30 6331 H 575.201 3.09784 2.34448 0
M  V30 6332 H 576.873 4.60794 0.216025 0
M  V30 6333 H 575.116 4.33594 0.133792 0
M  V30 6334 H 575.787 5.33184 1.42893 0
M  V30 6335 H 578.263 3.55203 2.16726 0
M  V30 6336 H 577.139 4.43899 3.2287 0
M  V30 6337 H 577.4 2.72088 3.48455 0
M  V30 6338 N 576.459 -0.456382 1.50847 0
M  V30 6339 C 577.706 -1.20736 1.62571 0
M  V30 6340 C 578.034 -1.9163 0.332904 0
M  V30 6341 O 577.289 -1.8343 -0.682058 0
M  V30 6342 C 577.588 -2.26336 2.76599 0
M  V30 6343 C 577.254 -1.7259 4.16562 0
M  V30 6344 C 575.916 -1.57654 4.54641 0
M  V30 6345 C 578.268 -1.32877 5.03977 0
M  V30 6346 C 575.596 -1.0145 5.77862 0
M  V30 6347 C 577.948 -0.7811 6.27759 0
M  V30 6348 C 576.612 -0.618488 6.64628 0
M  V30 6349 H 575.882 -0.441803 0.594888 0
M  V30 6350 H 578.529 -0.501169 1.84826 0
M  V30 6351 H 576.834 -3.0292 2.48489 0
M  V30 6352 H 578.531 -2.84227 2.82871 0
M  V30 6353 H 575.121 -1.85187 3.86528 0
M  V30 6354 H 579.305 -1.43245 4.75179 0
M  V30 6355 H 574.561 -0.876109 6.0509 0
M  V30 6356 H 578.735 -0.464783 6.94847 0
M  V30 6357 H 576.362 -0.180838 7.59985 0
M  V30 6358 N 577.937 -1.40673 -0.710563 0
M  V30 6359 C 578.885 -1.41517 -1.84596 0
M  V30 6360 C 579.879 -0.295043 -1.66811 0
M  V30 6361 O 581.085 -0.466331 -1.73854 0
M  V30 6362 H 577.46 -0.442467 -0.608052 0
M  V30 6363 H 579.431 -2.37238 -1.80999 0
M  V30 6364 C 578.18 -1.29957 -3.225 0
M  V30 6365 H 577.503 -2.15429 -3.36794 0
M  V30 6366 H 578.943 -1.34608 -4.02066 0
M  V30 6367 C 577.402 -0.0103164 -3.36898 0
M  V30 6368 O 577.932 0.950707 -3.90288 0
M  V30 6369 N 576.138 0.0608409 -2.90536 0
M  V30 6370 H 575.685 -0.721943 -2.47277 0
M  V30 6371 H 575.643 0.92292 -3.00549 0
M  V30 6372 N 579.415 0.9433 -1.26252 0
M  V30 6373 C 580.655 1.70397 -1.1289 0
M  V30 6374 C 581.019 1.89268 0.322713 0
M  V30 6375 O 582.22 2.62503 0.578418 0
M  V30 6376 C 580.491 3.04296 -1.87453 0
M  V30 6377 S 582.05 3.95475 -1.90119 0
M  V30 6378 H 578.868 0.585559 -0.403289 0
M  V30 6379 H 581.47 1.12424 -1.59941 0
M  V30 6380 H 580.174 2.8824 -2.9214 0
M  V30 6381 H 579.705 3.67327 -1.40835 0
M  V30 6382 H 581.72 4.86297 -0.986373 0
M  V30 6383 N 580.893 1.08022 1.14757 0
M  V30 6384 C 581.823 0.728248 2.21853 0
M  V30 6385 C 582.804 -0.287486 1.67653 0
M  V30 6386 O 583.989 -0.158727 1.9355 0
M  V30 6387 C 581.119 0.132549 3.47047 0
M  V30 6388 C 580.073 1.07619 4.14249 0
M  V30 6389 C 579.399 0.342907 5.33599 0
M  V30 6390 C 580.699 2.41268 4.63235 0
M  V30 6391 H 582.393 1.62365 2.51551 0
M  V30 6392 H 579.939 0.782125 1.20908 0
M  V30 6393 H 581.892 -0.125665 4.21213 0
M  V30 6394 H 580.616 -0.797971 3.16702 0
M  V30 6395 H 579.275 1.31944 3.42033 0
M  V30 6396 H 578.923 -0.59129 4.99513 0
M  V30 6397 H 578.623 0.971955 5.79506 0
M  V30 6398 H 580.147 0.0926538 6.1053 0
M  V30 6399 H 581.561 2.21232 5.28894 0
M  V30 6400 H 579.958 2.9983 5.19829 0
M  V30 6401 H 581.028 3.03079 3.78512 0
M  V30 6402 N 582.371 -1.3172 0.865308 0
M  V30 6403 C 583.599 -2.01057 0.488251 0
M  V30 6404 C 584.014 -1.64979 -0.918 0
M  V30 6405 O 583.371 -0.876597 -1.60069 0
M  V30 6406 C 583.422 -3.55964 0.630224 0
M  V30 6407 O 583.143 -3.90749 1.98109 0
M  V30 6408 C 584.644 -4.42574 0.253567 0
M  V30 6409 H 581.864 -0.64332 0.190736 0
M  V30 6410 H 584.408 -1.68058 1.16519 0
M  V30 6411 H 582.563 -3.874 0.000895422 0
M  V30 6412 H 582.977 -4.85467 1.9855 0
M  V30 6413 H 584.451 -5.50521 0.403875 0
M  V30 6414 H 584.928 -4.31724 -0.806895 0
M  V30 6415 H 585.534 -4.16547 0.858404 0
M  V30 6416 N 583.85 -0.624285 -1.44708 0
M  V30 6417 C 585.09 -0.129273 -2.03991 0
M  V30 6418 C 585.454 1.22321 -1.47992 0
M  V30 6419 O 586.654 1.80993 -1.98734 0
M  V30 6420 C 584.926 -0.108231 -3.57236 0
M  V30 6421 S 586.485 0.323158 -4.37608 0
M  V30 6422 H 583.303 -0.0577318 -0.708652 0
M  V30 6423 H 585.904 -0.826139 -1.77187 0
M  V30 6424 H 584.609 -1.0958 -3.955 0
M  V30 6425 H 584.139 0.610101 -3.8864 0
M  V30 6426 H 586.154 1.56894 -4.70743 0
M  V30 6427 N 585.328 1.53329 -0.364422 0
M  V30 6428 C 586.26 2.23286 0.517293 0
M  V30 6429 C 587.273 1.24657 1.04711 0
M  V30 6430 O 588.462 1.50887 0.95369 0
M  V30 6431 C 585.562 2.91604 1.72685 0
M  V30 6432 C 584.735 4.1673 1.32873 0
M  V30 6433 C 583.794 4.68269 2.40022 0
M  V30 6434 O 582.82 5.31976 2.02461 0
M  V30 6435 N 584.022 4.45983 3.7159 0
M  V30 6436 H 586.787 2.99588 -0.0819391 0
M  V30 6437 H 584.348 1.60787 -0.189544 0
M  V30 6438 H 586.34 3.22992 2.4384 0
M  V30 6439 H 584.91 2.18763 2.23297 0
M  V30 6440 H 584.13 3.91657 0.447069 0
M  V30 6441 H 585.418 4.98078 1.03902 0
M  V30 6442 H 584.816 3.95077 4.04883 0
M  V30 6443 H 583.373 4.81924 4.38854 0
M  V30 6444 N 586.806 0.0935595 1.57322 0
M  V30 6445 C 588.083 -0.612692 1.85756 0
M  V30 6446 C 588.463 -1.86439 0.99013 0
M  V30 6447 O 587.811 -2.28416 0.0621362 0
M  V30 6448 C 588.021 -0.929547 3.36393 0
M  V30 6449 C 589.369 -1.29366 4.04413 0
M  V30 6450 O 590.393 -1.02061 3.41265 0
M  V30 6451 O 589.252 -1.80498 5.15832 0
M  V30 6452 H 586.346 -0.306444 0.768128 0
M  V30 6453 H 588.892 0.126141 1.69231 0
M  V30 6454 H 587.664 -0.0414766 3.91278 0
M  V30 6455 H 587.287 -1.72441 3.5826 0
M  V30 6456 N 588.284 -1.56567 -0.180126 0
M  V30 6457 C 589.232 -1.96632 -1.24251 0
M  V30 6458 C 590.226 -0.853818 -1.46309 0
M  V30 6459 O 591.432 -1.0389 -1.46993 0
M  V30 6460 H 587.807 -0.625476 -0.417473 0
M  V30 6461 H 589.778 -2.85201 -0.877679 0
M  V30 6462 C 588.527 -2.33486 -2.57642 0
M  V30 6463 H 587.85 -3.18626 -2.4149 0
M  V30 6464 H 589.29 -2.65371 -3.30688 0
M  V30 6465 C 587.749 -1.17499 -3.15746 0
M  V30 6466 O 588.279 -0.457956 -3.99081 0
M  V30 6467 N 586.485 -0.94786 -2.74707 0
M  V30 6468 H 586.032 -1.53269 -2.07042 0
M  V30 6469 H 585.99 -0.173626 -3.1392 0
M  V30 6470 N 589.762 0.448376 -1.51087 0
M  V30 6471 C 590.99 1.22143 -1.66999 0
M  V30 6472 C 591.405 1.85283 -0.362699 0
M  V30 6473 O 590.762 1.70236 0.65772 0
M  V30 6474 C 590.813 2.31357 -2.7777 0
M  V30 6475 O 590.534 1.70801 -4.03434 0
M  V30 6476 C 592.035 3.21836 -3.04855 0
M  V30 6477 H 589.255 0.368558 -0.560719 0
M  V30 6478 H 591.799 0.532618 -1.97442 0
M  V30 6479 H 589.954 2.95973 -2.49958 0
M  V30 6480 H 590.368 2.42895 -4.64868 0
M  V30 6481 H 591.842 3.94627 -3.85971 0
M  V30 6482 H 592.319 3.81949 -2.16821 0
M  V30 6483 H 592.925 2.62933 -3.34285 0
M  V30 6484 N 591.24 1.41047 0.703093 0
M  V30 6485 C 592.47 1.43133 1.48985 0
M  V30 6486 C 592.878 0.0328537 1.89171 0
M  V30 6487 O 592.221 -0.956469 1.56835 0
M  V30 6488 C 592.283 2.26991 2.78775 0
M  V30 6489 C 591.947 3.7525 2.60837 0
M  V30 6490 C 592.944 4.67591 2.27276 0
M  V30 6491 C 590.629 4.19208 2.76712 0
M  V30 6492 C 592.623 6.01877 2.09817 0
M  V30 6493 C 590.31 5.53561 2.5887 0
M  V30 6494 C 591.308 6.4471 2.25472 0
M  V30 6495 O 590.996 7.76584 2.07778 0
M  V30 6496 H 590.728 0.489788 0.465922 0
M  V30 6497 H 593.282 1.85886 0.873822 0
M  V30 6498 H 591.512 1.79038 3.42757 0
M  V30 6499 H 593.201 2.20867 3.40547 0
M  V30 6500 H 593.967 4.34923 2.14633 0
M  V30 6501 H 589.846 3.48572 3.01693 0
M  V30 6502 H 593.39 6.72986 1.83671 0
M  V30 6503 H 589.287 5.85811 2.71102 0
M  V30 6504 H 590.055 7.87649 2.22601 0
M  V30 6505 N 592.718 -0.936591 1.26751 0
M  V30 6506 C 593.965 -1.68331 1.12566 0
M  V30 6507 C 594.293 -1.91677 -0.330168 0
M  V30 6508 O 593.548 -1.49859 -1.2586 0
M  V30 6509 C 593.847 -3.06099 1.84494 0
M  V30 6510 C 593.513 -3.02493 3.34378 0
M  V30 6511 C 592.175 -3.01217 3.75262 0
M  V30 6512 C 594.527 -2.94453 4.30055 0
M  V30 6513 C 591.855 -2.89672 5.10203 0
M  V30 6514 C 594.207 -2.84449 5.65041 0
M  V30 6515 C 592.871 -2.81518 6.0523 0
M  V30 6516 H 592.141 -0.615965 0.411907 0
M  V30 6517 H 594.788 -1.09292 1.5725 0
M  V30 6518 H 593.093 -3.6879 1.32292 0
M  V30 6519 H 594.79 -3.62733 1.70955 0
M  V30 6520 H 591.38 -3.04269 3.01858 0
M  V30 6521 H 595.564 -2.94544 3.99447 0
M  V30 6522 H 590.82 -2.85783 5.40498 0
M  V30 6523 H 594.994 -2.77192 6.38856 0
M  V30 6524 H 592.621 -2.72329 7.09747 0
M  V30 6525 N 594.196 -1.08629 -1.14182 0
M  V30 6526 C 595.126 -0.740003 -2.21464 0
M  V30 6527 C 596.107 0.278591 -1.67803 0
M  V30 6528 O 597.292 0.148461 -1.93632 0
M  V30 6529 C 594.422 -0.150952 -3.46972 0
M  V30 6530 C 593.376 -1.09815 -4.13672 0
M  V30 6531 C 592.702 -0.3712 -5.3341 0
M  V30 6532 C 594.002 -2.43722 -4.61949 0
M  V30 6533 H 595.696 -1.63697 -2.50686 0
M  V30 6534 H 593.242 -0.788526 -1.20492 0
M  V30 6535 H 595.195 0.103325 -4.21273 0
M  V30 6536 H 593.919 0.781164 -3.1712 0
M  V30 6537 H 592.578 -1.33756 -3.41328 0
M  V30 6538 H 592.226 0.564792 -4.99819 0
M  V30 6539 H 591.926 -1.00267 -5.78982 0
M  V30 6540 H 593.45 -0.12503 -6.10472 0
M  V30 6541 H 594.864 -2.24034 -5.27714 0
M  V30 6542 H 593.261 -3.02582 -5.18232 0
M  V30 6543 H 594.331 -3.05082 -3.76899 0
M  V30 6544 N 595.674 1.31259 -0.872281 0
M  V30 6545 C 596.621 2.28459 -0.327857 0
M  V30 6546 C 597.591 1.55831 0.574957 0
M  V30 6547 O 598.776 1.83965 0.506101 0
M  V30 6548 C 595.916 3.41985 0.462644 0
M  V30 6549 C 595.029 4.29458 -0.467949 0
M  V30 6550 C 594.164 5.30131 0.336903 0
M  V30 6551 C 593.203 6.0925 -0.58997 0
M  V30 6552 N 592.34 7.01872 0.178775 0
M  V30 6553 H 597.18 2.74414 -1.16193 0
M  V30 6554 H 594.717 1.34994 -0.584376 0
M  V30 6555 H 596.675 4.06547 0.936759 0
M  V30 6556 H 595.305 2.97134 1.2614 0
M  V30 6557 H 594.357 3.65318 -1.06052 0
M  V30 6558 H 595.669 4.84677 -1.17856 0
M  V30 6559 H 594.823 6.0038 0.873427 0
M  V30 6560 H 593.562 4.75573 1.08079 0
M  V30 6561 H 592.567 5.37889 -1.13823 0
M  V30 6562 H 593.792 6.65894 -1.33275 0
M  V30 6563 H 591.738 6.49721 0.905435 0
M  V30 6564 H 591.655 7.54522 -0.472452 0
M  V30 6565 H 592.923 7.76382 0.696454 0
M  V30 6566 N 597.152 0.631951 1.44375 0
M  V30 6567 C 598.429 0.067646 1.95483 0
M  V30 6568 C 598.809 -1.40683 1.57389 0
M  V30 6569 O 598.157 -2.12167 0.848375 0
M  V30 6570 C 598.367 0.291392 3.47781 0
M  V30 6571 C 599.715 0.185028 4.24197 0
M  V30 6572 O 600.739 0.222803 3.55503 0
M  V30 6573 O 599.598 0.0906642 5.46425 0
M  V30 6574 H 596.692 -0.0218379 0.826712 0
M  V30 6575 H 599.238 0.703711 1.54421 0
M  V30 6576 H 598.01 1.31449 3.68561 0
M  V30 6577 H 597.633 -0.378772 3.95792 0
M  V30 6578 N 598.631 -1.53133 0.372548 0
M  V30 6579 C 599.871 -2.03267 -0.214943 0
M  V30 6580 C 600.235 -1.25362 -1.45425 0
M  V30 6581 O 601.436 -1.65536 -2.11781 0
M  V30 6582 C 599.707 -3.53985 -0.492897 0
M  V30 6583 S 601.266 -4.25977 -1.05307 0
M  V30 6584 H 598.084 -0.708289 -0.062029 0
M  V30 6585 H 600.686 -1.88539 0.517025 0
M  V30 6586 H 599.39 -4.08282 0.416442 0
M  V30 6587 H 598.921 -3.72887 -1.25375 0
M  V30 6588 H 600.936 -4.37731 -2.33679 0
M  V30 6589 N 600.109 -0.101901 -1.5727 0
M  V30 6590 C 601.056 0.854577 -2.14396 0
M  V30 6591 C 602.026 1.27521 -1.06432 0
M  V30 6592 O 603.211 1.35575 -1.34253 0
M  V30 6593 C 600.351 2.10576 -2.73408 0
M  V30 6594 C 599.464 1.73504 -3.95626 0
M  V30 6595 C 598.599 2.9346 -4.42781 0
M  V30 6596 C 597.638 2.52547 -5.57572 0
M  V30 6597 N 596.775 3.65359 -5.99547 0
M  V30 6598 H 601.615 0.360578 -2.9581 0
M  V30 6599 H 599.152 0.166303 -1.46157 0
M  V30 6600 H 601.11 2.83859 -3.05745 0
M  V30 6601 H 599.74 2.57463 -1.94711 0
M  V30 6602 H 598.792 0.901622 -3.6956 0
M  V30 6603 H 600.104 1.39426 -4.78917 0
M  V30 6604 H 599.258 3.74988 -4.76937 0
M  V30 6605 H 597.997 3.30753 -3.58404 0
M  V30 6606 H 597.002 1.69446 -5.23037 0
M  V30 6607 H 598.227 2.1639 -6.43702 0
M  V30 6608 H 596.173 4.02358 -5.18116 0
M  V30 6609 H 596.09 3.35148 -6.77652 0
M  V30 6610 H 597.358 4.47378 -6.38336 0
M  V30 6611 N 601.587 1.56661 0.17182 0
M  V30 6612 C 602.834 1.81965 0.888529 0
M  V30 6613 C 603.162 0.6789 1.82267 0
M  V30 6614 O 602.417 -0.333875 1.92831 0
M  V30 6615 C 602.716 3.13435 1.71736 0
M  V30 6616 C 602.382 4.41159 0.932184 0
M  V30 6617 C 601.044 4.75851 0.715481 0
M  V30 6618 C 603.396 5.19803 0.381387 0
M  V30 6619 C 600.724 5.86666 -0.063126 0
M  V30 6620 C 603.076 6.31433 -0.384129 0
M  V30 6621 C 601.74 6.64692 -0.611637 0
M  V30 6622 H 601.01 0.665859 0.325136 0
M  V30 6623 H 603.657 1.90884 0.153495 0
M  V30 6624 H 601.962 2.99857 2.52177 0
M  V30 6625 H 603.659 3.30224 2.27493 0
M  V30 6626 H 600.249 4.13947 1.11112 0
M  V30 6627 H 604.433 4.93396 0.536148 0
M  V30 6628 H 599.689 6.10892 -0.249136 0
M  V30 6629 H 603.863 6.91577 -0.818185 0
M  V30 6630 H 601.49 7.50398 -1.21684 0
M  V30 6631 N 603.065 -0.440357 1.51323 0
M  V30 6632 C 604.313 -1.18769 1.63518 0
M  V30 6633 C 604.634 -1.91793 0.352201 0
M  V30 6634 O 603.904 -1.85432 -0.631811 0
M  V30 6635 H 602.484 -0.441408 0.602634 0
M  V30 6636 H 605.146 -0.505162 1.8824 0
M  V30 6637 H 604.242 -1.91892 2.46138 0
M  V30 6638 N 604.543 -1.41418 -0.695603 0
M  V30 6639 C 605.768 -1.44329 -1.48942 0
M  V30 6640 C 606.193 -0.0501579 -1.88033 0
M  V30 6641 O 605.551 0.946598 -1.54626 0
M  V30 6642 C 605.599 -2.3578 -2.72837 0
M  V30 6643 O 604.703 -1.81482 -3.70322 0
M  V30 6644 H 604.044 -0.489838 -0.44828 0
M  V30 6645 H 606.574 -1.85878 -0.855014 0
M  V30 6646 H 606.584 -2.51654 -3.21145 0
M  V30 6647 H 605.259 -3.37005 -2.43722 0
M  V30 6648 H 603.836 -1.75058 -3.29255 0
M  V30 6649 N 606.021 0.929856 -1.27246 0
M  V30 6650 C 607.269 1.674 -1.13233 0
M  V30 6651 C 607.59 1.92311 0.322744 0
M  V30 6652 O 606.86 1.52784 1.22612 0
M  V30 6653 H 605.44 0.620411 -0.416052 0
M  V30 6654 H 608.102 1.11663 -1.59741 0
M  V30 6655 H 607.198 2.64308 -1.65975 0
M  V30 6656 N 607.499 1.09233 1.13605 0
M  V30 6657 C 608.776 0.739633 1.81077 0
M  V30 6658 C 609.156 -0.775595 1.96336 0
M  V30 6659 O 608.504 -1.69726 1.52988 0
M  V30 6660 C 608.714 1.47636 3.16235 0
M  V30 6661 C 610.062 1.64087 3.91613 0
M  V30 6662 O 611.086 1.43871 3.25852 0
M  V30 6663 O 609.945 1.97511 5.0956 0
M  V30 6664 H 607.039 0.265464 0.783236 0
M  V30 6665 H 609.585 1.19441 1.20549 0
M  V30 6666 H 608.357 2.50818 3.00344 0
M  V30 6667 H 607.98 1.01362 3.84462 0
M  V30 6668 N 608.977 -1.30795 0.87923 0
M  V30 6669 C 610.225 -1.95974 0.493809 0
M  V30 6670 C 610.546 -1.69787 -0.959021 0
M  V30 6671 O 609.816 -1.01832 -1.67353 0
M  V30 6672 H 608.396 -0.725083 0.179622 0
M  V30 6673 H 611.058 -1.59432 1.12105 0
M  V30 6674 H 610.154 -3.05058 0.659263 0
M  V30 6675 N 610.455 -0.639598 -1.44038 0
M  V30 6676 C 611.702 -0.14748 -2.01962 0
M  V30 6677 C 612.03 1.23372 -1.50365 0
M  V30 6678 O 611.285 1.8345 -0.681501 0
M  V30 6679 C 611.584 -0.0925348 -3.5728 0
M  V30 6680 C 611.25 -1.41365 -4.28167 0
M  V30 6681 C 609.912 -1.77545 -4.47248 0
M  V30 6682 C 612.264 -2.2853 -4.68427 0
M  V30 6683 C 609.592 -3.00583 -5.03852 0
M  V30 6684 C 611.944 -3.50846 -5.26393 0
M  V30 6685 C 610.608 -3.8724 -5.43692 0
M  V30 6686 H 609.878 -0.0539666 -0.739032 0
M  V30 6687 H 612.525 -0.827599 -1.72694 0
M  V30 6688 H 610.83 0.670987 -3.86012 0
M  V30 6689 H 612.527 0.304891 -3.99839 0
M  V30 6690 H 609.117 -1.1221 -4.13651 0
M  V30 6691 H 613.301 -2.0187 -4.5339 0
M  V30 6692 H 608.557 -3.28846 -5.15432 0
M  V30 6693 H 612.731 -4.18616 -5.56537 0
M  V30 6694 H 610.358 -4.8266 -5.87319 0
M  V30 6695 N 611.933 1.52934 -0.380664 0
M  V30 6696 C 612.863 2.29118 0.450268 0
M  V30 6697 C 613.844 1.32153 1.07096 0
M  V30 6698 O 615.029 1.61038 1.08537 0
M  V30 6699 C 612.159 3.09161 1.58231 0
M  V30 6700 C 611.113 4.13938 1.0881 0
M  V30 6701 C 610.439 4.82153 2.31155 0
M  V30 6702 C 611.739 5.22048 0.162146 0
M  V30 6703 H 613.433 2.98826 -0.185361 0
M  V30 6704 H 610.979 1.43715 -0.0905886 0
M  V30 6705 H 612.932 3.61211 2.17036 0
M  V30 6706 H 611.656 2.3717 2.2454 0
M  V30 6707 H 610.315 3.62855 0.522633 0
M  V30 6708 H 609.963 4.06719 2.95953 0
M  V30 6709 H 609.663 5.52966 1.98752 0
M  V30 6710 H 611.187 5.37004 2.90618 0
M  V30 6711 H 612.601 5.6951 0.658126 0
M  V30 6712 H 610.998 6.00057 -0.0717122 0
M  V30 6713 H 612.068 4.78398 -0.791438 0
M  V30 6714 N 613.412 0.11024 1.57214 0
M  V30 6715 C 614.36 -0.860586 2.16094 0
M  V30 6716 C 615.354 -1.28156 1.1078 0
M  V30 6717 O 616.56 -1.25433 1.29099 0
M  V30 6718 H 612.935 -0.295606 0.691463 0
M  V30 6719 H 614.906 -0.33942 2.96463 0
M  V30 6720 C 613.655 -2.10421 2.768 0
M  V30 6721 H 612.978 -1.7892 3.5753 0
M  V30 6722 H 614.418 -2.76375 3.21547 0
M  V30 6723 C 612.877 -2.88823 1.73444 0
M  V30 6724 O 613.407 -3.839 1.18251 0
M  V30 6725 N 611.613 -2.52649 1.43586 0
M  V30 6726 H 611.16 -1.754 1.8866 0
M  V30 6727 H 611.118 -3.05403 0.746735 0
M  V30 6728 N 614.89 -1.56749 -0.16351 0
M  V30 6729 C 616.12 -1.86307 -0.892936 0
M  V30 6730 C 616.528 -0.6945 -1.75992 0
M  V30 6731 O 615.871 0.345384 -1.80424 0
M  V30 6732 C 615.933 -3.10372 -1.81409 0
M  V30 6733 C 615.597 -4.42913 -1.12593 0
M  V30 6734 C 616.594 -5.17608 -0.487661 0
M  V30 6735 C 614.279 -4.89646 -1.12035 0
M  V30 6736 C 616.273 -6.3723 0.14699 0
M  V30 6737 C 613.96 -6.09197 -0.481883 0
M  V30 6738 C 614.958 -6.82834 0.150678 0
M  V30 6739 O 614.646 -8.00116 0.779065 0
M  V30 6740 H 614.378 -0.622126 -0.264452 0
M  V30 6741 H 616.932 -2.04728 -0.166063 0
M  V30 6742 H 615.162 -2.87917 -2.58148 0
M  V30 6743 H 616.851 -3.26312 -2.41403 0
M  V30 6744 H 617.617 -4.8258 -0.483888 0
M  V30 6745 H 613.496 -4.32265 -1.60212 0
M  V30 6746 H 617.04 -6.94646 0.641325 0
M  V30 6747 H 612.937 -6.43688 -0.483266 0
M  V30 6748 H 613.705 -8.15678 0.679089 0
M  V30 6749 N 616.368 0.432326 -1.51554 0
M  V30 6750 C 617.598 1.2019 -1.68042 0
M  V30 6751 C 618.006 1.85356 -0.379434 0
M  V30 6752 O 617.349 1.71724 0.652427 0
M  V30 6753 C 617.411 2.32387 -2.74292 0
M  V30 6754 C 617.075 1.87548 -4.16743 0
M  V30 6755 C 618.072 1.37611 -5.01357 0
M  V30 6756 C 615.757 1.95087 -4.62868 0
M  V30 6757 C 617.751 0.958069 -6.30159 0
M  V30 6758 C 615.438 1.52894 -5.91664 0
M  V30 6759 C 616.436 1.03336 -6.75137 0
M  V30 6760 O 616.124 0.617435 -8.01525 0
M  V30 6761 H 615.856 0.368132 -0.56697 0
M  V30 6762 H 618.41 0.517875 -1.98764 0
M  V30 6763 H 616.64 3.04082 -2.38895 0
M  V30 6764 H 618.329 2.94235 -2.79608 0
M  V30 6765 H 619.095 1.31178 -4.66923 0
M  V30 6766 H 614.974 2.32606 -3.98015 0
M  V30 6767 H 618.518 0.570562 -6.95263 0
M  V30 6768 H 614.415 1.58999 -6.25611 0
M  V30 6769 H 615.183 0.742835 -8.15122 0
M  V30 6770 N 617.846 1.41785 0.688094 0
M  V30 6771 C 618.776 1.47 1.8142 0
M  V30 6772 C 619.757 0.327881 1.6691 0
M  V30 6773 O 620.942 0.540362 1.86531 0
M  V30 6774 C 618.072 1.35876 3.19617 0
M  V30 6775 C 617.026 2.47976 3.48844 0
M  V30 6776 C 616.352 2.21915 4.86475 0
M  V30 6777 C 617.652 3.90309 3.47068 0
M  V30 6778 H 619.346 2.41247 1.77314 0
M  V30 6779 H 616.892 1.16116 0.851651 0
M  V30 6780 H 618.845 1.38134 3.98117 0
M  V30 6781 H 617.569 0.38116 3.24368 0
M  V30 6782 H 616.228 2.45013 2.72698 0
M  V30 6783 H 615.876 1.2248 4.8786 0
M  V30 6784 H 615.576 2.97037 5.06994 0
M  V30 6785 H 617.1 2.25901 5.67275 0
M  V30 6786 H 618.514 3.94947 4.1556 0
M  V30 6787 H 616.911 4.65175 3.7912 0
M  V30 6788 H 617.981 4.17927 2.45896 0
M  V30 6789 N 619.324 -0.923095 1.27737 0
M  V30 6790 C 620.571 -1.67127 1.14345 0
M  V30 6791 C 620.899 -1.92017 -0.30982 0
M  V30 6792 O 620.154 -1.51185 -1.24264 0
M  V30 6793 C 620.453 -3.04125 1.8773 0
M  V30 6794 C 620.119 -2.98929 3.37568 0
M  V30 6795 C 618.781 -2.9722 3.78436 0
M  V30 6796 C 621.133 -2.89875 4.33154 0
M  V30 6797 C 618.461 -2.84244 5.13247 0
M  V30 6798 C 620.813 -2.7844 5.68026 0
M  V30 6799 C 619.477 -2.75083 6.08182 0
M  V30 6800 H 618.747 -0.611562 0.418417 0
M  V30 6801 H 621.394 -1.07618 1.584 0
M  V30 6802 H 619.699 -3.67366 1.36196 0
M  V30 6803 H 621.396 -3.609 1.74792 0
M  V30 6804 H 617.986 -3.0105 3.05069 0
M  V30 6805 H 622.17 -2.9029 4.02548 0
M  V30 6806 H 617.426 -2.80034 5.43499 0
M  V30 6807 H 621.6 -2.70401 6.4176 0
M  V30 6808 H 619.227 -2.64786 7.12596 0
M  V30 6809 N 620.802 -1.09834 -1.13024 0
M  V30 6810 C 621.75 -0.736283 -2.20639 0
M  V30 6811 C 622.744 0.264725 -1.67319 0
M  V30 6812 O 623.95 0.125745 -1.7956 0
M  V30 6813 H 620.325 -0.220136 -0.719058 0
M  V30 6814 H 622.296 -1.65295 -2.48436 0
M  V30 6815 C 621.045 -0.177544 -3.47246 0
M  V30 6816 H 620.368 -0.939009 -3.88616 0
M  V30 6817 H 621.808 0.0378007 -4.23983 0
M  V30 6818 C 620.267 1.08824 -3.1884 0
M  V30 6819 O 620.797 2.1708 -3.37993 0
M  V30 6820 N 619.003 1.00442 -2.7269 0
M  V30 6821 H 618.55 0.123383 -2.57304 0
M  V30 6822 H 618.508 1.85206 -2.5406 0
M  V30 6823 N 622.28 1.30327 -0.886154 0
M  V30 6824 C 623.51 1.99964 -0.519421 0
M  V30 6825 C 623.918 1.66593 0.89686 0
M  V30 6826 O 623.261 0.899886 1.60149 0
M  V30 6827 C 623.323 3.54187 -0.615795 0
M  V30 6828 C 622.987 4.11078 -1.9966 0
M  V30 6829 C 623.984 4.26985 -2.96614 0
M  V30 6830 C 621.669 4.46429 -2.30231 0
M  V30 6831 C 623.663 4.77456 -4.22273 0
M  V30 6832 C 621.35 4.966 -3.56135 0
M  V30 6833 C 622.348 5.12066 -4.5197 0
M  V30 6834 O 622.036 5.61154 -5.7564 0
M  V30 6835 H 621.768 0.645979 -0.199217 0
M  V30 6836 H 624.322 1.67154 -1.19368 0
M  V30 6837 H 622.552 3.86528 0.115448 0
M  V30 6838 H 624.241 4.05065 -0.26017 0
M  V30 6839 H 625.007 3.99975 -2.74308 0
M  V30 6840 H 620.886 4.33658 -1.56404 0
M  V30 6841 H 624.43 4.89444 -4.97082 0
M  V30 6842 H 620.327 5.23045 -3.78277 0
M  V30 6843 H 621.095 5.79494 -5.78039 0
M  V30 6844 N 623.758 0.647228 1.43697 0
M  V30 6845 C 625.174 0.314256 1.56476 0
M  V30 6846 C 625.374 -1.18191 1.63196 0
M  V30 6847 O 624.43 -1.96655 1.58376 0
M  V30 6848 C 625.743 1.02034 2.82859 0
M  V30 6849 C 627.291 1.00002 2.96595 0
M  V30 6850 C 627.766 1.68689 4.25803 0
M  V30 6851 N 629.257 1.65424 4.32654 0
M  V30 6852 C 629.992 2.1545 5.31384 0
M  V30 6853 N 629.488 2.73738 6.36427 0
M  V30 6854 N 631.281 2.05985 5.22998 0
M  V30 6855 H 623.432 1.61821 1.37578 0
M  V30 6856 H 625.695 0.680184 0.660344 0
M  V30 6857 H 625.401 2.07542 2.83935 0
M  V30 6858 H 625.275 0.568146 3.72897 0
M  V30 6859 H 627.662 -0.0466319 2.95063 0
M  V30 6860 H 627.743 1.49086 2.07863 0
M  V30 6861 H 627.387 2.73308 4.28095 0
M  V30 6862 H 627.317 1.17076 5.13421 0
M  V30 6863 H 629.808 1.22884 3.57363 0
M  V30 6864 H 630.121 3.09602 7.08072 0
M  V30 6865 H 628.466 2.77796 6.37067 0
M  V30 6866 H 631.657 1.60157 4.39849 0
M  V30 6867 H 631.83 2.45281 5.99784 0
M  V30 6868 N 625.236 -1.5273 0.388769 0
M  V30 6869 C 626.464 -2.05992 -0.193677 0
M  V30 6870 C 626.879 -1.26053 -1.40557 0
M  V30 6871 O 626.236 -0.307049 -1.79898 0
M  V30 6872 C 626.287 -3.57068 -0.564321 0
M  V30 6873 O 626.008 -4.3398 0.599422 0
M  V30 6874 C 627.509 -4.26674 -1.20269 0
M  V30 6875 H 624.729 -0.670358 -0.0293445 0
M  V30 6876 H 627.273 -1.96857 0.553844 0
M  V30 6877 H 625.428 -3.66277 -1.26174 0
M  V30 6878 H 625.842 -5.2367 0.294895 0
M  V30 6879 H 627.316 -5.33625 -1.4124 0
M  V30 6880 H 627.793 -3.81854 -2.16989 0
M  V30 6881 H 628.399 -4.2178 -0.546047 0
M  V30 6882 N 626.714 -0.118576 -1.57153 0
M  V30 6883 C 627.961 0.539526 -1.9518 0
M  V30 6884 C 628.289 1.66714 -1.00184 0
M  V30 6885 O 627.544 1.95683 -0.0256482 0
M  V30 6886 C 627.843 1.11303 -3.39627 0
M  V30 6887 C 627.509 0.106809 -4.50773 0
M  V30 6888 C 626.171 -0.169876 -4.809 0
M  V30 6889 C 628.523 -0.57895 -5.17975 0
M  V30 6890 C 625.851 -1.13861 -5.75545 0
M  V30 6891 C 628.203 -1.53631 -6.13661 0
M  V30 6892 C 626.867 -1.82099 -6.42181 0
M  V30 6893 H 626.137 0.197427 -0.714215 0
M  V30 6894 H 628.784 -0.199391 -1.90459 0
M  V30 6895 H 627.089 1.92869 -3.4104 0
M  V30 6896 H 628.786 1.63032 -3.66363 0
M  V30 6897 H 625.376 0.332645 -4.27307 0
M  V30 6898 H 629.56 -0.378359 -4.94856 0
M  V30 6899 H 624.816 -1.36592 -5.95947 0
M  V30 6900 H 628.99 -2.07337 -6.64819 0
M  V30 6901 H 626.617 -2.57319 -7.15326 0
M  V30 6902 N 628.193 1.56834 0.155195 0
M  V30 6903 C 629.604 1.72421 0.716082 0
M  V30 6904 C 629.955 0.731685 1.82046 0
M  V30 6905 O 629.08 -0.103481 2.16152 0
M  V30 6906 C 629.675 3.12629 1.30571 0
M  V30 6907 C 628.234 3.29846 1.81325 0
M  V30 6908 C 627.381 2.68359 0.698494 0
M  V30 6909 H 630.332 1.58544 -0.0703861 0
M  V30 6910 H 630.353 3.12174 2.1755 0
M  V30 6911 H 629.865 3.84844 0.501701 0
M  V30 6912 H 627.966 2.62614 2.64319 0
M  V30 6913 H 628.079 4.37727 1.9476 0
M  V30 6914 H 626.443 2.28604 1.12305 0
M  V30 6915 H 627.226 3.43171 -0.0939366 0
M  V30 6916 N 629.671 -0.424282 1.51781 0
M  V30 6917 C 630.604 -1.53633 1.68737 0
M  V30 6918 C 631.582 -1.53549 0.534915 0
M  V30 6919 O 632.766 -1.72483 0.760391 0
M  V30 6920 C 629.893 -2.92195 1.71288 0
M  V30 6921 C 628.939 -3.10251 2.92654 0
M  V30 6922 S 629.772 -2.85166 4.53256 0
M  V30 6923 C 630.928 -4.25986 4.58571 0
M  V30 6924 H 631.161 -1.39018 2.62795 0
M  V30 6925 H 628.694 -0.614854 1.41629 0
M  V30 6926 H 630.652 -3.72059 1.73443 0
M  V30 6927 H 629.313 -3.04162 0.783847 0
M  V30 6928 H 628.506 -4.1159 2.90877 0
M  V30 6929 H 628.108 -2.38231 2.88308 0
M  V30 6930 H 630.4 -5.19392 4.35015 0
M  V30 6931 H 631.343 -4.32792 5.60444 0
M  V30 6932 H 631.751 -4.1025 3.87757 0
M  V30 6933 N 631.149 -1.42148 -0.680565 0
M  V30 6934 C 632.426 -1.32795 -1.43614 0
M  V30 6935 C 632.806 0.037415 -2.11067 0
M  V30 6936 O 632.154 1.05258 -2.02813 0
M  V30 6937 C 632.364 -2.49206 -2.44331 0
M  V30 6938 C 633.712 -2.91059 -3.09144 0
M  V30 6939 O 634.736 -2.49054 -2.54657 0
M  V30 6940 O 633.595 -3.63741 -4.07866 0
M  V30 6941 H 630.689 -0.523397 -0.640301 0
M  V30 6942 H 633.235 -1.54144 -0.709775 0
M  V30 6943 H 632.007 -3.40252 -1.93247 0
M  V30 6944 H 631.63 -2.29813 -3.24456 0
M  V30 6945 N 632.627 0.916307 -1.28225 0
M  V30 6946 C 633.875 1.6619 -1.15002 0
M  V30 6947 C 634.196 1.92642 0.302329 0
M  V30 6948 O 633.466 1.54076 1.20985 0
M  V30 6949 H 632.046 0.615964 -0.422608 0
M  V30 6950 H 634.708 1.09963 -1.60917 0
M  V30 6951 H 633.804 2.62533 -1.68769 0
M  V30 6952 N 634.105 1.10431 1.1244 0
M  V30 6953 C 635.353 0.845045 1.83585 0
M  V30 6954 C 635.674 -0.631168 1.84503 0
M  V30 6955 O 634.944 -1.45825 1.30813 0
M  V30 6956 H 633.524 0.309628 0.679809 0
M  V30 6957 H 636.186 1.39458 1.36153 0
M  V30 6958 H 635.282 1.20786 2.8778 0
M  V30 6959 N 635.583 -1.29855 0.893053 0
M  V30 6960 C 636.832 -1.95104 0.511597 0
M  V30 6961 C 637.145 -1.71226 -0.945567 0
M  V30 6962 O 638.351 -2.30525 -1.43424 0
M  V30 6963 C 636.807 -3.49374 0.864034 0
M  V30 6964 C 636.415 -3.82061 2.33952 0
M  V30 6965 C 638.159 -4.20894 0.552167 0
M  V30 6966 C 636.066 -5.29546 2.63316 0
M  V30 6967 H 634.996 -0.73029 0.187597 0
M  V30 6968 H 637.647 -1.47682 1.08914 0
M  V30 6969 H 636.029 -3.95413 0.215493 0
M  V30 6970 H 637.203 -3.46904 3.03305 0
M  V30 6971 H 635.518 -3.23665 2.61973 0
M  V30 6972 H 638.115 -5.29435 0.748489 0
M  V30 6973 H 638.458 -4.13178 -0.508924 0
M  V30 6974 H 638.991 -3.80564 1.15825 0
M  V30 6975 H 635.73 -5.4232 3.68197 0
M  V30 6976 H 635.25 -5.65974 1.9858 0
M  V30 6977 H 636.929 -5.97068 2.49236 0
M  V30 6978 N 637.061 -0.65484 -1.43351 0
M  V30 6979 C 638.338 -0.0987371 -1.95351 0
M  V30 6980 C 638.718 1.38161 -1.59608 0
M  V30 6981 O 638.066 2.10791 -0.882021 0
M  V30 6982 C 638.276 -0.346684 -3.47274 0
M  V30 6983 C 639.624 -0.25249 -4.23849 0
M  V30 6984 O 640.648 -0.279332 -3.55103 0
M  V30 6985 O 639.507 -0.177584 -5.46211 0
M  V30 6986 H 636.601 0.0086829 -0.826954 0
M  V30 6987 H 639.147 -0.728189 -1.53282 0
M  V30 6988 H 637.919 -1.37296 -3.66423 0
M  V30 6989 H 637.542 0.315757 -3.96344 0
M  V30 6990 N 638.539 1.52521 -0.396863 0
M  V30 6991 C 639.486 2.26671 0.434624 0
M  V30 6992 C 640.456 1.28584 1.05144 0
M  V30 6993 O 641.641 1.57426 1.07804 0
M  V30 6994 C 638.781 3.08234 1.55196 0
M  V30 6995 C 637.894 4.21261 0.957262 0
M  V30 6996 C 637.029 4.90205 2.04627 0
M  V30 6997 C 636.068 5.95213 1.42787 0
M  V30 6998 N 635.205 6.57723 2.45651 0
M  V30 6999 H 640.045 2.973 -0.204139 0
M  V30 7000 H 637.582 1.46669 -0.112505 0
M  V30 7001 H 639.54 3.53819 2.2106 0
M  V30 7002 H 638.17 2.398 2.16092 0
M  V30 7003 H 637.222 3.79935 0.188005 0
M  V30 7004 H 638.534 4.96624 0.465416 0
M  V30 7005 H 637.688 5.39133 2.78246 0
M  V30 7006 H 636.427 4.14383 2.57174 0
M  V30 7007 H 635.432 5.45616 0.676968 0
M  V30 7008 H 636.657 6.72972 0.910255 0
M  V30 7009 H 634.603 5.84737 2.97353 0
M  V30 7010 H 634.52 7.28723 2.01243 0
M  V30 7011 H 635.788 7.11293 3.18876 0
M  V30 7012 N 640.017 0.126909 1.57088 0
M  V30 7013 C 640.964 -0.82036 2.15728 0
M  V30 7014 C 641.934 -1.25811 1.08447 0
M  V30 7015 O 643.119 -1.33422 1.36393 0
M  V30 7016 C 640.259 -2.06199 2.76724 0
M  V30 7017 C 639.372 -1.67188 3.98337 0
M  V30 7018 C 638.507 -2.86378 4.47393 0
M  V30 7019 C 637.546 -2.43644 5.61519 0
M  V30 7020 N 636.683 -3.55775 6.05284 0
M  V30 7021 H 641.523 -0.313472 2.96347 0
M  V30 7022 H 639.06 -0.14303 1.46403 0
M  V30 7023 H 641.018 -2.78959 3.10222 0
M  V30 7024 H 639.648 -2.54333 1.98782 0
M  V30 7025 H 638.7 -0.842714 3.70948 0
M  V30 7026 H 640.012 -1.31789 4.81075 0
M  V30 7027 H 639.166 -3.67353 4.82842 0
M  V30 7028 H 637.905 -3.25009 3.63621 0
M  V30 7029 H 636.91 -1.61104 5.25667 0
M  V30 7030 H 638.135 -2.06122 6.47063 0
M  V30 7031 H 636.081 -3.94065 5.24451 0
M  V30 7032 H 635.998 -3.24325 6.82898 0
M  V30 7033 H 637.266 -4.37166 6.45373 0
M  V30 7034 N 641.495 -1.56914 -0.146875 0
M  V30 7035 C 642.723 -1.87515 -0.874394 0
M  V30 7036 C 643.138 -0.715116 -1.74733 0
M  V30 7037 O 642.495 0.315113 -1.79759 0
M  V30 7038 C 642.546 -3.17362 -1.731 0
M  V30 7039 O 642.267 -4.28897 -0.893245 0
M  V30 7040 C 643.768 -3.61479 -2.56609 0
M  V30 7041 H 640.988 -0.621546 -0.252827 0
M  V30 7042 H 643.532 -2.04023 -0.139627 0
M  V30 7043 H 641.687 -3.02608 -2.41883 0
M  V30 7044 H 642.101 -5.03146 -1.48137 0
M  V30 7045 H 643.575 -4.5517 -3.12289 0
M  V30 7046 H 644.052 -2.86773 -3.32653 0
M  V30 7047 H 644.658 -3.78927 -1.93117 0
M  V30 7048 N 642.974 0.416227 -1.52004 0
M  V30 7049 C 643.921 1.50666 -1.74838 0
M  V30 7050 C 644.891 1.55245 -0.590599 0
M  V30 7051 O 646.076 1.71928 -0.827374 0
M  V30 7052 C 643.216 2.88185 -1.89851 0
M  V30 7053 C 642.329 2.92971 -3.17478 0
M  V30 7054 C 641.464 4.21745 -3.22962 0
M  V30 7055 C 640.503 4.20478 -4.4482 0
M  V30 7056 N 639.64 5.40811 -4.47736 0
M  V30 7057 H 644.48 1.30498 -2.67907 0
M  V30 7058 H 642.017 0.633568 -1.32757 0
M  V30 7059 H 643.975 3.68007 -1.96537 0
M  V30 7060 H 642.605 3.06865 -1.00169 0
M  V30 7061 H 641.657 2.05684 -3.19997 0
M  V30 7062 H 642.969 2.87899 -4.07328 0
M  V30 7063 H 642.123 5.09954 -3.28682 0
M  V30 7064 H 640.862 4.29503 -2.31038 0
M  V30 7065 H 639.867 3.30659 -4.39254 0
M  V30 7066 H 641.092 4.14366 -5.38031 0
M  V30 7067 H 639.038 5.4925 -3.58692 0
M  V30 7068 H 638.955 5.37705 -5.31422 0
M  V30 7069 H 640.223 6.30993 -4.57676 0
M  V30 7070 N 644.452 1.42507 0.673017 0
M  V30 7071 C 645.362 1.4853 1.81593 0
M  V30 7072 C 646.378 0.373907 1.69935 0
M  V30 7073 O 647.554 0.625078 1.91454 0
M  V30 7074 C 644.619 1.387 3.17747 0
M  V30 7075 C 643.68 2.60346 3.41348 0
M  V30 7076 C 642.913 2.50975 4.71007 0
M  V30 7077 O 643.136 1.54659 5.49033 0
M  V30 7078 O 642.07 3.41138 4.95892 0
M  V30 7079 H 645.896 2.45001 1.79467 0
M  V30 7080 H 643.481 1.2429 0.82899 0
M  V30 7081 H 645.363 1.35586 3.98992 0
M  V30 7082 H 644.038 0.453555 3.20507 0
M  V30 7083 H 642.945 2.69034 2.59945 0
M  V30 7084 H 644.278 3.52595 3.43421 0
M  V30 7085 N 645.93 -0.909495 1.28709 0
M  V30 7086 C 647.176 -1.66151 1.16283 0
M  V30 7087 C 647.509 -1.92067 -0.287069 0
M  V30 7088 O 646.784 -1.52409 -1.20837 0
M  V30 7089 C 647.067 -3.01676 1.9663 0
M  V30 7090 C 646.92 -2.82888 3.49707 0
M  V30 7091 C 648.239 -4.02274 1.78504 0
M  V30 7092 H 645.358 -0.602966 0.423793 0
M  V30 7093 H 648 -1.05418 1.58073 0
M  V30 7094 H 646.15 -3.53515 1.61119 0
M  V30 7095 H 647.822 -2.38026 3.95147 0
M  V30 7096 H 646.065 -2.17862 3.75125 0
M  V30 7097 H 646.736 -3.79147 4.01187 0
M  V30 7098 H 649.212 -3.59511 2.09503 0
M  V30 7099 H 648.088 -4.95056 2.37088 0
M  V30 7100 H 648.349 -4.35903 0.737647 0
M  V30 7101 N 647.408 -1.11026 -1.11852 0
M  V30 7102 C 648.654 -0.857729 -1.83768 0
M  V30 7103 C 648.987 0.615143 -1.842 0
M  V30 7104 O 648.262 1.45391 -1.29196 0
M  V30 7105 C 648.545 -1.41453 -3.31154 0
M  V30 7106 C 648.398 -2.95471 -3.39142 0
M  V30 7107 C 649.717 -1.0619 -4.27097 0
M  V30 7108 H 646.836 -0.313044 -0.667212 0
M  V30 7109 H 649.478 -1.37443 -1.31185 0
M  V30 7110 H 647.628 -0.975052 -3.76065 0
M  V30 7111 H 649.3 -3.4799 -3.02821 0
M  V30 7112 H 647.543 -3.31759 -2.79497 0
M  V30 7113 H 648.214 -3.29515 -4.42859 0
M  V30 7114 H 650.69 -1.44122 -3.90344 0
M  V30 7115 H 649.566 -1.47832 -5.28618 0
M  V30 7116 H 649.827 0.0278912 -4.42091 0
M  V30 7117 N 648.886 1.2938 -0.899927 0
M  V30 7118 C 649.796 2.31462 -0.382437 0
M  V30 7119 C 650.812 1.65956 0.522929 0
M  V30 7120 O 651.988 1.97131 0.412454 0
M  V30 7121 C 649.053 3.44595 0.381472 0
M  V30 7122 C 648.114 4.25692 -0.555444 0
M  V30 7123 C 647.347 5.33422 0.172102 0
M  V30 7124 O 647.57 5.53053 1.396 0
M  V30 7125 O 646.504 5.99939 -0.485491 0
M  V30 7126 H 650.33 2.77706 -1.22934 0
M  V30 7127 H 647.915 1.33821 -0.664259 0
M  V30 7128 H 649.797 4.13474 0.813442 0
M  V30 7129 H 648.472 3.00458 1.20443 0
M  V30 7130 H 647.379 3.59453 -1.03653 0
M  V30 7131 H 648.712 4.73471 -1.34483 0
M  V30 7132 N 650.364 0.662433 1.43002 0
M  V30 7133 C 651.641 0.109096 1.95296 0
M  V30 7134 C 652.021 -1.37313 1.60338 0
M  V30 7135 O 651.369 -2.1032 0.893187 0
M  V30 7136 C 651.579 0.365096 3.47085 0
M  V30 7137 C 652.927 0.274964 4.23709 0
M  V30 7138 O 653.951 0.29816 3.5495 0
M  V30 7139 O 652.81 0.206549 5.4611 0
M  V30 7140 H 649.904 -0.00429724 0.826989 0
M  V30 7141 H 652.45 0.736308 1.52894 0
M  V30 7142 H 651.222 1.39237 3.65689 0
M  V30 7143 H 650.845 -0.294733 3.96506 0
M  V30 7144 N 651.842 -1.52309 0.404946 0
M  V30 7145 C 652.774 -2.24579 -0.45791 0
M  V30 7146 C 653.787 -1.2739 -1.01369 0
M  V30 7147 O 654.976 -1.53363 -0.91335 0
M  V30 7148 C 652.076 -2.9608 -1.64893 0
M  V30 7149 C 651.249 -4.20106 -1.21777 0
M  V30 7150 C 650.308 -4.74468 -2.27523 0
M  V30 7151 O 649.334 -5.37157 -1.88285 0
M  V30 7152 N 650.536 -4.55678 -3.59635 0
M  V30 7153 H 653.301 -2.99265 0.161341 0
M  V30 7154 H 650.862 -1.60228 0.232107 0
M  V30 7155 H 652.854 -3.29344 -2.35191 0
M  V30 7156 H 651.424 -2.24606 -2.17419 0
M  V30 7157 H 650.644 -3.92704 -0.343071 0
M  V30 7158 H 651.932 -5.00658 -0.906596 0
M  V30 7159 H 651.33 -4.05673 -3.94266 0
M  V30 7160 H 649.887 -4.9339 -4.25922 0
M  V30 7161 N 653.32 -0.135238 -1.57019 0
M  V30 7162 C 654.548 0.526066 -2.001 0
M  V30 7163 C 654.963 1.59184 -1.01519 0
M  V30 7164 O 654.32 1.82497 -0.0104258 0
M  V30 7165 C 654.371 1.13744 -3.43139 0
M  V30 7166 O 654.092 0.114259 -4.37951 0
M  V30 7167 C 655.593 1.8805 -4.01438 0
M  V30 7168 H 652.813 0.137962 -0.656664 0
M  V30 7169 H 655.357 -0.226359 -2.03243 0
M  V30 7170 H 653.512 1.84056 -3.40885 0
M  V30 7171 H 653.926 0.56058 -5.21496 0
M  V30 7172 H 655.4 2.26133 -5.03555 0
M  V30 7173 H 655.877 2.76194 -3.41487 0
M  V30 7174 H 656.483 1.22464 -4.07287 0
M  V30 7175 N 654.798 1.5699 0.138552 0
M  V30 7176 C 656.023 1.88344 0.86841 0
M  V30 7177 C 656.448 0.725159 1.7356 0
M  V30 7178 O 655.806 -0.324992 1.78363 0
M  V30 7179 C 655.854 3.18334 1.69398 0
M  V30 7180 O 654.958 3.02863 2.79907 0
M  V30 7181 H 654.299 0.618577 0.241367 0
M  V30 7182 H 656.829 2.04207 0.126826 0
M  V30 7183 H 656.839 3.50567 2.08726 0
M  V30 7184 H 655.514 4.02238 1.05725 0
M  V30 7185 H 654.091 2.82056 2.43924 0
M  V30 7186 N 656.276 -0.40816 1.52223 0
M  V30 7187 C 657.524 -1.15274 1.66001 0
M  V30 7188 C 657.845 -1.91003 0.392803 0
M  V30 7189 O 657.115 -1.8673 -0.592336 0
M  V30 7190 H 655.695 -0.428526 0.611861 0
M  V30 7191 H 658.357 -0.46512 1.89269 0
M  V30 7192 H 657.453 -1.86628 2.50153 0
M  V30 7193 N 657.755 -1.42862 -0.66545 0
M  V30 7194 C 659.004 -1.43119 -1.42126 0
M  V30 7195 C 659.317 -0.0545297 -1.95524 0
M  V30 7196 O 660.523 0.0654747 -2.71421 0
M  V30 7197 C 658.979 -2.51797 -2.5715 0
M  V30 7198 C 658.587 -3.95514 -2.10411 0
M  V30 7199 C 660.331 -2.61233 -3.346 0
M  V30 7200 C 658.238 -4.95682 -3.22573 0
M  V30 7201 H 657.168 -0.532349 -0.533966 0
M  V30 7202 H 659.819 -1.68806 -0.719506 0
M  V30 7203 H 658.201 -2.19292 -3.29738 0
M  V30 7204 H 659.375 -4.3742 -1.44915 0
M  V30 7205 H 657.69 -3.90012 -1.45874 0
M  V30 7206 H 660.287 -3.33248 -4.18151 0
M  V30 7207 H 660.63 -1.65896 -3.81817 0
M  V30 7208 H 661.163 -2.9298 -2.69087 0
M  V30 7209 H 657.902 -5.92529 -2.80338 0
M  V30 7210 H 657.422 -4.58399 -3.86821 0
M  V30 7211 H 659.101 -5.17828 -3.87896 0
M  V30 7212 N 659.233 0.902656 -1.29189 0
M  V30 7213 C 660.481 1.6496 -1.16758 0
M  V30 7214 C 660.802 1.92952 0.28188 0
M  V30 7215 O 660.072 1.55351 1.19344 0
M  V30 7216 H 658.652 0.611447 -0.429118 0
M  V30 7217 H 661.314 1.0825 -1.62074 0
M  V30 7218 H 660.41 2.60728 -1.71544 0
M  V30 7219 N 660.711 1.11618 1.11262 0
M  V30 7220 C 661.957 0.867463 1.83311 0
M  V30 7221 C 662.29 -0.605366 1.84524 0
M  V30 7222 O 661.565 -1.44704 1.29965 0
M  V30 7223 C 661.848 1.43207 3.30399 0
M  V30 7224 C 661.701 2.97265 3.3757 0
M  V30 7225 C 663.02 1.08454 4.26528 0
M  V30 7226 H 660.139 0.316578 0.665543 0
M  V30 7227 H 662.781 1.38137 1.30454 0
M  V30 7228 H 660.931 0.994982 3.75543 0
M  V30 7229 H 662.603 3.49591 3.00971 0
M  V30 7230 H 660.846 3.33237 2.77733 0
M  V30 7231 H 661.517 3.31859 4.41105 0
M  V30 7232 H 663.993 1.4619 3.89574 0
M  V30 7233 H 662.869 1.50633 5.27826 0
M  V30 7234 H 663.13 -0.00444568 4.421 0
M  V30 7235 N 662.189 -1.289 0.906776 0
M  V30 7236 C 663.435 -1.95558 0.53712 0
M  V30 7237 C 663.768 -1.71262 -0.915582 0
M  V30 7238 O 663.043 -1.02961 -1.65013 0
M  V30 7239 C 663.326 -3.50198 0.838645 0
M  V30 7240 C 663.179 -3.83923 2.34357 0
M  V30 7241 C 664.498 -4.38861 0.329988 0
M  V30 7242 H 661.617 -0.710289 0.196617 0
M  V30 7243 H 664.259 -1.52392 1.13475 0
M  V30 7244 H 662.409 -3.87096 0.330024 0
M  V30 7245 H 664.081 -3.56933 2.92227 0
M  V30 7246 H 662.324 -3.31215 2.80141 0
M  V30 7247 H 662.995 -4.91883 2.5051 0
M  V30 7248 H 665.471 -4.08996 0.765609 0
M  V30 7249 H 664.347 -5.45931 0.570105 0
M  V30 7250 H 664.608 -4.35352 -0.769511 0
M  V30 7251 N 663.667 -0.670007 -1.42649 0
M  V30 7252 C 664.597 -0.00258501 -2.335 0
M  V30 7253 C 665.578 0.794364 -1.50412 0
M  V30 7254 O 666.763 0.75248 -1.79029 0
M  V30 7255 C 663.893 0.952748 -3.33976 0
M  V30 7256 C 662.847 0.264733 -4.2718 0
M  V30 7257 C 662.173 1.33267 -5.17826 0
M  V30 7258 C 663.473 -0.853289 -5.15283 0
M  V30 7259 H 665.167 -0.761326 -2.89559 0
M  V30 7260 H 662.713 -0.367561 -1.3923 0
M  V30 7261 H 664.666 1.4287 -3.96442 0
M  V30 7262 H 663.39 1.74285 -2.7621 0
M  V30 7263 H 662.049 -0.190938 -3.66102 0
M  V30 7264 H 661.697 2.11464 -4.5639 0
M  V30 7265 H 661.397 0.877476 -5.81011 0
M  V30 7266 H 662.921 1.80965 -5.83167 0
M  V30 7267 H 664.335 -0.458763 -5.71462 0
M  V30 7268 H 662.732 -1.23398 -5.87276 0
M  V30 7269 H 663.802 -1.70412 -4.53969 0
M  V30 7270 N 665.145 1.52092 -0.413018 0
M  V30 7271 C 666.075 2.30021 0.401567 0
M  V30 7272 C 667.056 1.34395 1.04269 0
M  V30 7273 O 668.241 1.63304 1.05097 0
M  V30 7274 C 665.371 3.12447 1.51638 0
M  V30 7275 C 664.325 4.16153 1.00005 0
M  V30 7276 C 663.651 4.86948 2.20875 0
M  V30 7277 C 664.951 5.22275 0.0513757 0
M  V30 7278 H 666.645 2.98365 -0.248704 0
M  V30 7279 H 664.191 1.4349 -0.121052 0
M  V30 7280 H 666.144 3.65733 2.09326 0
M  V30 7281 H 664.868 2.41879 2.19458 0
M  V30 7282 H 663.527 3.63882 0.445549 0
M  V30 7283 H 663.175 4.12905 2.8726 0
M  V30 7284 H 662.875 5.57057 1.86978 0
M  V30 7285 H 664.399 5.43048 2.79162 0
M  V30 7286 H 665.813 5.70778 0.537176 0
M  V30 7287 H 664.21 5.9977 -0.198977 0
M  V30 7288 H 665.28 4.76611 -0.892736 0
M  V30 7289 O 666.662 0.284301 1.58978 0
M  V30 7290 H 667.353 -0.283792 1.9161 0
M  V30 END ATOM
M  V30 BEGIN BOND
M  V30 END BOND
M  V30 END CTAB
M  END
$$$$
