drugbank_target|P30411 B2 bradykinin receptor (DB05038; DB06196; DB06549)
 OpenBabel12092120333D

  0  0  0     0  0            999 V3000
M  V30 BEGIN CTAB
M  V30 COUNTS 6309 6380 0 0 0
M  V30 BEGIN ATOM
M  V30 1 H -0.908 1.98254 -0.117106 0
M  V30 2 N 0 1.576 0 0
M  V30 3 C 0.933 2.03868 1.02534 0
M  V30 4 C 1.911 0.928543 1.3348 0
M  V30 5 O 3.095 1.19667 1.45644 0
M  V30 6 C 0.222 2.43627 2.35294 0
M  V30 7 C -0.732 3.65373 2.2001 0
M  V30 8 S 0.101 5.13292 1.52614 0
M  V30 9 C 1.257 5.56322 2.86805 0
M  V30 10 H 1.49 2.90518 0.631377 0
M  V30 11 H -0.977 1.52953 0.210867 0
M  V30 12 H 0.981 2.67203 3.11629 0
M  V30 13 H -0.358 1.57376 2.7183 0
M  V30 14 H -1.165 3.90944 3.18086 0
M  V30 15 H -1.563 3.418 1.51819 0
M  V30 16 H 0.729 5.58782 3.83104 0
M  V30 17 H 1.672 6.56266 2.65933 0
M  V30 18 H 2.08 4.83886 2.90714 0
M  V30 19 N 1.4781 -0.272755 1.55222 0
M  V30 20 C 2.7251 -1.00433 1.7584 0
M  V30 21 C 3.0531 -1.86275 0.559629 0
M  V30 22 O 2.3081 -1.90269 -0.457857 0
M  V30 23 C 2.6071 -1.91642 3.01675 0
M  V30 24 C 2.2731 -1.21548 4.34208 0
M  V30 25 C 0.9351 -1.02166 4.70229 0
M  V30 26 C 3.2871 -0.716684 5.16249 0
M  V30 27 C 0.6151 -0.316334 5.85847 0
M  V30 28 C 2.9671 -0.0249476 6.32595 0
M  V30 29 C 1.6311 0.180579 6.67256 0
M  V30 30 H 0.9011 -0.367509 0.643443 0
M  V30 31 H 3.5481 -0.276596 1.89492 0
M  V30 32 H 1.8531 -2.71037 2.82924 0
M  V30 33 H 3.5501 -2.48369 3.14824 0
M  V30 34 H 0.1401 -1.37645 4.05896 0
M  V30 35 H 4.3241 -0.854047 4.88896 0
M  V30 36 H -0.4199 -0.146378 6.11225 0
M  V30 37 H 3.7541 0.369311 6.9542 0
M  V30 38 H 1.3811 0.729098 7.56696 0
M  V30 39 N 2.9562 -1.48159 -0.537278 0
M  V30 40 C 4.1812 -1.59707 -1.32319 0
M  V30 41 C 4.6062 -0.254859 -1.86365 0
M  V30 42 O 3.9642 0.772378 -1.64024 0
M  V30 43 C 4.0122 -2.6412 -2.45505 0
M  V30 44 O 3.1162 -2.20774 -3.48328 0
M  V30 45 H 2.4572 -0.535791 -0.392204 0
M  V30 46 H 4.9872 -1.94092 -0.647268 0
M  V30 47 H 4.9972 -2.85166 -2.91795 0
M  V30 48 H 3.6722 -3.61567 -2.05528 0
M  V30 49 H 2.2492 -2.09911 -3.08207 0
M  V30 50 N 4.4343 0.785586 -1.36625 0
M  V30 51 C 5.8453 1.36101 -1.27803 0
M  V30 52 C 6.1963 1.96035 0.0804875 0
M  V30 53 O 5.3213 1.92834 0.982042 0
M  V30 54 C 5.9163 2.47442 -2.31426 0
M  V30 55 C 4.4753 3.00789 -2.26281 0
M  V30 56 C 3.6223 1.73896 -2.15999 0
M  V30 57 H 6.5733 0.586928 -1.47448 0
M  V30 58 H 6.5943 3.2656 -1.95291 0
M  V30 59 H 6.1063 2.03791 -3.30289 0
M  V30 60 H 4.2073 3.48851 -1.30896 0
M  V30 61 H 4.3203 3.57343 -3.19128 0
M  V30 62 H 2.6843 1.9628 -1.62316 0
M  V30 63 H 3.4673 1.32368 -3.16755 0
M  V30 64 N 5.9124 1.20967 1.01018 0
M  V30 65 C 7.1584 1.0353 1.7508 0
M  V30 66 C 7.5134 -0.42734 1.87594 0
M  V30 67 O 6.8064 -1.31298 1.3954 0
M  V30 68 C 7.0004 1.65997 3.16512 0
M  V30 69 C 6.8294 3.18184 3.17788 0
M  V30 70 C 5.5994 3.87198 3.24662 0
M  V30 71 C 7.7974 4.15334 3.03319 0
M  V30 72 N 5.7794 5.26618 3.15509 0
M  V30 73 C 7.1504 5.41472 3.02007 0
M  V30 74 C 9.2054 4.06449 2.87583 0
M  V30 75 C 7.9084 6.5975 2.86571 0
M  V30 76 C 9.9344 5.24357 2.73503 0
M  V30 77 C 9.2964 6.49404 2.72862 0
M  V30 78 H 5.3954 0.433137 0.651089 0
M  V30 79 H 7.9794 1.5324 1.20107 0
M  V30 80 H 6.1504 1.18863 3.69765 0
M  V30 81 H 7.8824 1.41816 3.79039 0
M  V30 82 H 4.6374 3.38093 3.31648 0
M  V30 83 H 5.0614 5.99626 3.14289 0
M  V30 84 H 9.7034 3.10573 2.86887 0
M  V30 85 H 7.4214 7.55792 2.86015 0
M  V30 86 H 11.0074 5.19299 2.62334 0
M  V30 87 H 9.8874 7.39105 2.62093 0
M  V30 88 N 7.3905 -1.2043 1.01659 0
M  V30 89 C 8.3375 -2.23215 0.586822 0
M  V30 90 C 9.3075 -1.61382 -0.393085 0
M  V30 91 O 10.4925 -1.88544 -0.292525 0
M  V30 92 C 7.6325 -3.45032 -0.0687464 0
M  V30 93 C 6.7455 -4.21296 0.955724 0
M  V30 94 C 5.8805 -5.30507 0.271208 0
M  V30 95 C 4.9195 -5.98515 1.28244 0
M  V30 96 N 4.0565 -6.99316 0.62459 0
M  V30 97 H 8.8965 -2.59336 1.46796 0
M  V30 98 H 6.4335 -1.27431 0.734836 0
M  V30 99 H 8.3915 -4.1459 -0.465965 0
M  V30 100 H 7.0215 -3.09604 -0.913529 0
M  V30 101 H 6.0735 -3.50803 1.4711 0
M  V30 102 H 7.3855 -4.6803 1.72479 0
M  V30 103 H 6.5395 -6.06428 -0.18151 0
M  V30 104 H 5.2785 -4.8481 -0.530163 0
M  V30 105 H 4.2835 -5.21355 1.74554 0
M  V30 106 H 5.5085 -6.46298 2.08509 0
M  V30 107 H 3.4545 -6.55812 -0.156914 0
M  V30 108 H 3.3715 -7.44178 1.33172 0
M  V30 109 H 4.6395 -7.79255 0.195462 0
M  V30 110 N 8.8686 -0.792821 -1.36206 0
M  V30 111 C 10.1176 -0.363353 -1.984 0
M  V30 112 C 10.4306 1.07172 -1.63626 0
M  V30 113 O 11.6366 1.60362 -2.19081 0
M  V30 114 C 10.0926 -0.59872 -3.54885 0
M  V30 115 C 9.7006 -2.04543 -3.9858 0
M  V30 116 C 11.4446 -0.233926 -4.23855 0
M  V30 117 C 9.3516 -2.22727 -5.47856 0
M  V30 118 H 8.2816 -0.13212 -0.742334 0
M  V30 119 H 10.9326 -0.974935 -1.55458 0
M  V30 120 H 9.3146 0.0826222 -3.95914 0
M  V30 121 H 10.4886 -2.76345 -3.68741 0
M  V30 122 H 8.8036 -2.36879 -3.42458 0
M  V30 123 H 11.4006 -0.348027 -5.33566 0
M  V30 124 H 11.7436 0.818351 -4.08177 0
M  V30 125 H 12.2766 -0.868639 -3.882 0
M  V30 126 H 9.0156 -3.2635 -5.68486 0
M  V30 127 H 8.5356 -1.55434 -5.7931 0
M  V30 128 H 10.2146 -2.03607 -6.14128 0
M  V30 129 N 10.3467 1.47872 -0.545128 0
M  V30 130 C 11.5717 2.07391 -0.0190611 0
M  V30 131 C 11.9967 1.39688 1.25971 0
M  V30 132 O 11.3547 0.467816 1.7516 0
M  V30 133 C 11.4027 3.60188 0.172335 0
M  V30 134 O 10.5067 3.9339 1.23766 0
M  V30 135 H 9.8477 0.662411 -0.0459059 0
M  V30 136 H 12.3777 1.90066 -0.757365 0
M  V30 137 H 12.3877 4.06129 0.390305 0
M  V30 138 H 11.0627 4.08865 -0.761725 0
M  V30 139 H 9.6397 3.5921 1.00114 0
M  V30 140 N 11.8248 0.280983 1.55075 0
M  V30 141 C 12.7578 -0.645439 2.18882 0
M  V30 142 C 13.7358 -1.14786 1.15165 0
M  V30 143 O 14.9198 -1.21975 1.43716 0
M  V30 144 C 12.0468 -1.88088 2.81674 0
M  V30 145 C 11.0928 -1.51343 3.98745 0
M  V30 146 S 11.9258 -0.586548 5.32278 0
M  V30 147 C 13.0818 -1.83024 5.98543 0
M  V30 148 H 13.3148 -0.1033 2.9712 0
M  V30 149 H 10.8478 0.0652099 1.54262 0
M  V30 150 H 12.8058 -2.58997 3.18482 0
M  V30 151 H 11.4668 -2.39417 2.03318 0
M  V30 152 H 10.6598 -2.43289 4.41392 0
M  V30 153 H 10.2618 -0.884477 3.63391 0
M  V30 154 H 12.5538 -2.77342 6.18133 0
M  V30 155 H 13.4968 -1.44668 6.93164 0
M  V30 156 H 13.9048 -1.99785 5.27964 0
M  V30 157 N 13.3029 -1.57598 0.00835791 0
M  V30 158 C 14.5499 -1.90928 -0.674732 0
M  V30 159 C 14.8779 -0.88277 -1.73313 0
M  V30 160 O 14.1329 0.111294 -1.95383 0
M  V30 161 C 14.4319 -3.3101 -1.34787 0
M  V30 162 C 14.0979 -4.48922 -0.421861 0
M  V30 163 C 12.7599 -4.8091 -0.166927 0
M  V30 164 C 15.1119 -5.20755 0.215211 0
M  V30 165 C 12.4399 -5.821 0.733232 0
M  V30 166 C 14.7919 -6.22905 1.1033 0
M  V30 167 C 13.4559 -6.53346 1.36733 0
M  V30 168 H 12.7259 -0.698656 -0.246902 0
M  V30 169 H 15.3729 -1.91387 0.0656779 0
M  V30 170 H 13.6779 -3.26714 -2.16253 0
M  V30 171 H 15.3749 -3.54061 -1.8826 0
M  V30 172 H 11.9649 -4.23934 -0.630729 0
M  V30 173 H 16.1489 -4.9629 0.0312829 0
M  V30 174 H 11.4049 -6.04042 0.945712 0
M  V30 175 H 15.5789 -6.77694 1.60325 0
M  V30 176 H 13.2059 -7.31573 2.06652 0
M  V30 177 N 14.781 0.264519 -1.55364 0
M  V30 178 C 15.711 1.33121 -1.91836 0
M  V30 179 C 16.692 1.51101 -0.781192 0
M  V30 180 O 17.877 1.64003 -1.04003 0
M  V30 181 C 15.007 2.68921 -2.19769 0
M  V30 182 C 13.961 2.65661 -3.35571 0
M  V30 183 C 13.287 4.05093 -3.49004 0
M  V30 184 C 14.587 2.24187 -4.71739 0
M  V30 185 H 16.281 1.02844 -2.81182 0
M  V30 186 H 13.827 0.493286 -1.35287 0
M  V30 187 H 15.78 3.43663 -2.43872 0
M  V30 188 H 14.504 3.00799 -1.27231 0
M  V30 189 H 13.163 1.93377 -3.1145 0
M  V30 190 H 12.811 4.34206 -2.53917 0
M  V30 191 H 12.511 4.03804 -4.26868 0
M  V30 192 H 14.035 4.81561 -3.75408 0
M  V30 193 H 15.449 2.88654 -4.9533 0
M  V30 194 H 13.846 2.34044 -5.52579 0
M  V30 195 H 14.916 1.19327 -4.69988 0
M  V30 196 N 16.2591 1.48442 0.529413 0
M  V30 197 C 17.4841 1.60406 1.31471 0
M  V30 198 C 17.9091 0.264738 1.86228 0
M  V30 199 O 17.2671 -0.763668 1.64432 0
M  V30 200 C 17.3151 2.65419 2.44101 0
M  V30 201 O 16.4191 2.22618 3.47153 0
M  V30 202 H 15.7601 0.537863 0.389357 0
M  V30 203 H 18.2901 1.94432 0.636965 0
M  V30 204 H 18.3001 2.86709 2.90279 0
M  V30 205 H 16.9751 3.62652 2.03608 0
M  V30 206 H 15.5521 2.11543 3.0709 0
M  V30 207 N 17.7372 -0.778329 1.37039 0
M  V30 208 C 18.9832 -1.53892 1.32079 0
M  V30 209 C 19.3162 -1.9396 -0.0965386 0
M  V30 210 O 18.5912 -1.63568 -1.05242 0
M  V30 211 C 18.8742 -2.80847 2.25382 0
M  V30 212 C 18.7272 -2.47076 3.75864 0
M  V30 213 C 20.0462 -3.82741 2.1725 0
M  V30 214 H 17.1652 -0.558303 0.48111 0
M  V30 215 H 19.8072 -0.893397 1.67685 0
M  V30 216 H 17.9572 -3.35931 1.95148 0
M  V30 217 H 19.6292 -1.97957 4.16666 0
M  V30 218 H 17.8722 -1.79863 3.94755 0
M  V30 219 H 18.5432 -3.37798 4.36574 0
M  V30 220 H 21.0192 -3.37133 2.43887 0
M  V30 221 H 19.8952 -4.69303 2.84686 0
M  V30 222 H 20.1562 -4.2652 1.16331 0
M  V30 223 N 19.2153 -1.21501 -1.00376 0
M  V30 224 C 20.6313 -0.972629 -1.26539 0
M  V30 225 C 20.8313 0.340257 -1.98606 0
M  V30 226 O 19.8873 1.06561 -2.28913 0
M  V30 227 C 21.2003 -2.16404 -2.08781 0
M  V30 228 C 22.7483 -2.20643 -2.22004 0
M  V30 229 C 23.2233 -3.39306 -3.07629 0
M  V30 230 N 24.7143 -3.39401 -3.15217 0
M  V30 231 C 25.4493 -4.27867 -3.81729 0
M  V30 232 N 24.9453 -5.26533 -4.5026 0
M  V30 233 N 26.7383 -4.15672 -3.78382 0
M  V30 234 H 18.8893 -2.05929 -0.520281 0
M  V30 235 H 21.1523 -0.901803 -0.292328 0
M  V30 236 H 20.8583 -3.11554 -1.63178 0
M  V30 237 H 20.7323 -2.15567 -3.09533 0
M  V30 238 H 23.1193 -1.26048 -2.66825 0
M  V30 239 H 23.2003 -2.25523 -1.20718 0
M  V30 240 H 22.8443 -4.34195 -2.63509 0
M  V30 241 H 22.7743 -3.31665 -4.09031 0
M  V30 242 H 25.2653 -2.67997 -2.66432 0
M  V30 243 H 25.5783 -5.90337 -4.98721 0
M  V30 244 H 23.9233 -5.30457 -4.49044 0
M  V30 245 H 27.1143 -3.3785 -3.23998 0
M  V30 246 H 27.2873 -4.84825 -4.2994 0
M  V30 247 N 20.6934 1.19889 -1.02296 0
M  V30 248 C 21.6034 2.26571 -0.608508 0
M  V30 249 C 22.6194 1.70299 0.356964 0
M  V30 250 O 23.7954 2.00235 0.216326 0
M  V30 251 C 20.8604 3.46677 0.0402814 0
M  V30 252 C 19.9214 4.18153 -0.97194 0
M  V30 253 C 19.1544 5.32525 -0.354016 0
M  V30 254 O 19.3774 5.64112 0.844604 0
M  V30 255 O 18.3114 5.92242 -1.07391 0
M  V30 256 H 22.1374 2.64251 -1.49684 0
M  V30 257 H 19.7224 1.26629 -0.792809 0
M  V30 258 H 21.6044 4.19475 0.402324 0
M  V30 259 H 20.2794 3.10858 0.902707 0
M  V30 260 H 19.1864 3.47499 -1.38546 0
M  V30 261 H 20.5194 4.57927 -1.80454 0
M  V30 262 N 22.1715 0.800033 1.35784 0
M  V30 263 C 23.4485 0.30088 1.93272 0
M  V30 264 C 23.8285 -1.20857 1.73081 0
M  V30 265 O 23.1765 -2.00502 1.09596 0
M  V30 266 C 23.3865 0.70511 3.41803 0
M  V30 267 C 24.7345 0.690871 4.18942 0
M  V30 268 O 25.7585 0.646244 3.50289 0
M  V30 269 O 24.6175 0.74332 5.41421 0
M  V30 270 H 21.7115 0.0771605 0.823393 0
M  V30 271 H 24.2575 0.88329 1.449 0
M  V30 272 H 23.0295 1.74571 3.50201 0
M  V30 273 H 22.6525 0.0971541 3.97481 0
M  V30 274 N 23.6496 -1.47581 0.552962 0
M  V30 275 C 24.8746 -2.07378 0.0300593 0
M  V30 276 C 25.2996 -1.40355 -1.25229 0
M  V30 277 O 24.6576 -0.477099 -1.7491 0
M  V30 278 C 24.7056 -3.60274 -0.153231 0
M  V30 279 O 23.8096 -3.94041 -1.21678 0
M  V30 280 H 23.1506 -0.662158 0.0494182 0
M  V30 281 H 25.6806 -1.89662 0.767434 0
M  V30 282 H 25.6906 -4.0633 -0.368761 0
M  V30 283 H 24.3656 -4.08455 0.783397 0
M  V30 284 H 22.9426 -3.59735 -0.982079 0
M  V30 285 N 25.1277 -0.289203 -1.54924 0
M  V30 286 C 26.3737 0.323998 -2.00195 0
M  V30 287 C 26.7067 1.54441 -1.17735 0
M  V30 288 O 25.9817 1.92875 -0.250878 0
M  V30 289 C 26.2647 0.692276 -3.53383 0
M  V30 290 C 26.1177 -0.536457 -4.46589 0
M  V30 291 C 27.4367 1.52335 -4.12895 0
M  V30 292 H 24.5557 0.116289 -0.727768 0
M  V30 293 H 27.1977 -0.398954 -1.85764 0
M  V30 294 H 25.3477 1.30822 -3.65811 0
M  V30 295 H 27.0197 -1.17499 -4.46085 0
M  V30 296 H 25.2627 -1.17192 -4.1767 0
M  V30 297 H 25.9337 -0.234806 -5.515 0
M  V30 298 H 28.4097 1.00302 -4.0383 0
M  V30 299 H 27.2857 1.74982 -5.20262 0
M  V30 300 H 27.5467 2.50886 -3.64018 0
M  V30 301 N 26.6058 1.57591 -0.0167156 0
M  V30 302 C 28.0168 1.79201 0.523834 0
M  V30 303 C 28.3678 0.925796 1.72984 0
M  V30 304 O 27.4928 0.132792 2.15992 0
M  V30 305 C 28.0878 3.25 0.957091 0
M  V30 306 C 26.6468 3.47648 1.44283 0
M  V30 307 C 25.7938 2.74374 0.401757 0
M  V30 308 H 28.7448 1.56831 -0.242816 0
M  V30 309 H 28.7658 3.34031 1.82219 0
M  V30 310 H 28.2778 3.88019 0.0791415 0
M  V30 311 H 26.3788 2.89866 2.34113 0
M  V30 312 H 26.4918 4.56352 1.45877 0
M  V30 313 H 24.8558 2.39485 0.867121 0
M  V30 314 H 25.6388 3.40102 -0.467513 0
M  V30 315 N 28.0839 -0.256276 1.55502 0
M  V30 316 C 29.3119 -1.00342 1.8094 0
M  V30 317 C 29.7269 -1.79307 0.59114 0
M  V30 318 O 29.0839 -1.77114 -0.440081 0
M  V30 319 C 29.1349 -1.94875 3.04476 0
M  V30 320 O 28.8559 -1.19107 4.21598 0
M  V30 321 C 30.3569 -2.81266 3.42644 0
M  V30 322 H 27.5769 -0.295685 0.602338 0
M  V30 323 H 30.1209 -0.281998 2.02546 0
M  V30 324 H 28.2759 -2.62457 2.84947 0
M  V30 325 H 28.6899 -1.82969 4.91551 0
M  V30 326 H 30.1639 -3.43362 4.32211 0
M  V30 327 H 30.6409 -3.51897 2.62802 0
M  V30 328 H 31.2469 -2.1915 3.64491 0
M  V30 329 N 29.562 -1.4872 -0.521534 0
M  V30 330 C 30.79 -1.60843 -1.30142 0
M  V30 331 C 31.205 -0.271897 -1.86832 0
M  V30 332 O 30.562 0.739969 -1.66825 0
M  V30 333 C 30.613 -2.66155 -2.4463 0
M  V30 334 O 30.334 -3.94623 -1.90275 0
M  V30 335 C 31.835 -2.88795 -3.36322 0
M  V30 336 H 29.055 -0.542075 -0.395468 0
M  V30 337 H 31.599 -1.94609 -0.628285 0
M  V30 338 H 29.754 -2.35224 -3.07812 0
M  V30 339 H 30.168 -4.52468 -2.65279 0
M  V30 340 H 31.642 -3.66264 -4.12983 0
M  V30 341 H 32.119 -1.97934 -3.9207 0
M  V30 342 H 32.725 -3.21063 -2.78924 0
M  V30 343 N 31.0401 0.771051 -1.3745 0
M  V30 344 C 32.0031 1.86598 -1.33093 0
M  V30 345 C 33.0031 1.59076 -0.234845 0
M  V30 346 O 34.1931 1.67145 -0.490732 0
M  V30 347 C 31.3251 3.23747 -1.06773 0
M  V30 348 H 32.5181 1.91873 -2.30488 0
M  V30 349 H 30.0711 0.970876 -1.2249 0
M  V30 350 H 30.8061 3.24148 -0.099129 0
M  V30 351 H 30.5911 3.45115 -1.86112 0
M  V30 352 H 32.0811 4.03824 -1.06377 0
M  V30 353 N 32.5182 1.22032 0.997298 0
M  V30 354 C 33.7432 1.06921 1.77715 0
M  V30 355 C 34.1682 -0.376226 1.84299 0
M  V30 356 O 33.5262 -1.27165 1.29223 0
M  V30 357 C 33.5742 1.67996 3.19076 0
M  V30 358 O 32.6782 0.930653 4.01762 0
M  V30 359 H 32.0192 0.375814 0.547412 0
M  V30 360 H 34.5492 1.61737 1.25309 0
M  V30 361 H 34.5592 1.72538 3.69723 0
M  V30 362 H 33.2342 2.73182 3.13599 0
M  V30 363 H 31.8112 0.960917 3.60307 0
M  V30 364 N 33.9963 -1.19345 1.0293 0
M  V30 365 C 35.2433 -1.89038 0.726008 0
M  V30 366 C 35.5713 -1.79649 -0.745427 0
M  V30 367 O 34.8263 -1.18354 -1.55855 0
M  V30 368 C 35.1253 -3.39292 1.12319 0
M  V30 369 C 34.7913 -3.68885 2.59297 0
M  V30 370 C 33.4533 -3.76671 2.99453 0
M  V30 371 C 35.8053 -3.82178 3.54386 0
M  V30 372 C 33.1333 -3.9522 4.33611 0
M  V30 373 C 35.4853 -4.0224 4.88248 0
M  V30 374 C 34.1493 -4.08259 5.28092 0
M  V30 375 H 33.4193 -0.691739 0.265665 0
M  V30 376 H 36.0663 -1.41328 1.29223 0
M  V30 377 H 34.3713 -3.88903 0.475584 0
M  V30 378 H 36.0683 -3.91536 0.866037 0
M  V30 379 H 32.6583 -3.63433 2.27189 0
M  V30 380 H 36.8423 -3.75505 3.24514 0
M  V30 381 H 32.0983 -3.98119 4.64016 0
M  V30 382 H 36.2723 -4.11468 5.61843 0
M  V30 383 H 33.8993 -4.22384 6.32057 0
M  V30 384 N 35.4744 -0.807222 -1.35358 0
M  V30 385 C 36.6994 -0.399309 -2.0352 0
M  V30 386 C 37.1244 0.981986 -1.60433 0
M  V30 387 O 36.4824 1.63601 -0.781299 0
M  V30 388 C 36.5304 -0.491552 -3.57234 0
M  V30 389 O 35.6344 0.494754 -4.09421 0
M  V30 390 H 34.9754 -0.166682 -0.642739 0
M  V30 391 H 37.5054 -1.09328 -1.72941 0
M  V30 392 H 37.5154 -0.361588 -4.06395 0
M  V30 393 H 36.1904 -1.49907 -3.87944 0
M  V30 394 H 34.7674 0.324977 -3.71481 0
M  V30 395 N 36.9525 1.47285 -0.560781 0
M  V30 396 C 37.9155 2.28535 0.174488 0
M  V30 397 C 38.9155 1.37153 0.839388 0
M  V30 398 O 40.1055 1.59748 0.694702 0
M  V30 399 C 37.2375 3.16934 1.25561 0
M  V30 400 H 38.4305 2.95012 -0.539262 0
M  V30 401 H 35.9835 1.53034 -0.317865 0
M  V30 402 H 36.7185 2.55157 2.00164 0
M  V30 403 H 36.5035 3.8419 0.783604 0
M  V30 404 H 37.9935 3.78143 1.77193 0
M  V30 405 N 38.4306 0.297415 1.54768 0
M  V30 406 C 39.7076 -0.365847 1.92148 0
M  V30 407 C 40.0876 -1.71975 1.22424 0
M  V30 408 O 39.4356 -2.25666 0.358739 0
M  V30 409 C 39.6456 -0.484056 3.45627 0
M  V30 410 C 40.9936 -0.756594 4.17805 0
M  V30 411 O 42.0176 -0.568007 3.51642 0
M  V30 412 O 40.8766 -1.11863 5.34929 0
M  V30 413 H 37.9706 -0.203919 0.801465 0
M  V30 414 H 40.5166 0.34521 1.66152 0
M  V30 415 H 39.2886 0.467865 3.88493 0
M  V30 416 H 38.9116 -1.24372 3.77647 0
M  V30 417 N 39.9087 -1.5758 0.0250728 0
M  V30 418 C 40.8417 -2.05473 -0.992777 0
M  V30 419 C 41.8197 -0.949661 -1.31986 0
M  V30 420 O 43.0037 -1.21969 -1.43722 0
M  V30 421 C 40.1307 -2.4734 -2.31389 0
M  V30 422 C 39.1767 -3.68827 -2.1417 0
M  V30 423 S 40.0097 -5.15655 -1.44429 0
M  V30 424 C 41.1657 -5.60814 -2.77918 0
M  V30 425 H 41.3987 -2.91486 -0.585078 0
M  V30 426 H 38.9317 -1.53269 -0.186507 0
M  V30 427 H 40.8897 -2.72127 -3.07339 0
M  V30 428 H 39.5507 -1.6168 -2.69292 0
M  V30 429 H 38.7437 -3.95955 -3.11826 0
M  V30 430 H 38.3457 -3.44172 -1.46362 0
M  V30 431 H 40.6377 -5.64806 -3.74166 0
M  V30 432 H 41.5807 -6.60414 -2.55459 0
M  V30 433 H 41.9887 -4.8845 -2.82979 0
M  V30 434 N 41.3868 0.248026 -1.55636 0
M  V30 435 C 42.3168 1.31079 -1.93237 0
M  V30 436 C 43.2978 1.50264 -0.797174 0
M  V30 437 O 44.4828 1.62891 -1.05737 0
M  V30 438 C 41.6128 2.66575 -2.22609 0
M  V30 439 C 40.5668 2.62087 -3.3837 0
M  V30 440 C 39.8928 4.01369 -3.53281 0
M  V30 441 C 41.1928 2.19171 -4.7409 0
M  V30 442 H 42.8868 0.998556 -2.82257 0
M  V30 443 H 40.4328 0.47891 -1.35803 0
M  V30 444 H 42.3858 3.41057 -2.47503 0
M  V30 445 H 41.1098 2.99432 -1.30414 0
M  V30 446 H 39.7688 1.90063 -3.13483 0
M  V30 447 H 39.4168 4.31489 -2.58508 0
M  V30 448 H 39.1168 3.99254 -4.31127 0
M  V30 449 H 40.6408 4.77552 -3.80495 0
M  V30 450 H 42.0548 2.83384 -4.98363 0
M  V30 451 H 40.4518 2.2817 -5.5503 0
M  V30 452 H 41.5218 1.14336 -4.71227 0
M  V30 453 N 42.8649 1.48995 0.513639 0
M  V30 454 C 43.8129 1.65199 1.63744 0
M  V30 455 C 44.8069 0.51809 1.61283 0
M  V30 456 O 46.0129 0.697335 1.65943 0
M  V30 457 H 42.3879 0.52069 0.542574 0
M  V30 458 H 44.3589 2.59552 1.47226 0
M  V30 459 C 43.1079 1.72409 3.01945 0
M  V30 460 H 42.4309 2.59029 3.04539 0
M  V30 461 H 43.8709 1.87785 3.80148 0
M  V30 462 C 42.3299 0.46618 3.33659 0
M  V30 463 O 42.8599 -0.413744 3.99564 0
M  V30 464 N 41.0659 0.332931 2.88687 0
M  V30 465 H 40.6129 1.04996 2.35231 0
M  V30 466 H 40.5709 -0.507665 3.10274 0
M  V30 467 N 44.343 -0.763751 1.37857 0
M  V30 468 C 45.589 -1.52483 1.33704 0
M  V30 469 C 45.922 -1.94051 -0.0759612 0
M  V30 470 O 45.197 -1.64675 -1.03501 0
M  V30 471 C 45.48 -2.78441 2.28348 0
M  V30 472 C 45.333 -2.43075 3.78463 0
M  V30 473 C 46.652 -3.80415 2.21298 0
M  V30 474 H 43.771 -0.553169 0.487005 0
M  V30 475 H 46.413 -0.875562 1.68624 0
M  V30 476 H 44.563 -3.33842 1.987 0
M  V30 477 H 46.235 -1.93527 4.18742 0
M  V30 478 H 44.478 -1.75666 3.96641 0
M  V30 479 H 45.149 -3.33149 4.40132 0
M  V30 480 H 47.625 -3.34527 2.47449 0
M  V30 481 H 46.501 -4.66257 2.89647 0
M  V30 482 H 46.762 -4.25262 1.20849 0
M  V30 483 N 45.8211 -1.22559 -0.990812 0
M  V30 484 C 47.0491 -1.07779 -1.76611 0
M  V30 485 C 47.4641 0.371513 -1.85109 0
M  V30 486 O 46.8211 1.25737 -1.32274 0
M  V30 487 C 46.8721 -1.68512 -3.19822 0
M  V30 488 O 46.5931 -3.07774 -3.1178 0
M  V30 489 C 48.0941 -1.59035 -4.13791 0
M  V30 490 H 45.3141 -0.377729 -0.554583 0
M  V30 491 H 47.8581 -1.62195 -1.24551 0
M  V30 492 H 46.0131 -1.18154 -3.68942 0
M  V30 493 H 46.4271 -3.37062 -4.01858 0
M  V30 494 H 47.9011 -2.0625 -5.1202 0
M  V30 495 H 48.3781 -0.547273 -4.35777 0
M  V30 496 H 48.9841 -2.08709 -3.70568 0
M  V30 497 N 47.2992 1.18797 -1.03562 0
M  V30 498 C 48.2292 2.24472 -0.643019 0
M  V30 499 C 49.2102 1.66433 0.351283 0
M  V30 500 O 50.3952 1.92803 0.232505 0
M  V30 501 C 47.5252 3.473 4.24935e-05 0
M  V30 502 C 46.4792 4.18055 -0.917257 0
M  V30 503 C 45.8052 5.34519 -0.138941 0
M  V30 504 C 47.1052 4.72109 -2.23407 0
M  V30 505 H 48.7992 2.57566 -1.52643 0
M  V30 506 H 46.3452 1.23806 -0.735394 0
M  V30 507 H 48.2982 4.20426 0.286383 0
M  V30 508 H 47.0222 3.13424 0.918299 0
M  V30 509 H 45.6812 3.46821 -1.1879 0
M  V30 510 H 45.3292 4.96891 0.781562 0
M  V30 511 H 45.0292 5.82794 -0.750005 0
M  V30 512 H 46.5532 6.10438 0.1405 0
M  V30 513 H 47.9672 5.36955 -2.00879 0
M  V30 514 H 46.3642 5.30897 -2.79765 0
M  V30 515 H 47.4342 3.89807 -2.88407 0
M  V30 516 N 48.7773 0.814389 1.34928 0
M  V30 517 C 49.7093 0.187834 2.28429 0
M  V30 518 C 50.7223 -0.617374 1.5064 0
M  V30 519 O 51.9113 -0.448454 1.72775 0
M  V30 520 C 49.0113 -0.755962 3.30361 0
M  V30 521 C 48.1843 0.00456686 4.374 0
M  V30 522 C 47.2433 -0.858876 5.19143 0
M  V30 523 O 46.2693 -0.306968 5.68372 0
M  V30 524 N 47.4713 -2.17988 5.38016 0
M  V30 525 H 50.2363 0.991105 2.82838 0
M  V30 526 H 47.7973 0.670561 1.4736 0
M  V30 527 H 49.7893 -1.338 3.81942 0
M  V30 528 H 48.3593 -1.46001 2.7641 0
M  V30 529 H 47.5793 0.767865 3.86649 0
M  V30 530 H 48.8673 0.528422 5.06049 0
M  V30 531 H 48.2653 -2.65212 4.99679 0
M  V30 532 H 46.8223 -2.71098 5.92747 0
M  V30 533 N 50.2554 -1.46986 0.568584 0
M  V30 534 C 51.5034 -2.02041 0.0487022 0
M  V30 535 C 51.8244 -1.44408 -1.31039 0
M  V30 536 O 51.0944 -0.623477 -1.85714 0
M  V30 537 H 49.6744 -0.746849 0.015014 0
M  V30 538 H 52.3364 -1.80257 0.741168 0
M  V30 539 H 51.4324 -3.12085 -0.0308961 0
M  V30 540 N 51.7335 -0.305618 -1.54608 0
M  V30 541 C 53.1445 0.186098 -1.8577 0
M  V30 542 C 53.4955 1.53058 -1.22751 0
M  V30 543 O 52.6205 2.09888 -0.526893 0
M  V30 544 C 53.2155 0.344449 -3.37044 0
M  V30 545 C 51.7745 0.780384 -3.68221 0
M  V30 546 C 50.9215 -0.108554 -2.77087 0
M  V30 547 H 53.8725 -0.526485 -1.49712 0
M  V30 548 H 53.8935 1.17828 -3.61796 0
M  V30 549 H 53.4055 -0.634235 -3.82883 0
M  V30 550 H 51.5065 1.76945 -3.27904 0
M  V30 551 H 51.6195 0.596572 -4.75371 0
M  V30 552 H 49.9835 0.412931 -2.5133 0
M  V30 553 H 50.7665 -1.08368 -3.25747 0
M  V30 554 N 53.2116 1.57565 -0.0334293 0
M  V30 555 C 54.4396 1.9628 0.654347 0
M  V30 556 C 54.8546 0.910138 1.65414 0
M  V30 557 O 54.2116 -0.107595 1.82183 0
M  V30 558 C 54.2626 3.35067 1.35693 0
M  V30 559 O 53.9836 4.36296 0.397191 0
M  V30 560 C 55.4846 3.88439 2.13613 0
M  V30 561 H 52.7046 0.646369 0.180132 0
M  V30 562 H 55.2486 2.04282 -0.0944721 0
M  V30 563 H 53.4036 3.2827 2.05712 0
M  V30 564 H 53.8176 5.1678 0.896597 0
M  V30 565 H 55.2916 4.8788 2.58219 0
M  V30 566 H 55.7686 3.22914 2.97696 0
M  V30 567 H 56.3746 3.98516 1.48543 0
M  V30 568 N 54.6897 -0.239769 1.55765 0
M  V30 569 C 55.6197 -1.30052 1.9393 0
M  V30 570 C 56.6007 -1.49839 0.805132 0
M  V30 571 O 57.7857 -1.62328 1.06599 0
M  V30 572 C 54.9157 -2.65391 2.2402 0
M  V30 573 C 53.8697 -2.60289 3.39755 0
M  V30 574 C 53.1957 -3.99489 3.55405 0
M  V30 575 C 54.4957 -2.16654 4.75246 0
M  V30 576 H 56.1897 -0.983573 2.82783 0
M  V30 577 H 53.7357 -0.471701 1.36055 0
M  V30 578 H 55.6887 -3.3974 2.49308 0
M  V30 579 H 54.4127 -2.98736 1.32 0
M  V30 580 H 53.0717 -1.88398 3.14487 0
M  V30 581 H 52.7197 -4.30112 2.60793 0
M  V30 582 H 52.4197 -3.96962 4.33238 0
M  V30 583 H 53.9437 -4.75528 3.83022 0
M  V30 584 H 55.3577 -2.80737 4.99859 0
M  V30 585 H 53.7547 -2.25223 5.56232 0
M  V30 586 H 54.8247 -1.11835 4.71827 0
M  V30 587 N 56.1678 -1.49265 -0.50573 0
M  V30 588 C 57.1158 -1.66065 -1.62866 0
M  V30 589 C 58.1098 -0.526636 -1.61006 0
M  V30 590 O 59.3158 -0.706126 -1.65571 0
M  V30 591 H 55.6908 -0.52356 -0.539805 0
M  V30 592 H 57.6618 -2.60329 -1.45848 0
M  V30 593 C 56.4108 -1.74008 -3.01026 0
M  V30 594 H 55.7338 -2.6064 -3.03161 0
M  V30 595 H 57.1738 -1.89798 -3.79147 0
M  V30 596 C 55.6328 -0.483868 -3.33407 0
M  V30 597 O 56.1628 0.392548 -3.99777 0
M  V30 598 N 54.3688 -0.348236 -2.88506 0
M  V30 599 H 53.9158 -1.06242 -2.34671 0
M  V30 600 H 53.8738 0.491204 -3.10539 0
M  V30 601 N 57.6459 0.756429 -1.3826 0
M  V30 602 C 58.8939 1.51248 -1.34047 0
M  V30 603 C 59.2149 1.94875 0.0698372 0
M  V30 604 O 58.4849 1.67436 1.01696 0
M  V30 605 H 57.0649 0.561018 -0.493222 0
M  V30 606 H 59.7269 0.899347 -1.7291 0
M  V30 607 H 58.8229 2.40472 -1.98947 0
M  V30 608 N 59.124 1.23083 0.984299 0
M  V30 609 C 60.352 1.08714 1.76037 0
M  V30 610 C 60.767 -0.361691 1.85303 0
M  V30 611 O 60.124 -1.25034 1.32939 0
M  V30 612 C 60.175 1.70206 3.18923 0
M  V30 613 O 59.896 3.09423 3.10144 0
M  V30 614 C 61.397 1.61227 4.12941 0
M  V30 615 H 58.617 0.380664 0.552572 0
M  V30 616 H 61.161 1.62853 1.23689 0
M  V30 617 H 59.316 1.20109 3.6831 0
M  V30 618 H 59.73 3.39188 4.00065 0
M  V30 619 H 61.204 2.08962 5.10919 0
M  V30 620 H 61.681 0.570375 4.35481 0
M  V30 621 H 62.287 2.10671 3.69456 0
M  V30 622 N 60.6021 -1.18246 1.0419 0
M  V30 623 C 61.8491 -1.88257 0.746017 0
M  V30 624 C 62.1771 -1.80429 -0.726331 0
M  V30 625 O 61.4321 -1.2 -1.54591 0
M  V30 626 C 61.7311 -3.38082 1.15911 0
M  V30 627 C 61.3971 -3.66114 2.63195 0
M  V30 628 C 60.0591 -3.73474 3.03432 0
M  V30 629 C 62.4111 -3.78398 3.5842 0
M  V30 630 C 59.7391 -3.90599 4.37778 0
M  V30 631 C 62.0911 -3.97039 4.92487 0
M  V30 632 C 60.7551 -4.02635 5.32392 0
M  V30 633 H 60.0251 -0.688883 0.272987 0
M  V30 634 H 62.6721 -1.3995 1.30715 0
M  V30 635 H 60.9771 -3.88377 0.516806 0
M  V30 636 H 62.6741 -3.90596 0.907516 0
M  V30 637 H 59.2641 -3.61003 2.3103 0
M  V30 638 H 63.4481 -3.72042 3.28479 0
M  V30 639 H 58.7041 -3.93175 4.68213 0
M  V30 640 H 62.8781 -4.05486 5.66175 0
M  V30 641 H 60.5051 -4.15657 6.36501 0
M  V30 642 N 62.0802 -0.821533 -1.34494 0
M  V30 643 C 63.0432 -0.247847 -2.27856 0
M  V30 644 C 64.0432 0.573453 -1.50227 0
M  V30 645 O 65.2332 0.389759 -1.69784 0
M  V30 646 C 62.3652 0.652698 -3.34593 0
M  V30 647 H 63.5582 -1.07146 -2.80107 0
M  V30 648 H 61.1112 -0.593291 -1.44602 0
M  V30 649 H 61.8462 1.49943 -2.87555 0
M  V30 650 H 61.6312 0.065292 -3.92046 0
M  V30 651 H 63.1212 1.04793 -4.04238 0
M  V30 652 N 63.5583 1.46682 -0.576371 0
M  V30 653 C 64.4903 2.28341 0.198231 0
M  V30 654 C 65.5033 1.38141 0.861453 0
M  V30 655 O 66.6923 1.62797 0.732082 0
M  V30 656 C 63.7923 3.12986 1.29972 0
M  V30 657 C 62.9653 4.31271 0.729639 0
M  V30 658 C 62.0243 4.97363 1.71803 0
M  V30 659 O 61.0503 5.55156 1.25658 0
M  V30 660 N 62.2523 4.93796 3.05198 0
M  V30 661 H 65.0173 2.9546 -0.502324 0
M  V30 662 H 62.5783 1.56525 -0.413715 0
M  V30 663 H 64.5703 3.54066 1.96008 0
M  V30 664 H 63.1403 2.47984 1.90323 0
M  V30 665 H 62.3603 3.94052 -0.108012 0
M  V30 666 H 63.6483 5.07739 0.328438 0
M  V30 667 H 63.0463 4.48077 3.45317 0
M  V30 668 H 61.6033 5.38837 3.6674 0
M  V30 669 N 65.0364 0.313813 1.54444 0
M  V30 670 C 66.2614 -0.296681 2.05267 0
M  V30 671 C 66.6864 -1.45757 1.18897 0
M  V30 672 O 66.0444 -1.80239 0.195886 0
M  V30 673 C 66.0924 -0.71831 3.53373 0
M  V30 674 O 65.1964 -1.82175 3.69981 0
M  V30 675 H 64.5374 -0.0554061 0.661684 0
M  V30 676 H 67.0674 0.459387 1.99376 0
M  V30 677 H 67.0774 -1.00364 3.95463 0
M  V30 678 H 65.7524 0.130821 4.15694 0
M  V30 679 H 64.3294 -1.53598 3.39797 0
M  V30 680 N 66.5145 -1.57545 0.0417849 0
M  V30 681 C 67.4615 -2.10977 -0.935805 0
M  V30 682 C 68.4315 -1.01486 -1.31491 0
M  V30 683 O 69.6165 -1.2898 -1.40602 0
M  V30 684 C 66.7565 -2.65169 -2.2086 0
M  V30 685 C 65.8695 -3.88714 -1.88482 0
M  V30 686 C 65.0045 -4.31254 -3.1015 0
M  V30 687 C 64.0435 -5.47524 -2.7365 0
M  V30 688 N 63.1805 -5.85162 -3.87982 0
M  V30 689 H 68.0205 -2.94218 -0.473249 0
M  V30 690 H 65.5575 -1.45415 -0.221981 0
M  V30 691 H 67.5155 -2.94685 -2.95325 0
M  V30 692 H 66.1455 -1.8474 -2.64709 0
M  V30 693 H 65.1975 -3.65849 -1.04205 0
M  V30 694 H 66.5095 -4.73245 -1.57608 0
M  V30 695 H 65.6635 -4.62273 -3.92923 0
M  V30 696 H 64.4025 -3.45516 -3.44195 0
M  V30 697 H 63.4075 -5.16187 -1.89291 0
M  V30 698 H 64.6325 -6.34971 -2.40807 0
M  V30 699 H 62.5785 -5.02377 -4.21846 0
M  V30 700 H 62.4955 -6.64362 -3.60775 0
M  V30 701 H 63.7635 -6.20791 -4.71422 0
M  V30 702 N 67.9926 0.231505 -1.5589 0
M  V30 703 C 69.2326 0.964533 -1.80211 0
M  V30 704 C 69.5966 1.81926 -0.613744 0
M  V30 705 O 70.7976 2.58526 -0.736045 0
M  V30 706 C 69.0686 1.78956 -3.09369 0
M  V30 707 S 70.6276 2.57959 -3.54969 0
M  V30 708 H 67.4456 0.324173 -0.632798 0
M  V30 709 H 70.0476 0.230985 -1.94131 0
M  V30 710 H 68.7516 1.15161 -3.93911 0
M  V30 711 H 68.2826 2.56559 -2.9823 0
M  V30 712 H 70.2976 3.81309 -3.17519 0
M  V30 713 N 69.4707 1.49531 0.497807 0
M  V30 714 C 70.8817 1.52344 1.07927 0
M  V30 715 C 71.2327 0.311469 1.93712 0
M  V30 716 O 70.3577 -0.578405 2.08527 0
M  V30 717 C 70.9527 2.76062 1.96405 0
M  V30 718 C 69.5117 2.81643 2.49709 0
M  V30 719 C 68.6587 2.46299 1.27404 0
M  V30 720 H 71.6097 1.56182 0.281576 0
M  V30 721 H 71.6307 2.56405 2.81135 0
M  V30 722 H 71.1427 3.64254 1.33943 0
M  V30 723 H 69.2437 1.97739 3.15801 0
M  V30 724 H 69.3567 3.83891 2.86643 0
M  V30 725 H 67.7207 1.98148 1.60029 0
M  V30 726 H 68.5037 3.36769 0.66645 0
M  V30 727 N 70.9488 -0.749086 1.3866 0
M  V30 728 C 71.8808 -1.87273 1.32142 0
M  V30 729 C 72.8938 -1.61127 0.232787 0
M  V30 730 O 74.0828 -1.71623 0.49069 0
M  V30 731 C 71.1828 -3.23005 1.02571 0
M  V30 732 C 70.3558 -3.7662 2.22433 0
M  V30 733 C 69.4148 -4.90879 1.89537 0
M  V30 734 O 68.4408 -5.05276 2.62078 0
M  V30 735 N 69.6428 -5.74198 0.853031 0
M  V30 736 H 72.4078 -1.93373 2.28969 0
M  V30 737 H 69.9688 -0.929216 1.32579 0
M  V30 738 H 71.9608 -3.96992 0.786085 0
M  V30 739 H 70.5308 -3.12262 0.145249 0
M  V30 740 H 69.7508 -2.94147 2.62434 0
M  V30 741 H 71.0388 -4.09173 3.02415 0
M  V30 742 H 70.4368 -5.6514 0.25155 0
M  V30 743 H 68.9938 -6.48313 0.67329 0
M  V30 744 N 72.4269 -1.23603 -0.977757 0
M  V30 745 C 73.6729 -1.07129 -1.72195 0
M  V30 746 C 74.0059 0.390501 -1.90233 0
M  V30 747 O 73.2809 1.28902 -1.45653 0
M  V30 748 C 73.5639 -1.80031 -3.11867 0
M  V30 749 C 73.4169 -3.33899 -3.01383 0
M  V30 750 C 74.7359 -1.56492 -4.11337 0
M  V30 751 H 71.8549 -0.390571 -0.624999 0
M  V30 752 H 74.4969 -1.52142 -1.13811 0
M  V30 753 H 72.6469 -1.41768 -3.6171 0
M  V30 754 H 74.3189 -3.81699 -2.59043 0
M  V30 755 H 72.5619 -3.62796 -2.37827 0
M  V30 756 H 73.2329 -3.801 -4.00285 0
M  V30 757 H 75.7089 -1.89757 -3.70313 0
M  V30 758 H 74.5849 -2.09973 -5.07151 0
M  V30 759 H 74.8459 -0.500874 -4.39254 0
M  V30 760 N 73.905 1.17692 -1.04816 0
M  V30 761 C 74.815 2.25229 -0.65643 0
M  V30 762 C 75.831 1.71018 0.320761 0
M  V30 763 O 77.007 2.00649 0.173805 0
M  V30 764 C 74.072 3.46684 -0.0332629 0
M  V30 765 C 73.133 4.15997 -1.06042 0
M  V30 766 C 72.366 5.31654 -0.466893 0
M  V30 767 O 72.589 5.65777 0.724758 0
M  V30 768 O 71.523 5.89831 -1.1993 0
M  V30 769 H 75.349 2.61016 -1.55255 0
M  V30 770 H 72.934 1.24919 -0.81949 0
M  V30 771 H 74.816 4.20234 0.313256 0
M  V30 772 H 73.491 3.12703 0.836566 0
M  V30 773 H 72.398 3.44482 -1.45886 0
M  V30 774 H 73.731 4.53996 -1.90127 0
M  V30 775 N 75.3831 0.828654 1.34056 0
M  V30 776 C 76.6291 0.429279 1.98818 0
M  V30 777 C 76.9841 -0.998011 1.64492 0
M  V30 778 O 76.2771 -1.68652 0.909228 0
M  V30 779 C 76.4711 0.575226 3.52741 0
M  V30 780 C 76.3001 2.01515 4.02022 0
M  V30 781 C 75.0701 2.64825 4.30344 0
M  V30 782 C 77.2681 2.98261 4.18981 0
M  V30 783 N 75.2501 3.99998 4.65698 0
M  V30 784 C 76.6211 4.18356 4.57578 0
M  V30 785 C 78.6761 2.94802 4.01243 0
M  V30 786 C 77.3791 5.35454 4.80293 0
M  V30 787 C 79.4051 4.11121 4.25128 0
M  V30 788 C 78.7671 5.29969 4.64018 0
M  V30 789 H 74.8661 0.205304 0.754569 0
M  V30 790 H 77.4501 1.07457 1.62361 0
M  V30 791 H 75.6211 -0.0401962 3.88379 0
M  V30 792 H 77.3531 0.148292 4.04428 0
M  V30 793 H 74.1081 2.16027 4.21461 0
M  V30 794 H 74.5321 4.69653 4.87601 0
M  V30 795 H 79.1741 2.04054 3.70299 0
M  V30 796 H 76.8921 6.26755 5.10102 0
M  V30 797 H 80.4781 4.0985 4.12934 0
M  V30 798 H 79.3581 6.18479 4.82134 0
M  V30 799 N 76.8612 -1.46375 0.584142 0
M  V30 800 C 77.7912 -2.33103 -0.136037 0
M  V30 801 C 78.7722 -1.45431 -0.882255 0
M  V30 802 O 79.9572 -1.74246 -0.857434 0
M  V30 803 C 77.0872 -3.27731 -1.14933 0
M  V30 804 C 76.0412 -4.24855 -0.517862 0
M  V30 805 C 75.3672 -5.09001 -1.63773 0
M  V30 806 C 76.6672 -5.19439 0.545886 0
M  V30 807 H 78.3612 -2.93568 0.588086 0
M  V30 808 H 75.9072 -1.41166 0.284259 0
M  V30 809 H 77.8602 -3.87261 -1.66153 0
M  V30 810 H 76.5842 -2.65377 -1.90375 0
M  V30 811 H 75.2432 -3.6659 -0.0267361 0
M  V30 812 H 74.8912 -4.43031 -2.38185 0
M  V30 813 H 74.5912 -5.74777 -1.22085 0
M  V30 814 H 76.1152 -5.71396 -2.15266 0
M  V30 815 H 77.5292 -5.73177 0.118704 0
M  V30 816 H 75.9262 -5.93566 0.88317 0
M  V30 817 H 76.9962 -4.63285 1.43162 0
M  V30 818 N 78.3393 -0.321999 -1.54275 0
M  V30 819 C 79.5873 0.280489 -2.00144 0
M  V30 820 C 79.9083 1.52777 -1.21178 0
M  V30 821 O 79.1783 1.9338 -0.313187 0
M  V30 822 H 77.7583 0.106632 -0.73935 0
M  V30 823 H 80.4203 -0.438184 -1.8991 0
M  V30 824 H 79.5163 0.537972 -3.07428 0
M  V30 825 N 79.8174 1.5752 -0.0501392 0
M  V30 826 C 81.0634 1.93755 0.618901 0
M  V30 827 C 81.4184 0.928514 1.68512 0
M  V30 828 O 80.7114 -0.0524613 1.91528 0
M  V30 829 C 80.9054 3.34467 1.25963 0
M  V30 830 C 80.7344 4.48965 0.257 0
M  V30 831 C 79.5044 5.05075 -0.150656 0
M  V30 832 C 81.7024 5.11891 -0.497166 0
M  V30 833 N 79.6844 6.03104 -1.14626 0
M  V30 834 C 81.0554 6.05216 -1.34588 0
M  V30 835 C 83.1104 4.9479 -0.55559 0
M  V30 836 C 81.8134 6.83277 -2.24778 0
M  V30 837 C 83.8394 5.73477 -1.44492 0
M  V30 838 C 83.2014 6.66433 -2.28136 0
M  V30 839 H 79.3004 0.756479 0.198149 0
M  V30 840 H 81.8844 1.94316 -0.122229 0
M  V30 841 H 80.0554 3.34685 1.97079 0
M  V30 842 H 81.7874 3.57994 1.88739 0
M  V30 843 H 78.5424 4.7305 0.228094 0
M  V30 844 H 78.9664 6.56813 -1.64092 0
M  V30 845 H 83.6084 4.2273 0.0768625 0
M  V30 846 H 81.3264 7.54629 -2.89069 0
M  V30 847 H 84.9124 5.62273 -1.49468 0
M  V30 848 H 83.7924 7.26258 -2.95835 0
M  V30 849 N 81.2955 -0.223234 1.56011 0
M  V30 850 C 82.2255 -1.27988 1.95298 0
M  V30 851 C 83.2065 -1.48976 0.820979 0
M  V30 852 O 84.3915 -1.61188 1.08315 0
M  V30 853 C 81.5215 -2.63 2.26822 0
M  V30 854 C 80.4755 -2.56671 3.42497 0
M  V30 855 C 79.8015 -3.95697 3.59622 0
M  V30 856 C 81.1015 -2.11601 4.77517 0
M  V30 857 H 82.7955 -0.953525 2.8381 0
M  V30 858 H 80.3415 -0.457244 1.36548 0
M  V30 859 H 82.2945 -3.37077 2.52898 0
M  V30 860 H 81.0185 -2.9732 1.35161 0
M  V30 861 H 79.6775 -1.85051 3.16467 0
M  V30 862 H 79.3255 -4.27322 2.6534 0
M  V30 863 H 79.0255 -3.92345 4.37424 0
M  V30 864 H 80.5495 -4.71438 3.88044 0
M  V30 865 H 81.9635 -2.7542 5.02809 0
M  V30 866 H 80.3605 -2.19311 5.5859 0
M  V30 867 H 81.4305 -1.06824 4.72987 0
M  V30 868 N 82.7736 -1.49793 -0.48987 0
M  V30 869 C 83.7216 -1.67783 -1.61095 0
M  V30 870 C 84.7156 -0.543683 -1.60438 0
M  V30 871 O 85.9216 -0.723647 -1.64813 0
M  V30 872 H 82.2966 -0.529255 -0.534222 0
M  V30 873 H 84.2676 -2.61861 -1.43078 0
M  V30 874 C 83.0166 -1.77191 -2.99164 0
M  V30 875 H 82.3396 -2.63841 -3.0038 0
M  V30 876 H 83.7796 -1.93809 -3.77113 0
M  V30 877 C 82.2386 -0.519203 -3.32875 0
M  V30 878 O 82.7686 0.350124 -4.00171 0
M  V30 879 N 80.9746 -0.378816 -2.8812 0
M  V30 880 H 80.5216 -1.08725 -2.33531 0
M  V30 881 H 80.4796 0.458239 -3.11043 0
M  V30 882 N 84.2517 0.741722 -1.39055 0
M  V30 883 C 85.4797 1.53098 -1.39171 0
M  V30 884 C 85.8947 1.88794 0.0155099 0
M  V30 885 O 85.2517 1.53626 0.985159 0
M  V30 886 C 85.3027 2.82274 -2.2584 0
M  V30 887 O 85.0237 2.48097 -3.61081 0
M  V30 888 C 86.5247 3.76343 -2.34266 0
M  V30 889 H 83.7447 0.473335 -0.4756 0
M  V30 890 H 86.2887 0.917045 -1.82785 0
M  V30 891 H 84.4437 3.40015 -1.85656 0
M  V30 892 H 84.8577 3.31029 -4.06842 0
M  V30 893 H 86.3317 4.63898 -2.9917 0
M  V30 894 H 86.8087 4.17619 -1.35982 0
M  V30 895 H 87.4147 3.24523 -2.74891 0
M  V30 896 N 85.7298 1.2412 0.971189 0
M  V30 897 C 86.9788 1.07284 1.70801 0
M  V30 898 C 87.2918 -0.388902 1.91695 0
M  V30 899 O 88.4978 -0.677379 2.62914 0
M  V30 900 C 86.9538 1.87145 3.07416 0
M  V30 901 C 86.5618 3.37707 2.94377 0
M  V30 902 C 88.3058 1.78828 3.84995 0
M  V30 903 C 86.2128 4.09925 4.26281 0
M  V30 904 H 85.1428 0.397854 0.64049 0
M  V30 905 H 87.7938 1.4817 1.0825 0
M  V30 906 H 86.1758 1.39071 3.70777 0
M  V30 907 H 87.3498 3.93335 2.4005 0
M  V30 908 H 85.6648 3.46938 2.30267 0
M  V30 909 H 88.2618 2.30089 4.82662 0
M  V30 910 H 88.6048 0.75284 4.09436 0
M  V30 911 H 89.1378 2.24563 3.28354 0
M  V30 912 H 85.8768 5.13813 4.07033 0
M  V30 913 H 85.3968 3.59083 4.80437 0
M  V30 914 H 87.0758 4.1673 4.94919 0
M  V30 915 N 87.2079 -1.17134 1.05439 0
M  V30 916 C 88.1399 -2.2078 0.615539 0
M  V30 917 C 89.1529 -1.59584 -0.322001 0
M  V30 918 O 90.3419 -1.78133 -0.114344 0
M  V30 919 C 87.4419 -3.38691 -0.118938 0
M  V30 920 C 86.6149 -4.29454 0.829924 0
M  V30 921 C 85.6739 -5.26024 0.136258 0
M  V30 922 O 84.6999 -5.63952 0.77115 0
M  V30 923 N 85.9019 -5.69487 -1.1254 0
M  V30 924 H 88.6669 -2.59052 1.50705 0
M  V30 925 H 86.2279 -1.32058 0.936603 0
M  V30 926 H 88.2199 -4.00329 -0.593179 0
M  V30 927 H 86.7899 -2.98996 -0.91215 0
M  V30 928 H 86.0099 -3.65211 1.48373 0
M  V30 929 H 87.2979 -4.86984 1.47392 0
M  V30 930 H 86.6959 -5.4075 -1.6615 0
M  V30 931 H 85.2529 -6.33257 -1.54366 0
M  V30 932 N 88.686 -0.835752 -1.33615 0
M  V30 933 C 90.097 -0.487099 -1.80234 0
M  V30 934 C 90.448 0.993627 -1.69179 0
M  V30 935 O 89.573 1.77403 -1.23924 0
M  V30 936 C 90.168 -0.877385 -3.27242 0
M  V30 937 C 88.727 -0.580915 -3.7189 0
M  V30 938 C 87.874 -1.0874 -2.5509 0
M  V30 939 H 90.825 -1.02474 -1.2118 0
M  V30 940 H 90.846 -0.186195 -3.80044 0
M  V30 941 H 90.358 -1.95512 -3.35256 0
M  V30 942 H 88.459 0.486881 -3.69405 0
M  V30 943 H 88.572 -1.13396 -4.65487 0
M  V30 944 H 86.936 -0.508392 -2.49575 0
M  V30 945 H 87.719 -2.17184 -2.65868 0
M  V30 946 N 90.1641 1.46063 -0.591896 0
M  V30 947 C 91.5751 1.85944 -0.167822 0
M  V30 948 C 91.9261 1.49429 1.27143 0
M  V30 949 O 91.0511 0.913515 1.96173 0
M  V30 950 C 91.6461 3.37489 -0.297794 0
M  V30 951 C 90.2051 3.76332 0.0714732 0
M  V30 952 C 89.3521 2.7006 -0.629509 0
M  V30 953 H 92.3031 1.37087 -0.799555 0
M  V30 954 H 92.3241 3.77532 0.474349 0
M  V30 955 H 91.8361 3.64034 -1.3454 0
M  V30 956 H 89.9371 3.55405 1.11886 0
M  V30 957 H 90.0501 4.78088 -0.311245 0
M  V30 958 H 88.4141 2.54607 -0.0687867 0
M  V30 959 H 89.1971 2.99444 -1.67894 0
M  V30 960 N 91.6422 0.330177 1.54103 0
M  V30 961 C 92.8892 -0.270405 2.00686 0
M  V30 962 C 93.2172 -1.51621 1.21825 0
M  V30 963 O 92.4722 -1.93536 0.29025 0
M  V30 964 C 92.7712 -0.643134 3.51566 0
M  V30 965 C 92.4372 0.504251 4.48072 0
M  V30 966 C 91.0992 0.819163 4.74176 0
M  V30 967 C 93.4512 1.27465 5.05373 0
M  V30 968 C 90.7792 1.90708 5.5484 0
M  V30 969 C 93.1312 2.35271 5.87223 0
M  V30 970 C 91.7952 2.67336 6.11627 0
M  V30 971 H 91.0652 -0.0989482 0.734364 0
M  V30 972 H 93.7122 0.455324 1.86008 0
M  V30 973 H 92.0172 -1.44938 3.64006 0
M  V30 974 H 93.7142 -1.11949 3.85056 0
M  V30 975 H 90.3042 0.248733 4.27878 0
M  V30 976 H 94.4882 1.04462 4.85182 0
M  V30 977 H 89.7442 2.15991 5.71977 0
M  V30 978 H 93.9182 2.95405 6.30641 0
M  V30 979 H 91.5452 3.51763 6.73919 0
M  V30 980 N 93.1203 -1.57491 0.0584922 0
M  V30 981 C 94.0503 -2.14988 -0.911178 0
M  V30 982 C 95.0313 -1.07343 -1.31952 0
M  V30 983 O 96.2163 -1.35318 -1.39294 0
M  V30 984 C 93.3463 -2.70078 -2.18347 0
M  V30 985 C 92.3003 -3.82771 -1.91495 0
M  V30 986 C 91.6263 -4.24408 -3.25241 0
M  V30 987 C 92.9263 -5.07592 -1.23075 0
M  V30 988 H 94.6203 -2.96263 -0.432246 0
M  V30 989 H 92.1663 -1.42512 -0.206469 0
M  V30 990 H 94.1193 -3.08943 -2.86587 0
M  V30 991 H 92.8433 -1.86005 -2.68458 0
M  V30 992 H 91.5023 -3.44389 -1.25664 0
M  V30 993 H 91.1503 -3.37275 -3.73168 0
M  V30 994 H 90.8503 -5.00366 -3.08071 0
M  V30 995 H 92.3743 -4.65879 -3.94701 0
M  V30 996 H 93.7883 -5.43857 -1.81362 0
M  V30 997 H 92.1853 -5.88741 -1.16207 0
M  V30 998 H 93.2553 -4.84454 -0.207847 0
M  V30 999 N 94.5984 0.214957 -1.56127 0
M  V30 1000 C 95.8444 0.935325 -1.80619 0
M  V30 1001 C 96.1994 1.81706 -0.632507 0
M  V30 1002 O 95.4924 1.87931 0.373182 0
M  V30 1003 C 95.6864 1.80314 -3.0858 0
M  V30 1004 C 95.5154 1.00691 -4.38282 0
M  V30 1005 C 94.2854 0.699211 -5.00439 0
M  V30 1006 C 96.4834 0.369057 -5.12974 0
M  V30 1007 N 94.4654 -0.117734 -6.13787 0
M  V30 1008 C 95.8364 -0.310981 -6.1922 0
M  V30 1009 C 97.8914 0.282759 -4.97096 0
M  V30 1010 C 96.5944 -1.06907 -7.11311 0
M  V30 1011 C 98.6204 -0.461881 -5.89594 0
M  V30 1012 C 97.9824 -1.13044 -6.9527 0
M  V30 1013 H 94.0814 0.322307 -0.71249 0
M  V30 1014 H 96.6654 0.205649 -1.93611 0
M  V30 1015 H 94.8364 2.50458 -2.96859 0
M  V30 1016 H 96.5684 2.46148 -3.21237 0
M  V30 1017 H 93.3234 1.01884 -4.62511 0
M  V30 1018 H 93.7474 -0.515235 -6.75037 0
M  V30 1019 H 98.3894 0.785292 -4.15443 0
M  V30 1020 H 96.1074 -1.5831 -7.92442 0
M  V30 1021 H 99.6934 -0.529746 -5.79383 0
M  V30 1022 H 98.5734 -1.69742 -7.65609 0
M  V30 1023 N 96.0765 1.50051 0.48192 0
M  V30 1024 C 97.3225 1.60736 1.2366 0
M  V30 1025 C 97.6555 0.301786 1.91841 0
M  V30 1026 O 96.9305 -0.696025 1.8162 0
M  V30 1027 C 97.2135 2.78009 2.28874 0
M  V30 1028 C 97.0665 4.18416 1.65069 0
M  V30 1029 C 98.3855 2.90867 3.30279 0
M  V30 1030 H 95.5045 0.585031 0.448228 0
M  V30 1031 H 98.1465 1.82402 0.531946 0
M  V30 1032 H 96.2965 2.59667 2.88973 0
M  V30 1033 H 97.9685 4.48322 1.0865 0
M  V30 1034 H 96.2115 4.23177 0.954148 0
M  V30 1035 H 96.8825 4.96381 2.41474 0
M  V30 1036 H 99.3585 3.07623 2.80191 0
M  V30 1037 H 98.2345 3.74566 4.01238 0
M  V30 1038 H 98.4955 2.01021 3.93755 0
M  V30 1039 N 97.5546 -0.734337 1.39446 0
M  V30 1040 C 98.4846 -1.86155 1.40955 0
M  V30 1041 C 99.4656 -1.67898 0.272827 0
M  V30 1042 O 100.651 -1.88207 0.478743 0
M  V30 1043 C 97.7806 -3.23912 1.25294 0
M  V30 1044 C 96.7346 -3.56808 2.36373 0
M  V30 1045 C 96.0606 -4.93508 2.058 0
M  V30 1046 C 97.3606 -3.59713 3.78687 0
M  V30 1047 H 99.0546 -1.8515 2.35287 0
M  V30 1048 H 96.6006 -0.889367 1.13253 0
M  V30 1049 H 98.5536 -4.02443 1.2497 0
M  V30 1050 H 97.2776 -3.25446 0.274308 0
M  V30 1051 H 95.9366 -2.80606 2.35914 0
M  V30 1052 H 95.5846 -4.91623 1.06374 0
M  V30 1053 H 95.2846 -5.16486 2.80208 0
M  V30 1054 H 96.8086 -5.74396 2.07128 0
M  V30 1055 H 98.2226 -4.2832 3.81071 0
M  V30 1056 H 96.6196 -3.94209 4.52459 0
M  V30 1057 H 97.6896 -2.59504 4.09617 0
M  V30 1058 N 99.0327 -1.24633 -0.964593 0
M  V30 1059 C 100.28 -1.08788 -1.70796 0
M  V30 1060 C 100.608 0.372783 -1.90894 0
M  V30 1061 O 99.8627 1.29167 -1.47018 0
M  V30 1062 C 100.162 -1.7763 -3.10133 0
M  V30 1063 C 99.8277 -3.27557 -3.09866 0
M  V30 1064 C 98.4897 -3.6846 -3.09501 0
M  V30 1065 C 100.842 -4.23389 -3.03959 0
M  V30 1066 C 98.1697 -5.03624 -3.00965 0
M  V30 1067 C 100.522 -5.58565 -2.96965 0
M  V30 1068 C 99.1857 -5.98809 -2.9493 0
M  V30 1069 H 98.4557 -0.398084 -0.624988 0
M  V30 1070 H 101.103 -1.54777 -1.12767 0
M  V30 1071 H 99.4077 -1.24044 -3.71645 0
M  V30 1072 H 101.105 -1.62832 -3.66451 0
M  V30 1073 H 97.6947 -2.95006 -3.10917 0
M  V30 1074 H 101.879 -3.92787 -3.03368 0
M  V30 1075 H 97.1347 -5.33998 -2.97752 0
M  V30 1076 H 101.309 -6.32523 -2.91354 0
M  V30 1077 H 98.9357 -7.03505 -2.88071 0
M  V30 1078 N 100.511 1.16574 -1.06058 0
M  V30 1079 C 101.757 1.87324 -0.777022 0
M  V30 1080 C 102.09 1.81351 0.694645 0
M  V30 1081 O 101.365 1.22753 1.50871 0
M  V30 1082 C 101.648 3.36991 -1.26922 0
M  V30 1083 C 101.501 3.51667 -2.80447 0
M  V30 1084 C 102.82 4.3131 -0.87521 0
M  V30 1085 H 99.9388 0.680191 -0.28374 0
M  V30 1086 H 102.581 1.37036 -1.3161 0
M  V30 1087 H 100.731 3.79949 -0.81063 0
M  V30 1088 H 102.403 3.17664 -3.34495 0
M  V30 1089 H 100.646 2.93656 -3.19294 0
M  V30 1090 H 101.317 4.56766 -3.0995 0
M  V30 1091 H 103.793 3.9624 -1.27014 0
M  V30 1092 H 102.669 5.34545 -1.2471 0
M  V30 1093 H 102.93 4.41552 0.220071 0
M  V30 1094 N 101.989 0.842826 1.3317 0
M  V30 1095 C 102.919 0.294028 2.31641 0
M  V30 1096 C 103.9 -0.600401 1.59151 0
M  V30 1097 O 105.085 -0.523124 1.87022 0
M  V30 1098 C 102.215 -0.528416 3.43257 0
M  V30 1099 C 101.169 0.27056 4.27144 0
M  V30 1100 C 100.495 -0.675881 5.30411 0
M  V30 1101 C 101.795 1.48981 5.00602 0
M  V30 1102 H 103.489 1.11681 2.77791 0
M  V30 1103 H 101.035 0.538478 1.33553 0
M  V30 1104 H 102.988 -0.922674 4.11175 0
M  V30 1105 H 101.712 -1.38445 2.95805 0
M  V30 1106 H 100.371 0.646427 3.60856 0
M  V30 1107 H 100.019 -1.52842 4.79216 0
M  V30 1108 H 99.7189 -0.145374 5.8742 0
M  V30 1109 H 101.243 -1.06757 6.01195 0
M  V30 1110 H 102.657 1.16849 5.61266 0
M  V30 1111 H 101.054 1.95739 5.6728 0
M  V30 1112 H 102.124 2.25746 4.29147 0
M  V30 1113 N 103.467 -1.45747 0.599634 0
M  V30 1114 C 104.43 -2.28917 -0.113835 0
M  V30 1115 C 105.43 -1.3933 -0.802729 0
M  V30 1116 O 106.62 -1.61534 -0.652103 0
M  V30 1117 C 103.752 -3.20152 -1.17114 0
M  V30 1118 H 104.945 -2.93478 0.617289 0
M  V30 1119 H 102.498 -1.52137 0.358327 0
M  V30 1120 H 103.233 -2.60374 -1.93329 0
M  V30 1121 H 103.018 -3.86133 -0.681468 0
M  V30 1122 H 104.508 -3.82708 -1.67105 0
M  V30 1123 N 104.945 -0.338344 -1.53925 0
M  V30 1124 C 106.173 0.261298 -2.05243 0
M  V30 1125 C 106.588 1.44625 -1.21363 0
M  V30 1126 O 105.945 1.80811 -0.247736 0
M  V30 1127 C 105.996 0.681412 -3.5502 0
M  V30 1128 O 105.717 -0.456414 -4.35716 0
M  V30 1129 C 107.218 1.34232 -4.22489 0
M  V30 1130 H 104.438 0.0513685 -0.669031 0
M  V30 1131 H 106.982 -0.488822 -1.98572 0
M  V30 1132 H 105.137 1.38148 -3.61931 0
M  V30 1133 H 105.551 -0.122564 -5.24357 0
M  V30 1134 H 107.025 1.58708 -5.28693 0
M  V30 1135 H 107.502 2.29426 -3.74514 0
M  V30 1136 H 108.108 0.684424 -4.19757 0
M  V30 1137 N 106.423 1.57458 -0.0668435 0
M  V30 1138 C 107.353 2.15468 0.899764 0
M  V30 1139 C 108.334 1.08042 1.31381 0
M  V30 1140 O 109.519 1.36054 1.38574 0
M  V30 1141 C 106.649 2.71232 2.16911 0
M  V30 1142 C 105.603 3.83781 1.89463 0
M  V30 1143 C 104.929 4.26127 3.22986 0
M  V30 1144 C 106.229 5.08238 1.20381 0
M  V30 1145 H 107.923 2.96488 0.416529 0
M  V30 1146 H 105.469 1.4262 0.198908 0
M  V30 1147 H 107.422 3.10458 2.84945 0
M  V30 1148 H 106.146 1.87426 2.67468 0
M  V30 1149 H 104.805 3.45051 1.23836 0
M  V30 1150 H 104.453 3.39249 3.71374 0
M  V30 1151 H 104.153 5.01993 3.05413 0
M  V30 1152 H 105.677 4.67966 3.92225 0
M  V30 1153 H 107.091 5.44811 1.78475 0
M  V30 1154 H 105.488 5.89349 1.13083 0
M  V30 1155 H 106.558 4.84558 0.182153 0
M  V30 1156 N 107.901 -0.206675 1.56239 0
M  V30 1157 C 108.811 -1.27686 1.96808 0
M  V30 1158 C 109.827 -1.50455 0.874035 0
M  V30 1159 O 111.003 -1.63295 1.17884 0
M  V30 1160 C 108.068 -2.60358 2.28942 0
M  V30 1161 C 107.129 -2.45762 3.51994 0
M  V30 1162 C 106.362 -3.72108 3.82585 0
M  V30 1163 O 106.585 -4.75776 3.14631 0
M  V30 1164 O 105.519 -3.6833 4.76043 0
M  V30 1165 H 109.345 -0.962593 2.88041 0
M  V30 1166 H 106.93 -0.410746 1.43643 0
M  V30 1167 H 108.812 -3.38687 2.50737 0
M  V30 1168 H 107.487 -2.91435 1.4088 0
M  V30 1169 H 106.394 -1.65584 3.35459 0
M  V30 1170 H 107.727 -2.19621 4.40486 0
M  V30 1171 N 109.379 -1.50304 -0.473955 0
M  V30 1172 C 110.327 -1.69482 -1.59307 0
M  V30 1173 C 111.321 -0.560669 -1.59853 0
M  V30 1174 O 112.527 -0.741087 -1.64036 0
M  V30 1175 H 108.902 -0.534892 -0.528578 0
M  V30 1176 H 110.873 -2.63364 -1.40293 0
M  V30 1177 C 109.622 -1.80354 -2.97267 0
M  V30 1178 H 108.945 -2.67012 -2.97564 0
M  V30 1179 H 110.385 -1.97798 -3.75036 0
M  V30 1180 C 108.844 -0.55448 -3.32306 0
M  V30 1181 O 109.374 0.307661 -4.0052 0
M  V30 1182 N 107.58 -0.409354 -2.87702 0
M  V30 1183 H 107.127 -1.11196 -2.32364 0
M  V30 1184 H 107.085 0.425223 -3.11511 0
M  V30 1185 N 110.857 0.726932 -1.39834 0
M  V30 1186 C 112.106 1.48214 -1.36805 0
M  V30 1187 C 112.419 1.95576 0.0305291 0
M  V30 1188 O 113.625 2.7088 0.183417 0
M  V30 1189 C 112.081 2.67854 -2.40379 0
M  V30 1190 C 111.689 2.27408 -3.85992 0
M  V30 1191 C 113.433 3.45641 -2.46439 0
M  V30 1192 C 111.34 3.43819 -4.81189 0
M  V30 1193 H 110.27 0.556606 -0.508631 0
M  V30 1194 H 112.921 0.792216 -1.65518 0
M  V30 1195 H 111.303 3.3896 -2.04749 0
M  V30 1196 H 112.477 1.63795 -4.30706 0
M  V30 1197 H 110.792 1.62692 -3.83302 0
M  V30 1198 H 113.389 4.32244 -3.14753 0
M  V30 1199 H 113.732 3.88669 -1.49139 0
M  V30 1200 H 114.265 2.8157 -2.81004 0
M  V30 1201 H 111.004 3.05834 -5.79781 0
M  V30 1202 H 110.524 4.06385 -4.41148 0
M  V30 1203 H 112.203 4.10043 -5.00474 0
M  V30 1204 N 112.336 1.25143 0.95797 0
M  V30 1205 C 113.583 1.09692 1.70217 0
M  V30 1206 C 113.911 -0.362654 1.91089 0
M  V30 1207 O 113.166 -1.28386 1.47701 0
M  V30 1208 C 113.465 1.79272 3.09187 0
M  V30 1209 C 113.131 3.29196 3.08125 0
M  V30 1210 C 111.793 3.70096 3.07543 0
M  V30 1211 C 114.145 4.24995 3.0171 0
M  V30 1212 C 111.473 5.05213 2.9829 0
M  V30 1213 C 113.825 5.60132 2.93999 0
M  V30 1214 C 112.489 6.00365 2.9175 0
M  V30 1215 H 111.759 0.401393 0.622868 0
M  V30 1216 H 114.406 1.55372 1.11945 0
M  V30 1217 H 112.711 1.26014 3.70982 0
M  V30 1218 H 114.408 1.64773 3.65583 0
M  V30 1219 H 110.998 2.96651 3.09348 0
M  V30 1220 H 115.182 3.9439 3.01281 0
M  V30 1221 H 110.438 5.35569 2.94916 0
M  V30 1222 H 114.612 6.3406 2.87996 0
M  V30 1223 H 112.239 7.05023 2.84336 0
M  V30 1224 N 113.814 -1.1601 1.06675 0
M  V30 1225 C 115.06 -1.86909 0.786945 0
M  V30 1226 C 115.393 -1.81717 -0.685018 0
M  V30 1227 O 114.668 -1.23551 -1.50218 0
M  V30 1228 C 114.951 -3.36313 1.28707 0
M  V30 1229 C 114.804 -3.50175 2.82308 0
M  V30 1230 C 116.123 -4.3084 0.898071 0
M  V30 1231 H 113.242 -0.678677 0.287343 0
M  V30 1232 H 115.884 -1.36336 1.32334 0
M  V30 1233 H 114.034 -3.79513 0.830768 0
M  V30 1234 H 115.706 -3.15886 3.36175 0
M  V30 1235 H 113.949 -2.91959 3.20847 0
M  V30 1236 H 114.62 -4.55116 3.12368 0
M  V30 1237 H 117.096 -3.95561 1.29114 0
M  V30 1238 H 115.972 -5.33876 1.27543 0
M  V30 1239 H 116.233 -4.41662 -0.196651 0
M  V30 1240 N 115.292 -0.849877 -1.32721 0
M  V30 1241 C 116.222 -0.306308 -2.31482 0
M  V30 1242 C 117.203 0.591952 -1.59468 0
M  V30 1243 O 118.388 0.513199 -1.87296 0
M  V30 1244 C 115.518 0.510204 -3.43532 0
M  V30 1245 C 114.472 -0.293209 -4.26994 0
M  V30 1246 C 113.798 0.647743 -5.30762 0
M  V30 1247 C 115.098 -1.51634 -4.99804 0
M  V30 1248 H 116.792 -1.13153 -2.77195 0
M  V30 1249 H 114.338 -0.545553 -1.33266 0
M  V30 1250 H 116.291 0.900856 -4.11658 0
M  V30 1251 H 115.015 1.36874 -2.96535 0
M  V30 1252 H 113.674 -0.665555 -3.60508 0
M  V30 1253 H 113.322 1.50299 -4.8002 0
M  V30 1254 H 113.022 0.11422 -5.87489 0
M  V30 1255 H 114.546 1.03567 -6.01753 0
M  V30 1256 H 115.96 -1.19824 -5.60638 0
M  V30 1257 H 114.357 -1.98745 -5.66234 0
M  V30 1258 H 115.427 -2.28018 -4.27943 0
M  V30 1259 N 116.77 1.45427 -0.607355 0
M  V30 1260 C 117.995 2.07124 -0.107006 0
M  V30 1261 C 118.42 1.44906 1.19933 0
M  V30 1262 O 117.778 0.541687 1.73019 0
M  V30 1263 C 117.826 3.60595 0.0194119 0
M  V30 1264 O 116.93 3.98285 1.0697 0
M  V30 1265 H 116.271 0.659868 -0.0739597 0
M  V30 1266 H 118.801 1.86683 -0.837297 0
M  V30 1267 H 118.811 4.07419 0.2177 0
M  V30 1268 H 117.486 4.05266 -0.934453 0
M  V30 1269 H 116.063 3.63133 0.847889 0
M  V30 1270 N 118.248 0.346503 1.53744 0
M  V30 1271 C 119.494 -0.249473 2.0126 0
M  V30 1272 C 119.827 -1.49965 1.23386 0
M  V30 1273 O 119.102 -1.91811 0.32229 0
M  V30 1274 C 119.385 -0.560643 3.55709 0
M  V30 1275 C 119.238 0.701836 4.44291 0
M  V30 1276 C 120.557 -1.36905 4.18264 0
M  V30 1277 H 117.676 -0.0891987 0.731582 0
M  V30 1278 H 120.318 0.467624 1.84156 0
M  V30 1279 H 118.468 -1.17156 3.70414 0
M  V30 1280 H 120.14 1.33974 4.41417 0
M  V30 1281 H 118.383 1.32612 4.13033 0
M  V30 1282 H 119.054 0.43933 5.50249 0
M  V30 1283 H 121.53 -0.852448 4.07275 0
M  V30 1284 H 120.406 -1.55553 5.26398 0
M  V30 1285 H 120.667 -2.37203 3.73078 0
M  V30 1286 N 119.726 -1.57421 0.075193 0
M  V30 1287 C 120.973 -1.93618 -0.593146 0
M  V30 1288 C 121.301 -0.955484 -1.69413 0
M  V30 1289 O 120.556 0.0283251 -1.9568 0
M  V30 1290 C 120.855 -3.36428 -1.20626 0
M  V30 1291 C 120.521 -4.50307 -0.231078 0
M  V30 1292 C 119.183 -4.81186 0.0371936 0
M  V30 1293 C 121.535 -5.19374 0.435888 0
M  V30 1294 C 118.863 -5.78466 0.979461 0
M  V30 1295 C 121.215 -6.17665 1.3665 0
M  V30 1296 C 119.879 -6.46958 1.6432 0
M  V30 1297 H 119.149 -0.708499 -0.217047 0
M  V30 1298 H 121.796 -1.90937 0.146793 0
M  V30 1299 H 120.101 -3.35592 -2.02201 0
M  V30 1300 H 121.798 -3.61727 -1.73073 0
M  V30 1301 H 118.388 -4.26227 -0.450357 0
M  V30 1302 H 122.572 -4.95711 0.241748 0
M  V30 1303 H 117.828 -5.99487 1.20106 0
M  V30 1304 H 122.002 -6.70284 1.88924 0
M  V30 1305 H 119.629 -7.2215 2.37494 0
M  V30 1306 N 121.204 0.198386 -1.56346 0
M  V30 1307 C 122.444 0.92609 -1.82217 0
M  V30 1308 C 122.808 1.80584 -0.652195 0
M  V30 1309 O 124.009 2.56907 -0.790716 0
M  V30 1310 C 122.28 1.72354 -3.13096 0
M  V30 1311 S 123.839 2.50371 -3.6036 0
M  V30 1312 H 120.657 0.310677 -0.639532 0
M  V30 1313 H 123.259 0.189755 -1.94577 0
M  V30 1314 H 121.963 1.0678 -3.96265 0
M  V30 1315 H 121.494 2.50175 -3.03605 0
M  V30 1316 H 123.509 3.74488 -3.25535 0
M  V30 1317 N 122.682 1.50554 0.465978 0
M  V30 1318 C 123.612 1.72722 1.57128 0
M  V30 1319 C 124.593 0.576294 1.6004 0
M  V30 1320 O 125.778 0.81598 1.76225 0
M  V30 1321 C 122.908 1.82605 2.95419 0
M  V30 1322 C 121.862 2.97835 3.07373 0
M  V30 1323 C 121.188 2.92867 4.47363 0
M  V30 1324 C 122.488 4.38265 2.84114 0
M  V30 1325 H 124.182 2.65267 1.38829 0
M  V30 1326 H 121.728 1.2765 0.666441 0
M  V30 1327 H 123.681 1.96698 3.72677 0
M  V30 1328 H 122.405 0.866858 3.14886 0
M  V30 1329 H 121.064 2.83401 2.3255 0
M  V30 1330 H 120.712 1.94783 4.63755 0
M  V30 1331 H 120.412 3.70227 4.56296 0
M  V30 1332 H 121.936 3.09015 5.26633 0
M  V30 1333 H 123.35 4.53198 3.51118 0
M  V30 1334 H 121.747 5.17115 3.04487 0
M  V30 1335 H 122.817 4.50281 1.7993 0
M  V30 1336 N 124.16 -0.719506 1.40217 0
M  V30 1337 C 125.11 -1.8251 1.36653 0
M  V30 1338 C 126.094 -1.59028 0.244732 0
M  V30 1339 O 127.286 -1.70268 0.483524 0
M  V30 1340 C 124.415 -3.20599 1.22763 0
M  V30 1341 C 123.501 -3.49858 2.39708 0
M  V30 1342 N 123.892 -3.49957 3.6519 0
M  V30 1343 C 122.19 -3.80297 2.33002 0
M  V30 1344 C 122.891 -3.77449 4.42614 0
M  V30 1345 N 121.867 -3.96002 3.72402 0
M  V30 1346 H 125.669 -1.80914 2.31619 0
M  V30 1347 H 123.183 -0.918455 1.33933 0
M  V30 1348 H 125.18 -3.99766 1.18292 0
M  V30 1349 H 123.84 -3.23424 0.287614 0
M  V30 1350 H 124.851 -3.309 3.98404 0
M  V30 1351 H 121.528 -3.90635 1.47346 0
M  V30 1352 H 122.918 -3.83863 5.51451 0
M  V30 1353 N 125.638 -1.25649 -0.95132 0
M  V30 1354 C 126.585 -1.06323 -2.04851 0
M  V30 1355 C 127.555 0.0286491 -1.66075 0
M  V30 1356 O 128.74 -0.12917 -1.90362 0
M  V30 1357 C 125.88 -0.691529 -3.381 0
M  V30 1358 C 124.993 -1.85861 -3.89974 0
M  V30 1359 C 124.128 -1.43096 -5.11563 0
M  V30 1360 C 123.167 -2.56696 -5.55674 0
M  V30 1361 N 122.304 -2.14684 -6.68472 0
M  V30 1362 H 127.144 -2.00222 -2.20715 0
M  V30 1363 H 124.681 -0.997027 -1.08156 0
M  V30 1364 H 126.639 -0.456963 -4.1469 0
M  V30 1365 H 125.269 0.210474 -3.22113 0
M  V30 1366 H 124.321 -2.20639 -3.09875 0
M  V30 1367 H 125.633 -2.71161 -4.18657 0
M  V30 1368 H 124.787 -1.15624 -5.9558 0
M  V30 1369 H 123.526 -0.548722 -4.84603 0
M  V30 1370 H 122.531 -2.84909 -4.7022 0
M  V30 1371 H 123.756 -3.45503 -5.8464 0
M  V30 1372 H 121.702 -1.28881 -6.43215 0
M  V30 1373 H 121.619 -2.9353 -6.96689 0
M  V30 1374 H 122.887 -1.90397 -7.5589 0
M  V30 1375 N 127.117 1.15442 -1.07289 0
M  V30 1376 C 128.342 1.90638 -0.816828 0
M  V30 1377 C 128.767 1.77445 0.624083 0
M  V30 1378 O 128.125 1.10671 1.43602 0
M  V30 1379 C 128.173 3.39008 -1.22906 0
M  V30 1380 O 127.277 4.10701 -0.373975 0
M  V30 1381 H 126.618 0.593555 -0.297638 0
M  V30 1382 H 129.148 1.46198 -1.43134 0
M  V30 1383 H 129.158 3.89801 -1.20497 0
M  V30 1384 H 127.833 3.47929 -2.27856 0
M  V30 1385 H 126.41 3.70046 -0.460499 0
M  V30 1386 N 128.595 0.856903 1.32268 0
M  V30 1387 C 129.82 0.474569 2.01897 0
M  V30 1388 C 130.245 -0.921766 1.63967 0
M  V30 1389 O 129.603 -1.60589 0.84148 0
M  V30 1390 C 129.651 0.623799 3.55164 0
M  V30 1391 O 128.755 -0.342459 4.10976 0
M  V30 1392 H 128.096 0.190422 0.63611 0
M  V30 1393 H 130.626 1.15672 1.68764 0
M  V30 1394 H 130.636 0.512169 4.04773 0
M  V30 1395 H 129.311 1.64202 3.82113 0
M  V30 1396 H 127.888 -0.18688 3.72431 0
M  V30 1397 N 130.073 -1.45103 0.615059 0
M  V30 1398 C 131.313 -2.04069 0.116282 0
M  V30 1399 C 131.677 -1.4721 -1.2326 0
M  V30 1400 O 132.878 -1.97577 -1.82255 0
M  V30 1401 C 131.149 -3.57298 0.085482 0
M  V30 1402 S 132.708 -4.37394 -0.351015 0
M  V30 1403 H 129.526 -0.709006 0.0532183 0
M  V30 1404 H 132.128 -1.77709 0.81484 0
M  V30 1405 H 130.832 -3.9619 1.0706 0
M  V30 1406 H 130.363 -3.88244 -0.634835 0
M  V30 1407 H 132.378 -4.69734 -1.59889 0
M  V30 1408 N 131.551 -0.354651 -1.53558 0
M  V30 1409 C 132.779 0.239515 -2.05509 0
M  V30 1410 C 133.194 1.4333 -1.2289 0
M  V30 1411 O 132.551 1.80538 -0.266899 0
M  V30 1412 C 132.602 0.643719 -3.55723 0
M  V30 1413 O 132.323 -0.502602 -4.35207 0
M  V30 1414 C 133.824 1.29743 -4.23889 0
M  V30 1415 H 131.044 0.0442697 -0.669538 0
M  V30 1416 H 133.588 -0.509856 -1.98042 0
M  V30 1417 H 131.743 1.34302 -3.63376 0
M  V30 1418 H 132.157 -0.178172 -5.24197 0
M  V30 1419 H 133.631 1.53091 -5.30346 0
M  V30 1420 H 134.108 2.25441 -3.76926 0
M  V30 1421 H 134.714 0.639865 -4.20459 0
M  V30 1422 N 133.029 1.57378 -0.0835403 0
M  V30 1423 C 134.275 1.94217 0.583733 0
M  V30 1424 C 134.608 0.964653 1.68547 0
M  V30 1425 O 133.883 -0.00422258 1.945 0
M  V30 1426 C 134.166 3.41253 1.14972 0
M  V30 1427 C 134.019 4.49768 0.0538277 0
M  V30 1428 C 135.338 3.89352 2.05166 0
M  V30 1429 H 132.457 0.706233 0.210724 0
M  V30 1430 H 135.099 1.89392 -0.1519 0
M  V30 1431 H 133.249 3.45496 1.77665 0
M  V30 1432 H 134.921 4.57641 -0.579851 0
M  V30 1433 H 133.164 4.29432 -0.614068 0
M  V30 1434 H 133.835 5.49817 0.490452 0
M  V30 1435 H 136.311 3.87189 1.52393 0
M  V30 1436 H 135.187 4.92822 2.41698 0
M  V30 1437 H 135.448 3.27973 2.96456 0
M  V30 1438 N 134.507 -0.190092 1.56449 0
M  V30 1439 C 135.47 -1.21925 1.9408 0
M  V30 1440 C 136.47 -1.38176 0.822431 0
M  V30 1441 O 137.66 -1.35903 1.08977 0
M  V30 1442 C 134.792 -2.58773 2.21922 0
M  V30 1443 H 135.985 -0.897464 2.86157 0
M  V30 1444 H 133.538 -0.43181 1.50217 0
M  V30 1445 H 134.273 -2.95998 1.32499 0
M  V30 1446 H 134.058 -2.48348 3.03424 0
M  V30 1447 H 135.548 -3.32978 2.52022 0
M  V30 1448 N 135.985 -1.50799 -0.457987 0
M  V30 1449 C 136.895 -1.73426 -1.57989 0
M  V30 1450 C 137.911 -0.617745 -1.62665 0
M  V30 1451 O 139.087 -0.897614 -1.80291 0
M  V30 1452 C 136.152 -1.83557 -2.94122 0
M  V30 1453 C 135.213 -3.07345 -2.99729 0
M  V30 1454 C 134.446 -3.16983 -4.29368 0
M  V30 1455 O 134.669 -2.33077 -5.20607 0
M  V30 1456 O 133.603 -4.09812 -4.40837 0
M  V30 1457 H 137.429 -2.68555 -1.41817 0
M  V30 1458 H 135.014 -1.35052 -0.638859 0
M  V30 1459 H 136.896 -1.92326 -3.74952 0
M  V30 1460 H 135.571 -0.916137 -3.10465 0
M  V30 1461 H 134.478 -3.04068 -2.1793 0
M  V30 1462 H 135.811 -3.9891 -2.88326 0
M  V30 1463 N 137.463 0.71206 -1.40597 0
M  V30 1464 C 138.712 1.46754 -1.38369 0
M  V30 1465 C 139.025 1.95598 0.0097839 0
M  V30 1466 O 140.231 2.71059 0.154677 0
M  V30 1467 C 138.687 2.65289 -2.43207 0
M  V30 1468 C 138.295 2.23301 -3.88382 0
M  V30 1469 C 140.039 3.43008 -2.50091 0
M  V30 1470 C 137.946 3.38696 -4.84808 0
M  V30 1471 H 136.876 0.55118 -0.514506 0
M  V30 1472 H 139.527 0.774616 -1.66349 0
M  V30 1473 H 137.909 3.36769 -2.08332 0
M  V30 1474 H 139.083 1.59218 -4.32419 0
M  V30 1475 H 137.398 1.58618 -3.85006 0
M  V30 1476 H 139.995 4.28881 -3.1932 0
M  V30 1477 H 140.338 3.87065 -1.53253 0
M  V30 1478 H 140.871 2.78574 -2.83974 0
M  V30 1479 H 137.61 2.99668 -5.82992 0
M  V30 1480 H 137.13 4.01683 -4.45433 0
M  V30 1481 H 138.809 4.04712 -5.04794 0
M  V30 1482 N 138.941 1.26152 0.944643 0
M  V30 1483 C 140.171 1.14094 1.72239 0
M  V30 1484 C 140.579 -0.306931 1.86694 0
M  V30 1485 O 139.922 -1.22222 1.3714 0
M  V30 1486 C 139.984 1.73316 3.14963 0
M  V30 1487 C 139.648 3.2239 3.23904 0
M  V30 1488 C 140.645 4.19252 3.07447 0
M  V30 1489 C 138.33 3.62788 3.47405 0
M  V30 1490 C 140.324 5.54491 3.14353 0
M  V30 1491 C 138.011 4.98162 3.53947 0
M  V30 1492 C 139.009 5.93823 3.37436 0
M  V30 1493 O 138.697 7.26732 3.43679 0
M  V30 1494 H 138.429 0.398292 0.546205 0
M  V30 1495 H 140.983 1.67201 1.19301 0
M  V30 1496 H 139.213 1.14667 3.69308 0
M  V30 1497 H 140.902 1.56214 3.74636 0
M  V30 1498 H 141.668 3.8938 2.8915 0
M  V30 1499 H 137.547 2.88816 3.59313 0
M  V30 1500 H 141.091 6.29137 3.01384 0
M  V30 1501 H 136.988 5.27695 3.71763 0
M  V30 1502 H 137.756 7.3496 3.60245 0
M  V30 1503 N 140.419 -1.14872 1.07899 0
M  V30 1504 C 141.349 -2.2193 0.725887 0
M  V30 1505 C 142.33 -1.67622 -0.28927 0
M  V30 1506 O 143.515 -1.93533 -0.160787 0
M  V30 1507 C 140.645 -3.47061 0.128856 0
M  V30 1508 C 139.599 -4.14363 1.07178 0
M  V30 1509 C 138.925 -5.33636 0.337229 0
M  V30 1510 C 140.225 -4.63492 2.40775 0
M  V30 1511 H 141.919 -2.51724 1.62097 0
M  V30 1512 H 139.465 -1.20991 0.780838 0
M  V30 1513 H 141.418 -4.21199 -0.130147 0
M  V30 1514 H 140.142 -3.16617 -0.80134 0
M  V30 1515 H 138.801 -3.42173 1.3158 0
M  V30 1516 H 138.449 -4.99449 -0.596606 0
M  V30 1517 H 138.149 -5.79609 0.965788 0
M  V30 1518 H 139.673 -6.10539 0.0861567 0
M  V30 1519 H 141.087 -5.2913 2.20669 0
M  V30 1520 H 139.484 -5.20148 2.99276 0
M  V30 1521 H 140.554 -3.78834 3.02676 0
M  V30 1522 N 141.898 -0.863906 -1.31812 0
M  V30 1523 C 143.146 -0.470904 -1.96537 0
M  V30 1524 C 143.467 0.978771 -1.68657 0
M  V30 1525 O 142.737 1.6853 -0.998717 0
M  V30 1526 H 141.317 -0.171148 -0.72713 0
M  V30 1527 H 143.979 -1.10236 -1.60729 0
M  V30 1528 H 143.075 -0.623616 -3.05806 0
M  V30 1529 N 143.376 1.44774 -0.622745 0
M  V30 1530 C 144.324 2.32387 0.0994683 0
M  V30 1531 C 145.318 1.46859 0.844326 0
M  V30 1532 O 146.524 1.63254 0.758174 0
M  V30 1533 H 142.899 0.750273 0.0509291 0
M  V30 1534 H 144.87 2.91062 -0.65767 0
M  V30 1535 C 143.619 3.30723 1.07319 0
M  V30 1536 H 142.942 3.96541 0.509462 0
M  V30 1537 H 144.382 3.94725 1.54817 0
M  V30 1538 C 142.841 2.59021 2.15429 0
M  V30 1539 O 143.371 2.38286 3.23393 0
M  V30 1540 N 141.577 2.189 1.91131 0
M  V30 1541 H 141.124 2.35964 1.03337 0
M  V30 1542 H 141.082 1.71251 2.63668 0
M  V30 1543 N 144.854 0.36279 1.53368 0
M  V30 1544 C 145.784 -0.476976 2.28576 0
M  V30 1545 C 146.765 -1.08631 1.30894 0
M  V30 1546 O 147.95 -1.10409 1.59761 0
M  V30 1547 C 145.08 -1.61828 3.07293 0
M  V30 1548 C 144.034 -1.13633 4.1264 0
M  V30 1549 C 143.36 -2.36766 4.79423 0
M  V30 1550 C 144.66 -0.223061 5.21823 0
M  V30 1551 H 146.354 0.150474 2.99022 0
M  V30 1552 H 143.9 0.0738103 1.43811 0
M  V30 1553 H 145.853 -2.21237 3.58653 0
M  V30 1554 H 144.577 -2.27292 2.34533 0
M  V30 1555 H 143.236 -0.564945 3.62221 0
M  V30 1556 H 142.884 -3.0068 4.03238 0
M  V30 1557 H 142.584 -2.05192 5.50609 0
M  V30 1558 H 144.108 -2.96865 5.33576 0
M  V30 1559 H 145.522 -0.724545 5.68703 0
M  V30 1560 H 143.919 0.001678 6.001 0
M  V30 1561 H 144.989 0.735553 4.79289 0
M  V30 1562 N 146.332 -1.57332 0.0918853 0
M  V30 1563 C 147.295 -2.12708 -0.85369 0
M  V30 1564 C 148.295 -1.05561 -1.213 0
M  V30 1565 O 149.485 -1.31461 -1.14296 0
M  V30 1566 C 146.617 -2.64503 -2.15061 0
M  V30 1567 H 147.81 -2.97573 -0.3729 0
M  V30 1568 H 145.363 -1.55509 -0.157072 0
M  V30 1569 H 146.098 -1.83149 -2.67632 0
M  V30 1570 H 145.883 -3.4284 -1.90272 0
M  V30 1571 H 147.373 -3.07351 -2.82711 0
M  V30 1572 N 147.81 0.181792 -1.56548 0
M  V30 1573 C 148.773 1.20894 -1.94724 0
M  V30 1574 C 149.773 1.37738 -0.829747 0
M  V30 1575 O 150.963 1.35323 -1.09697 0
M  V30 1576 C 148.095 2.57593 -2.23291 0
M  V30 1577 H 149.288 0.882275 -2.86629 0
M  V30 1578 H 146.841 0.423838 -1.50444 0
M  V30 1579 H 147.576 2.95291 -1.34067 0
M  V30 1580 H 147.361 2.46735 -3.04736 0
M  V30 1581 H 148.851 3.31637 -2.53785 0
M  V30 1582 N 149.288 1.51039 0.449983 0
M  V30 1583 C 150.251 1.70863 1.5277 0
M  V30 1584 C 151.251 0.578846 1.5002 0
M  V30 1585 O 152.441 0.846213 1.52266 0
M  V30 1586 C 149.573 1.75341 2.9235 0
M  V30 1587 H 150.766 2.67034 1.36502 0
M  V30 1588 H 148.319 1.40838 0.677812 0
M  V30 1589 H 149.054 0.809383 3.14037 0
M  V30 1590 H 148.839 2.57436 2.95752 0
M  V30 1591 H 150.329 1.92559 3.70555 0
M  V30 1592 N 150.766 -0.704594 1.40972 0
M  V30 1593 C 152.043 -1.45847 1.30338 0
M  V30 1594 C 152.423 -2.10973 -0.0732344 0
M  V30 1595 O 151.771 -2.00997 -1.08685 0
M  V30 1596 C 151.981 -2.48525 2.45023 0
M  V30 1597 C 153.329 -3.1404 2.8577 0
M  V30 1598 O 154.353 -2.58848 2.44696 0
M  V30 1599 O 153.212 -4.13981 3.56766 0
M  V30 1600 H 150.306 -0.649092 0.512454 0
M  V30 1601 H 152.852 -0.735836 1.52917 0
M  V30 1602 H 151.624 -1.98994 3.36923 0
M  V30 1603 H 151.247 -3.2831 2.24272 0
M  V30 1604 N 152.244 -1.26651 -0.937939 0
M  V30 1605 C 153.174 -1.10993 -2.05433 0
M  V30 1606 C 154.155 -0.0142161 -1.70094 0
M  V30 1607 O 155.34 -0.186837 -1.93299 0
M  V30 1608 C 152.47 -0.745561 -3.39203 0
M  V30 1609 C 151.424 -1.79337 -3.88616 0
M  V30 1610 C 150.75 -1.28324 -5.19073 0
M  V30 1611 C 152.05 -3.19553 -4.13138 0
M  V30 1612 H 153.744 -2.0438 -2.1879 0
M  V30 1613 H 151.29 -0.984041 -1.05131 0
M  V30 1614 H 153.243 -0.622888 -4.16771 0
M  V30 1615 H 151.967 0.22401 -3.25831 0
M  V30 1616 H 150.626 -1.90477 -3.13231 0
M  V30 1617 H 150.274 -0.303414 -5.02084 0
M  V30 1618 H 149.974 -1.98369 -5.53103 0
M  V30 1619 H 151.498 -1.1733 -5.99221 0
M  V30 1620 H 152.912 -3.11471 -4.81309 0
M  V30 1621 H 151.309 -3.87218 -4.58457 0
M  V30 1622 H 152.379 -3.65368 -3.18801 0
M  V30 1623 N 153.722 1.14298 -1.08507 0
M  V30 1624 C 154.971 1.84708 -0.810305 0
M  V30 1625 C 155.284 1.83903 0.666271 0
M  V30 1626 O 156.49 2.50112 1.05624 0
M  V30 1627 C 154.946 3.31572 -1.39957 0
M  V30 1628 C 154.554 3.40791 -2.90801 0
M  V30 1629 C 156.298 4.07087 -1.20334 0
M  V30 1630 C 154.205 4.81872 -3.4286 0
M  V30 1631 H 153.135 0.691985 -0.299454 0
M  V30 1632 H 155.786 1.28841 -1.30661 0
M  V30 1633 H 154.168 3.87183 -0.830976 0
M  V30 1634 H 155.342 2.95225 -3.53806 0
M  V30 1635 H 153.657 2.78732 -3.0935 0
M  V30 1636 H 156.254 5.11225 -1.56693 0
M  V30 1637 H 156.597 4.16054 -0.143237 0
M  V30 1638 H 157.13 3.57779 -1.73893 0
M  V30 1639 H 153.869 4.78094 -4.48449 0
M  V30 1640 H 153.389 5.27972 -2.84615 0
M  V30 1641 H 155.068 5.50765 -3.39509 0
M  V30 1642 N 155.201 0.870884 1.31352 0
M  V30 1643 C 156.131 0.343096 2.30966 0
M  V30 1644 C 157.112 -0.566507 1.60389 0
M  V30 1645 O 158.297 -0.483336 1.88089 0
M  V30 1646 C 155.427 -0.455487 3.443 0
M  V30 1647 C 154.381 0.361103 4.26474 0
M  V30 1648 C 153.707 -0.563221 5.31725 0
M  V30 1649 C 155.007 1.59566 4.97329 0
M  V30 1650 H 156.701 1.17548 2.75359 0
M  V30 1651 H 154.247 0.566686 1.32381 0
M  V30 1652 H 156.2 -0.83525 4.13039 0
M  V30 1653 H 154.924 -1.32139 2.98675 0
M  V30 1654 H 153.583 0.722825 3.59403 0
M  V30 1655 H 153.231 -1.42643 4.82351 0
M  V30 1656 H 152.931 -0.0207409 5.87596 0
M  V30 1657 H 154.455 -0.939808 6.03324 0
M  V30 1658 H 155.869 1.28728 5.58661 0
M  V30 1659 H 154.266 2.07728 5.63 0
M  V30 1660 H 155.336 2.34798 4.24262 0
M  V30 1661 N 156.679 -1.44442 0.630414 0
M  V30 1662 C 157.642 -2.29107 -0.0652523 0
M  V30 1663 C 158.642 -1.41002 -0.772995 0
M  V30 1664 O 159.832 -1.62881 -0.617692 0
M  V30 1665 C 156.964 -3.22564 -1.10296 0
M  V30 1666 H 158.157 -2.92103 0.679401 0
M  V30 1667 H 155.71 -1.51343 0.390517 0
M  V30 1668 H 156.445 -2.64416 -1.87762 0
M  V30 1669 H 156.23 -3.87491 -0.59941 0
M  V30 1670 H 157.72 -3.86167 -1.5895 0
M  V30 1671 N 158.157 -0.370918 -1.53173 0
M  V30 1672 C 159.397 0.217106 -2.03244 0
M  V30 1673 C 159.761 1.45558 -1.25207 0
M  V30 1674 O 160.962 2.11957 -1.65311 0
M  V30 1675 C 159.233 0.496664 -3.53932 0
M  V30 1676 S 160.792 1.0576 -4.25864 0
M  V30 1677 H 157.61 0.0627827 -0.708223 0
M  V30 1678 H 160.212 -0.515019 -1.88594 0
M  V30 1679 H 158.916 -0.412096 -4.08326 0
M  V30 1680 H 158.447 1.25772 -3.72753 0
M  V30 1681 H 160.462 2.34145 -4.37482 0
M  V30 1682 N 159.635 1.57281 -0.100228 0
M  V30 1683 C 160.883 1.94153 0.561157 0
M  V30 1684 C 161.204 0.983157 1.68401 0
M  V30 1685 O 160.474 0.0361132 1.95867 0
M  V30 1686 H 159.054 0.716791 0.210283 0
M  V30 1687 H 161.716 1.94202 -0.164765 0
M  V30 1688 H 160.812 2.96709 0.968008 0
M  V30 1689 N 161.113 -0.173488 1.56642 0
M  V30 1690 C 162.043 -1.2171 1.99271 0
M  V30 1691 C 163.024 -1.46289 0.867959 0
M  V30 1692 O 164.209 -1.5766 1.13388 0
M  V30 1693 C 161.339 -2.55651 2.35074 0
M  V30 1694 C 160.293 -2.45645 3.50489 0
M  V30 1695 C 159.619 -3.84056 3.72028 0
M  V30 1696 C 160.919 -1.96302 4.84007 0
M  V30 1697 H 162.613 -0.86275 2.867 0
M  V30 1698 H 160.159 -0.413571 1.37933 0
M  V30 1699 H 162.112 -3.2886 2.63494 0
M  V30 1700 H 160.836 -2.92869 1.44552 0
M  V30 1701 H 159.495 -1.7489 3.22194 0
M  V30 1702 H 159.143 -4.18664 2.788 0
M  V30 1703 H 158.843 -3.7823 4.49684 0
M  V30 1704 H 160.367 -4.58854 4.02846 0
M  V30 1705 H 161.781 -2.59284 5.11317 0
M  V30 1706 H 160.178 -2.01429 5.65284 0
M  V30 1707 H 161.248 -0.917226 4.76146 0
M  V30 1708 N 162.591 -1.51276 -0.441967 0
M  V30 1709 C 164.002 -1.56244 -1.02199 0
M  V30 1710 C 164.353 -0.383149 -1.92422 0
M  V30 1711 O 163.478 0.500613 -2.1053 0
M  V30 1712 C 164.073 -2.83162 -1.86024 0
M  V30 1713 C 162.632 -2.90716 -2.39084 0
M  V30 1714 C 161.779 -2.50858 -1.18175 0
M  V30 1715 H 164.73 -1.5712 -0.223416 0
M  V30 1716 H 164.751 -2.66663 -2.71425 0
M  V30 1717 H 164.263 -3.68974 -1.20331 0
M  V30 1718 H 162.364 -2.09323 -3.08244 0
M  V30 1719 H 162.477 -3.94266 -2.72198 0
M  V30 1720 H 160.841 -2.03951 -1.52565 0
M  V30 1721 H 161.624 -3.3901 -0.541001 0
M  V30 1722 N 164.069 0.697108 -1.41344 0
M  V30 1723 C 165.316 1.45714 -1.40619 0
M  V30 1724 C 165.644 1.94494 -0.0147907 0
M  V30 1725 O 164.899 1.69794 0.973066 0
M  V30 1726 C 165.198 2.68553 -2.35826 0
M  V30 1727 C 164.864 2.38438 -3.82698 0
M  V30 1728 C 163.526 2.29936 -4.22709 0
M  V30 1729 C 165.878 2.13567 -4.75435 0
M  V30 1730 C 163.206 1.94656 -5.53467 0
M  V30 1731 C 165.558 1.79797 -6.06511 0
M  V30 1732 C 164.222 1.69789 -6.45545 0
M  V30 1733 H 163.492 0.533206 -0.51456 0
M  V30 1734 H 166.139 0.796901 -1.74131 0
M  V30 1735 H 164.444 3.39503 -1.95563 0
M  V30 1736 H 166.141 3.2669 -2.32539 0
M  V30 1737 H 162.731 2.4595 -3.51008 0
M  V30 1738 H 166.915 2.19082 -4.45328 0
M  V30 1739 H 162.171 1.8546 -5.82593 0
M  V30 1740 H 166.345 1.59572 -6.77872 0
M  V30 1741 H 163.972 1.4222 -7.46778 0
M  V30 1742 N 165.547 1.27147 0.931209 0
M  V30 1743 C 166.793 1.14455 1.68141 0
M  V30 1744 C 167.148 -0.307172 1.89932 0
M  V30 1745 O 166.441 -1.22158 1.47607 0
M  V30 1746 C 166.635 1.8579 3.05314 0
M  V30 1747 C 166.464 3.3775 2.96909 0
M  V30 1748 C 165.234 4.07062 2.99381 0
M  V30 1749 C 167.432 4.33783 2.76291 0
M  V30 1750 N 165.414 5.45618 2.8138 0
M  V30 1751 C 166.785 5.59582 2.6696 0
M  V30 1752 C 168.84 4.23915 2.61152 0
M  V30 1753 C 167.543 6.76639 2.44033 0
M  V30 1754 C 169.569 5.40689 2.39602 0
M  V30 1755 C 168.931 6.65443 2.3101 0
M  V30 1756 H 165.03 0.473667 0.622225 0
M  V30 1757 H 167.614 1.60568 1.10118 0
M  V30 1758 H 165.785 1.42138 3.61457 0
M  V30 1759 H 167.517 1.65634 3.69253 0
M  V30 1760 H 164.272 3.585 3.09475 0
M  V30 1761 H 164.696 6.184 2.75519 0
M  V30 1762 H 169.338 3.28189 2.66555 0
M  V30 1763 H 167.056 7.72451 2.3737 0
M  V30 1764 H 170.642 5.34932 2.28778 0
M  V30 1765 H 169.522 7.54277 2.14558 0
M  V30 1766 N 167.025 -1.13721 1.09112 0
M  V30 1767 C 167.988 -2.17222 0.731241 0
M  V30 1768 C 168.988 -1.59035 -0.237566 0
M  V30 1769 O 170.178 -1.74192 -0.0161704 0
M  V30 1770 C 167.31 -3.40804 0.0808443 0
M  V30 1771 H 168.503 -2.50573 1.64783 0
M  V30 1772 H 166.056 -1.28493 0.889897 0
M  V30 1773 H 166.791 -3.1304 -0.847127 0
M  V30 1774 H 166.576 -3.84306 0.777896 0
M  V30 1775 H 168.066 -4.1731 -0.155657 0
M  V30 1776 N 168.503 -0.877838 -1.30888 0
M  V30 1777 C 169.752 -0.488793 -1.95688 0
M  V30 1778 C 170.065 0.965485 -1.70111 0
M  V30 1779 O 171.271 1.46104 -2.28836 0
M  V30 1780 C 169.727 -0.823201 -3.50359 0
M  V30 1781 C 169.335 -2.29477 -3.84765 0
M  V30 1782 C 171.079 -0.503009 -4.21509 0
M  V30 1783 C 168.986 -2.57118 -5.32583 0
M  V30 1784 H 167.916 -0.179062 -0.732429 0
M  V30 1785 H 170.567 -1.07183 -1.48943 0
M  V30 1786 H 168.949 -0.169331 -3.95638 0
M  V30 1787 H 170.123 -2.99236 -3.5042 0
M  V30 1788 H 168.438 -2.58178 -3.267 0
M  V30 1789 H 171.035 -0.68665 -5.30273 0
M  V30 1790 H 171.378 0.557109 -4.12555 0
M  V30 1791 H 171.911 -1.11376 -3.8189 0
M  V30 1792 H 168.65 -3.61843 -5.4658 0
M  V30 1793 H 168.17 -1.91961 -5.68253 0
M  V30 1794 H 169.849 -2.42251 -5.99936 0
M  V30 1795 N 169.982 1.44106 -0.638065 0
M  V30 1796 C 171.21 2.06336 -0.152615 0
M  V30 1797 C 171.625 1.47731 1.17563 0
M  V30 1798 O 170.982 0.602806 1.72257 0
M  V30 1799 C 171.033 3.61479 -0.0391491 0
M  V30 1800 O 170.754 4.17903 -1.31487 0
M  V30 1801 C 172.255 4.40757 0.474176 0
M  V30 1802 H 169.475 0.665862 -0.0828776 0
M  V30 1803 H 172.019 1.84862 -0.87443 0
M  V30 1804 H 170.174 3.82191 0.633142 0
M  V30 1805 H 170.588 5.11416 -1.16421 0
M  V30 1806 H 172.062 5.49707 0.502562 0
M  V30 1807 H 172.539 4.12697 1.50258 0
M  V30 1808 H 173.145 4.24979 -0.165102 0
M  V30 1809 N 171.46 0.379036 1.52974 0
M  V30 1810 C 172.709 -0.207612 2.00629 0
M  V30 1811 C 173.022 -1.48758 1.27006 0
M  V30 1812 O 174.228 -2.15365 1.65318 0
M  V30 1813 C 172.684 -0.42053 3.57435 0
M  V30 1814 C 172.292 0.845587 4.39948 0
M  V30 1815 C 174.036 -0.964102 4.13407 0
M  V30 1816 C 171.943 0.601513 5.88333 0
M  V30 1817 H 170.873 -0.0813591 0.749598 0
M  V30 1818 H 173.524 0.499853 1.76561 0
M  V30 1819 H 171.906 -1.18959 3.7771 0
M  V30 1820 H 173.08 1.61848 4.31442 0
M  V30 1821 H 171.395 1.31336 3.95145 0
M  V30 1822 H 173.992 -1.16225 5.21916 0
M  V30 1823 H 174.335 -1.93019 3.68849 0
M  V30 1824 H 174.868 -0.25487 3.96983 0
M  V30 1825 H 171.607 1.53831 6.37194 0
M  V30 1826 H 171.127 -0.132628 5.99653 0
M  V30 1827 H 172.806 0.232134 6.46583 0
M  V30 1828 N 172.938 -1.57226 0.108567 0
M  V30 1829 C 174.163 -1.99604 -0.563303 0
M  V30 1830 C 174.588 -0.987563 -1.6009 0
M  V30 1831 O 173.946 0.0421687 -1.81251 0
M  V30 1832 C 173.994 -3.40902 -1.17552 0
M  V30 1833 O 173.098 -3.42896 -2.2912 0
M  V30 1834 H 172.439 -0.648704 -0.1417 0
M  V30 1835 H 174.969 -2.03679 0.193961 0
M  V30 1836 H 174.979 -3.78886 -1.51357 0
M  V30 1837 H 173.654 -4.1382 -0.415445 0
M  V30 1838 H 172.231 -3.1672 -1.96832 0
M  V30 1839 N 174.416 0.165178 -1.56732 0
M  V30 1840 C 175.364 1.22369 -1.97809 0
M  V30 1841 C 176.358 1.45488 -0.867741 0
M  V30 1842 O 177.564 1.45995 -1.05288 0
M  V30 1843 H 173.939 0.411486 -0.629431 0
M  V30 1844 H 175.91 0.850425 -2.86025 0
M  V30 1845 C 174.659 2.55403 -2.35934 0
M  V30 1846 H 173.982 2.38438 -3.20916 0
M  V30 1847 H 175.422 3.2814 -2.68514 0
M  V30 1848 C 173.881 3.14611 -1.20506 0
M  V30 1849 O 174.411 3.98626 -0.496016 0
M  V30 1850 N 172.617 2.7379 -0.97403 0
M  V30 1851 H 172.164 2.0557 -1.55238 0
M  V30 1852 H 172.122 3.1374 -0.203573 0
M  V30 1853 N 175.894 1.51508 0.433938 0
M  V30 1854 C 176.842 1.73646 1.54757 0
M  V30 1855 C 177.836 0.602854 1.5831 0
M  V30 1856 O 179.042 0.784318 1.62014 0
M  V30 1857 H 175.417 0.548718 0.51421 0
M  V30 1858 H 177.388 2.66991 1.33261 0
M  V30 1859 C 176.137 1.88172 2.92381 0
M  V30 1860 H 175.46 2.74808 2.90381 0
M  V30 1861 H 176.9 2.07672 3.6966 0
M  V30 1862 C 175.359 0.64239 3.30719 0
M  V30 1863 O 175.889 -0.201362 4.01195 0
M  V30 1864 N 174.095 0.485489 2.86516 0
M  V30 1865 H 173.642 1.17318 2.29334 0
M  V30 1866 H 173.6 -0.342482 3.12529 0
M  V30 1867 N 177.372 -0.689602 1.41712 0
M  V30 1868 C 178.619 -1.44966 1.4139 0
M  V30 1869 C 178.947 -1.94484 0.025105 0
M  V30 1870 O 178.202 -1.70307 -0.964048 0
M  V30 1871 C 178.501 -2.67298 2.37247 0
M  V30 1872 C 178.167 -2.36405 3.83958 0
M  V30 1873 C 176.829 -2.27691 4.23923 0
M  V30 1874 C 179.181 -2.11043 4.76561 0
M  V30 1875 C 176.509 -1.91719 5.54492 0
M  V30 1876 C 178.861 -1.76578 6.07456 0
M  V30 1877 C 177.525 -1.66363 6.46436 0
M  V30 1878 H 176.795 -0.53047 0.517381 0
M  V30 1879 H 179.442 -0.787655 1.74552 0
M  V30 1880 H 177.747 -3.38461 1.9736 0
M  V30 1881 H 179.444 -3.25452 2.34269 0
M  V30 1882 H 176.034 -2.44085 3.52308 0
M  V30 1883 H 180.218 -2.16717 4.46483 0
M  V30 1884 H 175.474 -1.82367 5.83568 0
M  V30 1885 H 179.648 -1.55974 6.78708 0
M  V30 1886 H 177.275 -1.38258 7.47522 0
M  V30 1887 N 178.85 -1.27639 -0.924453 0
M  V30 1888 C 180.127 -1.04887 -1.651 0
M  V30 1889 C 180.507 0.415327 -2.06974 0
M  V30 1890 O 179.855 1.39923 -1.80648 0
M  V30 1891 C 180.065 -2.01348 -2.85061 0
M  V30 1892 C 181.413 -2.30899 -3.56329 0
M  V30 1893 O 182.437 -1.99348 -2.95193 0
M  V30 1894 O 181.296 -2.84699 -4.66485 0
M  V30 1895 H 178.39 -0.400083 -0.723784 0
M  V30 1896 H 180.936 -1.38916 -0.974703 0
M  V30 1897 H 179.708 -3.0008 -2.51133 0
M  V30 1898 H 179.331 -1.679 -3.6041 0
M  V30 1899 N 180.328 1.1314 -1.09713 0
M  V30 1900 C 181.574 1.84967 -0.846104 0
M  V30 1901 C 181.929 1.82082 0.621601 0
M  V30 1902 O 181.222 1.2501 1.452 0
M  V30 1903 C 181.416 3.32167 -1.3191 0
M  V30 1904 C 181.245 3.49386 -2.83125 0
M  V30 1905 C 180.015 3.63456 -3.51038 0
M  V30 1906 C 182.213 3.45179 -3.81256 0
M  V30 1907 N 180.195 3.68966 -4.9065 0
M  V30 1908 C 181.566 3.57094 -5.06837 0
M  V30 1909 C 183.621 3.28598 -3.74069 0
M  V30 1910 C 182.324 3.5414 -6.26081 0
M  V30 1911 C 184.35 3.26953 -4.92804 0
M  V30 1912 C 183.712 3.39422 -6.17229 0
M  V30 1913 H 179.811 0.692899 -0.362512 0
M  V30 1914 H 182.395 1.35506 -1.39808 0
M  V30 1915 H 180.566 3.80186 -0.794535 0
M  V30 1916 H 182.298 3.91815 -1.01308 0
M  V30 1917 H 179.053 3.65256 -3.01471 0
M  V30 1918 H 179.477 3.75404 -5.63383 0
M  V30 1919 H 184.119 3.17858 -2.78794 0
M  V30 1920 H 181.837 3.63653 -7.21653 0
M  V30 1921 H 185.423 3.15316 -4.88945 0
M  V30 1922 H 184.303 3.38114 -7.07565 0
M  V30 1923 N 181.806 0.884767 1.30421 0
M  V30 1924 C 182.736 0.367574 2.30589 0
M  V30 1925 C 183.717 -0.549464 1.60981 0
M  V30 1926 O 184.902 -0.46336 1.88591 0
M  V30 1927 C 182.032 -0.418944 3.44764 0
M  V30 1928 C 180.986 0.406316 4.26067 0
M  V30 1929 C 180.312 -0.506793 5.32293 0
M  V30 1930 C 181.612 1.64832 4.95608 0
M  V30 1931 H 183.306 1.20462 2.74097 0
M  V30 1932 H 180.852 0.580695 1.31772 0
M  V30 1933 H 182.805 -0.791395 4.13902 0
M  V30 1934 H 181.529 -1.28964 3.0006 0
M  V30 1935 H 180.188 0.760903 3.58617 0
M  V30 1936 H 179.836 -1.37519 4.83836 0
M  V30 1937 H 179.536 0.0415828 5.87585 0
M  V30 1938 H 181.06 -0.875764 6.04287 0
M  V30 1939 H 182.474 1.34646 5.57264 0
M  V30 1940 H 180.871 2.13688 5.60765 0
M  V30 1941 H 181.941 2.39284 4.21748 0
M  V30 1942 N 183.284 -1.43765 0.645699 0
M  V30 1943 C 184.531 -2.01898 0.15604 0
M  V30 1944 C 184.859 -1.50887 -1.22733 0
M  V30 1945 O 184.114 -0.689271 -1.8316 0
M  V30 1946 C 184.413 -3.57238 0.107679 0
M  V30 1947 C 184.079 -4.27564 1.43178 0
M  V30 1948 C 182.741 -4.46492 1.7944 0
M  V30 1949 C 185.093 -4.67454 2.30513 0
M  V30 1950 C 182.421 -5.02573 3.02716 0
M  V30 1951 C 184.773 -5.24901 3.53074 0
M  V30 1952 C 183.437 -5.42046 3.89541 0
M  V30 1953 H 182.707 -0.738797 0.057099 0
M  V30 1954 H 185.354 -1.72341 0.834912 0
M  V30 1955 H 183.659 -3.86293 -0.654618 0
M  V30 1956 H 185.356 -3.99965 -0.287938 0
M  V30 1957 H 181.946 -4.13171 1.13963 0
M  V30 1958 H 186.13 -4.5253 2.0379 0
M  V30 1959 H 181.386 -5.14033 3.31028 0
M  V30 1960 H 185.56 -5.54758 4.20971 0
M  V30 1961 H 183.187 -5.85268 4.85145 0
M  V30 1962 N 184.763 -0.387143 -1.52771 0
M  V30 1963 C 186.011 0.195349 -2.01154 0
M  V30 1964 C 186.332 1.475 -1.27549 0
M  V30 1965 O 185.602 1.91878 -0.394924 0
M  V30 1966 H 184.182 0.075178 -0.743207 0
M  V30 1967 H 186.844 -0.518337 -1.87881 0
M  V30 1968 H 185.94 0.407096 -3.09434 0
M  V30 1969 N 186.241 1.57166 -0.116904 0
M  V30 1970 C 187.151 2.18745 0.847812 0
M  V30 1971 C 188.167 1.163 1.29423 0
M  V30 1972 O 189.343 1.48761 1.35765 0
M  V30 1973 C 186.408 2.77307 2.0809 0
M  V30 1974 C 185.469 3.94781 1.68661 0
M  V30 1975 C 184.702 4.50541 2.86091 0
M  V30 1976 O 184.925 4.05202 4.01456 0
M  V30 1977 O 183.859 5.41256 2.63298 0
M  V30 1978 H 187.685 3.01632 0.353778 0
M  V30 1979 H 185.27 1.49005 0.108599 0
M  V30 1980 H 187.152 3.14647 2.80313 0
M  V30 1981 H 185.827 1.97452 2.56504 0
M  V30 1982 H 184.734 3.62214 0.935518 0
M  V30 1983 H 186.067 4.76065 1.24991 0
M  V30 1984 N 187.719 -0.156864 1.56817 0
M  V30 1985 C 188.947 -0.886316 1.86955 0
M  V30 1986 C 189.362 -1.75185 0.703975 0
M  V30 1987 O 188.719 -1.79555 -0.326552 0
M  V30 1988 C 188.77 -1.75117 3.16253 0
M  V30 1989 O 188.491 -0.920537 4.2832 0
M  V30 1990 C 189.992 -2.58905 3.59837 0
M  V30 1991 H 187.212 -0.25678 0.619923 0
M  V30 1992 H 189.756 -0.152615 2.0393 0
M  V30 1993 H 187.911 -2.43805 3.01062 0
M  V30 1994 H 188.325 -1.51337 5.02192 0
M  V30 1995 H 189.799 -3.1518 4.53172 0
M  V30 1996 H 190.276 -3.34472 2.84649 0
M  V30 1997 H 190.882 -1.95526 3.7769 0
M  V30 1998 N 189.197 -1.51736 -0.425897 0
M  V30 1999 C 190.127 -1.76827 -1.52494 0
M  V30 2000 C 191.108 -0.618524 -1.58456 0
M  V30 2001 O 192.293 -0.862416 -1.74 0
M  V30 2002 C 189.423 -1.90374 -2.90474 0
M  V30 2003 C 188.377 -3.0588 -2.99369 0
M  V30 2004 C 187.703 -3.04625 -4.3944 0
M  V30 2005 C 189.003 -4.45644 -2.72394 0
M  V30 2006 H 190.697 -2.68855 -1.31748 0
M  V30 2007 H 188.243 -1.29372 -0.632362 0
M  V30 2008 H 190.196 -2.0651 -3.6733 0
M  V30 2009 H 188.92 -0.95004 -3.12477 0
M  V30 2010 H 187.579 -2.89467 -2.24954 0
M  V30 2011 H 187.227 -2.0701 -4.58428 0
M  V30 2012 H 186.927 -3.82195 -4.46319 0
M  V30 2013 H 188.451 -3.22869 -5.18255 0
M  V30 2014 H 189.865 -4.62348 -3.38979 0
M  V30 2015 H 188.262 -5.25006 -2.9067 0
M  V30 2016 H 189.332 -4.54893 -1.67929 0
M  V30 2017 N 190.675 0.682077 -1.42076 0
M  V30 2018 C 191.915 1.45424 -1.43636 0
M  V30 2019 C 192.279 1.91939 -0.0484001 0
M  V30 2020 O 193.48 2.6873 0.0612514 0
M  V30 2021 C 191.751 2.62427 -2.42625 0
M  V30 2022 S 193.31 3.51379 -2.62827 0
M  V30 2023 H 190.128 0.496779 -0.508657 0
M  V30 2024 H 192.73 0.794645 -1.78621 0
M  V30 2025 H 191.434 2.26481 -3.42249 0
M  V30 2026 H 190.965 3.33266 -2.09039 0
M  V30 2027 H 192.98 4.58141 -1.9058 0
M  V30 2028 N 192.153 1.28127 0.917671 0
M  V30 2029 C 193.569 1.05749 1.19538 0
M  V30 2030 C 193.769 -0.202633 2.00479 0
M  V30 2031 O 192.825 -0.905382 2.3571 0
M  V30 2032 C 194.138 2.30273 1.93378 0
M  V30 2033 C 195.686 2.35412 2.06277 0
M  V30 2034 C 196.161 3.59692 2.83524 0
M  V30 2035 N 197.652 3.60309 2.91087 0
M  V30 2036 C 198.387 4.53147 3.51348 0
M  V30 2037 N 197.883 5.563 4.12919 0
M  V30 2038 N 199.676 4.40751 3.48849 0
M  V30 2039 H 191.827 2.09024 0.377184 0
M  V30 2040 H 194.09 0.919798 0.22951 0
M  V30 2041 H 193.796 3.22055 1.41328 0
M  V30 2042 H 193.67 2.36378 2.93947 0
M  V30 2043 H 196.057 1.4413 2.57508 0
M  V30 2044 H 196.138 2.33304 1.04895 0
M  V30 2045 H 195.782 4.51316 2.32973 0
M  V30 2046 H 195.712 3.59054 3.85211 0
M  V30 2047 H 198.203 2.85714 2.47338 0
M  V30 2048 H 198.516 6.2329 4.56869 0
M  V30 2049 H 196.861 5.60131 4.11435 0
M  V30 2050 H 200.052 3.59367 2.99955 0
M  V30 2051 H 200.225 5.13291 3.9552 0
M  V30 2052 N 193.631 -1.12557 1.10312 0
M  V30 2053 C 194.877 -1.84311 0.846011 0
M  V30 2054 C 195.21 -1.83805 -0.626859 0
M  V30 2055 O 194.485 -1.28268 -1.46211 0
M  V30 2056 C 194.768 -3.32048 1.39341 0
M  V30 2057 C 194.621 -3.41016 2.93305 0
M  V30 2058 C 195.94 -4.27764 1.03468 0
M  V30 2059 H 193.059 -0.669192 0.30879 0
M  V30 2060 H 195.701 -1.32057 1.36605 0
M  V30 2061 H 193.851 -3.76678 0.951087 0
M  V30 2062 H 195.523 -3.05031 3.46055 0
M  V30 2063 H 193.766 -2.81603 3.29973 0
M  V30 2064 H 194.437 -4.44948 3.26689 0
M  V30 2065 H 196.913 -3.91253 1.41633 0
M  V30 2066 H 195.789 -5.29549 1.44463 0
M  V30 2067 H 196.05 -4.42064 -0.0560404 0
M  V30 2068 N 195.109 -0.891671 -1.2995 0
M  V30 2069 C 196.355 -0.514261 -1.96171 0
M  V30 2070 C 196.688 0.935506 -1.70182 0
M  V30 2071 O 195.963 1.66204 -1.01028 0
M  V30 2072 C 196.246 -0.797719 -3.51153 0
M  V30 2073 C 196.099 -2.2986 -3.86632 0
M  V30 2074 C 197.418 -0.278749 -4.39216 0
M  V30 2075 H 194.537 -0.188314 -0.712535 0
M  V30 2076 H 197.179 -1.11689 -1.53706 0
M  V30 2077 H 195.329 -0.284826 -3.87455 0
M  V30 2078 H 197.001 -2.88042 -3.60319 0
M  V30 2079 H 195.244 -2.76257 -3.34462 0
M  V30 2080 H 195.915 -2.44753 -4.94773 0
M  V30 2081 H 198.391 -0.717825 -4.09862 0
M  V30 2082 H 197.267 -0.506353 -5.46559 0
M  V30 2083 H 197.528 0.820266 -4.34424 0
M  V30 2084 N 196.587 1.43421 -0.653314 0
M  V30 2085 C 197.535 2.32546 0.0501531 0
M  V30 2086 C 198.529 1.48617 0.812985 0
M  V30 2087 O 199.735 1.64825 0.723375 0
M  V30 2088 H 196.11 0.751185 0.0350032 0
M  V30 2089 H 198.081 2.89602 -0.719261 0
M  V30 2090 C 196.83 3.32925 1.00279 0
M  V30 2091 H 196.153 3.97532 0.425236 0
M  V30 2092 H 197.593 3.9792 1.46409 0
M  V30 2093 C 196.052 2.63532 2.09886 0
M  V30 2094 O 196.582 2.45092 3.18265 0
M  V30 2095 N 194.788 2.22905 1.86445 0
M  V30 2096 H 194.335 2.38103 0.98309 0
M  V30 2097 H 194.293 1.76805 2.59976 0
M  V30 2098 N 198.065 0.39524 1.52563 0
M  V30 2099 C 199.028 -0.425001 2.25225 0
M  V30 2100 C 200.028 -0.985266 1.27079 0
M  V30 2101 O 201.218 -0.866332 1.5113 0
M  V30 2102 C 198.35 -1.59686 3.01186 0
M  V30 2103 H 199.543 0.211233 2.99155 0
M  V30 2104 H 197.096 0.147472 1.55603 0
M  V30 2105 H 197.831 -2.27035 2.31572 0
M  V30 2106 H 197.616 -1.20176 3.73229 0
M  V30 2107 H 199.106 -2.17743 3.5634 0
M  V30 2108 N 199.544 -1.57102 0.125237 0
M  V30 2109 C 200.793 -1.94582 -0.531095 0
M  V30 2110 C 201.106 -1.01126 -1.6743 0
M  V30 2111 O 202.312 -1.28097 -2.39381 0
M  V30 2112 C 200.768 -3.45839 -0.996164 0
M  V30 2113 C 200.376 -4.47842 0.118926 0
M  V30 2114 C 202.12 -3.92227 -1.62352 0
M  V30 2115 C 200.027 -5.90284 -0.363192 0
M  V30 2116 H 198.957 -0.726391 -0.20217 0
M  V30 2117 H 201.608 -1.82339 0.206092 0
M  V30 2118 H 199.99 -3.53338 -1.78796 0
M  V30 2119 H 201.164 -4.52018 0.895358 0
M  V30 2120 H 199.479 -4.11243 0.653324 0
M  V30 2121 H 202.076 -4.96069 -1.99548 0
M  V30 2122 H 202.419 -3.32552 -2.50429 0
M  V30 2123 H 202.952 -3.87554 -0.897019 0
M  V30 2124 H 199.691 -6.53728 0.481679 0
M  V30 2125 H 199.211 -5.89515 -1.10597 0
M  V30 2126 H 200.89 -6.41752 -0.822377 0
M  V30 2127 N 201.022 0.148545 -1.56898 0
M  V30 2128 C 202.271 0.85984 -1.82454 0
M  V30 2129 C 202.584 1.82406 -0.706229 0
M  V30 2130 O 203.79 2.57938 -0.847349 0
M  V30 2131 C 202.246 1.57967 -3.2338 0
M  V30 2132 C 201.854 0.65794 -4.43142 0
M  V30 2133 C 203.598 2.27784 -3.58211 0
M  V30 2134 C 201.505 1.3793 -5.75091 0
M  V30 2135 H 200.435 0.324834 -0.68044 0
M  V30 2136 H 203.086 0.112588 -1.83154 0
M  V30 2137 H 201.468 2.37249 -3.17063 0
M  V30 2138 H 202.642 -0.0995497 -4.60692 0
M  V30 2139 H 200.957 0.0682643 -4.16344 0
M  V30 2140 H 203.554 2.8239 -4.54048 0
M  V30 2141 H 203.897 3.04204 -2.84193 0
M  V30 2142 H 204.43 1.55421 -3.66182 0
M  V30 2143 H 201.169 0.656982 -6.52199 0
M  V30 2144 H 200.689 2.10954 -5.61479 0
M  V30 2145 H 202.368 1.92063 -6.17835 0
M  V30 2146 N 202.5 1.5196 0.417844 0
M  V30 2147 C 203.725 1.69717 1.1921 0
M  V30 2148 C 204.15 0.402148 1.83751 0
M  V30 2149 O 203.508 -0.639593 1.69643 0
M  V30 2150 C 203.556 2.82794 2.2374 0
M  V30 2151 O 202.66 2.47756 3.29683 0
M  V30 2152 H 202.001 0.565263 0.348387 0
M  V30 2153 H 204.531 1.98621 0.490985 0
M  V30 2154 H 204.541 3.07452 2.68212 0
M  V30 2155 H 203.216 3.76756 1.76146 0
M  V30 2156 H 201.793 2.33739 2.90552 0
M  V30 2157 N 203.978 -0.674533 1.42435 0
M  V30 2158 C 204.911 -1.79924 1.40366 0
M  V30 2159 C 205.889 -1.60378 0.267899 0
M  V30 2160 O 207.073 -1.82847 0.458159 0
M  V30 2161 C 204.2 -3.16927 1.19478 0
M  V30 2162 C 203.246 -3.55221 2.36051 0
M  V30 2163 S 204.079 -3.5762 3.98583 0
M  V30 2164 C 205.235 -4.97315 3.80038 0
M  V30 2165 H 205.468 -1.81405 2.35541 0
M  V30 2166 H 203.001 -0.845221 1.29211 0
M  V30 2167 H 204.959 -3.96007 1.08114 0
M  V30 2168 H 203.62 -3.13031 0.258883 0
M  V30 2169 H 202.813 -4.54804 2.17185 0
M  V30 2170 H 202.415 -2.83502 2.43932 0
M  V30 2171 H 204.707 -5.85401 3.41045 0
M  V30 2172 H 205.65 -5.21228 4.79298 0
M  V30 2173 H 206.058 -4.69845 3.12899 0
M  V30 2174 N 205.456 -1.28612 -0.910864 0
M  V30 2175 C 206.404 -1.1265 -2.03501 0
M  V30 2176 C 207.398 -0.0450054 -1.6934 0
M  V30 2177 O 208.604 -0.203988 -1.7884 0
M  V30 2178 H 204.979 -0.347639 -0.666822 0
M  V30 2179 H 206.95 -2.07849 -2.14106 0
M  V30 2180 C 205.699 -0.808143 -3.38178 0
M  V30 2181 H 205.022 -1.63231 -3.6496 0
M  V30 2182 H 206.462 -0.736426 -4.17556 0
M  V30 2183 C 204.921 0.488226 -3.33344 0
M  V30 2184 O 205.451 1.51766 -3.71927 0
M  V30 2185 N 203.657 0.490009 -2.86439 0
M  V30 2186 H 203.204 -0.348161 -2.55236 0
M  V30 2187 H 203.162 1.35741 -2.83587 0
M  V30 2188 N 206.934 1.1197 -1.10907 0
M  V30 2189 C 207.864 2.19928 -0.784473 0
M  V30 2190 C 208.845 1.6833 0.244726 0
M  V30 2191 O 210.03 1.93892 0.109418 0
M  V30 2192 C 207.16 3.46597 -0.220827 0
M  V30 2193 C 206.114 4.11376 -1.18127 0
M  V30 2194 C 205.44 5.32554 -0.478594 0
M  V30 2195 C 206.74 4.56945 -2.52979 0
M  V30 2196 H 208.434 2.47337 -1.68715 0
M  V30 2197 H 205.98 1.18879 -0.812642 0
M  V30 2198 H 207.933 4.21396 0.0184278 0
M  V30 2199 H 206.657 3.1863 0.717113 0
M  V30 2200 H 205.316 3.38564 -1.40606 0
M  V30 2201 H 204.964 5.00856 0.463976 0
M  V30 2202 H 204.664 5.76844 -1.11912 0
M  V30 2203 H 206.188 6.10096 -0.248 0
M  V30 2204 H 207.602 5.23093 -2.3462 0
M  V30 2205 H 205.999 5.1203 -3.12962 0
M  V30 2206 H 207.069 3.70676 -3.12614 0
M  V30 2207 N 208.412 0.89855 1.29475 0
M  V30 2208 C 209.642 0.538479 1.99459 0
M  V30 2209 C 210.05 -0.880922 1.67441 0
M  V30 2210 O 209.393 -1.59283 0.915127 0
M  V30 2211 C 209.455 0.649564 3.53583 0
M  V30 2212 C 209.119 2.03573 4.09154 0
M  V30 2213 C 210.116 3.00675 4.24135 0
M  V30 2214 C 207.801 2.3448 4.44212 0
M  V30 2215 C 209.795 4.26809 4.73405 0
M  V30 2216 C 207.482 3.60857 4.93179 0
M  V30 2217 C 208.48 4.56836 5.0773 0
M  V30 2218 O 208.168 5.80969 5.55635 0
M  V30 2219 H 207.9 0.205372 0.644048 0
M  V30 2220 H 210.454 1.20958 1.66007 0
M  V30 2221 H 208.684 -0.0785592 3.8662 0
M  V30 2222 H 210.373 0.29881 4.04799 0
M  V30 2223 H 211.139 2.78112 3.97339 0
M  V30 2224 H 207.018 1.60534 4.32145 0
M  V30 2225 H 210.562 5.0173 4.84678 0
M  V30 2226 H 206.459 3.83251 5.19412 0
M  V30 2227 H 207.227 5.83542 5.73952 0
M  V30 2228 N 209.89 -1.43072 0.660911 0
M  V30 2229 C 211.115 -2.06584 0.183805 0
M  V30 2230 C 211.54 -1.49257 -1.14472 0
M  V30 2231 O 210.898 -0.605528 -1.70889 0
M  V30 2232 C 210.946 -3.60418 0.114434 0
M  V30 2233 O 210.05 -4.01981 -0.921137 0
M  V30 2234 H 209.391 -0.656669 0.0983994 0
M  V30 2235 H 211.921 -1.83447 0.906006 0
M  V30 2236 H 211.931 -4.07946 -0.0663394 0
M  V30 2237 H 210.606 -4.01519 1.08422 0
M  V30 2238 H 209.183 -3.66029 -0.71253 0
M  V30 2239 N 211.368 -0.403325 -1.52352 0
M  V30 2240 C 212.593 0.176499 -2.06648 0
M  V30 2241 C 213.018 1.38577 -1.27193 0
M  V30 2242 O 212.376 1.7879 -0.300637 0
M  V30 2243 C 212.424 0.511061 -3.5696 0
M  V30 2244 O 211.528 1.60294 -3.79973 0
M  V30 2245 H 210.869 0.0167337 -0.663789 0
M  V30 2246 H 213.399 -0.574848 -1.96359 0
M  V30 2247 H 213.409 0.771362 -4.00642 0
M  V30 2248 H 212.084 -0.37296 -4.14224 0
M  V30 2249 H 210.661 1.33526 -3.48174 0
M  V30 2250 N 212.846 1.57033 -0.133567 0
M  V30 2251 C 214.095 1.94861 0.520768 0
M  V30 2252 C 214.408 1.02012 1.66892 0
M  V30 2253 O 215.614 1.29365 2.38699 0
M  V30 2254 C 214.07 3.46362 0.977809 0
M  V30 2255 C 213.678 4.47773 -0.142674 0
M  V30 2256 C 215.422 3.93083 1.60269 0
M  V30 2257 C 213.329 5.90468 0.331883 0
M  V30 2258 H 212.259 0.727453 0.198315 0
M  V30 2259 H 214.91 1.82227 -0.215759 0
M  V30 2260 H 213.292 3.54282 1.7692 0
M  V30 2261 H 214.466 4.51536 -0.919317 0
M  V30 2262 H 212.781 4.10891 -0.675124 0
M  V30 2263 H 215.378 4.97121 1.96914 0
M  V30 2264 H 215.721 3.33876 2.48662 0
M  V30 2265 H 216.254 3.88025 0.876453 0
M  V30 2266 H 212.993 6.53463 -0.516341 0
M  V30 2267 H 212.513 5.90094 1.07469 0
M  V30 2268 H 214.192 6.42179 0.788332 0
M  V30 2269 N 214.325 -0.140222 1.56975 0
M  V30 2270 C 215.565 -0.857823 1.85528 0
M  V30 2271 C 215.929 -1.78039 0.718768 0
M  V30 2272 O 217.13 -2.53795 0.885521 0
M  V30 2273 C 215.401 -1.60615 3.19277 0
M  V30 2274 S 216.96 -2.36824 3.69405 0
M  V30 2275 H 213.778 -0.286727 0.650622 0
M  V30 2276 H 216.38 -0.117408 1.95147 0
M  V30 2277 H 215.084 -0.919994 3.99955 0
M  V30 2278 H 214.615 -2.38735 3.12681 0
M  V30 2279 H 216.63 -3.62148 3.3921 0
M  V30 2280 N 215.803 -1.52179 -0.40978 0
M  V30 2281 C 217.05 -1.66206 -1.15679 0
M  V30 2282 C 217.378 -0.391674 -1.90516 0
M  V30 2283 O 216.633 0.62533 -1.8544 0
M  V30 2284 C 216.932 -2.83428 -2.17723 0
M  V30 2285 C 216.598 -4.21672 -1.59699 0
M  V30 2286 C 215.26 -4.59274 -1.43599 0
M  V30 2287 C 217.612 -5.07825 -1.17317 0
M  V30 2288 C 214.94 -5.80709 -0.836328 0
M  V30 2289 C 217.292 -6.29864 -0.587691 0
M  V30 2290 C 215.956 -6.66216 -0.413818 0
M  V30 2291 H 215.226 -0.608192 -0.423301 0
M  V30 2292 H 217.873 -1.86279 -0.444097 0
M  V30 2293 H 216.178 -2.57687 -2.95135 0
M  V30 2294 H 217.875 -2.91477 -2.75394 0
M  V30 2295 H 214.465 -3.9204 -1.73213 0
M  V30 2296 H 218.649 -4.79359 -1.28565 0
M  V30 2297 H 213.905 -6.07498 -0.689626 0
M  V30 2298 H 218.079 -6.95948 -0.250894 0
M  V30 2299 H 215.706 -7.60182 0.0529471 0
M  V30 2300 N 217.281 0.66697 -1.42791 0
M  V30 2301 C 218.211 1.79218 -1.49677 0
M  V30 2302 C 219.192 1.66405 -0.352623 0
M  V30 2303 O 220.377 1.85708 -0.567993 0
M  V30 2304 C 217.507 3.17565 -1.40605 0
M  V30 2305 C 216.461 3.45124 -2.53127 0
M  V30 2306 C 215.787 4.83127 -2.29112 0
M  V30 2307 C 217.087 3.41236 -3.95418 0
M  V30 2308 H 218.781 1.73713 -2.43853 0
M  V30 2309 H 216.327 0.83432 -1.17367 0
M  V30 2310 H 218.28 3.96022 -1.44029 0
M  V30 2311 H 217.004 3.23767 -0.429271 0
M  V30 2312 H 215.663 2.69031 -2.49034 0
M  V30 2313 H 215.311 4.85988 -1.29709 0
M  V30 2314 H 215.011 5.02528 -3.04531 0
M  V30 2315 H 216.535 5.63859 -2.34297 0
M  V30 2316 H 217.949 4.09651 -4.01073 0
M  V30 2317 H 216.346 3.72173 -4.70752 0
M  V30 2318 H 217.416 2.39665 -4.21532 0
M  V30 2319 N 218.759 1.29093 0.90403 0
M  V30 2320 C 219.692 1.08176 2.00931 0
M  V30 2321 C 220.67 -0.005083 1.62599 0
M  V30 2322 O 221.854 0.144765 1.87943 0
M  V30 2323 C 218.981 0.645897 3.32484 0
M  V30 2324 C 218.027 1.73081 3.89801 0
M  V30 2325 S 218.86 3.32905 4.19446 0
M  V30 2326 C 220.016 2.91176 5.54046 0
M  V30 2327 H 220.249 2.01752 2.18365 0
M  V30 2328 H 217.782 1.13191 1.0501 0
M  V30 2329 H 219.74 0.401131 4.08535 0
M  V30 2330 H 218.401 -0.270188 3.12936 0
M  V30 2331 H 217.594 1.37768 4.84805 0
M  V30 2332 H 217.196 1.92888 3.20422 0
M  V30 2333 H 219.488 2.37952 6.34338 0
M  V30 2334 H 220.431 3.85014 5.94281 0
M  V30 2335 H 220.839 2.296 5.15698 0
M  V30 2336 N 220.237 -1.11381 1.11499 0
M  V30 2337 C 221.167 -2.19509 0.796125 0
M  V30 2338 C 222.148 -1.68458 -0.235796 0
M  V30 2339 O 223.333 -1.93947 -0.0991344 0
M  V30 2340 C 220.463 -3.46475 0.239205 0
M  V30 2341 C 219.417 -4.10744 1.20307 0
M  V30 2342 C 218.743 -5.32293 0.50683 0
M  V30 2343 C 220.043 -4.55597 2.55399 0
M  V30 2344 H 221.737 -2.46439 1.70024 0
M  V30 2345 H 219.283 -1.18446 0.818935 0
M  V30 2346 H 221.236 -4.214 0.00392006 0
M  V30 2347 H 219.96 -3.19006 -0.700206 0
M  V30 2348 H 218.619 -3.37813 1.42399 0
M  V30 2349 H 218.267 -5.01095 -0.437408 0
M  V30 2350 H 217.967 -5.76243 1.1497 0
M  V30 2351 H 219.491 -6.09956 0.280351 0
M  V30 2352 H 220.905 -5.21841 2.37391 0
M  V30 2353 H 219.302 -5.10363 3.15673 0
M  V30 2354 H 220.372 -3.69013 3.14575 0
M  V30 2355 N 221.715 -0.905404 -1.28997 0
M  V30 2356 C 222.961 -0.535039 -1.95615 0
M  V30 2357 C 223.294 0.917404 -1.71165 0
M  V30 2358 O 222.569 1.65123 -1.02785 0
M  V30 2359 C 222.852 -0.834918 -3.50287 0
M  V30 2360 C 222.705 -2.33948 -3.84172 0
M  V30 2361 C 224.024 -0.325318 -4.38896 0
M  V30 2362 H 221.143 -0.195861 -0.710498 0
M  V30 2363 H 223.785 -1.13313 -1.52513 0
M  V30 2364 H 221.935 -0.325904 -3.87131 0
M  V30 2365 H 223.607 -2.91847 -3.57243 0
M  V30 2366 H 221.85 -2.79789 -3.31513 0
M  V30 2367 H 222.521 -2.49987 -4.92149 0
M  V30 2368 H 224.997 -0.761256 -4.09077 0
M  V30 2369 H 223.873 -0.564295 -5.45992 0
M  V30 2370 H 224.134 0.774144 -4.35269 0
M  V30 2371 N 223.193 1.4272 -0.668489 0
M  V30 2372 C 224.418 2.06484 -0.194758 0
M  V30 2373 C 224.843 1.49862 1.13679 0
M  V30 2374 O 224.201 0.614582 1.70565 0
M  V30 2375 C 224.249 3.60353 -0.133546 0
M  V30 2376 O 223.353 4.02464 0.899806 0
M  V30 2377 H 222.694 0.656137 -0.10188 0
M  V30 2378 H 225.224 1.82964 -0.915722 0
M  V30 2379 H 225.234 4.07976 0.0447041 0
M  V30 2380 H 223.909 4.00938 -1.1055 0
M  V30 2381 H 222.486 3.66402 0.693109 0
M  V30 2382 N 224.671 0.411399 1.52136 0
M  V30 2383 C 225.92 -0.165009 2.01024 0
M  V30 2384 C 226.233 -1.4603 1.30133 0
M  V30 2385 O 227.439 -2.1181 1.69849 0
M  V30 2386 C 225.895 -0.344618 3.58246 0
M  V30 2387 C 225.503 0.938716 4.38055 0
M  V30 2388 C 227.247 -0.876195 4.15359 0
M  V30 2389 C 225.154 0.726172 5.86925 0
M  V30 2390 H 224.084 -0.0654407 0.751155 0
M  V30 2391 H 226.735 0.537192 1.75461 0
M  V30 2392 H 225.117 -1.10921 3.80148 0
M  V30 2393 H 226.291 1.70963 4.27912 0
M  V30 2394 H 224.606 1.39688 3.92271 0
M  V30 2395 H 227.203 -1.05128 5.24263 0
M  V30 2396 H 227.546 -1.85152 3.7286 0
M  V30 2397 H 228.079 -0.170607 3.97434 0
M  V30 2398 H 224.818 1.67312 6.33788 0
M  V30 2399 H 224.338 -0.00540283 5.998 0
M  V30 2400 H 226.017 0.369231 6.45946 0
M  V30 2401 N 226.149 -1.5696 0.141893 0
M  V30 2402 C 227.426 -1.87553 -0.555281 0
M  V30 2403 C 227.806 -1.04699 -1.83306 0
M  V30 2404 O 227.154 -0.132346 -2.28116 0
M  V30 2405 C 227.364 -3.39093 -0.825664 0
M  V30 2406 C 228.712 -4.08199 -1.16869 0
M  V30 2407 O 229.736 -3.44242 -0.915185 0
M  V30 2408 O 228.595 -5.21139 -1.6455 0
M  V30 2409 H 225.689 -0.777188 -0.282679 0
M  V30 2410 H 228.235 -1.68763 0.17812 0
M  V30 2411 H 227.007 -3.91221 0.0788633 0
M  V30 2412 H 226.63 -3.63393 -1.61343 0
M  V30 2413 N 227.627 0.131896 -1.57047 0
M  V30 2414 C 229.043 0.485031 -1.52051 0
M  V30 2415 C 229.243 1.82563 -0.85281 0
M  V30 2416 O 228.299 2.48817 -0.429694 0
M  V30 2417 C 229.612 0.481409 -2.96821 0
M  V30 2418 C 231.16 0.565868 -3.07842 0
M  V30 2419 C 231.635 0.592762 -4.54148 0
M  V30 2420 N 233.126 0.654564 -4.58552 0
M  V30 2421 C 233.861 0.696608 -5.69153 0
M  V30 2422 N 233.357 0.697078 -6.89284 0
M  V30 2423 N 235.15 0.738639 -5.57226 0
M  V30 2424 H 227.301 -0.746664 -1.98843 0
M  V30 2425 H 229.564 -0.273999 -0.90754 0
M  V30 2426 H 229.27 -0.435731 -3.4899 0
M  V30 2427 H 229.144 1.3139 -3.53577 0
M  V30 2428 H 231.531 1.47343 -2.55684 0
M  V30 2429 H 231.612 -0.29406 -2.54104 0
M  V30 2430 H 231.256 -0.310701 -5.06949 0
M  V30 2431 H 231.186 1.46939 -5.05684 0
M  V30 2432 H 233.677 0.660887 -3.72076 0
M  V30 2433 H 233.99 0.731426 -7.69331 0
M  V30 2434 H 232.335 0.66471 -6.91814 0
M  V30 2435 H 235.526 0.735545 -4.62285 0
M  V30 2436 H 235.699 0.767938 -6.43434 0
M  V30 2437 N 229.106 1.52395 0.401703 0
M  V30 2438 C 230.336 1.70429 1.1678 0
M  V30 2439 C 230.744 0.416702 1.84554 0
M  V30 2440 O 230.087 -0.617697 1.73003 0
M  V30 2441 C 230.149 2.78919 2.26814 0
M  V30 2442 C 229.813 4.20437 1.79113 0
M  V30 2443 C 230.81 5.04028 1.27482 0
M  V30 2444 C 228.495 4.66704 1.85722 0
M  V30 2445 C 230.489 6.31961 0.830913 0
M  V30 2446 C 228.176 5.94625 1.40942 0
M  V30 2447 C 229.174 6.77082 0.897128 0
M  V30 2448 O 228.862 8.02607 0.455822 0
M  V30 2449 H 228.594 0.574272 0.356634 0
M  V30 2450 H 231.148 1.99767 0.477724 0
M  V30 2451 H 229.378 2.44973 2.99207 0
M  V30 2452 H 231.067 2.8548 2.88541 0
M  V30 2453 H 231.833 4.69471 1.21744 0
M  V30 2454 H 227.712 4.0262 2.24539 0
M  V30 2455 H 231.256 6.96271 0.430368 0
M  V30 2456 H 227.153 6.28688 1.46362 0
M  V30 2457 H 227.921 8.16453 0.578457 0
M  V30 2458 N 230.584 -0.659388 1.43143 0
M  V30 2459 C 231.514 -1.78422 1.50625 0
M  V30 2460 C 232.495 -1.66216 0.361443 0
M  V30 2461 O 233.68 -1.85404 0.577834 0
M  V30 2462 C 230.81 -3.16815 1.42287 0
M  V30 2463 C 229.764 -3.43777 2.54954 0
M  V30 2464 C 229.09 -4.81905 2.31671 0
M  V30 2465 C 230.39 -3.39134 3.97222 0
M  V30 2466 H 232.084 -1.72417 2.44771 0
M  V30 2467 H 229.63 -0.828084 1.17808 0
M  V30 2468 H 231.583 -3.95253 1.46127 0
M  V30 2469 H 230.307 -3.23534 0.446435 0
M  V30 2470 H 228.966 -2.67707 2.50457 0
M  V30 2471 H 228.614 -4.85294 1.32284 0
M  V30 2472 H 228.314 -5.00906 3.07192 0
M  V30 2473 H 229.838 -5.62609 2.37284 0
M  V30 2474 H 231.252 -4.07518 4.03239 0
M  V30 2475 H 229.649 -3.69671 4.72719 0
M  V30 2476 H 230.719 -2.37426 4.22797 0
M  V30 2477 N 232.062 -1.29571 -0.897171 0
M  V30 2478 C 233.025 -1.14913 -1.98312 0
M  V30 2479 C 234.025 -0.0838629 -1.60581 0
M  V30 2480 O 235.215 -0.331006 -1.71026 0
M  V30 2481 C 232.347 -0.757835 -3.3237 0
M  V30 2482 H 233.54 -2.11377 -2.12743 0
M  V30 2483 H 231.093 -1.12793 -1.08201 0
M  V30 2484 H 231.828 0.206837 -3.2364 0
M  V30 2485 H 231.613 -1.52755 -3.61121 0
M  V30 2486 H 233.103 -0.678408 -4.12053 0
M  V30 2487 N 233.54 1.10788 -1.12088 0
M  V30 2488 C 234.47 2.19083 -0.807755 0
M  V30 2489 C 235.451 1.6858 0.226859 0
M  V30 2490 O 236.636 1.93997 0.0888475 0
M  V30 2491 C 233.766 3.46344 -0.257576 0
M  V30 2492 C 232.72 4.101 -1.22483 0
M  V30 2493 C 232.046 5.32016 -0.535052 0
M  V30 2494 C 233.346 4.54236 -2.57811 0
M  V30 2495 H 235.04 2.45534 -1.71328 0
M  V30 2496 H 232.586 1.1801 -0.825205 0
M  V30 2497 H 234.539 4.21392 -0.0262679 0
M  V30 2498 H 233.263 3.19373 0.683278 0
M  V30 2499 H 231.922 3.37054 -1.44189 0
M  V30 2500 H 231.57 5.01319 0.410827 0
M  V30 2501 H 231.27 5.75625 -1.18024 0
M  V30 2502 H 232.794 6.09799 -0.312695 0
M  V30 2503 H 234.208 5.20575 -2.40155 0
M  V30 2504 H 232.605 5.08682 -3.18375 0
M  V30 2505 H 233.675 3.6734 -3.16528 0
M  V30 2506 N 235.018 0.912232 1.28515 0
M  V30 2507 C 236.264 0.545405 1.95328 0
M  V30 2508 C 236.597 -0.908313 1.71649 0
M  V30 2509 O 235.872 -1.64575 1.03659 0
M  V30 2510 C 236.155 0.853483 3.4984 0
M  V30 2511 C 236.008 2.35982 3.82926 0
M  V30 2512 C 237.327 0.348589 4.38717 0
M  V30 2513 H 234.446 0.199626 0.709449 0
M  V30 2514 H 237.088 1.1412 1.5191 0
M  V30 2515 H 235.238 0.34643 3.86952 0
M  V30 2516 H 236.91 2.93738 3.55691 0
M  V30 2517 H 235.153 2.81543 3.30024 0
M  V30 2518 H 235.824 2.52593 4.90816 0
M  V30 2519 H 238.3 0.78294 4.08668 0
M  V30 2520 H 237.176 0.593242 5.45685 0
M  V30 2521 H 237.437 -0.751049 4.35674 0
M  V30 2522 N 236.496 -1.42363 0.676048 0
M  V30 2523 C 237.443 -2.308 -0.00150904 0
M  V30 2524 C 238.413 -1.46032 -0.791444 0
M  V30 2525 O 239.598 -1.74861 -0.76344 0
M  V30 2526 C 236.738 -3.31883 -0.945919 0
M  V30 2527 C 235.851 -4.31741 -0.149675 0
M  V30 2528 C 234.986 -5.19898 -1.08995 0
M  V30 2529 C 234.025 -6.11434 -0.285465 0
M  V30 2530 N 233.162 -6.92138 -1.17851 0
M  V30 2531 H 238.002 -2.88187 0.758455 0
M  V30 2532 H 235.539 -1.41952 0.38576 0
M  V30 2533 H 237.497 -3.89019 -1.50731 0
M  V30 2534 H 236.127 -2.76093 -1.6725 0
M  V30 2535 H 235.179 -3.76713 0.528359 0
M  V30 2536 H 236.491 -4.96534 0.474866 0
M  V30 2537 H 235.645 -5.81772 -1.72123 0
M  V30 2538 H 234.384 -4.55284 -1.74837 0
M  V30 2539 H 233.389 -5.48627 0.359018 0
M  V30 2540 H 234.614 -6.78097 0.368883 0
M  V30 2541 H 232.56 -6.30152 -1.82332 0
M  V30 2542 H 232.477 -7.53542 -0.609082 0
M  V30 2543 H 233.745 -7.58499 -1.79722 0
M  V30 2544 N 237.974 -0.419461 -1.51915 0
M  V30 2545 C 239.202 0.152136 -2.0634 0
M  V30 2546 C 239.617 1.37988 -1.28859 0
M  V30 2547 O 238.974 1.79243 -0.343232 0
M  V30 2548 C 239.025 0.492266 -3.58133 0
M  V30 2549 O 238.746 -0.686736 -4.32684 0
M  V30 2550 C 240.247 1.11648 -4.2901 0
M  V30 2551 H 237.467 0.0158325 -0.670813 0
M  V30 2552 H 240.011 -0.593394 -1.95702 0
M  V30 2553 H 238.166 1.18769 -3.68745 0
M  V30 2554 H 238.58 -0.400341 -5.2297 0
M  V30 2555 H 240.054 1.3046 -5.36362 0
M  V30 2556 H 240.531 2.09251 -3.86148 0
M  V30 2557 H 241.137 0.460958 -4.22795 0
M  V30 2558 N 239.452 1.56882 -0.150215 0
M  V30 2559 C 240.385 2.12712 0.826358 0
M  V30 2560 C 241.363 1.05154 1.24022 0
M  V30 2561 O 242.547 1.33004 1.33575 0
M  V30 2562 C 239.674 2.64945 2.11002 0
M  V30 2563 C 238.72 3.8468 1.84183 0
M  V30 2564 S 239.553 5.25502 1.02995 0
M  V30 2565 C 240.709 5.81125 2.32474 0
M  V30 2566 H 240.942 2.95214 0.351598 0
M  V30 2567 H 238.475 1.54267 0.0641211 0
M  V30 2568 H 240.433 2.95689 2.84742 0
M  V30 2569 H 239.094 1.82568 2.55593 0
M  V30 2570 H 238.287 4.19482 2.79375 0
M  V30 2571 H 237.889 3.54714 1.1855 0
M  V30 2572 H 240.181 5.92753 3.281 0
M  V30 2573 H 241.124 6.78625 2.02171 0
M  V30 2574 H 241.532 5.09392 2.43269 0
M  V30 2575 N 240.93 -0.123565 1.57115 0
M  V30 2576 C 242.155 -0.850398 1.89164 0
M  V30 2577 C 242.58 -1.7286 0.741688 0
M  V30 2578 O 241.938 -1.78665 -0.307958 0
M  V30 2579 C 241.986 -1.66353 3.19936 0
M  V30 2580 O 241.09 -2.77004 3.0552 0
M  V30 2581 H 240.431 -0.235454 0.620852 0
M  V30 2582 H 242.961 -0.107335 2.04318 0
M  V30 2583 H 242.971 -2.05372 3.52543 0
M  V30 2584 H 241.646 -1.01881 4.03228 0
M  V30 2585 H 240.223 -2.41221 2.84371 0
M  V30 2586 N 242.408 -1.52605 -0.393616 0
M  V30 2587 C 243.341 -1.71798 -1.50202 0
M  V30 2588 C 244.319 -0.565743 -1.52441 0
M  V30 2589 O 245.503 -0.794987 -1.70916 0
M  V30 2590 C 242.63 -1.7714 -2.88685 0
M  V30 2591 C 241.676 -2.98845 -3.04292 0
M  V30 2592 S 242.509 -4.58909 -2.75976 0
M  V30 2593 C 243.665 -4.6706 -4.1666 0
M  V30 2594 H 243.898 -2.65542 -1.33696 0
M  V30 2595 H 241.431 -1.42839 -0.586195 0
M  V30 2596 H 243.389 -1.80903 -3.68489 0
M  V30 2597 H 242.05 -0.844969 -3.02521 0
M  V30 2598 H 241.243 -2.99111 -4.05646 0
M  V30 2599 H 240.845 -2.9305 -2.32374 0
M  V30 2600 H 243.137 -4.45391 -5.10523 0
M  V30 2601 H 244.08 -5.6905 -4.21412 0
M  V30 2602 H 244.488 -3.95944 -4.02354 0
M  V30 2603 N 243.887 0.651787 -1.4349 0
M  V30 2604 C 245.135 1.40888 -1.44897 0
M  V30 2605 C 245.456 1.94856 -0.0749086 0
M  V30 2606 O 244.726 1.74518 0.889956 0
M  V30 2607 H 243.306 0.522887 -0.533478 0
M  V30 2608 H 245.968 0.768609 -1.79104 0
M  V30 2609 H 245.064 2.25052 -2.16236 0
M  V30 2610 N 245.365 1.30045 0.890287 0
M  V30 2611 C 246.781 1.08261 1.17268 0
M  V30 2612 C 246.981 -0.160063 2.00863 0
M  V30 2613 O 246.037 -0.855181 2.37577 0
M  V30 2614 C 247.35 2.34323 1.8845 0
M  V30 2615 C 248.898 2.39735 2.01237 0
M  V30 2616 C 249.373 3.65625 2.7583 0
M  V30 2617 N 250.864 3.66402 2.83379 0
M  V30 2618 C 251.599 4.60498 3.41657 0
M  V30 2619 N 251.095 5.64933 4.01026 0
M  V30 2620 N 252.888 4.48051 3.39421 0
M  V30 2621 H 245.039 2.09777 0.332762 0
M  V30 2622 H 247.302 0.92446 0.209948 0
M  V30 2623 H 247.008 3.2498 1.34465 0
M  V30 2624 H 246.882 2.4256 2.88867 0
M  V30 2625 H 249.269 1.4956 2.54393 0
M  V30 2626 H 249.35 2.35476 0.999232 0
M  V30 2627 H 248.994 4.56156 2.23347 0
M  V30 2628 H 248.924 3.67144 3.77509 0
M  V30 2629 H 251.415 2.90896 2.41222 0
M  V30 2630 H 251.728 6.32841 4.43545 0
M  V30 2631 H 250.073 5.68732 3.99461 0
M  V30 2632 H 253.264 3.65649 2.92264 0
M  V30 2633 H 253.437 5.21565 3.84544 0
M  V30 2634 N 246.843 -1.10192 1.12674 0
M  V30 2635 C 247.776 -2.15847 0.740625 0
M  V30 2636 C 248.754 -1.60352 -0.269421 0
M  V30 2637 O 249.938 -1.87796 -0.16278 0
M  V30 2638 C 247.065 -3.38562 0.096641 0
M  V30 2639 C 246.111 -4.12758 1.07391 0
M  V30 2640 S 246.944 -4.67997 2.60267 0
M  V30 2641 C 248.1 -5.94021 1.97206 0
M  V30 2642 H 248.333 -2.48266 1.63558 0
M  V30 2643 H 245.866 -1.22019 0.946087 0
M  V30 2644 H 247.824 -4.09621 -0.268535 0
M  V30 2645 H 246.485 -3.04377 -0.775462 0
M  V30 2646 H 245.678 -5.00755 0.570997 0
M  V30 2647 H 245.28 -3.47523 1.38216 0
M  V30 2648 H 247.572 -6.64589 1.31634 0
M  V30 2649 H 248.515 -6.48979 2.83253 0
M  V30 2650 H 248.923 -5.46169 1.42686 0
M  V30 2651 N 248.321 -0.919034 -1.28029 0
M  V30 2652 C 249.737 -0.617972 -1.4715 0
M  V30 2653 C 249.937 0.835242 -1.83374 0
M  V30 2654 O 248.993 1.61388 -1.94191 0
M  V30 2655 C 250.306 -1.56041 -2.57044 0
M  V30 2656 C 251.854 -1.56769 -2.7091 0
M  V30 2657 C 252.329 -2.49688 -3.83953 0
M  V30 2658 N 253.82 -2.47845 -3.91314 0
M  V30 2659 C 254.555 -3.16437 -4.78179 0
M  V30 2660 N 254.051 -3.94376 -5.69596 0
M  V30 2661 N 255.844 -3.05498 -4.71834 0
M  V30 2662 H 247.995 -1.85866 -1.02798 0
M  V30 2663 H 250.258 -0.797506 -0.512531 0
M  V30 2664 H 249.964 -2.59671 -2.372 0
M  V30 2665 H 249.838 -1.29551 -3.54255 0
M  V30 2666 H 252.225 -0.538745 -2.90141 0
M  V30 2667 H 252.306 -1.87305 -1.74214 0
M  V30 2668 H 251.95 -3.52688 -3.65477 0
M  V30 2669 H 251.88 -2.16453 -4.80058 0
M  V30 2670 H 254.371 -1.91234 -3.25941 0
M  V30 2671 H 254.684 -4.43721 -6.32718 0
M  V30 2672 H 253.029 -3.98481 -5.69419 0
M  V30 2673 H 256.22 -2.44108 -3.99411 0
M  V30 2674 H 256.393 -3.59225 -5.39316 0
M  V30 2675 N 249.799 1.42003 -0.683588 0
M  V30 2676 C 251.047 2.01015 -0.209101 0
M  V30 2677 C 251.368 1.54365 1.19149 0
M  V30 2678 O 250.638 0.769083 1.80172 0
M  V30 2679 H 249.218 0.743294 -0.074315 0
M  V30 2680 H 251.88 1.73798 -0.882066 0
M  V30 2681 H 250.976 3.11343 -0.2172 0
M  V30 2682 N 251.277 0.427512 1.51691 0
M  V30 2683 C 252.523 -0.142439 2.02299 0
M  V30 2684 C 252.856 -1.43214 1.31162 0
M  V30 2685 O 252.131 -1.89833 0.423511 0
M  V30 2686 C 252.414 -0.371301 3.58181 0
M  V30 2687 C 252.267 0.936358 4.39946 0
M  V30 2688 C 253.586 -1.14542 4.24933 0
M  V30 2689 H 250.705 -0.0502937 0.735282 0
M  V30 2690 H 253.347 0.564584 1.81418 0
M  V30 2691 H 251.497 -0.973559 3.76104 0
M  V30 2692 H 253.169 1.57184 4.33694 0
M  V30 2693 H 251.412 1.5432 4.05423 0
M  V30 2694 H 252.083 0.730388 5.47147 0
M  V30 2695 H 254.559 -0.635362 4.11221 0
M  V30 2696 H 253.435 -1.27431 5.33903 0
M  V30 2697 H 253.696 -2.17093 3.85127 0
M  V30 2698 N 252.755 -1.56801 0.158532 0
M  V30 2699 C 254.171 -1.5837 -0.197774 0
M  V30 2700 C 254.371 -1.17334 -1.63814 0
M  V30 2701 O 253.427 -0.878988 -2.36707 0
M  V30 2702 C 254.74 -3.00615 0.0714459 0
M  V30 2703 C 256.288 -3.12999 0.00864533 0
M  V30 2704 C 256.763 -4.57313 0.250685 0
M  V30 2705 N 258.254 -4.62777 0.198014 0
M  V30 2706 C 258.989 -5.72271 0.359642 0
M  V30 2707 N 258.485 -6.90371 0.579625 0
M  V30 2708 N 260.278 -5.61318 0.296438 0
M  V30 2709 H 252.429 -1.81765 1.09887 0
M  V30 2710 H 254.692 -0.841849 0.435884 0
M  V30 2711 H 254.398 -3.35068 1.06874 0
M  V30 2712 H 254.272 -3.71683 -0.642757 0
M  V30 2713 H 256.659 -2.7838 -0.979217 0
M  V30 2714 H 256.74 -2.44393 0.755359 0
M  V30 2715 H 256.384 -4.92639 1.2357 0
M  V30 2716 H 256.314 -5.24061 -0.516489 0
M  V30 2717 H 258.805 -3.77885 0.0331115 0
M  V30 2718 H 259.118 -7.69689 0.69275 0
M  V30 2719 H 257.463 -6.92264 0.616087 0
M  V30 2720 H 260.654 -4.67932 0.125258 0
M  V30 2721 H 260.827 -6.46599 0.425831 0
M  V30 2722 N 254.233 0.115231 -1.57178 0
M  V30 2723 C 255.479 0.818565 -1.86202 0
M  V30 2724 C 255.834 1.77316 -0.746785 0
M  V30 2725 O 255.127 1.89923 0.25291 0
M  V30 2726 C 255.321 1.60324 -3.19423 0
M  V30 2727 C 255.15 0.726138 -4.43799 0
M  V30 2728 C 253.92 0.379535 -5.03873 0
M  V30 2729 C 256.118 0.0420774 -5.14283 0
M  V30 2730 N 254.1 -0.507841 -6.11796 0
M  V30 2731 C 255.471 -0.704152 -6.15988 0
M  V30 2732 C 257.526 -0.0339486 -4.97888 0
M  V30 2733 C 256.229 -1.51927 -7.03072 0
M  V30 2734 C 258.255 -0.835906 -5.85463 0
M  V30 2735 C 257.617 -1.57031 -6.86673 0
M  V30 2736 H 253.716 0.276343 -0.731545 0
M  V30 2737 H 256.3 0.0821032 -1.94527 0
M  V30 2738 H 254.471 2.31072 -3.12186 0
M  V30 2739 H 256.203 2.2522 -3.36241 0
M  V30 2740 H 252.958 0.722634 -4.68054 0
M  V30 2741 H 253.382 -0.94349 -6.70393 0
M  V30 2742 H 258.024 0.519496 -4.19596 0
M  V30 2743 H 255.742 -2.08386 -7.80769 0
M  V30 2744 H 259.328 -0.89714 -5.74841 0
M  V30 2745 H 258.208 -2.18088 -7.53264 0
M  V30 2746 N 255.711 1.52812 0.385517 0
M  V30 2747 C 256.674 1.77188 1.45386 0
M  V30 2748 C 257.674 0.641953 1.4743 0
M  V30 2749 O 258.864 0.910033 1.4854 0
M  V30 2750 C 255.996 1.87582 2.8465 0
M  V30 2751 H 257.189 2.72583 1.25054 0
M  V30 2752 H 254.742 1.43586 0.617467 0
M  V30 2753 H 255.477 0.941849 3.10322 0
M  V30 2754 H 255.262 2.69748 2.84567 0
M  V30 2755 H 256.752 2.08102 3.62054 0
M  V30 2756 N 257.189 -0.644168 1.43834 0
M  V30 2757 C 258.136 -1.75671 1.49694 0
M  V30 2758 C 259.106 -1.6246 0.345809 0
M  V30 2759 O 260.291 -1.82573 0.554234 0
M  V30 2760 C 257.431 -3.13867 1.43463 0
M  V30 2761 C 256.544 -3.38147 2.6885 0
M  V30 2762 C 255.679 -4.66241 2.54544 0
M  V30 2763 C 254.718 -4.83657 3.75157 0
M  V30 2764 N 253.855 -6.03016 3.59605 0
M  V30 2765 H 258.695 -1.69998 2.44754 0
M  V30 2766 H 256.232 -0.829458 1.21484 0
M  V30 2767 H 258.19 -3.9377 1.37843 0
M  V30 2768 H 256.82 -3.18588 0.519783 0
M  V30 2769 H 255.872 -2.52276 2.84712 0
M  V30 2770 H 257.184 -3.46899 3.58417 0
M  V30 2771 H 256.338 -5.54285 2.46683 0
M  V30 2772 H 255.077 -4.59826 1.62516 0
M  V30 2773 H 254.082 -3.94046 3.83416 0
M  V30 2774 H 255.307 -4.91896 4.68204 0
M  V30 2775 H 253.253 -5.97715 2.7032 0
M  V30 2776 H 253.17 -6.12766 4.42779 0
M  V30 2777 H 254.438 -6.93657 3.55613 0
M  V30 2778 N 258.668 -1.30515 -0.883378 0
M  V30 2779 C 259.598 -1.19607 -2.00541 0
M  V30 2780 C 260.579 -0.086346 -1.69881 0
M  V30 2781 O 261.764 -0.268654 -1.92333 0
M  V30 2782 C 258.894 -0.888758 -3.35736 0
M  V30 2783 C 257.848 -1.95659 -3.8066 0
M  V30 2784 C 257.174 -1.50224 -5.13164 0
M  V30 2785 C 258.474 -3.36788 -3.99213 0
M  V30 2786 H 260.168 -2.13476 -2.09925 0
M  V30 2787 H 257.714 -1.02775 -1.00863 0
M  V30 2788 H 259.667 -0.799094 -4.13754 0
M  V30 2789 H 258.391 0.0856125 -3.26488 0
M  V30 2790 H 257.05 -2.03591 -3.04871 0
M  V30 2791 H 256.698 -0.516092 -5.00345 0
M  V30 2792 H 256.398 -2.2165 -5.44192 0
M  V30 2793 H 257.922 -1.42639 -5.93706 0
M  V30 2794 H 259.336 -3.31605 -4.67665 0
M  V30 2795 H 257.733 -4.06314 -4.41621 0
M  V30 2796 H 258.803 -3.78561 -3.03017 0
M  V30 2797 N 260.146 1.09593 -1.13257 0
M  V30 2798 C 261.376 1.85231 -0.915049 0
M  V30 2799 C 261.784 1.81345 0.539498 0
M  V30 2800 O 261.127 1.20664 1.38513 0
M  V30 2801 C 261.189 3.34275 -1.3229 0
M  V30 2802 C 260.853 3.6191 -2.79052 0
M  V30 2803 C 261.85 3.57777 -3.77216 0
M  V30 2804 C 259.535 3.90309 -3.16171 0
M  V30 2805 C 261.529 3.81652 -5.1051 0
M  V30 2806 C 259.216 4.13839 -4.49644 0
M  V30 2807 C 260.214 4.09502 -5.46623 0
M  V30 2808 O 259.902 4.32426 -6.77689 0
M  V30 2809 H 259.634 0.591997 -0.326367 0
M  V30 2810 H 262.188 1.394 -1.50854 0
M  V30 2811 H 260.418 3.80805 -0.672667 0
M  V30 2812 H 262.107 3.9132 -1.07812 0
M  V30 2813 H 262.873 3.35865 -3.49885 0
M  V30 2814 H 258.752 3.92811 -2.41289 0
M  V30 2815 H 262.296 3.78182 -5.86195 0
M  V30 2816 H 258.193 4.35232 -4.767 0
M  V30 2817 H 258.961 4.49896 -6.83766 0
M  V30 2818 N 261.624 0.925811 1.2754 0
M  V30 2819 C 262.849 0.580924 1.99098 0
M  V30 2820 C 263.274 -0.833555 1.68622 0
M  V30 2821 O 262.632 -1.55903 0.925422 0
M  V30 2822 C 262.68 0.811186 3.51358 0
M  V30 2823 O 261.784 -0.124129 4.12213 0
M  V30 2824 H 261.125 0.223873 0.625122 0
M  V30 2825 H 263.655 1.24455 1.62395 0
M  V30 2826 H 263.665 0.72601 4.01489 0
M  V30 2827 H 262.34 1.84227 3.72872 0
M  V30 2828 H 260.917 0.0108006 3.72898 0
M  V30 2829 N 263.102 -1.41638 0.69111 0
M  V30 2830 C 264.032 -2.3347 0.037248 0
M  V30 2831 C 265.013 -1.51575 -0.771947 0
M  V30 2832 O 266.198 -1.80126 -0.72582 0
M  V30 2833 C 263.328 -3.35354 -0.903064 0
M  V30 2834 C 262.282 -4.27526 -0.201288 0
M  V30 2835 C 261.608 -5.19747 -1.25565 0
M  V30 2836 C 262.908 -5.13959 0.929689 0
M  V30 2837 H 264.602 -2.88397 0.804227 0
M  V30 2838 H 262.148 -1.38669 0.388189 0
M  V30 2839 H 264.101 -3.98519 -1.36969 0
M  V30 2840 H 262.825 -2.78767 -1.70166 0
M  V30 2841 H 261.484 -3.65779 0.245265 0
M  V30 2842 H 261.132 -4.59479 -2.04666 0
M  V30 2843 H 260.832 -5.8225 -0.791128 0
M  V30 2844 H 262.356 -5.85789 -1.72288 0
M  V30 2845 H 263.77 -5.70718 0.543546 0
M  V30 2846 H 262.167 -5.85379 1.32103 0
M  V30 2847 H 263.237 -4.51389 1.77133 0
M  V30 2848 N 264.58 -0.43555 -1.51462 0
M  V30 2849 C 265.826 0.131709 -2.02372 0
M  V30 2850 C 266.159 1.42516 -1.3192 0
M  V30 2851 O 265.434 1.89606 -0.433573 0
M  V30 2852 C 265.717 0.352301 -3.58373 0
M  V30 2853 C 265.57 -0.959676 -4.39443 0
M  V30 2854 C 266.889 1.12286 -4.25535 0
M  V30 2855 H 264.008 0.0463936 -0.735538 0
M  V30 2856 H 266.65 -0.574197 -1.81116 0
M  V30 2857 H 264.8 0.9536 -3.76615 0
M  V30 2858 H 266.472 -1.59482 -4.32855 0
M  V30 2859 H 264.715 -1.56468 -4.04599 0
M  V30 2860 H 265.386 -0.759394 -5.46752 0
M  V30 2861 H 267.862 0.613545 -4.11552 0
M  V30 2862 H 266.738 1.24598 -5.34571 0
M  V30 2863 H 266.999 2.15048 -3.86273 0
M  V30 2864 N 266.058 1.56714 -0.166846 0
M  V30 2865 C 267.307 1.95922 0.479318 0
M  V30 2866 C 267.62 1.05529 1.6469 0
M  V30 2867 O 268.826 1.34399 2.35901 0
M  V30 2868 C 267.282 3.48359 0.90412 0
M  V30 2869 C 266.89 4.47369 -0.237621 0
M  V30 2870 C 268.634 3.96394 1.51896 0
M  V30 2871 C 266.541 5.91039 0.206561 0
M  V30 2872 H 265.471 0.731495 0.18284 0
M  V30 2873 H 268.122 1.81728 -0.254363 0
M  V30 2874 H 266.504 3.57955 1.69365 0
M  V30 2875 H 267.678 4.49485 -1.01489 0
M  V30 2876 H 265.993 4.09366 -0.762128 0
M  V30 2877 H 268.59 5.01186 1.86325 0
M  V30 2878 H 268.933 3.39075 2.41524 0
M  V30 2879 H 269.466 3.89796 0.79395 0
M  V30 2880 H 266.205 6.52221 -0.654834 0
M  V30 2881 H 265.725 5.9224 0.949282 0
M  V30 2882 H 267.404 6.43707 0.651939 0
M  V30 2883 N 267.536 -0.106894 1.57237 0
M  V30 2884 C 268.782 -0.808678 1.86633 0
M  V30 2885 C 269.137 -1.76917 0.756178 0
M  V30 2886 O 268.43 -1.90055 -0.242834 0
M  V30 2887 C 268.624 -1.58628 3.20268 0
M  V30 2888 C 268.453 -0.702592 4.44178 0
M  V30 2889 C 267.223 -0.352808 5.04067 0
M  V30 2890 C 269.421 -0.0148031 5.14298 0
M  V30 2891 N 267.403 0.540279 6.11518 0
M  V30 2892 C 268.774 0.736809 6.15606 0
M  V30 2893 C 270.829 0.0603524 4.97863 0
M  V30 2894 C 269.532 1.55654 7.02257 0
M  V30 2895 C 271.558 0.866942 5.85011 0
M  V30 2896 C 270.92 1.60671 6.85831 0
M  V30 2897 H 267.019 -0.27246 0.733001 0
M  V30 2898 H 269.603 -0.0717858 1.94568 0
M  V30 2899 H 267.774 -2.29413 3.13408 0
M  V30 2900 H 269.506 -2.23434 3.3743 0
M  V30 2901 H 266.261 -0.697802 4.68431 0
M  V30 2902 H 266.685 0.979029 6.69884 0
M  V30 2903 H 271.327 -0.497236 4.19866 0
M  V30 2904 H 269.045 2.12524 7.79653 0
M  V30 2905 H 272.631 0.927612 5.74358 0
M  V30 2906 H 271.511 2.2208 7.52097 0
M  V30 2907 N 269.014 -1.53014 -0.377408 0
M  V30 2908 C 270.262 -1.6829 -1.11906 0
M  V30 2909 C 270.583 -0.431206 -1.90173 0
M  V30 2910 O 269.853 0.554595 -1.87886 0
M  V30 2911 H 268.433 -0.620371 -0.416112 0
M  V30 2912 H 271.095 -1.90167 -0.426893 0
M  V30 2913 H 270.191 -2.53862 -1.8155 0
M  V30 2914 N 270.492 0.636531 -1.44174 0
M  V30 2915 C 271.732 1.40781 -1.48189 0
M  V30 2916 C 272.096 1.91688 -0.10944 0
M  V30 2917 O 273.297 2.68789 -0.0242741 0
M  V30 2918 C 271.568 2.54575 -2.50851 0
M  V30 2919 S 273.127 3.4284 -2.73873 0
M  V30 2920 H 269.945 0.480345 -0.524204 0
M  V30 2921 H 272.547 0.737416 -1.81059 0
M  V30 2922 H 271.251 2.15478 -3.49281 0
M  V30 2923 H 270.782 3.26447 -2.19536 0
M  V30 2924 H 272.797 4.51846 -2.05059 0
M  V30 2925 N 271.97 1.30982 0.876444 0
M  V30 2926 C 273.198 1.23242 1.6619 0
M  V30 2927 C 273.613 -0.203345 1.87702 0
M  V30 2928 O 272.97 -1.13317 1.43057 0
M  V30 2929 C 273.021 1.96623 3.03351 0
M  V30 2930 O 272.742 3.34594 2.82804 0
M  V30 2931 C 274.243 1.95644 3.97792 0
M  V30 2932 H 271.463 0.426126 0.518322 0
M  V30 2933 H 274.007 1.7275 1.09442 0
M  V30 2934 H 272.162 1.50892 3.56806 0
M  V30 2935 H 272.576 3.71873 3.69879 0
M  V30 2936 H 274.05 2.51511 4.91372 0
M  V30 2937 H 274.527 0.937395 4.2908 0
M  V30 2938 H 275.133 2.41225 3.50272 0
M  V30 2939 N 273.449 -1.08991 1.13837 0
M  V30 2940 C 274.379 -2.17771 0.842507 0
M  V30 2941 C 275.36 -1.6892 -0.20001 0
M  V30 2942 O 276.545 -1.94113 -0.0579731 0
M  V30 2943 C 273.675 -3.4589 0.312644 0
M  V30 2944 C 272.629 -4.08099 1.28992 0
M  V30 2945 C 271.955 -5.31098 0.619623 0
M  V30 2946 C 273.255 -4.50077 2.65005 0
M  V30 2947 H 274.949 -2.42777 1.75213 0
M  V30 2948 H 272.495 -1.16682 0.843875 0
M  V30 2949 H 274.448 -4.21297 0.0933043 0
M  V30 2950 H 273.172 -3.20419 -0.632382 0
M  V30 2951 H 271.831 -3.34717 1.49533 0
M  V30 2952 H 271.479 -5.0191 -0.33102 0
M  V30 2953 H 271.179 -5.73674 1.27167 0
M  V30 2954 H 272.703 -6.09224 0.409669 0
M  V30 2955 H 274.117 -5.16688 2.48407 0
M  V30 2956 H 272.514 -5.03553 3.26427 0
M  V30 2957 H 273.584 -3.62257 3.22332 0
M  V30 2958 N 274.927 -0.932562 -1.27047 0
M  V30 2959 C 275.857 -0.452902 -2.29066 0
M  V30 2960 C 276.838 0.489338 -1.62909 0
M  V30 2961 O 278.023 0.393046 -1.90181 0
M  V30 2962 C 275.153 0.290698 -3.46081 0
M  V30 2963 C 274.107 -0.564168 -4.24265 0
M  V30 2964 C 273.433 0.308886 -5.33807 0
M  V30 2965 C 274.733 -1.83112 -4.89149 0
M  V30 2966 H 276.427 -1.30552 -2.69437 0
M  V30 2967 H 273.973 -0.629201 -1.29526 0
M  V30 2968 H 275.926 0.637233 -4.16554 0
M  V30 2969 H 274.65 1.17738 -3.0464 0
M  V30 2970 H 273.309 -0.893477 -3.55545 0
M  V30 2971 H 272.957 1.19467 -4.88607 0
M  V30 2972 H 272.657 -0.259633 -5.87026 0
M  V30 2973 H 274.181 0.650884 -6.07121 0
M  V30 2974 H 275.595 -1.55236 -5.51883 0
M  V30 2975 H 273.992 -2.34353 -5.52448 0
M  V30 2976 H 275.062 -2.54772 -4.12576 0
M  V30 2977 N 276.405 1.4127 -0.698611 0
M  V30 2978 C 277.335 2.33447 -0.049629 0
M  V30 2979 C 278.316 1.51982 0.763898 0
M  V30 2980 O 279.501 1.80509 0.716257 0
M  V30 2981 C 276.631 3.35828 0.885267 0
M  V30 2982 C 275.585 4.27627 0.178613 0
M  V30 2983 C 274.911 5.20406 1.22807 0
M  V30 2984 C 276.211 5.13459 -0.956933 0
M  V30 2985 H 277.905 2.87966 -0.81951 0
M  V30 2986 H 275.451 1.38461 -0.395538 0
M  V30 2987 H 277.404 3.9924 1.34854 0
M  V30 2988 H 276.128 2.79666 1.68685 0
M  V30 2989 H 274.787 3.65643 -0.26466 0
M  V30 2990 H 274.435 4.60558 2.02226 0
M  V30 2991 H 274.135 5.82661 0.760239 0
M  V30 2992 H 275.659 5.86695 1.69179 0
M  V30 2993 H 277.073 5.70421 -0.573805 0
M  V30 2994 H 275.47 5.8467 -1.35205 0
M  V30 2995 H 276.54 4.50443 -1.79524 0
M  V30 2996 N 277.883 0.443576 1.51229 0
M  V30 2997 C 279.108 -0.121648 2.07043 0
M  V30 2998 C 279.533 -1.35156 1.30823 0
M  V30 2999 O 278.891 -1.7793 0.347934 0
M  V30 3000 C 278.939 -0.41624 3.5819 0
M  V30 3001 O 278.043 -1.50163 3.8409 0
M  V30 3002 H 277.384 0.000871367 0.663999 0
M  V30 3003 H 279.914 0.626706 1.94765 0
M  V30 3004 H 279.924 -0.664867 4.02546 0
M  V30 3005 H 278.599 0.482653 4.1309 0
M  V30 3006 H 277.176 -1.24248 3.51592 0
M  V30 3007 N 279.361 -1.56624 0.175154 0
M  V30 3008 C 280.586 -2.01813 -0.478137 0
M  V30 3009 C 281.011 -1.05457 -1.55757 0
M  V30 3010 O 280.369 -0.0347439 -1.81267 0
M  V30 3011 C 280.417 -3.45581 -1.02987 0
M  V30 3012 O 279.521 -3.52305 -2.14371 0
M  V30 3013 H 278.862 -0.65413 -0.114059 0
M  V30 3014 H 281.392 -2.02673 0.280173 0
M  V30 3015 H 281.402 -3.84965 -1.35151 0
M  V30 3016 H 280.077 -4.1521 -0.239556 0
M  V30 3017 H 278.654 -3.24783 -1.83222 0
M  V30 3018 N 280.839 0.0985539 -1.57292 0
M  V30 3019 C 282.25 0.653457 -1.74891 0
M  V30 3020 C 282.601 1.7929 -0.796838 0
M  V30 3021 O 281.726 2.16385 0.0254886 0
M  V30 3022 C 282.321 1.19216 -3.17133 0
M  V30 3023 C 280.88 1.69316 -3.36168 0
M  V30 3024 C 280.027 0.601294 -2.70702 0
M  V30 3025 H 282.978 -0.127497 -1.58187 0
M  V30 3026 H 282.999 2.06154 -3.19814 0
M  V30 3027 H 282.511 0.362635 -3.86402 0
M  V30 3028 H 280.612 2.5468 -2.71972 0
M  V30 3029 H 280.725 1.78853 -4.44464 0
M  V30 3030 H 279.089 1.0399 -2.32504 0
M  V30 3031 H 279.872 -0.217592 -3.4261 0
M  V30 3032 N 282.317 1.53212 0.369288 0
M  V30 3033 C 283.25 1.74166 1.4745 0
M  V30 3034 C 284.228 0.589923 1.51521 0
M  V30 3035 O 285.412 0.822078 1.69629 0
M  V30 3036 C 282.539 1.81711 2.8583 0
M  V30 3037 C 281.585 3.03649 2.99499 0
M  V30 3038 S 282.418 4.63242 2.6864 0
M  V30 3039 C 283.574 4.7363 4.09177 0
M  V30 3040 H 283.807 2.67636 1.29454 0
M  V30 3041 H 281.34 1.43754 0.563396 0
M  V30 3042 H 283.298 1.86743 3.65564 0
M  V30 3043 H 281.959 0.89299 3.01139 0
M  V30 3044 H 281.152 3.05526 4.00836 0
M  V30 3045 H 280.754 2.9671 2.27683 0
M  V30 3046 H 283.046 4.53456 5.03372 0
M  V30 3047 H 283.989 5.75682 4.12306 0
M  V30 3048 H 284.397 4.02295 3.96004 0
M  V30 3049 N 283.795 -0.628877 1.44509 0
M  V30 3050 C 284.725 -1.75187 1.54376 0
M  V30 3051 C 285.706 -1.65411 0.396618 0
M  V30 3052 O 286.891 -1.84137 0.617031 0
M  V30 3053 C 284.021 -3.13725 1.48976 0
M  V30 3054 C 282.975 -3.38291 2.62189 0
M  V30 3055 C 282.301 -4.76883 2.41841 0
M  V30 3056 C 283.601 -3.30632 4.04326 0
M  V30 3057 H 285.295 -1.67187 2.48373 0
M  V30 3058 H 282.841 -0.802909 1.19538 0
M  V30 3059 H 284.794 -3.92064 1.54478 0
M  V30 3060 H 283.518 -3.22515 0.514961 0
M  V30 3061 H 282.177 -2.62334 2.56079 0
M  V30 3062 H 281.825 -4.82378 1.42548 0
M  V30 3063 H 281.525 -4.94278 3.17747 0
M  V30 3064 H 283.049 -5.57449 2.49165 0
M  V30 3065 H 284.463 -3.98873 4.11793 0
M  V30 3066 H 282.86 -3.59561 4.80454 0
M  V30 3067 H 283.93 -2.28404 4.27738 0
M  V30 3068 N 285.273 -1.31445 -0.869486 0
M  V30 3069 C 286.519 -1.21337 -1.62496 0
M  V30 3070 C 286.852 0.227872 -1.92858 0
M  V30 3071 O 286.127 1.16094 -1.56053 0
M  V30 3072 C 286.41 -2.05814 -2.95487 0
M  V30 3073 C 286.263 -3.5824 -2.72 0
M  V30 3074 C 287.582 -1.9079 -3.96594 0
M  V30 3075 H 284.701 -0.442135 -0.589649 0
M  V30 3076 H 287.343 -1.6124 -1.00507 0
M  V30 3077 H 285.493 -1.71913 -3.48394 0
M  V30 3078 H 287.165 -4.0228 -2.25762 0
M  V30 3079 H 285.408 -3.81647 -2.06224 0
M  V30 3080 H 286.079 -4.12657 -3.66631 0
M  V30 3081 H 288.555 -2.20459 -3.52898 0
M  V30 3082 H 287.431 -2.52199 -4.87531 0
M  V30 3083 H 287.692 -0.871341 -4.33428 0
M  V30 3084 N 286.751 1.08385 -1.14413 0
M  V30 3085 C 287.998 1.80776 -0.912482 0
M  V30 3086 C 288.326 1.86236 0.560934 0
M  V30 3087 O 287.581 1.33431 1.43159 0
M  V30 3088 C 287.88 3.26273 -1.45879 0
M  V30 3089 C 287.546 3.4093 -2.95089 0
M  V30 3090 C 286.208 3.44638 -3.35824 0
M  V30 3091 C 288.56 3.44591 -3.91033 0
M  V30 3092 C 285.888 3.49597 -4.71167 0
M  V30 3093 C 288.24 3.51086 -5.26233 0
M  V30 3094 C 286.904 3.53067 -5.6648 0
M  V30 3095 H 286.174 0.661507 -0.333901 0
M  V30 3096 H 288.821 1.27613 -1.42784 0
M  V30 3097 H 287.126 3.82146 -0.864376 0
M  V30 3098 H 288.823 3.80839 -1.2555 0
M  V30 3099 H 285.413 3.38736 -2.62594 0
M  V30 3100 H 289.597 3.40957 -3.60641 0
M  V30 3101 H 284.853 3.49424 -5.0171 0
M  V30 3102 H 289.027 3.52864 -6.00383 0
M  V30 3103 H 286.654 3.56662 -6.71339 0
M  V30 3104 N 288.23 0.939286 1.26551 0
M  V30 3105 C 289.646 0.641304 1.46149 0
M  V30 3106 C 289.846 -0.805964 1.84679 0
M  V30 3107 O 288.902 -1.58278 1.96734 0
M  V30 3108 C 290.215 1.6011 2.54529 0
M  V30 3109 C 291.763 1.6106 2.68382 0
M  V30 3110 C 292.238 2.55765 3.79932 0
M  V30 3111 N 293.729 2.5404 3.87322 0
M  V30 3112 C 294.464 3.24004 4.73085 0
M  V30 3113 N 293.96 4.03388 5.63249 0
M  V30 3114 N 295.753 3.12965 4.66914 0
M  V30 3115 H 287.904 1.87478 0.998285 0
M  V30 3116 H 290.167 0.805559 0.499779 0
M  V30 3117 H 289.873 2.63412 2.33039 0
M  V30 3118 H 289.747 1.35171 3.52149 0
M  V30 3119 H 292.134 0.584835 2.89247 0
M  V30 3120 H 292.215 1.90053 1.71212 0
M  V30 3121 H 291.859 3.58458 3.5982 0
M  V30 3122 H 291.789 2.24063 4.76554 0
M  V30 3123 H 294.28 1.96396 3.22858 0
M  V30 3124 H 294.593 4.5373 6.25579 0
M  V30 3125 H 292.938 4.07489 5.63008 0
M  V30 3126 H 296.129 2.50432 3.95476 0
M  V30 3127 H 296.302 3.67759 5.33533 0
M  V30 3128 N 289.708 -1.40897 0.706093 0
M  V30 3129 C 290.936 -2.05373 0.250887 0
M  V30 3130 C 291.351 -1.53172 -1.10381 0
M  V30 3131 O 290.708 -0.684305 -1.69185 0
M  V30 3132 C 290.759 -3.6088 0.211571 0
M  V30 3133 O 290.48 -4.11153 1.51276 0
M  V30 3134 C 291.981 -4.42517 -0.263346 0
M  V30 3135 H 289.201 -0.66115 0.114552 0
M  V30 3136 H 291.745 -1.80479 0.961635 0
M  V30 3137 H 289.9 -3.84777 -0.450073 0
M  V30 3138 H 290.314 -5.05279 1.40689 0
M  V30 3139 H 291.788 -5.51479 -0.239718 0
M  V30 3140 H 292.265 -4.19396 -1.30397 0
M  V30 3141 H 292.871 -4.23708 0.367677 0
M  V30 3142 N 291.186 -0.45159 -1.50991 0
M  V30 3143 C 292.119 0.398179 -2.24699 0
M  V30 3144 C 293.097 1.01276 -1.27208 0
M  V30 3145 O 294.281 1.05247 -1.56382 0
M  V30 3146 C 291.408 1.55618 -3.00833 0
M  V30 3147 C 290.454 1.0609 -4.13095 0
M  V30 3148 S 291.287 -0.00865136 -5.35499 0
M  V30 3149 C 292.443 1.15369 -6.15175 0
M  V30 3150 H 292.676 -0.227555 -2.96428 0
M  V30 3151 H 290.209 -0.236251 -1.52582 0
M  V30 3152 H 292.167 2.21997 -3.45293 0
M  V30 3153 H 290.828 2.15337 -2.28667 0
M  V30 3154 H 290.021 1.92726 -4.65696 0
M  V30 3155 H 289.623 0.47513 -3.7097 0
M  V30 3156 H 291.915 2.06925 -6.45126 0
M  V30 3157 H 292.858 0.667344 -7.04948 0
M  V30 3158 H 293.266 1.3987 -5.46897 0
M  V30 3159 N 292.664 1.56529 -0.183458 0
M  V30 3160 C 293.611 2.18546 0.742055 0
M  V30 3161 C 294.581 1.12912 1.2182 0
M  V30 3162 O 295.766 1.41115 1.28418 0
M  V30 3163 C 292.906 2.83977 1.96089 0
M  V30 3164 C 292.019 4.04105 1.52719 0
M  V30 3165 C 291.154 4.57427 2.70063 0
M  V30 3166 C 290.193 5.69938 2.23243 0
M  V30 3167 N 289.33 6.17717 3.33722 0
M  V30 3168 H 294.17 2.97284 0.206432 0
M  V30 3169 H 291.707 1.46823 0.0901571 0
M  V30 3170 H 293.665 3.20077 2.67594 0
M  V30 3171 H 292.295 2.07822 2.47002 0
M  V30 3172 H 291.347 3.73745 0.708436 0
M  V30 3173 H 292.659 4.85513 1.1436 0
M  V30 3174 H 291.813 4.95772 3.49708 0
M  V30 3175 H 290.552 3.75101 3.11689 0
M  V30 3176 H 289.557 5.31133 1.42048 0
M  V30 3177 H 290.782 6.54073 1.82661 0
M  V30 3178 H 288.728 5.38317 3.74902 0
M  V30 3179 H 288.645 6.94146 2.99495 0
M  V30 3180 H 289.913 6.60713 4.13616 0
M  V30 3181 N 294.142 -0.090211 1.57342 0
M  V30 3182 C 295.052 -1.12735 2.05738 0
M  V30 3183 C 296.068 -1.43557 0.983231 0
M  V30 3184 O 297.244 -1.54101 1.29672 0
M  V30 3185 C 294.309 -2.42659 2.47624 0
M  V30 3186 C 293.37 -2.18975 3.69254 0
M  V30 3187 C 292.603 -3.42704 4.09133 0
M  V30 3188 O 292.826 -4.51127 3.49057 0
M  V30 3189 O 291.76 -3.32003 5.02053 0
M  V30 3190 H 295.586 -0.746279 2.94388 0
M  V30 3191 H 293.171 -0.303064 1.46294 0
M  V30 3192 H 295.053 -3.19155 2.7517 0
M  V30 3193 H 293.728 -2.80182 1.62109 0
M  V30 3194 H 292.635 -1.40244 3.46818 0
M  V30 3195 H 293.968 -1.86342 4.55563 0
M  V30 3196 N 295.62 -1.53406 -0.361157 0
M  V30 3197 C 296.85 -1.73465 -1.1222 0
M  V30 3198 C 297.258 -0.465486 -1.83384 0
M  V30 3199 O 296.601 0.571611 -1.7458 0
M  V30 3200 C 296.663 -2.84834 -2.19339 0
M  V30 3201 C 296.327 -4.25038 -1.67903 0
M  V30 3202 C 297.324 -5.07231 -1.14074 0
M  V30 3203 C 295.009 -4.71464 -1.73282 0
M  V30 3204 C 297.003 -6.33942 -0.663068 0
M  V30 3205 C 294.69 -5.98153 -1.25127 0
M  V30 3206 C 295.688 -6.79223 -0.717296 0
M  V30 3207 O 295.376 -8.03533 -0.242865 0
M  V30 3208 H 295.108 -0.583526 -0.341283 0
M  V30 3209 H 297.662 -2.00964 -0.424591 0
M  V30 3210 H 295.892 -2.5282 -2.92607 0
M  V30 3211 H 297.581 -2.9303 -2.80871 0
M  V30 3212 H 298.347 -4.72534 -1.09254 0
M  V30 3213 H 294.226 -4.08432 -2.13786 0
M  V30 3214 H 297.77 -6.97167 -0.245612 0
M  V30 3215 H 293.667 -6.32347 -1.29642 0
M  V30 3216 H 294.435 -8.177 -0.361786 0
M  V30 3217 N 297.098 0.621204 -1.44841 0
M  V30 3218 C 298.323 1.41244 -1.51871 0
M  V30 3219 C 298.748 1.87519 -0.147764 0
M  V30 3220 O 298.106 1.59334 0.865 0
M  V30 3221 C 298.154 2.60221 -2.49634 0
M  V30 3222 O 297.258 3.60395 -2.00473 0
M  V30 3223 H 296.599 0.42223 -0.512463 0
M  V30 3224 H 299.129 0.757305 -1.90069 0
M  V30 3225 H 299.139 3.0764 -2.67996 0
M  V30 3226 H 297.814 2.25887 -3.4921 0
M  V30 3227 H 296.391 3.19717 -1.91925 0
M  V30 3228 N 298.576 1.31904 0.862503 0
M  V30 3229 C 299.853 1.12644 1.59908 0
M  V30 3230 C 300.233 -0.316104 2.0872 0
M  V30 3231 O 299.581 -1.31145 1.87118 0
M  V30 3232 C 299.791 2.1472 2.7513 0
M  V30 3233 C 301.139 2.47637 3.44907 0
M  V30 3234 O 302.163 2.13205 2.85346 0
M  V30 3235 O 301.022 3.06632 4.52371 0
M  V30 3236 H 298.116 0.43416 0.703871 0
M  V30 3237 H 300.662 1.43408 0.907314 0
M  V30 3238 H 299.434 3.1172 2.3653 0
M  V30 3239 H 299.057 1.84905 3.51989 0
M  V30 3240 N 300.054 -1.07777 1.14986 0
M  V30 3241 C 300.964 -2.18404 0.856546 0
M  V30 3242 C 301.98 -1.73211 -0.165485 0
M  V30 3243 O 303.156 -2.01399 0.00755219 0
M  V30 3244 C 300.221 -3.44977 0.34526 0
M  V30 3245 C 299.282 -4.0476 1.43065 0
M  V30 3246 C 298.515 -5.25291 0.943663 0
M  V30 3247 O 298.738 -5.70004 -0.212426 0
M  V30 3248 O 297.672 -5.76638 1.72547 0
M  V30 3249 H 301.498 -2.45978 1.78125 0
M  V30 3250 H 299.083 -1.17033 0.928631 0
M  V30 3251 H 300.965 -4.21348 0.0663671 0
M  V30 3252 H 299.64 -3.18965 -0.551631 0
M  V30 3253 H 298.547 -3.29949 1.76309 0
M  V30 3254 H 299.88 -4.35035 2.30229 0
M  V30 3255 N 301.532 -0.945985 -1.26051 0
M  V30 3256 C 302.78 -0.594941 -1.93145 0
M  V30 3257 C 303.101 0.86953 -1.7454 0
M  V30 3258 O 302.371 1.61838 -1.10387 0
M  V30 3259 H 300.951 -0.217044 -0.714773 0
M  V30 3260 H 303.613 -1.20235 -1.53393 0
M  V30 3261 H 302.709 -0.816835 -3.01221 0
M  V30 3262 N 303.011 1.40521 -0.713556 0
M  V30 3263 C 303.961 2.27971 -0.036165 0
M  V30 3264 C 304.945 1.43151 0.734623 0
M  V30 3265 O 306.137 1.66261 0.607158 0
M  V30 3266 C 303.266 3.31661 0.886331 0
M  V30 3267 C 302.352 4.23955 0.110836 0
M  V30 3268 N 302.743 4.97641 -0.904847 0
M  V30 3269 C 301.041 4.44674 0.343692 0
M  V30 3270 C 301.742 5.65322 -1.37064 0
M  V30 3271 N 300.718 5.39162 -0.693168 0
M  V30 3272 H 304.52 2.82384 -0.814645 0
M  V30 3273 H 302.034 1.52948 -0.545963 0
M  V30 3274 H 304.031 3.93154 1.38692 0
M  V30 3275 H 302.691 2.78808 1.66421 0
M  V30 3276 H 303.702 5.01689 -1.28563 0
M  V30 3277 H 300.379 4.02801 1.09805 0
M  V30 3278 H 301.769 6.34359 -2.21447 0
M  V30 3279 N 304.489 0.459591 1.5075 0
M  V30 3280 C 305.437 -0.354678 2.2988 0
M  V30 3281 C 306.431 -1.00086 1.36672 0
M  V30 3282 O 307.637 -0.933277 1.53915 0
M  V30 3283 H 304.012 -0.13321 0.740107 0
M  V30 3284 H 305.983 0.333269 2.96533 0
M  V30 3285 C 304.732 -1.43073 3.169 0
M  V30 3286 H 304.055 -0.942882 3.88523 0
M  V30 3287 H 305.495 -1.97328 3.75284 0
M  V30 3288 C 303.954 -2.42633 2.33732 0
M  V30 3289 O 304.484 -3.47658 2.01238 0
M  V30 3290 N 302.69 -2.14066 1.9653 0
M  V30 3291 H 302.237 -1.28685 2.23155 0
M  V30 3292 H 302.195 -2.80917 1.41185 0
M  V30 3293 N 305.967 -1.56429 0.191757 0
M  V30 3294 C 307.213 -1.97777 -0.448554 0
M  V30 3295 C 307.546 -1.07847 -1.61501 0
M  V30 3296 O 306.821 -0.129774 -1.94067 0
M  V30 3297 C 307.104 -3.48362 -0.911906 0
M  V30 3298 C 306.957 -4.4907 0.256136 0
M  V30 3299 C 308.276 -4.02561 -1.77857 0
M  V30 3300 H 305.395 -0.719071 -0.161572 0
M  V30 3301 H 308.037 -1.87896 0.282007 0
M  V30 3302 H 306.187 -3.56914 -1.53442 0
M  V30 3303 H 307.859 -4.5256 0.893733 0
M  V30 3304 H 306.102 -4.24181 0.908436 0
M  V30 3305 H 306.773 -5.51889 -0.11053 0
M  V30 3306 H 309.249 -3.96767 -1.25359 0
M  V30 3307 H 308.125 -5.08301 -2.07174 0
M  V30 3308 H 308.386 -3.47616 -2.73158 0
M  V30 3309 N 307.445 0.0818655 -1.57387 0
M  V30 3310 C 308.673 0.796108 -1.9097 0
M  V30 3311 C 309.088 1.71626 -0.786757 0
M  V30 3312 O 308.445 1.80908 0.240513 0
M  V30 3313 C 308.496 1.59829 -3.24248 0
M  V30 3314 O 308.217 0.715131 -4.32224 0
M  V30 3315 C 309.718 2.41442 -3.7178 0
M  V30 3316 H 306.938 0.22691 -0.631469 0
M  V30 3317 H 309.482 0.0551439 -2.04426 0
M  V30 3318 H 307.637 2.29163 -3.12351 0
M  V30 3319 H 308.051 1.27205 -5.08841 0
M  V30 3320 H 309.525 2.932 -4.67694 0
M  V30 3321 H 310.002 3.2051 -3.00283 0
M  V30 3322 H 310.608 1.77283 -3.86589 0
M  V30 3323 N 308.923 1.53595 0.353017 0
M  V30 3324 C 309.886 1.80232 1.41594 0
M  V30 3325 C 310.886 0.673081 1.46035 0
M  V30 3326 O 312.076 0.941335 1.46576 0
M  V30 3327 C 309.208 1.93578 2.80607 0
M  V30 3328 H 310.401 2.75174 1.19244 0
M  V30 3329 H 307.954 1.44864 0.586872 0
M  V30 3330 H 308.689 1.00746 3.08254 0
M  V30 3331 H 308.474 2.75724 2.78781 0
M  V30 3332 H 309.964 2.15735 3.57558 0
M  V30 3333 N 310.401 -0.613514 1.45168 0
M  V30 3334 C 311.641 -1.38405 1.5041 0
M  V30 3335 C 312.005 -1.91489 0.139922 0
M  V30 3336 O 313.206 -2.68716 0.067033 0
M  V30 3337 C 311.477 -2.50552 2.5487 0
M  V30 3338 S 313.036 -3.38439 2.79292 0
M  V30 3339 H 309.854 -0.471945 0.531779 0
M  V30 3340 H 312.456 -0.708518 1.82209 0
M  V30 3341 H 311.16 -2.09894 3.52665 0
M  V30 3342 H 310.691 -3.22913 2.24701 0
M  V30 3343 H 312.706 -4.48527 2.12222 0
M  V30 3344 N 311.879 -1.3236 -0.855495 0
M  V30 3345 C 313.125 -1.23054 -1.612 0
M  V30 3346 C 313.458 0.207404 -1.93089 0
M  V30 3347 O 312.733 1.14432 -1.57275 0
M  V30 3348 C 313.016 -2.08937 -2.93287 0
M  V30 3349 C 312.869 -3.61105 -2.68185 0
M  V30 3350 C 314.188 -1.94986 -3.94549 0
M  V30 3351 H 311.307 -0.448364 -0.584926 0
M  V30 3352 H 313.949 -1.62297 -0.987917 0
M  V30 3353 H 312.099 -1.75599 -3.46551 0
M  V30 3354 H 313.771 -4.04652 -2.21483 0
M  V30 3355 H 312.014 -3.83813 -2.02164 0
M  V30 3356 H 312.685 -4.16522 -3.62234 0
M  V30 3357 H 315.161 -2.24189 -3.5054 0
M  V30 3358 H 314.037 -2.57356 -4.84829 0
M  V30 3359 H 314.298 -0.917263 -4.3248 0
M  V30 3360 N 313.357 1.07166 -1.15556 0
M  V30 3361 C 314.606 1.79181 -0.926132 0
M  V30 3362 C 314.919 1.87768 0.547967 0
M  V30 3363 O 316.125 2.56323 0.895036 0
M  V30 3364 C 314.581 3.22 -1.60761 0
M  V30 3365 C 314.189 3.21607 -3.11886 0
M  V30 3366 C 315.933 3.9861 -1.4598 0
M  V30 3367 C 313.84 4.59092 -3.72812 0
M  V30 3368 H 312.77 0.67154 -0.342856 0
M  V30 3369 H 315.421 1.2027 -1.3859 0
M  V30 3370 H 313.803 3.81115 -1.07553 0
M  V30 3371 H 314.977 2.72127 -3.71865 0
M  V30 3372 H 313.292 2.58495 -3.2645 0
M  V30 3373 H 315.889 5.00225 -1.88888 0
M  V30 3374 H 316.232 4.143 -0.407541 0
M  V30 3375 H 316.765 3.45996 -1.96295 0
M  V30 3376 H 313.504 4.48606 -4.77946 0
M  V30 3377 H 313.024 5.08803 -3.17616 0
M  V30 3378 H 314.703 5.28059 -3.73848 0
M  V30 3379 N 314.835 0.952656 1.25548 0
M  V30 3380 C 316.06 0.623025 1.97821 0
M  V30 3381 C 316.485 -0.7976 1.70352 0
M  V30 3382 O 315.843 -1.53905 0.958283 0
M  V30 3383 C 315.891 0.885532 3.49558 0
M  V30 3384 O 314.995 -0.0366641 4.12384 0
M  V30 3385 H 314.336 0.237082 0.620232 0
M  V30 3386 H 316.866 1.27871 1.59719 0
M  V30 3387 H 316.876 0.811009 3.99858 0
M  V30 3388 H 315.551 1.92094 3.6888 0
M  V30 3389 H 314.128 0.0898954 3.72792 0
M  V30 3390 N 316.313 -1.40141 0.720998 0
M  V30 3391 C 317.543 -2.04798 0.27226 0
M  V30 3392 C 317.951 -1.54442 -1.09289 0
M  V30 3393 O 317.294 -0.698342 -1.69908 0
M  V30 3394 C 317.356 -3.59048 0.18027 0
M  V30 3395 C 317.02 -4.32317 1.48159 0
M  V30 3396 C 318.017 -4.59902 2.42458 0
M  V30 3397 C 315.702 -4.71125 1.74202 0
M  V30 3398 C 317.696 -5.25288 3.61042 0
M  V30 3399 C 315.383 -5.36242 2.93066 0
M  V30 3400 C 316.381 -5.63254 3.86308 0
M  V30 3401 O 316.069 -6.27024 5.03086 0
M  V30 3402 H 315.801 -0.665419 0.119139 0
M  V30 3403 H 318.355 -1.80436 0.981432 0
M  V30 3404 H 316.585 -3.82251 -0.58489 0
M  V30 3405 H 318.274 -4.05221 -0.234618 0
M  V30 3406 H 319.04 -4.30379 2.23604 0
M  V30 3407 H 314.919 -4.49466 1.02477 0
M  V30 3408 H 318.463 -5.46289 4.33837 0
M  V30 3409 H 314.36 -5.65185 3.11826 0
M  V30 3410 H 315.128 -6.4552 5.03235 0
M  V30 3411 N 317.792 -0.46758 -1.50504 0
M  V30 3412 C 319.203 -0.0116166 -1.86696 0
M  V30 3413 C 319.554 1.39202 -1.38265 0
M  V30 3414 O 318.679 2.0313 -0.746132 0
M  V30 3415 C 319.274 -0.0143044 -3.38797 0
M  V30 3416 C 317.833 0.386175 -3.74414 0
M  V30 3417 C 316.98 -0.401287 -2.74381 0
M  V30 3418 H 319.931 -0.682022 -1.43297 0
M  V30 3419 H 319.952 0.788641 -3.72237 0
M  V30 3420 H 319.464 -1.03602 -3.74016 0
M  V30 3421 H 317.565 1.41237 -3.44794 0
M  V30 3422 H 317.678 0.0899596 -4.79016 0
M  V30 3423 H 316.042 0.144536 -2.5429 0
M  V30 3424 H 316.825 -1.42244 -3.12444 0
M  V30 3425 N 319.27 1.56325 -0.20005 0
M  V30 3426 C 320.495 2.02548 0.44597 0
M  V30 3427 C 320.92 1.07922 1.5406 0
M  V30 3428 O 320.278 0.0635775 1.81188 0
M  V30 3429 C 320.326 3.47175 0.974761 0
M  V30 3430 O 319.43 3.55671 2.08739 0
M  V30 3431 H 318.771 0.655862 0.103638 0
M  V30 3432 H 321.301 2.02201 -0.312381 0
M  V30 3433 H 321.311 3.87067 1.2901 0
M  V30 3434 H 319.986 4.15538 0.17347 0
M  V30 3435 H 318.563 3.27657 1.78032 0
M  V30 3436 N 320.748 -0.0735177 1.57428 0
M  V30 3437 C 321.678 -1.0879 2.06608 0
M  V30 3438 C 322.659 -1.40473 0.959237 0
M  V30 3439 O 323.844 -1.5013 1.23185 0
M  V30 3440 C 320.974 -2.40183 2.50857 0
M  V30 3441 C 319.928 -2.22858 3.65402 0
M  V30 3442 C 319.254 -3.59619 3.957 0
M  V30 3443 C 320.554 -1.65123 4.95511 0
M  V30 3444 H 322.248 -0.678673 2.91607 0
M  V30 3445 H 319.794 -0.325013 1.40284 0
M  V30 3446 H 321.747 -3.11437 2.83874 0
M  V30 3447 H 320.471 -2.83083 1.62885 0
M  V30 3448 H 319.13 -1.54045 3.32664 0
M  V30 3449 H 318.778 -4.00086 3.04861 0
M  V30 3450 H 318.478 -3.48866 4.72828 0
M  V30 3451 H 320.002 -4.32306 4.31212 0
M  V30 3452 H 321.416 -2.26241 5.26771 0
M  V30 3453 H 319.813 -1.65071 5.7695 0
M  V30 3454 H 320.883 -0.612559 4.81015 0
M  V30 3455 N 322.226 -1.5378 -0.344866 0
M  V30 3456 C 323.475 -1.7018 -1.08267 0
M  V30 3457 C 323.788 -0.471 -1.89845 0
M  V30 3458 O 324.994 -0.515917 -2.66553 0
M  V30 3459 C 323.45 -3.00923 -1.97417 0
M  V30 3460 C 323.058 -4.31335 -1.21053 0
M  V30 3461 C 324.802 -3.26688 -2.71063 0
M  V30 3462 C 322.709 -5.53153 -2.09225 0
M  V30 3463 H 321.639 -0.634138 -0.407903 0
M  V30 3464 H 324.29 -1.8028 -0.342246 0
M  V30 3465 H 322.672 -2.84676 -2.75274 0
M  V30 3466 H 323.846 -4.58281 -0.481159 0
M  V30 3467 H 322.161 -4.12173 -0.591813 0
M  V30 3468 H 324.758 -4.1489 -3.37299 0
M  V30 3469 H 325.101 -2.43639 -3.37558 0
M  V30 3470 H 325.634 -3.43705 -2.0028 0
M  V30 3471 H 322.373 -6.38741 -1.47274 0
M  V30 3472 H 321.893 -5.30458 -2.79955 0
M  V30 3473 H 323.572 -5.88744 -2.68308 0
M  V30 3474 N 323.704 0.605807 -1.45491 0
M  V30 3475 C 324.95 1.36481 -1.50813 0
M  V30 3476 C 325.305 1.91826 -0.148469 0
M  V30 3477 O 324.598 1.72211 0.839869 0
M  V30 3478 C 324.792 2.53012 -2.52428 0
M  V30 3479 C 324.621 2.09078 -3.98141 0
M  V30 3480 C 323.391 1.95167 -4.66088 0
M  V30 3481 C 325.589 1.66438 -4.86624 0
M  V30 3482 N 323.571 1.45062 -5.96515 0
M  V30 3483 C 324.942 1.27761 -6.06694 0
M  V30 3484 C 326.997 1.54046 -4.7347 0
M  V30 3485 C 325.7 0.779286 -7.15066 0
M  V30 3486 C 327.726 1.05618 -5.81892 0
M  V30 3487 C 327.088 0.67906 -7.01119 0
M  V30 3488 H 323.187 0.493267 -0.606805 0
M  V30 3489 H 325.771 0.692347 -1.81974 0
M  V30 3490 H 323.942 3.17851 -2.23215 0
M  V30 3491 H 325.674 3.19897 -2.47887 0
M  V30 3492 H 322.429 2.16407 -4.21266 0
M  V30 3493 H 322.853 1.22237 -6.65873 0
M  V30 3494 H 327.495 1.81827 -3.81705 0
M  V30 3495 H 325.213 0.489026 -8.06619 0
M  V30 3496 H 328.799 0.964529 -5.73749 0
M  V30 3497 H 327.679 0.310091 -7.83587 0
M  V30 3498 N 325.182 1.32811 0.848464 0
M  V30 3499 C 326.092 1.24278 1.98978 0
M  V30 3500 C 327.108 0.155176 1.73307 0
M  V30 3501 O 328.284 0.376999 1.9784 0
M  V30 3502 C 325.349 0.972444 3.32783 0
M  V30 3503 C 324.41 2.14911 3.71634 0
M  V30 3504 C 323.643 1.89157 4.99054 0
M  V30 3505 O 323.866 0.837165 5.64223 0
M  V30 3506 O 322.8 2.75433 5.35183 0
M  V30 3507 H 326.626 2.20238 2.09115 0
M  V30 3508 H 324.211 1.12762 0.980052 0
M  V30 3509 H 326.093 0.838432 4.12975 0
M  V30 3510 H 324.768 0.043051 3.23671 0
M  V30 3511 H 323.675 2.33862 2.91992 0
M  V30 3512 H 325.008 3.06151 3.85399 0
M  V30 3513 N 326.66 -1.06551 1.16123 0
M  V30 3514 C 327.906 -1.79567 0.94252 0
M  V30 3515 C 328.239 -1.86869 -0.528547 0
M  V30 3516 O 327.514 -1.35838 -1.39206 0
M  V30 3517 C 327.797 -3.24195 1.56747 0
M  V30 3518 C 327.65 -3.24989 3.10969 0
M  V30 3519 C 328.969 -4.21678 1.25998 0
M  V30 3520 H 326.088 -0.651883 0.343828 0
M  V30 3521 H 328.73 -1.2463 1.43413 0
M  V30 3522 H 326.88 -3.71107 1.14942 0
M  V30 3523 H 328.552 -2.86258 3.61737 0
M  V30 3524 H 326.795 -2.63716 3.44436 0
M  V30 3525 H 327.466 -4.27005 3.49815 0
M  V30 3526 H 329.942 -3.83196 1.62174 0
M  V30 3527 H 328.818 -5.21146 1.7233 0
M  V30 3528 H 329.079 -4.4174 0.178367 0
M  V30 3529 N 328.138 -0.959301 -1.25041 0
M  V30 3530 C 329.385 -0.616611 -1.92884 0
M  V30 3531 C 329.713 0.847036 -1.75087 0
M  V30 3532 O 328.968 1.62374 -1.09239 0
M  V30 3533 C 329.267 -0.927136 -3.45165 0
M  V30 3534 C 328.933 -2.37757 -3.83122 0
M  V30 3535 C 327.595 -2.77402 -3.93194 0
M  V30 3536 C 329.947 -3.31929 -4.01836 0
M  V30 3537 C 327.275 -4.10277 -4.19392 0
M  V30 3538 C 329.627 -4.64423 -4.29528 0
M  V30 3539 C 328.291 -5.03857 -4.37818 0
M  V30 3540 H 327.561 -0.225634 -0.705812 0
M  V30 3541 H 330.208 -1.20921 -1.48493 0
M  V30 3542 H 328.513 -0.252195 -3.90987 0
M  V30 3543 H 330.21 -0.6405 -3.95852 0
M  V30 3544 H 326.8 -2.06013 -3.75841 0
M  V30 3545 H 330.984 -3.02488 -3.93465 0
M  V30 3546 H 326.24 -4.40467 -4.24027 0
M  V30 3547 H 330.414 -5.37369 -4.42953 0
M  V30 3548 H 328.041 -6.06843 -4.57871 0
M  V30 3549 N 329.616 1.39756 -0.72842 0
M  V30 3550 C 330.844 2.04948 -0.283528 0
M  V30 3551 C 331.259 1.54908 1.0793 0
M  V30 3552 O 330.616 0.711135 1.68075 0
M  V30 3553 C 330.667 3.60498 -0.268957 0
M  V30 3554 O 330.388 4.08695 -1.57798 0
M  V30 3555 C 331.889 4.4288 0.192912 0
M  V30 3556 H 329.109 0.659243 -0.125056 0
M  V30 3557 H 331.653 1.78927 -0.990226 0
M  V30 3558 H 329.808 3.85444 0.388801 0
M  V30 3559 H 330.222 5.02977 -1.48709 0
M  V30 3560 H 331.696 5.51791 0.151952 0
M  V30 3561 H 332.173 4.21418 1.23708 0
M  V30 3562 H 332.779 4.23069 -0.435039 0
M  V30 3563 N 331.094 0.475555 1.50254 0
M  V30 3564 C 332.042 -0.330276 2.30243 0
M  V30 3565 C 333.036 -0.986306 1.37726 0
M  V30 3566 O 334.242 -0.9169 1.54897 0
M  V30 3567 H 330.617 -0.125353 0.741479 0
M  V30 3568 H 332.588 0.364702 2.96163 0
M  V30 3569 C 331.337 -1.39704 3.18399 0
M  V30 3570 H 330.66 -0.901621 3.89501 0
M  V30 3571 H 332.1 -1.93336 3.77355 0
M  V30 3572 C 330.559 -2.4014 2.36293 0
M  V30 3573 O 331.089 -3.45504 2.04914 0
M  V30 3574 N 329.295 -2.1197 1.98789 0
M  V30 3575 H 328.842 -1.2631 2.24507 0
M  V30 3576 H 328.8 -2.79403 1.44157 0
M  V30 3577 N 332.573 -1.56217 0.208337 0
M  V30 3578 C 333.506 -2.15633 -0.746842 0
M  V30 3579 C 334.484 -1.09685 -1.20034 0
M  V30 3580 O 335.668 -1.3787 -1.28547 0
M  V30 3581 C 332.795 -2.72594 -2.01023 0
M  V30 3582 C 331.841 -3.91251 -1.69779 0
M  V30 3583 S 332.674 -5.28962 -0.834209 0
M  V30 3584 C 333.83 -5.89353 -2.10745 0
M  V30 3585 H 334.063 -2.96315 -0.241789 0
M  V30 3586 H 331.596 -1.54398 -0.00682183 0
M  V30 3587 H 333.554 -3.06053 -2.73572 0
M  V30 3588 H 332.215 -1.91929 -2.48641 0
M  V30 3589 H 331.408 -4.29562 -2.63614 0
M  V30 3590 H 331.01 -3.58869 -1.05303 0
M  V30 3591 H 333.302 -6.04522 -3.05875 0
M  V30 3592 H 334.245 -6.85661 -1.76845 0
M  V30 3593 H 334.653 -5.1807 -2.24196 0
M  V30 3594 N 334.051 0.0651679 -1.57465 0
M  V30 3595 C 334.981 1.07693 -2.07182 0
M  V30 3596 C 335.962 1.39962 -0.966673 0
M  V30 3597 O 337.147 1.49475 -1.2398 0
M  V30 3598 C 334.277 2.3885 -2.52127 0
M  V30 3599 C 333.231 2.20917 -3.66579 0
M  V30 3600 C 332.557 3.57515 -3.97601 0
M  V30 3601 C 333.857 1.62493 -4.9638 0
M  V30 3602 H 335.551 0.663199 -2.91962 0
M  V30 3603 H 333.097 0.317569 -1.40455 0
M  V30 3604 H 335.05 3.09928 -2.85522 0
M  V30 3605 H 333.774 2.82215 -1.64384 0
M  V30 3606 H 332.433 1.52279 -3.33477 0
M  V30 3607 H 332.081 3.98463 -3.06979 0
M  V30 3608 H 331.781 3.46353 -4.74672 0
M  V30 3609 H 333.305 4.30013 -4.33499 0
M  V30 3610 H 334.719 2.23445 -5.27963 0
M  V30 3611 H 333.116 1.62009 -5.77818 0
M  V30 3612 H 334.186 0.587041 -4.81333 0
M  V30 3613 N 335.529 1.53961 0.336706 0
M  V30 3614 C 336.459 1.85417 1.41925 0
M  V30 3615 C 337.44 0.709856 1.5458 0
M  V30 3616 O 338.625 0.962396 1.68676 0
M  V30 3617 C 335.755 2.06985 2.78881 0
M  V30 3618 C 334.709 3.22813 2.81026 0
M  V30 3619 C 334.035 3.29727 4.20932 0
M  V30 3620 C 335.335 4.60767 2.45949 0
M  V30 3621 H 337.029 2.76079 1.15848 0
M  V30 3622 H 334.575 1.32839 0.555859 0
M  V30 3623 H 336.528 2.27575 3.54665 0
M  V30 3624 H 335.252 1.13061 3.06406 0
M  V30 3625 H 333.911 3.0209 2.07695 0
M  V30 3626 H 333.559 2.33385 4.45579 0
M  V30 3627 H 333.259 4.07566 4.23277 0
M  V30 3628 H 334.783 3.52536 4.98549 0
M  V30 3629 H 336.197 4.81325 3.11446 0
M  V30 3630 H 334.594 5.4106 2.59566 0
M  V30 3631 H 335.664 4.6391 1.41122 0
M  V30 3632 N 337.007 -0.598083 1.45811 0
M  V30 3633 C 337.955 -1.72932 1.55555 0
M  V30 3634 C 338.949 -1.63984 0.424921 0
M  V30 3635 O 340.155 -1.69663 0.601205 0
M  V30 3636 H 336.53 -0.571489 0.488779 0
M  V30 3637 H 338.501 -1.61842 2.50699 0
M  V30 3638 C 337.25 -3.11318 1.54843 0
M  V30 3639 H 336.573 -3.18867 2.41172 0
M  V30 3640 H 338.013 -3.90274 1.65717 0
M  V30 3641 C 336.472 -3.3578 0.274427 0
M  V30 3642 O 337.002 -3.9654 -0.641778 0
M  V30 3643 N 335.208 -2.90119 0.167139 0
M  V30 3644 H 334.755 -2.40855 0.913596 0
M  V30 3645 H 334.713 -3.0686 -0.684435 0
M  V30 3646 N 338.485 -1.33259 -0.841409 0
M  V30 3647 C 339.731 -1.24757 -1.59886 0
M  V30 3648 C 340.064 0.186913 -1.93298 0
M  V30 3649 O 339.339 1.12757 -1.5848 0
M  V30 3650 C 339.622 -2.12036 -2.91055 0
M  V30 3651 C 339.475 -3.63929 -2.6434 0
M  V30 3652 C 340.794 -1.9916 -3.92458 0
M  V30 3653 H 337.913 -0.454542 -0.580138 0
M  V30 3654 H 340.555 -1.63335 -0.970647 0
M  V30 3655 H 338.705 -1.79265 -3.44669 0
M  V30 3656 H 340.377 -4.06978 -2.17178 0
M  V30 3657 H 338.62 -3.85935 -1.98082 0
M  V30 3658 H 339.291 -4.20341 -3.57796 0
M  V30 3659 H 341.767 -2.27895 -3.48143 0
M  V30 3660 H 340.643 -2.62484 -4.82072 0
M  V30 3661 H 340.904 -0.963082 -4.31482 0
M  V30 3662 N 339.963 1.05934 -1.16686 0
M  V30 3663 C 341.209 1.79065 -0.95203 0
M  V30 3664 C 341.542 1.87147 0.518629 0
M  V30 3665 O 340.817 1.36574 1.38484 0
M  V30 3666 C 341.1 3.23359 -1.58464 0
M  V30 3667 C 340.953 3.23336 -3.12689 0
M  V30 3668 C 342.272 4.21004 -1.28232 0
M  V30 3669 H 339.391 0.65005 -0.34728 0
M  V30 3670 H 342.033 1.23868 -1.44072 0
M  V30 3671 H 340.183 3.70493 -1.16908 0
M  V30 3672 H 341.855 2.84336 -3.6325 0
M  V30 3673 H 340.098 2.61886 -3.4583 0
M  V30 3674 H 340.769 4.25144 -3.52075 0
M  V30 3675 H 343.245 3.8233 -1.64203 0
M  V30 3676 H 342.121 5.20225 -1.75092 0
M  V30 3677 H 342.382 4.41639 -0.201791 0
M  V30 3678 N 341.441 0.965919 1.2453 0
M  V30 3679 C 342.689 0.625593 1.92174 0
M  V30 3680 C 343.01 -0.841652 1.75901 0
M  V30 3681 O 342.28 -1.60061 1.12948 0
M  V30 3682 H 340.86 0.228388 0.71123 0
M  V30 3683 H 343.522 1.2266 1.51461 0
M  V30 3684 H 342.618 0.864653 2.99884 0
M  V30 3685 N 342.919 -1.39368 0.735821 0
M  V30 3686 C 344.166 -2.00497 0.284123 0
M  V30 3687 C 344.494 -1.58387 -1.12889 0
M  V30 3688 O 343.749 -0.804359 -1.78406 0
M  V30 3689 C 344.048 -3.5583 0.334651 0
M  V30 3690 C 343.714 -4.17593 1.7008 0
M  V30 3691 C 342.376 -4.34176 2.07472 0
M  V30 3692 C 344.728 -4.51848 2.59775 0
M  V30 3693 C 342.056 -4.82304 3.34065 0
M  V30 3694 C 344.408 -5.01384 3.85741 0
M  V30 3695 C 343.072 -5.16175 4.23225 0
M  V30 3696 H 342.342 -0.73367 0.103968 0
M  V30 3697 H 344.989 -1.66683 0.942825 0
M  V30 3698 H 343.294 -3.89674 -0.407625 0
M  V30 3699 H 344.991 -4.00986 -0.0329927 0
M  V30 3700 H 341.581 -4.05087 1.40008 0
M  V30 3701 H 345.765 -4.38653 2.32157 0
M  V30 3702 H 341.021 -4.91941 3.63049 0
M  V30 3703 H 345.195 -5.26863 4.55399 0
M  V30 3704 H 342.822 -5.5323 5.21384 0
M  V30 3705 N 344.397 -0.483516 -1.5 0
M  V30 3706 C 345.327 0.293829 -2.31644 0
M  V30 3707 C 346.308 0.978864 -1.39112 0
M  V30 3708 O 347.493 0.973644 -1.68029 0
M  V30 3709 C 344.623 1.36897 -3.19181 0
M  V30 3710 C 343.577 0.804833 -4.20365 0
M  V30 3711 C 342.903 1.9792 -4.96721 0
M  V30 3712 C 344.203 -0.192313 -5.21946 0
M  V30 3713 H 345.897 -0.387616 -2.9688 0
M  V30 3714 H 343.443 -0.187856 -1.42769 0
M  V30 3715 H 345.396 1.92037 -3.751 0
M  V30 3716 H 344.12 2.07936 -2.51853 0
M  V30 3717 H 342.779 0.275319 -3.65565 0
M  V30 3718 H 342.427 2.67686 -4.25856 0
M  V30 3719 H 342.127 1.60789 -5.65173 0
M  V30 3720 H 343.651 2.53526 -5.55479 0
M  V30 3721 H 345.065 0.270333 -5.72662 0
M  V30 3722 H 343.462 -0.478543 -5.98189 0
M  V30 3723 H 344.532 -1.11409 -4.71928 0
M  V30 3724 N 345.875 1.56104 -0.216619 0
M  V30 3725 C 346.805 2.23063 0.690296 0
M  V30 3726 C 347.786 1.20072 1.20485 0
M  V30 3727 O 348.971 1.48643 1.24976 0
M  V30 3728 C 346.101 2.90672 1.90072 0
M  V30 3729 C 345.055 4.00092 1.5202 0
M  V30 3730 C 344.381 4.54972 2.80899 0
M  V30 3731 C 345.681 5.17398 0.71391 0
M  V30 3732 H 347.375 2.99109 0.132038 0
M  V30 3733 H 344.921 1.43866 0.0620664 0
M  V30 3734 H 346.874 3.36204 2.54057 0
M  V30 3735 H 345.598 2.12066 2.48386 0
M  V30 3736 H 344.257 3.55283 0.903839 0
M  V30 3737 H 343.905 3.73102 3.37348 0
M  V30 3738 H 343.605 5.28817 2.56176 0
M  V30 3739 H 345.129 5.0322 3.45836 0
M  V30 3740 H 346.543 5.59342 1.25735 0
M  V30 3741 H 344.94 5.97444 0.563951 0
M  V30 3742 H 346.01 4.84088 -0.280527 0
M  V30 3743 N 347.353 -0.0568162 1.57498 0
M  V30 3744 C 348.764 -0.606858 1.76562 0
M  V30 3745 C 349.115 -1.77114 0.844094 0
M  V30 3746 O 348.24 -2.16376 0.0318911 0
M  V30 3747 C 348.835 -1.10766 3.20182 0
M  V30 3748 C 347.394 -1.60344 3.40539 0
M  V30 3749 C 346.541 -0.529311 2.72201 0
M  V30 3750 H 349.492 0.169393 1.57793 0
M  V30 3751 H 349.513 -1.97602 3.25167 0
M  V30 3752 H 349.025 -0.26006 3.87228 0
M  V30 3753 H 347.126 -2.47379 2.78629 0
M  V30 3754 H 347.239 -1.67006 4.4905 0
M  V30 3755 H 345.603 -0.977893 2.35179 0
M  V30 3756 H 346.386 0.308352 3.41912 0
M  V30 3757 N 348.832 -1.54138 -0.328536 0
M  V30 3758 C 349.762 -1.86167 -1.40939 0
M  V30 3759 C 350.743 -0.718044 -1.54202 0
M  V30 3760 O 351.928 -0.971328 -1.68163 0
M  V30 3761 C 349.058 -2.08461 -2.77779 0
M  V30 3762 C 348.012 -3.24299 -2.7931 0
M  V30 3763 C 347.338 -3.31955 -4.19178 0
M  V30 3764 C 348.638 -4.62065 -2.43502 0
M  V30 3765 H 350.332 -2.76689 -1.14383 0
M  V30 3766 H 347.878 -1.33132 -0.548806 0
M  V30 3767 H 349.831 -2.29453 -3.53454 0
M  V30 3768 H 348.555 -1.14684 -3.05802 0
M  V30 3769 H 347.214 -3.03187 -2.0609 0
M  V30 3770 H 346.862 -2.35745 -4.44335 0
M  V30 3771 H 346.562 -4.09805 -4.2111 0
M  V30 3772 H 348.086 -3.55175 -4.96672 0
M  V30 3773 H 349.5 -4.8297 -3.08889 0
M  V30 3774 H 347.897 -5.42429 -2.56693 0
M  V30 3775 H 348.967 -4.64652 -1.38659 0
M  V30 3776 N 350.31 0.590341 -1.46126 0
M  V30 3777 C 351.535 1.37991 -1.54833 0
M  V30 3778 C 351.96 1.87163 -0.187506 0
M  V30 3779 O 351.318 1.61133 0.831008 0
M  V30 3780 C 351.366 2.54867 -2.55098 0
M  V30 3781 O 350.47 3.56061 -2.08073 0
M  V30 3782 H 349.811 0.411265 -0.521303 0
M  V30 3783 H 352.341 0.716819 -1.91632 0
M  V30 3784 H 352.351 3.01886 -2.74461 0
M  V30 3785 H 351.026 2.18429 -3.53923 0
M  V30 3786 H 349.603 3.15574 -1.98664 0
M  V30 3787 N 351.788 1.33704 0.83433 0
M  V30 3788 C 353.034 1.25603 1.59222 0
M  V30 3789 C 353.367 -0.176659 1.93395 0
M  V30 3790 O 352.642 -1.11915 1.59076 0
M  V30 3791 C 352.925 2.13576 2.89926 0
M  V30 3792 C 352.778 3.65326 2.62406 0
M  V30 3793 C 354.097 2.01238 3.91397 0
M  V30 3794 H 351.216 0.457613 0.577719 0
M  V30 3795 H 353.858 1.63848 0.961972 0
M  V30 3796 H 352.008 1.8109 3.43713 0
M  V30 3797 H 353.68 4.08124 2.15017 0
M  V30 3798 H 351.923 3.8698 1.96033 0
M  V30 3799 H 352.594 4.22232 3.55562 0
M  V30 3800 H 355.07 2.29738 3.46929 0
M  V30 3801 H 353.946 2.65036 4.80673 0
M  V30 3802 H 354.207 0.985951 4.30966 0
M  V30 3803 N 353.266 -1.05314 1.17247 0
M  V30 3804 C 354.515 -1.77685 0.954521 0
M  V30 3805 C 354.828 -1.88616 -0.518025 0
M  V30 3806 O 356.034 -2.57714 -0.854144 0
M  V30 3807 C 354.49 -3.19402 1.65863 0
M  V30 3808 C 354.098 -3.16605 3.16963 0
M  V30 3809 C 355.842 -3.96237 1.52303 0
M  V30 3810 C 353.749 -4.53103 3.80068 0
M  V30 3811 H 352.679 -0.666 0.353496 0
M  V30 3812 H 355.33 -1.1805 1.40486 0
M  V30 3813 H 353.712 -3.79355 1.13602 0
M  V30 3814 H 354.886 -2.66176 3.76148 0
M  V30 3815 H 353.201 -2.53268 3.30521 0
M  V30 3816 H 355.798 -4.97157 1.96822 0
M  V30 3817 H 356.141 -4.136 0.473401 0
M  V30 3818 H 356.674 -3.42829 2.01775 0
M  V30 3819 H 353.413 -4.40946 4.85023 0
M  V30 3820 H 352.933 -5.03686 3.2567 0
M  V30 3821 H 354.612 -5.22045 3.82202 0
M  V30 3822 N 354.744 -0.972509 -1.24016 0
M  V30 3823 C 355.972 -0.654803 -1.96265 0
M  V30 3824 C 356.387 0.776708 -1.72083 0
M  V30 3825 O 355.744 1.52171 -1.00748 0
M  V30 3826 C 355.795 -0.92592 -3.49441 0
M  V30 3827 O 355.516 -2.30116 -3.72798 0
M  V30 3828 C 357.017 -0.623068 -4.38899 0
M  V30 3829 H 354.237 -0.243907 -0.6251 0
M  V30 3830 H 356.781 -1.30175 -1.57717 0
M  V30 3831 H 354.936 -0.325108 -3.86033 0
M  V30 3832 H 355.35 -2.38483 -4.67147 0
M  V30 3833 H 356.824 -0.863189 -5.45209 0
M  V30 3834 H 357.301 0.442754 -4.36963 0
M  V30 3835 H 357.907 -1.204 -4.07902 0
M  V30 3836 N 356.222 1.38976 -0.743202 0
M  V30 3837 C 357.469 2.00343 -0.294752 0
M  V30 3838 C 357.797 1.58983 1.12047 0
M  V30 3839 O 357.052 0.813809 1.77977 0
M  V30 3840 C 357.351 3.55647 -0.353517 0
M  V30 3841 C 357.017 4.16685 -1.72292 0
M  V30 3842 C 355.679 4.3307 -2.09771 0
M  V30 3843 C 358.031 4.50464 -2.62168 0
M  V30 3844 C 355.359 4.80526 -3.36618 0
M  V30 3845 C 357.711 4.99332 -3.88395 0
M  V30 3846 C 356.375 5.13924 -4.25956 0
M  V30 3847 H 355.645 0.733108 -0.107857 0
M  V30 3848 H 358.292 1.6618 -0.951651 0
M  V30 3849 H 356.597 3.89884 0.386954 0
M  V30 3850 H 358.294 4.00998 0.0117269 0
M  V30 3851 H 354.884 4.04339 -1.42155 0
M  V30 3852 H 359.068 4.37416 -2.3448 0
M  V30 3853 H 354.324 4.90008 -3.65653 0
M  V30 3854 H 358.498 5.2444 -4.58187 0
M  V30 3855 H 356.125 5.50457 -5.2431 0
M  V30 3856 N 357.7 0.491464 1.49741 0
M  V30 3857 C 358.94 -0.0549118 2.04326 0
M  V30 3858 C 359.304 -1.35148 1.36378 0
M  V30 3859 O 360.505 -1.9815 1.81631 0
M  V30 3860 C 358.776 -0.213841 3.5676 0
M  V30 3861 S 360.335 -0.715839 4.32922 0
M  V30 3862 H 357.153 -0.00630513 0.710972 0
M  V30 3863 H 359.755 0.663257 1.83905 0
M  V30 3864 H 358.459 0.73527 4.0376 0
M  V30 3865 H 357.99 -0.957529 3.81569 0
M  V30 3866 H 360.005 -1.9864 4.54705 0
M  V30 3867 N 359.178 -1.55987 0.224894 0
M  V30 3868 C 360.406 -2.02784 -0.410665 0
M  V30 3869 C 360.821 -1.10464 -1.53112 0
M  V30 3870 O 360.178 -0.114871 -1.82138 0
M  V30 3871 C 360.229 -3.49087 -0.939165 0
M  V30 3872 O 359.95 -4.37887 0.136614 0
M  V30 3873 C 361.451 -4.11543 -1.64763 0
M  V30 3874 H 358.671 -0.663484 -0.100148 0
M  V30 3875 H 361.215 -2.01614 0.342326 0
M  V30 3876 H 359.37 -3.50861 -1.64242 0
M  V30 3877 H 359.784 -5.23849 -0.261155 0
M  V30 3878 H 361.258 -5.15673 -1.96939 0
M  V30 3879 H 361.735 -3.56736 -2.56195 0
M  V30 3880 H 362.341 -4.13629 -0.989503 0
M  V30 3881 N 360.656 0.0484629 -1.57525 0
M  V30 3882 C 361.589 1.08755 -2.00618 0
M  V30 3883 C 362.567 1.36272 -0.887058 0
M  V30 3884 O 363.751 1.49255 -1.15131 0
M  V30 3885 C 360.878 2.42675 -2.36277 0
M  V30 3886 C 359.924 2.31142 -3.58435 0
M  V30 3887 S 360.757 1.68326 -5.08357 0
M  V30 3888 C 361.913 3.03776 -5.47239 0
M  V30 3889 H 362.146 0.720415 -2.88439 0
M  V30 3890 H 359.679 0.257801 -1.52233 0
M  V30 3891 H 361.637 3.19699 -2.57494 0
M  V30 3892 H 360.298 2.76541 -1.48942 0
M  V30 3893 H 359.491 3.29957 -3.80978 0
M  V30 3894 H 359.093 1.62258 -3.36969 0
M  V30 3895 H 361.385 4.00106 -5.46737 0
M  V30 3896 H 362.328 2.85988 -6.47778 0
M  V30 3897 H 362.736 3.05456 -4.74718 0
M  V30 3898 N 362.134 1.5431 0.320358 0
M  V30 3899 C 363.066 1.80262 1.41556 0
M  V30 3900 C 364.079 0.684723 1.477 0
M  V30 3901 O 365.268 0.961886 1.50366 0
M  V30 3902 C 362.368 1.90825 2.8007 0
M  V30 3903 C 361.541 3.21023 2.97091 0
M  V30 3904 C 360.6 3.22247 4.15985 0
M  V30 3905 O 359.626 3.95871 4.08992 0
M  V30 3906 N 360.828 2.46258 5.25678 0
M  V30 3907 H 363.593 2.74778 1.19655 0
M  V30 3908 H 361.154 1.53646 0.510358 0
M  V30 3909 H 363.146 1.89067 3.57821 0
M  V30 3910 H 361.716 1.03392 2.95006 0
M  V30 3911 H 360.936 3.35715 2.06614 0
M  V30 3912 H 362.224 4.0698 3.05361 0
M  V30 3913 H 361.622 1.86037 5.34235 0
M  V30 3914 H 360.179 2.50275 6.01835 0
M  V30 3915 N 363.613 -0.582584 1.46437 0
M  V30 3916 C 364.862 -1.337 1.5102 0
M  V30 3917 C 365.175 -1.94891 0.166359 0
M  V30 3918 O 366.381 -2.71351 0.0899954 0
M  V30 3919 C 364.837 -2.42315 2.66104 0
M  V30 3920 C 364.445 -1.87427 4.06909 0
M  V30 3921 C 366.189 -3.19099 2.79958 0
M  V30 3922 C 364.096 -2.93672 5.13333 0
M  V30 3923 H 363.026 -0.502619 0.562041 0
M  V30 3924 H 365.677 -0.621701 1.72647 0
M  V30 3925 H 364.059 -3.16645 2.37807 0
M  V30 3926 H 365.233 -1.19639 4.44998 0
M  V30 3927 H 363.548 -1.2331 3.97723 0
M  V30 3928 H 366.145 -3.9839 3.56636 0
M  V30 3929 H 366.488 -3.71695 1.87479 0
M  V30 3930 H 367.021 -2.51875 3.07902 0
M  V30 3931 H 363.76 -2.45962 6.07604 0
M  V30 3932 H 363.28 -3.59948 4.79789 0
M  V30 3933 H 364.959 -3.5762 5.39182 0
M  V30 3934 N 365.091 -1.34144 -0.827227 0
M  V30 3935 C 366.024 -1.19707 -1.94282 0
M  V30 3936 C 367.002 -0.0897256 -1.62352 0
M  V30 3937 O 368.186 -0.254095 -1.8678 0
M  V30 3938 C 365.313 -0.838646 -3.28153 0
M  V30 3939 C 364.359 -1.95514 -3.79047 0
M  V30 3940 S 365.192 -3.56793 -3.99323 0
M  V30 3941 C 366.348 -3.22983 -5.36127 0
M  V30 3942 H 366.581 -2.1414 -2.06231 0
M  V30 3943 H 364.114 -1.19121 -0.982321 0
M  V30 3944 H 366.072 -0.638637 -4.05502 0
M  V30 3945 H 364.733 0.0872776 -3.13979 0
M  V30 3946 H 363.926 -1.658 -4.75948 0
M  V30 3947 H 363.528 -2.11241 -3.08631 0
M  V30 3948 H 365.82 -2.74531 -6.19386 0
M  V30 3949 H 366.763 -4.19008 -5.70822 0
M  V30 3950 H 367.171 -2.59276 -5.01434 0
M  V30 3951 N 366.569 1.04691 -1.17803 0
M  V30 3952 C 367.501 2.12571 -0.857097 0
M  V30 3953 C 368.514 1.62174 0.142647 0
M  V30 3954 O 369.703 1.78301 -0.0843387 0
M  V30 3955 C 366.803 3.37915 -0.258216 0
M  V30 3956 C 365.976 4.1757 -1.30207 0
M  V30 3957 C 365.035 5.2125 -0.720029 0
M  V30 3958 O 364.061 5.51888 -1.39314 0
M  V30 3959 N 365.263 5.78466 0.485507 0
M  V30 3960 H 368.028 2.40698 -1.78562 0
M  V30 3961 H 365.589 1.20831 -1.07757 0
M  V30 3962 H 367.581 4.04442 0.144584 0
M  V30 3963 H 366.151 3.07281 0.574199 0
M  V30 3964 H 365.371 3.46458 -1.88043 0
M  V30 3965 H 366.659 4.67586 -2.00601 0
M  V30 3966 H 366.057 5.55866 1.05022 0
M  V30 3967 H 364.614 6.4649 0.830307 0
M  V30 3968 N 368.047 0.979072 1.23499 0
M  V30 3969 C 369.293 0.648178 1.92163 0
M  V30 3970 C 369.626 -0.816049 1.76222 0
M  V30 3971 O 368.901 -1.58849 1.12237 0
M  V30 3972 C 369.184 1.03773 3.44824 0
M  V30 3973 C 369.037 2.55948 3.69879 0
M  V30 3974 C 370.356 0.580653 4.36253 0
M  V30 3975 H 367.475 0.236952 0.69787 0
M  V30 3976 H 370.117 1.22012 1.45647 0
M  V30 3977 H 368.267 0.551058 3.84572 0
M  V30 3978 H 369.939 3.12179 3.3962 0
M  V30 3979 H 368.182 2.98641 3.14636 0
M  V30 3980 H 368.853 2.78255 4.76737 0
M  V30 3981 H 371.329 0.998465 4.03943 0
M  V30 3982 H 370.205 0.881663 5.41773 0
M  V30 3983 H 370.466 -0.519052 4.39042 0
M  V30 3984 N 369.525 -1.3858 0.750561 0
M  V30 3985 C 370.455 -2.33102 0.136237 0
M  V30 3986 C 371.436 -1.54713 -0.706965 0
M  V30 3987 O 372.621 -1.83043 -0.648769 0
M  V30 3988 C 369.751 -3.38882 -0.760017 0
M  V30 3989 C 368.705 -4.27995 -0.0197785 0
M  V30 3990 C 368.031 -5.24605 -1.03408 0
M  V30 3991 C 369.331 -5.09554 1.14684 0
M  V30 3992 H 371.025 -2.84726 0.925822 0
M  V30 3993 H 368.571 -1.36898 0.446654 0
M  V30 3994 H 370.524 -4.0397 -1.19943 0
M  V30 3995 H 369.248 -2.85734 -1.58189 0
M  V30 3996 H 367.907 -3.64409 0.400184 0
M  V30 3997 H 367.555 -4.67746 -1.84994 0
M  V30 3998 H 367.255 -5.85081 -0.543464 0
M  V30 3999 H 368.779 -5.9257 -1.47288 0
M  V30 4000 H 370.193 -5.67899 0.785118 0
M  V30 4001 H 368.59 -5.7925 1.56812 0
M  V30 4002 H 369.66 -4.4347 1.96118 0
M  V30 4003 N 371.003 -0.499398 -1.49478 0
M  V30 4004 C 372.419 -0.155261 -1.58843 0
M  V30 4005 C 372.619 1.34008 -1.50479 0
M  V30 4006 O 371.675 2.11589 -1.37791 0
M  V30 4007 C 372.988 -0.730636 -2.91689 0
M  V30 4008 C 374.536 -0.696599 -3.0515 0
M  V30 4009 C 375.011 -1.25001 -4.40612 0
M  V30 4010 N 376.502 -1.21064 -4.47099 0
M  V30 4011 C 377.237 -1.60905 -5.50361 0
M  V30 4012 N 376.733 -2.08331 -6.60735 0
M  V30 4013 N 378.526 -1.52331 -5.41065 0
M  V30 4014 H 370.677 -1.47162 -1.53158 0
M  V30 4015 H 372.94 -0.610309 -0.725415 0
M  V30 4016 H 372.646 -1.77928 -3.03372 0
M  V30 4017 H 372.52 -0.190161 -3.7672 0
M  V30 4018 H 374.907 0.343204 -2.93097 0
M  V30 4019 H 374.988 -1.2742 -2.21806 0
M  V30 4020 H 374.632 -2.28859 -4.53416 0
M  V30 4021 H 374.562 -0.64836 -5.22593 0
M  V30 4022 H 377.053 -0.863128 -3.67911 0
M  V30 4023 H 377.366 -2.36805 -7.35624 0
M  V30 4024 H 375.711 -2.12304 -6.6178 0
M  V30 4025 H 378.902 -1.151 -4.53729 0
M  V30 4026 H 379.075 -1.83704 -6.21415 0
M  V30 4027 N 372.481 1.55866 -0.233164 0
M  V30 4028 C 373.429 2.22176 0.68851 0
M  V30 4029 C 374.423 1.20487 1.19076 0
M  V30 4030 O 375.629 1.38536 1.14925 0
M  V30 4031 H 372.004 0.712511 0.240483 0
M  V30 4032 H 373.975 2.98212 0.105935 0
M  V30 4033 C 372.724 2.92446 1.88071 0
M  V30 4034 H 372.047 3.70458 1.50337 0
M  V30 4035 H 373.487 3.42226 2.50314 0
M  V30 4036 C 371.946 1.95555 2.74335 0
M  V30 4037 O 372.476 1.47986 3.73447 0
M  V30 4038 N 370.682 1.62953 2.40613 0
M  V30 4039 H 370.229 2.01831 1.60069 0
M  V30 4040 H 370.187 0.983886 2.98609 0
M  V30 4041 N 373.959 -0.0401083 1.57549 0
M  V30 4042 C 374.907 -1.06264 2.06908 0
M  V30 4043 C 375.901 -1.38132 0.980608 0
M  V30 4044 O 377.107 -1.37167 1.16556 0
M  V30 4045 H 373.482 -0.360166 0.660139 0
M  V30 4046 H 375.453 -0.620445 2.91878 0
M  V30 4047 C 374.202 -2.35846 2.55483 0
M  V30 4048 H 373.525 -2.12183 3.38849 0
M  V30 4049 H 374.965 -3.05765 2.93741 0
M  V30 4050 C 373.424 -3.0404 1.45126 0
M  V30 4051 O 373.954 -3.93424 0.811216 0
M  V30 4052 N 372.16 -2.65184 1.18852 0
M  V30 4053 H 371.707 -1.92584 1.71083 0
M  V30 4054 H 371.665 -3.1113 0.452244 0
M  V30 4055 N 375.437 -1.54477 -0.31217 0
M  V30 4056 C 376.347 -1.87695 -1.4074 0
M  V30 4057 C 377.363 -0.769975 -1.56036 0
M  V30 4058 O 378.539 -1.06537 -1.70915 0
M  V30 4059 C 375.604 -2.10755 -2.75287 0
M  V30 4060 C 374.665 -3.34514 -2.69071 0
M  V30 4061 C 373.898 -3.56465 -3.97201 0
M  V30 4062 O 374.121 -2.81637 -4.96021 0
M  V30 4063 O 373.055 -4.49964 -3.9977 0
M  V30 4064 H 376.881 -2.80849 -1.15574 0
M  V30 4065 H 374.466 -1.40526 -0.507228 0
M  V30 4066 H 376.348 -2.27188 -3.54913 0
M  V30 4067 H 375.023 -1.20788 -3.0032 0
M  V30 4068 H 373.93 -3.23456 -1.87955 0
M  V30 4069 H 375.263 -4.24575 -2.48992 0
M  V30 4070 N 376.915 0.57481 -1.46744 0
M  V30 4071 C 377.848 1.69827 -1.52427 0
M  V30 4072 C 378.826 1.58151 -0.377744 0
M  V30 4073 O 380.01 1.79257 -0.58303 0
M  V30 4074 C 377.137 3.07943 -1.41027 0
M  V30 4075 C 376.183 3.38116 -2.59961 0
M  V30 4076 S 377.016 3.29313 -4.22272 0
M  V30 4077 C 378.172 4.69953 -4.13394 0
M  V30 4078 H 378.405 1.64748 -2.47478 0
M  V30 4079 H 375.938 0.754203 -1.34726 0
M  V30 4080 H 377.896 3.87619 -1.35137 0
M  V30 4081 H 376.557 3.10504 -0.473909 0
M  V30 4082 H 375.75 4.38762 -2.47999 0
M  V30 4083 H 375.352 2.66024 -2.62882 0
M  V30 4084 H 377.644 5.60517 -3.80562 0
M  V30 4085 H 378.587 4.86972 -5.14066 0
M  V30 4086 H 378.995 4.47174 -3.44522 0
M  V30 4087 N 378.394 1.34581 0.820102 0
M  V30 4088 C 379.326 1.22236 1.93884 0
M  V30 4089 C 380.339 0.148776 1.62119 0
M  V30 4090 O 381.528 0.400877 1.7394 0
M  V30 4091 C 378.628 0.856542 3.27897 0
M  V30 4092 C 377.801 2.02569 3.87666 0
M  V30 4093 C 376.86 1.63782 5.00062 0
M  V30 4094 O 375.886 2.35477 5.18208 0
M  V30 4095 N 377.088 0.553611 5.77854 0
M  V30 4096 H 379.853 2.18615 2.05006 0
M  V30 4097 H 377.414 1.27573 0.99683 0
M  V30 4098 H 379.406 0.578806 4.0054 0
M  V30 4099 H 377.976 -0.0171518 3.12595 0
M  V30 4100 H 377.196 2.468 3.07382 0
M  V30 4101 H 378.484 2.80752 4.24329 0
M  V30 4102 H 377.882 -0.0423528 5.65684 0
M  V30 4103 H 376.439 0.335614 6.50935 0
M  V30 4104 N 379.872 -1.04064 1.18357 0
M  V30 4105 C 380.819 -2.12077 0.910603 0
M  V30 4106 C 381.789 -1.65421 -0.15 0
M  V30 4107 O 382.974 -1.90797 -0.0103614 0
M  V30 4108 C 380.114 -3.42252 0.442472 0
M  V30 4109 C 379.227 -4.0252 1.5685 0
M  V30 4110 C 378.362 -5.20657 1.05309 0
M  V30 4111 C 377.401 -5.72955 2.1538 0
M  V30 4112 N 376.538 -6.8238 1.65233 0
M  V30 4113 H 381.378 -2.34764 1.83548 0
M  V30 4114 H 378.915 -1.15157 0.915279 0
M  V30 4115 H 380.873 -4.16921 0.152534 0
M  V30 4116 H 379.503 -3.19712 -0.445428 0
M  V30 4117 H 378.555 -3.25178 1.97391 0
M  V30 4118 H 379.867 -4.37362 2.39824 0
M  V30 4119 H 379.021 -6.0244 0.717677 0
M  V30 4120 H 377.76 -4.87318 0.19293 0
M  V30 4121 H 376.765 -4.89793 2.49766 0
M  V30 4122 H 377.99 -6.08337 3.01832 0
M  V30 4123 H 375.936 -6.50917 0.815064 0
M  V30 4124 H 375.853 -7.16286 2.41805 0
M  V30 4125 H 377.121 -7.67788 1.34619 0
M  V30 4126 N 381.35 -0.985608 -1.22978 0
M  V30 4127 C 382.597 -0.657386 -1.91532 0
M  V30 4128 C 382.925 0.809707 -1.76845 0
M  V30 4129 O 382.18 1.60021 -1.12658 0
M  V30 4130 C 382.479 -1.00014 -3.43121 0
M  V30 4131 C 382.145 -2.4583 -3.77993 0
M  V30 4132 C 380.807 -2.85679 -3.87222 0
M  V30 4133 C 383.159 -3.40378 -3.94705 0
M  V30 4134 C 380.487 -4.19081 -4.10595 0
M  V30 4135 C 382.839 -4.73429 -4.1958 0
M  V30 4136 C 381.503 -5.1303 -4.27032 0
M  V30 4137 H 380.773 -0.240555 -0.700867 0
M  V30 4138 H 383.42 -1.24044 -1.45895 0
M  V30 4139 H 381.725 -0.335072 -3.90365 0
M  V30 4140 H 383.422 -0.724322 -3.94404 0
M  V30 4141 H 380.012 -2.13939 -3.71387 0
M  V30 4142 H 384.196 -3.10766 -3.8696 0
M  V30 4143 H 379.452 -4.49362 -4.14589 0
M  V30 4144 H 383.626 -5.46644 -4.31455 0
M  V30 4145 H 381.253 -6.16418 -4.44896 0
M  V30 4146 N 382.828 1.3818 -0.7579 0
M  V30 4147 C 383.775 2.30416 -0.133057 0
M  V30 4148 C 384.745 1.50398 0.704957 0
M  V30 4149 O 385.93 1.79014 0.660192 0
M  V30 4150 C 383.07 3.36834 0.750813 0
M  V30 4151 C 382.183 4.31879 -0.102297 0
M  V30 4152 C 381.318 5.25368 0.784979 0
M  V30 4153 C 380.357 6.12058 -0.0715046 0
M  V30 4154 N 379.494 6.97832 0.772972 0
M  V30 4155 H 384.334 2.83274 -0.925186 0
M  V30 4156 H 381.871 1.39461 -0.467866 0
M  V30 4157 H 383.829 3.97145 1.27794 0
M  V30 4158 H 382.459 2.85374 1.50868 0
M  V30 4159 H 381.511 3.72991 -0.747095 0
M  V30 4160 H 382.823 4.92921 -0.763552 0
M  V30 4161 H 381.977 5.90818 1.37911 0
M  V30 4162 H 380.716 4.64703 1.47996 0
M  V30 4163 H 379.721 5.456 -0.678272 0
M  V30 4164 H 380.946 6.74793 -0.763606 0
M  V30 4165 H 378.892 6.3971 1.45282 0
M  V30 4166 H 378.809 7.55812 0.168709 0
M  V30 4167 H 380.077 7.67687 1.35194 0
M  V30 4168 N 384.306 0.507319 1.49211 0
M  V30 4169 C 385.216 -0.272136 2.33016 0
M  V30 4170 C 386.232 -0.961206 1.45041 0
M  V30 4171 O 387.408 -0.941191 1.78055 0
M  V30 4172 C 384.473 -1.31895 3.20631 0
M  V30 4173 C 383.534 -0.642648 4.24463 0
M  V30 4174 C 382.767 -1.63959 5.07891 0
M  V30 4175 O 382.99 -2.87007 4.92933 0
M  V30 4176 O 381.924 -1.19143 5.8999 0
M  V30 4177 H 385.75 0.413982 3.00865 0
M  V30 4178 H 383.335 0.268556 1.46966 0
M  V30 4179 H 385.217 -1.92446 3.7489 0
M  V30 4180 H 383.892 -1.98788 2.5547 0
M  V30 4181 H 382.799 0.00276252 3.741 0
M  V30 4182 H 384.132 -0.0160534 4.92197 0
M  V30 4183 N 385.784 -1.5574 0.241426 0
M  V30 4184 C 387.033 -1.97986 -0.385295 0
M  V30 4185 C 387.346 -1.13267 -1.59468 0
M  V30 4186 O 388.552 -1.45501 -2.2922 0
M  V30 4187 C 387.008 -3.52275 -0.736884 0
M  V30 4188 C 386.616 -4.45726 0.450796 0
M  V30 4189 C 388.36 -4.03189 -1.3281 0
M  V30 4190 C 386.267 -5.91352 0.0756662 0
M  V30 4191 H 385.197 -0.739386 -0.147731 0
M  V30 4192 H 387.848 -1.80308 0.340779 0
M  V30 4193 H 386.23 -3.65628 -1.52094 0
M  V30 4194 H 387.404 -4.44131 1.22819 0
M  V30 4195 H 385.719 -4.05264 0.956573 0
M  V30 4196 H 388.316 -5.09505 -1.62201 0
M  V30 4197 H 388.659 -3.50212 -2.25071 0
M  V30 4198 H 389.192 -3.93141 -0.607069 0
M  V30 4199 H 385.931 -6.48354 0.965272 0
M  V30 4200 H 385.451 -5.96095 -0.665635 0
M  V30 4201 H 387.13 -6.46084 -0.344075 0
M  V30 4202 N 387.262 0.0317525 -1.57568 0
M  V30 4203 C 388.194 1.06073 -2.03178 0
M  V30 4204 C 389.207 1.32627 -0.944132 0
M  V30 4205 O 390.396 1.30162 -1.22148 0
M  V30 4206 C 387.496 2.40297 -2.38978 0
M  V30 4207 C 386.669 2.33137 -3.70089 0
M  V30 4208 C 385.728 3.49787 -3.9311 0
M  V30 4209 O 384.754 3.29403 -4.64201 0
M  V30 4210 N 385.956 4.71562 -3.38541 0
M  V30 4211 H 388.721 0.672006 -2.92069 0
M  V30 4212 H 386.282 0.219745 -1.60402 0
M  V30 4213 H 388.274 3.1705 -2.51518 0
M  V30 4214 H 386.844 2.71024 -1.55771 0
M  V30 4215 H 386.064 1.415 -3.67928 0
M  V30 4216 H 387.352 2.25493 -4.56104 0
M  V30 4217 H 386.75 4.91024 -2.80912 0
M  V30 4218 H 385.307 5.45689 -3.56464 0
M  V30 4219 N 388.74 1.54641 0.303973 0
M  V30 4220 C 389.968 1.77768 1.05858 0
M  V30 4221 C 390.383 0.535722 1.8104 0
M  V30 4222 O 389.74 -0.494337 1.75677 0
M  V30 4223 C 389.791 2.9834 2.04146 0
M  V30 4224 O 389.512 4.17736 1.32015 0
M  V30 4225 C 391.013 3.33832 2.91669 0
M  V30 4226 H 388.233 0.592961 0.314067 0
M  V30 4227 H 390.777 2.01583 0.344149 0
M  V30 4228 H 388.932 2.76742 2.71096 0
M  V30 4229 H 389.346 4.85693 1.97998 0
M  V30 4230 H 390.82 4.21448 3.56491 0
M  V30 4231 H 391.297 2.51857 3.59812 0
M  V30 4232 H 391.903 3.57579 2.30254 0
M  V30 4233 N 390.218 -0.567019 1.47046 0
M  V30 4234 C 391.128 -1.70247 1.6141 0
M  V30 4235 C 392.144 -1.66746 0.497157 0
M  V30 4236 O 393.32 -1.86371 0.763389 0
M  V30 4237 C 390.385 -3.06756 1.61561 0
M  V30 4238 C 389.446 -3.21399 2.84607 0
M  V30 4239 C 388.679 -4.51396 2.84741 0
M  V30 4240 O 388.902 -5.36255 1.94388 0
M  V30 4241 O 387.836 -4.69621 3.76483 0
M  V30 4242 H 391.662 -1.61073 2.57467 0
M  V30 4243 H 389.247 -0.735894 1.30019 0
M  V30 4244 H 391.129 -3.8801 1.64396 0
M  V30 4245 H 389.804 -3.16333 0.686684 0
M  V30 4246 H 388.711 -2.39579 2.8732 0
M  V30 4247 H 390.044 -3.16721 3.76761 0
M  V30 4248 N 391.696 -1.35014 -0.812953 0
M  V30 4249 C 393.112 -1.14914 -1.10757 0
M  V30 4250 C 393.312 0.0426818 -2.01455 0
M  V30 4251 O 392.368 0.715212 -2.42159 0
M  V30 4252 C 393.681 -2.44911 -1.74468 0
M  V30 4253 C 395.229 -2.5106 -1.86917 0
M  V30 4254 C 395.704 -3.81085 -2.54044 0
M  V30 4255 N 397.195 -3.82301 -2.61535 0
M  V30 4256 C 397.93 -4.79634 -3.14227 0
M  V30 4257 N 397.426 -5.87353 -3.67407 0
M  V30 4258 N 399.219 -4.67078 -3.12721 0
M  V30 4259 H 391.37 -2.1136 -0.20989 0
M  V30 4260 H 393.633 -0.935128 -0.155692 0
M  V30 4261 H 393.339 -3.32267 -1.15289 0
M  V30 4262 H 393.213 -2.58989 -2.74234 0
M  V30 4263 H 395.6 -1.64137 -2.45241 0
M  V30 4264 H 395.681 -2.40901 -0.860242 0
M  V30 4265 H 395.325 -4.68402 -1.96372 0
M  V30 4266 H 395.255 -3.88529 -3.55461 0
M  V30 4267 H 397.746 -3.04465 -2.23851 0
M  V30 4268 H 398.059 -6.57624 -4.05894 0
M  V30 4269 H 396.404 -5.91054 -3.65623 0
M  V30 4270 H 399.595 -3.82067 -2.70449 0
M  V30 4271 H 399.768 -5.43098 -3.53481 0
M  V30 4272 N 393.175 1.03435 -1.18907 0
M  V30 4273 C 394.591 1.28973 -0.940111 0
M  V30 4274 C 394.791 1.97676 0.390691 0
M  V30 4275 O 393.847 2.26127 1.12352 0
M  V30 4276 C 395.16 2.14221 -2.11021 0
M  V30 4277 C 396.708 2.27547 -2.14922 0
M  V30 4278 C 397.183 3.16164 -3.31367 0
M  V30 4279 N 398.674 3.23752 -3.31269 0
M  V30 4280 C 399.409 3.92495 -4.18014 0
M  V30 4281 N 398.905 4.63515 -5.14904 0
M  V30 4282 N 400.698 3.88838 -4.05908 0
M  V30 4283 H 392.849 0.57252 -2.04538 0
M  V30 4284 H 395.112 0.315184 -0.894071 0
M  V30 4285 H 394.818 1.71054 -3.073 0
M  V30 4286 H 394.692 3.14919 -2.0762 0
M  V30 4287 H 397.079 2.69947 -1.19217 0
M  V30 4288 H 397.16 1.26418 -2.22378 0
M  V30 4289 H 396.804 2.74474 -4.27348 0
M  V30 4290 H 396.734 4.17339 -3.21148 0
M  V30 4291 H 399.225 2.73167 -2.61129 0
M  V30 4292 H 399.538 5.13583 -5.77453 0
M  V30 4293 H 397.883 4.62398 -5.18857 0
M  V30 4294 H 401.074 3.32491 -3.29495 0
M  V30 4295 H 401.247 4.4214 -4.73726 0
M  V30 4296 N 394.653 0.992116 1.22453 0
M  V30 4297 C 395.616 0.546883 2.2258 0
M  V30 4298 C 396.616 -0.369829 1.56489 0
M  V30 4299 O 397.806 -0.161896 1.73446 0
M  V30 4300 C 394.938 -0.204659 3.40285 0
M  V30 4301 H 396.131 1.43234 2.63484 0
M  V30 4302 H 393.684 0.779239 1.3549 0
M  V30 4303 H 394.419 -1.10614 3.04853 0
M  V30 4304 H 394.204 0.45354 3.89468 0
M  V30 4305 H 395.694 -0.504358 4.14543 0
M  V30 4306 N 396.131 -1.37776 0.765217 0
M  V30 4307 C 397.359 -2.04124 0.337767 0
M  V30 4308 C 397.774 -1.57715 -1.03785 0
M  V30 4309 O 397.131 -0.755447 -1.6613 0
M  V30 4310 C 397.182 -3.59658 0.364442 0
M  V30 4311 O 396.903 -4.04367 1.68579 0
M  V30 4312 C 398.404 -4.43236 -0.0754221 0
M  V30 4313 H 395.624 -0.655696 0.142491 0
M  V30 4314 H 398.168 -1.76238 1.03732 0
M  V30 4315 H 396.323 -3.86339 -0.286471 0
M  V30 4316 H 396.737 -4.98857 1.61993 0
M  V30 4317 H 398.211 -5.52 -0.00560067 0
M  V30 4318 H 398.688 -4.2455 -1.12491 0
M  V30 4319 H 399.294 -4.21767 0.547055 0
M  V30 4320 N 397.609 -0.515225 -1.4894 0
M  V30 4321 C 398.855 0.0242508 -2.02785 0
M  V30 4322 C 399.188 1.35323 -1.39289 0
M  V30 4323 O 398.463 1.87041 -0.533469 0
M  V30 4324 C 398.746 0.16184 -3.59736 0
M  V30 4325 C 398.599 -1.19127 -4.33738 0
M  V30 4326 C 399.918 0.895719 -4.30888 0
M  V30 4327 H 397.037 0.00733914 -0.736963 0
M  V30 4328 H 399.679 -0.669395 -1.77818 0
M  V30 4329 H 397.829 0.752624 -3.8114 0
M  V30 4330 H 399.501 -1.82202 -4.23792 0
M  V30 4331 H 397.744 -1.77695 -3.95736 0
M  V30 4332 H 398.415 -1.04815 -5.41957 0
M  V30 4333 H 400.891 0.394528 -4.14225 0
M  V30 4334 H 399.767 0.960859 -5.40425 0
M  V30 4335 H 400.028 1.9427 -3.97129 0
M  V30 4336 N 399.087 1.5561 -0.249682 0
M  V30 4337 C 400.017 2.24477 0.642826 0
M  V30 4338 C 400.998 1.22601 1.17911 0
M  V30 4339 O 402.183 1.5126 1.21795 0
M  V30 4340 C 399.313 2.94638 1.83863 0
M  V30 4341 C 398.267 4.03227 1.435 0
M  V30 4342 C 397.593 4.60828 2.71186 0
M  V30 4343 C 398.893 5.18796 0.604002 0
M  V30 4344 H 400.587 2.99321 0.0685625 0
M  V30 4345 H 398.133 1.43965 0.0315363 0
M  V30 4346 H 400.086 3.41517 2.46868 0
M  V30 4347 H 398.81 2.17287 2.43832 0
M  V30 4348 H 397.469 3.57121 0.828275 0
M  V30 4349 H 397.117 3.80174 3.29358 0
M  V30 4350 H 396.817 5.34132 2.44901 0
M  V30 4351 H 398.341 5.10442 3.35084 0
M  V30 4352 H 399.755 5.61883 1.13842 0
M  V30 4353 H 398.152 5.98506 0.437097 0
M  V30 4354 H 399.222 4.83384 -0.383147 0
M  V30 4355 N 400.565 -0.0233959 1.57583 0
M  V30 4356 C 401.811 -0.714119 1.89811 0
M  V30 4357 C 402.144 -1.74702 0.848113 0
M  V30 4358 O 401.419 -1.94023 -0.136135 0
M  V30 4359 C 401.702 -1.37853 3.32669 0
M  V30 4360 C 401.555 -0.358764 4.48367 0
M  V30 4361 C 402.874 -2.31101 3.7454 0
M  V30 4362 H 399.993 -0.25814 0.690314 0
M  V30 4363 H 402.635 0.0230927 1.89986 0
M  V30 4364 H 400.785 -2.00689 3.3265 0
M  V30 4365 H 402.457 0.268115 4.6052 0
M  V30 4366 H 400.7 0.321387 4.32608 0
M  V30 4367 H 401.371 -0.862242 5.45224 0
M  V30 4368 H 403.847 -1.78304 3.75961 0
M  V30 4369 H 402.723 -2.74567 4.75294 0
M  V30 4370 H 402.984 -3.18018 3.0711 0
M  V30 4371 N 402.043 -1.548 -0.295768 0
M  V30 4372 C 402.973 -1.89115 -1.36959 0
M  V30 4373 C 403.954 -0.75059 -1.52644 0
M  V30 4374 O 405.139 -1.00678 -1.66065 0
M  V30 4375 C 402.269 -2.14307 -2.73295 0
M  V30 4376 C 401.223 -3.30151 -2.72368 0
M  V30 4377 C 400.549 -3.40772 -4.12042 0
M  V30 4378 C 401.849 -4.67126 -2.33646 0
M  V30 4379 H 403.543 -2.79053 -1.08488 0
M  V30 4380 H 401.089 -1.34266 -0.520443 0
M  V30 4381 H 403.042 -2.36898 -3.48507 0
M  V30 4382 H 401.766 -1.21145 -3.03301 0
M  V30 4383 H 400.425 -3.0749 -1.99613 0
M  V30 4384 H 400.073 -2.45117 -4.39234 0
M  V30 4385 H 399.773 -4.18645 -4.12322 0
M  V30 4386 H 401.297 -3.6563 -4.89027 0
M  V30 4387 H 402.711 -4.89414 -2.98575 0
M  V30 4388 H 401.108 -5.47751 -2.45129 0
M  V30 4389 H 402.178 -4.67489 -1.28772 0
M  V30 4390 N 403.521 0.559213 -1.47345 0
M  V30 4391 C 404.767 1.31843 -1.54095 0
M  V30 4392 C 405.1 1.93149 -0.201726 0
M  V30 4393 O 404.375 1.77759 0.789428 0
M  V30 4394 C 404.658 2.43006 -2.65744 0
M  V30 4395 C 404.511 1.86581 -4.09277 0
M  V30 4396 C 405.83 3.44943 -2.73318 0
M  V30 4397 H 402.949 0.478012 -0.560957 0
M  V30 4398 H 405.591 0.625977 -1.79392 0
M  V30 4399 H 403.741 3.02072 -2.44305 0
M  V30 4400 H 405.413 1.31792 -4.42073 0
M  V30 4401 H 403.656 1.17268 -4.17649 0
M  V30 4402 H 404.327 2.66933 -4.83168 0
M  V30 4403 H 406.803 2.95793 -2.92653 0
M  V30 4404 H 405.679 4.20153 -3.53218 0
M  V30 4405 H 405.94 4.03665 -1.80296 0
M  V30 4406 N 404.999 1.35443 0.805782 0
M  V30 4407 C 406.245 1.28952 1.56522 0
M  V30 4408 C 406.578 -0.135597 1.93726 0
M  V30 4409 O 405.853 -1.08516 1.61414 0
M  V30 4410 C 406.136 2.19678 2.85331 0
M  V30 4411 C 405.989 3.7081 2.54598 0
M  V30 4412 C 407.308 2.09495 3.8704 0
M  V30 4413 H 404.427 0.469764 0.567883 0
M  V30 4414 H 407.069 1.65851 0.927001 0
M  V30 4415 H 405.219 1.8834 3.39795 0
M  V30 4416 H 406.891 4.12593 2.06312 0
M  V30 4417 H 405.134 3.91051 1.8778 0
M  V30 4418 H 405.805 4.29679 3.46525 0
M  V30 4419 H 408.281 2.37045 3.41978 0
M  V30 4420 H 407.157 2.75173 4.74943 0
M  V30 4421 H 407.418 1.07714 4.28777 0
M  V30 4422 N 406.477 -1.02803 1.19454 0
M  V30 4423 C 407.407 -2.12999 0.956758 0
M  V30 4424 C 408.388 -1.69743 -0.110188 0
M  V30 4425 O 409.573 -1.94148 0.0450038 0
M  V30 4426 C 406.703 -3.43746 0.495553 0
M  V30 4427 C 405.657 -4.00688 1.50443 0
M  V30 4428 C 404.983 -5.27067 0.900275 0
M  V30 4429 C 406.283 -4.35397 2.8849 0
M  V30 4430 H 407.977 -2.33148 1.87836 0
M  V30 4431 H 405.523 -1.12045 0.904539 0
M  V30 4432 H 407.476 -4.2021 0.316493 0
M  V30 4433 H 406.2 -3.23321 -0.461646 0
M  V30 4434 H 404.859 -3.2632 1.67065 0
M  V30 4435 H 404.507 -5.02959 -0.064503 0
M  V30 4436 H 404.207 -5.66127 1.57397 0
M  V30 4437 H 405.731 -6.06196 0.73203 0
M  V30 4438 H 407.145 -5.02795 2.75446 0
M  V30 4439 H 405.542 -4.85541 3.52661 0
M  V30 4440 H 406.612 -3.44662 3.41081 0
M  V30 4441 N 407.956 -0.998596 -1.21925 0
M  V30 4442 C 408.886 -0.573688 -2.26343 0
M  V30 4443 C 409.867 0.402296 -1.65274 0
M  V30 4444 O 411.052 0.291683 -1.91997 0
M  V30 4445 C 408.182 0.106839 -3.47136 0
M  V30 4446 C 407.136 -0.788269 -4.20678 0
M  V30 4447 C 406.462 0.0254927 -5.34694 0
M  V30 4448 C 407.762 -2.08784 -4.78755 0
M  V30 4449 H 409.456 -1.44651 -2.62138 0
M  V30 4450 H 407.002 -0.696975 -1.26009 0
M  V30 4451 H 408.955 0.415531 -4.19346 0
M  V30 4452 H 407.679 1.01424 -3.10452 0
M  V30 4453 H 406.338 -1.08069 -3.50309 0
M  V30 4454 H 405.986 0.933989 -4.94253 0
M  V30 4455 H 405.686 -0.570437 -5.84825 0
M  V30 4456 H 407.21 0.328147 -6.09718 0
M  V30 4457 H 408.624 -1.84272 -5.42878 0
M  V30 4458 H 407.021 -2.63307 -5.39249 0
M  V30 4459 H 408.091 -2.76284 -3.98491 0
M  V30 4460 N 409.434 1.37368 -0.772513 0
M  V30 4461 C 410.364 2.32856 -0.173304 0
M  V30 4462 C 411.345 1.55818 0.682262 0
M  V30 4463 O 412.53 1.84052 0.619566 0
M  V30 4464 C 409.66 3.40048 0.706007 0
M  V30 4465 C 408.614 4.27973 -0.0483144 0
M  V30 4466 C 407.94 5.26184 0.950491 0
M  V30 4467 C 409.24 5.07665 -1.22776 0
M  V30 4468 H 410.934 2.83217 -0.971002 0
M  V30 4469 H 408.48 1.3617 -0.468377 0
M  V30 4470 H 410.433 4.05827 1.13501 0
M  V30 4471 H 409.157 2.88214 1.53623 0
M  V30 4472 H 407.816 3.63726 -0.458107 0
M  V30 4473 H 407.464 4.7063 1.77529 0
M  V30 4474 H 407.164 5.85872 0.450314 0
M  V30 4475 H 408.688 5.94838 1.37842 0
M  V30 4476 H 410.102 5.66578 -0.875366 0
M  V30 4477 H 408.499 5.76681 -1.66007 0
M  V30 4478 H 409.569 4.40294 -2.03149 0
M  V30 4479 N 410.912 0.523116 1.48665 0
M  V30 4480 C 412.159 -0.0134763 2.02496 0
M  V30 4481 C 412.487 -1.3493 1.40086 0
M  V30 4482 O 411.742 -1.88286 0.533567 0
M  V30 4483 C 412.041 -0.191671 3.56886 0
M  V30 4484 C 411.707 1.06893 4.38046 0
M  V30 4485 C 410.369 1.41443 4.59943 0
M  V30 4486 C 412.721 1.90584 4.85106 0
M  V30 4487 C 410.049 2.59594 5.26144 0
M  V30 4488 C 412.401 3.07907 5.52609 0
M  V30 4489 C 411.065 3.42811 5.72745 0
M  V30 4490 H 410.335 -0.00493133 0.740984 0
M  V30 4491 H 412.982 0.687751 1.78724 0
M  V30 4492 H 411.287 -0.97561 3.79459 0
M  V30 4493 H 412.984 -0.621659 3.96152 0
M  V30 4494 H 409.574 0.789848 4.21259 0
M  V30 4495 H 413.758 1.65203 4.67997 0
M  V30 4496 H 409.014 2.86847 5.39934 0
M  V30 4497 H 413.188 3.73066 5.88043 0
M  V30 4498 H 410.815 4.34462 6.23816 0
M  V30 4499 N 412.39 -1.55475 0.257931 0
M  V30 4500 C 413.639 -1.98383 -0.364275 0
M  V30 4501 C 413.952 -1.14952 -1.58258 0
M  V30 4502 O 415.158 -1.47924 -2.27664 0
M  V30 4503 C 413.614 -3.53037 -0.699479 0
M  V30 4504 C 413.222 -4.45223 0.498046 0
M  V30 4505 C 414.966 -4.04575 -1.28526 0
M  V30 4506 C 412.873 -5.91238 0.138383 0
M  V30 4507 H 411.803 -0.740911 -0.13988 0
M  V30 4508 H 414.454 -1.79936 0.359883 0
M  V30 4509 H 412.836 -3.6722 -1.48207 0
M  V30 4510 H 414.01 -4.42803 1.27522 0
M  V30 4511 H 412.325 -4.04226 0.999503 0
M  V30 4512 H 414.922 -5.11196 -1.56788 0
M  V30 4513 H 415.265 -3.5258 -2.21344 0
M  V30 4514 H 415.798 -3.93762 -0.565337 0
M  V30 4515 H 412.537 -6.47294 1.03398 0
M  V30 4516 H 412.057 -5.96768 -0.602374 0
M  V30 4517 H 413.736 -6.46413 -0.27553 0
M  V30 4518 N 413.868 0.0150385 -1.57593 0
M  V30 4519 C 415.117 0.702115 -1.89085 0
M  V30 4520 C 415.43 1.75764 -0.858277 0
M  V30 4521 O 416.636 2.49829 -1.0629 0
M  V30 4522 C 415.092 1.29992 -3.35604 0
M  V30 4523 C 414.7 0.280007 -4.47124 0
M  V30 4524 C 416.444 1.96606 -3.76227 0
M  V30 4525 C 414.351 0.886949 -5.84711 0
M  V30 4526 H 413.281 0.265997 -0.705522 0
M  V30 4527 H 415.932 -0.0430408 -1.8345 0
M  V30 4528 H 414.314 2.09525 -3.36029 0
M  V30 4529 H 415.488 -0.489631 -4.58191 0
M  V30 4530 H 413.803 -0.284835 -4.15425 0
M  V30 4531 H 416.4 2.42893 -4.76347 0
M  V30 4532 H 416.743 2.79024 -3.08952 0
M  V30 4533 H 417.276 1.23828 -3.78036 0
M  V30 4534 H 414.015 0.101876 -6.55421 0
M  V30 4535 H 413.535 1.6261 -5.77337 0
M  V30 4536 H 415.214 1.39011 -6.3189 0
M  V30 4537 N 415.346 1.54954 0.287554 0
M  V30 4538 C 416.586 1.76617 1.02887 0
M  V30 4539 C 416.95 0.547759 1.84021 0
M  V30 4540 O 418.151 0.642365 2.61012 0
M  V30 4541 C 416.422 3.02717 1.89993 0
M  V30 4542 S 417.981 3.45438 2.70588 0
M  V30 4543 H 414.799 0.6207 0.346775 0
M  V30 4544 H 417.401 1.93172 0.30082 0
M  V30 4545 H 416.105 3.89503 1.29287 0
M  V30 4546 H 415.636 2.88787 2.67144 0
M  V30 4547 H 417.651 3.03566 3.92508 0
M  V30 4548 N 416.824 -0.551391 1.4764 0
M  V30 4549 C 418.07 -1.30789 1.55774 0
M  V30 4550 C 418.425 -1.91143 0.219562 0
M  V30 4551 O 417.718 -1.7521 -0.775375 0
M  V30 4552 C 417.912 -2.43469 2.61644 0
M  V30 4553 C 417.741 -1.94157 4.05627 0
M  V30 4554 C 416.511 -1.77734 4.7301 0
M  V30 4555 C 418.709 -1.48262 4.92466 0
M  V30 4556 N 416.691 -1.22823 6.01488 0
M  V30 4557 C 418.062 -1.05156 6.11017 0
M  V30 4558 C 420.117 -1.36367 4.78862 0
M  V30 4559 C 418.82 -0.513357 7.17466 0
M  V30 4560 C 420.846 -0.839484 5.85411 0
M  V30 4561 C 420.208 -0.418377 7.03156 0
M  V30 4562 H 416.307 -0.470406 0.624694 0
M  V30 4563 H 418.891 -0.624331 1.84419 0
M  V30 4564 H 417.062 -3.09348 2.34859 0
M  V30 4565 H 418.794 -3.10477 2.59589 0
M  V30 4566 H 415.549 -2.00623 4.29007 0
M  V30 4567 H 415.973 -0.974393 6.69951 0
M  V30 4568 H 420.615 -1.67535 3.88191 0
M  V30 4569 H 418.333 -0.189318 8.07878 0
M  V30 4570 H 421.919 -0.750921 5.76934 0
M  V30 4571 H 420.799 -0.0190538 7.84198 0
M  V30 4572 N 418.302 -1.35869 -0.798587 0
M  V30 4573 C 419.232 -1.32118 -1.92528 0
M  V30 4574 C 420.213 -0.194209 -1.68988 0
M  V30 4575 O 421.398 -0.390426 -1.90235 0
M  V30 4576 C 418.528 -1.10047 -3.29404 0
M  V30 4577 C 417.482 -2.19471 -3.67446 0
M  V30 4578 C 416.808 -1.82555 -5.02571 0
M  V30 4579 C 418.108 -3.61495 -3.76987 0
M  V30 4580 H 419.802 -2.26394 -1.95924 0
M  V30 4581 H 417.348 -1.08981 -0.94123 0
M  V30 4582 H 419.301 -1.06061 -4.07835 0
M  V30 4583 H 418.025 -0.122195 -3.26371 0
M  V30 4584 H 416.684 -2.22568 -2.91306 0
M  V30 4585 H 416.332 -0.833249 -4.9605 0
M  V30 4586 H 416.032 -2.5581 -5.28995 0
M  V30 4587 H 417.556 -1.80108 -5.83432 0
M  V30 4588 H 418.97 -3.60676 -4.4563 0
M  V30 4589 H 417.367 -4.33577 -4.14887 0
M  V30 4590 H 418.437 -3.97065 -2.78329 0
M  V30 4591 N 419.78 1.02168 -1.19998 0
M  V30 4592 C 421.191 1.57135 -1.00825 0
M  V30 4593 C 421.542 1.91276 0.436818 0
M  V30 4594 O 420.667 1.71679 1.3174 0
M  V30 4595 C 421.262 2.85514 -1.82393 0
M  V30 4596 C 419.821 3.37027 -1.67601 0
M  V30 4597 C 418.968 2.10388 -1.80644 0
M  V30 4598 H 421.919 0.846106 -1.34264 0
M  V30 4599 H 421.94 3.56711 -1.32429 0
M  V30 4600 H 421.452 2.60634 -2.87561 0
M  V30 4601 H 419.553 3.66878 -0.650485 0
M  V30 4602 H 419.666 4.09572 -2.4857 0
M  V30 4603 H 418.03 2.22601 -1.23778 0
M  V30 4604 H 418.813 1.8794 -2.87286 0
M  V30 4605 N 421.258 1.00505 1.21394 0
M  V30 4606 C 422.505 0.687774 1.90462 0
M  V30 4607 C 422.833 -0.78147 1.7811 0
M  V30 4608 O 422.088 -1.58208 1.1519 0
M  V30 4609 C 422.387 1.0546 3.41486 0
M  V30 4610 C 422.053 2.51812 3.74034 0
M  V30 4611 C 420.715 2.91804 3.82628 0
M  V30 4612 C 423.067 3.46614 3.8924 0
M  V30 4613 C 420.395 4.2556 4.03876 0
M  V30 4614 C 422.747 4.80044 4.11995 0
M  V30 4615 C 421.411 5.19759 4.18816 0
M  V30 4616 H 420.681 0.251674 0.696951 0
M  V30 4617 H 423.328 1.26349 1.43903 0
M  V30 4618 H 421.633 0.397133 3.89782 0
M  V30 4619 H 423.33 0.786976 3.93202 0
M  V30 4620 H 419.92 2.1982 3.67936 0
M  V30 4621 H 424.104 3.16883 3.81967 0
M  V30 4622 H 419.36 4.55901 4.07387 0
M  V30 4623 H 423.534 5.53439 4.22704 0
M  V30 4624 H 421.161 6.23418 4.35033 0
M  V30 4625 N 422.737 -1.36956 0.779787 0
M  V30 4626 C 423.669 -2.28833 0.129639 0
M  V30 4627 C 424.682 -1.4902 -0.655511 0
M  V30 4628 O 425.871 -1.71578 -0.492279 0
M  V30 4629 C 422.971 -3.2833 -0.839792 0
M  V30 4630 C 422.144 -4.3727 -0.10675 0
M  V30 4631 C 421.203 -5.16789 -0.990717 0
M  V30 4632 O 420.229 -5.67406 -0.451516 0
M  V30 4633 N 421.431 -5.32294 -2.3161 0
M  V30 4634 H 424.196 -2.85268 0.918803 0
M  V30 4635 H 421.757 -1.49019 0.632841 0
M  V30 4636 H 423.749 -3.78413 -1.43477 0
M  V30 4637 H 422.319 -2.72605 -1.52988 0
M  V30 4638 H 421.539 -3.88478 0.669216 0
M  V30 4639 H 422.827 -5.07229 0.399464 0
M  V30 4640 H 422.225 -4.92768 -2.77843 0
M  V30 4641 H 420.782 -5.85656 -2.86095 0
M  V30 4642 N 424.215 -0.530993 -1.48385 0
M  V30 4643 C 425.464 0.00474348 -2.01699 0
M  V30 4644 C 425.777 1.35227 -1.41325 0
M  V30 4645 O 426.983 1.97643 -1.86144 0
M  V30 4646 C 425.439 0.0588473 -3.59852 0
M  V30 4647 C 425.047 -1.28385 -4.2921 0
M  V30 4648 C 426.791 0.543358 -4.21008 0
M  V30 4649 C 424.698 -1.19028 -5.79298 0
M  V30 4650 H 423.628 0.00554317 -0.75398 0
M  V30 4651 H 426.279 -0.674924 -1.70637 0
M  V30 4652 H 424.661 0.803612 -3.8776 0
M  V30 4653 H 425.835 -2.04426 -4.12973 0
M  V30 4654 H 424.15 -1.70418 -3.7993 0
M  V30 4655 H 426.747 0.631351 -5.3096 0
M  V30 4656 H 427.09 1.54937 -3.86394 0
M  V30 4657 H 427.623 -0.145754 -3.97533 0
M  V30 4658 H 424.362 -2.17147 -6.18488 0
M  V30 4659 H 423.882 -0.471246 -5.97946 0
M  V30 4660 H 425.561 -0.881365 -6.40969 0
M  V30 4661 N 425.693 1.55336 -0.266172 0
M  V30 4662 C 426.918 2.04258 0.359661 0
M  V30 4663 C 427.343 1.14359 1.49344 0
M  V30 4664 O 426.701 0.140369 1.80756 0
M  V30 4665 C 426.749 3.50997 0.826635 0
M  V30 4666 O 425.853 3.64204 1.93466 0
M  V30 4667 H 425.194 0.659668 0.075727 0
M  V30 4668 H 427.724 2.00694 -0.39786 0
M  V30 4669 H 427.734 3.9219 1.12477 0
M  V30 4670 H 426.409 4.159 -0.00293032 0
M  V30 4671 H 424.986 3.34913 1.63974 0
M  V30 4672 N 427.171 -0.0066808 1.57599 0
M  V30 4673 C 428.399 -0.704087 1.94551 0
M  V30 4674 C 428.814 -1.67677 0.867746 0
M  V30 4675 O 428.171 -1.8185 -0.153925 0
M  V30 4676 C 428.222 -1.44177 3.31505 0
M  V30 4677 O 427.943 -0.508097 4.35144 0
M  V30 4678 C 429.444 -2.23429 3.82876 0
M  V30 4679 H 426.664 -0.196523 0.641576 0
M  V30 4680 H 429.208 0.042453 2.04456 0
M  V30 4681 H 427.363 -2.13999 3.22929 0
M  V30 4682 H 427.777 -1.02782 5.14331 0
M  V30 4683 H 429.251 -2.70552 4.8115 0
M  V30 4684 H 429.728 -3.05818 3.15233 0
M  V30 4685 H 430.334 -1.58636 3.94607 0
M  V30 4686 N 428.649 -1.55105 -0.279332 0
M  V30 4687 C 429.896 -1.75412 -1.01177 0
M  V30 4688 C 430.224 -0.551728 -1.86511 0
M  V30 4689 O 429.479 0.465919 -1.90073 0
M  V30 4690 C 429.778 -3.0086 -1.92919 0
M  V30 4691 C 429.444 -4.33689 -1.23387 0
M  V30 4692 C 428.106 -4.69792 -1.04159 0
M  V30 4693 C 430.458 -5.15941 -0.738562 0
M  V30 4694 C 427.786 -5.85707 -0.341166 0
M  V30 4695 C 430.138 -6.32579 -0.0517636 0
M  V30 4696 C 428.802 -6.67326 0.152292 0
M  V30 4697 H 428.072 -0.641879 -0.370233 0
M  V30 4698 H 430.719 -1.89373 -0.284627 0
M  V30 4699 H 429.024 -2.81773 -2.72234 0
M  V30 4700 H 430.721 -3.13768 -2.49701 0
M  V30 4701 H 427.311 -4.05309 -1.39364 0
M  V30 4702 H 431.495 -4.8853 -0.874764 0
M  V30 4703 H 426.751 -6.11157 -0.172287 0
M  V30 4704 H 430.925 -6.9557 0.339828 0
M  V30 4705 H 428.552 -7.56998 0.697014 0
M  V30 4706 N 430.127 0.543554 -1.4793 0
M  V30 4707 C 431.057 1.65888 -1.64327 0
M  V30 4708 C 432.038 1.62818 -0.492383 0
M  V30 4709 O 433.223 1.80226 -0.723338 0
M  V30 4710 C 430.353 3.04506 -1.67013 0
M  V30 4711 C 429.307 3.2243 -2.81466 0
M  V30 4712 C 428.633 4.61972 -2.69233 0
M  V30 4713 C 429.933 3.06496 -4.22915 0
M  V30 4714 H 431.627 1.52421 -2.57698 0
M  V30 4715 H 429.173 0.731849 -1.24016 0
M  V30 4716 H 431.126 3.82391 -1.77074 0
M  V30 4717 H 429.85 3.18964 -0.70212 0
M  V30 4718 H 428.509 2.46957 -2.70938 0
M  V30 4719 H 428.157 4.73247 -1.7043 0
M  V30 4720 H 427.857 4.74911 -3.46025 0
M  V30 4721 H 429.381 5.41974 -2.81242 0
M  V30 4722 H 430.795 3.74186 -4.34348 0
M  V30 4723 H 429.192 3.30938 -5.006 0
M  V30 4724 H 430.262 2.03077 -4.40327 0
M  V30 4725 N 431.605 1.3629 0.791371 0
M  V30 4726 C 432.882 1.20962 1.53712 0
M  V30 4727 C 433.262 -0.205021 2.10102 0
M  V30 4728 O 432.61 -1.21042 1.93807 0
M  V30 4729 C 432.82 2.29002 2.63361 0
M  V30 4730 C 434.168 2.65572 3.31295 0
M  V30 4731 O 435.192 2.2803 2.73643 0
M  V30 4732 O 434.051 3.3018 4.35481 0
M  V30 4733 H 431.145 0.47086 0.679867 0
M  V30 4734 H 433.691 1.48016 0.830021 0
M  V30 4735 H 432.463 3.2382 2.19674 0
M  V30 4736 H 432.086 2.03303 3.41692 0
M  V30 4737 N 433.083 -1.0153 1.20538 0
M  V30 4738 C 434.311 -1.78746 1.04199 0
M  V30 4739 C 434.726 -1.84323 -0.408733 0
M  V30 4740 O 434.083 -1.29714 -1.28377 0
M  V30 4741 C 434.134 -3.23152 1.62035 0
M  V30 4742 O 433.855 -3.17918 3.0143 0
M  V30 4743 C 435.356 -4.16911 1.50666 0
M  V30 4744 H 432.576 -0.56208 0.366479 0
M  V30 4745 H 435.12 -1.27794 1.59653 0
M  V30 4746 H 433.275 -3.71248 1.10697 0
M  V30 4747 H 433.689 -4.08567 3.28897 0
M  V30 4748 H 435.163 -5.16072 1.95892 0
M  V30 4749 H 435.64 -4.36791 0.459363 0
M  V30 4750 H 436.246 -3.74698 2.01201 0
M  V30 4751 N 434.561 -1.01147 -1.20859 0
M  V30 4752 C 435.491 -0.597663 -2.25722 0
M  V30 4753 C 436.472 0.384744 -1.65692 0
M  V30 4754 O 437.657 0.271303 -1.92296 0
M  V30 4755 C 434.787 0.0700149 -3.47229 0
M  V30 4756 C 433.741 -0.832843 -4.19819 0
M  V30 4757 C 433.067 -0.0312202 -5.34691 0
M  V30 4758 C 434.367 -2.1385 -4.76514 0
M  V30 4759 H 436.061 -1.47423 -2.60589 0
M  V30 4760 H 433.607 -0.710301 -1.25263 0
M  V30 4761 H 435.56 0.37103 -4.19763 0
M  V30 4762 H 434.284 0.981259 -3.11511 0
M  V30 4763 H 432.943 -1.11778 -3.49144 0
M  V30 4764 H 432.591 0.881515 -4.95215 0
M  V30 4765 H 432.291 -0.632434 -5.84187 0
M  V30 4766 H 433.815 0.26346 -6.10031 0
M  V30 4767 H 435.229 -1.9002 -5.40893 0
M  V30 4768 H 433.626 -2.69012 -5.36426 0
M  V30 4769 H 434.696 -2.80495 -3.95538 0
M  V30 4770 N 436.039 1.36541 -0.78704 0
M  V30 4771 C 436.989 2.27459 -0.156957 0
M  V30 4772 C 437.973 1.46843 0.657709 0
M  V30 4773 O 439.165 1.69245 0.518173 0
M  V30 4774 C 436.294 3.35893 0.709278 0
M  V30 4775 C 435.38 4.23947 -0.114049 0
M  V30 4776 N 435.771 4.92145 -1.16736 0
M  V30 4777 C 434.069 4.4587 0.107497 0
M  V30 4778 C 434.77 5.57261 -1.66837 0
M  V30 4779 N 433.746 5.3473 -0.977992 0
M  V30 4780 H 437.548 2.77669 -0.963185 0
M  V30 4781 H 435.062 1.49839 -0.62627 0
M  V30 4782 H 437.059 3.99953 1.17656 0
M  V30 4783 H 435.719 2.87238 1.51408 0
M  V30 4784 H 436.73 4.94169 -1.54976 0
M  V30 4785 H 433.407 4.08056 0.882994 0
M  V30 4786 H 434.797 6.21728 -2.54762 0
M  V30 4787 N 437.518 0.538854 1.48102 0
M  V30 4788 C 438.934 0.19732 1.58376 0
M  V30 4789 C 439.134 -1.29971 1.5398 0
M  V30 4790 O 438.19 -2.07861 1.43352 0
M  V30 4791 C 439.503 0.807716 2.89649 0
M  V30 4792 C 441.051 0.77726 3.03196 0
M  V30 4793 C 441.526 1.36639 4.37143 0
M  V30 4794 N 443.017 1.32875 4.43732 0
M  V30 4795 C 443.752 1.7544 5.45901 0
M  V30 4796 N 443.248 2.25776 6.54979 0
M  V30 4797 N 445.041 1.66623 5.36836 0
M  V30 4798 H 437.192 1.5117 1.49202 0
M  V30 4799 H 439.455 0.629327 0.708979 0
M  V30 4800 H 439.161 1.85909 2.98548 0
M  V30 4801 H 439.035 0.289975 3.76084 0
M  V30 4802 H 441.422 -0.265374 2.93904 0
M  V30 4803 H 441.503 1.33256 2.18349 0
M  V30 4804 H 441.147 2.408 4.47189 0
M  V30 4805 H 441.077 0.786689 5.20691 0
M  V30 4806 H 443.568 0.96037 3.65493 0
M  V30 4807 H 443.881 2.56226 7.29087 0
M  V30 4808 H 442.226 2.29775 6.55918 0
M  V30 4809 H 445.417 1.27089 4.50517 0
M  V30 4810 H 445.59 2.00115 6.16326 0
M  V30 4811 N 438.996 -1.55193 0.274407 0
M  V30 4812 C 439.926 -2.25471 -0.607032 0
M  V30 4813 C 440.907 -1.24461 -1.15946 0
M  V30 4814 O 442.092 -1.53179 -1.19373 0
M  V30 4815 C 439.222 -2.97526 -1.79153 0
M  V30 4816 C 438.176 -4.05459 -1.37067 0
M  V30 4817 C 437.502 -4.65084 -2.6382 0
M  V30 4818 C 438.802 -5.19691 -0.521389 0
M  V30 4819 H 440.496 -2.99393 -0.0209343 0
M  V30 4820 H 438.042 -1.43997 -0.00862866 0
M  V30 4821 H 439.995 -3.45402 -2.41404 0
M  V30 4822 H 438.719 -2.21138 -2.40344 0
M  V30 4823 H 437.378 -3.58393 -0.771355 0
M  V30 4824 H 437.026 -3.85365 -3.23268 0
M  V30 4825 H 436.726 -5.37961 -2.36372 0
M  V30 4826 H 438.25 -5.15708 -3.26921 0
M  V30 4827 H 439.664 -5.63623 -1.04889 0
M  V30 4828 H 438.061 -5.99126 -0.341825 0
M  V30 4829 H 439.131 -4.82713 0.46 0
M  V30 4830 N 440.474 -0.00167713 -1.576 0
M  V30 4831 C 441.722 0.681471 -1.90264 0
M  V30 4832 C 442.043 1.7422 -0.875924 0
M  V30 4833 O 441.313 1.95709 0.0864412 0
M  V30 4834 H 439.893 0.254696 -0.702239 0
M  V30 4835 H 442.555 -0.0429996 -1.94853 0
M  V30 4836 H 441.651 1.15166 -2.90075 0
M  V30 4837 N 441.952 1.55251 0.271103 0
M  V30 4838 C 443.201 1.75151 1.00025 0
M  V30 4839 C 443.514 0.561041 1.87381 0
M  V30 4840 O 444.72 0.642506 2.63788 0
M  V30 4841 C 443.176 3.09999 1.82835 0
M  V30 4842 C 442.784 4.3662 1.00336 0
M  V30 4843 C 444.528 3.39249 2.55168 0
M  V30 4844 C 442.435 5.62506 1.82595 0
M  V30 4845 H 441.365 0.652877 0.377183 0
M  V30 4846 H 444.016 1.81708 0.255843 0
M  V30 4847 H 442.398 2.97485 2.61378 0
M  V30 4848 H 443.572 4.60055 0.261959 0
M  V30 4849 H 441.887 4.14527 0.394486 0
M  V30 4850 H 444.484 4.3051 3.1712 0
M  V30 4851 H 444.827 2.59467 3.2555 0
M  V30 4852 H 445.36 3.52869 1.83653 0
M  V30 4853 H 442.099 6.45041 1.16631 0
M  V30 4854 H 441.619 5.43211 2.54327 0
M  V30 4855 H 443.298 6.00875 2.39913 0
M  V30 4856 N 443.43 -0.535701 1.48216 0
M  V30 4857 C 444.36 -1.65014 1.65204 0
M  V30 4858 C 445.341 -1.62554 0.501011 0
M  V30 4859 O 446.526 -1.7984 0.732886 0
M  V30 4860 C 443.656 -3.03616 1.68626 0
M  V30 4861 C 442.61 -3.20932 2.83172 0
M  V30 4862 C 441.936 -4.60537 2.71679 0
M  V30 4863 C 443.236 -3.04249 4.24535 0
M  V30 4864 H 444.93 -1.51053 2.58502 0
M  V30 4865 H 442.476 -0.725262 1.24402 0
M  V30 4866 H 444.429 -3.81446 1.79099 0
M  V30 4867 H 443.153 -3.18587 0.719026 0
M  V30 4868 H 441.812 -2.45517 2.72244 0
M  V30 4869 H 441.46 -4.72336 1.72937 0
M  V30 4870 H 441.16 -4.73069 3.48538 0
M  V30 4871 H 442.684 -5.40475 2.84112 0
M  V30 4872 H 444.098 -3.71877 4.36326 0
M  V30 4873 H 442.495 -3.28278 5.02348 0
M  V30 4874 H 443.565 -2.00739 4.41397 0
M  V30 4875 N 444.908 -1.36708 -0.784132 0
M  V30 4876 C 446.133 -1.34565 -1.5782 0
M  V30 4877 C 446.558 0.0695257 -1.87971 0
M  V30 4878 O 445.916 1.04302 -1.48293 0
M  V30 4879 C 445.964 -2.17952 -2.87279 0
M  V30 4880 O 445.068 -1.57563 -3.81114 0
M  V30 4881 H 444.409 -0.460337 -0.478524 0
M  V30 4882 H 446.939 -1.80064 -0.971495 0
M  V30 4883 H 446.949 -2.30721 -3.365 0
M  V30 4884 H 445.624 -3.20823 -2.64661 0
M  V30 4885 H 444.201 -1.53764 -3.39722 0
M  V30 4886 N 446.386 1.0089 -1.21074 0
M  V30 4887 C 447.611 1.78727 -1.05221 0
M  V30 4888 C 448.036 1.83932 0.393795 0
M  V30 4889 O 447.394 1.28004 1.28393 0
M  V30 4890 C 447.442 3.20665 -1.64944 0
M  V30 4891 O 446.546 4.02632 -0.892273 0
M  V30 4892 H 445.887 0.550973 -0.370574 0
M  V30 4893 H 448.417 1.26847 -1.60534 0
M  V30 4894 H 448.427 3.71352 -1.69002 0
M  V30 4895 H 447.102 3.16191 -2.70177 0
M  V30 4896 H 445.679 3.61207 -0.926492 0
M  V30 4897 N 447.864 1.01787 1.20321 0
M  V30 4898 C 449.104 0.716493 1.91431 0
M  V30 4899 C 449.468 -0.740352 1.77152 0
M  V30 4900 O 450.669 -1.1543 2.42754 0
M  V30 4901 C 448.94 1.14169 3.38674 0
M  V30 4902 S 450.499 0.962482 4.28114 0
M  V30 4903 H 447.317 0.261175 0.661293 0
M  V30 4904 H 449.919 1.30539 1.45533 0
M  V30 4905 H 448.623 2.19784 3.46588 0
M  V30 4906 H 448.154 0.545621 3.89598 0
M  V30 4907 H 450.169 -0.133253 4.96021 0
M  V30 4908 N 449.342 -1.36122 0.79427 0
M  V30 4909 C 450.274 -2.28683 0.153903 0
M  V30 4910 C 451.287 -1.49707 -0.639669 0
M  V30 4911 O 452.476 -1.7209 -0.474054 0
M  V30 4912 C 449.576 -3.29202 -0.804921 0
M  V30 4913 C 448.749 -4.37358 -0.060366 0
M  V30 4914 C 447.808 -5.17811 -0.935849 0
M  V30 4915 O 446.834 -5.67853 -0.391309 0
M  V30 4916 N 448.036 -5.34721 -2.25951 0
M  V30 4917 H 450.801 -2.84278 0.949008 0
M  V30 4918 H 448.362 -1.4834 0.648611 0
M  V30 4919 H 450.354 -3.79914 -1.39455 0
M  V30 4920 H 448.924 -2.74212 -1.50088 0
M  V30 4921 H 448.144 -3.87746 0.710382 0
M  V30 4922 H 449.432 -5.06777 0.45324 0
M  V30 4923 H 448.83 -4.95687 -2.72601 0
M  V30 4924 H 447.387 -5.88657 -2.79867 0
M  V30 4925 N 450.82 -0.546701 -1.47814 0
M  V30 4926 C 452.097 0.0464413 -1.95545 0
M  V30 4927 C 452.477 1.4962 -1.48919 0
M  V30 4928 O 451.825 2.16752 -0.723232 0
M  V30 4929 C 452.035 -0.0881298 -3.48889 0
M  V30 4930 C 453.383 0.0626059 -4.24554 0
M  V30 4931 O 454.407 -0.0151555 -3.56197 0
M  V30 4932 O 453.266 0.228071 -5.46024 0
M  V30 4933 H 450.36 0.0700004 -0.824032 0
M  V30 4934 H 452.906 -0.612482 -1.58262 0
M  V30 4935 H 451.678 -1.09737 -3.75597 0
M  V30 4936 H 451.301 0.608886 -3.9291 0
M  V30 4937 N 452.299 1.55045 -0.282633 0
M  V30 4938 C 453.209 2.26491 0.61147 0
M  V30 4939 C 454.225 1.29348 1.16384 0
M  V30 4940 O 455.401 1.62298 1.19253 0
M  V30 4941 C 452.466 2.97779 1.77563 0
M  V30 4942 C 451.527 4.10418 1.25919 0
M  V30 4943 C 450.76 4.78297 2.36786 0
M  V30 4944 O 450.983 4.45426 3.56303 0
M  V30 4945 O 449.917 5.66089 2.04517 0
M  V30 4946 H 453.743 3.03683 0.0324615 0
M  V30 4947 H 451.328 1.49317 -0.0497576 0
M  V30 4948 H 453.21 3.42554 2.45427 0
M  V30 4949 H 451.885 2.23498 2.34159 0
M  V30 4950 H 450.792 3.70082 0.546797 0
M  V30 4951 H 452.125 4.86622 0.738887 0
M  V30 4952 N 453.777 0.010035 1.57597 0
M  V30 4953 C 455.193 -0.346164 1.55801 0
M  V30 4954 C 455.393 -1.74144 1.01371 0
M  V30 4955 O 454.449 -2.43938 0.651968 0
M  V30 4956 C 455.762 -0.212216 2.9995 0
M  V30 4957 C 457.31 -0.286409 3.11687 0
M  V30 4958 C 457.785 -0.18147 4.5764 0
M  V30 4959 N 459.276 -0.239056 4.62583 0
M  V30 4960 C 460.011 -0.181351 5.73113 0
M  V30 4961 N 459.507 -0.073661 6.92761 0
M  V30 4962 N 461.3 -0.233949 5.61613 0
M  V30 4963 H 453.451 0.922657 1.91313 0
M  V30 4964 H 455.714 0.354595 0.879185 0
M  V30 4965 H 455.42 0.748169 3.4365 0
M  V30 4966 H 455.294 -0.990224 3.6397 0
M  V30 4967 H 457.681 -1.23724 2.67911 0
M  V30 4968 H 457.762 0.521645 2.50425 0
M  V30 4969 H 457.406 0.765863 5.02093 0
M  V30 4970 H 457.336 -1.00814 5.1686 0
M  V30 4971 H 459.827 -0.32321 3.76515 0
M  V30 4972 H 460.14 -0.0358003 7.72792 0
M  V30 4973 H 458.485 -0.0391461 6.94989 0
M  V30 4974 H 461.676 -0.316347 4.6703 0
M  V30 4975 H 461.849 -0.185514 6.47734 0
M  V30 4976 N 455.255 -1.55392 -0.262866 0
M  V30 4977 C 456.504 -1.75679 -0.990943 0
M  V30 4978 C 456.817 -0.57097 -1.87081 0
M  V30 4979 O 458.023 -0.656486 -2.63444 0
M  V30 4980 C 456.479 -3.10964 -1.81188 0
M  V30 4981 C 456.087 -4.37146 -0.980188 0
M  V30 4982 C 457.831 -3.40597 -2.53365 0
M  V30 4983 C 455.738 -5.63466 -1.7961 0
M  V30 4984 H 454.668 -0.654868 -0.373716 0
M  V30 4985 H 457.319 -1.81841 -0.246203 0
M  V30 4986 H 455.701 -2.98867 -2.59797 0
M  V30 4987 H 456.875 -4.60187 -0.237558 0
M  V30 4988 H 455.19 -4.14731 -0.372497 0
M  V30 4989 H 457.787 -4.32186 -3.14833 0
M  V30 4990 H 458.13 -2.6119 -3.24169 0
M  V30 4991 H 458.663 -3.53838 -1.81779 0
M  V30 4992 H 455.402 -6.4565 -1.13209 0
M  V30 4993 H 454.922 -5.44552 -2.51443 0
M  V30 4994 H 456.601 -6.02139 -2.36723 0
M  V30 4995 N 456.733 0.527833 -1.48498 0
M  V30 4996 C 457.982 1.28003 -1.55878 0
M  V30 4997 C 458.295 1.9414 -0.238577 0
M  V30 4998 O 459.501 2.7083 -0.190643 0
M  V30 4999 C 457.957 2.32272 -2.74914 0
M  V30 5000 C 457.565 1.72196 -4.13585 0
M  V30 5001 C 459.309 3.08488 -2.91608 0
M  V30 5002 C 457.216 2.74417 -5.23879 0
M  V30 5003 H 456.146 0.481413 -0.580308 0
M  V30 5004 H 458.797 0.557195 -1.74836 0
M  V30 5005 H 457.179 3.07601 -2.49395 0
M  V30 5006 H 458.353 1.03041 -4.49132 0
M  V30 5007 H 456.668 1.08464 -4.02025 0
M  V30 5008 H 459.265 3.84879 -3.71177 0
M  V30 5009 H 459.608 3.64481 -2.01145 0
M  V30 5010 H 460.141 2.40274 -3.17038 0
M  V30 5011 H 456.88 2.23242 -6.16314 0
M  V30 5012 H 456.4 3.41893 -4.92818 0
M  V30 5013 H 458.079 3.37362 -5.52083 0
M  V30 5014 N 458.211 1.37122 0.776871 0
M  V30 5015 C 459.488 1.22586 1.52421 0
M  V30 5016 C 459.868 -0.182726 2.10308 0
M  V30 5017 O 459.216 -1.18979 1.9508 0
M  V30 5018 C 459.426 2.31782 2.60918 0
M  V30 5019 C 460.774 2.69071 3.2846 0
M  V30 5020 O 461.798 2.3092 2.71209 0
M  V30 5021 O 460.657 3.3478 4.31954 0
M  V30 5022 H 457.751 0.478045 0.674835 0
M  V30 5023 H 460.297 1.48888 0.814275 0
M  V30 5024 H 459.069 3.26131 2.16227 0
M  V30 5025 H 458.692 2.06916 3.39517 0
M  V30 5026 N 459.689 -1.00246 1.21608 0
M  V30 5027 C 460.935 -1.74319 1.03638 0
M  V30 5028 C 461.268 -1.89408 -0.428749 0
M  V30 5029 O 460.543 -1.43026 -1.3181 0
M  V30 5030 C 460.826 -3.15431 1.73711 0
M  V30 5031 C 460.679 -3.08049 3.27759 0
M  V30 5032 C 461.998 -4.14407 1.48173 0
M  V30 5033 H 459.117 -0.632741 0.377899 0
M  V30 5034 H 461.759 -1.16853 1.49818 0
M  V30 5035 H 459.909 -3.64493 1.34452 0
M  V30 5036 H 461.581 -2.66681 3.76403 0
M  V30 5037 H 459.824 -2.45088 3.57931 0
M  V30 5038 H 460.495 -4.07862 3.71958 0
M  V30 5039 H 462.971 -3.74061 1.82258 0
M  V30 5040 H 461.847 -5.11279 1.99713 0
M  V30 5041 H 462.108 -4.40174 0.412273 0
M  V30 5042 N 461.167 -1.02423 -1.1978 0
M  V30 5043 C 462.416 -0.713265 -1.88667 0
M  V30 5044 C 462.729 0.7609 -1.80193 0
M  V30 5045 O 463.935 1.18473 -2.44288 0
M  V30 5046 C 462.391 -1.22545 -3.38394 0
M  V30 5047 C 461.999 -2.72706 -3.55437 0
M  V30 5048 C 463.743 -0.990257 -4.12788 0
M  V30 5049 C 461.65 -3.17367 -4.99031 0
M  V30 5050 H 460.58 -0.263105 -0.706606 0
M  V30 5051 H 463.231 -1.23792 -1.35454 0
M  V30 5052 H 461.613 -0.628732 -3.90977 0
M  V30 5053 H 462.787 -3.37993 -3.13205 0
M  V30 5054 H 461.102 -2.94453 -2.94425 0
M  V30 5055 H 463.699 -1.29926 -5.18675 0
M  V30 5056 H 464.042 0.0730761 -4.16236 0
M  V30 5057 H 464.575 -1.55074 -3.66329 0
M  V30 5058 H 461.314 -4.23009 -5.00743 0
M  V30 5059 H 460.834 -2.56805 -5.42044 0
M  V30 5060 H 462.513 -3.10441 -5.67658 0
M  V30 5061 N 462.645 1.35699 -0.801477 0
M  V30 5062 C 463.873 2.03157 -0.391768 0
M  V30 5063 C 464.288 1.60412 0.995668 0
M  V30 5064 O 463.645 0.799228 1.64069 0
M  V30 5065 C 463.696 3.58566 -0.459671 0
M  V30 5066 O 463.417 3.99756 -1.7924 0
M  V30 5067 C 464.918 4.4328 -0.0421205 0
M  V30 5068 H 462.138 0.651688 -0.159825 0
M  V30 5069 H 464.682 1.73426 -1.08368 0
M  V30 5070 H 462.837 3.86963 0.183939 0
M  V30 5071 H 463.251 4.94387 -1.75162 0
M  V30 5072 H 464.725 5.51821 -0.140754 0
M  V30 5073 H 465.202 4.27383 1.01196 0
M  V30 5074 H 465.808 4.20168 -0.658687 0
M  V30 5075 N 464.123 0.554532 1.47522 0
M  V30 5076 C 465.055 -0.232106 2.28022 0
M  V30 5077 C 466.068 -0.881865 1.36847 0
M  V30 5078 O 467.257 -0.756168 1.61692 0
M  V30 5079 C 464.357 -1.34604 3.11022 0
M  V30 5080 C 463.53 -0.793582 4.30141 0
M  V30 5081 C 462.589 -1.79168 4.94758 0
M  V30 5082 O 461.615 -1.33886 5.5323 0
M  V30 5083 N 462.817 -3.12495 4.89211 0
M  V30 5084 H 465.582 0.458407 2.96173 0
M  V30 5085 H 463.143 0.390433 1.57122 0
M  V30 5086 H 465.135 -2.01243 3.51118 0
M  V30 5087 H 463.705 -1.93983 2.45131 0
M  V30 5088 H 462.925 0.0495025 3.94169 0
M  V30 5089 H 464.213 -0.403776 5.07195 0
M  V30 5090 H 463.611 -3.51931 4.42901 0
M  V30 5091 H 462.168 -3.74698 5.33333 0
M  V30 5092 N 465.601 -1.54893 0.290851 0
M  V30 5093 C 466.85 -1.99111 -0.322113 0
M  V30 5094 C 467.163 -1.18283 -1.55784 0
M  V30 5095 O 468.369 -1.5272 -2.24475 0
M  V30 5096 C 466.825 -3.54442 -0.624438 0
M  V30 5097 C 466.433 -4.44066 0.592373 0
M  V30 5098 C 468.177 -4.07211 -1.19916 0
M  V30 5099 C 466.084 -5.90812 0.263762 0
M  V30 5100 H 465.014 -0.743712 -0.124133 0
M  V30 5101 H 467.665 -1.79132 0.39797 0
M  V30 5102 H 466.047 -3.70281 -1.40384 0
M  V30 5103 H 467.221 -4.39999 1.36886 0
M  V30 5104 H 465.536 -4.02015 1.08502 0
M  V30 5105 H 468.133 -5.14407 -1.45909 0
M  V30 5106 H 468.476 -3.57196 -2.13815 0
M  V30 5107 H 469.009 -3.94873 -0.481687 0
M  V30 5108 H 465.748 -6.44955 1.17105 0
M  V30 5109 H 465.268 -5.97911 -0.475655 0
M  V30 5110 H 466.947 -6.46852 -0.138354 0
M  V30 5111 N 467.08 -0.0183926 -1.57589 0
M  V30 5112 C 468.043 0.951986 -2.08494 0
M  V30 5113 C 469.043 1.26092 -0.997874 0
M  V30 5114 O 470.233 1.20304 -1.25987 0
M  V30 5115 C 467.365 2.27165 -2.54182 0
M  V30 5116 H 468.558 0.511307 -2.95509 0
M  V30 5117 H 466.111 0.229444 -1.54607 0
M  V30 5118 H 466.846 2.75884 -1.70465 0
M  V30 5119 H 466.631 2.06057 -3.33591 0
M  V30 5120 H 468.121 2.9674 -2.93828 0
M  V30 5121 N 468.558 1.5553 0.254621 0
M  V30 5122 C 469.783 1.81383 1.00573 0
M  V30 5123 C 470.208 0.594419 1.78461 0
M  V30 5124 O 469.566 -0.456403 1.75461 0
M  V30 5125 C 469.614 3.04892 1.92545 0
M  V30 5126 O 468.718 2.81266 3.01601 0
M  V30 5127 H 468.059 0.598969 0.286587 0
M  V30 5128 H 470.589 2.02703 0.277952 0
M  V30 5129 H 470.599 3.34119 2.34155 0
M  V30 5130 H 469.274 3.93287 1.3527 0
M  V30 5131 H 467.851 2.63185 2.64174 0
M  V30 5132 N 470.036 -0.519951 1.48776 0
M  V30 5133 C 471.283 -1.27522 1.57303 0
M  V30 5134 C 471.611 -1.92869 0.251328 0
M  V30 5135 O 470.866 -1.80372 -0.759243 0
M  V30 5136 C 471.165 -2.37864 2.6675 0
M  V30 5137 C 470.831 -1.90103 4.08867 0
M  V30 5138 C 469.493 -1.76795 4.47546 0
M  V30 5139 C 471.845 -1.54133 4.97888 0
M  V30 5140 C 469.173 -1.25868 5.73039 0
M  V30 5141 C 471.525 -1.04665 6.23881 0
M  V30 5142 C 470.189 -0.899823 6.61407 0
M  V30 5143 H 469.459 -0.466636 0.575614 0
M  V30 5144 H 472.106 -0.579109 1.82534 0
M  V30 5145 H 470.411 -3.13186 2.35418 0
M  V30 5146 H 472.108 -2.95969 2.70561 0
M  V30 5147 H 468.698 -2.01414 3.78326 0
M  V30 5148 H 472.882 -1.6327 4.68675 0
M  V30 5149 H 468.138 -1.13196 6.0083 0
M  V30 5150 H 472.312 -0.759074 6.92251 0
M  V30 5151 H 469.939 -0.503011 7.58534 0
M  V30 5152 N 471.514 -1.37532 -0.769588 0
M  V30 5153 C 472.447 -1.27839 -1.8903 0
M  V30 5154 C 473.425 -0.158504 -1.61826 0
M  V30 5155 O 474.609 -0.333086 -1.85534 0
M  V30 5156 C 471.736 -0.977072 -3.24301 0
M  V30 5157 C 470.782 -2.11414 -3.70414 0
M  V30 5158 S 471.615 -3.73409 -3.83831 0
M  V30 5159 C 472.771 -3.45432 -5.21946 0
M  V30 5160 H 473.004 -2.22694 -1.96963 0
M  V30 5161 H 470.537 -1.2318 -0.930914 0
M  V30 5162 H 472.495 -0.810049 -4.02428 0
M  V30 5163 H 471.156 -0.0459701 -3.14066 0
M  V30 5164 H 470.349 -1.85837 -4.68488 0
M  V30 5165 H 469.951 -2.24141 -2.99394 0
M  V30 5166 H 472.243 -3.00554 -6.07185 0
M  V30 5167 H 473.186 -4.42841 -5.52537 0
M  V30 5168 H 473.594 -2.80311 -4.89986 0
M  V30 5169 N 472.992 0.995999 -1.22138 0
M  V30 5170 C 473.955 2.06711 -0.990109 0
M  V30 5171 C 474.955 1.60744 0.0422978 0
M  V30 5172 O 476.145 1.73095 -0.195895 0
M  V30 5173 C 473.277 3.37288 -0.49491 0
M  V30 5174 H 474.47 2.28661 -1.94047 0
M  V30 5175 H 472.023 1.16711 -1.03963 0
M  V30 5176 H 472.758 3.21022 0.459948 0
M  V30 5177 H 472.543 3.71986 -1.23971 0
M  V30 5178 H 474.033 4.16103 -0.353253 0
M  V30 5179 N 474.47 1.03057 1.19235 0
M  V30 5180 C 475.7 0.746613 1.92638 0
M  V30 5181 C 476.108 -0.698708 1.75826 0
M  V30 5182 O 475.451 -1.487 1.07861 0
M  V30 5183 C 475.513 1.02024 3.44719 0
M  V30 5184 C 475.177 2.45745 3.85303 0
M  V30 5185 C 476.174 3.43887 3.8992 0
M  V30 5186 C 473.859 2.8019 4.16892 0
M  V30 5187 C 475.853 4.74529 4.2556 0
M  V30 5188 C 473.54 4.1104 4.52205 0
M  V30 5189 C 474.538 5.0802 4.56513 0
M  V30 5190 O 474.226 6.36527 4.91008 0
M  V30 5191 H 473.958 0.272401 0.618687 0
M  V30 5192 H 476.512 1.37853 1.52269 0
M  V30 5193 H 474.742 0.331184 3.85279 0
M  V30 5194 H 476.431 0.725677 3.9936 0
M  V30 5195 H 477.197 3.18614 3.65664 0
M  V30 5196 H 473.076 2.05382 4.12722 0
M  V30 5197 H 476.62 5.50222 4.28838 0
M  V30 5198 H 472.517 4.36086 4.7592 0
M  V30 5199 H 473.285 6.41025 5.08949 0
M  V30 5200 N 475.948 -1.35272 0.808662 0
M  V30 5201 C 477.173 -2.03477 0.401475 0
M  V30 5202 C 477.598 -1.60537 -0.980279 0
M  V30 5203 O 476.956 -0.78304 -1.63518 0
M  V30 5204 C 477.004 -3.57181 0.495354 0
M  V30 5205 O 476.108 -4.09474 -0.490397 0
M  V30 5206 H 475.449 -0.642561 0.167366 0
M  V30 5207 H 477.979 -1.72824 1.09512 0
M  V30 5208 H 477.989 -4.06356 0.365912 0
M  V30 5209 H 476.664 -3.87784 1.5032 0
M  V30 5210 H 475.241 -3.71516 -0.321023 0
M  V30 5211 N 477.426 -0.562348 -1.47226 0
M  V30 5212 C 478.374 0.195476 -2.31777 0
M  V30 5213 C 479.368 0.90433 -1.43242 0
M  V30 5214 O 480.574 0.825031 -1.59979 0
M  V30 5215 H 476.949 0.0819095 -0.747526 0
M  V30 5216 H 478.92 -0.536753 -2.93533 0
M  V30 5217 C 477.669 1.20902 -3.26003 0
M  V30 5218 H 476.992 0.672997 -3.94095 0
M  V30 5219 H 478.432 1.71006 -3.87986 0
M  V30 5220 C 476.891 2.25955 -2.49891 0
M  V30 5221 O 477.421 3.32969 -2.2471 0
M  V30 5222 N 475.627 2.00019 -2.1081 0
M  V30 5223 H 475.174 1.13006 -2.31489 0
M  V30 5224 H 475.132 2.70523 -1.60201 0
M  V30 5225 N 478.904 1.54736 -0.299062 0
M  V30 5226 C 480.129 2.04975 0.316254 0
M  V30 5227 C 480.554 1.17501 1.46885 0
M  V30 5228 O 479.912 0.178678 1.80417 0
M  V30 5229 C 479.96 3.52672 0.751997 0
M  V30 5230 O 479.064 3.68226 1.85697 0
M  V30 5231 H 478.405 0.661126 0.0617175 0
M  V30 5232 H 480.935 1.99805 -0.440341 0
M  V30 5233 H 480.945 3.94488 1.04133 0
M  V30 5234 H 479.62 4.158 -0.0911482 0
M  V30 5235 H 478.197 3.38316 1.56834 0
M  V30 5236 N 480.382 0.0267497 1.57577 0
M  V30 5237 C 481.622 -0.65659 1.93567 0
M  V30 5238 C 481.986 -1.69429 0.903213 0
M  V30 5239 O 483.187 -2.42994 1.14923 0
M  V30 5240 C 481.458 -1.25912 3.34486 0
M  V30 5241 S 483.017 -1.96386 3.924 0
M  V30 5242 H 479.835 -0.216237 0.67732 0
M  V30 5243 H 482.437 0.0898475 1.95293 0
M  V30 5244 H 481.141 -0.491405 4.07447 0
M  V30 5245 H 480.672 -2.04291 3.36198 0
M  V30 5246 H 482.687 -3.24202 3.75643 0
M  V30 5247 N 481.861 -1.55662 -0.24637 0
M  V30 5248 C 482.791 -1.93377 -1.30873 0
M  V30 5249 C 483.772 -0.798773 -1.50179 0
M  V30 5250 O 484.957 -1.0591 -1.62778 0
M  V30 5251 C 482.087 -2.22893 -2.66338 0
M  V30 5252 C 481.041 -3.38649 -2.61727 0
M  V30 5253 C 480.367 -3.53708 -4.00992 0
M  V30 5254 C 481.667 -4.74323 -2.18666 0
M  V30 5255 H 483.361 -2.82363 -0.995552 0
M  V30 5256 H 480.907 -1.35854 -0.477464 0
M  V30 5257 H 482.86 -2.47866 -3.40794 0
M  V30 5258 H 481.584 -1.30733 -2.99293 0
M  V30 5259 H 480.243 -3.13685 -1.89729 0
M  V30 5260 H 479.891 -2.58967 -4.31214 0
M  V30 5261 H 479.591 -4.31551 -3.98795 0
M  V30 5262 H 481.115 -3.81003 -4.77147 0
M  V30 5263 H 482.529 -4.98665 -2.82854 0
M  V30 5264 H 480.926 -5.55273 -2.27579 0
M  V30 5265 H 481.996 -4.71349 -1.13834 0
M  V30 5266 N 483.339 0.512053 -1.4905 0
M  V30 5267 C 484.287 1.63568 -1.65373 0
M  V30 5268 C 485.281 1.61228 -0.519806 0
M  V30 5269 O 486.487 1.65869 -0.699101 0
M  V30 5270 H 482.862 0.542019 -0.521267 0
M  V30 5271 H 484.833 1.4695 -2.59708 0
M  V30 5272 C 483.582 3.01761 -1.7273 0
M  V30 5273 H 482.905 3.04263 -2.59353 0
M  V30 5274 H 484.345 3.79948 -1.8819 0
M  V30 5275 C 482.804 3.33609 -0.46973 0
M  V30 5276 O 483.334 3.99607 0.409492 0
M  V30 5277 N 481.54 2.88651 -0.336003 0
M  V30 5278 H 481.087 2.35119 -1.05247 0
M  V30 5279 H 481.045 3.10328 0.504363 0
M  V30 5280 N 484.817 1.37938 0.762283 0
M  V30 5281 C 486.228 1.30094 1.33912 0
M  V30 5282 C 486.579 -0.0472026 1.96143 0
M  V30 5283 O 485.704 -0.94917 1.94473 0
M  V30 5284 C 486.299 2.35592 2.43478 0
M  V30 5285 C 484.858 2.31353 2.96905 0
M  V30 5286 C 484.005 2.18919 1.70205 0
M  V30 5287 H 486.956 1.48423 0.561816 0
M  V30 5288 H 486.977 2.00806 3.23199 0
M  V30 5289 H 486.489 3.33701 1.98155 0
M  V30 5290 H 484.59 1.36799 3.46579 0
M  V30 5291 H 484.703 3.25147 3.51875 0
M  V30 5292 H 483.067 1.65624 1.93496 0
M  V30 5293 H 483.85 3.18956 1.26973 0
M  V30 5294 N 486.295 -0.989507 1.22664 0
M  V30 5295 C 487.225 -2.09847 1.02404 0
M  V30 5296 C 488.206 -1.70007 -0.0561303 0
M  V30 5297 O 489.391 -1.93906 0.106748 0
M  V30 5298 C 486.521 -3.41996 0.604663 0
M  V30 5299 C 485.475 -3.95699 1.63115 0
M  V30 5300 C 484.801 -5.23936 1.0675 0
M  V30 5301 C 486.101 -4.25999 3.02196 0
M  V30 5302 H 487.795 -2.27054 1.95158 0
M  V30 5303 H 485.341 -1.09111 0.939727 0
M  V30 5304 H 487.294 -4.1899 0.45002 0
M  V30 5305 H 486.018 -3.24626 -0.35855 0
M  V30 5306 H 484.677 -3.2084 1.77362 0
M  V30 5307 H 484.325 -5.02909 0.0955422 0
M  V30 5308 H 484.025 -5.60833 1.75328 0
M  V30 5309 H 485.549 -6.0356 0.924516 0
M  V30 5310 H 486.963 -4.93777 2.91303 0
M  V30 5311 H 485.36 -4.74076 3.67929 0
M  V30 5312 H 486.43 -3.33636 3.51873 0
M  V30 5313 N 487.773 -1.03688 -1.18687 0
M  V30 5314 C 489.019 -0.739123 -1.88851 0
M  V30 5315 C 489.352 0.731042 -1.79915 0
M  V30 5316 O 488.627 1.53313 -1.19688 0
M  V30 5317 C 488.91 -1.20106 -3.3948 0
M  V30 5318 C 488.763 -2.73304 -3.57246 0
M  V30 5319 C 490.082 -0.788134 -4.32986 0
M  V30 5320 H 487.201 -0.269978 -0.68577 0
M  V30 5321 H 489.843 -1.28822 -1.3966 0
M  V30 5322 H 487.993 -0.733915 -3.81505 0
M  V30 5323 H 489.665 -3.28027 -3.24339 0
M  V30 5324 H 487.908 -3.13313 -3.00029 0
M  V30 5325 H 488.579 -3.00684 -4.62918 0
M  V30 5326 H 491.055 -1.19005 -3.98719 0
M  V30 5327 H 489.931 -1.13915 -5.36949 0
M  V30 5328 H 490.192 0.308988 -4.41019 0
M  V30 5329 N 489.251 1.34841 -0.815825 0
M  V30 5330 C 490.481 2.02436 -0.412695 0
M  V30 5331 C 490.889 1.61604 0.983906 0
M  V30 5332 O 490.232 0.813729 1.64694 0
M  V30 5333 C 490.294 3.56953 -0.427182 0
M  V30 5334 C 489.958 4.21083 -1.77589 0
M  V30 5335 C 490.955 4.42107 -2.73564 0
M  V30 5336 C 488.64 4.58006 -2.06243 0
M  V30 5337 C 490.634 4.99169 -3.9637 0
M  V30 5338 C 488.321 5.1478 -3.2931 0
M  V30 5339 C 489.319 5.35304 -4.24191 0
M  V30 5340 O 489.007 5.90878 -5.45086 0
M  V30 5341 H 488.739 0.655631 -0.164695 0
M  V30 5342 H 491.293 1.73246 -1.1034 0
M  V30 5343 H 489.523 3.85372 0.320175 0
M  V30 5344 H 491.212 4.05875 -0.0450875 0
M  V30 5345 H 491.978 4.13953 -2.52721 0
M  V30 5346 H 487.857 4.41339 -1.33196 0
M  V30 5347 H 491.401 5.15105 -4.70439 0
M  V30 5348 H 487.298 5.42362 -3.5002 0
M  V30 5349 H 488.066 6.0932 -5.46508 0
M  V30 5350 N 490.729 0.570148 1.46925 0
M  V30 5351 C 491.975 0.0510284 2.02736 0
M  V30 5352 C 492.308 -1.3006 1.44215 0
M  V30 5353 O 491.583 -1.84932 0.602521 0
M  V30 5354 C 491.866 -0.028215 3.60089 0
M  V30 5355 C 491.719 1.35142 4.29018 0
M  V30 5356 C 493.038 -0.735181 4.33916 0
M  V30 5357 H 490.157 0.0200178 0.736728 0
M  V30 5358 H 492.799 0.73493 1.75211 0
M  V30 5359 H 490.949 -0.610648 3.83671 0
M  V30 5360 H 492.621 1.97806 4.16738 0
M  V30 5361 H 490.864 1.9226 3.88868 0
M  V30 5362 H 491.535 1.24857 5.37694 0
M  V30 5363 H 494.011 -0.240519 4.15404 0
M  V30 5364 H 492.887 -0.759622 5.43618 0
M  V30 5365 H 493.148 -1.79397 4.04066 0
M  V30 5366 N 492.207 -1.54576 0.307264 0
M  V30 5367 C 493.456 -1.99442 -0.300976 0
M  V30 5368 C 493.769 -1.19928 -1.5452 0
M  V30 5369 O 494.975 -1.55092 -2.22842 0
M  V30 5370 C 493.431 -3.55084 -0.586809 0
M  V30 5371 C 493.039 -4.43413 0.639438 0
M  V30 5372 C 494.783 -4.0846 -1.1559 0
M  V30 5373 C 492.69 -5.90499 0.326411 0
M  V30 5374 H 491.62 -0.744986 -0.116238 0
M  V30 5375 H 494.271 -1.787 0.416947 0
M  V30 5376 H 492.653 -3.71749 -1.36449 0
M  V30 5377 H 493.827 -4.38522 1.41545 0
M  V30 5378 H 492.142 -4.00842 1.1276 0
M  V30 5379 H 494.739 -5.15926 -1.40445 0
M  V30 5380 H 495.082 -3.59443 -2.10015 0
M  V30 5381 H 495.615 -3.95362 -0.439778 0
M  V30 5382 H 492.354 -6.43676 1.23939 0
M  V30 5383 H 491.874 -5.98382 -0.412212 0
M  V30 5384 H 493.553 -6.46962 -0.0697393 0
M  V30 5385 N 493.685 -0.035106 -1.57561 0
M  V30 5386 C 494.931 0.64318 -1.92331 0
M  V30 5387 C 495.264 1.71434 -0.912368 0
M  V30 5388 O 494.539 1.94395 0.0640303 0
M  V30 5389 C 494.822 1.25411 -3.37556 0
M  V30 5390 C 494.675 0.192109 -4.4939 0
M  V30 5391 C 495.994 2.17041 -3.82859 0
M  V30 5392 H 493.113 0.232341 -0.699419 0
M  V30 5393 H 495.755 -0.0935889 -1.89769 0
M  V30 5394 H 493.905 1.88205 -3.39869 0
M  V30 5395 H 495.577 -0.438849 -4.59208 0
M  V30 5396 H 493.82 -0.481725 -4.31117 0
M  V30 5397 H 494.491 0.659292 -5.48049 0
M  V30 5398 H 496.967 1.64228 -3.8232 0
M  V30 5399 H 495.843 2.56738 -4.85157 0
M  V30 5400 H 496.104 3.06401 -3.18702 0
M  V30 5401 N 495.163 1.55791 0.238111 0
M  V30 5402 C 496.411 1.77681 0.963001 0
M  V30 5403 C 496.732 0.600674 1.85518 0
M  V30 5404 O 496.002 -0.383182 1.92116 0
M  V30 5405 H 494.582 0.655315 0.358568 0
M  V30 5406 H 497.244 1.93239 0.253945 0
M  V30 5407 H 496.34 2.69177 1.57956 0
M  V30 5408 N 496.642 -0.504142 1.49319 0
M  V30 5409 C 497.589 -1.60603 1.65756 0
M  V30 5410 C 498.559 -1.58425 0.499082 0
M  V30 5411 O 499.744 -1.76459 0.725728 0
M  V30 5412 C 496.884 -2.98764 1.72726 0
M  V30 5413 C 495.997 -3.10982 2.99857 0
M  V30 5414 C 495.132 -4.39857 2.97824 0
M  V30 5415 C 494.171 -4.45697 4.19548 0
M  V30 5416 N 493.308 -5.65995 4.15444 0
M  V30 5417 H 498.148 -1.45895 2.59843 0
M  V30 5418 H 495.685 -0.709891 1.28837 0
M  V30 5419 H 497.643 -3.78839 1.74747 0
M  V30 5420 H 496.273 -3.12183 0.821075 0
M  V30 5421 H 495.325 -2.23991 3.07461 0
M  V30 5422 H 496.637 -3.11157 3.89849 0
M  V30 5423 H 495.791 -5.2825 2.98391 0
M  V30 5424 H 494.53 -4.42242 2.05604 0
M  V30 5425 H 493.535 -3.55707 4.19229 0
M  V30 5426 H 494.76 -4.4503 5.12957 0
M  V30 5427 H 492.706 -5.69229 3.26059 0
M  V30 5428 H 492.623 -5.67773 4.99169 0
M  V30 5429 H 493.891 -6.56604 4.20109 0
M  V30 5430 N 498.12 -1.38341 -0.754957 0
M  V30 5431 C 499.536 -1.19508 -1.05783 0
M  V30 5432 C 499.736 -0.0428005 -2.01455 0
M  V30 5433 O 498.792 0.611861 -2.44975 0
M  V30 5434 C 500.105 -2.52091 -1.63923 0
M  V30 5435 C 501.653 -2.58762 -1.76101 0
M  V30 5436 C 502.128 -3.91517 -2.37652 0
M  V30 5437 N 503.619 -3.93049 -2.45085 0
M  V30 5438 C 504.354 -4.9253 -2.93602 0
M  V30 5439 N 503.85 -6.02408 -3.42165 0
M  V30 5440 N 505.643 -4.79921 -2.92629 0
M  V30 5441 H 497.794 -2.1206 -0.120056 0
M  V30 5442 H 500.057 -0.94089 -0.11589 0
M  V30 5443 H 499.763 -3.36858 -1.01093 0
M  V30 5444 H 499.637 -2.70388 -2.63003 0
M  V30 5445 H 502.024 -1.74391 -2.38058 0
M  V30 5446 H 502.105 -2.44333 -0.757294 0
M  V30 5447 H 501.749 -4.76309 -1.76329 0
M  V30 5448 H 501.679 -4.03256 -3.38662 0
M  V30 5449 H 504.17 -3.13685 -2.10736 0
M  V30 5450 H 504.483 -6.74248 -3.77637 0
M  V30 5451 H 502.828 -6.0603 -3.40225 0
M  V30 5452 H 506.019 -3.93194 -2.54001 0
M  V30 5453 H 506.192 -5.57601 -3.30128 0
M  V30 5454 N 499.598 0.982988 -1.23187 0
M  V30 5455 C 500.845 1.72392 -1.06241 0
M  V30 5456 C 501.173 1.9032 0.40108 0
M  V30 5457 O 500.428 1.45084 1.31336 0
M  V30 5458 C 500.727 3.12736 -1.73006 0
M  V30 5459 C 500.393 3.14695 -3.22921 0
M  V30 5460 C 499.055 3.14937 -3.63824 0
M  V30 5461 C 501.407 3.10211 -4.1883 0
M  V30 5462 C 498.735 3.08408 -4.99101 0
M  V30 5463 C 501.087 3.05224 -5.54095 0
M  V30 5464 C 499.751 3.03787 -5.94365 0
M  V30 5465 H 499.021 0.630829 -0.388762 0
M  V30 5466 H 501.668 1.15053 -1.53085 0
M  V30 5467 H 499.973 3.73446 -1.18514 0
M  V30 5468 H 501.67 3.68828 -1.57374 0
M  V30 5469 H 498.26 3.15262 -2.90358 0
M  V30 5470 H 502.444 3.09166 -3.8824 0
M  V30 5471 H 497.7 3.05646 -5.29519 0
M  V30 5472 H 501.874 3.00712 -6.28128 0
M  V30 5473 H 499.501 2.98483 -6.99151 0
M  V30 5474 N 501.076 1.04316 1.18135 0
M  V30 5475 C 502.492 0.762858 1.40188 0
M  V30 5476 C 502.692 -0.646547 1.90846 0
M  V30 5477 O 501.748 -1.41036 2.0944 0
M  V30 5478 C 503.061 1.81106 2.40044 0
M  V30 5479 C 504.609 1.83226 2.53766 0
M  V30 5480 C 505.084 2.87044 3.56889 0
M  V30 5481 N 506.575 2.85951 3.64398 0
M  V30 5482 C 507.31 3.62932 4.43923 0
M  V30 5483 N 506.806 4.49672 5.27036 0
M  V30 5484 N 508.599 3.51411 4.38711 0
M  V30 5485 H 500.75 1.95264 0.835805 0
M  V30 5486 H 503.013 0.845017 0.429709 0
M  V30 5487 H 502.719 2.82214 2.09876 0
M  V30 5488 H 502.593 1.64529 3.39426 0
M  V30 5489 H 504.98 0.827869 2.8325 0
M  V30 5490 H 505.061 2.03879 1.54489 0
M  V30 5491 H 504.705 3.87663 3.28145 0
M  V30 5492 H 504.635 2.63645 4.5585 0
M  V30 5493 H 507.126 2.23051 3.05052 0
M  V30 5494 H 507.439 5.05116 5.84874 0
M  V30 5495 H 505.784 4.53738 5.26447 0
M  V30 5496 H 508.975 2.83047 3.72829 0
M  V30 5497 H 509.148 4.11654 5.00445 0
M  V30 5498 N 502.554 -1.34406 0.822964 0
M  V30 5499 C 503.501 -2.29519 0.24284 0
M  V30 5500 C 504.471 -1.5359 -0.632397 0
M  V30 5501 O 505.656 -1.8196 -0.57403 0
M  V30 5502 C 502.796 -3.40032 -0.58925 0
M  V30 5503 C 501.909 -4.30899 0.308236 0
M  V30 5504 C 501.044 -5.28515 -0.533425 0
M  V30 5505 C 500.083 -6.1102 0.363444 0
M  V30 5506 N 499.22 -7.00725 -0.439147 0
M  V30 5507 H 504.06 -2.78537 1.05929 0
M  V30 5508 H 501.597 -1.3707 0.533872 0
M  V30 5509 H 503.555 -4.0279 -1.087 0
M  V30 5510 H 502.185 -2.92248 -1.37081 0
M  V30 5511 H 501.237 -3.69002 0.924203 0
M  V30 5512 H 502.549 -4.88717 0.997862 0
M  V30 5513 H 501.703 -5.96725 -1.09565 0
M  V30 5514 H 500.442 -4.71235 -1.25656 0
M  V30 5515 H 499.447 -5.41743 0.937812 0
M  V30 5516 H 500.672 -6.70381 1.08469 0
M  V30 5517 H 498.618 -6.45913 -1.14595 0
M  V30 5518 H 498.535 -7.55756 0.19209 0
M  V30 5519 H 499.803 -7.73263 -0.984124 0
M  V30 5520 N 504.032 -0.577932 -1.46621 0
M  V30 5521 C 504.979 0.158048 -2.30258 0
M  V30 5522 C 505.949 0.888669 -1.40328 0
M  V30 5523 O 507.134 0.880283 -1.6928 0
M  V30 5524 C 504.274 1.16884 -3.24703 0
M  V30 5525 C 503.387 0.442163 -4.29731 0
M  V30 5526 C 502.522 1.44007 -5.11308 0
M  V30 5527 C 501.561 0.69952 -6.0809 0
M  V30 5528 N 500.698 1.64525 -6.82551 0
M  V30 5529 H 505.538 -0.561242 -2.92667 0
M  V30 5530 H 503.075 -0.288591 -1.44241 0
M  V30 5531 H 505.033 1.7677 -3.779 0
M  V30 5532 H 503.663 1.85591 -2.64113 0
M  V30 5533 H 502.715 -0.271632 -3.79429 0
M  V30 5534 H 504.027 -0.136992 -4.98612 0
M  V30 5535 H 503.181 2.11186 -5.68758 0
M  V30 5536 H 501.92 2.05315 -4.42377 0
M  V30 5537 H 500.925 0.0139217 -5.49798 0
M  V30 5538 H 502.15 0.091894 -6.79038 0
M  V30 5539 H 500.096 2.24653 -6.16334 0
M  V30 5540 H 500.013 1.11878 -7.47676 0
M  V30 5541 H 501.281 2.30754 -7.44562 0
M  V30 5542 N 505.51 1.54411 -0.315457 0
M  V30 5543 C 506.735 2.05299 0.294496 0
M  V30 5544 C 507.16 1.19052 1.4563 0
M  V30 5545 O 506.518 0.197804 1.80218 0
M  V30 5546 C 506.566 3.5345 0.714549 0
M  V30 5547 O 505.67 3.70175 1.81781 0
M  V30 5548 H 505.011 0.661743 0.0547019 0
M  V30 5549 H 507.541 1.99327 -0.461508 0
M  V30 5550 H 507.551 3.9557 0.999426 0
M  V30 5551 H 506.226 4.1568 -0.135244 0
M  V30 5552 H 504.803 3.3996 1.53236 0
M  V30 5553 N 506.988 0.0434614 1.5754 0
M  V30 5554 C 508.234 -0.627109 1.93491 0
M  V30 5555 C 508.589 -1.68904 0.921362 0
M  V30 5556 O 507.882 -1.91504 -0.0605799 0
M  V30 5557 C 508.076 -1.2738 3.3393 0
M  V30 5558 C 507.905 -0.27603 4.48852 0
M  V30 5559 C 506.675 0.129244 5.05135 0
M  V30 5560 C 508.873 0.475462 5.12098 0
M  V30 5561 N 506.855 1.12068 6.03584 0
M  V30 5562 C 508.226 1.32021 6.05781 0
M  V30 5563 C 510.281 0.534611 4.95022 0
M  V30 5564 C 508.984 2.2188 6.84223 0
M  V30 5565 C 511.01 1.42059 5.74085 0
M  V30 5566 C 510.372 2.25309 6.67394 0
M  V30 5567 H 506.471 -0.201354 0.755633 0
M  V30 5568 H 509.055 0.113991 1.94366 0
M  V30 5569 H 507.226 -1.98496 3.33847 0
M  V30 5570 H 508.958 -1.90255 3.57191 0
M  V30 5571 H 505.713 -0.248145 4.72949 0
M  V30 5572 H 506.137 1.61306 6.57502 0
M  V30 5573 H 510.779 -0.0947817 4.22694 0
M  V30 5574 H 508.497 2.85868 7.55847 0
M  V30 5575 H 512.083 1.47083 5.62901 0
M  V30 5576 H 510.963 2.92754 7.27506 0
M  V30 5577 N 508.466 -1.55915 -0.229846 0
M  V30 5578 C 509.376 -1.94891 -1.30593 0
M  V30 5579 C 510.392 -0.851604 -1.51736 0
M  V30 5580 O 511.568 -1.15447 -1.65027 0
M  V30 5581 C 508.633 -2.25052 -2.63728 0
M  V30 5582 C 507.694 -3.48306 -2.5096 0
M  V30 5583 C 506.927 -3.77019 -3.77747 0
M  V30 5584 O 507.15 -3.07534 -4.80395 0
M  V30 5585 O 506.084 -4.70523 -3.75356 0
M  V30 5586 H 509.91 -2.86581 -1.00525 0
M  V30 5587 H 507.495 -1.43017 -0.432025 0
M  V30 5588 H 509.377 -2.45682 -3.42372 0
M  V30 5589 H 508.052 -1.36538 -2.93495 0
M  V30 5590 H 506.959 -3.32964 -1.70546 0
M  V30 5591 H 508.292 -4.37177 -2.26136 0
M  V30 5592 N 509.944 0.496216 -1.49584 0
M  V30 5593 C 511.19 1.25189 -1.59548 0
M  V30 5594 C 511.523 1.9212 -0.283466 0
M  V30 5595 O 510.798 1.80947 0.713324 0
M  V30 5596 C 511.081 2.31516 -2.75812 0
M  V30 5597 C 510.934 1.69054 -4.16822 0
M  V30 5598 C 512.253 3.3304 -2.87702 0
M  V30 5599 H 509.372 0.45379 -0.580727 0
M  V30 5600 H 512.014 0.549327 -1.81886 0
M  V30 5601 H 510.164 2.91438 -2.56897 0
M  V30 5602 H 511.836 1.12923 -4.47265 0
M  V30 5603 H 510.079 0.994485 -4.22247 0
M  V30 5604 H 510.75 2.462 -4.94054 0
M  V30 5605 H 513.226 2.83114 -3.04936 0
M  V30 5606 H 512.102 4.04794 -3.7072 0
M  V30 5607 H 512.363 3.95655 -1.97255 0
M  V30 5608 N 511.423 1.38739 0.74761 0
M  V30 5609 C 512.653 1.3832 1.53464 0
M  V30 5610 C 513.061 -0.0273464 1.8918 0
M  V30 5611 O 512.404 -1.00588 1.53713 0
M  V30 5612 C 512.466 2.18007 2.85855 0
M  V30 5613 C 512.13 3.66762 2.72644 0
M  V30 5614 C 513.127 4.60124 2.42037 0
M  V30 5615 C 510.812 4.10193 2.89909 0
M  V30 5616 C 512.806 5.94897 2.28859 0
M  V30 5617 C 510.493 5.45045 2.7635 0
M  V30 5618 C 511.491 6.37211 2.45869 0
M  V30 5619 O 511.179 7.69581 2.3238 0
M  V30 5620 H 510.911 0.474718 0.481268 0
M  V30 5621 H 513.465 1.83012 0.932518 0
M  V30 5622 H 511.695 1.68043 3.48279 0
M  V30 5623 H 513.384 2.09921 3.47402 0
M  V30 5624 H 514.15 4.27874 2.28361 0
M  V30 5625 H 510.029 3.38797 3.1263 0
M  V30 5626 H 513.573 6.66802 2.04989 0
M  V30 5627 H 509.47 5.76889 2.89601 0
M  V30 5628 H 510.238 7.80169 2.47546 0
M  V30 5629 N 512.901 -0.976442 1.23707 0
M  V30 5630 C 513.833 -2.07212 0.979574 0
M  V30 5631 C 514.846 -1.6273 -0.0478528 0
M  V30 5632 O 516.035 -1.77506 0.18815 0
M  V30 5633 C 513.135 -3.35835 0.45479 0
M  V30 5634 C 512.308 -4.09268 1.54331 0
M  V30 5635 C 511.367 -5.16166 1.02271 0
M  V30 5636 O 510.393 -5.42827 1.71254 0
M  V30 5637 N 511.595 -5.80313 -0.147419 0
M  V30 5638 H 514.36 -2.29878 1.92292 0
M  V30 5639 H 511.921 -1.14343 1.14618 0
M  V30 5640 H 513.913 -4.04597 0.0914631 0
M  V30 5641 H 512.483 -3.10106 -0.394068 0
M  V30 5642 H 511.703 -3.34906 2.07923 0
M  V30 5643 H 512.991 -4.55095 2.27522 0
M  V30 5644 H 512.389 -5.61043 -0.724353 0
M  V30 5645 H 510.946 -6.50231 -0.451972 0
M  V30 5646 N 514.379 -1.04941 -1.1758 0
M  V30 5647 C 515.627 -0.756492 -1.87408 0
M  V30 5648 C 515.948 0.718478 -1.81281 0
M  V30 5649 O 515.218 1.519 -1.23706 0
M  V30 5650 H 513.798 -0.276841 -0.693807 0
M  V30 5651 H 516.46 -1.32803 -1.42652 0
M  V30 5652 H 515.556 -1.06918 -2.93215 0
M  V30 5653 N 515.857 1.33968 -0.830081 0
M  V30 5654 C 517.103 1.98357 -0.422191 0
M  V30 5655 C 517.436 1.65633 1.01387 0
M  V30 5656 O 516.711 0.931648 1.70735 0
M  V30 5657 C 516.994 3.54492 -0.633043 0
M  V30 5658 C 516.847 3.96934 -2.11574 0
M  V30 5659 C 518.166 4.40039 -0.0735584 0
M  V30 5660 H 515.285 0.720544 -0.154871 0
M  V30 5661 H 517.927 1.58749 -1.04397 0
M  V30 5662 H 516.077 3.88361 -0.103775 0
M  V30 5663 H 517.749 3.73363 -2.7092 0
M  V30 5664 H 515.992 3.46984 -2.60354 0
M  V30 5665 H 516.663 5.05651 -2.21406 0
M  V30 5666 H 519.139 4.12764 -0.52585 0
M  V30 5667 H 518.015 5.48327 -0.250841 0
M  V30 5668 H 518.276 4.30124 1.02202 0
M  V30 5669 N 517.335 0.585699 1.46312 0
M  V30 5670 C 518.575 0.0751432 2.04262 0
M  V30 5671 C 518.939 -1.26201 1.44697 0
M  V30 5672 O 520.14 -1.86198 1.93865 0
M  V30 5673 C 518.411 0.013478 3.57397 0
M  V30 5674 S 519.97 -0.439068 4.36598 0
M  V30 5675 H 516.788 0.0389228 0.709934 0
M  V30 5676 H 519.39 0.778871 1.79315 0
M  V30 5677 H 518.094 0.990558 3.98266 0
M  V30 5678 H 517.625 -0.712927 3.86886 0
M  V30 5679 H 519.64 -1.6932 4.66417 0
M  V30 5680 N 518.813 -1.54241 0.323641 0
M  V30 5681 C 519.745 -2.21836 -0.576311 0
M  V30 5682 C 520.758 -1.21837 -1.07979 0
M  V30 5683 O 521.947 -1.48306 -0.99336 0
M  V30 5684 C 519.047 -2.86923 -1.80356 0
M  V30 5685 C 518.22 -4.1306 -1.43875 0
M  V30 5686 C 517.279 -4.6174 -2.52353 0
M  V30 5687 O 516.305 -5.26421 -2.16494 0
M  V30 5688 N 517.507 -4.35974 -3.83284 0
M  V30 5689 H 520.272 -2.997 0.00247987 0
M  V30 5690 H 517.833 -1.61233 0.146848 0
M  V30 5691 H 519.825 -3.16414 -2.52318 0
M  V30 5692 H 518.395 -2.12765 -2.29019 0
M  V30 5693 H 517.615 -3.90334 -0.550752 0
M  V30 5694 H 518.903 -4.95148 -1.17071 0
M  V30 5695 H 518.301 -3.84203 -4.15216 0
M  V30 5696 H 516.858 -4.70119 -4.51477 0
M  V30 5697 N 520.291 -0.0518155 -1.57515 0
M  V30 5698 C 521.238 0.922352 -2.11569 0
M  V30 5699 C 522.208 1.30842 -1.02321 0
M  V30 5700 O 523.393 1.39778 -1.29872 0
M  V30 5701 C 520.533 2.19167 -2.6657 0
M  V30 5702 C 519.646 1.86003 -3.89906 0
M  V30 5703 C 518.781 3.07398 -4.33221 0
M  V30 5704 C 517.82 2.70158 -5.49255 0
M  V30 5705 N 516.957 3.84248 -5.8762 0
M  V30 5706 H 521.797 0.454506 -2.94514 0
M  V30 5707 H 519.334 0.212718 -1.45554 0
M  V30 5708 H 521.292 2.93443 -2.96559 0
M  V30 5709 H 519.922 2.63528 -1.86421 0
M  V30 5710 H 518.974 1.01874 -3.66505 0
M  V30 5711 H 520.286 1.54592 -4.74239 0
M  V30 5712 H 519.44 3.89972 -4.64765 0
M  V30 5713 H 518.179 3.41988 -3.477 0
M  V30 5714 H 517.184 1.86001 -5.17382 0
M  V30 5715 H 518.409 2.36759 -6.36492 0
M  V30 5716 H 516.355 4.18638 -5.05053 0
M  V30 5717 H 516.272 3.56538 -6.66646 0
M  V30 5718 H 517.54 4.6746 -6.2378 0
M  V30 5719 N 521.769 1.56035 0.221574 0
M  V30 5720 C 523.017 1.78693 0.944102 0
M  V30 5721 C 523.338 0.620317 1.8487 0
M  V30 5722 O 522.608 -0.362784 1.92512 0
M  V30 5723 H 521.188 0.659082 0.351597 0
M  V30 5724 H 523.85 1.93497 0.233435 0
M  V30 5725 H 522.946 2.70837 1.55093 0
M  V30 5726 N 523.247 -0.488276 1.49845 0
M  V30 5727 C 524.495 -1.23911 1.59657 0
M  V30 5728 C 524.816 -1.92816 0.291005 0
M  V30 5729 O 524.086 -1.83328 -0.690485 0
M  V30 5730 H 522.666 -0.460357 0.588286 0
M  V30 5731 H 525.328 -0.564794 1.86537 0
M  V30 5732 H 524.424 -1.99625 2.39909 0
M  V30 5733 N 524.725 -1.39134 -0.740242 0
M  V30 5734 C 525.965 -1.37499 -1.51239 0
M  V30 5735 C 526.329 0.0310084 -1.91975 0
M  V30 5736 O 527.53 0.172319 -2.68247 0
M  V30 5737 C 525.801 -2.31566 -2.72235 0
M  V30 5738 S 527.36 -2.48073 -3.61947 0
M  V30 5739 H 524.178 -0.48768 -0.517387 0
M  V30 5740 H 526.78 -1.75183 -0.867826 0
M  V30 5741 H 525.484 -3.32592 -2.40439 0
M  V30 5742 H 525.015 -1.9508 -3.41625 0
M  V30 5743 H 527.03 -1.71473 -4.6563 0
M  V30 5744 N 526.204 0.969867 -1.24223 0
M  V30 5745 C 527.62 1.23809 -1.00716 0
M  V30 5746 C 527.82 1.99469 0.285358 0
M  V30 5747 O 526.876 2.31764 1.00207 0
M  V30 5748 C 528.189 2.02734 -2.2208 0
M  V30 5749 C 529.737 2.15834 -2.26681 0
M  V30 5750 C 530.212 2.98154 -3.47661 0
M  V30 5751 N 531.703 3.05737 -3.47964 0
M  V30 5752 C 532.438 3.69785 -4.38231 0
M  V30 5753 N 531.934 4.35569 -5.3875 0
M  V30 5754 N 533.727 3.66775 -4.25949 0
M  V30 5755 H 525.878 0.463294 -2.07286 0
M  V30 5756 H 528.141 0.267348 -0.909521 0
M  V30 5757 H 527.847 1.54524 -3.15935 0
M  V30 5758 H 527.721 3.0347 -2.24021 0
M  V30 5759 H 530.108 2.63248 -1.33359 0
M  V30 5760 H 530.189 1.14453 -2.28767 0
M  V30 5761 H 529.833 2.51435 -4.41297 0
M  V30 5762 H 529.763 3.99729 -3.42818 0
M  V30 5763 H 532.254 2.58941 -2.75242 0
M  V30 5764 H 532.567 4.82251 -6.03866 0
M  V30 5765 H 530.912 4.34244 -5.42639 0
M  V30 5766 H 534.103 3.14558 -3.46657 0
M  V30 5767 H 534.276 4.16407 -4.96497 0
M  V30 5768 N 527.682 1.05563 1.17022 0
M  V30 5769 C 528.907 0.788437 1.91829 0
M  V30 5770 C 529.332 -0.650356 1.76499 0
M  V30 5771 O 528.69 -1.45229 1.08527 0
M  V30 5772 C 528.738 1.1786 3.40795 0
M  V30 5773 O 527.842 0.312965 4.11211 0
M  V30 5774 H 527.183 0.288794 0.597908 0
M  V30 5775 H 529.713 1.40948 1.48307 0
M  V30 5776 H 529.723 1.14697 3.91546 0
M  V30 5777 H 528.398 2.22666 3.51273 0
M  V30 5778 H 526.975 0.405515 3.70689 0
M  V30 5779 N 529.16 -1.33526 0.837174 0
M  V30 5780 C 530.07 -2.33023 0.271568 0
M  V30 5781 C 531.086 -1.63272 -0.601514 0
M  V30 5782 O 532.262 -1.94939 -0.506038 0
M  V30 5783 C 529.327 -3.42382 -0.545448 0
M  V30 5784 C 528.388 -4.27857 0.351709 0
M  V30 5785 C 527.621 -5.31994 -0.426409 0
M  V30 5786 O 527.844 -5.45763 -1.65828 0
M  V30 5787 O 526.778 -6.01572 0.1987 0
M  V30 5788 H 530.604 -2.83256 1.09545 0
M  V30 5789 H 528.189 -1.36837 0.599655 0
M  V30 5790 H 530.071 -4.09122 -1.00979 0
M  V30 5791 H 528.746 -2.94369 -1.34641 0
M  V30 5792 H 527.653 -3.6399 0.863853 0
M  V30 5793 H 528.986 -4.79349 1.1174 0
M  V30 5794 N 530.638 -0.59345 -1.46 0
M  V30 5795 C 532.049 -0.169801 -1.85926 0
M  V30 5796 C 532.4 1.26984 -1.49565 0
M  V30 5797 O 531.525 1.96076 -0.915602 0
M  V30 5798 C 532.12 -0.301385 -3.37457 0
M  V30 5799 C 530.679 0.0674684 -3.7634 0
M  V30 5800 C 529.826 -0.632383 -2.69993 0
M  V30 5801 H 532.777 -0.801014 -1.37002 0
M  V30 5802 H 532.798 0.470331 -3.77582 0
M  V30 5803 H 532.31 -1.34927 -3.63891 0
M  V30 5804 H 530.411 1.11507 -3.55523 0
M  V30 5805 H 530.524 -0.316332 -4.78055 0
M  V30 5806 H 528.888 -0.0714961 -2.546 0
M  V30 5807 H 529.671 -1.68212 -2.99265 0
M  V30 5808 N 532.116 1.54067 -0.331816 0
M  V30 5809 C 533.365 1.99895 0.269209 0
M  V30 5810 C 533.678 1.22371 1.52593 0
M  V30 5811 O 534.884 1.58618 2.20347 0
M  V30 5812 C 533.34 3.55972 0.530244 0
M  V30 5813 C 532.948 4.4234 -0.709901 0
M  V30 5814 C 534.692 4.10247 1.09077 0
M  V30 5815 C 532.599 5.89905 -0.420312 0
M  V30 5816 H 531.529 0.746741 0.104371 0
M  V30 5817 H 534.18 1.78014 -0.445324 0
M  V30 5818 H 532.562 3.73873 1.30518 0
M  V30 5819 H 533.736 4.36215 -1.48504 0
M  V30 5820 H 532.051 3.98997 -1.19123 0
M  V30 5821 H 534.648 5.18095 1.32219 0
M  V30 5822 H 534.991 3.62739 2.0427 0
M  V30 5823 H 535.524 3.96011 0.376824 0
M  V30 5824 H 532.263 6.41623 -1.34164 0
M  V30 5825 H 531.783 5.98962 0.316962 0
M  V30 5826 H 533.462 6.46991 -0.0331956 0
M  V30 5827 N 533.594 0.0601682 1.57485 0
M  V30 5828 C 534.526 -0.94047 2.09016 0
M  V30 5829 C 535.539 -1.26897 1.01985 0
M  V30 5830 O 536.728 -1.22819 1.29529 0
M  V30 5831 C 533.828 -2.25955 2.52582 0
M  V30 5832 C 533.001 -2.11163 3.83052 0
M  V30 5833 C 532.06 -3.26273 4.12835 0
M  V30 5834 O 531.086 -3.01779 4.82616 0
M  V30 5835 N 532.288 -4.51022 3.65458 0
M  V30 5836 H 535.053 -0.500578 2.9549 0
M  V30 5837 H 532.614 -0.125852 1.6141 0
M  V30 5838 H 534.606 -3.01846 2.69575 0
M  V30 5839 H 533.176 -2.61481 1.71308 0
M  V30 5840 H 532.396 -1.19808 3.75552 0
M  V30 5841 H 533.684 -1.98517 4.68475 0
M  V30 5842 H 533.082 -4.73811 3.09062 0
M  V30 5843 H 531.639 -5.23978 3.87673 0
M  V30 5844 N 535.072 -1.5615 -0.213296 0
M  V30 5845 C 536.005 -1.88115 -1.29182 0
M  V30 5846 C 536.983 -0.739348 -1.44819 0
M  V30 5847 O 538.167 -0.988541 -1.605 0
M  V30 5848 C 535.294 -2.09541 -2.66102 0
M  V30 5849 C 534.34 -3.32236 -2.67436 0
M  V30 5850 S 535.173 -4.87915 -2.20679 0
M  V30 5851 C 536.329 -5.12387 -3.59458 0
M  V30 5852 H 536.562 -2.793 -1.01876 0
M  V30 5853 H 534.095 -1.48692 -0.415934 0
M  V30 5854 H 536.053 -2.22568 -3.44925 0
M  V30 5855 H 534.714 -1.19138 -2.90628 0
M  V30 5856 H 533.907 -3.44297 -3.6807 0
M  V30 5857 H 533.509 -3.18108 -1.96681 0
M  V30 5858 H 535.801 -5.01791 -4.55205 0
M  V30 5859 H 536.744 -6.14236 -3.52306 0
M  V30 5860 H 537.152 -4.40089 -3.53528 0
M  V30 5861 N 536.55 0.480323 -1.50102 0
M  V30 5862 C 537.46 1.60547 -1.71061 0
M  V30 5863 C 538.476 1.63564 -0.593529 0
M  V30 5864 O 539.652 1.81604 -0.870751 0
M  V30 5865 C 536.717 2.96814 -1.79171 0
M  V30 5866 C 535.778 3.04259 -3.02861 0
M  V30 5867 C 535.011 4.34027 -3.10574 0
M  V30 5868 O 535.234 5.24009 -2.25323 0
M  V30 5869 O 534.168 4.46873 -4.03223 0
M  V30 5870 H 537.994 1.45788 -2.6642 0
M  V30 5871 H 535.579 0.658838 -1.34088 0
M  V30 5872 H 537.461 3.77765 -1.86738 0
M  V30 5873 H 536.136 3.11791 -0.869947 0
M  V30 5874 H 535.043 2.22419 -3.008 0
M  V30 5875 H 536.376 2.94216 -3.94586 0
M  V30 5876 N 538.028 1.39524 0.732853 0
M  V30 5877 C 538.976 1.38563 1.86824 0
M  V30 5878 C 539.97 0.268467 1.67259 0
M  V30 5879 O 541.176 0.438613 1.74574 0
M  V30 5880 H 537.551 0.432737 0.615014 0
M  V30 5881 H 539.522 2.34328 1.84751 0
M  V30 5882 C 538.271 1.2481 3.24527 0
M  V30 5883 H 537.594 2.10044 3.40179 0
M  V30 5884 H 539.034 1.28194 4.04156 0
M  V30 5885 C 537.493 -0.0432825 3.36872 0
M  V30 5886 O 538.023 -1.01268 3.88726 0
M  V30 5887 N 536.229 -0.107055 2.90403 0
M  V30 5888 H 535.776 0.682512 2.48394 0
M  V30 5889 H 535.734 -0.970618 2.99042 0
M  V30 5890 N 539.506 -0.963266 1.24736 0
M  V30 5891 C 540.731 -1.74699 1.11781 0
M  V30 5892 C 541.156 -1.85267 -0.325258 0
M  V30 5893 O 540.514 -1.32681 -1.23553 0
M  V30 5894 C 540.562 -3.14322 1.76731 0
M  V30 5895 O 539.666 -3.99043 1.04109 0
M  V30 5896 H 539.007 -0.53684 0.390767 0
M  V30 5897 H 541.537 -1.20801 1.65131 0
M  V30 5898 H 541.547 -3.64824 1.82668 0
M  V30 5899 H 540.222 -3.05946 2.81726 0
M  V30 5900 H 538.799 -3.5752 1.05991 0
M  V30 5901 N 540.985 -1.06182 -1.16461 0
M  V30 5902 C 541.918 -0.615859 -2.19733 0
M  V30 5903 C 542.896 0.360766 -1.58547 0
M  V30 5904 O 544.08 0.270009 -1.86556 0
M  V30 5905 C 541.207 0.097312 -3.3856 0
M  V30 5906 C 540.253 -0.835889 -4.18229 0
M  V30 5907 S 541.086 -2.33052 -4.82128 0
M  V30 5908 C 542.242 -1.62881 -6.04335 0
M  V30 5909 H 542.475 -1.49079 -2.57221 0
M  V30 5910 H 540.008 -0.874692 -1.27234 0
M  V30 5911 H 541.966 0.502563 -4.07412 0
M  V30 5912 H 540.627 0.948418 -2.99439 0
M  V30 5913 H 539.82 -0.283426 -5.03202 0
M  V30 5914 H 539.422 -1.18097 -3.54865 0
M  V30 5915 H 541.714 -0.933764 -6.71034 0
M  V30 5916 H 542.657 -2.45641 -6.64128 0
M  V30 5917 H 543.065 -1.11189 -5.53441 0
M  V30 5918 N 542.463 1.3308 -0.844243 0
M  V30 5919 C 543.711 1.97215 -0.441676 0
M  V30 5920 C 544.032 1.67185 1.0037 0
M  V30 5921 O 543.302 0.973588 1.69994 0
M  V30 5922 H 541.882 0.72959 -0.160335 0
M  V30 5923 H 544.544 1.62348 -1.07838 0
M  V30 5924 H 543.64 3.06698 -0.57815 0
M  V30 5925 N 543.941 0.601185 1.45683 0
M  V30 5926 C 545.169 0.100054 2.06658 0
M  V30 5927 C 545.584 -1.21285 1.44691 0
M  V30 5928 O 544.941 -1.73735 0.558772 0
M  V30 5929 C 544.992 -0.0528579 3.61461 0
M  V30 5930 O 544.713 1.20809 4.21114 0
M  V30 5931 C 546.214 -0.586193 4.39407 0
M  V30 5932 H 543.434 0.065905 0.667756 0
M  V30 5933 H 545.978 0.827101 1.87028 0
M  V30 5934 H 544.133 -0.730203 3.80456 0
M  V30 5935 H 544.547 1.03368 5.14213 0
M  V30 5936 H 546.021 -0.642297 5.4825 0
M  V30 5937 H 546.498 -1.60713 4.0874 0
M  V30 5938 H 547.104 0.0568935 4.25262 0
M  V30 5939 N 545.419 -1.53889 0.339982 0
M  V30 5940 C 546.349 -2.27843 -0.510856 0
M  V30 5941 C 547.33 -1.29267 -1.10563 0
M  V30 5942 O 548.515 -1.58104 -1.12768 0
M  V30 5943 C 545.645 -3.04857 -1.66372 0
M  V30 5944 C 544.599 -4.10907 -1.19746 0
M  V30 5945 C 543.925 -4.75855 -2.43857 0
M  V30 5946 C 545.225 -5.21435 -0.300501 0
M  V30 5947 H 546.919 -2.99212 0.106067 0
M  V30 5948 H 544.465 -1.43904 0.0524533 0
M  V30 5949 H 546.418 -3.5533 -2.26537 0
M  V30 5950 H 545.142 -2.31133 -2.30749 0
M  V30 5951 H 543.801 -3.61342 -0.618654 0
M  V30 5952 H 543.449 -3.9873 -3.06633 0
M  V30 5953 H 543.149 -5.47502 -2.13343 0
M  V30 5954 H 544.673 -5.2911 -3.04754 0
M  V30 5955 H 546.087 -5.67565 -0.80889 0
M  V30 5956 H 544.484 -6.00036 -0.0874076 0
M  V30 5957 H 545.554 -4.80328 0.664321 0
M  V30 5958 N 546.897 -0.0685191 -1.57451 0
M  V30 5959 C 548.313 0.288101 -1.56978 0
M  V30 5960 C 548.513 1.70262 -1.07765 0
M  V30 5961 O 547.569 2.4135 -0.742054 0
M  V30 5962 C 548.882 0.100745 -3.00531 0
M  V30 5963 C 550.43 0.170531 -3.12535 0
M  V30 5964 C 550.905 0.0114944 -4.57999 0
M  V30 5965 N 552.396 0.0672065 -4.63151 0
M  V30 5966 C 553.131 -0.0314813 -5.73391 0
M  V30 5967 N 552.627 -0.183503 -6.92557 0
M  V30 5968 N 554.42 0.0253489 -5.62094 0
M  V30 5969 H 546.571 -0.993026 -1.87757 0
M  V30 5970 H 548.834 -0.386981 -0.865419 0
M  V30 5971 H 548.54 -0.875197 -3.40636 0
M  V30 5972 H 548.414 0.854457 -3.67395 0
M  V30 5973 H 550.801 1.13696 -2.72318 0
M  V30 5974 H 550.882 -0.614229 -2.48316 0
M  V30 5975 H 550.526 -0.951684 -4.98904 0
M  V30 5976 H 550.456 0.815617 -5.20245 0
M  V30 5977 H 552.947 0.183246 -3.77455 0
M  V30 5978 H 553.26 -0.251041 -7.72392 0
M  V30 5979 H 551.605 -0.218822 -6.94655 0
M  V30 5980 H 554.796 0.142794 -4.67882 0
M  V30 5981 H 554.969 -0.0550166 -6.47977 0
M  V30 5982 N 548.375 1.56261 0.205012 0
M  V30 5983 C 549.603 1.84141 0.943386 0
M  V30 5984 C 550.018 0.649772 1.77266 0
M  V30 5985 O 549.375 -0.381612 1.78466 0
M  V30 5986 C 549.426 3.10719 1.84759 0
M  V30 5987 O 549.147 4.25286 1.05181 0
M  V30 5988 C 550.648 3.51706 2.69848 0
M  V30 5989 H 547.868 0.611734 0.275721 0
M  V30 5990 H 550.412 2.03364 0.215253 0
M  V30 5991 H 548.567 2.93422 2.52947 0
M  V30 5992 H 548.981 4.97301 1.66709 0
M  V30 5993 H 550.455 4.43266 3.28967 0
M  V30 5994 H 550.932 2.7423 3.43067 0
M  V30 5995 H 551.538 3.71499 2.07047 0
M  V30 5996 N 549.853 -0.472356 1.50355 0
M  V30 5997 C 551.078 -1.25251 1.65309 0
M  V30 5998 C 551.503 -1.85081 0.335643 0
M  V30 5999 O 550.861 -1.67227 -0.700335 0
M  V30 6000 C 550.909 -2.3379 2.74544 0
M  V30 6001 O 550.013 -3.38401 2.35709 0
M  V30 6002 H 549.354 -0.368539 0.552336 0
M  V30 6003 H 551.884 -0.562271 1.96722 0
M  V30 6004 H 551.894 -2.79121 2.97583 0
M  V30 6005 H 550.569 -1.89614 3.70161 0
M  V30 6006 H 549.146 -2.9879 2.23112 0
M  V30 6007 N 551.331 -1.39911 -0.725443 0
M  V30 6008 C 552.58 -1.36963 -1.48068 0
M  V30 6009 C 552.893 0.0284478 -1.95579 0
M  V30 6010 O 554.099 0.180535 -2.70899 0
M  V30 6011 C 552.555 -2.40664 -2.67598 0
M  V30 6012 C 552.163 -3.86234 -2.26997 0
M  V30 6013 C 553.907 -2.46807 -3.45379 0
M  V30 6014 C 551.814 -4.81554 -3.43307 0
M  V30 6015 H 550.744 -0.509223 -0.556065 0
M  V30 6016 H 553.395 -1.65602 -0.790454 0
M  V30 6017 H 551.777 -2.05109 -3.38742 0
M  V30 6018 H 552.951 -4.3088 -1.63337 0
M  V30 6019 H 551.266 -3.83475 -1.62284 0
M  V30 6020 H 553.863 -3.15213 -4.31909 0
M  V30 6021 H 554.206 -1.49552 -3.8851 0
M  V30 6022 H 554.739 -2.81303 -2.81271 0
M  V30 6023 H 551.478 -5.80106 -3.05217 0
M  V30 6024 H 550.998 -4.4158 -4.05915 0
M  V30 6025 H 552.677 -5.0091 -4.0951 0
M  V30 6026 N 552.809 0.956637 -1.25245 0
M  V30 6027 C 554.034 1.74104 -1.12706 0
M  V30 6028 C 554.459 1.85436 0.315429 0
M  V30 6029 O 553.817 1.33334 1.22848 0
M  V30 6030 C 553.865 3.1338 -1.78396 0
M  V30 6031 O 552.969 3.98485 -1.06224 0
M  V30 6032 H 552.31 0.53476 -0.393609 0
M  V30 6033 H 554.84 1.19924 -1.65769 0
M  V30 6034 H 554.85 3.6385 -1.846 0
M  V30 6035 H 553.525 3.04448 -2.83345 0
M  V30 6036 H 552.102 3.56952 -1.07886 0
M  V30 6037 N 554.287 1.06798 1.15896 0
M  V30 6038 C 555.533 0.788934 1.86825 0
M  V30 6039 C 555.866 -0.683084 1.8179 0
M  V30 6040 O 555.141 -1.50086 1.23711 0
M  V30 6041 C 555.424 1.29065 3.36176 0
M  V30 6042 C 555.277 2.8268 3.49874 0
M  V30 6043 C 556.596 0.902655 4.30744 0
M  V30 6044 H 553.715 0.288066 0.678371 0
M  V30 6045 H 556.357 1.32479 1.36195 0
M  V30 6046 H 554.507 0.834806 3.79425 0
M  V30 6047 H 556.179 3.36511 3.15528 0
M  V30 6048 H 554.422 3.21157 2.91617 0
M  V30 6049 H 555.093 3.12852 4.54783 0
M  V30 6050 H 557.569 1.29535 3.95424 0
M  V30 6051 H 556.445 1.28111 5.3374 0
M  V30 6052 H 556.706 -0.191951 4.41683 0
M  V30 6053 N 555.766 -1.3263 0.851289 0
M  V30 6054 C 556.676 -2.32722 0.296268 0
M  V30 6055 C 557.692 -1.63901 -0.584162 0
M  V30 6056 O 558.868 -1.95465 -0.485334 0
M  V30 6057 C 555.933 -3.42942 -0.509103 0
M  V30 6058 C 554.994 -4.2746 0.397069 0
M  V30 6059 C 554.227 -5.32416 -0.36996 0
M  V30 6060 O 554.45 -5.47491 -1.6003 0
M  V30 6061 O 553.384 -6.01327 0.262493 0
M  V30 6062 H 557.21 -2.82078 1.12543 0
M  V30 6063 H 554.795 -1.36194 0.614135 0
M  V30 6064 H 556.677 -4.1017 -0.96634 0
M  V30 6065 H 555.352 -2.95781 -1.31512 0
M  V30 6066 H 554.259 -3.63053 0.902411 0
M  V30 6067 H 555.592 -4.78136 1.16818 0
M  V30 6068 N 557.244 -0.608902 -1.45362 0
M  V30 6069 C 558.66 -0.272659 -1.57254 0
M  V30 6070 C 558.86 1.22477 -1.60005 0
M  V30 6071 O 557.916 2.00785 -1.53106 0
M  V30 6072 C 559.229 -0.944991 -2.85465 0
M  V30 6073 C 560.777 -0.921033 -2.99142 0
M  V30 6074 C 561.252 -1.5734 -4.30126 0
M  V30 6075 N 562.743 -1.53895 -4.36887 0
M  V30 6076 C 563.478 -2.01286 -5.36909 0
M  V30 6077 N 562.974 -2.56768 -6.43461 0
M  V30 6078 N 564.767 -1.92046 -5.28275 0
M  V30 6079 H 556.918 -1.58117 -1.4182 0
M  V30 6080 H 559.181 -0.662437 -0.678146 0
M  V30 6081 H 558.887 -1.99941 -2.89338 0
M  V30 6082 H 558.761 -0.469079 -3.74272 0
M  V30 6083 H 561.148 0.124846 -2.94836 0
M  V30 6084 H 561.229 -1.43522 -2.11743 0
M  V30 6085 H 560.873 -2.61862 -4.35191 0
M  V30 6086 H 560.803 -1.03422 -5.16344 0
M  V30 6087 H 563.294 -1.13366 -3.60495 0
M  V30 6088 H 563.607 -2.9072 -7.16032 0
M  V30 6089 H 561.952 -2.60808 -6.44208 0
M  V30 6090 H 565.143 -1.48439 -4.43941 0
M  V30 6091 H 565.316 -2.29293 -6.06077 0
M  V30 6092 N 558.722 1.53707 -0.348139 0
M  V30 6093 C 559.654 2.22725 0.540946 0
M  V30 6094 C 560.667 1.2354 1.06027 0
M  V30 6095 O 561.856 1.49867 0.96964 0
M  V30 6096 C 558.956 2.89756 1.75768 0
M  V30 6097 C 558.129 4.15297 1.37285 0
M  V30 6098 C 557.188 4.65697 2.44976 0
M  V30 6099 O 556.214 5.29798 2.08092 0
M  V30 6100 N 557.416 4.42017 3.763 0
M  V30 6101 H 560.181 2.99658 -0.0501592 0
M  V30 6102 H 557.742 1.60979 -0.17248 0
M  V30 6103 H 559.734 3.20388 2.47252 0
M  V30 6104 H 558.304 2.16382 2.25605 0
M  V30 6105 H 557.524 3.9116 0.488584 0
M  V30 6106 H 558.812 4.96948 1.09179 0
M  V30 6107 H 558.21 3.9076 4.09051 0
M  V30 6108 H 556.767 4.77242 4.4394 0
M  V30 6109 N 560.2 0.0768682 1.57412 0
M  V30 6110 C 561.449 -0.590679 1.92857 0
M  V30 6111 C 561.762 -1.70461 0.959293 0
M  V30 6112 O 562.968 -2.43207 1.20675 0
M  V30 6113 C 561.424 -1.10204 3.42612 0
M  V30 6114 C 561.032 -0.0188447 4.47996 0
M  V30 6115 C 562.776 -1.74336 3.87049 0
M  V30 6116 C 560.683 -0.544536 5.88888 0
M  V30 6117 H 559.613 -0.224411 0.71983 0
M  V30 6118 H 562.264 0.149924 1.82887 0
M  V30 6119 H 560.646 -1.89577 3.47673 0
M  V30 6120 H 561.82 0.755936 4.54557 0
M  V30 6121 H 560.135 0.526555 4.13057 0
M  V30 6122 H 562.732 -2.14708 4.89699 0
M  V30 6123 H 563.075 -2.60537 3.24694 0
M  V30 6124 H 563.608 -1.01577 3.84613 0
M  V30 6125 H 560.347 0.280426 6.549 0
M  V30 6126 H 559.867 -1.28673 5.85836 0
M  V30 6127 H 561.546 -1.01933 6.3892 0
M  V30 6128 N 561.678 -1.56367 -0.196722 0
M  V30 6129 C 562.628 -1.9082 -1.24787 0
M  V30 6130 C 563.612 -0.773719 -1.41076 0
M  V30 6131 O 564.804 -1.03655 -1.43474 0
M  V30 6132 C 561.933 -2.24982 -2.59303 0
M  V30 6133 C 561.019 -3.44882 -2.46814 0
M  V30 6134 N 561.41 -4.62835 -2.04003 0
M  V30 6135 C 559.708 -3.48988 -2.77711 0
M  V30 6136 C 560.409 -5.44993 -2.03366 0
M  V30 6137 N 559.385 -4.85356 -2.44807 0
M  V30 6138 H 563.187 -2.79516 -0.908175 0
M  V30 6139 H 560.701 -1.57265 -0.405166 0
M  V30 6140 H 562.698 -2.47848 -3.35227 0
M  V30 6141 H 561.358 -1.37611 -2.94098 0
M  V30 6142 H 562.369 -4.87532 -1.74738 0
M  V30 6143 H 559.046 -2.72029 -3.16712 0
M  V30 6144 H 560.436 -6.49464 -1.72181 0
M  V30 6145 N 563.156 0.464375 -1.50603 0
M  V30 6146 C 564.103 1.56152 -1.69956 0
M  V30 6147 C 565.073 1.57046 -0.54091 0
M  V30 6148 O 566.258 1.74473 -0.772258 0
M  V30 6149 C 563.398 2.94079 -1.80586 0
M  V30 6150 C 562.511 3.02923 -3.07996 0
M  V30 6151 C 561.646 4.31806 -3.09382 0
M  V30 6152 C 560.685 4.34417 -4.31218 0
M  V30 6153 N 559.822 5.54782 -4.30304 0
M  V30 6154 H 564.662 1.38955 -2.6362 0
M  V30 6155 H 562.199 0.675482 -1.30674 0
M  V30 6156 H 564.157 3.74073 -1.8473 0
M  V30 6157 H 562.787 3.09896 -0.903556 0
M  V30 6158 H 561.839 2.1576 -3.13292 0
M  V30 6159 H 563.151 3.00712 -3.97962 0
M  V30 6160 H 562.305 5.20153 -3.12292 0
M  V30 6161 H 561.044 4.36636 -2.17257 0
M  V30 6162 H 560.049 3.44467 -4.28512 0
M  V30 6163 H 561.274 4.31273 -5.24576 0
M  V30 6164 H 559.22 5.60384 -3.41037 0
M  V30 6165 H 559.137 5.54339 -5.14047 0
M  V30 6166 H 560.405 6.45235 -4.3737 0
M  V30 6167 N 564.634 1.40294 0.718013 0
M  V30 6168 C 565.564 1.43118 1.84498 0
M  V30 6169 C 566.545 0.292403 1.67568 0
M  V30 6170 O 567.73 0.500675 1.87635 0
M  V30 6171 C 564.86 1.29065 3.22427 0
M  V30 6172 C 563.814 2.40521 3.54025 0
M  V30 6173 C 563.14 2.11546 4.91073 0
M  V30 6174 C 564.44 3.82859 3.55269 0
M  V30 6175 H 566.134 2.37432 1.82391 0
M  V30 6176 H 563.68 1.14283 0.87609 0
M  V30 6177 H 565.633 1.29658 4.00957 0
M  V30 6178 H 564.357 0.312271 3.25104 0
M  V30 6179 H 563.016 2.39173 2.77834 0
M  V30 6180 H 562.664 1.12104 4.90348 0
M  V30 6181 H 562.364 2.86216 5.1318 0
M  V30 6182 H 563.888 2.13817 5.71939 0
M  V30 6183 H 565.302 3.86044 4.23843 0
M  V30 6184 H 563.699 4.57029 3.88902 0
M  V30 6185 H 564.769 4.12617 2.54706 0
M  V30 6186 N 566.112 -0.949982 1.2575 0
M  V30 6187 C 567.044 -2.05088 1.02331 0
M  V30 6188 C 568.057 -1.62795 -0.0133247 0
M  V30 6189 O 569.246 -1.77067 0.225759 0
M  V30 6190 C 566.346 -3.34794 0.525924 0
M  V30 6191 C 565.519 -4.05903 1.62978 0
M  V30 6192 C 564.578 -5.1388 1.13196 0
M  V30 6193 O 563.604 -5.39072 1.82729 0
M  V30 6194 N 564.806 -5.80495 -0.0242926 0
M  V30 6195 H 567.571 -2.25747 1.97125 0
M  V30 6196 H 565.132 -1.11886 1.17018 0
M  V30 6197 H 567.124 -4.04312 0.177263 0
M  V30 6198 H 565.694 -3.10872 -0.328202 0
M  V30 6199 H 564.914 -3.3042 2.1498 0
M  V30 6200 H 566.202 -4.50166 2.37124 0
M  V30 6201 H 565.6 -5.62454 -0.605184 0
M  V30 6202 H 564.157 -6.51043 -0.313947 0
M  V30 6203 N 567.59 -1.07411 -1.15328 0
M  V30 6204 C 568.867 -0.710732 -1.82231 0
M  V30 6205 C 569.247 0.806732 -1.95077 0
M  V30 6206 O 568.595 1.72139 -1.50268 0
M  V30 6207 C 568.805 -1.42586 -3.18544 0
M  V30 6208 C 570.153 -1.57836 -3.94174 0
M  V30 6209 O 571.177 -1.38669 -3.281 0
M  V30 6210 O 570.036 -1.8938 -5.12638 0
M  V30 6211 H 567.13 -0.25297 -0.78736 0
M  V30 6212 H 569.676 -1.17508 -1.22434 0
M  V30 6213 H 568.448 -2.46008 -3.04296 0
M  V30 6214 H 568.071 -0.952332 -3.86026 0
M  V30 6215 N 569.068 1.32177 -0.85831 0
M  V30 6216 C 570.314 1.97813 -0.47346 0
M  V30 6217 C 570.669 1.66674 0.961122 0
M  V30 6218 O 569.962 0.94657 1.66585 0
M  V30 6219 C 570.156 3.51372 -0.653658 0
M  V30 6220 C 569.985 3.97433 -2.1042 0
M  V30 6221 C 568.755 4.24338 -2.74345 0
M  V30 6222 C 570.953 4.12233 -3.0752 0
M  V30 6223 N 568.935 4.56672 -4.10272 0
M  V30 6224 C 570.306 4.48146 -4.28445 0
M  V30 6225 C 572.361 3.94577 -3.03667 0
M  V30 6226 C 571.064 4.68246 -5.4602 0
M  V30 6227 C 573.09 4.15864 -4.20489 0
M  V30 6228 C 572.452 4.52098 -5.40173 0
M  V30 6229 H 568.551 0.749808 -0.222061 0
M  V30 6230 H 571.135 1.59927 -1.11047 0
M  V30 6231 H 569.306 3.88372 -0.0463267 0
M  V30 6232 H 571.038 4.03998 -0.238343 0
M  V30 6233 H 567.793 4.16544 -2.25362 0
M  V30 6234 H 568.217 4.77019 -4.80398 0
M  V30 6235 H 572.859 3.65662 -2.12252 0
M  V30 6236 H 570.577 4.96014 -6.37962 0
M  V30 6237 H 574.163 4.03702 -4.18947 0
M  V30 6238 H 573.043 4.68238 -6.29065 0
M  V30 6239 N 570.547 0.616602 1.45037 0
M  V30 6240 C 571.51 -0.0871112 2.29034 0
M  V30 6241 C 572.51 -0.786414 1.40258 0
M  V30 6242 O 573.7 -0.633207 1.62284 0
M  V30 6243 C 570.832 -1.13369 3.21497 0
M  V30 6244 H 572.025 0.651497 2.92738 0
M  V30 6245 H 569.578 0.376058 1.51709 0
M  V30 6246 H 570.313 -1.90277 2.62612 0
M  V30 6247 H 570.098 -0.636358 3.86902 0
M  V30 6248 H 571.588 -1.62627 3.84633 0
M  V30 6249 N 572.025 -1.5352 0.356285 0
M  V30 6250 C 573.273 -2.00719 -0.235837 0
M  V30 6251 C 573.594 -1.24551 -1.5004 0
M  V30 6252 O 572.864 -0.356185 -1.92635 0
M  V30 6253 H 571.444 -0.741542 -0.0901366 0
M  V30 6254 H 574.106 -1.88887 0.480378 0
M  V30 6255 H 573.202 -3.08551 -0.469357 0
M  V30 6256 N 573.503 -0.0852151 -1.57369 0
M  V30 6257 C 574.728 0.592872 -1.98746 0
M  V30 6258 C 575.153 1.61538 -0.963689 0
M  V30 6259 O 574.511 1.81168 0.069071 0
M  V30 6260 C 574.559 1.22599 -3.39119 0
M  V30 6261 O 573.663 2.34185 -3.39457 0
M  V30 6262 H 573.004 0.151314 -0.646529 0
M  V30 6263 H 575.534 -0.163703 -2.03944 0
M  V30 6264 H 575.544 1.56965 -3.76598 0
M  V30 6265 H 574.219 0.476831 -4.13158 0
M  V30 6266 H 572.796 2.01512 -3.13763 0
M  V30 6267 N 574.981 1.5647 0.188427 0
M  V30 6268 C 576.397 1.50204 0.539532 0
M  V30 6269 C 576.597 0.78644 1.85519 0
M  V30 6270 O 575.653 0.339714 2.50204 0
M  V30 6271 C 576.966 2.94893 0.588103 0
M  V30 6272 C 578.514 3.05602 0.67648 0
M  V30 6273 C 578.989 4.51716 0.756101 0
M  V30 6274 N 580.48 4.55894 0.819451 0
M  V30 6275 C 581.215 5.66272 0.90134 0
M  V30 6276 N 580.711 6.86323 0.945118 0
M  V30 6277 N 582.504 5.54201 0.939043 0
M  V30 6278 H 574.655 2.01406 -0.674493 0
M  V30 6279 H 576.918 0.916828 -0.241103 0
M  V30 6280 H 576.624 3.50334 -0.309633 0
M  V30 6281 H 576.498 3.4861 1.44051 0
M  V30 6282 H 578.885 2.50206 1.56465 0
M  V30 6283 H 578.966 2.54999 -0.202262 0
M  V30 6284 H 578.61 5.07739 -0.12774 0
M  V30 6285 H 578.54 5.00058 1.65074 0
M  V30 6286 H 581.031 3.69452 0.794594 0
M  V30 6287 H 581.344 7.66194 1.0083 0
M  V30 6288 H 579.689 6.88968 0.913683 0
M  V30 6289 H 582.88 4.59333 0.901725 0
M  V30 6290 H 583.053 6.40247 0.999402 0
M  V30 6291 N 576.459 -0.456382 1.50847 0
M  V30 6292 C 577.391 -1.57033 1.66953 0
M  V30 6293 C 578.404 -1.53207 0.550593 0
M  V30 6294 O 579.593 -1.58328 0.824285 0
M  V30 6295 C 576.693 -2.95937 1.65149 0
M  V30 6296 C 575.866 -3.24475 2.93317 0
M  V30 6297 C 574.925 -4.43007 2.83957 0
M  V30 6298 O 573.951 -4.42592 3.57912 0
M  V30 6299 N 575.153 -5.45503 1.9851 0
M  V30 6300 H 577.918 -1.43629 2.63042 0
M  V30 6301 H 575.479 -0.645037 1.48495 0
M  V30 6302 H 577.471 -3.73224 1.56481 0
M  V30 6303 H 576.041 -3.03036 0.767343 0
M  V30 6304 H 575.261 -2.35664 3.16 0
M  V30 6305 H 576.549 -3.4036 3.78196 0
M  V30 6306 H 575.947 -5.48668 1.37766 0
M  V30 6307 H 574.504 -6.21716 1.95735 0
M  V30 6308 O 577.976 -1.4986 -0.602026 0
M  V30 6309 H 578.667 -1.47399 -1.25671 0
M  V30 END ATOM
M  V30 BEGIN BOND
M  V30 END BOND
M  V30 END CTAB
M  END
$$$$
