drugbank_target|P30559 Oxytocin receptor (DB00107; DB01282; DB09059; DB13929)
 OpenBabel12092119413D

  0  0  0     0  0            999 V3000
M  V30 BEGIN CTAB
M  V30 COUNTS 6119 6191 0 0 0
M  V30 BEGIN ATOM
M  V30 1 H -0.908 1.98254 -0.117106 0
M  V30 2 N 0 1.576 0 0
M  V30 3 C 0.933 2.03868 1.02534 0
M  V30 4 C 1.911 0.928543 1.3348 0
M  V30 5 O 3.095 1.19667 1.45644 0
M  V30 6 C 0.222 2.43627 2.35294 0
M  V30 7 C -0.732 3.65373 2.2001 0
M  V30 8 S 0.101 5.13292 1.52614 0
M  V30 9 C 1.257 5.56322 2.86805 0
M  V30 10 H 1.49 2.90518 0.631377 0
M  V30 11 H -0.977 1.52953 0.210867 0
M  V30 12 H 0.981 2.67203 3.11629 0
M  V30 13 H -0.358 1.57376 2.7183 0
M  V30 14 H -1.165 3.90944 3.18086 0
M  V30 15 H -1.563 3.418 1.51819 0
M  V30 16 H 0.729 5.58782 3.83104 0
M  V30 17 H 1.672 6.56266 2.65933 0
M  V30 18 H 2.08 4.83886 2.90714 0
M  V30 19 N 1.4781 -0.272755 1.55222 0
M  V30 20 C 2.3881 -1.35918 1.91216 0
M  V30 21 C 3.4041 -1.54026 0.809436 0
M  V30 22 O 4.5801 -1.68148 1.10852 0
M  V30 23 C 1.6451 -2.69834 2.17693 0
M  V30 24 C 0.7061 -2.6047 3.41253 0
M  V30 25 C -0.0609 -3.88 3.66458 0
M  V30 26 O 0.1621 -4.88693 2.94169 0
M  V30 27 O -0.9039 -3.88189 4.59992 0
M  V30 28 H 2.9221 -1.0839 2.83699 0
M  V30 29 H 0.5071 -0.471301 1.41771 0
M  V30 30 H 2.3891 -3.49017 2.36147 0
M  V30 31 H 1.0641 -2.97148 1.28392 0
M  V30 32 H -0.0289 -1.79663 3.28134 0
M  V30 33 H 1.3041 -2.38106 4.30774 0
M  V30 34 N 2.9562 -1.48159 -0.537278 0
M  V30 35 C 4.2042 -1.55497 -1.29094 0
M  V30 36 C 4.5252 -0.227454 -1.93669 0
M  V30 37 O 3.7952 0.750386 -1.80959 0
M  V30 38 H 2.3752 -0.572832 -0.47945 0
M  V30 39 H 5.0372 -1.84579 -0.625818 0
M  V30 40 H 4.1332 -2.33216 -2.07405 0
M  V30 41 N 4.4343 0.785586 -1.36625 0
M  V30 42 C 5.3973 1.87999 -1.31107 0
M  V30 43 C 6.3973 1.59316 -0.217959 0
M  V30 44 O 7.5873 1.67656 -0.472977 0
M  V30 45 C 4.7193 3.24861 -1.03334 0
M  V30 46 H 5.9123 1.94307 -2.2844 0
M  V30 47 H 3.4653 0.983813 -1.21453 0
M  V30 48 H 4.2003 3.24235 -0.0647432 0
M  V30 49 H 3.9853 3.4707 -1.82441 0
M  V30 50 H 5.4753 4.04929 -1.02088 0
M  V30 51 N 5.9124 1.20967 1.01018 0
M  V30 52 C 6.8424 0.988272 2.11555 0
M  V30 53 C 7.8234 -0.0849778 1.69888 0
M  V30 54 O 9.0084 0.0738202 1.9406 0
M  V30 55 C 6.1384 0.546528 3.42973 0
M  V30 56 C 5.0924 1.56375 3.9841 0
M  V30 57 C 4.4184 0.97842 5.25672 0
M  V30 58 C 5.7184 2.94922 4.31066 0
M  V30 59 H 7.4124 1.91276 2.30334 0
M  V30 60 H 4.9584 0.921073 1.1069 0
M  V30 61 H 6.9114 0.378839 4.19694 0
M  V30 62 H 5.6354 -0.413598 3.23971 0
M  V30 63 H 4.2944 1.71891 3.23804 0
M  V30 64 H 3.9424 0.0101688 5.02999 0
M  V30 65 H 3.6424 1.65784 5.63728 0
M  V30 66 H 5.1664 0.821939 6.05043 0
M  V30 67 H 6.5804 2.8288 4.9865 0
M  V30 68 H 4.9774 3.5983 4.80253 0
M  V30 69 H 6.0474 3.4616 3.39561 0
M  V30 70 N 7.3905 -1.2043 1.01659 0
M  V30 71 C 8.3535 -2.21433 0.591616 0
M  V30 72 C 9.3535 -1.57203 -0.338226 0
M  V30 73 O 10.5435 -1.73737 -0.126918 0
M  V30 74 C 7.6755 -3.40628 -0.136058 0
M  V30 75 H 8.8685 -2.60545 1.48514 0
M  V30 76 H 6.4215 -1.33893 0.806379 0
M  V30 77 H 7.1565 -3.07019 -1.04449 0
M  V30 78 H 6.9415 -3.88475 0.531917 0
M  V30 79 H 8.4315 -4.15475 -0.420735 0
M  V30 80 N 8.8686 -0.792821 -1.36206 0
M  V30 81 C 9.8316 -0.199459 -2.2833 0
M  V30 82 C 10.8316 0.605189 -1.48977 0
M  V30 83 O 12.0216 0.425685 -1.68919 0
M  V30 84 C 9.1536 0.723523 -3.33134 0
M  V30 85 H 10.3466 -1.01181 -2.82316 0
M  V30 86 H 7.8996 -0.562485 -1.45828 0
M  V30 87 H 8.6346 1.56008 -2.84309 0
M  V30 88 H 8.4196 0.148436 -3.91819 0
M  V30 89 H 9.9096 1.13344 -4.01924 0
M  V30 90 N 10.3467 1.47872 -0.545128 0
M  V30 91 C 11.2947 2.31533 0.222512 0
M  V30 92 C 12.2887 1.42177 0.920985 0
M  V30 93 O 13.4947 1.59005 0.843645 0
M  V30 94 H 9.8697 0.746519 0.0906278 0
M  V30 95 H 11.8407 2.94139 -0.50246 0
M  V30 96 C 10.5897 3.2457 1.24699 0
M  V30 97 H 9.9127 3.93283 0.718944 0
M  V30 98 H 11.3527 3.85963 1.75523 0
M  V30 99 C 9.8117 2.47237 2.28856 0
M  V30 100 O 10.3417 2.20808 3.35569 0
M  V30 101 N 8.5477 2.08461 2.02466 0
M  V30 102 H 8.0947 2.30155 1.157 0
M  V30 103 H 8.0527 1.57033 2.72375 0
M  V30 104 N 11.8248 0.280983 1.55075 0
M  V30 105 C 13.0708 -0.327573 2.00745 0
M  V30 106 C 13.4258 -1.53045 1.16598 0
M  V30 107 O 12.7188 -1.90221 0.229451 0
M  V30 108 C 12.9128 -0.754656 3.49342 0
M  V30 109 C 12.7418 0.40529 4.4787 0
M  V30 110 C 11.5118 0.890947 4.97383 0
M  V30 111 C 13.7098 1.24371 4.99035 0
M  V30 112 N 11.6918 2.01975 5.79724 0
M  V30 113 C 13.0628 2.22031 5.7888 0
M  V30 114 C 15.1178 1.27638 4.81262 0
M  V30 115 C 13.8208 3.22709 6.42846 0
M  V30 116 C 15.8468 2.27164 5.46031 0
M  V30 117 C 15.2088 3.23556 6.25692 0
M  V30 118 H 11.3078 -0.0848774 0.77738 0
M  V30 119 H 13.8918 0.406342 1.90413 0
M  V30 120 H 12.0628 -1.45778 3.60005 0
M  V30 121 H 13.7948 -1.34105 3.81835 0
M  V30 122 H 10.5498 0.469262 4.71269 0
M  V30 123 H 10.9738 2.58794 6.25584 0
M  V30 124 H 15.6158 0.544936 4.19274 0
M  V30 125 H 13.3338 3.96784 7.0398 0
M  V30 126 H 16.9198 2.30441 5.34217 0
M  V30 127 H 15.7998 3.99309 6.74924 0
M  V30 128 N 13.3029 -1.57598 0.00835791 0
M  V30 129 C 14.5279 -1.95617 -0.689103 0
M  V30 130 C 14.9529 -0.883753 -1.66046 0
M  V30 131 O 14.3109 0.157352 -1.80616 0
M  V30 132 C 14.3589 -3.32736 -1.38994 0
M  V30 133 O 13.4629 -3.27631 -2.50463 0
M  V30 134 H 12.8039 -0.638379 -0.182668 0
M  V30 135 H 15.3339 -2.045 0.064036 0
M  V30 136 H 15.3439 -3.68494 -1.75147 0
M  V30 137 H 14.0189 -4.1034 -0.677778 0
M  V30 138 H 12.5959 -3.03561 -2.16576 0
M  V30 139 N 14.781 0.264519 -1.55364 0
M  V30 140 C 15.744 1.31046 -1.88042 0
M  V30 141 C 16.744 1.41943 -0.755569 0
M  V30 142 O 17.934 1.40947 -1.02369 0
M  V30 143 C 15.066 2.69067 -2.09323 0
M  V30 144 H 16.259 1.03297 -2.81549 0
M  V30 145 H 13.812 0.502989 -1.47986 0
M  V30 146 H 14.547 3.01982 -1.18226 0
M  V30 147 H 14.332 2.62542 -2.91229 0
M  V30 148 H 15.822 3.44623 -2.35848 0
M  V30 149 N 16.2591 1.48442 0.529413 0
M  V30 150 C 17.1691 1.6569 1.66084 0
M  V30 151 C 18.1851 0.539432 1.65427 0
M  V30 152 O 19.3611 0.810572 1.84368 0
M  V30 153 C 16.4261 1.69315 3.02545 0
M  V30 154 C 15.4871 2.92694 3.14052 0
M  V30 155 C 14.7201 2.96137 4.44003 0
M  V30 156 O 14.9431 2.07973 5.31134 0
M  V30 157 O 13.8771 3.88312 4.59888 0
M  V30 158 H 17.7031 2.61483 1.54469 0
M  V30 159 H 15.2881 1.3185 0.702567 0
M  V30 160 H 17.1701 1.74217 3.83701 0
M  V30 161 H 15.8451 0.766966 3.14483 0
M  V30 162 H 14.7521 2.93324 2.32189 0
M  V30 163 H 16.0851 3.84699 3.0703 0
M  V30 164 N 17.7372 -0.778329 1.37039 0
M  V30 165 C 18.7002 -1.87301 1.32102 0
M  V30 166 C 19.7002 -1.59198 0.226405 0
M  V30 167 O 20.8902 -1.67403 0.481861 0
M  V30 168 C 18.0222 -3.24309 1.05055 0
M  V30 169 H 19.2152 -1.93093 2.29467 0
M  V30 170 H 16.7682 -0.977358 1.21973 0
M  V30 171 H 17.5032 -3.24196 0.0819373 0
M  V30 172 H 17.2882 -3.46098 1.84279 0
M  V30 173 H 18.7782 -4.04382 1.04234 0
M  V30 174 N 19.2153 -1.21501 -1.00376 0
M  V30 175 C 20.1783 -0.976927 -2.07337 0
M  V30 176 C 21.1783 0.0525322 -1.60714 0
M  V30 177 O 22.3683 -0.184869 -1.73216 0
M  V30 178 C 19.5003 -0.473423 -3.37597 0
M  V30 179 H 20.6933 -1.92587 -2.29892 0
M  V30 180 H 18.2463 -1.03217 -1.17371 0
M  V30 181 H 18.9813 0.480379 -3.20722 0
M  V30 182 H 18.7663 -1.216 -3.72768 0
M  V30 183 H 20.2563 -0.32675 -4.1632 0
M  V30 184 N 20.6934 1.19889 -1.02296 0
M  V30 185 C 21.6414 2.24938 -0.592081 0
M  V30 186 C 22.6354 1.65257 0.372357 0
M  V30 187 O 23.8414 1.78371 0.241583 0
M  V30 188 H 20.2164 0.731787 -0.173182 0
M  V30 189 H 22.1874 2.58603 -1.48885 0
M  V30 190 C 20.9364 3.47668 0.047351 0
M  V30 191 H 20.2594 3.93875 -0.685772 0
M  V30 192 H 21.6994 4.22852 0.311862 0
M  V30 193 C 20.1584 3.11136 1.29212 0
M  V30 194 O 20.6884 3.2325 2.38479 0
M  V30 195 N 18.8944 2.65625 1.17863 0
M  V30 196 H 18.4414 2.55968 0.289493 0
M  V30 197 H 18.3994 2.41553 2.01245 0
M  V30 198 N 22.1715 0.800033 1.35784 0
M  V30 199 C 23.1345 0.211565 2.28221 0
M  V30 200 C 24.1345 -0.59728 1.49296 0
M  V30 201 O 25.3245 -0.416721 1.69142 0
M  V30 202 C 22.4565 -0.705846 3.33513 0
M  V30 203 H 23.6495 1.02677 2.81776 0
M  V30 204 H 21.2025 0.570211 1.45528 0
M  V30 205 H 21.9375 -1.54498 2.85133 0
M  V30 206 H 21.7225 -0.127655 3.91892 0
M  V30 207 H 23.2125 -1.11211 4.02519 0
M  V30 208 N 23.6496 -1.47581 0.552962 0
M  V30 209 C 24.8746 -2.07378 0.0300593 0
M  V30 210 C 25.2996 -1.40355 -1.25229 0
M  V30 211 O 24.6576 -0.477099 -1.7491 0
M  V30 212 C 24.7056 -3.60274 -0.153231 0
M  V30 213 O 23.8096 -3.94041 -1.21678 0
M  V30 214 H 23.1506 -0.662158 0.0494182 0
M  V30 215 H 25.6806 -1.89662 0.767434 0
M  V30 216 H 25.6906 -4.0633 -0.368761 0
M  V30 217 H 24.3656 -4.08455 0.783397 0
M  V30 218 H 22.9426 -3.59735 -0.982079 0
M  V30 219 N 25.1277 -0.289203 -1.54924 0
M  V30 220 C 26.0907 0.579144 -2.21762 0
M  V30 221 C 27.0907 1.07047 -1.1999 0
M  V30 222 O 28.2807 0.968384 -1.44803 0
M  V30 223 C 25.4127 1.80055 -2.8947 0
M  V30 224 H 26.6057 -0.00464908 -2.999 0
M  V30 225 H 24.1587 -0.0399306 -1.56249 0
M  V30 226 H 24.8937 2.42449 -2.15381 0
M  V30 227 H 24.6787 1.45602 -3.64064 0
M  V30 228 H 26.1687 2.41773 -3.40493 0
M  V30 229 N 26.6058 1.57591 -0.0167156 0
M  V30 230 C 27.5688 2.08393 0.954204 0
M  V30 231 C 28.5688 0.996531 1.26198 0
M  V30 232 O 29.7588 1.25858 1.20438 0
M  V30 233 C 26.8908 2.5394 2.27436 0
M  V30 234 H 28.0838 2.95455 0.514451 0
M  V30 235 H 25.6368 1.54582 0.231089 0
M  V30 236 H 26.3718 1.70171 2.76066 0
M  V30 237 H 26.1568 3.33371 2.06412 0
M  V30 238 H 27.6468 2.93512 2.97053 0
M  V30 239 N 28.0839 -0.256276 1.55502 0
M  V30 240 C 29.4949 -0.826068 1.67431 0
M  V30 241 C 29.8459 -1.86396 0.612446 0
M  V30 242 O 28.9709 -2.15031 -0.243025 0
M  V30 243 C 29.5659 -1.50512 3.03532 0
M  V30 244 C 28.1249 -2.02273 3.17431 0
M  V30 245 C 27.2719 -0.870548 2.63281 0
M  V30 246 H 30.2229 -0.0322728 1.58667 0
M  V30 247 H 30.2439 -2.37279 2.97454 0
M  V30 248 H 29.7559 -0.749484 3.80794 0
M  V30 249 H 27.8569 -2.80746 2.44974 0
M  V30 250 H 27.9699 -2.22655 4.24219 0
M  V30 251 H 26.3339 -1.26851 2.20864 0
M  V30 252 H 27.1169 -0.128149 3.43061 0
M  V30 253 N 29.562 -1.4872 -0.521534 0
M  V30 254 C 30.973 -1.50607 -1.10337 0
M  V30 255 C 31.324 -0.280612 -1.94183 0
M  V30 256 O 30.449 0.611507 -2.0758 0
M  V30 257 C 31.044 -2.72903 -2.00772 0
M  V30 258 C 29.603 -2.77634 -2.54158 0
M  V30 259 C 28.75 -2.44241 -1.31307 0
M  V30 260 H 31.701 -1.55714 -0.306388 0
M  V30 261 H 31.722 -2.519 -2.85178 0
M  V30 262 H 31.234 -3.62077 -1.39721 0
M  V30 263 H 29.335 -1.92689 -3.18907 0
M  V30 264 H 29.448 -3.79283 -2.92714 0
M  V30 265 H 27.812 -1.95577 -1.63161 0
M  V30 266 H 28.595 -3.35666 -0.719943 0
M  V30 267 N 31.0401 0.771051 -1.3745 0
M  V30 268 C 32.2881 1.52661 -1.32435 0
M  V30 269 C 32.6091 1.9479 0.0905024 0
M  V30 270 O 31.8791 1.66348 1.03466 0
M  V30 271 H 30.4591 0.566218 -0.487244 0
M  V30 272 H 33.1211 0.917636 -1.71946 0
M  V30 273 H 32.2171 2.42568 -1.96385 0
M  V30 274 N 32.5182 1.22032 0.997298 0
M  V30 275 C 33.4812 0.987909 2.06816 0
M  V30 276 C 34.4812 -0.0440084 1.6074 0
M  V30 277 O 35.6712 0.194053 1.73116 0
M  V30 278 C 32.8032 0.49132 3.37341 0
M  V30 279 H 33.9962 1.93803 2.28868 0
M  V30 280 H 31.5492 1.03838 1.16822 0
M  V30 281 H 32.2842 -0.463364 3.20973 0
M  V30 282 H 32.0692 1.23575 3.72118 0
M  V30 283 H 33.5592 0.348824 4.16141 0
M  V30 284 N 33.9963 -1.19345 1.0293 0
M  V30 285 C 34.9063 -2.26245 0.620515 0
M  V30 286 C 35.9223 -1.70486 -0.347928 0
M  V30 287 O 37.0983 -2.00347 -0.205704 0
M  V30 288 C 34.1633 -3.46693 -0.0218957 0
M  V30 289 C 33.2243 -4.17632 0.994102 0
M  V30 290 C 32.4573 -5.32329 0.382253 0
M  V30 291 O 32.6803 -5.64552 -0.814676 0
M  V30 292 O 31.6143 -5.91664 1.10531 0
M  V30 293 H 35.4403 -2.63453 1.51083 0
M  V30 294 H 33.0253 -1.26207 0.799513 0
M  V30 295 H 34.9073 -4.19683 -0.380072 0
M  V30 296 H 33.5823 -3.11333 -0.886209 0
M  V30 297 H 32.4893 -3.4676 1.40387 0
M  V30 298 H 33.8223 -4.56964 1.8288 0
M  V30 299 N 35.4744 -0.807222 -1.35358 0
M  V30 300 C 36.7224 -0.387122 -1.98358 0
M  V30 301 C 37.0434 1.04942 -1.64354 0
M  V30 302 O 36.3134 1.72615 -0.926339 0
M  V30 303 H 34.8934 -0.140154 -0.733734 0
M  V30 304 H 37.5554 -1.0332 -1.6526 0
M  V30 305 H 36.6514 -0.493352 -3.08176 0
M  V30 306 N 36.9525 1.47285 -0.560781 0
M  V30 307 C 37.9005 2.31756 0.197942 0
M  V30 308 C 38.8945 1.43146 0.905854 0
M  V30 309 O 40.1005 1.59891 0.826733 0
M  V30 310 H 36.4755 0.747438 0.0827049 0
M  V30 311 H 38.4465 2.9359 -0.533629 0
M  V30 312 C 37.1955 3.25874 1.21249 0
M  V30 313 H 36.5185 3.94023 0.67719 0
M  V30 314 H 37.9585 3.87803 1.71419 0
M  V30 315 C 36.4175 2.49651 2.26221 0
M  V30 316 O 36.9475 2.24355 3.33208 0
M  V30 317 N 35.1535 2.10597 2.00243 0
M  V30 318 H 34.7005 2.31369 1.13252 0
M  V30 319 H 34.6585 1.59913 2.70694 0
M  V30 320 N 38.4306 0.297415 1.54768 0
M  V30 321 C 39.8466 -0.0560823 1.59501 0
M  V30 322 C 40.0466 -1.52725 1.31444 0
M  V30 323 O 39.1026 -2.27947 1.08611 0
M  V30 324 C 40.4156 0.338631 2.98787 0
M  V30 325 C 41.9636 0.287097 3.11681 0
M  V30 326 C 42.4386 0.656579 4.53269 0
M  V30 327 N 43.9296 0.608977 4.59179 0
M  V30 328 C 44.6646 0.867385 5.66802 0
M  V30 329 N 44.1606 1.19157 6.82476 0
M  V30 330 N 45.9536 0.794687 5.56454 0
M  V30 331 H 38.1046 1.25624 1.71267 0
M  V30 332 H 40.3676 0.509057 0.799728 0
M  V30 333 H 40.0736 1.36263 3.2423 0
M  V30 334 H 39.9476 -0.309508 3.75928 0
M  V30 335 H 42.3346 -0.727649 2.85988 0
M  V30 336 H 42.4156 0.969809 2.36703 0
M  V30 337 H 42.0596 1.66912 4.7969 0
M  V30 338 H 41.9896 -0.0481649 5.26578 0
M  V30 339 H 44.4806 0.369198 3.76092 0
M  V30 340 H 44.7936 1.37482 7.60473 0
M  V30 341 H 43.1386 1.22958 6.84037 0
M  V30 342 H 46.3296 0.541098 4.64962 0
M  V30 343 H 46.5026 0.999445 6.40246 0
M  V30 344 N 39.9087 -1.5758 0.0250728 0
M  V30 345 C 41.1367 -1.9593 -0.664747 0
M  V30 346 C 41.5517 -0.901352 -1.65895 0
M  V30 347 O 40.9087 0.117255 -1.82123 0
M  V30 348 C 40.9597 -3.34342 -1.37468 0
M  V30 349 O 40.6807 -4.36079 -0.420324 0
M  V30 350 C 42.1817 -3.873 -2.1567 0
M  V30 351 H 39.4017 -0.645405 -0.183557 0
M  V30 352 H 41.9457 -2.04329 0.0836372 0
M  V30 353 H 40.1007 -3.27175 -2.0745 0
M  V30 354 H 40.5147 -5.16297 -0.923991 0
M  V30 355 H 41.9887 -4.86504 -2.60803 0
M  V30 356 H 42.4657 -3.21331 -2.99405 0
M  V30 357 H 43.0717 -3.97723 -1.50654 0
M  V30 358 N 41.3868 0.248026 -1.55636 0
M  V30 359 C 42.3498 1.29044 -1.89421 0
M  V30 360 C 43.3498 1.41134 -0.770581 0
M  V30 361 O 44.5398 1.39854 -1.03858 0
M  V30 362 C 41.6718 2.66831 -2.12165 0
M  V30 363 H 42.8648 1.00305 -2.82629 0
M  V30 364 H 40.4178 0.487265 -1.48511 0
M  V30 365 H 41.1528 3.00711 -1.21422 0
M  V30 366 H 40.9378 2.59438 -2.93997 0
M  V30 367 H 42.4278 3.42103 -2.3949 0
M  V30 368 N 42.8649 1.48995 0.513639 0
M  V30 369 C 44.1129 1.57531 1.26604 0
M  V30 370 C 44.4339 0.258236 1.93283 0
M  V30 371 O 43.7039 -0.721502 1.8213 0
M  V30 372 H 42.2839 0.580387 0.470276 0
M  V30 373 H 44.9459 1.85552 0.596373 0
M  V30 374 H 44.0419 2.36486 2.03669 0
M  V30 375 N 44.343 -0.763751 1.37857 0
M  V30 376 C 45.754 -1.3405 1.29952 0
M  V30 377 C 46.105 -1.96138 -0.0492898 0
M  V30 378 O 45.23 -1.94372 -0.951239 0
M  V30 379 C 45.825 -2.43729 2.35333 0
M  V30 380 C 44.384 -2.97151 2.31037 0
M  V30 381 C 43.531 -1.70438 2.18738 0
M  V30 382 H 46.482 -0.563396 1.48363 0
M  V30 383 H 46.503 -3.23412 2.00462 0
M  V30 384 H 46.015 -1.9851 3.33489 0
M  V30 385 H 44.116 -3.46724 1.3643 0
M  V30 386 H 44.229 -3.52221 3.24772 0
M  V30 387 H 42.593 -1.93673 1.65418 0
M  V30 388 H 43.376 -1.27312 3.18821 0
M  V30 389 N 45.8211 -1.22559 -0.990812 0
M  V30 390 C 47.2321 -1.04791 -1.54518 0
M  V30 391 C 47.5831 0.387998 -1.92325 0
M  V30 392 O 46.7081 1.27328 -1.74976 0
M  V30 393 C 47.3031 -1.896 -2.80779 0
M  V30 394 C 45.8621 -1.76124 -3.32652 0
M  V30 395 C 45.0091 -1.8594 -2.05722 0
M  V30 396 H 47.9601 -1.36374 -0.811662 0
M  V30 397 H 47.9811 -1.41464 -3.53225 0
M  V30 398 H 47.4931 -2.94101 -2.53231 0
M  V30 399 H 45.5941 -0.743643 -3.65104 0
M  V30 400 H 45.7071 -2.58913 -4.03114 0
M  V30 401 H 44.0711 -1.29403 -2.19379 0
M  V30 402 H 44.8541 -2.91976 -1.80568 0
M  V30 403 N 47.2992 1.18797 -1.03562 0
M  V30 404 C 48.7152 1.40671 -0.753917 0
M  V30 405 C 48.9152 1.9043 0.658686 0
M  V30 406 O 47.9712 2.08538 1.42366 0
M  V30 407 C 49.2842 2.41192 -1.79574 0
M  V30 408 C 50.8322 2.54928 -1.81606 0
M  V30 409 C 51.3072 3.58709 -2.84766 0
M  V30 410 N 52.7982 3.66212 -2.83625 0
M  V30 411 C 53.5332 4.46225 -3.60098 0
M  V30 412 N 53.0292 5.29888 -4.46308 0
M  V30 413 N 54.8222 4.40939 -3.4861 0
M  V30 414 H 46.9732 0.848221 -1.94728 0
M  V30 415 H 49.2362 0.435081 -0.842264 0
M  V30 416 H 48.9422 2.11669 -2.80872 0
M  V30 417 H 48.8162 3.40467 -1.62365 0
M  V30 418 H 51.2032 2.83771 -0.809817 0
M  V30 419 H 51.2842 1.55784 -2.02891 0
M  V30 420 H 50.9282 3.30607 -3.85566 0
M  V30 421 H 50.8582 4.57519 -2.60737 0
M  V30 422 H 53.3492 3.06466 -2.21105 0
M  V30 423 H 53.6622 5.88078 -5.01382 0
M  V30 424 H 52.0072 5.29326 -4.50377 0
M  V30 425 H 55.1982 3.74624 -2.80668 0
M  V30 426 H 55.3712 5.03056 -4.08459 0
M  V30 427 N 48.7773 0.814389 1.34928 0
M  V30 428 C 50.1933 0.499084 1.51596 0
M  V30 429 C 50.3933 -0.978319 1.76157 0
M  V30 430 O 49.4493 -1.76309 1.80752 0
M  V30 431 C 50.7623 1.35121 2.68631 0
M  V30 432 C 52.3103 1.34746 2.82511 0
M  V30 433 C 52.7853 2.18388 4.0258 0
M  V30 434 N 54.2763 2.15966 4.09772 0
M  V30 435 C 55.0113 2.77437 5.01813 0
M  V30 436 N 54.5073 3.47866 5.99134 0
M  V30 437 N 56.3003 2.67037 4.94619 0
M  V30 438 H 48.4513 1.7711 1.17243 0
M  V30 439 H 50.7143 0.754256 0.574284 0
M  V30 440 H 50.4203 2.40001 2.57085 0
M  V30 441 H 50.2943 1.00991 3.63429 0
M  V30 442 H 52.6813 0.30648 2.93504 0
M  V30 443 H 52.7623 1.72869 1.88547 0
M  V30 444 H 52.4063 3.2253 3.92347 0
M  V30 445 H 52.3363 1.77621 4.9574 0
M  V30 446 H 54.8273 1.64729 3.40107 0
M  V30 447 H 55.1403 3.92038 6.65977 0
M  V30 448 H 53.4853 3.51972 5.99284 0
M  V30 449 H 56.6763 2.11597 4.17546 0
M  V30 450 H 56.8493 3.15232 5.66156 0
M  V30 451 N 50.2554 -1.46986 0.568584 0
M  V30 452 C 51.2034 -2.31858 -0.185649 0
M  V30 453 C 52.1974 -1.43624 -0.898249 0
M  V30 454 O 53.4034 -1.60327 -0.818242 0
M  V30 455 H 49.7784 -0.747866 -0.0787399 0
M  V30 456 H 51.7494 -2.93303 0.549191 0
M  V30 457 C 50.4984 -3.26513 -1.19519 0
M  V30 458 H 49.8214 -3.94377 -0.656285 0
M  V30 459 H 51.2614 -3.88707 -1.6936 0
M  V30 460 C 49.7204 -2.50847 -2.24894 0
M  V30 461 O 50.2504 -2.26119 -3.32014 0
M  V30 462 N 48.4564 -2.11656 -1.99124 0
M  V30 463 H 48.0034 -2.31966 -1.12024 0
M  V30 464 H 47.9614 -1.61347 -2.69842 0
M  V30 465 N 51.7335 -0.305618 -1.54608 0
M  V30 466 C 52.6435 0.57778 -2.27374 0
M  V30 467 C 53.6595 1.14451 -1.31061 0
M  V30 468 O 54.8355 1.16831 -1.6405 0
M  V30 469 C 51.9005 1.73123 -3.00382 0
M  V30 470 C 50.9615 1.19812 -4.12242 0
M  V30 471 C 50.1945 2.2966 -4.81759 0
M  V30 472 O 50.4175 3.49651 -4.50666 0
M  V30 473 O 49.3515 1.96091 -5.69062 0
M  V30 474 H 53.1775 -0.012624 -3.03697 0
M  V30 475 H 50.7625 -0.0719184 -1.49227 0
M  V30 476 H 52.6445 2.40315 -3.4616 0
M  V30 477 H 51.3195 2.30815 -2.26949 0
M  V30 478 H 50.2265 0.491798 -3.70853 0
M  V30 479 H 51.5595 0.666566 -4.87666 0
M  V30 480 N 53.2116 1.57565 -0.0334293 0
M  V30 481 C 54.1746 2.09393 0.932048 0
M  V30 482 C 55.1746 1.00986 1.25134 0
M  V30 483 O 56.3646 1.27129 1.19096 0
M  V30 484 C 53.4966 2.56338 2.2473 0
M  V30 485 H 54.6896 2.95984 0.483085 0
M  V30 486 H 52.2426 1.54819 0.21468 0
M  V30 487 H 52.9776 1.7309 2.74245 0
M  V30 488 H 52.7626 3.35542 2.02865 0
M  V30 489 H 54.2526 2.96646 2.93923 0
M  V30 490 N 54.6897 -0.239769 1.55765 0
M  V30 491 C 55.6197 -1.30052 1.9393 0
M  V30 492 C 56.6007 -1.49839 0.805132 0
M  V30 493 O 57.7857 -1.62328 1.06599 0
M  V30 494 C 54.9157 -2.65391 2.2402 0
M  V30 495 C 53.8697 -2.60289 3.39755 0
M  V30 496 C 53.1957 -3.99489 3.55405 0
M  V30 497 C 54.4957 -2.16654 4.75246 0
M  V30 498 H 56.1897 -0.983573 2.82783 0
M  V30 499 H 53.7357 -0.471701 1.36055 0
M  V30 500 H 55.6887 -3.3974 2.49308 0
M  V30 501 H 54.4127 -2.98736 1.32 0
M  V30 502 H 53.0717 -1.88398 3.14487 0
M  V30 503 H 52.7197 -4.30112 2.60793 0
M  V30 504 H 52.4197 -3.96962 4.33238 0
M  V30 505 H 53.9437 -4.75528 3.83022 0
M  V30 506 H 55.3577 -2.80737 4.99859 0
M  V30 507 H 53.7547 -2.25223 5.56232 0
M  V30 508 H 54.8247 -1.11835 4.71827 0
M  V30 509 N 56.1678 -1.49265 -0.50573 0
M  V30 510 C 57.1308 -1.65075 -1.59006 0
M  V30 511 C 58.1308 -0.522768 -1.52065 0
M  V30 512 O 59.3208 -0.789117 -1.55302 0
M  V30 513 C 56.4528 -1.64369 -2.98656 0
M  V30 514 H 57.6458 -2.61784 -1.46319 0
M  V30 515 H 55.1988 -1.38226 -0.729616 0
M  V30 516 H 55.9338 -0.692272 -3.16825 0
M  V30 517 H 55.7188 -2.46282 -3.05103 0
M  V30 518 H 57.2088 -1.78674 -3.77446 0
M  V30 519 N 57.6459 0.756429 -1.3826 0
M  V30 520 C 59.0619 1.0591 -1.19395 0
M  V30 521 C 59.2619 2.01459 -0.0406567 0
M  V30 522 O 58.3179 2.44909 0.614467 0
M  V30 523 C 59.6309 1.64191 -2.51916 0
M  V30 524 C 61.1789 1.76376 -2.58574 0
M  V30 525 C 61.6539 2.38069 -3.91264 0
M  V30 526 N 63.1449 2.45503 -3.92788 0
M  V30 527 C 63.8799 2.94126 -4.92217 0
M  V30 528 N 63.3759 3.42805 -6.02043 0
M  V30 529 N 65.1689 2.9314 -4.7961 0
M  V30 530 H 57.3199 0.122313 -2.12048 0
M  V30 531 H 59.5829 0.116892 -0.940766 0
M  V30 532 H 59.2889 1.01451 -3.3675 0
M  V30 533 H 59.1629 2.6329 -2.70108 0
M  V30 534 H 61.5499 2.38244 -1.74137 0
M  V30 535 H 61.6309 0.759894 -2.44252 0
M  V30 536 H 61.2749 1.76835 -4.76121 0
M  V30 537 H 61.2049 3.39091 -4.02895 0
M  V30 538 H 63.6959 2.1107 -3.13461 0
M  V30 539 H 64.0089 3.78354 -6.73846 0
M  V30 540 H 62.3539 3.4087 -6.05667 0
M  V30 541 H 65.5449 2.54419 -3.92923 0
M  V30 542 H 65.7179 3.30721 -5.5725 0
M  V30 543 N 59.124 1.23083 0.984299 0
M  V30 544 C 60.37 1.06214 1.72761 0
M  V30 545 C 60.703 -0.400584 1.90024 0
M  V30 546 O 59.978 -1.29672 1.44967 0
M  V30 547 C 60.261 1.78375 3.12817 0
M  V30 548 C 60.114 3.32296 3.03149 0
M  V30 549 C 61.433 1.54309 4.12161 0
M  V30 550 H 58.552 0.387251 0.627061 0
M  V30 551 H 61.194 1.51536 1.14616 0
M  V30 552 H 59.344 1.39848 3.62457 0
M  V30 553 H 61.016 3.8032 2.61064 0
M  V30 554 H 59.259 3.6153 2.39747 0
M  V30 555 H 59.93 3.77972 4.02295 0
M  V30 556 H 62.406 1.87791 3.71314 0
M  V30 557 H 61.282 2.07281 5.08258 0
M  V30 558 H 61.543 0.477572 4.39513 0
M  V30 559 N 60.6021 -1.18246 1.0419 0
M  V30 560 C 61.5121 -2.25574 0.644476 0
M  V30 561 C 62.5281 -1.70845 -0.329826 0
M  V30 562 O 63.7041 -2.00554 -0.184443 0
M  V30 563 C 60.7691 -3.46697 0.014877 0
M  V30 564 C 59.8301 -4.16554 1.03834 0
M  V30 565 C 59.0631 -5.31894 0.438692 0
M  V30 566 O 59.2861 -5.65385 -0.754752 0
M  V30 567 O 58.2201 -5.90459 1.168 0
M  V30 568 H 62.0461 -2.61836 1.53869 0
M  V30 569 H 59.6311 -1.25352 0.812854 0
M  V30 570 H 61.5131 -4.20062 -0.335538 0
M  V30 571 H 60.1881 -3.12255 -0.853138 0
M  V30 572 H 59.0951 -3.45251 1.44057 0
M  V30 573 H 60.4281 -4.54998 1.87716 0
M  V30 574 N 62.0802 -0.821533 -1.34494 0
M  V30 575 C 63.3262 -0.409552 -1.98622 0
M  V30 576 C 63.6592 1.0244 -1.64984 0
M  V30 577 O 62.9342 1.71325 -0.920758 0
M  V30 578 C 63.2172 -0.610458 -3.54888 0
M  V30 579 C 63.0702 -2.09043 -3.98273 0
M  V30 580 C 64.3892 -0.0455379 -4.40076 0
M  V30 581 H 61.5082 -0.15028 -0.721516 0
M  V30 582 H 64.1502 -1.03384 -1.59411 0
M  V30 583 H 62.3002 -0.079044 -3.8842 0
M  V30 584 H 63.9722 -2.68537 -3.75081 0
M  V30 585 H 62.2152 -2.58139 -3.48635 0
M  V30 586 H 62.8862 -2.18182 -5.07051 0
M  V30 587 H 65.3622 -0.499557 -4.1309 0
M  V30 588 H 64.2382 -0.215922 -5.48475 0
M  V30 589 H 64.4992 1.04939 -4.29465 0
M  V30 590 N 63.5583 1.46682 -0.576371 0
M  V30 591 C 64.5213 2.28707 0.150239 0
M  V30 592 C 65.5213 1.38035 0.824794 0
M  V30 593 O 66.7113 1.60476 0.677719 0
M  V30 594 C 63.8433 3.18248 1.22192 0
M  V30 595 H 65.0363 2.94423 -0.570521 0
M  V30 596 H 62.5893 1.52688 -0.334078 0
M  V30 597 H 63.3243 2.57265 1.97447 0
M  V30 598 H 63.1093 3.85 0.742812 0
M  V30 599 H 64.5993 3.80001 1.73172 0
M  V30 600 N 65.0364 0.313813 1.54444 0
M  V30 601 C 66.2824 -0.292108 2.00685 0
M  V30 602 C 66.6154 -1.52548 1.20177 0
M  V30 603 O 65.8904 -1.92452 0.281531 0
M  V30 604 C 66.1734 -0.635968 3.5444 0
M  V30 605 C 66.0264 0.607437 4.4568 0
M  V30 606 C 67.3454 -1.45747 4.15266 0
M  V30 607 H 64.4644 -0.104697 0.729526 0
M  V30 608 H 67.1064 0.428457 1.85106 0
M  V30 609 H 65.2564 -1.24986 3.67846 0
M  V30 610 H 66.9284 1.24581 4.44159 0
M  V30 611 H 65.1714 1.23822 4.15753 0
M  V30 612 H 65.8424 0.322515 5.51057 0
M  V30 613 H 68.3184 -0.938645 4.05375 0
M  V30 614 H 67.1944 -1.66683 5.2298 0
M  V30 615 H 67.4554 -2.45063 3.67963 0
M  V30 616 N 66.5145 -1.57545 0.0417849 0
M  V30 617 C 67.4445 -2.14009 -0.933929 0
M  V30 618 C 68.4255 -1.05938 -1.33083 0
M  V30 619 O 69.6105 -1.33833 -1.40721 0
M  V30 620 C 66.7405 -2.67747 -2.21199 0
M  V30 621 C 65.6945 -3.80718 -1.95544 0
M  V30 622 C 65.0205 -4.20935 -3.29724 0
M  V30 623 C 66.3205 -5.06258 -1.28452 0
M  V30 624 H 68.0145 -2.95788 -0.463645 0
M  V30 625 H 65.5605 -1.42285 -0.221573 0
M  V30 626 H 67.5135 -3.05886 -2.89848 0
M  V30 627 H 66.2375 -1.83147 -2.70416 0
M  V30 628 H 64.8965 -3.43037 -1.2931 0
M  V30 629 H 64.5445 -3.33298 -3.76724 0
M  V30 630 H 64.2445 -4.9707 -3.13361 0
M  V30 631 H 65.7685 -4.61666 -3.9962 0
M  V30 632 H 67.1825 -5.41903 -1.8712 0
M  V30 633 H 65.5795 -5.87475 -1.22445 0
M  V30 634 H 66.6495 -4.84207 -0.259219 0
M  V30 635 N 67.9926 0.231505 -1.5589 0
M  V30 636 C 69.2326 0.964533 -1.80211 0
M  V30 637 C 69.5966 1.81926 -0.613744 0
M  V30 638 O 70.7976 2.58526 -0.736045 0
M  V30 639 C 69.0686 1.78956 -3.09369 0
M  V30 640 S 70.6276 2.57959 -3.54969 0
M  V30 641 H 67.4456 0.324173 -0.632798 0
M  V30 642 H 70.0476 0.230985 -1.94131 0
M  V30 643 H 68.7516 1.15161 -3.93911 0
M  V30 644 H 68.2826 2.56559 -2.9823 0
M  V30 645 H 70.2976 3.81309 -3.17519 0
M  V30 646 N 69.4707 1.49531 0.497807 0
M  V30 647 C 70.4007 1.6935 1.60757 0
M  V30 648 C 71.3817 0.542218 1.61227 0
M  V30 649 O 72.5667 0.778417 1.77917 0
M  V30 650 C 69.6967 1.76298 2.99226 0
M  V30 651 C 68.6507 2.91248 3.13622 0
M  V30 652 C 67.9767 2.83312 4.53474 0
M  V30 653 C 69.2767 4.3214 2.93346 0
M  V30 654 H 70.9707 2.62263 1.44425 0
M  V30 655 H 68.5167 1.26208 0.693367 0
M  V30 656 H 70.4697 1.88749 3.76765 0
M  V30 657 H 69.1937 0.799871 3.16654 0
M  V30 658 H 67.8527 2.78404 2.38509 0
M  V30 659 H 67.5007 1.84902 4.67782 0
M  V30 660 H 67.2007 3.60465 4.64046 0
M  V30 661 H 68.7247 2.97775 5.33069 0
M  V30 662 H 70.1387 4.45649 3.60652 0
M  V30 663 H 68.5357 5.1054 3.15387 0
M  V30 664 H 69.6057 4.46363 1.89441 0
M  V30 665 N 70.9488 -0.749086 1.3866 0
M  V30 666 C 72.1978 -1.50371 1.3443 0
M  V30 667 C 72.5108 -1.95503 -0.0616397 0
M  V30 668 O 73.7168 -2.70554 -0.226489 0
M  V30 669 C 72.1728 -2.71644 2.36088 0
M  V30 670 C 71.7808 -2.3352 3.82325 0
M  V30 671 C 73.5248 -3.49518 2.40909 0
M  V30 672 C 71.4318 -3.51431 4.75658 0
M  V30 673 H 70.3618 -0.564628 0.499712 0
M  V30 674 H 73.0128 -0.818449 1.64237 0
M  V30 675 H 71.3948 -3.42175 1.9933 0
M  V30 676 H 72.5688 -1.70627 4.28046 0
M  V30 677 H 70.8838 -1.6877 3.80665 0
M  V30 678 H 73.4808 -4.37197 3.07836 0
M  V30 679 H 73.8238 -3.90992 1.42937 0
M  V30 680 H 74.3568 -2.86005 2.76489 0
M  V30 681 H 71.0958 -3.15019 5.74842 0
M  V30 682 H 70.6158 -4.13352 4.34627 0
M  V30 683 H 72.2948 -4.17953 4.93887 0
M  V30 684 N 72.4269 -1.23603 -0.977757 0
M  V30 685 C 73.3569 -1.04401 -2.0886 0
M  V30 686 C 74.3379 0.0399052 -1.70053 0
M  V30 687 O 75.5229 -0.125246 -1.93796 0
M  V30 688 C 72.6529 -0.637269 -3.41403 0
M  V30 689 C 71.6069 -1.66883 -3.94124 0
M  V30 690 C 70.9329 -1.11745 -5.22893 0
M  V30 691 C 72.2329 -3.06247 -4.23096 0
M  V30 692 H 73.9269 -1.97316 -2.25182 0
M  V30 693 H 71.4729 -0.950096 -1.08209 0
M  V30 694 H 73.4259 -0.48998 -4.18542 0
M  V30 695 H 72.1499 0.327557 -3.24953 0
M  V30 696 H 70.8089 -1.80416 -3.19133 0
M  V30 697 H 70.4569 -0.143527 -5.02795 0
M  V30 698 H 70.1569 -1.80672 -5.59134 0
M  V30 699 H 71.6809 -0.982067 -6.02651 0
M  V30 700 H 73.0949 -2.96001 -4.90975 0
M  V30 701 H 71.4919 -3.72436 -4.70544 0
M  V30 702 H 72.5619 -3.55041 -3.30263 0
M  V30 703 N 73.905 1.17692 -1.04816 0
M  V30 704 C 74.835 2.23777 -0.666791 0
M  V30 705 C 75.816 1.66796 0.33361 0
M  V30 706 O 77.001 1.93039 0.212042 0
M  V30 707 C 74.131 3.47281 -0.0367933 0
M  V30 708 C 73.085 4.17059 -0.961546 0
M  V30 709 C 72.411 5.34342 -0.195626 0
M  V30 710 C 73.711 4.69713 -2.28402 0
M  V30 711 H 75.405 2.55933 -1.55367 0
M  V30 712 H 72.951 1.23019 -0.748484 0
M  V30 713 H 74.904 4.20706 0.241775 0
M  V30 714 H 73.628 3.14381 0.885004 0
M  V30 715 H 72.287 3.45541 -1.22462 0
M  V30 716 H 71.935 4.97692 0.728816 0
M  V30 717 H 71.635 5.81966 -0.811775 0
M  V30 718 H 73.159 6.10553 0.0757473 0
M  V30 719 H 74.573 5.34794 -2.06563 0
M  V30 720 H 72.97 5.279 -2.8538 0
M  V30 721 H 74.04 3.86726 -2.92525 0
M  V30 722 N 75.3831 0.828654 1.34056 0
M  V30 723 C 76.3131 0.269443 2.3194 0
M  V30 724 C 77.2941 -0.617247 1.58506 0
M  V30 725 O 78.4791 -0.542931 1.86456 0
M  V30 726 C 75.6091 -0.564793 3.42677 0
M  V30 727 C 74.5631 0.225241 4.27407 0
M  V30 728 C 73.8891 -0.7321 5.29664 0
M  V30 729 C 75.1891 1.43663 5.02154 0
M  V30 730 H 76.8831 1.08728 2.7896 0
M  V30 731 H 74.4291 0.524283 1.34117 0
M  V30 732 H 76.3821 -0.966233 4.10173 0
M  V30 733 H 75.1061 -1.41574 2.9432 0
M  V30 734 H 73.7651 0.608117 3.61521 0
M  V30 735 H 73.4131 -1.57916 4.77568 0
M  V30 736 H 73.1131 -0.20767 5.87233 0
M  V30 737 H 74.6371 -1.13128 6.00029 0
M  V30 738 H 76.0511 1.1089 5.62473 0
M  V30 739 H 74.4481 1.89711 5.69324 0
M  V30 740 H 75.5181 2.21181 4.31517 0
M  V30 741 N 76.8612 -1.46375 0.584142 0
M  V30 742 C 77.8242 -2.28784 -0.138108 0
M  V30 743 C 78.8242 -1.38471 -0.817462 0
M  V30 744 O 80.0142 -1.60833 -0.669199 0
M  V30 745 C 77.1462 -3.18892 -1.20503 0
M  V30 746 H 78.3392 -2.94117 0.586127 0
M  V30 747 H 75.8922 -1.52509 0.342171 0
M  V30 748 H 76.6272 -2.58309 -1.96079 0
M  V30 749 H 76.4122 -3.85388 -0.722384 0
M  V30 750 H 77.9022 -3.80914 -1.71155 0
M  V30 751 N 78.3393 -0.321999 -1.54275 0
M  V30 752 C 79.2693 0.537411 -2.27231 0
M  V30 753 C 80.2503 1.12064 -1.27968 0
M  V30 754 O 81.4353 1.14606 -1.56777 0
M  V30 755 C 78.5653 1.69919 -3.02894 0
M  V30 756 C 77.5193 1.24534 -4.09482 0
M  V30 757 C 76.8453 2.49394 -4.72977 0
M  V30 758 C 78.1453 0.361335 -5.21049 0
M  V30 759 H 79.8393 -0.0711406 -2.99315 0
M  V30 760 H 77.3853 -0.0356555 -1.43956 0
M  V30 761 H 79.3383 2.30668 -3.52662 0
M  V30 762 H 78.0623 2.33431 -2.28424 0
M  V30 763 H 76.7213 0.660782 -3.60596 0
M  V30 764 H 76.3693 3.11265 -3.95124 0
M  V30 765 H 76.0693 2.19718 -5.44975 0
M  V30 766 H 77.5933 3.10908 -5.25517 0
M  V30 767 H 79.0073 0.875072 -5.66582 0
M  V30 768 H 77.4043 0.157428 -5.99893 0
M  V30 769 H 78.4743 -0.60822 -4.8107 0
M  V30 770 N 79.8174 1.5752 -0.0501392 0
M  V30 771 C 81.0424 1.97376 0.636997 0
M  V30 772 C 81.4674 0.927466 1.63645 0
M  V30 773 O 80.8254 -0.10941 1.8097 0
M  V30 774 C 80.8734 3.36304 1.30123 0
M  V30 775 O 79.9774 3.34156 2.41689 0
M  V30 776 H 79.3184 0.642998 0.165679 0
M  V30 777 H 81.8484 2.04258 -0.118233 0
M  V30 778 H 81.8584 3.73008 1.65315 0
M  V30 779 H 80.5334 4.11993 0.568746 0
M  V30 780 H 79.1104 3.09196 2.08451 0
M  V30 781 N 81.2955 -0.223234 1.56011 0
M  V30 782 C 82.5435 -0.946003 1.78592 0
M  V30 783 C 82.8645 -1.84936 0.618349 0
M  V30 784 O 82.1345 -1.92473 -0.364833 0
M  V30 785 H 80.7145 -0.352298 0.658707 0
M  V30 786 H 83.3765 -0.235494 1.93472 0
M  V30 787 H 82.4725 -1.55381 2.70672 0
M  V30 788 N 82.7736 -1.49793 -0.48987 0
M  V30 789 C 83.7216 -1.67783 -1.61095 0
M  V30 790 C 84.7156 -0.543683 -1.60438 0
M  V30 791 O 85.9216 -0.723647 -1.64813 0
M  V30 792 H 82.2966 -0.529255 -0.534222 0
M  V30 793 H 84.2676 -2.61861 -1.43078 0
M  V30 794 C 83.0166 -1.77191 -2.99164 0
M  V30 795 H 82.3396 -2.63841 -3.0038 0
M  V30 796 H 83.7796 -1.93809 -3.77113 0
M  V30 797 C 82.2386 -0.519203 -3.32875 0
M  V30 798 O 82.7686 0.350124 -4.00171 0
M  V30 799 N 80.9746 -0.378816 -2.8812 0
M  V30 800 H 80.5216 -1.08725 -2.33531 0
M  V30 801 H 80.4796 0.458239 -3.11043 0
M  V30 802 N 84.2517 0.741722 -1.39055 0
M  V30 803 C 85.2147 1.83733 -1.37021 0
M  V30 804 C 86.2147 1.58542 -0.268534 0
M  V30 805 O 87.4047 1.66067 -0.526076 0
M  V30 806 C 84.5367 3.2141 -1.13617 0
M  V30 807 H 85.7297 1.86941 -2.34506 0
M  V30 808 H 83.2827 0.944676 -1.24521 0
M  V30 809 H 84.0177 3.23865 -0.167863 0
M  V30 810 H 83.8027 3.4109 -1.93391 0
M  V30 811 H 85.2927 4.01477 -1.14918 0
M  V30 812 N 85.7298 1.2412 0.971189 0
M  V30 813 C 86.9698 1.09066 1.7287 0
M  V30 814 C 87.3338 -0.364794 1.88503 0
M  V30 815 O 88.5348 -0.636748 2.61149 0
M  V30 816 C 86.8058 1.80629 3.08396 0
M  V30 817 S 88.3648 1.81263 3.99611 0
M  V30 818 H 85.1828 0.390145 0.594397 0
M  V30 819 H 87.7848 1.57397 1.15959 0
M  V30 820 H 86.4888 2.85647 2.94676 0
M  V30 821 H 86.0198 1.32617 3.70373 0
M  V30 822 H 88.0348 0.877804 4.88374 0
M  V30 823 N 87.2079 -1.17134 1.05439 0
M  V30 824 C 88.4539 -1.87733 0.767077 0
M  V30 825 C 88.7869 -1.8098 -0.704253 0
M  V30 826 O 88.0619 -1.21951 -1.5152 0
M  V30 827 C 88.3449 -3.37659 1.25133 0
M  V30 828 C 88.1979 -3.53149 2.78578 0
M  V30 829 C 89.5169 -4.31768 0.852324 0
M  V30 830 H 86.6359 -0.681687 0.280129 0
M  V30 831 H 89.2779 -1.37732 1.30881 0
M  V30 832 H 87.4279 -3.80373 0.790469 0
M  V30 833 H 89.0999 -3.19434 3.32806 0
M  V30 834 H 87.3429 -2.95345 3.17732 0
M  V30 835 H 88.0139 -4.58403 3.07523 0
M  V30 836 H 90.4899 -3.96909 1.24911 0
M  V30 837 H 89.3659 -5.35199 1.21873 0
M  V30 838 H 89.6269 -4.41429 -0.243485 0
M  V30 839 N 88.686 -0.835752 -1.33615 0
M  V30 840 C 89.616 -0.281739 -2.31794 0
M  V30 841 C 90.597 0.608833 -1.58831 0
M  V30 842 O 91.782 0.533035 -1.86741 0
M  V30 843 C 88.912 0.546612 -3.42971 0
M  V30 844 C 87.866 -0.247904 -4.27281 0
M  V30 845 C 87.192 0.704001 -5.30045 0
M  V30 846 C 88.492 -1.46324 -5.01385 0
M  V30 847 H 90.186 -1.10206 -2.78379 0
M  V30 848 H 87.732 -0.531388 -1.33837 0
M  V30 849 H 89.685 0.944467 -4.1068 0
M  V30 850 H 88.409 1.40011 -2.95067 0
M  V30 851 H 87.068 -0.627281 -3.61194 0
M  V30 852 H 86.716 1.55381 -4.78399 0
M  V30 853 H 86.416 0.176524 -5.87335 0
M  V30 854 H 87.94 1.09944 -6.0062 0
M  V30 855 H 89.354 -1.13871 -5.61877 0
M  V30 856 H 87.751 -1.92728 -5.6831 0
M  V30 857 H 88.821 -2.23467 -4.30338 0
M  V30 858 N 90.1641 1.46063 -0.591896 0
M  V30 859 C 91.0941 2.33172 0.123673 0
M  V30 860 C 92.0751 1.45897 0.87453 0
M  V30 861 O 93.2601 1.74698 0.848181 0
M  V30 862 C 90.3901 3.28336 1.13194 0
M  V30 863 C 89.3441 4.25124 0.495324 0
M  V30 864 C 88.6701 5.09863 1.61071 0
M  V30 865 C 89.9701 5.19143 -0.573425 0
M  V30 866 H 91.6641 2.93252 -0.603646 0
M  V30 867 H 89.2101 1.41014 -0.291741 0
M  V30 868 H 91.1631 3.88137 1.64097 0
M  V30 869 H 89.8871 2.66383 1.88965 0
M  V30 870 H 88.5461 3.66599 0.00729452 0
M  V30 871 H 88.1941 4.44288 2.35832 0
M  V30 872 H 87.8941 5.75417 1.19035 0
M  V30 873 H 89.4181 5.72529 2.12233 0
M  V30 874 H 90.8321 5.73106 -0.1491 0
M  V30 875 H 89.2291 5.93089 -0.914636 0
M  V30 876 H 90.2991 4.62519 -1.45617 0
M  V30 877 N 91.6422 0.330177 1.54103 0
M  V30 878 C 92.6052 -0.520144 2.2322 0
M  V30 879 C 93.6052 -1.03828 1.22786 0
M  V30 880 O 94.7952 -0.929652 1.4732 0
M  V30 881 C 91.9272 -1.72317 2.94142 0
M  V30 882 H 93.1202 0.0841605 2.99782 0
M  V30 883 H 90.6732 0.0813433 1.56088 0
M  V30 884 H 91.4082 -2.36653 2.21734 0
M  V30 885 H 91.1932 -1.35898 3.67796 0
M  V30 886 H 92.6832 -2.3266 3.46784 0
M  V30 887 N 93.1203 -1.57491 0.0584922 0
M  V30 888 C 94.0503 -2.14988 -0.911178 0
M  V30 889 C 95.0313 -1.07343 -1.31952 0
M  V30 890 O 96.2163 -1.35318 -1.39294 0
M  V30 891 C 93.3463 -2.70078 -2.18347 0
M  V30 892 C 92.3003 -3.82771 -1.91495 0
M  V30 893 C 91.6263 -4.24408 -3.25241 0
M  V30 894 C 92.9263 -5.07592 -1.23075 0
M  V30 895 H 94.6203 -2.96263 -0.432246 0
M  V30 896 H 92.1663 -1.42512 -0.206469 0
M  V30 897 H 94.1193 -3.08943 -2.86587 0
M  V30 898 H 92.8433 -1.86005 -2.68458 0
M  V30 899 H 91.5023 -3.44389 -1.25664 0
M  V30 900 H 91.1503 -3.37275 -3.73168 0
M  V30 901 H 90.8503 -5.00366 -3.08071 0
M  V30 902 H 92.3743 -4.65879 -3.94701 0
M  V30 903 H 93.7883 -5.43857 -1.81362 0
M  V30 904 H 92.1853 -5.88741 -1.16207 0
M  V30 905 H 93.2553 -4.84454 -0.207847 0
M  V30 906 N 94.5984 0.214957 -1.56127 0
M  V30 907 C 96.0144 0.564948 -1.49267 0
M  V30 908 C 96.2144 1.86827 -0.754838 0
M  V30 909 O 95.2704 2.50745 -0.297198 0
M  V30 910 C 96.5834 0.638071 -2.93852 0
M  V30 911 C 98.1314 0.728253 -3.0441 0
M  V30 912 C 98.6064 0.832663 -4.50367 0
M  V30 913 N 100.097 0.896712 -4.54437 0
M  V30 914 C 100.832 0.997324 -5.6466 0
M  V30 915 N 100.328 1.06147 -6.8462 0
M  V30 916 N 102.121 1.03297 -5.52527 0
M  V30 917 H 94.2724 -0.640211 -2.02522 0
M  V30 918 H 96.5354 -0.225507 -0.920788 0
M  V30 919 H 96.2414 -0.250126 -3.50809 0
M  V30 920 H 96.1154 1.49947 -3.46115 0
M  V30 921 H 98.5024 1.60689 -2.47514 0
M  V30 922 H 98.5834 -0.158952 -2.55306 0
M  V30 923 H 98.2274 -0.0415417 -5.07883 0
M  V30 924 H 98.1574 1.73538 -4.97184 0
M  V30 925 H 100.648 0.857188 -3.6805 0
M  V30 926 H 100.961 1.1382 -7.64372 0
M  V30 927 H 99.3064 1.03049 -6.87318 0
M  V30 928 H 102.497 0.979558 -4.57736 0
M  V30 929 H 102.67 1.10793 -6.38458 0
M  V30 930 N 96.0765 1.50051 0.48192 0
M  V30 931 C 97.3045 1.64237 1.25832 0
M  V30 932 C 97.7195 0.321336 1.86045 0
M  V30 933 O 97.0765 -0.695478 1.68729 0
M  V30 934 C 97.1275 2.72548 2.37487 0
M  V30 935 O 96.8485 3.99529 1.79745 0
M  V30 936 C 98.3495 2.9761 3.28547 0
M  V30 937 H 95.5695 0.55237 0.380957 0
M  V30 938 H 98.1135 1.96207 0.576467 0
M  V30 939 H 96.2685 2.43303 3.01467 0
M  V30 940 H 96.6825 4.59342 2.5319 0
M  V30 941 H 98.1565 3.77084 4.03127 0
M  V30 942 H 98.6335 2.0826 3.86684 0
M  V30 943 H 99.2395 3.28345 2.70314 0
M  V30 944 N 97.5546 -0.734337 1.39446 0
M  V30 945 C 98.7826 -1.52358 1.39981 0
M  V30 946 C 99.1976 -1.88799 -0.0054975 0
M  V30 947 O 98.5546 -1.54146 -0.976998 0
M  V30 948 C 98.6056 -2.81072 2.27333 0
M  V30 949 O 98.3266 -2.46178 3.62392 0
M  V30 950 C 99.8276 -3.75096 2.36259 0
M  V30 951 H 97.0476 -0.470806 0.478103 0
M  V30 952 H 99.5916 -0.907339 1.83269 0
M  V30 953 H 97.7466 -3.39026 1.87457 0
M  V30 954 H 98.1606 -3.28866 4.08592 0
M  V30 955 H 99.6346 -4.62305 3.01626 0
M  V30 956 H 100.112 -4.16892 1.38194 0
M  V30 957 H 100.718 -3.23061 2.76608 0
M  V30 958 N 99.0327 -1.24633 -0.964593 0
M  V30 959 C 100.449 -1.01239 -1.2338 0
M  V30 960 C 100.649 0.2769 -1.99588 0
M  V30 961 O 99.7047 0.992241 -2.32187 0
M  V30 962 C 101.018 -2.22937 -2.01791 0
M  V30 963 C 102.566 -2.27594 -2.14872 0
M  V30 964 C 103.041 -3.48921 -2.96678 0
M  V30 965 N 104.532 -3.49257 -3.04259 0
M  V30 966 C 105.267 -4.39795 -3.67924 0
M  V30 967 N 104.763 -5.40591 -4.33281 0
M  V30 968 N 106.556 -4.275 -3.64966 0
M  V30 969 H 98.7067 -2.0748 -0.454502 0
M  V30 970 H 100.97 -0.910647 -0.26349 0
M  V30 971 H 100.676 -3.16587 -1.53184 0
M  V30 972 H 100.55 -2.25306 -3.02518 0
M  V30 973 H 102.937 -1.34473 -2.6268 0
M  V30 974 H 103.018 -2.2925 -1.13482 0
M  V30 975 H 102.662 -4.42359 -2.49562 0
M  V30 976 H 102.592 -3.4451 -3.98272 0
M  V30 977 H 105.083 -2.76337 -2.57771 0
M  V30 978 H 105.396 -6.05904 -4.79687 0
M  V30 979 H 103.741 -5.44475 -4.3194 0
M  V30 980 H 106.932 -3.47987 -3.13086 0
M  V30 981 H 107.105 -4.98258 -4.14298 0
M  V30 982 N 100.511 1.16574 -1.06058 0
M  V30 983 C 101.443 2.2045 -0.627239 0
M  V30 984 C 102.456 1.59752 0.313534 0
M  V30 985 O 103.645 1.78192 0.104896 0
M  V30 986 C 100.745 3.3875 0.100974 0
M  V30 987 C 99.9178 4.29008 -0.852687 0
M  V30 988 C 98.9768 5.25944 -0.164152 0
M  V30 989 O 98.0028 5.63535 -0.801047 0
M  V30 990 N 99.2048 5.70075 1.09518 0
M  V30 991 H 101.97 2.58249 -1.52077 0
M  V30 992 H 99.5308 1.3156 -0.943594 0
M  V30 993 H 101.523 4.00638 0.57194 0
M  V30 994 H 100.093 2.99476 0.89628 0
M  V30 995 H 99.3128 3.64419 -1.50308 0
M  V30 996 H 100.601 4.86195 -1.49972 0
M  V30 997 H 99.9988 5.41624 1.6328 0
M  V30 998 H 98.5558 6.34067 1.51006 0
M  V30 999 N 101.989 0.842826 1.3317 0
M  V30 1000 C 102.936 0.276885 2.29133 0
M  V30 1001 C 103.906 -0.609527 1.54512 0
M  V30 1002 O 105.091 -0.546955 1.82792 0
M  V30 1003 C 102.231 -0.538707 3.40869 0
M  V30 1004 C 101.344 0.372169 4.30394 0
M  V30 1005 C 100.479 -0.454908 5.29249 0
M  V30 1006 C 99.5179 0.45411 6.10413 0
M  V30 1007 N 98.6549 -0.335075 7.013 0
M  V30 1008 H 103.495 1.10052 2.76934 0
M  V30 1009 H 101.032 0.554161 1.36262 0
M  V30 1010 H 102.99 -1.02709 4.0436 0
M  V30 1011 H 101.62 -1.32727 2.9425 0
M  V30 1012 H 100.672 0.97888 3.6759 0
M  V30 1013 H 101.984 1.0703 4.87182 0
M  V30 1014 H 101.138 -1.00695 5.98285 0
M  V30 1015 H 99.8769 -1.18646 4.73048 0
M  V30 1016 H 98.8819 1.01813 5.40291 0
M  V30 1017 H 100.107 1.18409 6.68697 0
M  V30 1018 H 98.0529 -1.04994 6.47543 0
M  V30 1019 H 97.9699 0.304262 7.55387 0
M  V30 1020 H 99.2379 -0.869224 7.74638 0
M  V30 1021 N 103.467 -1.45747 0.599634 0
M  V30 1022 C 104.417 -2.27538 -0.145107 0
M  V30 1023 C 105.401 -1.3686 -0.846055 0
M  V30 1024 O 106.593 -1.6091 -0.737357 0
M  V30 1025 C 103.722 -3.23569 -1.14708 0
M  V30 1026 C 102.808 -4.21734 -0.447383 0
M  V30 1027 N 103.199 -5.03257 0.506535 0
M  V30 1028 C 101.497 -4.40536 -0.695966 0
M  V30 1029 C 102.198 -5.74426 0.917068 0
M  V30 1030 N 101.174 -5.42966 0.26253 0
M  V30 1031 H 104.976 -2.87965 0.587672 0
M  V30 1032 H 102.49 -1.56803 0.422697 0
M  V30 1033 H 104.487 -3.8089 -1.69495 0
M  V30 1034 H 103.147 -2.64702 -1.8805 0
M  V30 1035 H 104.158 -5.10319 0.882899 0
M  V30 1036 H 100.835 -3.92802 -1.41467 0
M  V30 1037 H 102.225 -6.4995 1.70338 0
M  V30 1038 N 104.945 -0.338344 -1.53925 0
M  V30 1039 C 106.17 0.263987 -2.05713 0
M  V30 1040 C 106.595 1.43847 -1.21201 0
M  V30 1041 O 105.953 1.79904 -0.224535 0
M  V30 1042 C 106.001 0.662 -3.54471 0
M  V30 1043 O 105.105 1.76265 -3.72833 0
M  V30 1044 H 104.446 0.0448722 -0.662482 0
M  V30 1045 H 106.976 -0.491048 -1.9862 0
M  V30 1046 H 106.986 0.940594 -3.9701 0
M  V30 1047 H 105.661 -0.196937 -4.15433 0
M  V30 1048 H 104.238 1.48173 -3.42198 0
M  V30 1049 N 106.423 1.57458 -0.0668435 0
M  V30 1050 C 107.839 1.56947 0.289772 0
M  V30 1051 C 108.039 1.07584 1.70376 0
M  V30 1052 O 107.095 0.739486 2.41429 0
M  V30 1053 C 108.408 3.0052 0.103943 0
M  V30 1054 C 109.956 3.12517 0.173857 0
M  V30 1055 C 110.431 4.57997 0.0163682 0
M  V30 1056 N 111.922 4.63144 0.0721352 0
M  V30 1057 C 112.657 5.73394 -0.0253794 0
M  V30 1058 N 112.153 6.92576 -0.176133 0
M  V30 1059 N 113.946 5.62091 0.0313305 0
M  V30 1060 H 106.097 1.87863 -0.991027 0
M  V30 1061 H 108.36 0.86583 -0.38606 0
M  V30 1062 H 108.066 3.40729 -0.871572 0
M  V30 1063 H 107.94 3.67304 0.858366 0
M  V30 1064 H 110.327 2.72197 1.13985 0
M  V30 1065 H 110.408 2.48381 -0.611586 0
M  V30 1066 H 110.052 4.99005 -0.946374 0
M  V30 1067 H 109.982 5.20158 0.821153 0
M  V30 1068 H 112.473 3.77436 0.187263 0
M  V30 1069 H 112.786 7.72418 -0.242821 0
M  V30 1070 H 111.131 6.94678 -0.211429 0
M  V30 1071 H 114.322 4.67867 0.147773 0
M  V30 1072 H 114.495 6.47982 -0.048121 0
M  V30 1073 N 107.901 -0.206675 1.56239 0
M  V30 1074 C 108.831 -1.25909 1.96645 0
M  V30 1075 C 109.812 -1.48097 0.836734 0
M  V30 1076 O 110.997 -1.6003 1.10019 0
M  V30 1077 C 108.127 -2.6058 2.29599 0
M  V30 1078 C 107.081 -2.53024 3.452 0
M  V30 1079 C 106.407 -3.91861 3.63798 0
M  V30 1080 C 107.707 -2.06524 4.79734 0
M  V30 1081 H 109.401 -0.923369 2.84806 0
M  V30 1082 H 106.947 -0.442735 1.37025 0
M  V30 1083 H 108.9 -3.34375 2.56459 0
M  V30 1084 H 107.624 -2.95869 1.38307 0
M  V30 1085 H 106.283 -1.81684 3.18412 0
M  V30 1086 H 105.931 -4.24483 2.69857 0
M  V30 1087 H 105.631 -3.87683 4.4156 0
M  V30 1088 H 107.155 -4.67296 3.93022 0
M  V30 1089 H 108.569 -2.70072 5.05702 0
M  V30 1090 H 106.966 -2.13374 5.60885 0
M  V30 1091 H 108.036 -1.01802 4.74093 0
M  V30 1092 N 109.379 -1.50304 -0.473955 0
M  V30 1093 C 110.626 -1.6115 -1.22625 0
M  V30 1094 C 110.954 -0.310517 -1.92005 0
M  V30 1095 O 110.209 0.703419 -1.82621 0
M  V30 1096 C 110.508 -2.73938 -2.29549 0
M  V30 1097 C 110.174 -4.14519 -1.7744 0
M  V30 1098 C 108.836 -4.5277 -1.62949 0
M  V30 1099 C 111.188 -5.02392 -1.3875 0
M  V30 1100 C 108.516 -5.76639 -1.08187 0
M  V30 1101 C 110.868 -6.26805 -0.854309 0
M  V30 1102 C 109.532 -6.63861 -0.696011 0
M  V30 1103 H 108.802 -0.589691 -0.448715 0
M  V30 1104 H 111.449 -1.84228 -0.522705 0
M  V30 1105 H 109.754 -2.44937 -3.05799 0
M  V30 1106 H 111.451 -2.79534 -2.87509 0
M  V30 1107 H 108.041 -3.8434 -1.89685 0
M  V30 1108 H 112.225 -4.73474 -1.4878 0
M  V30 1109 H 107.481 -6.04027 -0.946666 0
M  V30 1110 H 111.655 -6.94258 -0.545843 0
M  V30 1111 H 109.282 -7.59722 -0.26952 0
M  V30 1112 N 110.857 0.726932 -1.39834 0
M  V30 1113 C 112.104 1.48664 -1.37496 0
M  V30 1114 C 112.432 1.94482 0.0264678 0
M  V30 1115 O 111.687 1.67692 1.00886 0
M  V30 1116 C 111.986 2.73495 -2.30077 0
M  V30 1117 C 111.652 2.46502 -3.77555 0
M  V30 1118 C 110.314 2.3885 -4.17737 0
M  V30 1119 C 112.666 2.23604 -4.70798 0
M  V30 1120 C 109.994 2.06352 -5.49214 0
M  V30 1121 C 112.346 1.92622 -6.02561 0
M  V30 1122 C 111.01 1.83444 -6.41798 0
M  V30 1123 H 110.28 0.544001 -0.503135 0
M  V30 1124 H 112.927 0.833657 -1.72402 0
M  V30 1125 H 111.232 3.43575 -1.88317 0
M  V30 1126 H 112.929 3.31549 -2.25558 0
M  V30 1127 H 109.519 2.5334 -3.45712 0
M  V30 1128 H 113.703 2.28479 -4.40581 0
M  V30 1129 H 108.959 1.97776 -5.78528 0
M  V30 1130 H 113.133 1.73914 -6.74334 0
M  V30 1131 H 110.76 1.58029 -7.43593 0
M  V30 1132 N 112.336 1.25143 0.95797 0
M  V30 1133 C 113.583 1.09692 1.70217 0
M  V30 1134 C 113.911 -0.362654 1.91089 0
M  V30 1135 O 113.166 -1.28386 1.47701 0
M  V30 1136 C 113.465 1.79272 3.09187 0
M  V30 1137 C 113.131 3.29196 3.08125 0
M  V30 1138 C 111.793 3.70096 3.07543 0
M  V30 1139 C 114.145 4.24995 3.0171 0
M  V30 1140 C 111.473 5.05213 2.9829 0
M  V30 1141 C 113.825 5.60132 2.93999 0
M  V30 1142 C 112.489 6.00365 2.9175 0
M  V30 1143 H 111.759 0.401393 0.622868 0
M  V30 1144 H 114.406 1.55372 1.11945 0
M  V30 1145 H 112.711 1.26014 3.70982 0
M  V30 1146 H 114.408 1.64773 3.65583 0
M  V30 1147 H 110.998 2.96651 3.09348 0
M  V30 1148 H 115.182 3.9439 3.01281 0
M  V30 1149 H 110.438 5.35569 2.94916 0
M  V30 1150 H 114.612 6.3406 2.87996 0
M  V30 1151 H 112.239 7.05023 2.84336 0
M  V30 1152 N 113.814 -1.1601 1.06675 0
M  V30 1153 C 114.747 -2.1947 0.625168 0
M  V30 1154 C 115.725 -1.58699 -0.354041 0
M  V30 1155 O 116.909 -1.86669 -0.262098 0
M  V30 1156 C 114.036 -3.38598 -0.0829593 0
M  V30 1157 C 113.082 -4.1787 0.853611 0
M  V30 1158 S 113.915 -4.81135 2.35094 0
M  V30 1159 C 115.071 -6.03639 1.65441 0
M  V30 1160 H 115.304 -2.56587 1.50168 0
M  V30 1161 H 112.837 -1.26862 0.880078 0
M  V30 1162 H 114.795 -4.07621 -0.485288 0
M  V30 1163 H 113.456 -2.99839 -0.935716 0
M  V30 1164 H 112.649 -5.03078 0.304755 0
M  V30 1165 H 112.251 -3.54361 1.196 0
M  V30 1166 H 114.543 -6.70632 0.962201 0
M  V30 1167 H 115.486 -6.63081 2.48454 0
M  V30 1168 H 115.894 -5.52965 1.13534 0
M  V30 1169 N 115.292 -0.849877 -1.32721 0
M  V30 1170 C 116.239 -0.289033 -2.28983 0
M  V30 1171 C 117.209 0.601324 -1.54833 0
M  V30 1172 O 118.394 0.537253 -1.8308 0
M  V30 1173 C 115.534 0.520623 -3.4115 0
M  V30 1174 C 114.647 -0.394989 -4.3019 0
M  V30 1175 C 113.782 0.426834 -5.29482 0
M  V30 1176 C 112.821 -0.486476 -6.10164 0
M  V30 1177 N 111.958 0.297879 -7.01468 0
M  V30 1178 H 116.798 -1.11519 -2.76347 0
M  V30 1179 H 114.335 -0.56138 -1.35967 0
M  V30 1180 H 116.293 1.00563 -4.04899 0
M  V30 1181 H 114.923 1.31165 -2.9495 0
M  V30 1182 H 113.975 -0.99836 -3.67065 0
M  V30 1183 H 115.287 -1.09612 -4.86607 0
M  V30 1184 H 114.441 0.975205 -5.98811 0
M  V30 1185 H 113.18 1.16136 -4.73671 0
M  V30 1186 H 112.185 -1.04677 -5.39743 0
M  V30 1187 H 113.41 -1.21953 -6.6806 0
M  V30 1188 H 111.356 1.01558 -6.48091 0
M  V30 1189 H 111.273 -0.344318 -7.55216 0
M  V30 1190 H 112.541 0.828131 -7.75089 0
M  V30 1191 N 116.77 1.45427 -0.607355 0
M  V30 1192 C 117.72 2.27612 0.133038 0
M  V30 1193 C 118.704 1.37307 0.838785 0
M  V30 1194 O 119.896 1.61299 0.728813 0
M  V30 1195 C 117.025 3.24173 1.12991 0
M  V30 1196 C 116.111 4.21965 0.425011 0
M  V30 1197 N 116.502 5.02982 -0.533217 0
M  V30 1198 C 114.8 4.40899 0.672593 0
M  V30 1199 C 115.501 5.73931 -0.947518 0
M  V30 1200 N 114.477 5.42819 -0.291321 0
M  V30 1201 H 118.279 2.87649 -0.602935 0
M  V30 1202 H 115.793 1.56576 -0.431006 0
M  V30 1203 H 117.79 3.81783 1.67473 0
M  V30 1204 H 116.45 2.65696 1.86644 0
M  V30 1205 H 117.461 5.09843 -0.90995 0
M  V30 1206 H 114.138 3.93547 1.39382 0
M  V30 1207 H 115.528 6.49037 -1.73782 0
M  V30 1208 N 118.248 0.346503 1.53744 0
M  V30 1209 C 119.178 -0.501193 2.28058 0
M  V30 1210 C 120.159 -1.10014 1.29734 0
M  V30 1211 O 121.344 -1.12097 1.58581 0
M  V30 1212 C 118.474 -1.65078 3.05559 0
M  V30 1213 C 117.428 -1.18003 4.11411 0
M  V30 1214 C 116.754 -2.41837 4.76884 0
M  V30 1215 C 118.054 -0.278394 5.21558 0
M  V30 1216 H 119.748 0.11875 2.99164 0
M  V30 1217 H 117.294 0.0585531 1.43881 0
M  V30 1218 H 119.247 -2.25028 3.56287 0
M  V30 1219 H 117.971 -2.29767 2.32109 0
M  V30 1220 H 116.63 -0.603331 3.61601 0
M  V30 1221 H 116.278 -3.0494 4.00026 0
M  V30 1222 H 115.978 -2.1102 5.48402 0
M  V30 1223 H 117.502 -3.02508 5.30397 0
M  V30 1224 H 118.916 -0.784823 5.67903 0
M  V30 1225 H 117.313 -0.0619707 6.00068 0
M  V30 1226 H 118.383 0.684677 4.80042 0
M  V30 1227 N 119.726 -1.57421 0.075193 0
M  V30 1228 C 120.951 -1.98364 -0.605515 0
M  V30 1229 C 121.376 -0.953383 -1.62149 0
M  V30 1230 O 120.734 0.0806053 -1.81121 0
M  V30 1231 C 120.782 -3.38332 -1.24756 0
M  V30 1232 O 119.886 -3.37959 -2.36342 0
M  V30 1233 H 119.227 -0.645553 -0.155428 0
M  V30 1234 H 121.757 -2.04044 0.150714 0
M  V30 1235 H 121.767 -3.75591 -1.5936 0
M  V30 1236 H 120.442 -4.12846 -0.503129 0
M  V30 1237 H 119.019 -3.12474 -2.03506 0
M  V30 1238 N 121.204 0.198386 -1.56346 0
M  V30 1239 C 122.453 0.917451 -1.79627 0
M  V30 1240 C 122.766 1.8456 -0.64784 0
M  V30 1241 O 123.972 2.60504 -0.764859 0
M  V30 1242 C 122.428 1.68175 -3.18191 0
M  V30 1243 C 122.036 0.798589 -4.40825 0
M  V30 1244 C 123.78 2.39065 -3.50782 0
M  V30 1245 C 121.687 1.56157 -5.70411 0
M  V30 1246 H 120.617 0.346317 -0.669762 0
M  V30 1247 H 123.268 0.170801 -1.82703 0
M  V30 1248 H 121.65 2.47216 -3.09354 0
M  V30 1249 H 122.824 0.0470665 -4.60776 0
M  V30 1250 H 121.139 0.200686 -4.15916 0
M  V30 1251 H 123.736 2.96692 -4.44835 0
M  V30 1252 H 124.079 3.13091 -2.74371 0
M  V30 1253 H 124.612 1.66993 -3.61052 0
M  V30 1254 H 121.351 0.864142 -6.49779 0
M  V30 1255 H 120.871 2.2871 -5.54483 0
M  V30 1256 H 122.55 2.11622 -6.11412 0
M  V30 1257 N 122.682 1.50554 0.465978 0
M  V30 1258 C 123.645 1.69233 1.54574 0
M  V30 1259 C 124.645 0.562901 1.50626 0
M  V30 1260 O 125.835 0.830016 1.53155 0
M  V30 1261 C 122.967 1.7223 2.94193 0
M  V30 1262 H 124.16 2.65571 1.39327 0
M  V30 1263 H 121.713 1.40111 0.692711 0
M  V30 1264 H 122.448 0.77603 3.14878 0
M  V30 1265 H 122.233 2.54285 2.98466 0
M  V30 1266 H 123.723 1.88618 3.72576 0
M  V30 1267 N 124.16 -0.719506 1.40217 0
M  V30 1268 C 125.437 -1.47221 1.28784 0
M  V30 1269 C 125.817 -2.10883 -0.0956067 0
M  V30 1270 O 125.165 -1.99833 -1.10811 0
M  V30 1271 C 125.375 -2.5111 2.42373 0
M  V30 1272 C 126.723 -3.17053 2.82423 0
M  V30 1273 O 127.747 -2.61429 2.41937 0
M  V30 1274 O 126.606 -4.17742 3.52355 0
M  V30 1275 H 123.7 -0.654491 0.50554 0
M  V30 1276 H 126.246 -0.752014 1.52128 0
M  V30 1277 H 125.018 -2.02556 3.34793 0
M  V30 1278 H 124.641 -3.3067 2.20778 0
M  V30 1279 N 125.638 -1.25649 -0.95132 0
M  V30 1280 C 126.568 -1.08808 -2.06599 0
M  V30 1281 C 127.549 0.00382547 -1.701 0
M  V30 1282 O 128.734 -0.166325 -1.93486 0
M  V30 1283 C 125.864 -0.709542 -3.39975 0
M  V30 1284 C 124.818 -1.75206 -3.90496 0
M  V30 1285 C 124.144 -1.22811 -5.20405 0
M  V30 1286 C 125.444 -3.15153 -4.16504 0
M  V30 1287 H 127.138 -2.02048 -2.20946 0
M  V30 1288 H 124.684 -0.972835 -1.06169 0
M  V30 1289 H 126.637 -0.578649 -4.17408 0
M  V30 1290 H 125.361 0.258556 -3.25575 0
M  V30 1291 H 124.02 -1.87145 -3.15234 0
M  V30 1292 H 123.668 -0.250145 -5.02378 0
M  V30 1293 H 123.368 -1.92492 -5.55176 0
M  V30 1294 H 124.892 -1.10968 -6.00432 0
M  V30 1295 H 126.306 -3.06349 -4.84586 0
M  V30 1296 H 124.703 -3.82333 -4.62538 0
M  V30 1297 H 125.773 -3.61966 -3.22658 0
M  V30 1298 N 127.117 1.15442 -1.07289 0
M  V30 1299 C 128.363 1.86489 -0.796846 0
M  V30 1300 C 128.696 1.82078 0.675371 0
M  V30 1301 O 127.971 1.24346 1.4956 0
M  V30 1302 C 128.254 3.35626 -1.30489 0
M  V30 1303 C 128.107 3.48673 -2.84161 0
M  V30 1304 C 129.426 4.30357 -0.920907 0
M  V30 1305 H 126.545 0.677144 -0.290939 0
M  V30 1306 H 129.187 1.35633 -1.33056 0
M  V30 1307 H 127.337 3.79068 -0.850883 0
M  V30 1308 H 129.009 3.14099 -3.37846 0
M  V30 1309 H 127.252 2.90253 -3.22391 0
M  V30 1310 H 127.923 4.53453 -3.14777 0
M  V30 1311 H 130.399 3.94871 -1.3121 0
M  V30 1312 H 129.275 5.33193 -1.30372 0
M  V30 1313 H 129.536 4.4176 0.173226 0
M  V30 1314 N 128.595 0.856903 1.32268 0
M  V30 1315 C 129.841 0.462069 1.97466 0
M  V30 1316 C 130.174 -0.980298 1.67642 0
M  V30 1317 O 129.449 -1.68824 0.965858 0
M  V30 1318 C 129.732 0.704336 3.53145 0
M  V30 1319 C 129.585 2.19529 3.9259 0
M  V30 1320 C 130.904 0.1622 4.39801 0
M  V30 1321 H 128.023 0.169357 0.717278 0
M  V30 1322 H 130.665 1.07574 1.56614 0
M  V30 1323 H 128.815 0.181999 3.88073 0
M  V30 1324 H 130.487 2.78387 3.67829 0
M  V30 1325 H 128.73 2.67292 3.41668 0
M  V30 1326 H 129.401 2.31549 5.01088 0
M  V30 1327 H 131.877 0.608905 4.11621 0
M  V30 1328 H 130.753 0.361265 5.4771 0
M  V30 1329 H 131.014 -0.935158 4.32096 0
M  V30 1330 N 130.073 -1.45103 0.615059 0
M  V30 1331 C 131.036 -2.29025 -0.0895485 0
M  V30 1332 C 132.036 -1.40174 -0.787906 0
M  V30 1333 O 133.226 -1.62217 -0.634933 0
M  V30 1334 C 130.358 -3.21376 -1.13711 0
M  V30 1335 H 131.551 -2.92807 0.648382 0
M  V30 1336 H 129.104 -1.51749 0.374444 0
M  V30 1337 H 129.839 -2.6241 -1.90556 0
M  V30 1338 H 129.624 -3.86834 -0.640475 0
M  V30 1339 H 131.114 -3.84459 -1.63036 0
M  V30 1340 N 131.551 -0.354651 -1.53558 0
M  V30 1341 C 132.797 0.238797 -2.01389 0
M  V30 1342 C 133.13 1.49309 -1.2418 0
M  V30 1343 O 132.405 1.91638 -0.332457 0
M  V30 1344 C 132.688 0.541771 -3.56001 0
M  V30 1345 C 132.541 -0.725388 -4.43912 0
M  V30 1346 C 133.86 1.34685 -4.18984 0
M  V30 1347 H 130.979 0.0853177 -0.732045 0
M  V30 1348 H 133.621 -0.477384 -1.83905 0
M  V30 1349 H 131.771 1.15189 -3.71031 0
M  V30 1350 H 133.443 -1.36313 -4.407 0
M  V30 1351 H 131.686 -1.34801 -4.12324 0
M  V30 1352 H 132.357 -0.468505 -5.50008 0
M  V30 1353 H 134.833 0.830837 -4.07721 0
M  V30 1354 H 133.709 1.52759 -5.27215 0
M  V30 1355 H 133.97 2.35221 -3.74331 0
M  V30 1356 N 133.029 1.57378 -0.0835403 0
M  V30 1357 C 134.276 1.9393 0.58287 0
M  V30 1358 C 134.604 0.964455 1.68904 0
M  V30 1359 O 133.859 -0.0179474 1.95692 0
M  V30 1360 C 134.158 3.37063 1.1884 0
M  V30 1361 C 133.824 4.50424 0.207194 0
M  V30 1362 C 132.486 4.81159 -0.0627115 0
M  V30 1363 C 134.838 5.19136 -0.463426 0
M  V30 1364 C 132.166 5.77939 -1.01012 0
M  V30 1365 C 134.518 6.16931 -1.39924 0
M  V30 1366 C 133.182 6.46078 -1.67749 0
M  V30 1367 H 132.452 0.70964 0.213287 0
M  V30 1368 H 135.099 1.90856 -0.156916 0
M  V30 1369 H 133.404 3.3666 2.00418 0
M  V30 1370 H 135.101 3.6264 1.71153 0
M  V30 1371 H 131.691 4.2646 0.427747 0
M  V30 1372 H 135.875 4.95576 -0.268034 0
M  V30 1373 H 131.131 5.98842 -1.23283 0
M  V30 1374 H 135.305 6.69273 -1.92476 0
M  V30 1375 H 132.932 7.2088 -2.41321 0
M  V30 1376 N 134.507 -0.190092 1.56449 0
M  V30 1377 C 135.439 -1.25973 1.91477 0
M  V30 1378 C 136.452 -1.41452 0.805931 0
M  V30 1379 O 137.641 -1.41789 1.08435 0
M  V30 1380 C 134.741 -2.63117 2.13594 0
M  V30 1381 C 133.914 -2.69182 3.4476 0
M  V30 1382 C 132.973 -3.87557 3.5593 0
M  V30 1383 O 131.999 -3.74427 4.28711 0
M  V30 1384 N 133.201 -5.03224 2.89388 0
M  V30 1385 H 135.966 -0.962394 2.83828 0
M  V30 1386 H 133.527 -0.379981 1.57378 0
M  V30 1387 H 135.519 -3.40742 2.1835 0
M  V30 1388 H 134.089 -2.85319 1.27719 0
M  V30 1389 H 133.309 -1.77793 3.51828 0
M  V30 1390 H 134.597 -2.70229 4.31107 0
M  V30 1391 H 133.995 -5.16791 2.30094 0
M  V30 1392 H 132.552 -5.78778 2.99764 0
M  V30 1393 N 135.985 -1.50799 -0.457987 0
M  V30 1394 C 137.231 -1.62683 -1.21088 0
M  V30 1395 C 137.564 -0.332268 -1.91336 0
M  V30 1396 O 136.839 0.667043 -1.82704 0
M  V30 1397 C 137.122 -2.81615 -2.24422 0
M  V30 1398 C 136.975 -4.20989 -1.58392 0
M  V30 1399 C 138.294 -2.96085 -3.2561 0
M  V30 1400 H 135.413 -0.592087 -0.438864 0
M  V30 1401 H 138.055 -1.83225 -0.50286 0
M  V30 1402 H 136.205 -2.64231 -2.84806 0
M  V30 1403 H 137.877 -4.49994 -1.01504 0
M  V30 1404 H 136.12 -4.24641 -0.886704 0
M  V30 1405 H 136.791 -5.0016 -2.33547 0
M  V30 1406 H 139.267 -3.12042 -2.75262 0
M  V30 1407 H 138.143 -3.80902 -3.95228 0
M  V30 1408 H 138.404 -2.0726 -3.90507 0
M  V30 1409 N 137.463 0.71206 -1.40597 0
M  V30 1410 C 138.393 1.83889 -1.43899 0
M  V30 1411 C 139.374 1.67442 -0.299504 0
M  V30 1412 O 140.559 1.87421 -0.508624 0
M  V30 1413 C 137.689 3.21877 -1.30431 0
M  V30 1414 C 136.643 3.53002 -2.42019 0
M  V30 1415 C 135.969 4.90172 -2.13626 0
M  V30 1416 C 137.269 3.53643 -3.84362 0
M  V30 1417 H 138.963 1.81383 -2.38203 0
M  V30 1418 H 136.509 0.871237 -1.14654 0
M  V30 1419 H 138.462 4.00404 -1.31357 0
M  V30 1420 H 137.186 3.24968 -0.326049 0
M  V30 1421 H 135.845 2.76818 -2.40349 0
M  V30 1422 H 135.493 4.89869 -1.14182 0
M  V30 1423 H 135.193 5.11962 -2.88389 0
M  V30 1424 H 136.717 5.71028 -2.1624 0
M  V30 1425 H 138.131 4.22203 -3.87837 0
M  V30 1426 H 136.528 3.86961 -4.58673 0
M  V30 1427 H 137.598 2.52954 -4.13693 0
M  V30 1428 N 138.941 1.26152 0.944643 0
M  V30 1429 C 140.352 1.10454 1.50522 0
M  V30 1430 C 140.703 -0.31635 1.93633 0
M  V30 1431 O 139.828 -1.20746 1.79581 0
M  V30 1432 C 140.423 1.99891 2.73549 0
M  V30 1433 C 138.982 1.88348 3.25886 0
M  V30 1434 C 138.129 1.93447 1.9868 0
M  V30 1435 H 141.08 1.39292 0.760489 0
M  V30 1436 H 141.101 1.54477 3.47732 0
M  V30 1437 H 140.613 3.03297 2.42141 0
M  V30 1438 H 138.714 0.878636 3.62092 0
M  V30 1439 H 138.827 2.73696 3.93227 0
M  V30 1440 H 137.191 1.37456 2.14425 0
M  V30 1441 H 137.974 2.98476 1.69607 0
M  V30 1442 N 140.419 -1.14872 1.07899 0
M  V30 1443 C 141.351 -2.19425 0.662231 0
M  V30 1444 C 142.364 -1.60231 -0.288079 0
M  V30 1445 O 143.553 -1.78336 -0.076534 0
M  V30 1446 C 140.653 -3.38867 -0.0470695 0
M  V30 1447 C 139.826 -4.27597 0.920831 0
M  V30 1448 C 138.885 -5.25616 0.247805 0
M  V30 1449 O 137.911 -5.62189 0.890599 0
M  V30 1450 N 139.113 -5.71746 -1.00435 0
M  V30 1451 H 141.878 -2.55797 1.56166 0
M  V30 1452 H 139.439 -1.30042 0.964404 0
M  V30 1453 H 141.431 -4.01497 -0.50813 0
M  V30 1454 H 140.001 -3.00864 -0.848523 0
M  V30 1455 H 139.221 -3.61982 1.56087 0
M  V30 1456 H 140.509 -4.83748 1.57688 0
M  V30 1457 H 139.907 -5.44153 -1.54642 0
M  V30 1458 H 138.464 -6.36389 -1.40899 0
M  V30 1459 N 141.898 -0.863906 -1.31812 0
M  V30 1460 C 142.828 -0.330843 -2.31144 0
M  V30 1461 C 143.809 0.575005 -1.60087 0
M  V30 1462 O 144.994 0.493304 -1.8783 0
M  V30 1463 C 142.124 0.47374 -3.44054 0
M  V30 1464 C 141.078 -0.338481 -4.26659 0
M  V30 1465 C 140.404 0.591412 -5.31419 0
M  V30 1466 C 141.704 -1.56926 -4.98168 0
M  V30 1467 H 143.398 -1.16086 -2.75979 0
M  V30 1468 H 140.944 -0.559657 -1.32679 0
M  V30 1469 H 142.897 0.857143 -4.12591 0
M  V30 1470 H 141.621 1.33721 -2.9797 0
M  V30 1471 H 140.28 -0.703754 -3.59782 0
M  V30 1472 H 139.928 1.45199 -4.81587 0
M  V30 1473 H 139.628 0.0519022 -5.87577 0
M  V30 1474 H 141.152 0.97179 -6.02817 0
M  V30 1475 H 142.566 -1.25764 -5.59336 0
M  V30 1476 H 140.963 -2.04739 -5.64094 0
M  V30 1477 H 142.033 -2.32544 -4.25501 0
M  V30 1478 N 143.376 1.44774 -0.622745 0
M  V30 1479 C 144.306 2.33382 0.0741861 0
M  V30 1480 C 145.287 1.47719 0.843387 0
M  V30 1481 O 146.472 1.76458 0.810934 0
M  V30 1482 C 143.602 3.30663 1.06204 0
M  V30 1483 C 142.556 4.26079 0.405037 0
M  V30 1484 C 141.882 5.13165 1.5022 0
M  V30 1485 C 143.182 5.1781 -0.683414 0
M  V30 1486 H 144.876 2.91905 -0.665713 0
M  V30 1487 H 142.422 1.40363 -0.321587 0
M  V30 1488 H 144.375 3.9153 1.55827 0
M  V30 1489 H 143.099 2.70331 1.83272 0
M  V30 1490 H 141.758 3.66532 -0.0704683 0
M  V30 1491 H 141.406 4.49191 2.26355 0
M  V30 1492 H 141.106 5.77812 1.06803 0
M  V30 1493 H 142.63 5.76902 2.00041 0
M  V30 1494 H 144.044 5.72661 -0.270631 0
M  V30 1495 H 142.441 5.91015 -1.04023 0
M  V30 1496 H 143.511 4.59326 -1.55395 0
M  V30 1497 N 144.854 0.36279 1.53368 0
M  V30 1498 C 146.1 -0.220702 2.02199 0
M  V30 1499 C 146.455 -1.46649 1.24546 0
M  V30 1500 O 145.748 -1.88737 0.32996 0
M  V30 1501 C 145.942 -0.568417 3.52851 0
M  V30 1502 C 145.771 0.642126 4.45092 0
M  V30 1503 C 144.541 1.15335 4.91961 0
M  V30 1504 C 146.739 1.50649 4.91741 0
M  V30 1505 N 144.721 2.3242 5.68202 0
M  V30 1506 C 146.092 2.52404 5.66297 0
M  V30 1507 C 148.147 1.52969 4.73819 0
M  V30 1508 C 146.85 3.56331 6.24836 0
M  V30 1509 C 148.876 2.55789 5.33222 0
M  V30 1510 C 148.238 3.56268 6.07662 0
M  V30 1511 H 144.337 -0.0435508 0.780786 0
M  V30 1512 H 146.921 0.506704 1.87991 0
M  V30 1513 H 145.092 -1.2649 3.67226 0
M  V30 1514 H 146.824 -1.13676 3.88407 0
M  V30 1515 H 143.579 0.718412 4.68119 0
M  V30 1516 H 144.003 2.91591 6.10986 0
M  V30 1517 H 148.645 0.766418 4.15795 0
M  V30 1518 H 146.363 4.33543 6.81958 0
M  V30 1519 H 149.949 2.58435 5.21251 0
M  V30 1520 H 148.829 4.34524 6.52808 0
M  V30 1521 N 146.332 -1.57332 0.0918853 0
M  V30 1522 C 147.609 -1.85691 -0.614668 0
M  V30 1523 C 147.989 -0.988146 -1.86545 0
M  V30 1524 O 147.337 -0.0597055 -2.28422 0
M  V30 1525 C 147.547 -3.36294 -0.933126 0
M  V30 1526 C 148.895 -4.04275 -1.29796 0
M  V30 1527 O 149.919 -3.41157 -1.02424 0
M  V30 1528 O 148.778 -5.1564 -1.81047 0
M  V30 1529 H 145.872 -0.767802 -0.307261 0
M  V30 1530 H 148.418 -1.69244 0.12434 0
M  V30 1531 H 147.19 -3.91273 -0.0456404 0
M  V30 1532 H 146.813 -3.58076 -1.72822 0
M  V30 1533 N 147.81 0.181792 -1.56548 0
M  V30 1534 C 149.059 0.898348 -1.8059 0
M  V30 1535 C 149.372 1.83862 -0.667379 0
M  V30 1536 O 150.578 2.59678 -0.792446 0
M  V30 1537 C 149.034 1.64791 -3.19956 0
M  V30 1538 C 148.642 0.751789 -4.41647 0
M  V30 1539 C 150.386 2.35331 -3.53298 0
M  V30 1540 C 148.293 1.50098 -5.72035 0
M  V30 1541 H 147.223 0.339194 -0.673397 0
M  V30 1542 H 149.874 0.151413 -1.82874 0
M  V30 1543 H 148.256 2.43921 -3.11959 0
M  V30 1544 H 149.43 -0.0018076 -4.608 0
M  V30 1545 H 147.745 0.156562 -4.16106 0
M  V30 1546 H 150.342 2.91958 -4.47956 0
M  V30 1547 H 150.685 3.10164 -2.77676 0
M  V30 1548 H 151.218 1.63154 -3.62803 0
M  V30 1549 H 147.957 0.795175 -6.50659 0
M  V30 1550 H 147.477 2.22817 -5.56878 0
M  V30 1551 H 149.156 2.05125 -6.13622 0
M  V30 1552 N 149.288 1.51039 0.449983 0
M  V30 1553 C 150.516 1.66869 1.2232 0
M  V30 1554 C 150.931 0.360727 1.85322 0
M  V30 1555 O 150.288 -0.659531 1.70166 0
M  V30 1556 C 150.339 2.77524 2.31652 0
M  V30 1557 O 150.06 4.03252 1.7123 0
M  V30 1558 C 151.561 3.04512 3.2216 0
M  V30 1559 H 148.781 0.560326 0.369155 0
M  V30 1560 H 151.325 1.97385 0.534719 0
M  V30 1561 H 149.48 2.49642 2.96239 0
M  V30 1562 H 149.894 4.64609 2.43389 0
M  V30 1563 H 151.368 3.85551 3.95038 0
M  V30 1564 H 151.845 2.16415 3.8218 0
M  V30 1565 H 152.451 3.34005 2.63288 0
M  V30 1566 N 150.766 -0.704594 1.40972 0
M  V30 1567 C 152.013 -1.46458 1.39844 0
M  V30 1568 C 152.341 -1.94499 0.00447594 0
M  V30 1569 O 151.596 -1.69275 -0.982057 0
M  V30 1570 C 151.895 -2.698 2.34399 0
M  V30 1571 C 151.561 -2.40464 3.81429 0
M  V30 1572 C 150.223 -2.32174 4.21484 0
M  V30 1573 C 152.575 -2.16086 4.74296 0
M  V30 1574 C 149.903 -1.97589 5.52427 0
M  V30 1575 C 152.255 -1.83011 6.05549 0
M  V30 1576 C 150.919 -1.7321 6.44635 0
M  V30 1577 H 150.189 -0.535927 0.511725 0
M  V30 1578 H 152.836 -0.806124 1.73706 0
M  V30 1579 H 151.141 -3.40536 1.93759 0
M  V30 1580 H 152.838 -3.27919 2.30804 0
M  V30 1581 H 149.428 -2.47808 3.49699 0
M  V30 1582 H 153.612 -2.2144 4.4416 0
M  V30 1583 H 148.868 -1.88547 5.81601 0
M  V30 1584 H 153.042 -1.63164 6.77016 0
M  V30 1585 H 150.669 -1.46179 7.46013 0
M  V30 1586 N 152.244 -1.26651 -0.937939 0
M  V30 1587 C 153.66 -1.03834 -1.21205 0
M  V30 1588 C 153.86 0.234502 -2.00131 0
M  V30 1589 O 152.916 0.942767 -2.3424 0
M  V30 1590 C 154.229 -2.27167 -1.97017 0
M  V30 1591 C 155.777 -2.32101 -2.09996 0
M  V30 1592 C 156.252 -3.55136 -2.8921 0
M  V30 1593 N 157.743 -3.55632 -2.96783 0
M  V30 1594 C 158.478 -4.475 -3.58512 0
M  V30 1595 N 157.974 -5.4966 -4.21717 0
M  V30 1596 N 159.767 -4.35145 -3.55816 0
M  V30 1597 H 151.918 -2.08398 -0.410391 0
M  V30 1598 H 154.181 -0.916031 -0.244114 0
M  V30 1599 H 153.887 -3.19765 -1.46434 0
M  V30 1600 H 153.761 -2.31672 -2.97671 0
M  V30 1601 H 156.148 -1.40015 -2.59769 0
M  V30 1602 H 156.229 -2.31605 -1.08594 0
M  V30 1603 H 155.873 -4.47553 -2.40123 0
M  V30 1604 H 155.803 -3.5288 -3.90875 0
M  V30 1605 H 158.294 -2.81743 -2.51852 0
M  V30 1606 H 158.607 -6.15943 -4.66727 0
M  V30 1607 H 156.952 -5.53514 -4.20294 0
M  V30 1608 H 160.143 -3.5455 -3.05634 0
M  V30 1609 H 160.316 -5.06934 -4.03636 0
M  V30 1610 N 153.722 1.14298 -1.08507 0
M  V30 1611 C 154.969 1.85359 -0.815373 0
M  V30 1612 C 155.297 1.83001 0.658865 0
M  V30 1613 O 154.552 1.25655 1.50031 0
M  V30 1614 C 154.851 3.33547 -1.28379 0
M  V30 1615 C 154.517 3.56093 -2.76602 0
M  V30 1616 C 153.179 3.61955 -3.17084 0
M  V30 1617 C 155.531 3.64834 -3.72217 0
M  V30 1618 C 152.859 3.74082 -4.51973 0
M  V30 1619 C 155.211 3.78487 -5.06883 0
M  V30 1620 C 153.875 3.82598 -5.46969 0
M  V30 1621 H 153.145 0.678276 -0.298366 0
M  V30 1622 H 155.792 1.35002 -1.35819 0
M  V30 1623 H 154.097 3.86191 -0.660593 0
M  V30 1624 H 155.794 3.86959 -1.05186 0
M  V30 1625 H 152.384 3.52179 -2.4427 0
M  V30 1626 H 156.568 3.59595 -3.42061 0
M  V30 1627 H 151.824 3.75527 -4.82483 0
M  V30 1628 H 155.998 3.84193 -5.80834 0
M  V30 1629 H 153.625 3.91747 -6.51489 0
M  V30 1630 N 155.201 0.870884 1.31352 0
M  V30 1631 C 156.431 0.496049 2.00557 0
M  V30 1632 C 156.839 -0.916241 1.65534 0
M  V30 1633 O 156.182 -1.61188 0.881134 0
M  V30 1634 C 156.244 0.574418 3.54881 0
M  V30 1635 C 155.908 1.94849 4.1338 0
M  V30 1636 C 156.905 2.91611 4.30417 0
M  V30 1637 C 154.59 2.25005 4.49086 0
M  V30 1638 C 156.584 4.16672 4.82352 0
M  V30 1639 C 154.271 3.50315 5.00722 0
M  V30 1640 C 155.269 4.45964 5.17306 0
M  V30 1641 O 154.957 5.69052 5.67833 0
M  V30 1642 H 154.689 0.191664 0.64826 0
M  V30 1643 H 157.243 1.17409 1.68536 0
M  V30 1644 H 155.473 -0.160549 3.86367 0
M  V30 1645 H 157.162 0.212879 4.05341 0
M  V30 1646 H 157.928 2.69622 4.03149 0
M  V30 1647 H 153.807 1.51332 4.35453 0
M  V30 1648 H 157.351 4.91336 4.95211 0
M  V30 1649 H 153.248 3.72147 5.27424 0
M  V30 1650 H 154.016 5.71236 5.86201 0
M  V30 1651 N 156.679 -1.44442 0.630414 0
M  V30 1652 C 157.927 -2.01653 0.134351 0
M  V30 1653 C 158.248 -1.49836 -1.24796 0
M  V30 1654 O 157.518 -0.701684 -1.82902 0
M  V30 1655 H 156.098 -0.74554 0.0466769 0
M  V30 1656 H 158.76 -1.76952 0.816955 0
M  V30 1657 H 157.856 -3.11935 0.101498 0
M  V30 1658 N 158.157 -0.370918 -1.53173 0
M  V30 1659 C 159.568 0.107139 -1.86392 0
M  V30 1660 C 159.919 1.47714 -1.29132 0
M  V30 1661 O 159.044 2.07464 -0.615439 0
M  V30 1662 C 159.639 0.201187 -3.38202 0
M  V30 1663 C 158.198 0.623507 -3.712 0
M  V30 1664 C 157.345 -0.225978 -2.76378 0
M  V30 1665 H 160.296 -0.58951 -1.47345 0
M  V30 1666 H 160.317 1.02377 -3.66468 0
M  V30 1667 H 159.829 -0.796058 -3.79848 0
M  V30 1668 H 157.93 1.62879 -3.35114 0
M  V30 1669 H 158.043 0.394414 -4.77474 0
M  V30 1670 H 156.407 0.305962 -2.52856 0
M  V30 1671 H 157.19 -1.22086 -3.20858 0
M  V30 1672 N 159.635 1.57281 -0.100228 0
M  V30 1673 C 160.912 1.86014 0.604812 0
M  V30 1674 C 161.292 0.998025 1.86018 0
M  V30 1675 O 160.64 0.0718184 2.28387 0
M  V30 1676 C 160.85 3.36784 0.915278 0
M  V30 1677 C 162.198 4.04957 1.27651 0
M  V30 1678 O 163.222 3.41695 1.00613 0
M  V30 1679 O 162.081 5.16593 1.7831 0
M  V30 1680 H 159.175 0.76942 0.303185 0
M  V30 1681 H 161.721 1.69176 -0.133313 0
M  V30 1682 H 160.493 3.91292 0.0248896 0
M  V30 1683 H 160.116 3.58987 1.70921 0
M  V30 1684 N 161.113 -0.173488 1.56642 0
M  V30 1685 C 162.043 -1.2171 1.99271 0
M  V30 1686 C 163.024 -1.46289 0.867959 0
M  V30 1687 O 164.209 -1.5766 1.13388 0
M  V30 1688 C 161.339 -2.55651 2.35074 0
M  V30 1689 C 160.293 -2.45645 3.50489 0
M  V30 1690 C 159.619 -3.84056 3.72028 0
M  V30 1691 C 160.919 -1.96302 4.84007 0
M  V30 1692 H 162.613 -0.86275 2.867 0
M  V30 1693 H 160.159 -0.413571 1.37933 0
M  V30 1694 H 162.112 -3.2886 2.63494 0
M  V30 1695 H 160.836 -2.92869 1.44552 0
M  V30 1696 H 159.495 -1.7489 3.22194 0
M  V30 1697 H 159.143 -4.18664 2.788 0
M  V30 1698 H 158.843 -3.7823 4.49684 0
M  V30 1699 H 160.367 -4.58854 4.02846 0
M  V30 1700 H 161.781 -2.59284 5.11317 0
M  V30 1701 H 160.178 -2.01429 5.65284 0
M  V30 1702 H 161.248 -0.917226 4.76146 0
M  V30 1703 N 162.591 -1.51276 -0.441967 0
M  V30 1704 C 163.521 -1.752 -1.54361 0
M  V30 1705 C 164.502 -0.601682 -1.59103 0
M  V30 1706 O 165.687 -0.843913 -1.74905 0
M  V30 1707 C 162.817 -1.87282 -2.92477 0
M  V30 1708 C 161.771 -3.02687 -3.02596 0
M  V30 1709 C 161.097 -2.99947 -4.42647 0
M  V30 1710 C 162.397 -4.4273 -2.77106 0
M  V30 1711 H 164.091 -2.67442 -1.34592 0
M  V30 1712 H 161.637 -1.28694 -0.646048 0
M  V30 1713 H 163.59 -2.02602 -3.695 0
M  V30 1714 H 162.314 -0.916844 -3.13467 0
M  V30 1715 H 160.973 -2.87065 -2.28012 0
M  V30 1716 H 160.621 -2.02136 -4.60597 0
M  V30 1717 H 160.321 -3.77439 -4.50348 0
M  V30 1718 H 161.845 -3.17354 -5.2165 0
M  V30 1719 H 163.259 -4.58727 -3.43864 0
M  V30 1720 H 161.656 -5.21893 -2.96222 0
M  V30 1721 H 162.726 -4.53087 -1.72744 0
M  V30 1722 N 164.069 0.697108 -1.41344 0
M  V30 1723 C 165.309 1.46939 -1.42085 0
M  V30 1724 C 165.673 1.9198 -0.0280397 0
M  V30 1725 O 166.874 2.6865 0.0897504 0
M  V30 1726 C 165.145 2.64985 -2.39828 0
M  V30 1727 S 166.704 3.54147 -2.59085 0
M  V30 1728 H 163.522 0.502146 -0.503359 0
M  V30 1729 H 166.124 0.813546 -1.77769 0
M  V30 1730 H 164.828 2.30098 -3.39828 0
M  V30 1731 H 164.359 3.35464 -2.05493 0
M  V30 1732 H 166.374 4.60137 -1.85711 0
M  V30 1733 N 165.547 1.27147 0.931209 0
M  V30 1734 C 166.963 1.04475 1.20653 0
M  V30 1735 C 167.163 -0.223885 2.00252 0
M  V30 1736 O 166.219 -0.930332 2.34736 0
M  V30 1737 C 167.532 2.28209 1.95809 0
M  V30 1738 C 169.08 2.33211 2.08762 0
M  V30 1739 C 169.555 3.56665 2.87323 0
M  V30 1740 N 171.046 3.57201 2.94892 0
M  V30 1741 C 171.781 4.49395 3.56134 0
M  V30 1742 N 171.277 5.51889 4.18796 0
M  V30 1743 N 173.07 4.37026 3.53504 0
M  V30 1744 H 165.221 2.08612 0.399333 0
M  V30 1745 H 167.484 0.917312 0.239253 0
M  V30 1746 H 167.19 3.20538 1.44736 0
M  V30 1747 H 167.064 2.33247 2.96438 0
M  V30 1748 H 169.451 1.41391 2.59023 0
M  V30 1749 H 169.532 2.32178 1.07364 0
M  V30 1750 H 169.176 4.4882 2.37746 0
M  V30 1751 H 169.106 3.54948 3.88998 0
M  V30 1752 H 171.597 2.83074 2.50354 0
M  V30 1753 H 171.91 6.18409 4.63454 0
M  V30 1754 H 170.255 5.55735 4.17353 0
M  V30 1755 H 173.446 3.56166 3.03749 0
M  V30 1756 H 173.619 5.09067 4.00942 0
M  V30 1757 N 167.025 -1.13721 1.09112 0
M  V30 1758 C 167.955 -2.21148 0.749385 0
M  V30 1759 C 168.936 -1.6792 -0.271475 0
M  V30 1760 O 170.121 -1.93693 -0.140251 0
M  V30 1761 C 167.251 -3.46905 0.165659 0
M  V30 1762 C 166.205 -4.13203 1.11567 0
M  V30 1763 C 165.531 -5.33248 0.393809 0
M  V30 1764 C 166.831 -4.60912 2.45678 0
M  V30 1765 H 168.525 -2.4999 1.64758 0
M  V30 1766 H 166.071 -1.20156 0.793626 0
M  V30 1767 H 168.024 -4.21313 -0.085466 0
M  V30 1768 H 166.748 -3.17449 -0.767714 0
M  V30 1769 H 165.407 -3.40758 1.35202 0
M  V30 1770 H 165.055 -5.00054 -0.543599 0
M  V30 1771 H 164.755 -5.78552 1.02721 0
M  V30 1772 H 166.279 -6.10413 0.150908 0
M  V30 1773 H 167.693 -5.26759 2.26269 0
M  V30 1774 H 166.09 -5.16944 3.04776 0
M  V30 1775 H 167.16 -3.75603 3.06677 0
M  V30 1776 N 168.503 -0.877838 -1.30888 0
M  V30 1777 C 169.749 -0.493426 -1.96706 0
M  V30 1778 C 170.082 0.953504 -1.6918 0
M  V30 1779 O 169.357 1.67266 -0.992594 0
M  V30 1780 C 169.64 -0.760429 -3.51979 0
M  V30 1781 C 169.493 -2.25747 -3.89048 0
M  V30 1782 C 170.812 -0.232148 -4.39487 0
M  V30 1783 H 167.931 -0.180746 -0.714493 0
M  V30 1784 H 170.573 -1.10052 -1.54882 0
M  V30 1785 H 168.723 -0.243715 -3.87735 0
M  V30 1786 H 170.395 -2.84204 -3.63354 0
M  V30 1787 H 168.638 -2.72694 -3.37373 0
M  V30 1788 H 169.309 -2.39491 -4.97341 0
M  V30 1789 H 171.785 -0.674314 -4.106 0
M  V30 1790 H 170.661 -0.448355 -5.47066 0
M  V30 1791 H 170.922 0.866297 -4.33529 0
M  V30 1792 N 169.982 1.44106 -0.638065 0
M  V30 1793 C 170.929 2.30715 0.062701 0
M  V30 1794 C 171.899 1.43882 0.829883 0
M  V30 1795 O 173.084 1.72775 0.809532 0
M  V30 1796 C 170.224 3.29258 1.03358 0
M  V30 1797 C 169.337 4.31192 0.26409 0
M  V30 1798 C 168.472 5.16825 1.22741 0
M  V30 1799 C 167.511 6.10462 0.447475 0
M  V30 1800 N 166.648 6.8877 1.36161 0
M  V30 1801 H 171.488 2.90096 -0.681781 0
M  V30 1802 H 169.025 1.42925 -0.347988 0
M  V30 1803 H 170.983 3.84886 1.60992 0
M  V30 1804 H 169.613 2.71562 1.74511 0
M  V30 1805 H 168.665 3.77981 -0.428295 0
M  V30 1806 H 169.977 4.97619 -0.343052 0
M  V30 1807 H 169.131 5.77004 1.87487 0
M  V30 1808 H 167.87 4.50488 1.86847 0
M  V30 1809 H 166.875 5.49386 -0.213433 0
M  V30 1810 H 168.1 6.78837 -0.188968 0
M  V30 1811 H 166.046 6.25096 1.98975 0
M  V30 1812 H 165.963 7.51663 0.808656 0
M  V30 1813 H 167.231 7.53467 1.99769 0
M  V30 1814 N 171.46 0.379036 1.52974 0
M  V30 1815 C 172.69 -0.20649 2.05566 0
M  V30 1816 C 173.098 -1.41906 1.25137 0
M  V30 1817 O 172.441 -1.81421 0.288464 0
M  V30 1818 C 172.503 -0.651086 3.53555 0
M  V30 1819 C 172.167 0.446626 4.54812 0
M  V30 1820 C 173.164 1.30079 5.03364 0
M  V30 1821 C 170.849 0.610719 4.98573 0
M  V30 1822 C 172.843 2.30426 5.94292 0
M  V30 1823 C 170.53 1.61754 5.89304 0
M  V30 1824 C 171.528 2.46274 6.37054 0
M  V30 1825 O 171.216 3.45237 7.25994 0
M  V30 1826 H 170.948 -0.0372381 0.674974 0
M  V30 1827 H 173.502 0.539718 1.98182 0
M  V30 1828 H 171.732 -1.44911 3.58522 0
M  V30 1829 H 173.421 -1.16112 3.88938 0
M  V30 1830 H 174.187 1.18527 4.70294 0
M  V30 1831 H 170.066 -0.0374044 4.60985 0
M  V30 1832 H 173.61 2.96432 6.31485 0
M  V30 1833 H 169.507 1.73348 6.21788 0
M  V30 1834 H 170.275 3.41124 7.44027 0
M  V30 1835 N 172.938 -1.57226 0.108567 0
M  V30 1836 C 173.868 -2.17778 -0.84232 0
M  V30 1837 C 174.849 -1.11487 -1.2847 0
M  V30 1838 O 176.034 -1.39681 -1.34918 0
M  V30 1839 C 173.164 -2.76888 -2.09644 0
M  V30 1840 C 172.118 -3.88669 -1.79221 0
M  V30 1841 C 171.444 -4.34541 -3.11574 0
M  V30 1842 C 172.744 -5.11251 -1.06864 0
M  V30 1843 H 174.438 -2.97489 -0.337774 0
M  V30 1844 H 171.984 -1.43097 -0.161025 0
M  V30 1845 H 173.937 -3.17904 -2.76614 0
M  V30 1846 H 172.661 -1.94451 -2.62405 0
M  V30 1847 H 171.32 -3.48213 -1.14644 0
M  V30 1848 H 170.968 -3.48977 -3.62249 0
M  V30 1849 H 170.668 -5.09914 -2.91996 0
M  V30 1850 H 172.192 -4.782 -3.7968 0
M  V30 1851 H 173.606 -5.49352 -1.63968 0
M  V30 1852 H 172.003 -5.9214 -0.974178 0
M  V30 1853 H 173.073 -4.8487 -0.0536168 0
M  V30 1854 N 174.416 0.165178 -1.56732 0
M  V30 1855 C 175.348 1.22911 -1.93457 0
M  V30 1856 C 176.361 1.40152 -0.828333 0
M  V30 1857 O 177.55 1.40046 -1.10677 0
M  V30 1858 C 174.65 2.59686 -2.17753 0
M  V30 1859 C 173.823 2.63663 -3.48999 0
M  V30 1860 C 172.882 3.81845 -3.62051 0
M  V30 1861 O 171.908 3.67559 -4.34613 0
M  V30 1862 N 173.11 4.98557 -2.97357 0
M  V30 1863 H 175.875 0.917118 -2.85323 0
M  V30 1864 H 173.436 0.354895 -1.57962 0
M  V30 1865 H 175.428 3.37225 -2.23743 0
M  V30 1866 H 173.998 2.83251 -1.32242 0
M  V30 1867 H 173.218 1.72173 -3.54612 0
M  V30 1868 H 174.506 2.63336 -4.35352 0
M  V30 1869 H 173.904 5.13065 -2.38287 0
M  V30 1870 H 172.461 5.73936 -3.08934 0
M  V30 1871 N 175.894 1.51508 0.433938 0
M  V30 1872 C 177.14 1.64588 1.18484 0
M  V30 1873 C 177.473 0.362666 1.90784 0
M  V30 1874 O 176.748 -0.637892 1.83742 0
M  V30 1875 C 177.031 2.85149 2.19913 0
M  V30 1876 C 176.884 4.23456 1.51674 0
M  V30 1877 C 178.203 3.01227 3.20858 0
M  V30 1878 H 175.322 0.598994 0.429389 0
M  V30 1879 H 177.964 1.84002 0.473647 0
M  V30 1880 H 176.114 2.68729 2.80566 0
M  V30 1881 H 177.786 4.51552 0.943322 0
M  V30 1882 H 176.029 4.25998 0.819035 0
M  V30 1883 H 176.7 5.03812 2.2556 0
M  V30 1884 H 179.176 3.16382 2.70263 0
M  V30 1885 H 178.052 3.87141 3.89118 0
M  V30 1886 H 178.313 2.13447 3.8716 0
M  V30 1887 N 177.372 -0.689602 1.41712 0
M  V30 1888 C 178.618 -1.45181 1.41599 0
M  V30 1889 C 178.951 -1.94181 0.0270081 0
M  V30 1890 O 178.226 -1.6993 -0.946265 0
M  V30 1891 C 178.509 -2.65945 2.42787 0
M  V30 1892 C 178.362 -2.22672 3.90816 0
M  V30 1893 C 179.681 -3.68149 2.41151 0
M  V30 1894 H 176.8 -0.526576 0.515642 0
M  V30 1895 H 179.442 -0.784947 1.73028 0
M  V30 1896 H 177.592 -3.2284 2.16116 0
M  V30 1897 H 179.264 -1.71058 4.28412 0
M  V30 1898 H 177.507 -1.54394 4.05395 0
M  V30 1899 H 178.178 -3.0935 4.57172 0
M  V30 1900 H 180.654 -3.2094 2.64834 0
M  V30 1901 H 179.53 -4.50248 3.13955 0
M  V30 1902 H 179.791 -4.18259 1.43221 0
M  V30 1903 N 178.85 -1.27639 -0.924453 0
M  V30 1904 C 180.098 -1.13941 -1.66918 0
M  V30 1905 C 180.419 0.314589 -1.92446 0
M  V30 1906 O 179.689 1.21964 -1.53303 0
M  V30 1907 H 178.269 -0.418678 -0.618642 0
M  V30 1908 H 180.931 -1.60213 -1.10985 0
M  V30 1909 H 180.027 -1.67094 -2.63602 0
M  V30 1910 N 180.328 1.1314 -1.09713 0
M  V30 1911 C 181.261 2.17735 -0.683137 0
M  V30 1912 C 182.239 1.59582 0.311841 0
M  V30 1913 O 183.423 1.87298 0.212514 0
M  V30 1914 C 180.55 3.38699 -0.00684324 0
M  V30 1915 C 179.596 4.1546 -0.964102 0
M  V30 1916 S 180.429 4.74733 -2.47767 0
M  V30 1917 C 181.585 5.9904 -1.81387 0
M  V30 1918 H 181.818 2.52515 -1.56918 0
M  V30 1919 H 179.351 1.24484 -0.913404 0
M  V30 1920 H 181.309 4.08765 0.377044 0
M  V30 1921 H 179.97 3.02214 0.85589 0
M  V30 1922 H 179.163 5.02093 -0.43803 0
M  V30 1923 H 178.765 3.51066 -1.28953 0
M  V30 1924 H 181.057 6.67846 -1.13967 0
M  V30 1925 H 182 6.56261 -2.65947 0
M  V30 1926 H 182.408 5.4976 -1.28155 0
M  V30 1927 N 181.806 0.884767 1.30421 0
M  V30 1928 C 183.053 0.503105 1.96151 0
M  V30 1929 C 183.381 -0.947676 1.69851 0
M  V30 1930 O 182.636 -1.68467 0.995861 0
M  V30 1931 C 182.935 0.724318 3.49983 0
M  V30 1932 C 182.601 2.15015 3.96332 0
M  V30 1933 C 181.263 2.54005 4.08699 0
M  V30 1934 C 183.615 3.07936 4.20505 0
M  V30 1935 C 180.943 3.85128 4.42599 0
M  V30 1936 C 183.295 4.3859 4.55874 0
M  V30 1937 C 181.959 4.77474 4.66449 0
M  V30 1938 H 181.229 0.184099 0.717766 0
M  V30 1939 H 183.876 1.12058 1.55291 0
M  V30 1940 H 182.181 0.0238086 3.91793 0
M  V30 1941 H 183.878 0.408617 3.98913 0
M  V30 1942 H 180.468 1.8375 3.87213 0
M  V30 1943 H 184.652 2.79033 4.10431 0
M  V30 1944 H 179.908 4.14996 4.48986 0
M  V30 1945 H 184.082 5.10629 4.7353 0
M  V30 1946 H 181.709 5.79115 4.92473 0
M  V30 1947 N 183.284 -1.43765 0.645699 0
M  V30 1948 C 184.247 -2.29163 -0.0409488 0
M  V30 1949 C 185.247 -1.41813 -0.757996 0
M  V30 1950 O 186.437 -1.63527 -0.600382 0
M  V30 1951 C 183.569 -3.23716 -1.06869 0
M  V30 1952 H 184.762 -2.91366 0.710345 0
M  V30 1953 H 182.315 -1.5092 0.406547 0
M  V30 1954 H 183.05 -2.66393 -1.84947 0
M  V30 1955 H 182.835 -3.88105 -0.558277 0
M  V30 1956 H 184.325 -3.87831 -1.54845 0
M  V30 1957 N 184.763 -0.387143 -1.52771 0
M  V30 1958 C 185.988 0.198407 -2.06449 0
M  V30 1959 C 186.413 1.39918 -1.25716 0
M  V30 1960 O 185.771 1.79099 -0.281657 0
M  V30 1961 C 185.819 0.548893 -3.56398 0
M  V30 1962 O 184.923 1.64315 -3.78252 0
M  V30 1963 H 184.264 0.0237731 -0.663574 0
M  V30 1964 H 186.794 -0.553989 -1.96957 0
M  V30 1965 H 186.804 0.813812 -3.99801 0
M  V30 1966 H 185.479 -0.329005 -4.14597 0
M  V30 1967 H 184.056 1.37211 -3.46738 0
M  V30 1968 N 186.241 1.57166 -0.116904 0
M  V30 1969 C 187.469 1.99473 0.549383 0
M  V30 1970 C 187.884 0.996541 1.60357 0
M  V30 1971 O 187.241 -0.0108731 1.82497 0
M  V30 1972 C 187.292 3.41788 1.17741 0
M  V30 1973 O 187.013 4.37788 0.165362 0
M  V30 1974 C 188.514 3.99216 1.92722 0
M  V30 1975 H 185.734 0.655009 0.145616 0
M  V30 1976 H 188.278 2.03494 -0.202625 0
M  V30 1977 H 186.433 3.38713 1.88021 0
M  V30 1978 H 186.847 5.20806 0.621403 0
M  V30 1979 H 188.321 5.00882 2.31995 0
M  V30 1980 H 188.798 3.3824 2.80161 0
M  V30 1981 H 189.404 4.0583 1.27209 0
M  V30 1982 N 187.719 -0.156864 1.56817 0
M  V30 1983 C 188.949 -0.885031 1.86684 0
M  V30 1984 C 189.357 -1.75696 0.701954 0
M  V30 1985 O 188.7 -1.80569 -0.337732 0
M  V30 1986 C 188.762 -1.80092 3.11138 0
M  V30 1987 C 188.426 -1.10714 4.43386 0
M  V30 1988 C 189.423 -0.465714 5.1781 0
M  V30 1989 C 187.108 -1.09959 4.90117 0
M  V30 1990 C 189.102 0.174002 6.37162 0
M  V30 1991 C 186.789 -0.456055 6.09396 0
M  V30 1992 C 187.787 0.179622 6.82764 0
M  V30 1993 O 187.475 0.812975 7.99779 0
M  V30 1994 H 187.207 -0.261813 0.623242 0
M  V30 1995 H 189.761 -0.157383 2.04796 0
M  V30 1996 H 187.991 -2.56926 2.89009 0
M  V30 1997 H 189.68 -2.40018 3.27332 0
M  V30 1998 H 190.446 -0.463427 4.82781 0
M  V30 1999 H 186.325 -1.58378 4.3294 0
M  V30 2000 H 189.869 0.670765 6.94368 0
M  V30 2001 H 185.766 -0.455975 6.43888 0
M  V30 2002 H 186.534 0.71366 8.15383 0
M  V30 2003 N 189.197 -1.51736 -0.425897 0
M  V30 2004 C 190.127 -1.76827 -1.52494 0
M  V30 2005 C 191.108 -0.618524 -1.58456 0
M  V30 2006 O 192.293 -0.862416 -1.74 0
M  V30 2007 C 189.423 -1.90374 -2.90474 0
M  V30 2008 C 188.377 -3.0588 -2.99369 0
M  V30 2009 C 187.703 -3.04625 -4.3944 0
M  V30 2010 C 189.003 -4.45644 -2.72394 0
M  V30 2011 H 190.697 -2.68855 -1.31748 0
M  V30 2012 H 188.243 -1.29372 -0.632362 0
M  V30 2013 H 190.196 -2.0651 -3.6733 0
M  V30 2014 H 188.92 -0.95004 -3.12477 0
M  V30 2015 H 187.579 -2.89467 -2.24954 0
M  V30 2016 H 187.227 -2.0701 -4.58428 0
M  V30 2017 H 186.927 -3.82195 -4.46319 0
M  V30 2018 H 188.451 -3.22869 -5.18255 0
M  V30 2019 H 189.865 -4.62348 -3.38979 0
M  V30 2020 H 188.262 -5.25006 -2.9067 0
M  V30 2021 H 189.332 -4.54893 -1.67929 0
M  V30 2022 N 190.675 0.682077 -1.42076 0
M  V30 2023 C 191.605 1.80796 -1.47767 0
M  V30 2024 C 192.586 1.6677 -0.334954 0
M  V30 2025 O 193.771 1.863 -0.548264 0
M  V30 2026 C 190.901 3.19038 -1.37229 0
M  V30 2027 C 189.855 3.47789 -2.49453 0
M  V30 2028 C 189.181 4.8553 -2.23975 0
M  V30 2029 C 190.481 3.45411 -3.91776 0
M  V30 2030 H 192.175 1.7629 -2.41997 0
M  V30 2031 H 189.721 0.846721 -1.16476 0
M  V30 2032 H 191.674 3.97528 -1.39821 0
M  V30 2033 H 190.398 3.24204 -0.394907 0
M  V30 2034 H 189.057 2.71657 -2.46166 0
M  V30 2035 H 188.705 4.87337 -1.24547 0
M  V30 2036 H 188.405 5.0573 -2.99184 0
M  V30 2037 H 189.929 5.66312 -2.28304 0
M  V30 2038 H 191.343 4.13882 -3.96705 0
M  V30 2039 H 189.74 3.77145 -4.66778 0
M  V30 2040 H 190.81 2.44122 -4.18966 0
M  V30 2041 N 192.153 1.28127 0.917671 0
M  V30 2042 C 193.083 1.14248 2.03641 0
M  V30 2043 C 194.064 0.0412748 1.7005 0
M  V30 2044 O 195.249 0.217566 1.92977 0
M  V30 2045 C 192.379 0.799431 3.37974 0
M  V30 2046 C 191.333 1.85497 3.85713 0
M  V30 2047 C 190.659 1.36565 5.16966 0
M  V30 2048 C 191.959 3.26085 4.08002 0
M  V30 2049 H 193.653 2.07835 2.15511 0
M  V30 2050 H 191.199 1.00064 1.03553 0
M  V30 2051 H 193.152 0.689114 4.15727 0
M  V30 2052 H 191.876 -0.172145 3.26146 0
M  V30 2053 H 190.535 1.95437 3.10161 0
M  V30 2054 H 190.183 0.383253 5.01538 0
M  V30 2055 H 189.883 2.07143 5.49878 0
M  V30 2056 H 191.407 1.26848 5.97279 0
M  V30 2057 H 192.821 3.19089 4.76293 0
M  V30 2058 H 191.218 3.94462 4.52238 0
M  V30 2059 H 192.288 3.70394 3.12948 0
M  V30 2060 N 193.631 -1.12557 1.10312 0
M  V30 2061 C 194.561 -2.20341 0.772798 0
M  V30 2062 C 195.542 -1.68198 -0.25365 0
M  V30 2063 O 196.727 -1.93831 -0.119699 0
M  V30 2064 C 193.857 -3.46709 0.202443 0
M  V30 2065 C 192.811 -4.11996 1.15943 0
M  V30 2066 C 192.137 -5.328 0.450345 0
M  V30 2067 C 193.437 -4.5828 2.50552 0
M  V30 2068 H 195.131 -2.48229 1.674 0
M  V30 2069 H 192.677 -1.19308 0.806326 0
M  V30 2070 H 194.63 -4.2138 -0.0407752 0
M  V30 2071 H 193.354 -3.18245 -0.734001 0
M  V30 2072 H 192.013 -3.39305 1.38808 0
M  V30 2073 H 191.661 -5.00602 -0.490531 0
M  V30 2074 H 191.361 -5.7743 1.08851 0
M  V30 2075 H 192.885 -6.10219 0.215642 0
M  V30 2076 H 194.299 -5.2433 2.31843 0
M  V30 2077 H 192.696 -5.13683 3.10242 0
M  V30 2078 H 193.766 -3.72329 3.10643 0
M  V30 2079 N 195.109 -0.891671 -1.2995 0
M  V30 2080 C 196.042 -0.307994 -2.26112 0
M  V30 2081 C 197.02 0.575262 -1.52084 0
M  V30 2082 O 198.204 0.523864 -1.81074 0
M  V30 2083 C 195.331 0.561734 -3.34009 0
M  V30 2084 C 194.377 -0.253107 -4.25748 0
M  V30 2085 S 195.21 -1.64572 -5.09584 0
M  V30 2086 C 196.366 -0.782699 -6.20987 0
M  V30 2087 H 196.599 -1.12309 -2.75271 0
M  V30 2088 H 194.132 -0.691509 -1.38049 0
M  V30 2089 H 196.09 1.05777 -3.96638 0
M  V30 2090 H 194.751 1.35099 -2.83561 0
M  V30 2091 H 193.944 0.410908 -5.02322 0
M  V30 2092 H 193.546 -0.682004 -3.67729 0
M  V30 2093 H 195.838 -0.00257476 -6.775 0
M  V30 2094 H 196.781 -1.52026 -6.91588 0
M  V30 2095 H 197.189 -0.340638 -5.63471 0
M  V30 2096 N 196.587 1.43421 -0.653314 0
M  V30 2097 C 197.812 2.06678 -0.172846 0
M  V30 2098 C 198.237 1.48648 1.15262 0
M  V30 2099 O 197.595 0.596457 1.71208 0
M  V30 2100 C 197.643 3.60474 -0.0953184 0
M  V30 2101 O 196.747 4.01487 0.942442 0
M  V30 2102 H 196.088 0.657181 -0.0949155 0
M  V30 2103 H 198.618 1.83925 -0.896265 0
M  V30 2104 H 198.628 4.07905 0.0879728 0
M  V30 2105 H 197.303 4.02088 -1.06291 0
M  V30 2106 H 195.88 3.65646 0.731932 0
M  V30 2107 N 198.065 0.39524 1.52563 0
M  V30 2108 C 198.995 -0.428384 2.29537 0
M  V30 2109 C 199.976 -1.05831 1.33169 0
M  V30 2110 O 201.161 -1.06995 1.62067 0
M  V30 2111 C 198.291 -1.55274 3.10656 0
M  V30 2112 C 197.245 -1.04855 4.14957 0
M  V30 2113 C 196.571 -2.26543 4.84337 0
M  V30 2114 C 197.871 -0.112324 5.22179 0
M  V30 2115 H 199.565 0.213867 2.98635 0
M  V30 2116 H 197.111 0.104298 1.43622 0
M  V30 2117 H 199.064 -2.1358 3.63265 0
M  V30 2118 H 197.788 -2.22266 2.39302 0
M  V30 2119 H 196.447 -0.487985 3.63338 0
M  V30 2120 H 196.095 -2.92059 4.09525 0
M  V30 2121 H 195.795 -1.93466 5.54837 0
M  V30 2122 H 197.319 -2.85481 5.39753 0
M  V30 2123 H 198.733 -0.603752 5.70112 0
M  V30 2124 H 197.13 0.128968 5.99961 0
M  V30 2125 H 198.2 0.837052 4.77621 0
M  V30 2126 N 199.544 -1.57102 0.125237 0
M  V30 2127 C 200.821 -1.86953 -0.575142 0
M  V30 2128 C 201.201 -1.02749 -1.84407 0
M  V30 2129 O 200.549 -0.108144 -2.28244 0
M  V30 2130 C 200.759 -3.38198 -0.861583 0
M  V30 2131 C 202.107 -4.06937 -1.21192 0
M  V30 2132 O 203.131 -3.43252 -0.951645 0
M  V30 2133 O 201.99 -5.19364 -1.70068 0
M  V30 2134 H 199.084 -0.774147 -0.290906 0
M  V30 2135 H 201.63 -1.68942 0.160211 0
M  V30 2136 H 200.402 -3.91282 0.0373647 0
M  V30 2137 H 200.025 -3.61661 -1.65188 0
M  V30 2138 N 201.022 0.148545 -1.56898 0
M  V30 2139 C 202.438 0.501131 -1.51528 0
M  V30 2140 C 202.638 1.83458 -0.833399 0
M  V30 2141 O 201.694 2.49259 -0.40328 0
M  V30 2142 C 203.007 0.512864 -2.96294 0
M  V30 2143 C 204.555 0.598487 -3.07225 0
M  V30 2144 C 205.03 0.640897 -4.53494 0
M  V30 2145 N 206.521 0.703163 -4.57832 0
M  V30 2146 C 207.256 0.756935 -5.68382 0
M  V30 2147 N 206.752 0.770147 -6.88506 0
M  V30 2148 N 208.545 0.797698 -5.56411 0
M  V30 2149 H 200.696 -0.725532 -1.99624 0
M  V30 2150 H 202.959 -0.264358 -0.910395 0
M  V30 2151 H 202.665 -0.398691 -3.49433 0
M  V30 2152 H 202.539 1.35133 -3.52163 0
M  V30 2153 H 204.926 1.50046 -2.54106 0
M  V30 2154 H 205.007 -0.267093 -2.54402 0
M  V30 2155 H 204.651 -0.256915 -5.0725 0
M  V30 2156 H 204.581 1.52295 -5.04097 0
M  V30 2157 H 207.072 0.700314 -3.71354 0
M  V30 2158 H 207.385 0.812983 -7.68512 0
M  V30 2159 H 205.73 0.738049 -6.9107 0
M  V30 2160 H 208.921 0.784535 -4.61479 0
M  V30 2161 H 209.094 0.83614 -6.42583 0
M  V30 2162 N 202.5 1.5196 0.417844 0
M  V30 2163 C 203.74 1.67262 1.17486 0
M  V30 2164 C 204.104 0.38983 1.88001 0
M  V30 2165 O 205.305 0.418845 2.65517 0
M  V30 2166 C 203.576 2.85526 2.14965 0
M  V30 2167 S 205.135 3.21263 2.98891 0
M  V30 2168 H 201.953 0.589077 0.398132 0
M  V30 2169 H 204.555 1.89927 0.463452 0
M  V30 2170 H 203.259 3.77145 1.61833 0
M  V30 2171 H 202.79 2.65107 2.90657 0
M  V30 2172 H 204.805 2.69208 4.16823 0
M  V30 2173 N 203.978 -0.674533 1.42435 0
M  V30 2174 C 204.908 -1.80009 1.48724 0
M  V30 2175 C 205.889 -1.6659 0.343793 0
M  V30 2176 O 207.074 -1.86007 0.558137 0
M  V30 2177 C 204.204 -3.18306 1.38919 0
M  V30 2178 C 203.158 -3.46461 2.51294 0
M  V30 2179 C 202.484 -4.84335 2.26547 0
M  V30 2180 C 203.784 -3.43328 3.93603 0
M  V30 2181 H 205.478 -1.75004 2.42928 0
M  V30 2182 H 203.024 -0.840533 1.16923 0
M  V30 2183 H 204.977 -3.9678 1.41927 0
M  V30 2184 H 203.701 -3.2399 0.412094 0
M  V30 2185 H 202.36 -2.70348 2.47604 0
M  V30 2186 H 202.008 -4.86669 1.2713 0
M  V30 2187 H 201.708 -5.04136 3.01861 0
M  V30 2188 H 203.232 -5.65094 2.31304 0
M  V30 2189 H 204.646 -4.11772 3.98894 0
M  V30 2190 H 203.043 -3.74664 4.68771 0
M  V30 2191 H 204.113 -2.41897 4.20255 0
M  V30 2192 N 205.456 -1.28612 -0.910864 0
M  V30 2193 C 206.419 -1.12803 -1.9952 0
M  V30 2194 C 207.419 -0.0668264 -1.60661 0
M  V30 2195 O 208.609 -0.312847 -1.71368 0
M  V30 2196 C 205.741 -0.72254 -3.33155 0
M  V30 2197 H 206.934 -2.09109 -2.14973 0
M  V30 2198 H 204.487 -1.11639 -1.09391 0
M  V30 2199 H 205.222 0.241152 -3.23402 0
M  V30 2200 H 205.007 -1.48916 -3.62721 0
M  V30 2201 H 206.497 -0.634666 -4.12749 0
M  V30 2202 N 206.934 1.1197 -1.10907 0
M  V30 2203 C 208.183 1.82947 -0.849302 0
M  V30 2204 C 208.496 1.85275 0.627112 0
M  V30 2205 O 209.702 2.52296 1.00295 0
M  V30 2206 C 208.158 3.28529 -1.46959 0
M  V30 2207 C 207.766 3.34546 -2.97965 0
M  V30 2208 C 209.51 4.04443 -1.28942 0
M  V30 2209 C 207.417 4.74491 -3.53004 0
M  V30 2210 H 206.347 0.685477 -0.314065 0
M  V30 2211 H 208.998 1.2604 -1.33365 0
M  V30 2212 H 207.38 3.85333 -0.912917 0
M  V30 2213 H 208.554 2.87654 -3.59989 0
M  V30 2214 H 206.869 2.72108 -3.15192 0
M  V30 2215 H 209.466 5.07787 -1.67502 0
M  V30 2216 H 209.809 4.15656 -0.231456 0
M  V30 2217 H 210.342 3.5401 -1.81443 0
M  V30 2218 H 207.081 4.68474 -4.58489 0
M  V30 2219 H 206.601 5.21816 -2.9575 0
M  V30 2220 H 208.28 5.4344 -3.51115 0
M  V30 2221 N 208.412 0.89855 1.29475 0
M  V30 2222 C 209.652 0.530771 1.97388 0
M  V30 2223 C 210.016 -0.905832 1.69289 0
M  V30 2224 O 211.217 -1.38042 2.30646 0
M  V30 2225 C 209.488 0.81369 3.48014 0
M  V30 2226 S 211.047 0.550048 4.35339 0
M  V30 2227 H 207.865 0.196956 0.683176 0
M  V30 2228 H 210.467 1.16074 1.57312 0
M  V30 2229 H 209.171 1.85749 3.65958 0
M  V30 2230 H 208.702 0.171795 3.93025 0
M  V30 2231 H 210.717 -0.605423 4.92493 0
M  V30 2232 N 209.89 -1.43072 0.660911 0
M  V30 2233 C 210.822 -2.29108 -0.0647641 0
M  V30 2234 C 211.835 -1.42928 -0.779448 0
M  V30 2235 O 213.024 -1.66788 -0.635921 0
M  V30 2236 C 210.124 -3.20032 -1.11503 0
M  V30 2237 C 209.297 -4.34792 -0.476955 0
M  V30 2238 C 208.356 -5.06534 -1.42513 0
M  V30 2239 O 207.382 -5.61538 -0.930771 0
M  V30 2240 N 208.584 -5.1075 -2.75889 0
M  V30 2241 H 211.349 -2.92029 0.673731 0
M  V30 2242 H 208.91 -1.53846 0.50427 0
M  V30 2243 H 210.902 -3.64892 -1.75032 0
M  V30 2244 H 209.472 -2.58658 -1.75541 0
M  V30 2245 H 208.692 -3.92752 0.337572 0
M  V30 2246 H 209.98 -5.0879 -0.0318525 0
M  V30 2247 H 209.378 -4.67447 -3.18606 0
M  V30 2248 H 207.935 -5.59302 -3.347 0
M  V30 2249 N 211.368 -0.403325 -1.52352 0
M  V30 2250 C 212.779 0.0675782 -1.86578 0
M  V30 2251 C 213.13 1.44941 -1.32236 0
M  V30 2252 O 212.255 2.06112 -0.659307 0
M  V30 2253 C 212.85 0.129404 -3.38553 0
M  V30 2254 C 211.409 0.544629 -3.72439 0
M  V30 2255 C 210.556 -0.284551 -2.75836 0
M  V30 2256 H 213.507 -0.620631 -1.46061 0
M  V30 2257 H 213.528 0.94581 -3.68558 0
M  V30 2258 H 213.04 -0.87645 -3.78074 0
M  V30 2259 H 211.141 1.55734 -3.38493 0
M  V30 2260 H 211.254 0.293046 -4.78203 0
M  V30 2261 H 209.618 0.252258 -2.53448 0
M  V30 2262 H 210.401 -1.28865 -3.18196 0
M  V30 2263 N 212.846 1.57033 -0.133567 0
M  V30 2264 C 213.776 2.1909 0.807567 0
M  V30 2265 C 214.757 1.13517 1.26681 0
M  V30 2266 O 215.942 1.41809 1.32679 0
M  V30 2267 C 213.072 2.80188 2.05212 0
M  V30 2268 C 212.026 3.91471 1.73015 0
M  V30 2269 C 211.352 4.39443 3.04622 0
M  V30 2270 C 212.652 5.12886 0.987168 0
M  V30 2271 H 214.346 2.97988 0.290403 0
M  V30 2272 H 211.892 1.43335 0.138239 0
M  V30 2273 H 213.845 3.22264 2.71521 0
M  V30 2274 H 212.569 1.98601 2.59278 0
M  V30 2275 H 211.228 3.49993 1.0909 0
M  V30 2276 H 210.876 3.54695 3.56651 0
M  V30 2277 H 210.576 5.14495 2.83847 0
M  V30 2278 H 212.1 4.8418 3.72024 0
M  V30 2279 H 213.514 5.51891 1.55208 0
M  V30 2280 H 211.911 5.93615 0.87985 0
M  V30 2281 H 212.981 4.84894 -0.0235286 0
M  V30 2282 N 214.325 -0.140222 1.56975 0
M  V30 2283 C 215.741 -0.493088 1.51792 0
M  V30 2284 C 215.941 -1.83013 0.843116 0
M  V30 2285 O 214.997 -2.49041 0.416493 0
M  V30 2286 C 216.31 -0.497144 2.96562 0
M  V30 2287 C 217.858 -0.582186 3.07538 0
M  V30 2288 C 218.333 -0.616838 4.53827 0
M  V30 2289 N 219.824 -0.678873 4.58198 0
M  V30 2290 C 220.559 -0.726782 5.68775 0
M  V30 2291 N 220.055 -0.733623 6.88905 0
M  V30 2292 N 221.848 -0.768179 5.56826 0
M  V30 2293 H 213.999 0.736108 1.99237 0
M  V30 2294 H 216.262 0.269182 0.90898 0
M  V30 2295 H 215.968 0.417217 3.49217 0
M  V30 2296 H 215.842 -1.33263 3.52875 0
M  V30 2297 H 218.229 -1.48697 2.54899 0
M  V30 2298 H 218.31 0.280581 2.54257 0
M  V30 2299 H 217.954 0.283812 5.07106 0
M  V30 2300 H 217.884 -1.49619 5.04898 0
M  V30 2301 H 220.375 -0.68061 3.7172 0
M  V30 2302 H 220.688 -0.772215 7.68932 0
M  V30 2303 H 219.033 -0.701389 6.91452 0
M  V30 2304 H 222.224 -0.760051 4.61888 0
M  V30 2305 H 222.397 -0.80205 6.43017 0
M  V30 2306 N 215.803 -1.52179 -0.40978 0
M  V30 2307 C 217.028 -1.70347 -1.18308 0
M  V30 2308 C 217.453 -0.411887 -1.83535 0
M  V30 2309 O 216.811 0.630587 -1.6998 0
M  V30 2310 C 216.859 -2.83977 -2.22238 0
M  V30 2311 O 215.963 -2.495 -3.28365 0
M  V30 2312 H 215.304 -0.567103 -0.345384 0
M  V30 2313 H 217.834 -1.98879 -0.480445 0
M  V30 2314 H 217.844 -3.0887 -2.66577 0
M  V30 2315 H 216.519 -3.77685 -1.74146 0
M  V30 2316 H 215.096 -2.35277 -2.89308 0
M  V30 2317 N 217.281 0.66697 -1.42791 0
M  V30 2318 C 218.211 1.79218 -1.49677 0
M  V30 2319 C 219.192 1.66405 -0.352623 0
M  V30 2320 O 220.377 1.85708 -0.567993 0
M  V30 2321 C 217.507 3.17565 -1.40605 0
M  V30 2322 C 216.461 3.45124 -2.53127 0
M  V30 2323 C 215.787 4.83127 -2.29112 0
M  V30 2324 C 217.087 3.41236 -3.95418 0
M  V30 2325 H 218.781 1.73713 -2.43853 0
M  V30 2326 H 216.327 0.83432 -1.17367 0
M  V30 2327 H 218.28 3.96022 -1.44029 0
M  V30 2328 H 217.004 3.23767 -0.429271 0
M  V30 2329 H 215.663 2.69031 -2.49034 0
M  V30 2330 H 215.311 4.85988 -1.29709 0
M  V30 2331 H 215.011 5.02528 -3.04531 0
M  V30 2332 H 216.535 5.63859 -2.34297 0
M  V30 2333 H 217.949 4.09651 -4.01073 0
M  V30 2334 H 216.346 3.72173 -4.70752 0
M  V30 2335 H 217.416 2.39665 -4.21532 0
M  V30 2336 N 218.759 1.29093 0.90403 0
M  V30 2337 C 220.175 1.07011 1.1841 0
M  V30 2338 C 220.375 -0.181358 2.00682 0
M  V30 2339 O 219.431 -0.880331 2.36657 0
M  V30 2340 C 220.744 2.32311 1.90924 0
M  V30 2341 C 222.292 2.37587 2.03768 0
M  V30 2342 C 222.767 3.62679 2.79693 0
M  V30 2343 N 224.258 3.63376 2.87249 0
M  V30 2344 C 224.993 4.56848 3.46522 0
M  V30 2345 N 224.489 5.60648 4.06996 0
M  V30 2346 N 226.282 4.44426 3.44154 0
M  V30 2347 H 218.433 2.09412 0.354993 0
M  V30 2348 H 220.696 0.922181 0.219742 0
M  V30 2349 H 220.402 3.23536 1.37905 0
M  V30 2350 H 220.276 2.39483 2.91424 0
M  V30 2351 H 222.663 1.46853 2.55965 0
M  V30 2352 H 222.744 2.34403 1.02415 0
M  V30 2353 H 222.388 4.53762 2.28173 0
M  V30 2354 H 222.318 3.63119 3.81381 0
M  V30 2355 H 224.809 2.88321 2.44293 0
M  V30 2356 H 225.122 6.28101 4.50232 0
M  V30 2357 H 223.467 5.64463 4.05471 0
M  V30 2358 H 226.658 3.62529 2.96126 0
M  V30 2359 H 226.831 5.17457 3.90054 0
M  V30 2360 N 220.237 -1.11381 1.11499 0
M  V30 2361 C 221.653 -1.35143 0.849031 0
M  V30 2362 C 221.853 -1.94515 -0.525938 0
M  V30 2363 O 220.909 -2.1785 -1.27662 0
M  V30 2364 C 222.222 -2.28249 1.95762 0
M  V30 2365 C 223.77 -2.41812 1.98736 0
M  V30 2366 C 224.245 -3.3824 3.088 0
M  V30 2367 N 225.736 -3.45803 3.08179 0
M  V30 2368 C 226.471 -4.20358 3.89982 0
M  V30 2369 N 225.967 -4.97884 4.8175 0
M  V30 2370 N 227.76 -4.15877 3.78157 0
M  V30 2371 H 219.911 -0.712062 2.00109 0
M  V30 2372 H 222.174 -0.376025 0.870235 0
M  V30 2373 H 221.88 -1.91817 2.94787 0
M  V30 2374 H 221.754 -3.28473 1.85433 0
M  V30 2375 H 224.141 -2.77518 1.00338 0
M  V30 2376 H 224.222 -1.41437 2.13141 0
M  V30 2377 H 223.866 -3.03261 4.07425 0
M  V30 2378 H 223.796 -4.38471 2.91635 0
M  V30 2379 H 226.287 -2.90506 2.41691 0
M  V30 2380 H 226.6 -5.52142 5.40702 0
M  V30 2381 H 224.945 -4.97043 4.85771 0
M  V30 2382 H 228.136 -3.544 3.05808 0
M  V30 2383 H 228.309 -4.73723 4.42143 0
M  V30 2384 N 221.715 -0.905404 -1.28997 0
M  V30 2385 C 223.131 -0.60233 -1.47798 0
M  V30 2386 C 223.331 0.854645 -1.82478 0
M  V30 2387 O 222.387 1.63439 -1.92468 0
M  V30 2388 C 223.7 -1.53306 -2.58685 0
M  V30 2389 C 225.248 -1.53887 -2.72558 0
M  V30 2390 C 225.723 -2.45602 -3.86579 0
M  V30 2391 N 227.214 -2.43681 -3.93921 0
M  V30 2392 C 227.949 -3.11347 -4.81509 0
M  V30 2393 N 227.445 -3.88313 -5.73746 0
M  V30 2394 N 229.238 -3.00476 -4.75048 0
M  V30 2395 H 221.389 -1.84765 -1.04764 0
M  V30 2396 H 223.652 -0.792025 -0.520961 0
M  V30 2397 H 223.358 -2.57141 -2.39941 0
M  V30 2398 H 223.232 -1.25787 -3.55609 0
M  V30 2399 H 225.619 -0.507941 -2.90696 0
M  V30 2400 H 225.7 -1.85447 -1.76191 0
M  V30 2401 H 225.344 -3.48792 -3.69197 0
M  V30 2402 H 225.274 -2.11349 -4.82327 0
M  V30 2403 H 227.765 -1.87767 -3.27951 0
M  V30 2404 H 228.078 -4.36985 -6.37389 0
M  V30 2405 H 226.423 -3.92419 -5.73614 0
M  V30 2406 H 229.614 -2.39858 -4.01977 0
M  V30 2407 H 229.787 -3.53485 -5.43095 0
M  V30 2408 N 223.193 1.4272 -0.668489 0
M  V30 2409 C 224.421 2.05966 -0.196348 0
M  V30 2410 C 224.836 1.50191 1.14403 0
M  V30 2411 O 224.193 0.639208 1.7094 0
M  V30 2412 C 224.244 3.61314 -0.115815 0
M  V30 2413 O 223.965 4.1502 -1.40322 0
M  V30 2414 C 225.466 4.41663 0.380579 0
M  V30 2415 H 222.686 0.663954 -0.0969829 0
M  V30 2416 H 225.23 1.82966 -0.913446 0
M  V30 2417 H 223.385 3.83448 0.551931 0
M  V30 2418 H 223.799 5.08832 -1.27243 0
M  V30 2419 H 225.273 5.5065 0.385848 0
M  V30 2420 H 225.75 4.15792 1.41471 0
M  V30 2421 H 226.356 4.24534 -0.255209 0
M  V30 2422 N 224.671 0.411399 1.52136 0
M  V30 2423 C 225.948 -0.222308 1.94333 0
M  V30 2424 C 226.328 -1.6242 1.34844 0
M  V30 2425 O 225.676 -2.22384 0.525145 0
M  V30 2426 C 225.886 -0.226345 3.48265 0
M  V30 2427 C 227.234 -0.444592 4.22266 0
M  V30 2428 O 228.258 -0.305602 3.54887 0
M  V30 2429 O 227.117 -0.718749 5.41753 0
M  V30 2430 H 224.211 -0.143907 0.814383 0
M  V30 2431 H 226.757 0.467506 1.63133 0
M  V30 2432 H 225.529 0.75475 3.83952 0
M  V30 2433 H 225.152 -0.960163 3.85832 0
M  V30 2434 N 226.149 -1.5696 0.141893 0
M  V30 2435 C 227.565 -1.58151 -0.21456 0
M  V30 2436 C 227.765 -1.1559 -1.65049 0
M  V30 2437 O 226.821 -0.853832 -2.37626 0
M  V30 2438 C 228.134 -3.00674 0.0395576 0
M  V30 2439 C 229.682 -3.1299 -0.0245529 0
M  V30 2440 C 230.157 -4.57554 0.202167 0
M  V30 2441 N 231.648 -4.62961 0.148919 0
M  V30 2442 C 232.383 -5.7262 0.298924 0
M  V30 2443 N 231.879 -6.90947 0.50637 0
M  V30 2444 N 233.672 -5.61601 0.236886 0
M  V30 2445 H 225.823 -1.8292 1.07953 0
M  V30 2446 H 228.086 -0.846425 0.42693 0
M  V30 2447 H 227.792 -3.36183 1.03315 0
M  V30 2448 H 227.666 -3.70981 -0.682143 0
M  V30 2449 H 230.053 -2.77326 -1.00869 0
M  V30 2450 H 230.134 -2.4518 0.729396 0
M  V30 2451 H 229.778 -4.93922 1.18338 0
M  V30 2452 H 229.708 -5.23484 -0.572044 0
M  V30 2453 H 232.199 -3.77899 -0.00697015 0
M  V30 2454 H 232.512 -7.7038 0.611076 0
M  V30 2455 H 230.857 -6.92878 0.542628 0
M  V30 2456 H 234.048 -4.68039 0.0756209 0
M  V30 2457 H 234.221 -6.47015 0.357227 0
M  V30 2458 N 227.627 0.131896 -1.57047 0
M  V30 2459 C 228.557 1.16384 -2.02428 0
M  V30 2460 C 229.538 1.43936 -0.90644 0
M  V30 2461 O 230.723 1.54599 -1.17528 0
M  V30 2462 C 227.853 2.49328 -2.4177 0
M  V30 2463 C 226.807 2.36266 -3.56879 0
M  V30 2464 C 226.133 3.74057 -3.8208 0
M  V30 2465 C 227.433 1.834 -4.89042 0
M  V30 2466 H 229.127 0.786433 -2.88887 0
M  V30 2467 H 226.673 0.376855 -1.38981 0
M  V30 2468 H 228.626 3.21759 -2.7212 0
M  V30 2469 H 227.35 2.88934 -1.52266 0
M  V30 2470 H 226.009 1.66286 -3.26718 0
M  V30 2471 H 225.657 4.11125 -2.89803 0
M  V30 2472 H 225.357 3.66174 -4.59554 0
M  V30 2473 H 226.881 4.48012 -4.1487 0
M  V30 2474 H 228.295 2.45636 -5.18011 0
M  V30 2475 H 226.692 1.8637 -5.70426 0
M  V30 2476 H 227.762 0.790662 -4.7841 0
M  V30 2477 N 229.106 1.52395 0.401703 0
M  V30 2478 C 230.069 1.75636 1.47257 0
M  V30 2479 C 231.069 0.62628 1.48103 0
M  V30 2480 O 232.259 0.894227 1.49497 0
M  V30 2481 C 229.391 1.84553 2.86624 0
M  V30 2482 H 230.584 2.71241 1.27938 0
M  V30 2483 H 228.137 1.42923 0.632662 0
M  V30 2484 H 228.872 0.908882 3.11303 0
M  V30 2485 H 228.657 2.66715 2.87412 0
M  V30 2486 H 230.147 2.04251 3.64241 0
M  V30 2487 N 230.584 -0.659388 1.43143 0
M  V30 2488 C 231.83 -1.42145 1.44647 0
M  V30 2489 C 232.163 -1.9408 0.0681907 0
M  V30 2490 O 231.438 -1.71899 -0.910007 0
M  V30 2491 C 231.721 -2.60735 2.48373 0
M  V30 2492 C 231.574 -2.14332 3.95451 0
M  V30 2493 C 232.893 -3.62951 2.48906 0
M  V30 2494 H 230.012 -0.51552 0.526696 0
M  V30 2495 H 232.654 -0.748069 1.74654 0
M  V30 2496 H 230.804 -3.18184 2.22916 0
M  V30 2497 H 232.476 -1.61932 4.31944 0
M  V30 2498 H 230.719 -1.4576 4.08578 0
M  V30 2499 H 231.39 -2.99583 4.63631 0
M  V30 2500 H 233.866 -3.1525 2.71582 0
M  V30 2501 H 232.742 -4.43487 3.23435 0
M  V30 2502 H 233.003 -4.15126 1.52061 0
M  V30 2503 N 232.062 -1.29571 -0.897171 0
M  V30 2504 C 232.992 -1.17473 -2.01798 0
M  V30 2505 C 233.973 -0.068323 -1.69963 0
M  V30 2506 O 235.158 -0.248239 -1.92607 0
M  V30 2507 C 232.288 -0.853099 -3.36659 0
M  V30 2508 C 231.242 -1.9161 -3.82713 0
M  V30 2509 C 230.568 -1.44773 -5.14728 0
M  V30 2510 C 231.868 -3.32535 -4.02763 0
M  V30 2511 H 233.562 -2.11237 -2.12177 0
M  V30 2512 H 231.108 -1.01699 -1.01948 0
M  V30 2513 H 233.061 -0.755165 -4.14578 0
M  V30 2514 H 231.785 0.120236 -3.26379 0
M  V30 2515 H 230.444 -2.00346 -3.07013 0
M  V30 2516 H 230.092 -0.462995 -5.00865 0
M  V30 2517 H 229.792 -2.15865 -5.46513 0
M  V30 2518 H 231.316 -1.36334 -5.95185 0
M  V30 2519 H 232.73 -3.26626 -4.71156 0
M  V30 2520 H 231.127 -4.01607 -4.45905 0
M  V30 2521 H 232.197 -3.75326 -3.07016 0
M  V30 2522 N 233.54 1.10788 -1.12088 0
M  V30 2523 C 234.503 2.15207 -0.788577 0
M  V30 2524 C 235.503 1.59609 0.195317 0
M  V30 2525 O 236.693 1.74174 -0.0300193 0
M  V30 2526 C 233.825 3.4047 -0.171174 0
M  V30 2527 H 235.018 2.46116 -1.71368 0
M  V30 2528 H 232.571 1.26089 -0.923652 0
M  V30 2529 H 233.306 3.15176 0.763832 0
M  V30 2530 H 233.091 3.82109 -0.879514 0
M  V30 2531 H 234.581 4.17576 0.04496 0
M  V30 2532 N 235.018 0.912232 1.28515 0
M  V30 2533 C 236.246 0.560416 1.99166 0
M  V30 2534 C 236.661 -0.857927 1.68182 0
M  V30 2535 O 236.018 -1.56805 0.933733 0
M  V30 2536 C 236.069 0.758142 3.53461 0
M  V30 2537 O 235.79 2.12067 3.83352 0
M  V30 2538 C 237.291 0.412954 4.41372 0
M  V30 2539 H 234.511 0.213805 0.636026 0
M  V30 2540 H 237.055 1.22502 1.63749 0
M  V30 2541 H 235.21 0.140556 3.87145 0
M  V30 2542 H 235.624 2.15923 4.77993 0
M  V30 2543 H 237.098 0.60208 5.48707 0
M  V30 2544 H 237.575 -0.65073 4.34353 0
M  V30 2545 H 238.181 1.00802 4.13182 0
M  V30 2546 N 236.496 -1.42363 0.676048 0
M  V30 2547 C 237.742 -2.02336 0.207809 0
M  V30 2548 C 238.097 -1.52506 -1.17302 0
M  V30 2549 O 237.39 -0.718048 -1.77636 0
M  V30 2550 C 237.584 -3.56929 0.183431 0
M  V30 2551 C 237.413 -4.21762 1.56036 0
M  V30 2552 C 236.183 -4.56881 2.15842 0
M  V30 2553 C 238.381 -4.49267 2.50327 0
M  V30 2554 N 236.363 -5.069 3.46303 0
M  V30 2555 C 237.734 -5.00851 3.65443 0
M  V30 2556 C 239.789 -4.31257 2.48841 0
M  V30 2557 C 238.492 -5.36317 4.79329 0
M  V30 2558 C 240.518 -4.678 3.61824 0
M  V30 2559 C 239.88 -5.19537 4.75668 0
M  V30 2560 H 235.979 -0.772583 0.120993 0
M  V30 2561 H 238.563 -1.73203 0.889306 0
M  V30 2562 H 236.734 -3.85576 -0.467483 0
M  V30 2563 H 238.466 -4.03603 -0.297808 0
M  V30 2564 H 235.221 -4.4268 1.68319 0
M  V30 2565 H 235.645 -5.36338 4.13123 0
M  V30 2566 H 240.287 -3.90511 1.62051 0
M  V30 2567 H 238.005 -5.75995 5.66794 0
M  V30 2568 H 241.591 -4.55541 3.61903 0
M  V30 2569 H 240.471 -5.47287 5.61646 0
M  V30 2570 N 237.974 -0.419461 -1.51915 0
M  V30 2571 C 238.904 0.391813 -2.30189 0
M  V30 2572 C 239.885 1.03699 -1.34836 0
M  V30 2573 O 241.07 1.04403 -1.63748 0
M  V30 2574 C 238.2 1.50312 -3.13087 0
M  V30 2575 C 237.154 0.9824 -4.16573 0
M  V30 2576 C 236.48 2.18809 -4.8788 0
M  V30 2577 C 237.78 0.0292356 -5.22292 0
M  V30 2578 H 239.474 -0.26135 -2.98257 0
M  V30 2579 H 237.02 -0.127134 -1.43438 0
M  V30 2580 H 238.973 2.07773 -3.66617 0
M  V30 2581 H 237.697 2.18431 -2.42807 0
M  V30 2582 H 236.356 0.430119 -3.64068 0
M  V30 2583 H 236.004 2.85507 -4.14119 0
M  V30 2584 H 235.704 1.84615 -5.57845 0
M  V30 2585 H 237.228 2.76858 -5.44226 0
M  V30 2586 H 238.642 0.512976 -5.71 0
M  V30 2587 H 237.039 -0.2244 -5.9968 0
M  V30 2588 H 238.109 -0.912931 -4.76228 0
M  V30 2589 N 239.452 1.56882 -0.150215 0
M  V30 2590 C 240.7 1.9584 0.499105 0
M  V30 2591 C 241.021 1.03623 1.65188 0
M  V30 2592 O 240.291 0.0984084 1.95653 0
M  V30 2593 H 238.871 0.723119 0.187373 0
M  V30 2594 H 241.533 1.9358 -0.226466 0
M  V30 2595 H 240.629 2.99638 0.873122 0
M  V30 2596 N 240.93 -0.123565 1.57115 0
M  V30 2597 C 242.17 -0.838097 1.86428 0
M  V30 2598 C 242.534 -1.77266 0.737611 0
M  V30 2599 O 243.735 -2.52842 0.912389 0
M  V30 2600 C 242.006 -1.57219 3.20962 0
M  V30 2601 S 243.565 -2.32893 3.71896 0
M  V30 2602 H 240.383 -0.279811 0.653626 0
M  V30 2603 H 242.985 -0.0967034 1.95261 0
M  V30 2604 H 241.689 -0.877522 4.00909 0
M  V30 2605 H 241.22 -2.35405 3.15195 0
M  V30 2606 H 243.235 -3.5853 3.43032 0
M  V30 2607 N 242.408 -1.52605 -0.393616 0
M  V30 2608 C 243.338 -1.80022 -1.48709 0
M  V30 2609 C 244.319 -0.651995 -1.57108 0
M  V30 2610 O 245.504 -0.89913 -1.72132 0
M  V30 2611 C 242.634 -1.96492 -2.86371 0
M  V30 2612 C 241.588 -3.12161 -2.92813 0
M  V30 2613 C 240.914 -3.13877 -4.3288 0
M  V30 2614 C 242.214 -4.51322 -2.6288 0
M  V30 2615 H 243.908 -2.71589 -1.26015 0
M  V30 2616 H 241.454 -1.30684 -0.604778 0
M  V30 2617 H 243.407 -2.14255 -3.62867 0
M  V30 2618 H 242.131 -1.01611 -3.10391 0
M  V30 2619 H 240.79 -2.94173 -2.18764 0
M  V30 2620 H 240.438 -2.16687 -4.53933 0
M  V30 2621 H 240.138 -3.91576 -4.38112 0
M  V30 2622 H 241.662 -3.33789 -5.1129 0
M  V30 2623 H 243.076 -4.69435 -3.29096 0
M  V30 2624 H 241.473 -5.31053 -2.79468 0
M  V30 2625 H 242.543 -4.58353 -1.58242 0
M  V30 2626 N 243.887 0.651787 -1.4349 0
M  V30 2627 C 245.133 1.41376 -1.45398 0
M  V30 2628 C 245.466 1.94041 -0.0784823 0
M  V30 2629 O 244.741 1.72379 0.900878 0
M  V30 2630 C 245.024 2.59414 -2.49752 0
M  V30 2631 C 244.877 2.12232 -3.96582 0
M  V30 2632 C 246.196 3.61626 -2.50827 0
M  V30 2633 H 243.315 0.512719 -0.529422 0
M  V30 2634 H 245.957 0.738796 -1.75048 0
M  V30 2635 H 244.107 3.16997 -2.246 0
M  V30 2636 H 245.779 1.59639 -4.32797 0
M  V30 2637 H 244.022 1.43592 -4.09346 0
M  V30 2638 H 244.693 2.9712 -4.65214 0
M  V30 2639 H 247.169 3.13805 -2.7325 0
M  V30 2640 H 246.045 4.41766 -3.25783 0
M  V30 2641 H 246.306 4.14314 -1.5426 0
M  V30 2642 N 245.365 1.30045 0.890287 0
M  V30 2643 C 246.328 1.15963 1.977 0
M  V30 2644 C 247.328 0.0923777 1.60534 0
M  V30 2645 O 248.518 0.340071 1.70848 0
M  V30 2646 C 245.65 0.775451 3.31963 0
M  V30 2647 H 246.843 2.12502 2.11619 0
M  V30 2648 H 244.396 1.13366 1.07601 0
M  V30 2649 H 245.131 -0.189671 3.23745 0
M  V30 2650 H 244.916 1.54668 3.60306 0
M  V30 2651 H 246.406 0.700251 4.11687 0
M  V30 2652 N 246.843 -1.10192 1.12674 0
M  V30 2653 C 248.068 -1.86523 0.906853 0
M  V30 2654 C 248.493 -1.80221 -0.538711 0
M  V30 2655 O 247.851 -1.17396 -1.38158 0
M  V30 2656 C 247.899 -3.32758 1.3894 0
M  V30 2657 O 247.003 -4.08449 0.5695 0
M  V30 2658 H 246.344 -0.578678 0.325619 0
M  V30 2659 H 248.874 -1.39203 1.49946 0
M  V30 2660 H 248.884 -3.83608 1.38958 0
M  V30 2661 H 247.559 -3.36661 2.44197 0
M  V30 2662 H 246.136 -3.67427 0.636528 0
M  V30 2663 N 248.321 -0.919034 -1.28029 0
M  V30 2664 C 249.284 -0.416182 -2.2539 0
M  V30 2665 C 250.284 0.460438 -1.54067 0
M  V30 2666 O 251.474 0.262744 -1.72207 0
M  V30 2667 C 248.606 0.402707 -3.38513 0
M  V30 2668 H 249.799 -1.27629 -2.71387 0
M  V30 2669 H 247.352 -0.698919 -1.39803 0
M  V30 2670 H 248.087 1.282 -2.97885 0
M  V30 2671 H 247.872 -0.225698 -3.9145 0
M  V30 2672 H 249.362 0.745191 -4.10897 0
M  V30 2673 N 249.799 1.42003 -0.683588 0
M  V30 2674 C 251.21 1.84501 -0.285736 0
M  V30 2675 C 251.561 1.57213 1.17382 0
M  V30 2676 O 250.686 1.03642 1.89966 0
M  V30 2677 C 251.281 3.34912 -0.511821 0
M  V30 2678 C 249.84 3.76025 -0.168005 0
M  V30 2679 C 248.987 2.6551 -0.799983 0
M  V30 2680 H 251.938 1.31724 -0.885119 0
M  V30 2681 H 251.959 3.79784 0.233292 0
M  V30 2682 H 251.471 3.54741 -1.57418 0
M  V30 2683 H 249.572 3.61801 0.890567 0
M  V30 2684 H 249.685 4.75141 -0.614661 0
M  V30 2685 H 248.049 2.53654 -0.230568 0
M  V30 2686 H 248.832 2.8816 -1.86597 0
M  V30 2687 N 251.277 0.427512 1.51691 0
M  V30 2688 C 252.209 -0.424521 2.25234 0
M  V30 2689 C 253.222 -0.994671 1.2888 0
M  V30 2690 O 254.411 -0.890483 1.54702 0
M  V30 2691 C 251.511 -1.60479 2.98496 0
M  V30 2692 C 250.684 -1.15527 4.21868 0
M  V30 2693 C 249.743 -2.20454 4.77793 0
M  V30 2694 O 248.769 -1.8029 5.39893 0
M  V30 2695 N 249.971 -3.52831 4.60967 0
M  V30 2696 H 252.736 0.205749 2.98993 0
M  V30 2697 H 250.297 0.255867 1.59865 0
M  V30 2698 H 252.289 -2.30276 3.32799 0
M  V30 2699 H 250.859 -2.14061 2.27809 0
M  V30 2700 H 250.079 -0.284736 3.9317 0
M  V30 2701 H 251.367 -0.832173 5.01949 0
M  V30 2702 H 250.765 -3.88201 4.11481 0
M  V30 2703 H 249.322 -4.18551 4.99658 0
M  V30 2704 N 252.755 -1.56801 0.158532 0
M  V30 2705 C 254.001 -1.96781 -0.490405 0
M  V30 2706 C 254.334 -1.04397 -1.63753 0
M  V30 2707 O 253.609 -0.0885805 -1.94298 0
M  V30 2708 C 253.892 -3.4635 -0.985594 0
M  V30 2709 C 253.745 -4.49512 0.160824 0
M  V30 2710 C 255.064 -3.98697 -1.86355 0
M  V30 2711 H 252.183 -0.715482 -0.176788 0
M  V30 2712 H 254.825 -1.88451 0.242088 0
M  V30 2713 H 252.975 -3.53579 -1.60978 0
M  V30 2714 H 254.647 -4.54353 0.797537 0
M  V30 2715 H 252.89 -4.26013 0.818256 0
M  V30 2716 H 253.561 -5.51531 -0.227569 0
M  V30 2717 H 256.037 -3.94019 -1.33746 0
M  V30 2718 H 254.913 -5.03792 -2.17909 0
M  V30 2719 H 255.174 -3.41744 -2.8047 0
M  V30 2720 N 254.233 0.115231 -1.57178 0
M  V30 2721 C 255.183 1.14707 -1.97044 0
M  V30 2722 C 256.167 1.36866 -0.845957 0
M  V30 2723 O 257.359 1.37895 -1.10968 0
M  V30 2724 C 254.488 2.47266 -2.38148 0
M  V30 2725 C 253.574 2.28566 -3.57237 0
M  V30 2726 N 253.965 1.79685 -4.72807 0
M  V30 2727 C 252.263 2.59208 -3.62943 0
M  V30 2728 C 252.964 1.74781 -5.54821 0
M  V30 2729 N 251.94 2.19264 -4.97417 0
M  V30 2730 H 255.742 0.761754 -2.83857 0
M  V30 2731 H 253.256 0.322928 -1.59157 0
M  V30 2732 H 255.253 3.219 -2.64927 0
M  V30 2733 H 253.913 2.86552 -1.52702 0
M  V30 2734 H 254.924 1.49177 -4.9595 0
M  V30 2735 H 251.601 3.02154 -2.88113 0
M  V30 2736 H 252.991 1.38212 -6.57531 0
M  V30 2737 N 255.711 1.52812 0.385517 0
M  V30 2738 C 256.96 1.67249 1.12741 0
M  V30 2739 C 257.273 0.4205 1.91027 0
M  V30 2740 O 258.479 0.445064 2.67827 0
M  V30 2741 C 256.935 2.95583 2.05326 0
M  V30 2742 C 256.543 4.27974 1.32447 0
M  V30 2743 C 258.287 3.19386 2.7963 0
M  V30 2744 C 256.194 5.47412 2.23818 0
M  V30 2745 H 255.124 0.6231 0.424573 0
M  V30 2746 H 257.775 1.79309 0.389924 0
M  V30 2747 H 256.157 2.77277 2.82725 0
M  V30 2748 H 257.331 4.56844 0.602495 0
M  V30 2749 H 255.646 4.10459 0.700885 0
M  V30 2750 H 258.243 4.05801 3.48181 0
M  V30 2751 H 258.586 2.34604 3.43899 0
M  V30 2752 H 259.119 3.38274 2.09322 0
M  V30 2753 H 255.858 6.34612 1.64157 0
M  V30 2754 H 255.378 5.22849 2.93921 0
M  V30 2755 H 257.057 5.81423 2.83824 0
M  V30 2756 N 257.189 -0.644168 1.43834 0
M  V30 2757 C 258.436 -1.40395 1.4593 0
M  V30 2758 C 258.764 -1.94305 0.0869658 0
M  V30 2759 O 258.019 -1.73288 -0.909378 0
M  V30 2760 C 258.318 -2.59615 2.45631 0
M  V30 2761 C 257.984 -2.2407 3.91284 0
M  V30 2762 C 256.646 -2.14089 4.30952 0
M  V30 2763 C 258.998 -1.95775 4.83034 0
M  V30 2764 C 256.326 -1.73981 5.6031 0
M  V30 2765 C 258.678 -1.57163 6.12766 0
M  V30 2766 C 257.342 -1.45713 6.51402 0
M  V30 2767 H 256.612 -0.513741 0.533995 0
M  V30 2768 H 259.259 -0.731724 1.76969 0
M  V30 2769 H 257.564 -3.32011 2.08028 0
M  V30 2770 H 259.261 -3.17834 2.44504 0
M  V30 2771 H 255.851 -2.32753 3.59895 0
M  V30 2772 H 260.035 -2.02403 4.53152 0
M  V30 2773 H 255.291 -1.63709 5.89075 0
M  V30 2774 H 259.465 -1.34303 6.83327 0
M  V30 2775 H 257.092 -1.14406 7.51542 0
M  V30 2776 N 258.668 -1.30515 -0.883378 0
M  V30 2777 C 259.893 -1.22487 -1.67367 0
M  V30 2778 C 260.318 0.208767 -1.86938 0
M  V30 2779 O 259.676 1.15015 -1.40148 0
M  V30 2780 C 259.724 -1.96041 -3.02655 0
M  V30 2781 O 258.828 -1.28859 -3.91751 0
M  V30 2782 H 258.169 -0.423573 -0.511353 0
M  V30 2783 H 260.699 -1.72362 -1.10239 0
M  V30 2784 H 260.709 -2.05124 -3.52687 0
M  V30 2785 H 259.384 -3.00307 -2.8773 0
M  V30 2786 H 257.961 -1.28141 -3.50192 0
M  V30 2787 N 260.146 1.09593 -1.13257 0
M  V30 2788 C 261.076 2.18214 -0.830946 0
M  V30 2789 C 262.057 1.68812 0.208966 0
M  V30 2790 O 263.242 1.9408 0.0682666 0
M  V30 2791 C 260.372 3.46051 -0.294296 0
M  V30 2792 C 259.326 4.08778 -1.26826 0
M  V30 2793 C 258.652 5.31419 -0.591449 0
M  V30 2794 C 259.952 4.51476 -2.62615 0
M  V30 2795 H 261.646 2.43703 -1.73923 0
M  V30 2796 H 259.192 1.17128 -0.837675 0
M  V30 2797 H 261.145 4.2134 -0.0709606 0
M  V30 2798 H 259.869 3.20079 0.649366 0
M  V30 2799 H 258.528 3.35505 -1.47756 0
M  V30 2800 H 258.176 5.01727 0.357633 0
M  V30 2801 H 257.876 5.74341 -1.24123 0
M  V30 2802 H 259.4 6.09433 -0.377355 0
M  V30 2803 H 260.814 5.17999 -2.45663 0
M  V30 2804 H 259.211 5.05277 -3.23752 0
M  V30 2805 H 260.281 3.63962 -3.20406 0
M  V30 2806 N 261.624 0.925811 1.2754 0
M  V30 2807 C 263.04 0.625767 1.46821 0
M  V30 2808 C 263.24 -0.825506 1.83814 0
M  V30 2809 O 262.296 -1.60356 1.95044 0
M  V30 2810 C 263.609 1.57402 2.56213 0
M  V30 2811 C 265.157 1.58204 2.70075 0
M  V30 2812 C 265.632 2.51721 3.82623 0
M  V30 2813 N 267.123 2.49917 3.89994 0
M  V30 2814 C 267.858 3.18968 4.76494 0
M  V30 2815 N 267.354 3.97391 5.67496 0
M  V30 2816 N 269.147 3.07996 4.70208 0
M  V30 2817 H 261.298 1.86409 1.01811 0
M  V30 2818 H 263.561 0.800213 0.508295 0
M  V30 2819 H 263.267 2.60925 2.35819 0
M  V30 2820 H 263.141 1.31428 3.53563 0
M  V30 2821 H 265.528 0.554124 2.89851 0
M  V30 2822 H 265.609 1.88226 1.73218 0
M  V30 2823 H 265.253 3.54622 3.63601 0
M  V30 2824 H 265.183 2.18996 4.78903 0
M  V30 2825 H 267.674 1.9296 3.24923 0
M  V30 2826 H 267.987 4.4707 6.30356 0
M  V30 2827 H 266.332 4.01495 5.67298 0
M  V30 2828 H 269.523 2.46223 3.9811 0
M  V30 2829 H 269.696 3.6208 5.37403 0
M  V30 2830 N 263.102 -1.41638 0.69111 0
M  V30 2831 C 264.012 -2.34588 0.0233487 0
M  V30 2832 C 265.028 -1.55987 -0.770984 0
M  V30 2833 O 266.204 -1.88486 -0.709569 0
M  V30 2834 C 263.269 -3.34684 -0.904851 0
M  V30 2835 C 262.33 -4.29176 -0.103225 0
M  V30 2836 C 261.563 -5.2449 -0.987216 0
M  V30 2837 O 261.786 -5.2514 -2.22674 0
M  V30 2838 O 260.72 -6.00295 -0.439281 0
M  V30 2839 H 264.546 -2.93261 0.789416 0
M  V30 2840 H 262.131 -1.42417 0.45142 0
M  V30 2841 H 264.013 -3.96133 -1.43724 0
M  V30 2842 H 262.688 -2.78461 -1.65049 0
M  V30 2843 H 261.595 -3.71089 0.473655 0
M  V30 2844 H 262.928 -4.88484 0.60365 0
M  V30 2845 N 264.58 -0.43555 -1.51462 0
M  V30 2846 C 265.826 0.131709 -2.02372 0
M  V30 2847 C 266.159 1.42516 -1.3192 0
M  V30 2848 O 265.434 1.89606 -0.433573 0
M  V30 2849 C 265.717 0.352301 -3.58373 0
M  V30 2850 C 265.57 -0.959676 -4.39443 0
M  V30 2851 C 266.889 1.12286 -4.25535 0
M  V30 2852 H 264.008 0.0463936 -0.735538 0
M  V30 2853 H 266.65 -0.574197 -1.81116 0
M  V30 2854 H 264.8 0.9536 -3.76615 0
M  V30 2855 H 266.472 -1.59482 -4.32855 0
M  V30 2856 H 264.715 -1.56468 -4.04599 0
M  V30 2857 H 265.386 -0.759394 -5.46752 0
M  V30 2858 H 267.862 0.613545 -4.11552 0
M  V30 2859 H 266.738 1.24598 -5.34571 0
M  V30 2860 H 266.999 2.15048 -3.86273 0
M  V30 2861 N 266.058 1.56714 -0.166846 0
M  V30 2862 C 267.021 2.16539 0.751232 0
M  V30 2863 C 268.021 1.11228 1.16125 0
M  V30 2864 O 269.211 1.36765 1.07894 0
M  V30 2865 C 266.343 2.74462 2.02196 0
M  V30 2866 H 267.536 2.99013 0.230499 0
M  V30 2867 H 265.089 1.56081 0.0826982 0
M  V30 2868 H 265.824 1.95709 2.58589 0
M  V30 2869 H 265.609 3.51527 1.73698 0
M  V30 2870 H 267.099 3.20489 2.67725 0
M  V30 2871 N 267.536 -0.106894 1.57237 0
M  V30 2872 C 268.813 -0.843526 1.76477 0
M  V30 2873 C 269.193 -1.97499 0.745464 0
M  V30 2874 O 268.541 -2.27357 -0.228306 0
M  V30 2875 C 268.751 -1.34903 3.21873 0
M  V30 2876 C 270.099 -1.79654 3.8472 0
M  V30 2877 O 271.123 -1.44554 3.2555 0
M  V30 2878 O 269.982 -2.44515 4.88748 0
M  V30 2879 H 267.076 -0.401468 0.723016 0
M  V30 2880 H 269.622 -0.0896927 1.69463 0
M  V30 2881 H 268.394 -0.53781 3.87586 0
M  V30 2882 H 268.017 -2.16522 3.33473 0
M  V30 2883 N 269.014 -1.53014 -0.377408 0
M  V30 2884 C 270.262 -1.6829 -1.11906 0
M  V30 2885 C 270.583 -0.431206 -1.90173 0
M  V30 2886 O 269.853 0.554595 -1.87886 0
M  V30 2887 H 268.433 -0.620371 -0.416112 0
M  V30 2888 H 271.095 -1.90167 -0.426893 0
M  V30 2889 H 270.191 -2.53862 -1.8155 0
M  V30 2890 N 270.492 0.636531 -1.44174 0
M  V30 2891 C 271.738 1.39826 -1.4689 0
M  V30 2892 C 272.071 1.93947 -0.0990585 0
M  V30 2893 O 271.346 1.73325 0.882544 0
M  V30 2894 C 271.629 2.56751 -2.5249 0
M  V30 2895 C 271.482 2.08014 -3.98811 0
M  V30 2896 C 272.801 3.58946 -2.54649 0
M  V30 2897 H 269.92 0.507075 -0.53483 0
M  V30 2898 H 272.562 0.720188 -1.75822 0
M  V30 2899 H 270.712 3.14597 -2.2795 0
M  V30 2900 H 272.384 1.5504 -4.34466 0
M  V30 2901 H 270.627 1.39242 -4.10846 0
M  V30 2902 H 271.298 2.92169 -4.68339 0
M  V30 2903 H 273.774 3.1089 -2.76563 0
M  V30 2904 H 272.65 4.38286 -3.3045 0
M  V30 2905 H 272.911 4.12655 -1.58646 0
M  V30 2906 N 271.97 1.30982 0.876444 0
M  V30 2907 C 273.217 1.20296 1.62896 0
M  V30 2908 C 273.545 -0.240395 1.93009 0
M  V30 2909 O 272.8 -1.18733 1.55567 0
M  V30 2910 C 273.099 1.98572 2.9716 0
M  V30 2911 C 272.765 3.48125 2.86566 0
M  V30 2912 C 271.427 3.88905 2.83383 0
M  V30 2913 C 273.779 4.43322 2.74071 0
M  V30 2914 C 271.107 5.2316 2.65556 0
M  V30 2915 C 273.459 5.77695 2.57781 0
M  V30 2916 C 272.123 6.17704 2.52979 0
M  V30 2917 H 271.393 0.440193 0.59608 0
M  V30 2918 H 274.04 1.62177 1.01837 0
M  V30 2919 H 272.345 1.49352 3.62217 0
M  V30 2920 H 274.042 1.8769 3.54364 0
M  V30 2921 H 270.632 3.15723 2.89856 0
M  V30 2922 H 274.816 4.12752 2.75589 0
M  V30 2923 H 270.072 5.53241 2.60259 0
M  V30 2924 H 274.246 6.51091 2.47089 0
M  V30 2925 H 271.873 7.21678 2.38924 0
M  V30 2926 N 273.449 -1.08991 1.13837 0
M  V30 2927 C 274.726 -1.77863 0.813876 0
M  V30 2928 C 275.106 -1.99375 -0.693746 0
M  V30 2929 O 274.454 -1.59875 -1.63255 0
M  V30 2930 C 274.664 -3.0986 1.60586 0
M  V30 2931 C 276.012 -3.84493 1.8014 0
M  V30 2932 O 277.036 -3.19624 1.57222 0
M  V30 2933 O 275.895 -5.00957 2.18413 0
M  V30 2934 H 272.989 -0.771589 0.297624 0
M  V30 2935 H 275.535 -1.15507 1.24323 0
M  V30 2936 H 274.307 -2.89715 2.63022 0
M  V30 2937 H 273.93 -3.79942 1.17173 0
M  V30 2938 N 274.927 -0.932562 -1.27047 0
M  V30 2939 C 276.167 -0.582919 -1.95912 0
M  V30 2940 C 276.531 0.860629 -1.71631 0
M  V30 2941 O 277.732 1.31878 -2.34225 0
M  V30 2942 C 276.003 -0.905673 -3.45734 0
M  V30 2943 S 277.562 -0.665277 -4.33727 0
M  V30 2944 H 274.38 -0.215 -0.677714 0
M  V30 2945 H 276.982 -1.20204 -1.54179 0
M  V30 2946 H 275.686 -1.95386 -3.60905 0
M  V30 2947 H 275.217 -0.275939 -3.92431 0
M  V30 2948 H 277.232 0.474635 -4.93925 0
M  V30 2949 N 276.405 1.4127 -0.698611 0
M  V30 2950 C 277.651 2.01979 -0.239972 0
M  V30 2951 C 278.006 1.54353 1.14861 0
M  V30 2952 O 277.299 0.746218 1.76471 0
M  V30 2953 C 277.493 3.56592 -0.240192 0
M  V30 2954 C 277.322 4.19226 -1.62726 0
M  V30 2955 C 276.092 4.53389 -2.23084 0
M  V30 2956 C 278.29 4.45228 -2.57443 0
M  V30 2957 N 276.272 5.01327 -3.54323 0
M  V30 2958 C 277.643 4.94973 -3.73365 0
M  V30 2959 C 279.698 4.27243 -2.55671 0
M  V30 2960 C 278.401 5.28624 -4.878 0
M  V30 2961 C 280.427 4.61985 -3.69221 0
M  V30 2962 C 279.789 5.11904 -4.83873 0
M  V30 2963 H 275.888 0.770561 -0.133269 0
M  V30 2964 H 278.472 1.71767 -0.916748 0
M  V30 2965 H 276.643 3.86271 0.406082 0
M  V30 2966 H 278.375 4.04025 0.23356 0
M  V30 2967 H 275.13 4.39946 -1.75341 0
M  V30 2968 H 275.554 5.29697 -4.21604 0
M  V30 2969 H 280.196 3.87884 -1.68243 0
M  V30 2970 H 277.914 5.66905 -5.75885 0
M  V30 2971 H 281.5 4.49725 -3.69105 0
M  V30 2972 H 280.38 5.38282 -5.70282 0
M  V30 2973 N 277.883 0.443576 1.51229 0
M  V30 2974 C 278.846 -0.353132 2.26463 0
M  V30 2975 C 279.846 -0.944338 1.3015 0
M  V30 2976 O 281.036 -0.817813 1.5381 0
M  V30 2977 C 278.168 -1.50023 3.06114 0
M  V30 2978 H 279.361 0.3063 2.98332 0
M  V30 2979 H 276.914 0.196902 1.55055 0
M  V30 2980 H 277.649 -2.19553 2.38677 0
M  V30 2981 H 277.434 -1.08241 3.76864 0
M  V30 2982 H 278.924 -2.06296 3.63087 0
M  V30 2983 N 279.361 -1.56624 0.175154 0
M  V30 2984 C 280.607 -1.9729 -0.469506 0
M  V30 2985 C 280.94 -1.06128 -1.62636 0
M  V30 2986 O 280.215 -0.109183 -1.94193 0
M  V30 2987 C 280.498 -3.47375 -0.948804 0
M  V30 2988 C 280.351 -4.49317 0.208491 0
M  V30 2989 C 281.67 -4.00652 -1.82116 0
M  V30 2990 H 278.789 -0.717317 -0.16919 0
M  V30 2991 H 281.431 -1.88184 0.262062 0
M  V30 2992 H 279.581 -3.55267 -1.57219 0
M  V30 2993 H 281.253 -4.53482 0.845682 0
M  V30 2994 H 279.496 -4.25121 0.863395 0
M  V30 2995 H 280.167 -5.51741 -0.169059 0
M  V30 2996 H 282.643 -3.95416 -1.2956 0
M  V30 2997 H 281.519 -5.06075 -2.12554 0
M  V30 2998 H 281.78 -3.44699 -2.7683 0
M  V30 2999 N 280.839 0.0985539 -1.57292 0
M  V30 3000 C 282.086 0.802678 -1.85912 0
M  V30 3001 C 282.414 1.78901 -0.763186 0
M  V30 3002 O 281.669 1.94178 0.243559 0
M  V30 3003 C 281.968 1.56927 -3.21105 0
M  V30 3004 C 281.634 0.725376 -4.45027 0
M  V30 3005 C 280.296 0.492726 -4.78671 0
M  V30 3006 C 282.648 0.138493 -5.21016 0
M  V30 3007 C 279.976 -0.336727 -5.85733 0
M  V30 3008 C 282.328 -0.678264 -6.28953 0
M  V30 3009 C 280.992 -0.921039 -6.61115 0
M  V30 3010 H 280.262 0.293721 -0.680301 0
M  V30 3011 H 282.909 0.0642841 -1.91392 0
M  V30 3012 H 281.214 2.37914 -3.11294 0
M  V30 3013 H 282.911 2.11841 -3.40477 0
M  V30 3014 H 279.501 0.916815 -4.18679 0
M  V30 3015 H 283.685 0.305404 -4.95359 0
M  V30 3016 H 278.941 -0.533836 -6.09065 0
M  V30 3017 H 283.115 -1.1399 -6.87007 0
M  V30 3018 H 280.742 -1.56556 -7.43905 0
M  V30 3019 N 282.317 1.53212 0.369288 0
M  V30 3020 C 283.566 1.68436 1.10961 0
M  V30 3021 C 283.879 0.440738 1.9057 0
M  V30 3022 O 285.085 0.473446 2.6734 0
M  V30 3023 C 283.541 2.97744 2.0218 0
M  V30 3024 C 283.149 4.29355 1.279 0
M  V30 3025 C 284.893 3.22334 2.76226 0
M  V30 3026 C 282.8 5.49755 2.17999 0
M  V30 3027 H 281.73 0.627568 0.41794 0
M  V30 3028 H 284.381 1.79713 0.370884 0
M  V30 3029 H 282.763 2.8026 2.79768 0
M  V30 3030 H 283.937 4.57458 0.554007 0
M  V30 3031 H 282.252 4.11179 0.657311 0
M  V30 3032 H 284.849 4.09471 3.43857 0
M  V30 3033 H 285.192 2.38238 3.41392 0
M  V30 3034 H 285.725 3.40475 2.05723 0
M  V30 3035 H 282.464 6.36318 1.57417 0
M  V30 3036 H 281.984 5.25937 2.88359 0
M  V30 3037 H 283.663 5.84401 2.77641 0
M  V30 3038 N 283.795 -0.628877 1.44509 0
M  V30 3039 C 284.727 -1.754 1.47538 0
M  V30 3040 C 285.74 -1.58575 0.368506 0
M  V30 3041 O 286.929 -1.66847 0.634376 0
M  V30 3042 C 284.029 -3.1315 1.29577 0
M  V30 3043 C 283.202 -3.56413 2.53551 0
M  V30 3044 C 282.261 -4.7305 2.30457 0
M  V30 3045 O 281.287 -4.81247 3.03957 0
M  V30 3046 N 282.489 -5.64903 1.3366 0
M  V30 3047 H 285.254 -1.73272 2.44534 0
M  V30 3048 H 282.815 -0.813512 1.39977 0
M  V30 3049 H 284.807 -3.88902 1.11971 0
M  V30 3050 H 283.377 -3.09908 0.409371 0
M  V30 3051 H 282.597 -2.70847 2.86419 0
M  V30 3052 H 283.885 -3.82071 3.36005 0
M  V30 3053 H 283.283 -5.60975 0.729604 0
M  V30 3054 H 281.84 -6.40275 1.22032 0
M  V30 3055 N 285.273 -1.31445 -0.869486 0
M  V30 3056 C 286.684 -1.19042 -1.43826 0
M  V30 3057 C 287.035 0.202919 -1.95148 0
M  V30 3058 O 286.16 1.10071 -1.86315 0
M  V30 3059 C 286.755 -2.15499 -2.6143 0
M  V30 3060 C 285.314 -2.07028 -3.14351 0
M  V30 3061 C 284.461 -2.04701 -1.87063 0
M  V30 3062 H 287.412 -1.43489 -0.677984 0
M  V30 3063 H 287.433 -1.74488 -3.38134 0
M  V30 3064 H 286.945 -3.16899 -2.24046 0
M  V30 3065 H 285.046 -1.08825 -3.56354 0
M  V30 3066 H 285.159 -2.96157 -3.766 0
M  V30 3067 H 283.523 -1.49724 -2.06046 0
M  V30 3068 H 284.306 -3.07857 -1.51917 0
M  V30 3069 N 286.751 1.08385 -1.14413 0
M  V30 3070 C 287.997 1.81212 -0.923793 0
M  V30 3071 C 288.352 1.84555 0.543814 0
M  V30 3072 O 287.645 1.31056 1.39767 0
M  V30 3073 C 287.839 3.26273 -1.45879 0
M  V30 3074 C 287.668 3.37063 -2.97689 0
M  V30 3075 C 286.438 3.4824 -3.66138 0
M  V30 3076 C 288.636 3.28698 -3.95553 0
M  V30 3077 N 286.618 3.47824 -5.05858 0
M  V30 3078 C 287.989 3.35276 -5.21527 0
M  V30 3079 C 290.044 3.12437 -3.8767 0
M  V30 3080 C 288.747 3.27267 -6.40538 0
M  V30 3081 C 290.773 3.05757 -5.06228 0
M  V30 3082 C 290.135 3.12938 -6.3107 0
M  V30 3083 H 286.234 0.6769 -0.391574 0
M  V30 3084 H 288.818 1.29455 -1.45429 0
M  V30 3085 H 286.989 3.76474 -0.95507 0
M  V30 3086 H 288.721 3.87165 -1.17835 0
M  V30 3087 H 285.476 3.52141 -3.16692 0
M  V30 3088 H 285.9 3.51171 -5.78798 0
M  V30 3089 H 290.542 3.05747 -2.92025 0
M  V30 3090 H 288.26 3.32718 -7.36427 0
M  V30 3091 H 291.846 2.94295 -5.01878 0
M  V30 3092 H 290.726 3.078 -7.21269 0
M  V30 3093 N 288.23 0.939286 1.26551 0
M  V30 3094 C 289.478 0.58469 1.93457 0
M  V30 3095 C 289.799 -0.878774 1.74076 0
M  V30 3096 O 289.069 -1.62421 1.09528 0
M  V30 3097 H 287.649 0.21325 0.715914 0
M  V30 3098 H 290.311 1.1942 1.54029 0
M  V30 3099 H 289.407 0.800849 3.0165 0
M  V30 3100 N 289.708 -1.40897 0.706093 0
M  V30 3101 C 291.119 -1.84023 0.315052 0
M  V30 3102 C 291.47 -1.5906 -1.14866 0
M  V30 3103 O 290.595 -1.06651 -1.88293 0
M  V30 3104 C 291.19 -3.34055 0.565038 0
M  V30 3105 C 289.749 -3.7571 0.227806 0
M  V30 3106 C 288.896 -2.64204 0.842122 0
M  V30 3107 H 291.847 -1.303 0.905963 0
M  V30 3108 H 291.868 -3.80107 -0.172843 0
M  V30 3109 H 291.38 -3.52192 1.63042 0
M  V30 3110 H 289.481 -3.63172 -0.832895 0
M  V30 3111 H 289.594 -4.74103 0.690174 0
M  V30 3112 H 287.958 -2.53255 0.270893 0
M  V30 3113 H 288.741 -2.85155 1.91158 0
M  V30 3114 N 291.186 -0.45159 -1.50991 0
M  V30 3115 C 292.133 0.352625 -2.2809 0
M  V30 3116 C 293.103 1.0044 -1.32291 0
M  V30 3117 O 294.288 1.02058 -1.6121 0
M  V30 3118 C 291.428 1.43983 -3.13629 0
M  V30 3119 C 290.541 0.804772 -4.24438 0
M  V30 3120 C 289.676 1.86822 -4.97263 0
M  V30 3121 C 288.715 1.21236 -5.99973 0
M  V30 3122 N 287.852 2.2178 -6.66152 0
M  V30 3123 H 292.692 -0.311186 -2.96371 0
M  V30 3124 H 290.229 -0.165308 -1.46168 0
M  V30 3125 H 292.187 2.08161 -3.61559 0
M  V30 3126 H 290.817 2.07307 -2.47434 0
M  V30 3127 H 289.869 0.0509129 -3.80366 0
M  V30 3128 H 291.181 0.286076 -4.97979 0
M  V30 3129 H 290.335 2.58628 -5.48813 0
M  V30 3130 H 289.074 2.42068 -4.23385 0
M  V30 3131 H 288.079 0.479828 -5.47702 0
M  V30 3132 H 289.304 0.667051 -6.75816 0
M  V30 3133 H 287.25 2.76079 -5.95077 0
M  V30 3134 H 287.167 1.74841 -7.35504 0
M  V30 3135 H 288.435 2.93026 -7.22327 0
M  V30 3136 N 292.664 1.56529 -0.183458 0
M  V30 3137 C 293.627 2.17324 0.728223 0
M  V30 3138 C 294.627 1.12453 1.14939 0
M  V30 3139 O 295.817 1.37902 1.06437 0
M  V30 3140 C 292.949 2.76591 1.99274 0
M  V30 3141 H 294.142 2.99241 0.198772 0
M  V30 3142 H 291.695 1.5616 0.0661391 0
M  V30 3143 H 292.43 1.98441 2.56499 0
M  V30 3144 H 292.215 3.5335 1.69959 0
M  V30 3145 H 293.705 3.23311 2.6431 0
M  V30 3146 N 294.142 -0.090211 1.57342 0
M  V30 3147 C 295.372 -0.805055 1.90269 0
M  V30 3148 C 295.78 -1.72561 0.775842 0
M  V30 3149 O 295.123 -1.81839 -0.260843 0
M  V30 3150 C 295.185 -1.66734 3.18497 0
M  V30 3151 C 294.849 -0.918092 4.47683 0
M  V30 3152 C 295.846 -0.245674 5.19319 0
M  V30 3153 C 293.531 -0.890724 4.94339 0
M  V30 3154 C 295.525 0.444088 6.35851 0
M  V30 3155 C 293.212 -0.197179 6.10782 0
M  V30 3156 C 294.21 0.469044 6.81388 0
M  V30 3157 O 293.898 1.15146 7.95611 0
M  V30 3158 H 293.63 -0.235143 0.633785 0
M  V30 3159 H 296.184 -0.0703805 2.05279 0
M  V30 3160 H 294.414 -2.44437 2.99646 0
M  V30 3161 H 296.103 -2.25919 3.37217 0
M  V30 3162 H 296.869 -0.258246 4.84312 0
M  V30 3163 H 292.748 -1.39873 4.39268 0
M  V30 3164 H 296.292 0.964667 6.90898 0
M  V30 3165 H 292.189 -0.18247 6.45242 0
M  V30 3166 H 292.957 1.05885 8.11622 0
M  V30 3167 N 295.62 -1.53406 -0.361157 0
M  V30 3168 C 296.869 -1.69022 -1.10066 0
M  V30 3169 C 297.182 -0.450838 -1.90333 0
M  V30 3170 O 298.388 -0.487617 -2.67085 0
M  V30 3171 C 296.844 -2.98812 -2.00598 0
M  V30 3172 C 296.452 -4.30027 -1.25621 0
M  V30 3173 C 298.196 -3.23795 -2.74513 0
M  V30 3174 C 296.103 -5.50903 -2.1508 0
M  V30 3175 H 295.033 -0.629776 -0.414606 0
M  V30 3176 H 297.684 -1.79907 -0.361348 0
M  V30 3177 H 296.066 -2.8174 -2.78278 0
M  V30 3178 H 297.24 -4.57745 -0.529739 0
M  V30 3179 H 295.555 -4.11522 -0.635496 0
M  V30 3180 H 298.152 -4.11289 -3.41681 0
M  V30 3181 H 298.495 -2.40045 -3.40123 0
M  V30 3182 H 299.028 -3.41561 -2.03914 0
M  V30 3183 H 295.767 -6.37143 -1.54041 0
M  V30 3184 H 295.287 -5.27459 -2.85565 0
M  V30 3185 H 296.966 -5.85865 -2.74538 0
M  V30 3186 N 297.098 0.621204 -1.44841 0
M  V30 3187 C 298.326 1.40752 -1.51646 0
M  V30 3188 C 298.741 1.88246 -0.144549 0
M  V30 3189 O 298.098 1.61422 0.851416 0
M  V30 3190 C 298.149 2.62119 -2.4895 0
M  V30 3191 O 297.87 2.16602 -3.80808 0
M  V30 3192 C 299.371 3.55135 -2.65319 0
M  V30 3193 H 296.591 0.431325 -0.514004 0
M  V30 3194 H 299.135 0.758835 -1.899 0
M  V30 3195 H 297.29 3.23058 -2.13805 0
M  V30 3196 H 297.704 2.95358 -4.33433 0
M  V30 3197 H 299.178 4.36874 -3.37409 0
M  V30 3198 H 299.655 4.04592 -1.70886 0
M  V30 3199 H 300.261 3.00058 -3.01405 0
M  V30 3200 N 298.576 1.31904 0.862503 0
M  V30 3201 C 299.822 1.23207 1.61838 0
M  V30 3202 C 300.177 -0.206062 1.91293 0
M  V30 3203 O 299.47 -1.14162 1.53875 0
M  V30 3204 C 299.664 2.01713 2.95037 0
M  V30 3205 C 299.493 3.53014 2.78588 0
M  V30 3206 C 298.263 4.22359 2.77382 0
M  V30 3207 C 300.461 4.47819 2.52909 0
M  V30 3208 N 298.443 5.59766 2.52062 0
M  V30 3209 C 299.814 5.72947 2.36922 0
M  V30 3210 C 301.869 4.37162 2.38314 0
M  V30 3211 C 300.572 6.88623 2.07823 0
M  V30 3212 C 302.598 5.5263 2.10604 0
M  V30 3213 C 301.96 6.76752 1.95411 0
M  V30 3214 H 298.059 0.505984 0.596242 0
M  V30 3215 H 300.643 1.66179 1.01452 0
M  V30 3216 H 298.814 1.61098 3.53415 0
M  V30 3217 H 300.546 1.84975 3.59953 0
M  V30 3218 H 297.301 3.74401 2.90036 0
M  V30 3219 H 297.725 6.32135 2.42352 0
M  V30 3220 H 302.367 3.41857 2.48784 0
M  V30 3221 H 300.085 7.83948 1.9609 0
M  V30 3222 H 303.671 5.46307 2.00101 0
M  V30 3223 H 302.551 7.6459 1.74274 0
M  V30 3224 N 300.054 -1.07777 1.14986 0
M  V30 3225 C 301.303 -1.79669 0.916617 0
M  V30 3226 C 301.616 -1.87474 -0.557917 0
M  V30 3227 O 302.822 -2.55845 -0.908617 0
M  V30 3228 C 301.278 -3.22848 1.59051 0
M  V30 3229 C 300.886 -3.23257 3.10176 0
M  V30 3230 C 302.63 -3.99379 1.43864 0
M  V30 3231 C 300.537 -4.61063 3.70372 0
M  V30 3232 H 299.467 -0.673349 0.33929 0
M  V30 3233 H 302.118 -1.21003 1.37951 0
M  V30 3234 H 300.5 -3.8168 1.0553 0
M  V30 3235 H 301.674 -2.74095 3.70417 0
M  V30 3236 H 299.989 -2.60222 3.25074 0
M  V30 3237 H 302.586 -5.0122 1.86232 0
M  V30 3238 H 302.929 -4.14511 0.385564 0
M  V30 3239 H 303.462 -3.47032 1.94457 0
M  V30 3240 H 300.201 -4.51135 4.7556 0
M  V30 3241 H 299.721 -5.1048 3.14913 0
M  V30 3242 H 301.4 -5.30034 3.71043 0
M  V30 3243 N 301.532 -0.945985 -1.26051 0
M  V30 3244 C 302.76 -0.613025 -1.9761 0
M  V30 3245 C 303.175 0.813035 -1.70397 0
M  V30 3246 O 302.532 1.54274 -0.974979 0
M  V30 3247 C 302.583 -0.85159 -3.51326 0
M  V30 3248 O 302.304 -2.22157 -3.77595 0
M  V30 3249 C 303.805 -0.529831 -4.40122 0
M  V30 3250 H 301.025 -0.230593 -0.630133 0
M  V30 3251 H 303.569 -1.268 -1.60443 0
M  V30 3252 H 301.724 -0.243151 -3.86636 0
M  V30 3253 H 302.138 -2.2852 -4.721 0
M  V30 3254 H 303.612 -0.747348 -5.46917 0
M  V30 3255 H 304.089 0.535341 -4.35925 0
M  V30 3256 H 304.695 -1.11721 -4.10364 0
M  V30 3257 N 303.011 1.40521 -0.713556 0
M  V30 3258 C 303.941 2.33381 -0.0743864 0
M  V30 3259 C 304.922 1.52784 0.747735 0
M  V30 3260 O 306.107 1.81258 0.697071 0
M  V30 3261 C 303.237 3.36748 0.849598 0
M  V30 3262 C 302.191 4.27793 0.133247 0
M  V30 3263 C 301.517 5.21679 1.17281 0
M  V30 3264 C 302.817 5.12415 -1.01134 0
M  V30 3265 H 304.511 2.87081 -0.850007 0
M  V30 3266 H 302.057 1.38034 -0.410201 0
M  V30 3267 H 304.01 4.00648 1.30612 0
M  V30 3268 H 302.734 2.81439 1.65709 0
M  V30 3269 H 301.393 3.65342 -0.303426 0
M  V30 3270 H 301.041 4.62677 1.9733 0
M  V30 3271 H 300.741 5.83435 0.698397 0
M  V30 3272 H 302.265 5.88456 1.62947 0
M  V30 3273 H 303.679 5.69781 -0.634274 0
M  V30 3274 H 302.076 5.83203 -1.41399 0
M  V30 3275 H 303.146 4.48514 -1.84292 0
M  V30 3276 N 304.489 0.459591 1.5075 0
M  V30 3277 C 305.452 -0.329093 2.26825 0
M  V30 3278 C 306.452 -0.930481 1.31144 0
M  V30 3279 O 307.642 -0.801453 1.54669 0
M  V30 3280 C 304.774 -1.46768 3.07688 0
M  V30 3281 H 305.967 0.337924 2.9799 0
M  V30 3282 H 303.52 0.213336 1.54837 0
M  V30 3283 H 304.255 -2.17009 2.40993 0
M  V30 3284 H 304.04 -1.04238 3.77991 0
M  V30 3285 H 305.53 -2.02433 3.65254 0
M  V30 3286 N 305.967 -1.56429 0.191757 0
M  V30 3287 C 307.213 -1.97777 -0.448554 0
M  V30 3288 C 307.546 -1.07847 -1.61501 0
M  V30 3289 O 306.821 -0.129774 -1.94067 0
M  V30 3290 C 307.104 -3.48362 -0.911906 0
M  V30 3291 C 306.957 -4.4907 0.256136 0
M  V30 3292 C 308.276 -4.02561 -1.77857 0
M  V30 3293 H 305.395 -0.719071 -0.161572 0
M  V30 3294 H 308.037 -1.87896 0.282007 0
M  V30 3295 H 306.187 -3.56914 -1.53442 0
M  V30 3296 H 307.859 -4.5256 0.893733 0
M  V30 3297 H 306.102 -4.24181 0.908436 0
M  V30 3298 H 306.773 -5.51889 -0.11053 0
M  V30 3299 H 309.249 -3.96767 -1.25359 0
M  V30 3300 H 308.125 -5.08301 -2.07174 0
M  V30 3301 H 308.386 -3.47616 -2.73158 0
M  V30 3302 N 307.445 0.0818655 -1.57387 0
M  V30 3303 C 308.675 0.794954 -1.90694 0
M  V30 3304 C 309.083 1.72147 -0.784982 0
M  V30 3305 O 308.426 1.81974 0.251196 0
M  V30 3306 C 308.488 1.65042 -3.19376 0
M  V30 3307 C 308.152 0.894337 -4.48164 0
M  V30 3308 C 309.149 0.21813 -5.19442 0
M  V30 3309 C 306.834 0.864495 -4.94805 0
M  V30 3310 C 308.828 -0.477802 -6.35607 0
M  V30 3311 C 306.515 0.164785 -6.10878 0
M  V30 3312 C 307.513 -0.505173 -6.81129 0
M  V30 3313 O 307.201 -1.19363 -7.94989 0
M  V30 3314 H 306.933 0.231779 -0.635023 0
M  V30 3315 H 309.487 0.059493 -2.05314 0
M  V30 3316 H 307.717 2.42844 -3.00938 0
M  V30 3317 H 309.406 2.24127 -3.38411 0
M  V30 3318 H 310.172 0.232558 -4.84442 0
M  V30 3319 H 306.051 1.37542 -4.40004 0
M  V30 3320 H 309.595 -1.00129 -6.90377 0
M  V30 3321 H 305.492 0.148249 -6.4533 0
M  V30 3322 H 306.26 -1.10188 -8.11049 0
M  V30 3323 N 308.923 1.53595 0.353017 0
M  V30 3324 C 310.172 1.69603 1.09168 0
M  V30 3325 C 310.485 0.460925 1.90092 0
M  V30 3326 O 311.691 0.501774 2.66823 0
M  V30 3327 C 310.147 2.99872 1.9901 0
M  V30 3328 C 309.755 4.30687 1.23339 0
M  V30 3329 C 311.499 3.25246 2.72792 0
M  V30 3330 C 309.406 5.52036 2.12156 0
M  V30 3331 H 308.336 0.631966 0.411261 0
M  V30 3332 H 310.987 1.80096 0.351802 0
M  V30 3333 H 309.369 2.83212 2.7678 0
M  V30 3334 H 310.543 4.58019 0.505456 0
M  V30 3335 H 308.858 4.11853 0.613663 0
M  V30 3336 H 311.455 4.13095 3.39495 0
M  V30 3337 H 311.798 2.41846 3.38846 0
M  V30 3338 H 312.331 3.42638 2.021 0
M  V30 3339 H 309.07 6.37951 1.50659 0
M  V30 3340 H 308.59 5.28966 2.82764 0
M  V30 3341 H 310.269 5.87313 2.71427 0
M  V30 3342 N 310.401 -0.613514 1.45168 0
M  V30 3343 C 311.647 -1.37471 1.49096 0
M  V30 3344 C 311.98 -1.93765 0.129901 0
M  V30 3345 O 311.255 -1.74707 -0.854858 0
M  V30 3346 C 311.538 -2.52701 2.56542 0
M  V30 3347 C 311.391 -2.01643 4.0207 0
M  V30 3348 C 312.71 -3.54849 2.60327 0
M  V30 3349 H 309.829 -0.498502 0.54283 0
M  V30 3350 H 312.471 -0.692125 1.76945 0
M  V30 3351 H 310.621 -3.10931 2.32926 0
M  V30 3352 H 312.293 -1.48108 4.36877 0
M  V30 3353 H 310.536 -1.32688 4.13009 0
M  V30 3354 H 311.207 -2.84681 4.72928 0
M  V30 3355 H 313.683 -3.0645 2.81474 0
M  V30 3356 H 312.559 -4.32973 3.37381 0
M  V30 3357 H 312.82 -4.10079 1.6519 0
M  V30 3358 N 311.879 -1.3236 -0.855495 0
M  V30 3359 C 313.29 -1.2056 -1.42556 0
M  V30 3360 C 313.641 0.182209 -1.95352 0
M  V30 3361 O 312.766 1.08088 -1.87472 0
M  V30 3362 C 313.361 -2.1826 -2.59129 0
M  V30 3363 C 311.92 -2.10351 -3.12137 0
M  V30 3364 C 311.067 -2.06674 -1.84882 0
M  V30 3365 H 314.018 -1.442 -0.662727 0
M  V30 3366 H 314.039 -1.78064 -3.36264 0
M  V30 3367 H 313.551 -3.19257 -2.20673 0
M  V30 3368 H 311.652 -1.12599 -3.55179 0
M  V30 3369 H 311.765 -3.00135 -3.73438 0
M  V30 3370 H 310.129 -1.51901 -2.04446 0
M  V30 3371 H 310.912 -3.09451 -1.48643 0
M  V30 3372 N 313.357 1.07166 -1.15556 0
M  V30 3373 C 314.603 1.80065 -0.932984 0
M  V30 3374 C 314.936 1.86586 0.53845 0
M  V30 3375 O 314.211 1.35098 1.39924 0
M  V30 3376 C 314.494 3.25022 -1.55025 0
M  V30 3377 C 314.347 3.26634 -3.09242 0
M  V30 3378 C 315.666 4.22341 -1.2376 0
M  V30 3379 H 312.785 0.653697 -0.340366 0
M  V30 3380 H 315.427 1.25389 -1.4275 0
M  V30 3381 H 313.577 3.71712 -1.12972 0
M  V30 3382 H 315.249 2.88173 -3.60214 0
M  V30 3383 H 313.492 2.65539 -3.43033 0
M  V30 3384 H 314.163 4.28854 -3.47546 0
M  V30 3385 H 316.639 3.8405 -1.60139 0
M  V30 3386 H 315.515 5.22053 -1.69564 0
M  V30 3387 H 315.776 4.41828 -0.154938 0
M  V30 3388 N 314.835 0.952656 1.25548 0
M  V30 3389 C 316.084 0.602053 1.92505 0
M  V30 3390 C 316.397 -0.864663 1.75451 0
M  V30 3391 O 317.603 -1.32514 2.36965 0
M  V30 3392 C 316.059 1.02607 3.44963 0
M  V30 3393 C 315.667 2.51519 3.70732 0
M  V30 3394 C 317.411 0.747905 4.1786 0
M  V30 3395 C 315.318 2.87732 5.16686 0
M  V30 3396 H 314.248 0.22146 0.720744 0
M  V30 3397 H 316.899 1.15684 1.42441 0
M  V30 3398 H 315.281 0.399712 3.93978 0
M  V30 3399 H 316.455 3.19157 3.32378 0
M  V30 3400 H 314.77 2.76786 3.11092 0
M  V30 3401 H 317.367 0.994647 5.25367 0
M  V30 3402 H 317.71 -0.315629 4.15102 0
M  V30 3403 H 318.243 1.33452 3.74747 0
M  V30 3404 H 314.982 3.93095 5.24554 0
M  V30 3405 H 314.502 2.24765 5.56094 0
M  V30 3406 H 316.181 2.76817 5.84792 0
M  V30 3407 N 316.313 -1.40141 0.720998 0
M  V30 3408 C 317.559 -2.01084 0.263231 0
M  V30 3409 C 317.892 -1.57052 -1.14229 0
M  V30 3410 O 317.167 -0.793027 -1.77599 0
M  V30 3411 C 317.45 -3.58401 0.349344 0
M  V30 3412 C 317.303 -4.12491 1.79363 0
M  V30 3413 C 318.622 -4.39231 -0.276351 0
M  V30 3414 H 315.741 -0.730572 0.0971228 0
M  V30 3415 H 318.383 -1.66543 0.914518 0
M  V30 3416 H 316.533 -3.87958 -0.205165 0
M  V30 3417 H 318.205 -3.93711 2.40394 0
M  V30 3418 H 316.448 -3.66576 2.31958 0
M  V30 3419 H 317.119 -5.21646 1.80524 0
M  V30 3420 H 319.595 -4.15637 0.196184 0
M  V30 3421 H 318.471 -5.48586 -0.185681 0
M  V30 3422 H 318.732 -4.20643 -1.36059 0
M  V30 3423 N 317.792 -0.46758 -1.50504 0
M  V30 3424 C 318.722 0.318381 -2.31319 0
M  V30 3425 C 319.703 0.993564 -1.38066 0
M  V30 3426 O 320.888 0.991411 -1.66987 0
M  V30 3427 C 318.018 1.40275 -3.17711 0
M  V30 3428 C 316.972 0.849373 -4.19487 0
M  V30 3429 C 316.298 2.03177 -4.94594 0
M  V30 3430 C 317.598 -0.136942 -5.2212 0
M  V30 3431 H 319.292 -0.356106 -2.97275 0
M  V30 3432 H 316.838 -0.172703 -1.42961 0
M  V30 3433 H 318.791 1.96004 -3.73042 0
M  V30 3434 H 317.515 2.10596 -2.49634 0
M  V30 3435 H 316.174 0.314076 -3.65252 0
M  V30 3436 H 315.822 2.72187 -4.22993 0
M  V30 3437 H 315.522 1.66774 -5.63436 0
M  V30 3438 H 317.046 2.59403 -5.52759 0
M  V30 3439 H 318.46 0.331056 -5.72343 0
M  V30 3440 H 316.857 -0.41507 -5.98663 0
M  V30 3441 H 317.927 -1.06398 -4.73083 0
M  V30 3442 N 319.27 1.56325 -0.20005 0
M  V30 3443 C 320.233 2.18084 0.705132 0
M  V30 3444 C 321.233 1.13666 1.1374 0
M  V30 3445 O 322.423 1.39023 1.04968 0
M  V30 3446 C 319.555 2.78689 1.96329 0
M  V30 3447 H 320.748 2.99435 0.167023 0
M  V30 3448 H 318.301 1.56221 0.0495725 0
M  V30 3449 H 319.036 2.0115 2.5438 0
M  V30 3450 H 318.821 3.55133 1.66202 0
M  V30 3451 H 320.311 3.26096 2.60866 0
M  V30 3452 N 320.748 -0.0735177 1.57428 0
M  V30 3453 C 321.711 -1.07192 2.02589 0
M  V30 3454 C 322.711 -1.31695 0.922661 0
M  V30 3455 O 323.901 -1.27445 1.18758 0
M  V30 3456 C 321.033 -2.41599 2.40506 0
M  V30 3457 H 322.226 -0.682727 2.92025 0
M  V30 3458 H 319.779 -0.319193 1.53006 0
M  V30 3459 H 320.514 -2.85354 1.5409 0
M  V30 3460 H 320.299 -2.25156 3.21009 0
M  V30 3461 H 321.789 -3.13367 2.76027 0
M  V30 3462 N 322.226 -1.5378 -0.344866 0
M  V30 3463 C 323.466 -1.72677 -1.09371 0
M  V30 3464 C 323.83 -0.479084 -1.85927 0
M  V30 3465 O 325.031 -0.54505 -2.63216 0
M  V30 3466 C 323.302 -2.95457 -2.01097 0
M  V30 3467 S 324.861 -3.35158 -2.83222 0
M  V30 3468 H 321.679 -0.607402 -0.369573 0
M  V30 3469 H 324.281 -1.91922 -0.372307 0
M  V30 3470 H 322.985 -3.84437 -1.43655 0
M  V30 3471 H 322.516 -2.78673 -2.77678 0
M  V30 3472 H 324.531 -2.88789 -4.03504 0
M  V30 3473 N 323.704 0.605807 -1.45491 0
M  V30 3474 C 324.934 1.38934 -1.52908 0
M  V30 3475 C 325.342 1.88513 -0.161086 0
M  V30 3476 O 324.685 1.62962 0.847891 0
M  V30 3477 C 324.747 2.62737 -2.45376 0
M  V30 3478 C 324.411 2.34785 -3.92078 0
M  V30 3479 C 325.408 1.95038 -4.8193 0
M  V30 3480 C 323.093 2.47642 -4.37011 0
M  V30 3481 C 325.087 1.68511 -6.14722 0
M  V30 3482 C 322.774 2.20728 -5.69844 0
M  V30 3483 C 323.772 1.81225 -6.58519 0
M  V30 3484 O 323.46 1.54627 -7.88889 0
M  V30 3485 H 323.192 0.431629 -0.520262 0
M  V30 3486 H 325.746 0.74573 -1.91384 0
M  V30 3487 H 323.976 3.29824 -2.01874 0
M  V30 3488 H 325.665 3.24783 -2.43456 0
M  V30 3489 H 326.431 1.84639 -4.48479 0
M  V30 3490 H 322.31 2.77356 -3.68232 0
M  V30 3491 H 325.854 1.37602 -6.83894 0
M  V30 3492 H 321.751 2.30744 -6.02849 0
M  V30 3493 H 322.519 1.68665 -8.00933 0
M  V30 3494 N 325.182 1.32811 0.848464 0
M  V30 3495 C 326.43 1.23479 1.59991 0
M  V30 3496 C 326.751 -0.201853 1.93952 0
M  V30 3497 O 326.021 -1.12818 1.60153 0
M  V30 3498 H 324.601 0.454034 0.593179 0
M  V30 3499 H 327.263 1.66412 1.01455 0
M  V30 3500 H 326.359 1.82178 2.53412 0
M  V30 3501 N 326.66 -1.06551 1.16123 0
M  V30 3502 C 327.59 -2.15935 0.88851 0
M  V30 3503 C 328.571 -1.69306 -0.164135 0
M  V30 3504 O 329.756 -1.94193 -0.0167857 0
M  V30 3505 C 326.886 -3.45149 0.385942 0
M  V30 3506 C 325.84 -4.05271 1.3762 0
M  V30 3507 C 325.166 -5.29664 0.732137 0
M  V30 3508 C 326.466 -4.44355 2.74493 0
M  V30 3509 H 328.16 -2.39006 1.80323 0
M  V30 3510 H 325.706 -1.14866 0.868435 0
M  V30 3511 H 327.659 -4.21004 0.182647 0
M  V30 3512 H 326.383 -3.21689 -0.564274 0
M  V30 3513 H 325.042 -3.3147 1.56599 0
M  V30 3514 H 324.69 -5.02499 -0.224483 0
M  V30 3515 H 324.39 -5.70848 1.39307 0
M  V30 3516 H 325.914 -6.08218 0.538802 0
M  V30 3517 H 327.328 -5.11303 2.59311 0
M  V30 3518 H 325.725 -4.96515 3.37035 0
M  V30 3519 H 326.795 -3.55339 3.29943 0
M  V30 3520 N 328.138 -0.959301 -1.25041 0
M  V30 3521 C 329.387 -0.612254 -1.92183 0
M  V30 3522 C 329.7 0.855347 -1.75907 0
M  V30 3523 O 330.906 1.31256 -2.37664 0
M  V30 3524 C 329.362 -1.04435 -3.44414 0
M  V30 3525 C 328.97 -2.53482 -3.69393 0
M  V30 3526 C 330.714 -0.770055 -4.17457 0
M  V30 3527 C 328.621 -2.90468 -5.15153 0
M  V30 3528 H 327.551 -0.225279 -0.719559 0
M  V30 3529 H 330.202 -1.16438 -1.41825 0
M  V30 3530 H 328.584 -0.4206 -3.9376 0
M  V30 3531 H 329.758 -3.20916 -3.30681 0
M  V30 3532 H 328.073 -2.78432 -3.0962 0
M  V30 3533 H 330.67 -1.02249 -5.24832 0
M  V30 3534 H 331.013 0.293611 -4.15263 0
M  V30 3535 H 331.546 -1.35437 -3.74034 0
M  V30 3536 H 328.285 -3.95871 -5.22462 0
M  V30 3537 H 327.805 -2.27711 -5.54894 0
M  V30 3538 H 329.484 -2.79914 -5.83315 0
M  V30 3539 N 329.616 1.39756 -0.72842 0
M  V30 3540 C 330.841 2.05472 -0.282159 0
M  V30 3541 C 331.266 1.54549 1.07221 0
M  V30 3542 O 330.624 0.686372 1.67805 0
M  V30 3543 C 330.672 3.59462 -0.286264 0
M  V30 3544 O 329.776 4.05918 0.728298 0
M  V30 3545 H 329.117 0.651226 -0.129618 0
M  V30 3546 H 331.647 1.78915 -0.992499 0
M  V30 3547 H 331.657 4.07798 -0.128373 0
M  V30 3548 H 330.332 3.95889 -1.27456 0
M  V30 3549 H 328.909 3.69012 0.537081 0
M  V30 3550 N 331.094 0.475555 1.50254 0
M  V30 3551 C 332.341 -0.0778919 2.0235 0
M  V30 3552 C 332.669 -1.39319 1.35722 0
M  V30 3553 O 331.924 -1.89888 0.473395 0
M  V30 3554 C 332.223 -0.305114 3.56095 0
M  V30 3555 C 331.889 0.92903 4.41225 0
M  V30 3556 C 330.551 1.26739 4.6421 0
M  V30 3557 C 332.903 1.75054 4.90923 0
M  V30 3558 C 330.231 2.42724 5.34137 0
M  V30 3559 C 332.583 2.9017 5.62125 0
M  V30 3560 C 331.247 3.24416 5.83362 0
M  V30 3561 H 330.517 -0.0285027 0.740452 0
M  V30 3562 H 333.164 0.630543 1.80821 0
M  V30 3563 H 331.469 -1.09584 3.76163 0
M  V30 3564 H 333.166 -0.747377 3.93974 0
M  V30 3565 H 329.756 0.655428 4.23559 0
M  V30 3566 H 333.94 1.50231 4.73016 0
M  V30 3567 H 329.196 2.69525 5.48786 0
M  V30 3568 H 333.37 3.54169 5.99614 0
M  V30 3569 H 330.997 4.14396 6.37323 0
M  V30 3570 N 332.573 -1.56217 0.208337 0
M  V30 3571 C 333.52 -2.19699 -0.707192 0
M  V30 3572 C 334.49 -1.14836 -1.20008 0
M  V30 3573 O 335.675 -1.4314 -1.26157 0
M  V30 3574 C 332.815 -2.87061 -1.91546 0
M  V30 3575 C 331.928 -4.06483 -1.46271 0
M  V30 3576 C 331.063 -4.61665 -2.62752 0
M  V30 3577 C 330.102 -5.73417 -2.14147 0
M  V30 3578 N 329.239 -6.22948 -3.23853 0
M  V30 3579 H 334.079 -2.97575 -0.159111 0
M  V30 3580 H 331.616 -1.46948 -0.0667874 0
M  V30 3581 H 333.574 -3.24294 -2.62468 0
M  V30 3582 H 332.204 -2.11725 -2.43664 0
M  V30 3583 H 331.256 -3.74825 -0.648886 0
M  V30 3584 H 332.568 -4.87271 -1.06622 0
M  V30 3585 H 331.722 -5.01272 -3.41776 0
M  V30 3586 H 330.461 -3.80013 -3.05682 0
M  V30 3587 H 329.466 -5.33326 -1.33581 0
M  V30 3588 H 330.691 -6.56897 -1.72232 0
M  V30 3589 H 328.637 -5.44213 -3.6629 0
M  V30 3590 H 328.554 -6.98823 -2.88414 0
M  V30 3591 H 329.822 -6.6721 -4.03052 0
M  V30 3592 N 334.051 0.0651679 -1.57465 0
M  V30 3593 C 335.3 0.761916 -1.86756 0
M  V30 3594 C 335.613 1.78406 -0.801925 0
M  V30 3595 O 336.819 2.53084 -0.982885 0
M  V30 3596 C 335.275 1.40603 -3.31299 0
M  V30 3597 C 334.883 0.422115 -4.46007 0
M  V30 3598 C 336.627 2.08476 -3.69781 0
M  V30 3599 C 334.534 1.07252 -5.81593 0
M  V30 3600 H 333.464 0.288308 -0.696702 0
M  V30 3601 H 336.115 0.015344 -1.83494 0
M  V30 3602 H 334.497 2.20109 -3.29193 0
M  V30 3603 H 335.671 -0.343613 -4.59517 0
M  V30 3604 H 333.986 -0.152527 -4.16121 0
M  V30 3605 H 336.583 2.57925 -4.68379 0
M  V30 3606 H 336.926 2.88712 -2.99919 0
M  V30 3607 H 337.459 1.35792 -3.73905 0
M  V30 3608 H 334.198 0.310342 -6.54765 0
M  V30 3609 H 333.718 1.80895 -5.71872 0
M  V30 3610 H 335.397 1.59043 -6.27148 0
M  V30 3611 N 335.529 1.53961 0.336706 0
M  V30 3612 C 336.775 1.7273 1.07406 0
M  V30 3613 C 337.13 0.488095 1.86106 0
M  V30 3614 O 336.423 -0.519379 1.84426 0
M  V30 3615 C 336.617 2.93493 2.03953 0
M  V30 3616 C 336.446 4.29039 1.34744 0
M  V30 3617 C 335.216 4.93416 1.08942 0
M  V30 3618 C 337.414 5.08501 0.770115 0
M  V30 3619 N 335.396 6.12821 0.363864 0
M  V30 3620 C 336.767 6.19752 0.175472 0
M  V30 3621 C 338.822 4.93349 0.671633 0
M  V30 3622 C 337.525 7.17503 -0.508081 0
M  V30 3623 C 339.551 5.914 0.0018076 0
M  V30 3624 C 338.913 7.01993 -0.581835 0
M  V30 3625 H 335.012 0.685026 0.377177 0
M  V30 3626 H 337.596 1.91403 0.356815 0
M  V30 3627 H 335.767 2.76308 2.72962 0
M  V30 3628 H 337.499 3.00949 2.70577 0
M  V30 3629 H 334.254 4.53099 1.37833 0
M  V30 3630 H 334.678 6.76998 0.0156092 0
M  V30 3631 H 339.32 4.08007 1.1086 0
M  V30 3632 H 337.038 8.02414 -0.956918 0
M  V30 3633 H 340.624 5.81753 -0.0738538 0
M  V30 3634 H 339.504 7.76561 -1.09192 0
M  V30 3635 N 337.007 -0.598083 1.45811 0
M  V30 3636 C 337.939 -1.72231 1.51225 0
M  V30 3637 C 338.952 -1.57757 0.402059 0
M  V30 3638 O 340.141 -1.65464 0.669624 0
M  V30 3639 C 337.241 -3.10331 1.3619 0
M  V30 3640 C 336.414 -3.50955 2.61054 0
M  V30 3641 C 335.473 -4.68055 2.40439 0
M  V30 3642 O 334.499 -4.74691 3.14097 0
M  V30 3643 N 335.701 -5.61941 1.45612 0
M  V30 3644 H 338.466 -1.68046 2.48154 0
M  V30 3645 H 336.027 -0.783637 1.41671 0
M  V30 3646 H 338.019 -3.86439 1.20195 0
M  V30 3647 H 336.589 -3.0897 0.475015 0
M  V30 3648 H 335.809 -2.64711 2.92099 0
M  V30 3649 H 337.097 -3.74858 3.44034 0
M  V30 3650 H 336.495 -5.59301 0.848431 0
M  V30 3651 H 335.052 -6.37542 1.35585 0
M  V30 3652 N 338.485 -1.33259 -0.841409 0
M  V30 3653 C 339.433 -1.23279 -1.97244 0
M  V30 3654 C 340.427 -0.134706 -1.68864 0
M  V30 3655 O 341.633 -0.298501 -1.77508 0
M  V30 3656 H 338.008 -0.382497 -0.647457 0
M  V30 3657 H 339.979 -2.18906 -2.02787 0
M  V30 3658 C 338.728 -0.986268 -3.33419 0
M  V30 3659 H 338.051 -1.82347 -3.55794 0
M  V30 3660 H 339.491 -0.956728 -4.13065 0
M  V30 3661 C 337.95 0.310842 -3.35463 0
M  V30 3662 O 338.48 1.31838 -3.79449 0
M  V30 3663 N 336.686 0.337485 -2.88634 0
M  V30 3664 H 336.233 -0.482967 -2.53032 0
M  V30 3665 H 336.191 1.20518 -2.90384 0
M  V30 3666 N 339.963 1.05934 -1.16686 0
M  V30 3667 C 340.893 2.1546 -0.899949 0
M  V30 3668 C 341.874 1.69391 0.155154 0
M  V30 3669 O 343.059 1.94199 0.00648693 0
M  V30 3670 C 340.189 3.44939 -0.404241 0
M  V30 3671 C 339.143 4.04536 -1.39767 0
M  V30 3672 C 338.469 5.29268 -0.760216 0
M  V30 3673 C 339.769 4.42893 -2.76845 0
M  V30 3674 H 341.463 2.38046 -1.81588 0
M  V30 3675 H 339.009 1.14404 -0.874514 0
M  V30 3676 H 340.962 4.20901 -0.204971 0
M  V30 3677 H 339.686 3.21983 0.547206 0
M  V30 3678 H 338.345 3.30635 -1.58355 0
M  V30 3679 H 337.993 5.02611 0.197831 0
M  V30 3680 H 337.693 5.70101 -1.42332 0
M  V30 3681 H 339.217 6.07924 -0.57105 0
M  V30 3682 H 340.631 5.09921 -2.62019 0
M  V30 3683 H 339.028 4.94721 -3.39663 0
M  V30 3684 H 340.098 3.53584 -3.31823 0
M  V30 3685 N 341.441 0.965919 1.2453 0
M  V30 3686 C 342.857 0.67216 1.44756 0
M  V30 3687 C 343.057 -0.766609 1.86347 0
M  V30 3688 O 342.113 -1.5407 2.00047 0
M  V30 3689 C 343.426 1.65473 2.51076 0
M  V30 3690 C 344.974 1.66716 2.64905 0
M  V30 3691 C 345.449 2.63766 3.74421 0
M  V30 3692 N 346.94 2.62198 3.81846 0
M  V30 3693 C 347.675 3.33966 4.66106 0
M  V30 3694 N 347.171 4.15245 5.54566 0
M  V30 3695 N 348.964 3.22799 4.60171 0
M  V30 3696 H 341.115 1.89553 0.958293 0
M  V30 3697 H 343.378 0.815979 0.482579 0
M  V30 3698 H 343.084 2.68296 2.27399 0
M  V30 3699 H 342.958 1.4261 3.49202 0
M  V30 3700 H 345.345 0.646057 2.87941 0
M  V30 3701 H 345.426 1.93642 1.67142 0
M  V30 3702 H 345.07 3.6601 3.52135 0
M  V30 3703 H 345 2.34121 4.71694 0
M  V30 3704 H 347.491 2.032 3.18619 0
M  V30 3705 H 347.804 4.66898 6.15814 0
M  V30 3706 H 346.149 4.1934 5.54237 0
M  V30 3707 H 349.34 2.58764 3.90075 0
M  V30 3708 H 349.513 3.78994 5.25612 0
M  V30 3709 N 342.919 -1.39368 0.735821 0
M  V30 3710 C 343.849 -2.33234 0.111506 0
M  V30 3711 C 344.83 -1.53954 -0.723334 0
M  V30 3712 O 346.015 -1.82344 -0.668147 0
M  V30 3713 C 343.145 -3.38057 -0.795917 0
M  V30 3714 C 342.099 -4.2795 -0.065172 0
M  V30 3715 C 341.425 -5.23479 -1.08967 0
M  V30 3716 C 342.725 -5.10741 1.09273 0
M  V30 3717 H 344.419 -2.85692 0.895571 0
M  V30 3718 H 341.965 -1.37364 0.432109 0
M  V30 3719 H 343.918 -4.02675 -1.24221 0
M  V30 3720 H 342.642 -2.8404 -1.61211 0
M  V30 3721 H 341.301 -3.64813 0.361511 0
M  V30 3722 H 340.949 -4.65758 -1.89944 0
M  V30 3723 H 340.649 -5.84472 -0.605489 0
M  V30 3724 H 342.173 -5.90974 -1.53565 0
M  V30 3725 H 343.587 -5.68699 0.724841 0
M  V30 3726 H 341.984 -5.8088 1.50659 0
M  V30 3727 H 343.054 -4.45525 1.91404 0
M  V30 3728 N 344.397 -0.483516 -1.5 0
M  V30 3729 C 345.344 0.304164 -2.28787 0
M  V30 3730 C 346.314 0.976114 -1.34392 0
M  V30 3731 O 347.499 0.986156 -1.63339 0
M  V30 3732 C 344.639 1.37298 -3.16612 0
M  V30 3733 C 343.752 0.714561 -4.26049 0
M  V30 3734 C 342.887 1.76232 -5.01114 0
M  V30 3735 C 341.926 1.08483 -6.0241 0
M  V30 3736 N 341.063 2.076 -6.70706 0
M  V30 3737 H 345.903 -0.373981 -2.95644 0
M  V30 3738 H 343.44 -0.196275 -1.45785 0
M  V30 3739 H 345.398 2.00445 -3.65893 0
M  V30 3740 H 344.028 2.02012 -2.51776 0
M  V30 3741 H 343.08 -0.0297798 -3.80388 0
M  V30 3742 H 344.392 0.180383 -4.98474 0
M  V30 3743 H 343.546 2.46929 -5.54176 0
M  V30 3744 H 342.285 2.33033 -4.28424 0
M  V30 3745 H 341.29 0.363545 -5.48597 0
M  V30 3746 H 342.515 0.523551 -6.77079 0
M  V30 3747 H 340.461 2.63394 -6.00799 0
M  V30 3748 H 340.378 1.59201 -7.39047 0
M  V30 3749 H 341.646 2.77639 -7.2838 0
M  V30 3750 N 345.875 1.56104 -0.216619 0
M  V30 3751 C 347.103 2.02563 0.421413 0
M  V30 3752 C 347.518 1.0965 1.53695 0
M  V30 3753 O 346.875 0.10521 1.82196 0
M  V30 3754 C 346.926 3.48584 0.957665 0
M  V30 3755 O 346.647 4.37953 -0.113389 0
M  V30 3756 C 348.148 4.10664 1.66943 0
M  V30 3757 H 345.368 0.662944 0.103665 0
M  V30 3758 H 347.912 2.01793 -0.331629 0
M  V30 3759 H 346.067 3.49985 1.661 0
M  V30 3760 H 346.481 5.23704 0.288932 0
M  V30 3761 H 347.955 5.14622 1.99671 0
M  V30 3762 H 348.432 3.55373 2.58083 0
M  V30 3763 H 349.038 4.13098 1.01142 0
M  V30 3764 N 347.353 -0.0568162 1.57498 0
M  V30 3765 C 348.316 -1.05038 2.03715 0
M  V30 3766 C 349.316 -1.30709 0.936577 0
M  V30 3767 O 350.506 -1.26178 1.20103 0
M  V30 3768 C 347.638 -2.39034 2.43055 0
M  V30 3769 H 348.831 -0.651715 2.92733 0
M  V30 3770 H 346.384 -0.302947 1.53336 0
M  V30 3771 H 347.119 -2.83703 1.57108 0
M  V30 3772 H 346.904 -2.21739 3.2338 0
M  V30 3773 H 348.394 -3.10421 2.79336 0
M  V30 3774 N 348.832 -1.54138 -0.328536 0
M  V30 3775 C 349.795 -1.82462 -1.38709 0
M  V30 3776 C 350.795 -0.696229 -1.44946 0
M  V30 3777 O 351.985 -0.964535 -1.4506 0
M  V30 3778 C 349.117 -1.98018 -2.77492 0
M  V30 3779 H 350.31 -2.77037 -1.14851 0
M  V30 3780 H 347.863 -1.45779 -0.563751 0
M  V30 3781 H 348.598 -1.05637 -3.06613 0
M  V30 3782 H 348.383 -2.80124 -2.74359 0
M  V30 3783 H 349.873 -2.21396 -3.54081 0
M  V30 3784 N 350.31 0.590341 -1.46126 0
M  V30 3785 C 351.273 1.68194 -1.55703 0
M  V30 3786 C 352.273 1.54808 -0.434868 0
M  V30 3787 O 353.463 1.59564 -0.698928 0
M  V30 3788 C 350.595 3.07575 -1.47005 0
M  V30 3789 H 351.788 1.61064 -2.52979 0
M  V30 3790 H 349.341 0.807541 -1.33823 0
M  V30 3791 H 350.076 3.20268 -0.509785 0
M  V30 3792 H 349.861 3.187 -2.28414 0
M  V30 3793 H 351.351 3.87055 -1.56776 0
M  V30 3794 N 351.788 1.33704 0.83433 0
M  V30 3795 C 352.751 1.24244 1.92603 0
M  V30 3796 C 353.751 0.160383 1.59998 0
M  V30 3797 O 354.941 0.412228 1.69252 0
M  V30 3798 C 352.073 0.91555 3.28376 0
M  V30 3799 H 353.266 2.21287 2.02416 0
M  V30 3800 H 350.819 1.17827 1.02696 0
M  V30 3801 H 351.554 -0.0521886 3.24258 0
M  V30 3802 H 351.339 1.69811 3.53422 0
M  V30 3803 H 352.829 0.874231 4.08347 0
M  V30 3804 N 353.266 -1.05314 1.17247 0
M  V30 3805 C 354.229 -2.112 0.890357 0
M  V30 3806 C 355.229 -1.60359 -0.118943 0
M  V30 3807 O 356.419 -1.73833 0.113086 0
M  V30 3808 C 353.551 -3.39266 0.333422 0
M  V30 3809 H 354.744 -2.37659 1.82916 0
M  V30 3810 H 352.297 -1.21538 0.982758 0
M  V30 3811 H 353.032 -3.18462 -0.612587 0
M  V30 3812 H 352.817 -3.77477 1.06082 0
M  V30 3813 H 354.307 -4.17315 0.154322 0
M  V30 3814 N 354.744 -0.972509 -1.24016 0
M  V30 3815 C 355.707 -0.511403 -2.23422 0
M  V30 3816 C 356.707 0.394679 -1.55881 0
M  V30 3817 O 357.897 0.189469 -1.73167 0
M  V30 3818 C 355.029 0.258769 -3.39916 0
M  V30 3819 H 356.222 -1.39024 -2.6573 0
M  V30 3820 H 353.775 -0.757585 -1.36713 0
M  V30 3821 H 354.51 1.1545 -3.03054 0
M  V30 3822 H 354.295 -0.391522 -3.9014 0
M  V30 3823 H 355.785 0.570244 -4.13688 0
M  V30 3824 N 356.222 1.38976 -0.743202 0
M  V30 3825 C 357.132 2.3434 -0.110399 0
M  V30 3826 C 358.148 1.58741 0.712559 0
M  V30 3827 O 359.324 1.9099 0.639125 0
M  V30 3828 C 356.389 3.37812 0.780012 0
M  V30 3829 C 355.45 4.29263 -0.0561319 0
M  V30 3830 C 354.683 5.27793 0.791875 0
M  V30 3831 O 354.906 5.33043 2.03031 0
M  V30 3832 O 353.84 6.01512 0.216183 0
M  V30 3833 H 357.666 2.90129 -0.897714 0
M  V30 3834 H 355.251 1.40643 -0.503966 0
M  V30 3835 H 357.133 4.01194 1.28923 0
M  V30 3836 H 355.808 2.84395 1.546 0
M  V30 3837 H 354.715 3.69076 -0.611056 0
M  V30 3838 H 356.048 4.85907 -0.784531 0
M  V30 3839 N 357.7 0.491464 1.49741 0
M  V30 3840 C 358.663 -0.280906 2.27472 0
M  V30 3841 C 359.663 -0.902454 1.33088 0
M  V30 3842 O 360.853 -0.768465 1.56334 0
M  V30 3843 C 357.985 -1.40209 3.10732 0
M  V30 3844 H 359.178 0.401056 2.97206 0
M  V30 3845 H 356.731 0.246131 1.5435 0
M  V30 3846 H 357.466 -2.11849 2.45541 0
M  V30 3847 H 357.251 -0.961969 3.80117 0
M  V30 3848 H 358.741 -1.9464 3.69466 0
M  V30 3849 N 359.178 -1.55987 0.224894 0
M  V30 3850 C 360.589 -1.84553 -0.282345 0
M  V30 3851 C 360.94 -1.14634 -1.59227 0
M  V30 3852 O 360.065 -0.417155 -2.12341 0
M  V30 3853 C 360.66 -3.348 -0.519062 0
M  V30 3854 C 359.219 -3.63671 -0.970604 0
M  V30 3855 C 358.366 -2.77277 -0.0355261 0
M  V30 3856 H 361.317 -1.52245 0.448006 0
M  V30 3857 H 361.338 -3.55187 -1.36463 0
M  V30 3858 H 360.85 -3.8566 0.43449 0
M  V30 3859 H 358.951 -3.1827 -1.9374 0
M  V30 3860 H 359.064 -4.71631 -0.842698 0
M  V30 3861 H 357.428 -2.48846 -0.542927 0
M  V30 3862 H 358.211 -3.30937 0.913003 0
M  V30 3863 N 360.656 0.0484629 -1.57525 0
M  V30 3864 C 361.566 1.07241 -2.08654 0
M  V30 3865 C 362.582 1.409 -1.02095 0
M  V30 3866 O 363.758 1.50609 -1.33712 0
M  V30 3867 C 360.823 2.36008 -2.5397 0
M  V30 3868 C 359.884 2.09108 -3.7493 0
M  V30 3869 C 359.117 3.31736 -4.18075 0
M  V30 3870 O 359.34 4.41714 -3.60895 0
M  V30 3871 O 358.274 3.18576 -5.10679 0
M  V30 3872 H 362.1 0.667965 -2.96263 0
M  V30 3873 H 359.685 0.26417 -1.47046 0
M  V30 3874 H 361.567 3.11747 -2.83535 0
M  V30 3875 H 360.242 2.75786 -1.69481 0
M  V30 3876 H 359.149 1.31 -3.50414 0
M  V30 3877 H 360.482 1.74198 -4.60343 0
M  V30 3878 N 362.134 1.5431 0.320358 0
M  V30 3879 C 363.382 1.72327 1.05583 0
M  V30 3880 C 363.703 0.50149 1.88441 0
M  V30 3881 O 362.973 -0.48448 1.89815 0
M  V30 3882 H 361.553 0.635387 0.3928 0
M  V30 3883 H 364.215 1.91621 0.356019 0
M  V30 3884 H 363.311 2.60426 1.72003 0
M  V30 3885 N 363.613 -0.582584 1.46437 0
M  V30 3886 C 364.576 -1.67366 1.56592 0
M  V30 3887 C 365.576 -1.54575 0.443072 0
M  V30 3888 O 366.766 -1.59191 0.707381 0
M  V30 3889 C 363.898 -3.06791 1.48634 0
M  V30 3890 H 365.091 -1.5972 2.5383 0
M  V30 3891 H 362.644 -0.800432 1.34249 0
M  V30 3892 H 363.379 -3.19993 0.526763 0
M  V30 3893 H 363.164 -3.17484 2.30101 0
M  V30 3894 H 364.654 -3.86218 1.58826 0
M  V30 3895 N 365.091 -1.34144 -0.827227 0
M  V30 3896 C 366.054 -1.25264 -1.91942 0
M  V30 3897 C 367.054 -0.168866 -1.59911 0
M  V30 3898 O 368.244 -0.421198 -1.69031 0
M  V30 3899 C 365.376 -0.932952 -3.27885 0
M  V30 3900 H 366.569 -2.22357 -2.0124 0
M  V30 3901 H 364.122 -1.1837 -1.0207 0
M  V30 3902 H 364.857 0.0349917 -3.24281 0
M  V30 3903 H 364.642 -1.71682 -3.52516 0
M  V30 3904 H 366.132 -0.895874 -4.07877 0
M  V30 3905 N 366.569 1.04691 -1.17803 0
M  V30 3906 C 367.532 2.10724 -0.901545 0
M  V30 3907 C 368.532 1.6042 0.110437 0
M  V30 3908 O 369.722 1.7377 -0.122303 0
M  V30 3909 C 366.854 3.39084 -0.351409 0
M  V30 3910 H 368.047 2.36686 -1.84174 0
M  V30 3911 H 365.6 1.21015 -0.98919 0
M  V30 3912 H 366.335 3.18782 0.59569 0
M  V30 3913 H 366.12 3.76909 -1.08083 0
M  V30 3914 H 367.61 4.17227 -0.176451 0
M  V30 3915 N 368.047 0.979072 1.23499 0
M  V30 3916 C 369.295 0.645941 1.91499 0
M  V30 3917 C 369.616 -0.822948 1.76784 0
M  V30 3918 O 368.886 -1.58854 1.14639 0
M  V30 3919 H 367.466 0.235919 0.708767 0
M  V30 3920 H 370.128 1.2426 1.50152 0
M  V30 3921 H 369.224 0.896411 2.9895 0
M  V30 3922 N 369.525 -1.3858 0.750561 0
M  V30 3923 C 370.802 -1.94231 0.231009 0
M  V30 3924 C 371.182 -1.68611 -1.27018 0
M  V30 3925 O 370.53 -1.02296 -2.04323 0
M  V30 3926 C 370.74 -3.44123 0.581428 0
M  V30 3927 C 372.088 -4.2116 0.539389 0
M  V30 3928 O 373.112 -3.52391 0.519541 0
M  V30 3929 O 371.971 -5.43749 0.54765 0
M  V30 3930 H 369.065 -0.825639 0.0474263 0
M  V30 3931 H 371.611 -1.4799 0.830478 0
M  V30 3932 H 370.383 -3.56267 1.61833 0
M  V30 3933 H 370.006 -3.97573 -0.0462047 0
M  V30 3934 N 371.003 -0.499398 -1.49478 0
M  V30 3935 C 372.251 0.0455996 -2.02049 0
M  V30 3936 C 372.572 1.37633 -1.38138 0
M  V30 3937 O 371.842 1.8842 -0.536166 0
M  V30 3938 H 370.422 0.0198416 -0.746736 0
M  V30 3939 H 373.084 -0.656274 -1.83519 0
M  V30 3940 H 372.18 0.176445 -3.11601 0
M  V30 3941 N 372.481 1.55866 -0.233164 0
M  V30 3942 C 373.729 1.9821 0.394593 0
M  V30 3943 C 374.05 1.12234 1.59463 0
M  V30 3944 O 373.32 0.201981 1.94856 0
M  V30 3945 H 371.9 0.732034 0.148778 0
M  V30 3946 H 374.562 1.92107 -0.32876 0
M  V30 3947 H 373.658 3.03845 0.713063 0
M  V30 3948 N 373.959 -0.0401083 1.57549 0
M  V30 3949 C 375.375 -0.395556 1.54621 0
M  V30 3950 C 375.575 -1.77281 0.957799 0
M  V30 3951 O 374.631 -2.45888 0.574031 0
M  V30 3952 C 375.944 -0.307535 2.99123 0
M  V30 3953 C 377.492 -0.385425 3.10618 0
M  V30 3954 C 377.967 -0.326973 4.56831 0
M  V30 3955 N 379.458 -0.386102 4.61588 0
M  V30 3956 C 380.193 -0.363591 5.72246 0
M  V30 3957 N 379.689 -0.29402 6.92176 0
M  V30 3958 N 381.482 -0.412503 5.60584 0
M  V30 3959 H 373.633 0.861325 1.94152 0
M  V30 3960 H 375.896 0.326445 0.890021 0
M  V30 3961 H 375.602 0.638461 3.45856 0
M  V30 3962 H 375.476 -1.10552 3.60636 0
M  V30 3963 H 377.863 -1.32185 2.63839 0
M  V30 3964 H 377.944 0.44171 2.51957 0
M  V30 3965 H 377.588 0.605738 5.04275 0
M  V30 3966 H 377.518 -1.17207 5.13391 0
M  V30 3967 H 380.009 -0.442832 3.75296 0
M  V30 3968 H 380.322 -0.28164 7.72287 0
M  V30 3969 H 378.667 -0.260232 6.94513 0
M  V30 3970 H 381.858 -0.464769 4.65787 0
M  V30 3971 H 382.031 -0.391492 6.46816 0
M  V30 3972 N 375.437 -1.54477 -0.31217 0
M  V30 3973 C 376.683 -1.73483 -1.0503 0
M  V30 3974 C 377.016 -0.513125 -1.87298 0
M  V30 3975 O 376.291 0.489864 -1.8823 0
M  V30 3976 C 376.574 -3.01723 -1.96558 0
M  V30 3977 C 376.427 -4.3417 -1.17545 0
M  V30 3978 C 377.746 -3.25772 -2.95907 0
M  V30 3979 H 374.865 -0.631222 -0.380432 0
M  V30 3980 H 377.507 -1.87184 -0.325932 0
M  V30 3981 H 375.657 -2.90174 -2.58324 0
M  V30 3982 H 377.329 -4.5762 -0.581513 0
M  V30 3983 H 375.572 -4.31159 -0.477925 0
M  V30 3984 H 376.243 -5.20143 -1.84811 0
M  V30 3985 H 378.719 -3.36857 -2.44267 0
M  V30 3986 H 377.595 -4.16838 -3.57123 0
M  V30 3987 H 377.856 -2.43537 -3.68974 0
M  V30 3988 N 376.915 0.57481 -1.46744 0
M  V30 3989 C 377.878 1.66533 -1.57478 0
M  V30 3990 C 378.878 1.54338 -0.451263 0
M  V30 3991 O 380.068 1.58814 -0.715813 0
M  V30 3992 C 377.2 3.05999 -1.50259 0
M  V30 3993 H 378.393 1.58372 -2.54673 0
M  V30 3994 H 375.946 0.793301 -1.34672 0
M  V30 3995 H 376.681 3.19709 -0.543725 0
M  V30 3996 H 376.466 3.16259 -2.31781 0
M  V30 3997 H 377.956 3.8537 -1.60872 0
M  V30 3998 N 378.394 1.34581 0.820102 0
M  V30 3999 C 379.324 1.29038 1.94606 0
M  V30 4000 C 380.305 0.1673 1.69275 0
M  V30 4001 O 381.49 0.360112 1.90832 0
M  V30 4002 C 378.62 1.04793 3.31113 0
M  V30 4003 C 377.574 2.13597 3.70891 0
M  V30 4004 C 376.9 1.74537 5.05412 0
M  V30 4005 C 378.2 3.55451 3.8269 0
M  V30 4006 H 379.894 2.23248 1.99501 0
M  V30 4007 H 377.44 1.0747 0.958449 0
M  V30 4008 H 379.393 0.995592 4.0947 0
M  V30 4009 H 378.117 0.0702565 3.26524 0
M  V30 4010 H 376.776 2.17905 2.9481 0
M  V30 4011 H 376.424 0.754226 4.97313 0
M  V30 4012 H 376.124 2.47361 5.32997 0
M  V30 4013 H 377.648 1.70803 5.86224 0
M  V30 4014 H 379.062 3.5354 4.51312 0
M  V30 4015 H 377.459 4.26922 4.21732 0
M  V30 4016 H 378.529 3.92587 2.84611 0
M  V30 4017 N 379.872 -1.04064 1.18357 0
M  V30 4018 C 380.835 -2.10243 0.912707 0
M  V30 4019 C 381.835 -1.60477 -0.101928 0
M  V30 4020 O 383.025 -1.73703 0.131517 0
M  V30 4021 C 380.157 -3.38893 0.369387 0
M  V30 4022 H 381.35 -2.35706 1.85426 0
M  V30 4023 H 378.903 -1.20489 0.995594 0
M  V30 4024 H 379.638 -3.19094 -0.578776 0
M  V30 4025 H 379.423 -3.76331 1.1008 0
M  V30 4026 H 380.913 -4.17128 0.198575 0
M  V30 4027 N 381.35 -0.985608 -1.22978 0
M  V30 4028 C 382.766 -0.695104 -1.43668 0
M  V30 4029 C 382.966 0.736866 -1.87543 0
M  V30 4030 O 382.022 1.50868 -2.02473 0
M  V30 4031 C 383.335 -1.69447 -2.48412 0
M  V30 4032 C 384.883 -1.70909 -2.62219 0
M  V30 4033 C 385.358 -2.6969 -3.70178 0
M  V30 4034 N 386.849 -2.6824 -3.77626 0
M  V30 4035 C 387.584 -3.41339 -4.60733 0
M  V30 4036 N 387.08 -4.24015 -5.4789 0
M  V30 4037 N 388.873 -3.30079 -4.54977 0
M  V30 4038 H 381.024 -1.91054 -0.928016 0
M  V30 4039 H 383.287 -0.823553 -0.469536 0
M  V30 4040 H 382.993 -2.7188 -2.23102 0
M  V30 4041 H 382.867 -1.48147 -3.46889 0
M  V30 4042 H 385.254 -0.691785 -2.86877 0
M  V30 4043 H 385.335 -1.96276 -1.6404 0
M  V30 4044 H 384.979 -3.71566 -3.46268 0
M  V30 4045 H 384.909 -2.41595 -4.67909 0
M  V30 4046 H 387.4 -2.08243 -3.15346 0
M  V30 4047 H 387.713 -4.76636 -6.08308 0
M  V30 4048 H 386.058 -4.28104 -5.47496 0
M  V30 4049 H 389.249 -2.64937 -3.85909 0
M  V30 4050 H 389.422 -3.87308 -5.19516 0
M  V30 4051 N 382.828 1.3818 -0.7579 0
M  V30 4052 C 384.074 2.00316 -0.316453 0
M  V30 4053 C 384.407 1.60026 1.10025 0
M  V30 4054 O 383.682 0.839835 1.75434 0
M  V30 4055 C 383.965 3.57349 -0.444245 0
M  V30 4056 C 383.818 4.07591 -1.90236 0
M  V30 4057 C 385.137 4.3981 0.1598 0
M  V30 4058 H 382.256 0.727741 -0.116459 0
M  V30 4059 H 384.898 1.6406 -0.958352 0
M  V30 4060 H 383.048 3.88365 0.102233 0
M  V30 4061 H 384.72 3.87199 -2.50748 0
M  V30 4062 H 382.963 3.60297 -2.41595 0
M  V30 4063 H 383.634 5.16677 -1.94291 0
M  V30 4064 H 386.11 4.14971 -0.306314 0
M  V30 4065 H 384.986 5.48885 0.0401675 0
M  V30 4066 H 385.247 4.24102 1.24859 0
M  V30 4067 N 384.306 0.507319 1.49211 0
M  V30 4068 C 385.531 -0.033725 2.07373 0
M  V30 4069 C 385.956 -1.29485 1.36437 0
M  V30 4070 O 385.314 -1.76294 0.423087 0
M  V30 4071 C 385.362 -0.263945 3.59633 0
M  V30 4072 O 384.466 -1.33737 3.90113 0
M  V30 4073 H 383.807 0.0290331 0.663365 0
M  V30 4074 H 386.337 0.708749 1.91932 0
M  V30 4075 H 386.347 -0.493536 4.05004 0
M  V30 4076 H 385.022 0.657424 4.10671 0
M  V30 4077 H 383.599 -1.09224 3.56545 0
M  V30 4078 N 385.784 -1.5574 0.241426 0
M  V30 4079 C 387.009 -2.0366 -0.392111 0
M  V30 4080 C 387.434 -1.11969 -1.51144 0
M  V30 4081 O 386.792 -0.111594 -1.80956 0
M  V30 4082 C 386.84 -3.49638 -0.882371 0
M  V30 4083 O 385.944 -3.6108 -1.99235 0
M  V30 4084 H 385.285 -0.658379 -0.0862122 0
M  V30 4085 H 387.815 -2.01302 0.365881 0
M  V30 4086 H 387.825 -3.90351 -1.18702 0
M  V30 4087 H 386.5 -4.15852 -0.0632361 0
M  V30 4088 H 385.077 -3.32262 -1.69282 0
M  V30 4089 N 387.262 0.0317525 -1.57568 0
M  V30 4090 C 388.508 0.724175 -1.8943 0
M  V30 4091 C 388.841 1.75149 -0.838836 0
M  V30 4092 O 388.116 1.93948 0.146422 0
M  V30 4093 C 388.399 1.39615 -3.31933 0
M  V30 4094 C 388.252 0.382537 -4.4817 0
M  V30 4095 C 389.571 2.33084 -3.73309 0
M  V30 4096 H 386.69 0.261797 -0.688935 0
M  V30 4097 H 389.332 -0.013017 -1.89996 0
M  V30 4098 H 387.482 2.02451 -3.31581 0
M  V30 4099 H 389.154 -0.243689 -4.60656 0
M  V30 4100 H 387.397 -0.29844 -4.32772 0
M  V30 4101 H 388.068 0.891145 -5.44759 0
M  V30 4102 H 390.544 1.80295 -3.7501 0
M  V30 4103 H 389.42 2.77084 -4.73831 0
M  V30 4104 H 389.681 3.19643 -3.05419 0
M  V30 4105 N 388.74 1.54641 0.303973 0
M  V30 4106 C 389.687 1.85386 1.37479 0
M  V30 4107 C 390.657 0.702528 1.50512 0
M  V30 4108 O 391.842 0.950867 1.65418 0
M  V30 4109 C 388.982 2.10413 2.73533 0
M  V30 4110 C 388.095 3.38049 2.68974 0
M  V30 4111 C 387.23 3.52934 3.97002 0
M  V30 4112 C 386.269 4.74373 3.86829 0
M  V30 4113 N 385.406 4.8608 5.06627 0
M  V30 4114 H 390.246 2.76732 1.1056 0
M  V30 4115 H 387.783 1.37034 0.534805 0
M  V30 4116 H 389.741 2.22919 3.52652 0
M  V30 4117 H 388.371 1.22338 2.98719 0
M  V30 4118 H 387.423 3.3418 1.81736 0
M  V30 4119 H 388.735 4.27288 2.57346 0
M  V30 4120 H 387.889 3.65088 4.84557 0
M  V30 4121 H 386.628 2.61824 4.1146 0
M  V30 4122 H 385.633 4.62255 2.97658 0
M  V30 4123 H 386.858 5.66888 3.73918 0
M  V30 4124 H 384.804 3.97891 5.21554 0
M  V30 4125 H 384.721 5.69315 4.9741 0
M  V30 4126 H 385.989 5.02587 5.95841 0
M  V30 4127 N 390.218 -0.567019 1.47046 0
M  V30 4128 C 391.148 -1.68482 1.61667 0
M  V30 4129 C 392.129 -1.6358 0.466418 0
M  V30 4130 O 393.314 -1.81354 0.694574 0
M  V30 4131 C 390.444 -3.07124 1.62148 0
M  V30 4132 C 389.398 -3.26867 2.76301 0
M  V30 4133 C 388.724 -4.66196 2.61849 0
M  V30 4134 C 390.024 -3.13186 4.17986 0
M  V30 4135 H 391.718 -1.56502 2.5524 0
M  V30 4136 H 389.264 -0.751486 1.22836 0
M  V30 4137 H 391.217 -3.8516 1.70968 0
M  V30 4138 H 389.941 -3.2004 0.651287 0
M  V30 4139 H 388.6 -2.51237 2.66975 0
M  V30 4140 H 388.248 -4.75898 1.62879 0
M  V30 4141 H 387.948 -4.80356 3.38425 0
M  V30 4142 H 389.472 -5.46379 2.72584 0
M  V30 4143 H 390.886 -3.81049 4.2834 0
M  V30 4144 H 389.283 -3.3886 4.95272 0
M  V30 4145 H 390.353 -2.10057 4.3704 0
M  V30 4146 N 391.696 -1.35014 -0.812953 0
M  V30 4147 C 392.945 -1.27269 -1.56479 0
M  V30 4148 C 393.258 0.152771 -1.95002 0
M  V30 4149 O 394.464 0.352451 -2.69203 0
M  V30 4150 C 392.92 -2.23159 -2.82362 0
M  V30 4151 C 392.528 -3.71016 -2.511 0
M  V30 4152 C 394.272 -2.24342 -3.60376 0
M  V30 4153 C 392.179 -4.58746 -3.73237 0
M  V30 4154 H 391.109 -0.472829 -0.587324 0
M  V30 4155 H 393.76 -1.6024 -0.894171 0
M  V30 4156 H 392.142 -1.83151 -3.51101 0
M  V30 4157 H 393.316 -4.1962 -1.90409 0
M  V30 4158 H 391.631 -3.72378 -1.86343 0
M  V30 4159 H 394.228 -2.87107 -4.51081 0
M  V30 4160 H 394.571 -1.24542 -3.97234 0
M  V30 4161 H 395.104 -2.62846 -2.98591 0
M  V30 4162 H 391.843 -5.59521 -3.41492 0
M  V30 4163 H 391.363 -4.14871 -4.33176 0
M  V30 4164 H 393.042 -4.73852 -4.40537 0
M  V30 4165 N 393.175 1.03435 -1.18907 0
M  V30 4166 C 394.4 1.80919 -1.01406 0
M  V30 4167 C 394.825 1.83055 0.432721 0
M  V30 4168 O 394.183 1.25252 1.31079 0
M  V30 4169 C 394.231 3.24091 -1.58105 0
M  V30 4170 O 393.335 4.04434 -0.806669 0
M  V30 4171 H 392.676 0.558709 -0.358803 0
M  V30 4172 H 395.206 1.30223 -1.57807 0
M  V30 4173 H 395.216 3.74853 -1.61087 0
M  V30 4174 H 393.891 3.21851 -2.6341 0
M  V30 4175 H 392.468 3.63091 -0.849666 0
M  V30 4176 N 394.653 0.992116 1.22453 0
M  V30 4177 C 395.6 0.541731 2.24352 0
M  V30 4178 C 396.57 -0.425519 1.60557 0
M  V30 4179 O 397.755 -0.330453 1.87917 0
M  V30 4180 C 394.895 -0.138248 3.44823 0
M  V30 4181 C 394.008 0.870649 4.23136 0
M  V30 4182 C 393.143 0.164269 5.30946 0
M  V30 4183 C 392.182 1.16159 6.00977 0
M  V30 4184 N 391.319 0.483568 7.00433 0
M  V30 4185 H 396.159 1.41541 2.62241 0
M  V30 4186 H 393.696 0.709013 1.28885 0
M  V30 4187 H 395.654 -0.5494 4.13567 0
M  V30 4188 H 394.284 -0.975721 3.077 0
M  V30 4189 H 393.336 1.40013 3.53696 0
M  V30 4190 H 394.648 1.63014 4.7141 0
M  V30 4191 H 393.802 -0.303653 6.0594 0
M  V30 4192 H 392.541 -0.627733 4.83643 0
M  V30 4193 H 391.546 1.64015 5.24766 0
M  V30 4194 H 392.771 1.95445 6.50368 0
M  V30 4195 H 390.717 -0.289012 6.55363 0
M  V30 4196 H 390.634 1.18152 7.4671 0
M  V30 4197 H 391.902 0.0384219 7.79491 0
M  V30 4198 N 396.131 -1.37776 0.765217 0
M  V30 4199 C 397.094 -2.28686 0.153416 0
M  V30 4200 C 398.094 -1.47727 -0.635081 0
M  V30 4201 O 399.284 -1.68027 -0.459632 0
M  V30 4202 C 396.416 -3.31608 -0.790495 0
M  V30 4203 H 397.609 -2.84297 0.954723 0
M  V30 4204 H 395.162 -1.46932 0.53299 0
M  V30 4205 H 395.897 -2.81109 -1.61705 0
M  V30 4206 H 395.682 -3.9144 -0.227348 0
M  V30 4207 H 397.172 -3.99559 -1.21419 0
M  V30 4208 N 397.609 -0.515225 -1.4894 0
M  V30 4209 C 398.556 0.255567 -2.29381 0
M  V30 4210 C 399.526 0.947387 -1.36432 0
M  V30 4211 O 400.711 0.951288 -1.65394 0
M  V30 4212 C 397.851 1.30551 -3.19453 0
M  V30 4213 C 396.964 0.624029 -4.27469 0
M  V30 4214 C 396.099 1.65563 -5.0474 0
M  V30 4215 C 395.138 0.956802 -6.04576 0
M  V30 4216 N 394.275 1.93326 -6.74959 0
M  V30 4217 H 399.115 -0.436607 -2.94784 0
M  V30 4218 H 396.652 -0.227154 -1.45336 0
M  V30 4219 H 398.61 1.92639 -3.70062 0
M  V30 4220 H 397.24 1.96626 -2.56004 0
M  V30 4221 H 396.292 -0.110459 -3.8024 0
M  V30 4222 H 397.604 0.0746092 -4.98744 0
M  V30 4223 H 396.758 2.35119 -5.59289 0
M  V30 4224 H 395.497 2.23893 -4.3327 0
M  V30 4225 H 394.502 0.247097 -5.49244 0
M  V30 4226 H 395.727 0.379814 -6.78037 0
M  V30 4227 H 393.673 2.50591 -6.06251 0
M  V30 4228 H 393.59 1.43489 -7.42258 0
M  V30 4229 H 394.858 2.62126 -7.34105 0
M  V30 4230 N 399.087 1.5561 -0.249682 0
M  V30 4231 C 400.336 1.98187 0.37479 0
M  V30 4232 C 400.649 1.14111 1.58865 0
M  V30 4233 O 401.855 1.46714 2.28445 0
M  V30 4234 C 400.311 3.52661 0.718192 0
M  V30 4235 C 399.919 4.45481 -0.474428 0
M  V30 4236 C 401.663 4.03888 1.3067 0
M  V30 4237 C 399.57 5.91303 -0.107026 0
M  V30 4238 H 398.5 0.740159 0.143808 0
M  V30 4239 H 401.151 1.80125 -0.350336 0
M  V30 4240 H 399.533 3.66429 1.50152 0
M  V30 4241 H 400.707 4.43473 -1.25172 0
M  V30 4242 H 399.022 4.04751 -0.978052 0
M  V30 4243 H 401.619 5.10358 1.59496 0
M  V30 4244 H 401.962 3.51401 2.23211 0
M  V30 4245 H 402.495 3.93457 0.586211 0
M  V30 4246 H 399.234 6.47833 -0.999642 0
M  V30 4247 H 398.754 5.9644 0.634013 0
M  V30 4248 H 400.433 6.46258 0.309807 0
M  V30 4249 N 400.565 -0.0233959 1.57583 0
M  V30 4250 C 401.981 -0.379134 1.55031 0
M  V30 4251 C 402.181 -1.76255 0.976548 0
M  V30 4252 O 401.237 -2.45266 0.600078 0
M  V30 4253 C 402.55 -0.275792 2.99433 0
M  V30 4254 C 404.098 -0.352458 3.11009 0
M  V30 4255 C 404.573 -0.278501 4.57152 0
M  V30 4256 N 406.064 -0.337123 4.61972 0
M  V30 4257 C 406.799 -0.302876 5.726 0
M  V30 4258 N 406.295 -0.220589 6.92449 0
M  V30 4259 N 408.088 -0.353023 5.6099 0
M  V30 4260 H 400.239 0.881869 1.93227 0
M  V30 4261 H 402.502 0.335867 0.886509 0
M  V30 4262 H 402.208 0.675108 3.4516 0
M  V30 4263 H 402.082 -1.06721 3.61788 0
M  V30 4264 H 404.469 -1.29379 2.65226 0
M  V30 4265 H 404.55 0.468409 2.51475 0
M  V30 4266 H 404.194 0.659189 5.03604 0
M  V30 4267 H 404.124 -1.11755 5.14605 0
M  V30 4268 H 406.615 -0.403002 3.75745 0
M  V30 4269 H 406.928 -0.199713 7.72542 0
M  V30 4270 H 405.273 -0.186555 6.9475 0
M  V30 4271 H 408.464 -0.415339 4.66254 0
M  V30 4272 H 408.637 -0.322866 6.47195 0
M  V30 4273 N 402.043 -1.548 -0.295768 0
M  V30 4274 C 403.271 -1.78327 -1.04914 0
M  V30 4275 C 403.686 -0.545316 -1.80753 0
M  V30 4276 O 403.043 0.485013 -1.75937 0
M  V30 4277 C 403.094 -2.99418 -2.02561 0
M  V30 4278 O 402.815 -4.18431 -1.29798 0
M  V30 4279 C 404.316 -3.35375 -2.89895 0
M  V30 4280 H 401.536 -0.594618 -0.310918 0
M  V30 4281 H 404.08 -2.01763 -0.333454 0
M  V30 4282 H 402.235 -2.78175 -2.69624 0
M  V30 4283 H 402.649 -4.86736 -1.95419 0
M  V30 4284 H 404.123 -4.23332 -3.54251 0
M  V30 4285 H 404.6 -2.53761 -3.58472 0
M  V30 4286 H 405.206 -3.58796 -2.28355 0
M  V30 4287 N 403.521 0.559213 -1.47345 0
M  V30 4288 C 404.767 1.31843 -1.54095 0
M  V30 4289 C 405.1 1.93149 -0.201726 0
M  V30 4290 O 404.375 1.77759 0.789428 0
M  V30 4291 C 404.658 2.43006 -2.65744 0
M  V30 4292 C 404.511 1.86581 -4.09277 0
M  V30 4293 C 405.83 3.44943 -2.73318 0
M  V30 4294 H 402.949 0.478012 -0.560957 0
M  V30 4295 H 405.591 0.625977 -1.79392 0
M  V30 4296 H 403.741 3.02072 -2.44305 0
M  V30 4297 H 405.413 1.31792 -4.42073 0
M  V30 4298 H 403.656 1.17268 -4.17649 0
M  V30 4299 H 404.327 2.66933 -4.83168 0
M  V30 4300 H 406.803 2.95793 -2.92653 0
M  V30 4301 H 405.679 4.20153 -3.53218 0
M  V30 4302 H 405.94 4.03665 -1.80296 0
M  V30 4303 N 404.999 1.35443 0.805782 0
M  V30 4304 C 405.946 1.28431 1.91766 0
M  V30 4305 C 406.916 0.156102 1.65365 0
M  V30 4306 O 408.101 0.339936 1.87747 0
M  V30 4307 C 405.241 1.06301 3.2832 0
M  V30 4308 C 404.354 2.2805 3.66902 0
M  V30 4309 C 403.489 1.99064 4.92491 0
M  V30 4310 C 402.528 3.16863 5.23703 0
M  V30 4311 N 401.665 2.87647 6.40471 0
M  V30 4312 H 406.505 2.23511 1.97096 0
M  V30 4313 H 404.042 1.11105 0.964054 0
M  V30 4314 H 406 0.915012 4.07042 0
M  V30 4315 H 404.63 0.148822 3.22457 0
M  V30 4316 H 403.682 2.53711 2.83434 0
M  V30 4317 H 404.994 3.1601 3.85927 0
M  V30 4318 H 404.148 1.81099 5.7904 0
M  V30 4319 H 402.887 1.0839 4.75503 0
M  V30 4320 H 401.892 3.35404 4.35642 0
M  V30 4321 H 403.117 4.08339 5.4262 0
M  V30 4322 H 401.063 1.99568 6.24907 0
M  V30 4323 H 400.98 3.69141 6.59751 0
M  V30 4324 H 402.248 2.73226 7.30047 0
M  V30 4325 N 406.477 -1.02803 1.19454 0
M  V30 4326 C 407.41 -2.107 0.876396 0
M  V30 4327 C 408.388 -1.61741 -0.166897 0
M  V30 4328 O 409.572 -1.88451 -0.0430195 0
M  V30 4329 C 406.699 -3.37262 0.311758 0
M  V30 4330 C 405.745 -4.05093 1.33424 0
M  V30 4331 S 406.578 -4.50498 2.89503 0
M  V30 4332 C 407.734 -5.80277 2.34584 0
M  V30 4333 H 407.967 -2.37362 1.79016 0
M  V30 4334 H 405.5 -1.15755 1.02177 0
M  V30 4335 H 407.458 -4.10499 -0.00748752 0
M  V30 4336 H 406.119 -3.08693 -0.58032 0
M  V30 4337 H 405.312 -4.9611 0.888302 0
M  V30 4338 H 404.914 -3.3803 1.60037 0
M  V30 4339 H 407.206 -6.54873 1.73633 0
M  V30 4340 H 408.149 -6.29651 3.23952 0
M  V30 4341 H 408.557 -5.3599 1.77131 0
M  V30 4342 N 407.956 -0.998596 -1.21925 0
M  V30 4343 C 409.184 -0.696286 -1.94832 0
M  V30 4344 C 409.599 0.740032 -1.73692 0
M  V30 4345 O 408.956 1.5 -1.03953 0
M  V30 4346 C 409.007 -0.999833 -3.47398 0
M  V30 4347 O 408.728 -2.37972 -3.67833 0
M  V30 4348 C 410.229 -0.716025 -4.37479 0
M  V30 4349 H 407.449 -0.257111 -0.619786 0
M  V30 4350 H 409.993 -1.33491 -1.54921 0
M  V30 4351 H 408.148 -0.406918 -3.85257 0
M  V30 4352 H 408.562 -2.48338 -4.61983 0
M  V30 4353 H 410.036 -0.978642 -5.43256 0
M  V30 4354 H 410.513 0.349968 -4.37803 0
M  V30 4355 H 411.119 -1.29025 -4.05256 0
M  V30 4356 N 409.434 1.37368 -0.772513 0
M  V30 4357 C 410.681 1.99673 -0.337182 0
M  V30 4358 C 411.009 1.61324 1.0865 0
M  V30 4359 O 410.264 0.851377 1.7621 0
M  V30 4360 C 410.563 3.54817 -0.428876 0
M  V30 4361 C 410.229 4.12936 -1.81092 0
M  V30 4362 C 408.891 4.28523 -2.1891 0
M  V30 4363 C 411.243 4.44801 -2.71664 0
M  V30 4364 C 408.571 4.73277 -3.46735 0
M  V30 4365 C 410.923 4.90981 -3.98899 0
M  V30 4366 C 409.587 5.04773 -4.36761 0
M  V30 4367 H 408.857 0.730656 -0.123384 0
M  V30 4368 H 411.504 1.64124 -0.986686 0
M  V30 4369 H 409.809 3.90618 0.304167 0
M  V30 4370 H 411.506 4.00933 -0.0733334 0
M  V30 4371 H 408.096 4.01233 -1.50699 0
M  V30 4372 H 412.28 4.32344 -2.43706 0
M  V30 4373 H 407.536 4.82142 -3.75964 0
M  V30 4374 H 411.71 5.14603 -4.69208 0
M  V30 4375 H 409.337 5.39211 -5.35868 0
M  V30 4376 N 410.912 0.523116 1.48665 0
M  V30 4377 C 412.161 -0.01544 2.01694 0
M  V30 4378 C 412.474 -1.35975 1.40606 0
M  V30 4379 O 413.68 -1.98627 1.85093 0
M  V30 4380 C 412.136 -0.0779303 3.59816 0
M  V30 4381 C 411.744 1.26107 4.29885 0
M  V30 4382 C 413.488 -0.565678 4.20714 0
M  V30 4383 C 411.395 1.15954 5.79921 0
M  V30 4384 H 410.325 -0.00954163 0.75394 0
M  V30 4385 H 412.976 0.665865 1.70993 0
M  V30 4386 H 411.358 -0.824165 3.87329 0
M  V30 4387 H 412.532 2.02233 4.14051 0
M  V30 4388 H 410.847 1.68401 3.80828 0
M  V30 4389 H 413.444 -0.6595 5.30617 0
M  V30 4390 H 413.787 -1.56984 3.85567 0
M  V30 4391 H 414.32 0.12467 3.97605 0
M  V30 4392 H 411.059 2.13864 6.19631 0
M  V30 4393 H 410.579 0.439529 5.98187 0
M  V30 4394 H 412.258 0.847361 6.41427 0
M  V30 4395 N 412.39 -1.55475 0.257931 0
M  V30 4396 C 413.639 -1.98383 -0.364275 0
M  V30 4397 C 413.952 -1.14952 -1.58258 0
M  V30 4398 O 415.158 -1.47924 -2.27664 0
M  V30 4399 C 413.614 -3.53037 -0.699479 0
M  V30 4400 C 413.222 -4.45223 0.498046 0
M  V30 4401 C 414.966 -4.04575 -1.28526 0
M  V30 4402 C 412.873 -5.91238 0.138383 0
M  V30 4403 H 411.803 -0.740911 -0.13988 0
M  V30 4404 H 414.454 -1.79936 0.359883 0
M  V30 4405 H 412.836 -3.6722 -1.48207 0
M  V30 4406 H 414.01 -4.42803 1.27522 0
M  V30 4407 H 412.325 -4.04226 0.999503 0
M  V30 4408 H 414.922 -5.11196 -1.56788 0
M  V30 4409 H 415.265 -3.5258 -2.21344 0
M  V30 4410 H 415.798 -3.93762 -0.565337 0
M  V30 4411 H 412.537 -6.47294 1.03398 0
M  V30 4412 H 412.057 -5.96768 -0.602374 0
M  V30 4413 H 413.736 -6.46413 -0.27553 0
M  V30 4414 N 413.868 0.0150385 -1.57593 0
M  V30 4415 C 415.114 0.704043 -1.90187 0
M  V30 4416 C 415.447 1.74249 -0.857366 0
M  V30 4417 O 414.722 1.94092 0.125843 0
M  V30 4418 C 415.005 1.36087 -3.33395 0
M  V30 4419 C 414.858 0.334981 -4.48551 0
M  V30 4420 C 416.177 2.29112 -3.7576 0
M  V30 4421 H 413.296 0.254475 -0.691673 0
M  V30 4422 H 415.938 -0.0331678 -1.89971 0
M  V30 4423 H 414.088 1.98922 -3.3371 0
M  V30 4424 H 415.76 -0.292534 -4.60372 0
M  V30 4425 H 414.003 -0.344325 -4.32431 0
M  V30 4426 H 414.674 0.833316 -5.45674 0
M  V30 4427 H 417.15 1.76308 -3.76902 0
M  V30 4428 H 416.026 2.72043 -4.76743 0
M  V30 4429 H 416.287 3.16385 -3.08793 0
M  V30 4430 N 415.346 1.54954 0.287554 0
M  V30 4431 C 416.276 1.89839 1.35954 0
M  V30 4432 C 417.257 0.758675 1.52244 0
M  V30 4433 O 418.442 1.01557 1.65529 0
M  V30 4434 C 415.572 2.15753 2.72154 0
M  V30 4435 C 414.526 3.3159 2.70614 0
M  V30 4436 C 413.852 3.42952 4.10229 0
M  V30 4437 C 415.152 4.68359 2.31165 0
M  V30 4438 H 416.846 2.79625 1.07007 0
M  V30 4439 H 414.392 1.3454 0.513316 0
M  V30 4440 H 416.345 2.38743 3.47246 0
M  V30 4441 H 415.069 1.22752 3.02654 0
M  V30 4442 H 413.728 3.08545 1.97979 0
M  V30 4443 H 413.376 2.47443 4.37928 0
M  V30 4444 H 413.076 4.20826 4.10097 0
M  V30 4445 H 414.6 3.68218 4.87081 0
M  V30 4446 H 416.014 4.9099 2.95976 0
M  V30 4447 H 414.411 5.49044 2.42221 0
M  V30 4448 H 415.481 4.68165 1.26291 0
M  V30 4449 N 416.824 -0.551391 1.4764 0
M  V30 4450 C 417.787 -1.64007 1.60107 0
M  V30 4451 C 418.787 -1.53601 0.47576 0
M  V30 4452 O 419.977 -1.57655 0.740988 0
M  V30 4453 C 417.109 -3.03569 1.55108 0
M  V30 4454 H 418.302 -1.543 2.57161 0
M  V30 4455 H 415.855 -0.771776 1.35917 0
M  V30 4456 H 416.59 -3.18804 0.594519 0
M  V30 4457 H 416.375 -3.12532 2.36783 0
M  V30 4458 H 417.865 -3.82762 1.66982 0
M  V30 4459 N 418.302 -1.35869 -0.798587 0
M  V30 4460 C 419.549 -1.29588 -1.55606 0
M  V30 4461 C 419.877 0.127456 -1.94082 0
M  V30 4462 O 419.132 1.09461 -1.62225 0
M  V30 4463 C 419.431 -2.1556 -2.85077 0
M  V30 4464 C 419.097 -3.6424 -2.65781 0
M  V30 4465 C 417.759 -4.04766 -2.60227 0
M  V30 4466 C 420.111 -4.58547 -2.47758 0
M  V30 4467 C 417.439 -5.37753 -2.34603 0
M  V30 4468 C 419.791 -5.91742 -2.23662 0
M  V30 4469 C 418.455 -6.31402 -2.16534 0
M  V30 4470 H 417.725 -0.474197 -0.569402 0
M  V30 4471 H 420.372 -1.67839 -0.922086 0
M  V30 4472 H 418.677 -1.70216 -3.52893 0
M  V30 4473 H 420.374 -2.08031 -3.42818 0
M  V30 4474 H 416.964 -3.32086 -2.70956 0
M  V30 4475 H 421.148 -4.28117 -2.51056 0
M  V30 4476 H 416.404 -5.67474 -2.2756 0
M  V30 4477 H 420.578 -6.6439 -2.08708 0
M  V30 4478 H 418.205 -7.34381 -1.96441 0
M  V30 4479 N 419.78 1.02168 -1.19998 0
M  V30 4480 C 421.029 1.75091 -1.0013 0
M  V30 4481 C 421.342 1.89923 0.467835 0
M  V30 4482 O 422.548 2.59888 0.785515 0
M  V30 4483 C 421.004 3.14892 -1.74273 0
M  V30 4484 C 420.612 3.0809 -3.25245 0
M  V30 4485 C 422.356 3.9206 -1.62755 0
M  V30 4486 C 420.263 4.42867 -3.91948 0
M  V30 4487 H 419.193 0.656394 -0.37103 0
M  V30 4488 H 421.844 1.14284 -1.43567 0
M  V30 4489 H 420.226 3.7621 -1.2362 0
M  V30 4490 H 421.4 2.5611 -3.83072 0
M  V30 4491 H 419.715 2.44416 -3.3712 0
M  V30 4492 H 422.312 4.91764 -2.09934 0
M  V30 4493 H 422.655 4.12199 -0.582894 0
M  V30 4494 H 423.188 3.37359 -2.10793 0
M  V30 4495 H 419.927 4.27931 -4.96543 0
M  V30 4496 H 419.447 4.94874 -3.3891 0
M  V30 4497 H 421.126 5.11728 -3.95909 0
M  V30 4498 N 421.258 1.00505 1.21394 0
M  V30 4499 C 422.504 0.688793 1.90745 0
M  V30 4500 C 422.837 -0.778486 1.77914 0
M  V30 4501 O 422.112 -1.56433 1.15581 0
M  V30 4502 C 422.395 1.11063 3.42545 0
M  V30 4503 C 422.248 2.63737 3.64367 0
M  V30 4504 C 423.567 0.673059 4.34923 0
M  V30 4505 H 420.686 0.251702 0.692687 0
M  V30 4506 H 423.328 1.25074 1.43026 0
M  V30 4507 H 421.478 0.632508 3.83317 0
M  V30 4508 H 423.15 3.19313 3.32922 0
M  V30 4509 H 421.393 3.05248 3.08231 0
M  V30 4510 H 422.064 2.88305 4.70727 0
M  V30 4511 H 424.54 1.08392 4.01734 0
M  V30 4512 H 423.416 0.996383 5.39781 0
M  V30 4513 H 423.677 -0.425808 4.40045 0
M  V30 4514 N 422.737 -1.36956 0.779787 0
M  V30 4515 C 423.977 -2.01328 0.353043 0
M  V30 4516 C 424.341 -1.60558 -1.05286 0
M  V30 4517 O 425.542 -2.1745 -1.58016 0
M  V30 4518 C 423.813 -3.53874 0.500822 0
M  V30 4519 S 425.372 -4.38506 0.16053 0
M  V30 4520 H 422.19 -0.69799 0.13539 0
M  V30 4521 H 424.792 -1.67016 1.01617 0
M  V30 4522 H 423.496 -3.81034 1.52451 0
M  V30 4523 H 423.027 -3.92994 -0.178574 0
M  V30 4524 H 425.042 -4.85153 -1.04121 0
M  V30 4525 N 424.215 -0.530993 -1.48385 0
M  V30 4526 C 425.461 -0.00538653 -2.03399 0
M  V30 4527 C 425.816 1.31899 -1.40073 0
M  V30 4528 O 425.109 1.83901 -0.537676 0
M  V30 4529 C 425.303 0.172742 -3.56982 0
M  V30 4530 C 425.132 -1.13282 -4.35198 0
M  V30 4531 C 423.902 -1.69296 -4.76096 0
M  V30 4532 C 426.1 -2.04367 -4.71952 0
M  V30 4533 N 424.082 -2.9413 -5.38851 0
M  V30 4534 C 425.453 -3.13777 -5.34737 0
M  V30 4535 C 427.508 -2.04681 -4.53883 0
M  V30 4536 C 426.211 -4.23567 -5.81363 0
M  V30 4537 C 428.237 -3.13466 -5.01491 0
M  V30 4538 C 427.599 -4.21595 -5.64302 0
M  V30 4539 H 423.698 -0.0434945 -0.780789 0
M  V30 4540 H 426.282 -0.712495 -1.81195 0
M  V30 4541 H 424.453 0.848937 -3.79009 0
M  V30 4542 H 426.185 0.698046 -3.98634 0
M  V30 4543 H 422.94 -1.23422 -4.57235 0
M  V30 4544 H 423.364 -3.57689 -5.74794 0
M  V30 4545 H 428.006 -1.22378 -4.04702 0
M  V30 4546 H 425.724 -5.06648 -6.2955 0
M  V30 4547 H 429.31 -3.14765 -4.893 0
M  V30 4548 H 428.19 -5.04384 -6.00472 0
M  V30 4549 N 425.693 1.55336 -0.266172 0
M  V30 4550 C 426.921 2.03801 0.356756 0
M  V30 4551 C 427.336 1.14485 1.50129 0
M  V30 4552 O 426.693 0.163121 1.8177 0
M  V30 4553 C 426.744 3.51455 0.846281 0
M  V30 4554 O 426.465 4.37371 -0.252663 0
M  V30 4555 C 427.966 4.15767 1.53794 0
M  V30 4556 H 425.186 0.665906 0.0825218 0
M  V30 4557 H 427.73 2.00636 -0.39566 0
M  V30 4558 H 425.885 3.55092 1.54881 0
M  V30 4559 H 426.299 5.24358 0.122173 0
M  V30 4560 H 427.773 5.20714 1.83198 0
M  V30 4561 H 428.25 3.63404 2.46646 0
M  V30 4562 H 428.856 4.16107 0.879488 0
M  V30 4563 N 427.171 -0.0066808 1.57599 0
M  V30 4564 C 428.582 -0.550379 1.78403 0
M  V30 4565 C 428.933 -1.74339 0.900014 0
M  V30 4566 O 428.058 -2.16166 0.100713 0
M  V30 4567 C 428.653 -1.00523 3.23544 0
M  V30 4568 C 427.212 -1.49428 3.45468 0
M  V30 4569 C 426.359 -0.442444 2.73748 0
M  V30 4570 H 429.31 0.219508 1.57175 0
M  V30 4571 H 429.331 -1.87157 3.31289 0
M  V30 4572 H 428.843 -0.136735 3.87859 0
M  V30 4573 H 426.944 -2.3839 2.86358 0
M  V30 4574 H 427.057 -1.52635 4.54136 0
M  V30 4575 H 425.421 -0.902578 2.38171 0
M  V30 4576 H 426.204 0.416973 3.40758 0
M  V30 4577 N 428.649 -1.55105 -0.279332 0
M  V30 4578 C 429.896 -1.75412 -1.01177 0
M  V30 4579 C 430.224 -0.551728 -1.86511 0
M  V30 4580 O 429.479 0.465919 -1.90073 0
M  V30 4581 C 429.778 -3.0086 -1.92919 0
M  V30 4582 C 429.444 -4.33689 -1.23387 0
M  V30 4583 C 428.106 -4.69792 -1.04159 0
M  V30 4584 C 430.458 -5.15941 -0.738562 0
M  V30 4585 C 427.786 -5.85707 -0.341166 0
M  V30 4586 C 430.138 -6.32579 -0.0517636 0
M  V30 4587 C 428.802 -6.67326 0.152292 0
M  V30 4588 H 428.072 -0.641879 -0.370233 0
M  V30 4589 H 430.719 -1.89373 -0.284627 0
M  V30 4590 H 429.024 -2.81773 -2.72234 0
M  V30 4591 H 430.721 -3.13768 -2.49701 0
M  V30 4592 H 427.311 -4.05309 -1.39364 0
M  V30 4593 H 431.495 -4.8853 -0.874764 0
M  V30 4594 H 426.751 -6.11157 -0.172287 0
M  V30 4595 H 430.925 -6.9557 0.339828 0
M  V30 4596 H 428.552 -7.56998 0.697014 0
M  V30 4597 N 430.127 0.543554 -1.4793 0
M  V30 4598 C 431.374 1.30008 -1.55255 0
M  V30 4599 C 431.702 1.93245 -0.220612 0
M  V30 4600 O 430.957 1.79141 0.787843 0
M  V30 4601 C 431.256 2.42078 -2.62932 0
M  V30 4602 C 430.922 1.96583 -4.0579 0
M  V30 4603 C 429.584 1.83893 -4.44676 0
M  V30 4604 C 431.936 1.62034 -4.95373 0
M  V30 4605 C 429.264 1.34969 -5.70964 0
M  V30 4606 C 431.616 1.14577 -6.22137 0
M  V30 4607 C 430.28 1.00493 -6.59892 0
M  V30 4608 H 429.55 0.475735 -0.568117 0
M  V30 4609 H 432.197 0.608075 -1.81589 0
M  V30 4610 H 430.502 3.16892 -2.30406 0
M  V30 4611 H 432.199 3.00236 -2.65818 0
M  V30 4612 H 428.789 2.07407 -3.75074 0
M  V30 4613 H 432.973 1.70705 -4.66019 0
M  V30 4614 H 428.229 1.2274 -5.98953 0
M  V30 4615 H 432.403 0.869109 -6.90955 0
M  V30 4616 H 430.03 0.623624 -7.57638 0
M  V30 4617 N 431.605 1.3629 0.791371 0
M  V30 4618 C 432.852 1.30412 1.54916 0
M  V30 4619 C 433.18 -0.117162 1.94147 0
M  V30 4620 O 432.435 -1.08599 1.62803 0
M  V30 4621 C 432.734 2.17068 2.8393 0
M  V30 4622 C 432.4 3.65645 2.63846 0
M  V30 4623 C 431.062 4.0614 2.58077 0
M  V30 4624 C 433.414 4.59855 2.45322 0
M  V30 4625 C 430.742 5.3899 2.31748 0
M  V30 4626 C 433.094 5.9292 2.2052 0
M  V30 4627 C 431.758 6.32542 2.13183 0
M  V30 4628 H 431.028 0.47721 0.566879 0
M  V30 4629 H 433.675 1.68325 0.913172 0
M  V30 4630 H 431.98 1.72085 3.51986 0
M  V30 4631 H 433.677 2.09846 3.4171 0
M  V30 4632 H 430.267 3.33518 2.69191 0
M  V30 4633 H 434.451 4.29443 2.48782 0
M  V30 4634 H 429.707 5.68672 2.24548 0
M  V30 4635 H 433.881 6.65487 2.05182 0
M  V30 4636 H 431.508 7.35412 1.92544 0
M  V30 4637 N 433.083 -1.0153 1.20538 0
M  V30 4638 C 434.329 -1.75408 1.01783 0
M  V30 4639 C 434.662 -1.88943 -0.448814 0
M  V30 4640 O 433.937 -1.4162 -1.33319 0
M  V30 4641 C 434.22 -3.17255 1.70356 0
M  V30 4642 C 434.073 -3.11508 3.24473 0
M  V30 4643 C 435.392 -4.15955 1.43769 0
M  V30 4644 H 432.511 -0.636713 0.371167 0
M  V30 4645 H 435.153 -1.18436 1.4857 0
M  V30 4646 H 433.303 -3.65898 1.30578 0
M  V30 4647 H 434.975 -2.70658 3.73553 0
M  V30 4648 H 433.218 -2.4887 3.55311 0
M  V30 4649 H 433.889 -4.11784 3.67611 0
M  V30 4650 H 436.365 -3.75973 1.7828 0
M  V30 4651 H 435.241 -5.13368 1.94279 0
M  V30 4652 H 435.502 -4.40586 0.365564 0
M  V30 4653 N 434.561 -1.01147 -1.20859 0
M  V30 4654 C 435.493 -0.535546 -2.22855 0
M  V30 4655 C 436.506 0.379323 -1.58319 0
M  V30 4656 O 437.695 0.178489 -1.77605 0
M  V30 4657 C 434.795 0.240962 -3.38042 0
M  V30 4658 C 433.968 -0.674562 -4.32167 0
M  V30 4659 C 433.027 0.053467 -5.26173 0
M  V30 4660 O 432.053 -0.567339 -5.66366 0
M  V30 4661 N 433.255 1.32997 -5.65059 0
M  V30 4662 H 436.02 -1.41268 -2.64317 0
M  V30 4663 H 433.581 -0.888386 -1.35349 0
M  V30 4664 H 435.573 0.737115 -3.97931 0
M  V30 4665 H 434.143 1.01935 -2.95513 0
M  V30 4666 H 433.363 -1.35111 -3.70322 0
M  V30 4667 H 434.651 -1.2974 -4.91981 0
M  V30 4668 H 434.049 1.85536 -5.34409 0
M  V30 4669 H 432.606 1.77095 -6.2728 0
M  V30 4670 N 436.039 1.36541 -0.78704 0
M  V30 4671 C 436.972 2.27831 -0.129765 0
M  V30 4672 C 437.95 1.47105 0.692732 0
M  V30 4673 O 439.134 1.7641 0.664222 0
M  V30 4674 C 436.261 3.28577 0.821883 0
M  V30 4675 C 435.307 4.26422 0.0814771 0
M  V30 4676 S 436.14 5.20919 -1.24112 0
M  V30 4677 C 437.296 6.25212 -0.293409 0
M  V30 4678 H 437.529 2.83229 -0.903811 0
M  V30 4679 H 435.062 1.43046 -0.581144 0
M  V30 4680 H 437.02 3.87123 1.3655 0
M  V30 4681 H 435.681 2.72096 1.56916 0
M  V30 4682 H 434.874 4.97554 0.803485 0
M  V30 4683 H 434.476 3.71944 -0.391589 0
M  V30 4684 H 436.768 6.75435 0.528622 0
M  V30 4685 H 437.711 7.01378 -0.973344 0
M  V30 4686 H 438.119 5.64407 0.102196 0
M  V30 4687 N 437.518 0.538854 1.48102 0
M  V30 4688 C 438.764 0.0161732 2.03394 0
M  V30 4689 C 439.119 -1.31154 1.40771 0
M  V30 4690 O 438.412 -1.83613 0.547421 0
M  V30 4691 C 438.606 -0.153808 3.57069 0
M  V30 4692 C 438.435 1.15588 4.34591 0
M  V30 4693 C 437.205 1.71818 4.75191 0
M  V30 4694 C 439.403 2.06867 4.70861 0
M  V30 4695 N 437.385 2.96983 5.37284 0
M  V30 4696 C 438.756 3.16609 5.33066 0
M  V30 4697 C 440.811 2.07085 4.52791 0
M  V30 4698 C 439.514 4.26645 5.79109 0
M  V30 4699 C 441.54 3.16121 4.99821 0
M  V30 4700 C 440.902 4.24582 5.62058 0
M  V30 4701 H 437.001 0.0476346 0.780548 0
M  V30 4702 H 439.585 0.722094 1.80815 0
M  V30 4703 H 437.756 -0.828825 3.79454 0
M  V30 4704 H 439.488 -0.676896 3.98999 0
M  V30 4705 H 436.243 1.25845 4.56574 0
M  V30 4706 H 436.667 3.60732 5.72889 0
M  V30 4707 H 441.309 1.24522 4.04047 0
M  V30 4708 H 439.027 5.0998 6.26854 0
M  V30 4709 H 442.613 3.17355 4.87624 0
M  V30 4710 H 441.493 5.07562 5.97788 0
M  V30 4711 N 438.996 -1.55193 0.274407 0
M  V30 4712 C 440.221 -2.04446 -0.348824 0
M  V30 4713 C 440.646 -1.15149 -1.48735 0
M  V30 4714 O 440.004 -0.149952 -1.80679 0
M  V30 4715 C 440.052 -3.51431 -0.808009 0
M  V30 4716 O 439.156 -3.65225 -1.91531 0
M  V30 4717 H 438.497 -0.66006 -0.0722276 0
M  V30 4718 H 441.027 -2.00481 0.408498 0
M  V30 4719 H 441.037 -3.92781 -1.10395 0
M  V30 4720 H 439.712 -4.15892 0.0249865 0
M  V30 4721 H 438.289 -3.35778 -1.62196 0
M  V30 4722 N 440.474 -0.00167713 -1.576 0
M  V30 4723 C 441.72 0.683832 -1.90923 0
M  V30 4724 C 442.053 1.7333 -0.875799 0
M  V30 4725 O 441.328 1.94215 0.10525 0
M  V30 4726 C 441.611 1.32543 -3.3482 0
M  V30 4727 C 441.464 0.287387 -4.48881 0
M  V30 4728 C 442.783 2.25114 -3.78169 0
M  V30 4729 H 439.902 0.247125 -0.694333 0
M  V30 4730 H 442.544 -0.0533149 -1.89925 0
M  V30 4731 H 440.694 1.95372 -3.35801 0
M  V30 4732 H 442.366 -0.341346 -4.60035 0
M  V30 4733 H 440.609 -0.39017 -4.32042 0
M  V30 4734 H 441.28 0.775393 -5.46527 0
M  V30 4735 H 443.756 1.723 -3.7875 0
M  V30 4736 H 442.632 2.66971 -4.79602 0
M  V30 4737 H 442.893 3.13092 -3.12131 0
M  V30 4738 N 441.952 1.55251 0.271103 0
M  V30 4739 C 443.198 1.7713 0.999832 0
M  V30 4740 C 443.553 0.56659 1.83868 0
M  V30 4741 O 442.846 -0.44069 1.86463 0
M  V30 4742 C 443.04 3.01879 1.91321 0
M  V30 4743 C 442.869 4.34368 1.16426 0
M  V30 4744 C 441.639 4.97593 0.879169 0
M  V30 4745 C 443.837 5.1131 0.553749 0
M  V30 4746 N 441.819 6.13813 0.103618 0
M  V30 4747 C 443.19 6.19938 -0.0875442 0
M  V30 4748 C 445.245 4.95754 0.461782 0
M  V30 4749 C 443.948 7.14703 -0.811942 0
M  V30 4750 C 445.974 5.90875 -0.249027 0
M  V30 4751 C 445.336 6.98893 -0.879051 0
M  V30 4752 H 441.435 0.700407 0.347784 0
M  V30 4753 H 444.019 1.92744 0.275314 0
M  V30 4754 H 442.19 2.87637 2.60997 0
M  V30 4755 H 443.922 3.12154 2.57569 0
M  V30 4756 H 440.677 4.58538 1.18491 0
M  V30 4757 H 441.101 6.76455 -0.271543 0
M  V30 4758 H 445.743 4.12342 0.934552 0
M  V30 4759 H 443.461 7.97634 -1.29639 0
M  V30 4760 H 447.047 5.80916 -0.320529 0
M  V30 4761 H 445.927 7.71231 -1.42031 0
M  V30 4762 N 443.43 -0.535701 1.48216 0
M  V30 4763 C 444.707 -1.29683 1.46429 0
M  V30 4764 C 445.087 -2.10391 0.172852 0
M  V30 4765 O 444.435 -2.12282 -0.845488 0
M  V30 4766 C 444.645 -2.18313 2.72287 0
M  V30 4767 C 445.993 -2.78639 3.20383 0
M  V30 4768 O 447.017 -2.28604 2.73164 0
M  V30 4769 O 445.876 -3.69636 4.02531 0
M  V30 4770 H 442.97 -0.585026 0.584529 0
M  V30 4771 H 445.516 -0.552827 1.60443 0
M  V30 4772 H 444.288 -1.58421 3.57797 0
M  V30 4773 H 443.911 -2.99971 2.60966 0
M  V30 4774 N 444.908 -1.36708 -0.784132 0
M  V30 4775 C 445.871 -1.31307 -1.87859 0
M  V30 4776 C 446.871 -0.219654 -1.59293 0
M  V30 4777 O 448.061 -0.47476 -1.67606 0
M  V30 4778 C 445.193 -1.03679 -3.24751 0
M  V30 4779 H 446.386 -2.28647 -1.94064 0
M  V30 4780 H 443.939 -1.21558 -0.98252 0
M  V30 4781 H 444.674 -0.0681936 -3.24228 0
M  V30 4782 H 444.459 -1.82811 -3.46876 0
M  V30 4783 H 445.949 -1.02518 -4.04821 0
M  V30 4784 N 446.386 1.0089 -1.21074 0
M  V30 4785 C 447.334 2.11707 -0.963476 0
M  V30 4786 C 448.328 1.69172 0.0879032 0
M  V30 4787 O 449.534 1.79889 -0.0631415 0
M  V30 4788 H 445.909 0.692026 -0.294287 0
M  V30 4789 H 447.88 2.29743 -1.90422 0
M  V30 4790 C 446.629 3.43473 -0.540509 0
M  V30 4791 H 445.952 3.76634 -1.34114 0
M  V30 4792 H 447.392 4.22044 -0.406777 0
M  V30 4793 C 445.851 3.2849 0.748079 0
M  V30 4794 O 446.381 3.58883 1.8046 0
M  V30 4795 N 444.587 2.81715 0.713081 0
M  V30 4796 H 444.134 2.5718 -0.146973 0
M  V30 4797 H 444.092 2.72071 1.57558 0
M  V30 4798 N 447.864 1.01787 1.20321 0
M  V30 4799 C 448.827 0.593972 2.2137 0
M  V30 4800 C 449.827 -0.336553 1.57239 0
M  V30 4801 O 451.017 -0.125069 1.7375 0
M  V30 4802 C 448.149 -0.132433 3.40643 0
M  V30 4803 H 449.342 1.48791 2.60387 0
M  V30 4804 H 446.895 0.807803 1.33807 0
M  V30 4805 H 447.63 -1.04123 3.0713 0
M  V30 4806 H 447.415 0.53605 3.88418 0
M  V30 4807 H 448.905 -0.416314 4.1552 0
M  V30 4808 N 449.342 -1.36122 0.79427 0
M  V30 4809 C 450.753 -1.81646 0.431446 0
M  V30 4810 C 451.104 -1.66043 -1.04518 0
M  V30 4811 O 450.229 -1.1841 -1.8113 0
M  V30 4812 C 450.824 -3.29785 0.776341 0
M  V30 4813 C 449.383 -3.73501 0.466282 0
M  V30 4814 C 448.53 -2.58313 1.00844 0
M  V30 4815 H 451.481 -1.24274 0.986995 0
M  V30 4816 H 451.502 -3.80437 0.0692413 0
M  V30 4817 H 451.014 -3.4111 1.8511 0
M  V30 4818 H 449.115 -3.67733 -0.600245 0
M  V30 4819 H 449.228 -4.68754 0.990288 0
M  V30 4820 H 447.592 -2.5102 0.431406 0
M  V30 4821 H 448.375 -2.72421 2.08906 0
M  V30 4822 N 450.82 -0.546701 -1.47814 0
M  V30 4823 C 451.767 0.206854 -2.29871 0
M  V30 4824 C 452.737 0.918235 -1.38411 0
M  V30 4825 O 453.922 0.915991 -1.67375 0
M  V30 4826 C 451.062 1.23746 -3.22151 0
M  V30 4827 C 450.175 0.533216 -4.28697 0
M  V30 4828 C 449.31 1.5482 -5.08138 0
M  V30 4829 C 448.349 0.828347 -6.06469 0
M  V30 4830 N 447.486 1.78966 -6.78908 0
M  V30 4831 H 452.326 -0.499037 -2.93792 0
M  V30 4832 H 449.863 -0.25793 -1.44821 0
M  V30 4833 H 451.821 1.84746 -3.74065 0
M  V30 4834 H 450.451 1.91151 -2.60117 0
M  V30 4835 H 449.503 -0.191089 -3.7992 0
M  V30 4836 H 450.815 -0.0311987 -4.9879 0
M  V30 4837 H 449.969 2.23202 -5.6415 0
M  V30 4838 H 448.708 2.14652 -4.37922 0
M  V30 4839 H 447.713 0.130539 -5.49645 0
M  V30 4840 H 448.938 0.235907 -6.7869 0
M  V30 4841 H 446.884 2.37675 -6.1143 0
M  V30 4842 H 446.801 1.27712 -7.45135 0
M  V30 4843 H 448.069 2.46496 -7.395 0
M  V30 4844 N 452.299 1.55045 -0.282633 0
M  V30 4845 C 453.209 2.26491 0.61147 0
M  V30 4846 C 454.225 1.29348 1.16384 0
M  V30 4847 O 455.401 1.62298 1.19253 0
M  V30 4848 C 452.466 2.97779 1.77563 0
M  V30 4849 C 451.527 4.10418 1.25919 0
M  V30 4850 C 450.76 4.78297 2.36786 0
M  V30 4851 O 450.983 4.45426 3.56303 0
M  V30 4852 O 449.917 5.66089 2.04517 0
M  V30 4853 H 453.743 3.03683 0.0324615 0
M  V30 4854 H 451.328 1.49317 -0.0497576 0
M  V30 4855 H 453.21 3.42554 2.45427 0
M  V30 4856 H 451.885 2.23498 2.34159 0
M  V30 4857 H 450.792 3.70082 0.546797 0
M  V30 4858 H 452.125 4.86622 0.738887 0
M  V30 4859 N 453.777 0.010035 1.57597 0
M  V30 4860 C 454.74 -0.963029 2.07986 0
M  V30 4861 C 455.74 -1.26619 0.991173 0
M  V30 4862 O 456.93 -1.2097 1.25347 0
M  V30 4863 C 454.062 -2.2851 2.52974 0
M  V30 4864 H 455.255 -0.526971 2.95234 0
M  V30 4865 H 452.808 -0.237639 1.54483 0
M  V30 4866 H 453.543 -2.76784 1.69 0
M  V30 4867 H 453.328 -2.07824 3.32493 0
M  V30 4868 H 454.818 -2.98294 2.9225 0
M  V30 4869 N 455.255 -1.55392 -0.262866 0
M  V30 4870 C 456.48 -1.80847 -1.01533 0
M  V30 4871 C 456.905 -0.584946 -1.78774 0
M  V30 4872 O 456.263 0.465701 -1.75217 0
M  V30 4873 C 456.311 -3.03866 -1.94159 0
M  V30 4874 O 455.415 -2.79662 -3.03089 0
M  V30 4875 H 454.756 -0.597441 -0.289759 0
M  V30 4876 H 457.286 -2.02553 -0.288698 0
M  V30 4877 H 457.296 -3.32872 -2.35924 0
M  V30 4878 H 455.971 -3.92564 -1.37354 0
M  V30 4879 H 454.548 -2.61781 -2.65566 0
M  V30 4880 N 456.733 0.527833 -1.48498 0
M  V30 4881 C 457.696 1.61439 -1.62696 0
M  V30 4882 C 458.696 1.52824 -0.500136 0
M  V30 4883 O 459.886 1.56456 -0.765976 0
M  V30 4884 C 457.018 3.01063 -1.59918 0
M  V30 4885 H 458.211 1.50189 -2.59583 0
M  V30 4886 H 455.764 0.750055 -1.37127 0
M  V30 4887 H 456.499 3.17818 -0.645163 0
M  V30 4888 H 456.284 3.08725 -2.41726 0
M  V30 4889 H 457.774 3.80057 -1.73051 0
M  V30 4890 N 458.211 1.37122 0.776871 0
M  V30 4891 C 459.458 1.32047 1.53524 0
M  V30 4892 C 459.786 -0.0965631 1.9426 0
M  V30 4893 O 459.041 -1.06866 1.63945 0
M  V30 4894 C 459.34 2.20068 2.81611 0
M  V30 4895 C 459.006 3.68423 2.59953 0
M  V30 4896 C 457.668 4.08854 2.53755 0
M  V30 4897 C 460.02 4.62431 2.40431 0
M  V30 4898 C 457.348 5.41417 2.26018 0
M  V30 4899 C 459.7 5.95225 2.14219 0
M  V30 4900 C 458.364 6.34767 2.06462 0
M  V30 4901 H 457.634 0.483196 0.561785 0
M  V30 4902 H 460.281 1.69284 0.895268 0
M  V30 4903 H 458.586 1.75809 3.50141 0
M  V30 4904 H 460.283 2.13458 3.39465 0
M  V30 4905 H 456.873 3.36354 2.65638 0
M  V30 4906 H 461.057 4.32057 2.44213 0
M  V30 4907 H 456.313 5.71022 2.18504 0
M  V30 4908 H 460.487 6.67626 1.98112 0
M  V30 4909 H 458.114 7.37413 1.84733 0
M  V30 4910 N 459.689 -1.00246 1.21608 0
M  V30 4911 C 460.938 -1.73476 1.02902 0
M  V30 4912 C 461.251 -1.90643 -0.437561 0
M  V30 4913 O 462.457 -2.61105 -0.74407 0
M  V30 4914 C 460.913 -3.12079 1.79261 0
M  V30 4915 C 460.521 -3.02877 3.30106 0
M  V30 4916 C 462.265 -3.89421 1.68972 0
M  V30 4917 C 460.172 -4.36575 3.98944 0
M  V30 4918 H 459.102 -0.650408 0.381425 0
M  V30 4919 H 461.753 -1.11985 1.45367 0
M  V30 4920 H 460.135 -3.74196 1.2959 0
M  V30 4921 H 461.309 -2.49983 3.87098 0
M  V30 4922 H 459.624 -2.39022 3.40965 0
M  V30 4923 H 462.221 -4.88362 2.17731 0
M  V30 4924 H 462.564 -4.1122 0.648397 0
M  V30 4925 H 463.097 -3.33963 2.16133 0
M  V30 4926 H 459.836 -4.19978 5.03288 0
M  V30 4927 H 459.356 -4.8942 3.4674 0
M  V30 4928 H 461.035 -5.05364 4.04 0
M  V30 4929 N 461.167 -1.02423 -1.1978 0
M  V30 4930 C 462.416 -0.713265 -1.88667 0
M  V30 4931 C 462.729 0.7609 -1.80193 0
M  V30 4932 O 463.935 1.18473 -2.44288 0
M  V30 4933 C 462.391 -1.22545 -3.38394 0
M  V30 4934 C 461.999 -2.72706 -3.55437 0
M  V30 4935 C 463.743 -0.990257 -4.12788 0
M  V30 4936 C 461.65 -3.17367 -4.99031 0
M  V30 4937 H 460.58 -0.263105 -0.706606 0
M  V30 4938 H 463.231 -1.23792 -1.35454 0
M  V30 4939 H 461.613 -0.628732 -3.90977 0
M  V30 4940 H 462.787 -3.37993 -3.13205 0
M  V30 4941 H 461.102 -2.94453 -2.94425 0
M  V30 4942 H 463.699 -1.29926 -5.18675 0
M  V30 4943 H 464.042 0.0730761 -4.16236 0
M  V30 4944 H 464.575 -1.55074 -3.66329 0
M  V30 4945 H 461.314 -4.23009 -5.00743 0
M  V30 4946 H 460.834 -2.56805 -5.42044 0
M  V30 4947 H 462.513 -3.10441 -5.67658 0
M  V30 4948 N 462.645 1.35699 -0.801477 0
M  V30 4949 C 463.891 1.99208 -0.380022 0
M  V30 4950 C 464.224 1.63445 1.04878 0
M  V30 4951 O 463.499 0.895223 1.72673 0
M  V30 4952 C 463.782 3.55755 -0.557708 0
M  V30 4953 C 463.635 4.01332 -2.03107 0
M  V30 4954 C 464.954 4.40096 0.0197968 0
M  V30 4955 H 462.073 0.723667 -0.139552 0
M  V30 4956 H 464.715 1.60928 -1.01006 0
M  V30 4957 H 462.865 3.88494 -0.0213741 0
M  V30 4958 H 464.537 3.79026 -2.62939 0
M  V30 4959 H 462.78 3.52429 -2.52936 0
M  V30 4960 H 463.451 5.10234 -2.1063 0
M  V30 4961 H 465.927 4.13786 -0.438179 0
M  V30 4962 H 464.803 5.48735 -0.134477 0
M  V30 4963 H 465.064 4.2786 1.11303 0
M  V30 4964 N 464.123 0.554532 1.47522 0
M  V30 4965 C 465.056 -0.242442 2.26908 0
M  V30 4966 C 466.034 -0.922722 1.33883 0
M  V30 4967 O 467.218 -0.942244 1.63261 0
M  V30 4968 C 464.345 -1.34525 3.10839 0
M  V30 4969 C 463.391 -0.773805 4.19422 0
M  V30 4970 S 464.224 0.377525 5.34168 0
M  V30 4971 C 465.38 -0.727164 6.21662 0
M  V30 4972 H 465.613 0.431218 2.94156 0
M  V30 4973 H 463.146 0.3408 1.50592 0
M  V30 4974 H 465.104 -1.97683 3.59766 0
M  V30 4975 H 463.765 -1.99073 2.42958 0
M  V30 4976 H 462.958 -1.60187 4.77866 0
M  V30 4977 H 462.56 -0.218448 3.73361 0
M  V30 4978 H 464.852 -1.61992 6.57849 0
M  V30 4979 H 465.795 -0.180135 7.07871 0
M  V30 4980 H 466.203 -1.01863 5.55233 0
M  V30 4981 N 465.601 -1.54893 0.290851 0
M  V30 4982 C 466.531 -2.26103 -0.583084 0
M  V30 4983 C 467.512 -1.25684 -1.14619 0
M  V30 4984 O 468.697 -1.54436 -1.17741 0
M  V30 4985 C 465.827 -2.99409 -1.75987 0
M  V30 4986 C 464.781 -4.0689 -1.32758 0
M  V30 4987 C 464.107 -4.67856 -2.58872 0
M  V30 4988 C 465.407 -5.20215 -0.46624 0
M  V30 4989 H 467.101 -2.99398 0.0108214 0
M  V30 4990 H 464.647 -1.43998 0.00664468 0
M  V30 4991 H 466.6 -3.47943 -2.37727 0
M  V30 4992 H 465.324 -2.23675 -2.37985 0
M  V30 4993 H 463.983 -3.59191 -0.733299 0
M  V30 4994 H 463.631 -3.88772 -3.19163 0
M  V30 4995 H 463.331 -5.40438 -2.30653 0
M  V30 4996 H 464.855 -5.19147 -3.21433 0
M  V30 4997 H 466.269 -5.64704 -0.989047 0
M  V30 4998 H 464.666 -5.99455 -0.27826 0
M  V30 4999 H 465.736 -4.82198 0.511173 0
M  V30 5000 N 467.08 -0.0183926 -1.57589 0
M  V30 5001 C 468.01 0.965596 -2.12599 0
M  V30 5002 C 468.991 1.34641 -1.0395 0
M  V30 5003 O 470.176 1.42693 -1.31729 0
M  V30 5004 C 467.306 2.25149 -2.64434 0
M  V30 5005 C 466.26 2.01175 -3.77773 0
M  V30 5006 C 465.586 3.35937 -4.15994 0
M  V30 5007 C 466.886 1.35953 -5.04296 0
M  V30 5008 H 468.58 0.507504 -2.95067 0
M  V30 5009 H 466.126 0.242671 -1.41941 0
M  V30 5010 H 468.079 2.94357 -3.01549 0
M  V30 5011 H 466.803 2.73105 -1.79112 0
M  V30 5012 H 465.462 1.34388 -3.4108 0
M  V30 5013 H 465.11 3.81631 -3.27669 0
M  V30 5014 H 464.81 3.20705 -4.92364 0
M  V30 5015 H 466.334 4.0643 -4.55683 0
M  V30 5016 H 467.748 1.95144 -5.39065 0
M  V30 5017 H 466.145 1.31152 -5.85593 0
M  V30 5018 H 467.215 0.331071 -4.83768 0
M  V30 5019 N 468.558 1.5553 0.254621 0
M  V30 5020 C 469.521 1.88872 1.29846 0
M  V30 5021 C 470.521 0.764591 1.41459 0
M  V30 5022 O 471.711 1.03265 1.40293 0
M  V30 5023 C 468.843 2.11032 2.67728 0
M  V30 5024 H 470.036 2.82201 1.01502 0
M  V30 5025 H 467.589 1.48303 0.493556 0
M  V30 5026 H 468.324 1.20146 3.01223 0
M  V30 5027 H 468.109 2.92895 2.60682 0
M  V30 5028 H 469.599 2.38038 3.43115 0
M  V30 5029 N 470.036 -0.519951 1.48776 0
M  V30 5030 C 471.261 -1.30447 1.6124 0
M  V30 5031 C 471.686 -1.86055 0.276591 0
M  V30 5032 O 471.044 -1.64915 -0.753183 0
M  V30 5033 C 471.092 -2.42406 2.66967 0
M  V30 5034 O 470.196 -3.45728 2.24824 0
M  V30 5035 H 469.537 -0.385924 0.540332 0
M  V30 5036 H 472.067 -0.624572 1.94834 0
M  V30 5037 H 472.077 -2.88447 2.88552 0
M  V30 5038 H 470.752 -2.01294 3.63941 0
M  V30 5039 H 469.329 -3.05737 2.13494 0
M  V30 5040 N 471.514 -1.37532 -0.769588 0
M  V30 5041 C 472.444 -1.36172 -1.89682 0
M  V30 5042 C 473.425 -0.23001 -1.68538 0
M  V30 5043 O 474.61 -0.43069 -1.89364 0
M  V30 5044 C 471.74 -1.1701 -3.26995 0
M  V30 5045 C 470.694 -2.27216 -3.62708 0
M  V30 5046 C 470.02 -1.93174 -4.98586 0
M  V30 5047 C 471.32 -3.6941 -3.69234 0
M  V30 5048 H 473.014 -2.30499 -1.91078 0
M  V30 5049 H 470.56 -1.10953 -0.917902 0
M  V30 5050 H 472.513 -1.14688 -4.05493 0
M  V30 5051 H 471.237 -0.191395 -3.26039 0
M  V30 5052 H 469.896 -2.28697 -2.86519 0
M  V30 5053 H 469.544 -0.938281 -4.94171 0
M  V30 5054 H 469.244 -2.66973 -5.23449 0
M  V30 5055 H 470.768 -1.92443 -5.79481 0
M  V30 5056 H 472.182 -3.70047 -4.37879 0
M  V30 5057 H 470.579 -4.4228 -4.05597 0
M  V30 5058 H 471.649 -4.0288 -2.69844 0
M  V30 5059 N 472.992 0.995999 -1.22138 0
M  V30 5060 C 473.94 2.10673 -0.985876 0
M  V30 5061 C 474.934 1.69255 0.0699553 0
M  V30 5062 O 476.14 1.79812 -0.0822176 0
M  V30 5063 H 472.515 0.688865 -0.30161 0
M  V30 5064 H 474.486 2.27711 -1.92848 0
M  V30 5065 C 473.235 3.42881 -0.576909 0
M  V30 5066 H 472.558 3.75191 -1.38101 0
M  V30 5067 H 473.998 4.21589 -0.451518 0
M  V30 5068 C 472.457 3.29265 0.713196 0
M  V30 5069 O 472.987 3.60777 1.76643 0
M  V30 5070 N 471.193 2.82456 0.683162 0
M  V30 5071 H 470.74 2.5701 -0.174242 0
M  V30 5072 H 470.698 2.73727 1.54663 0
M  V30 5073 N 474.47 1.03057 1.19235 0
M  V30 5074 C 475.695 0.74757 1.93458 0
M  V30 5075 C 476.12 -0.687648 1.7508 0
M  V30 5076 O 475.478 -1.47499 1.05422 0
M  V30 5077 C 475.526 1.10604 3.43219 0
M  V30 5078 O 474.63 0.225671 4.11782 0
M  V30 5079 H 473.971 0.276047 0.603899 0
M  V30 5080 H 476.501 1.3777 1.51263 0
M  V30 5081 H 476.511 1.06366 3.93891 0
M  V30 5082 H 475.186 2.15165 3.55917 0
M  V30 5083 H 473.763 0.326795 3.71465 0
M  V30 5084 N 475.948 -1.35272 0.808662 0
M  V30 5085 C 477.188 -2.00534 0.395668 0
M  V30 5086 C 477.552 -1.62755 -1.01857 0
M  V30 5087 O 478.753 -2.20752 -1.53368 0
M  V30 5088 C 477.024 -3.52732 0.575771 0
M  V30 5089 S 478.583 -4.38067 0.253507 0
M  V30 5090 H 475.401 -0.694962 0.150165 0
M  V30 5091 H 478.003 -1.64823 1.05137 0
M  V30 5092 H 476.707 -3.77714 1.60499 0
M  V30 5093 H 476.238 -3.93285 -0.0951739 0
M  V30 5094 H 478.253 -4.87252 -0.938068 0
M  V30 5095 N 477.426 -0.562348 -1.47226 0
M  V30 5096 C 478.666 -0.0426374 -2.04356 0
M  V30 5097 C 479.03 1.28487 -1.42671 0
M  V30 5098 O 480.231 1.89259 -1.90878 0
M  V30 5099 C 478.502 0.0433826 -3.57374 0
M  V30 5100 S 480.061 0.508472 -4.35844 0
M  V30 5101 H 476.879 -0.0276234 -0.710463 0
M  V30 5102 H 479.481 -0.750245 -1.80531 0
M  V30 5103 H 478.185 -0.927072 -3.99792 0
M  V30 5104 H 477.716 0.774387 -3.85703 0
M  V30 5105 H 479.731 1.76719 -4.63665 0
M  V30 5106 N 478.904 1.54736 -0.299062 0
M  V30 5107 C 479.852 2.24897 0.593658 0
M  V30 5108 C 480.846 1.25429 1.13859 0
M  V30 5109 O 482.052 1.43286 1.08945 0
M  V30 5110 H 478.427 0.72207 0.210046 0
M  V30 5111 H 480.398 2.98393 -0.0206421 0
M  V30 5112 C 479.147 3.00159 1.75499 0
M  V30 5113 H 478.47 3.76501 1.34489 0
M  V30 5114 H 479.91 3.52535 2.35574 0
M  V30 5115 C 478.369 2.07015 2.65794 0
M  V30 5116 O 478.899 1.63692 3.66835 0
M  V30 5117 N 477.105 1.73012 2.33485 0
M  V30 5118 H 476.652 2.08439 1.51364 0
M  V30 5119 H 476.61 1.10965 2.94167 0
M  V30 5120 N 480.382 0.0267497 1.57577 0
M  V30 5121 C 481.793 -0.512413 1.79531 0
M  V30 5122 C 482.144 -1.72391 0.936791 0
M  V30 5123 O 481.269 -2.15903 0.146543 0
M  V30 5124 C 481.864 -0.936378 3.25603 0
M  V30 5125 C 480.423 -1.42067 3.4856 0
M  V30 5126 C 479.57 -0.384278 2.74624 0
M  V30 5127 H 482.521 0.252797 1.56674 0
M  V30 5128 H 482.542 -1.80088 3.35184 0
M  V30 5129 H 482.054 -0.0544332 3.88062 0
M  V30 5130 H 480.155 -2.32262 2.9135 0
M  V30 5131 H 480.268 -1.42968 4.57271 0
M  V30 5132 H 478.632 -0.851855 2.40032 0
M  V30 5133 H 479.415 0.489159 3.39797 0
M  V30 5134 N 481.861 -1.55662 -0.24637 0
M  V30 5135 C 483.107 -1.78698 -0.971525 0
M  V30 5136 C 483.462 -0.59577 -1.82944 0
M  V30 5137 O 482.755 0.41097 -1.87141 0
M  V30 5138 C 482.949 -3.04885 -1.86494 0
M  V30 5139 C 482.778 -4.36165 -1.09501 0
M  V30 5140 C 481.548 -4.98929 -0.799895 0
M  V30 5141 C 483.746 -5.12126 -0.472334 0
M  V30 5142 N 481.728 -6.139 -0.00595299 0
M  V30 5143 C 483.099 -6.1972 0.18616 0
M  V30 5144 C 485.154 -4.96426 -0.382854 0
M  V30 5145 C 483.857 -7.13321 0.925542 0
M  V30 5146 C 485.883 -5.90405 0.342999 0
M  V30 5147 C 485.245 -6.97407 0.990128 0
M  V30 5148 H 481.344 -0.705852 -0.336597 0
M  V30 5149 H 483.928 -1.93157 -0.244615 0
M  V30 5150 H 482.099 -2.91753 -2.56388 0
M  V30 5151 H 483.831 -3.16212 -2.5257 0
M  V30 5152 H 480.586 -4.60365 -1.11181 0
M  V30 5153 H 481.01 -6.75938 0.379127 0
M  V30 5154 H 485.652 -4.13777 -0.868834 0
M  V30 5155 H 483.37 -7.9547 1.42312 0
M  V30 5156 H 486.956 -5.80333 0.412907 0
M  V30 5157 H 485.836 -7.68874 1.54282 0
M  V30 5158 N 483.339 0.512053 -1.4905 0
M  V30 5159 C 484.588 1.26343 -1.57227 0
M  V30 5160 C 484.901 1.93876 -0.259155 0
M  V30 5161 O 486.107 2.70612 -0.219358 0
M  V30 5162 C 484.563 2.29343 -2.77362 0
M  V30 5163 C 484.171 1.67799 -4.15388 0
M  V30 5164 C 485.915 3.05378 -2.94864 0
M  V30 5165 C 483.822 2.68845 -5.2676 0
M  V30 5166 H 482.752 0.475231 -0.585382 0
M  V30 5167 H 485.403 0.53862 -1.75417 0
M  V30 5168 H 483.785 3.04938 -2.52643 0
M  V30 5169 H 484.959 0.982715 -4.50199 0
M  V30 5170 H 483.274 1.04194 -4.03153 0
M  V30 5171 H 485.871 3.80921 -3.75238 0
M  V30 5172 H 486.214 3.62327 -2.05 0
M  V30 5173 H 486.747 2.36898 -3.19569 0
M  V30 5174 H 483.486 2.16692 -6.18647 0
M  V30 5175 H 483.006 3.36647 -4.96416 0
M  V30 5176 H 484.685 3.31487 -5.5563 0
M  V30 5177 N 484.817 1.37938 0.762283 0
M  V30 5178 C 486.047 1.36685 1.54922 0
M  V30 5179 C 486.455 -0.0474099 1.89141 0
M  V30 5180 O 485.798 -1.02213 1.52638 0
M  V30 5181 C 485.86 2.14963 2.88152 0
M  V30 5182 C 485.524 3.6385 2.76518 0
M  V30 5183 C 486.521 4.57531 2.46904 0
M  V30 5184 C 484.206 4.07095 2.94243 0
M  V30 5185 C 486.2 5.92436 2.35156 0
M  V30 5186 C 483.887 5.42083 2.82116 0
M  V30 5187 C 484.885 6.34567 2.52614 0
M  V30 5188 O 484.573 7.67073 2.40529 0
M  V30 5189 H 484.305 0.469586 0.486276 0
M  V30 5190 H 486.859 1.82012 0.951876 0
M  V30 5191 H 485.089 1.6434 3.50042 0
M  V30 5192 H 486.778 2.06224 3.49609 0
M  V30 5193 H 487.544 4.25428 2.32886 0
M  V30 5194 H 483.423 3.35462 3.16206 0
M  V30 5195 H 486.967 6.64591 2.12049 0
M  V30 5196 H 482.864 5.73785 2.95704 0
M  V30 5197 H 483.632 7.77499 2.55807 0
M  V30 5198 N 486.295 -0.989507 1.22664 0
M  V30 5199 C 487.228 -2.07805 0.942985 0
M  V30 5200 C 488.206 -1.6219 -0.115356 0
M  V30 5201 O 489.39 -1.88492 0.0169565 0
M  V30 5202 C 486.517 -3.361 0.418898 0
M  V30 5203 C 485.563 -4.00643 1.46244 0
M  V30 5204 S 486.396 -4.41059 3.03689 0
M  V30 5205 C 487.552 -5.7252 2.52927 0
M  V30 5206 H 487.785 -2.31547 1.86476 0
M  V30 5207 H 485.318 -1.12446 1.05808 0
M  V30 5208 H 487.276 -4.10315 0.123114 0
M  V30 5209 H 485.937 -3.10383 -0.481818 0
M  V30 5210 H 485.13 -4.93033 1.04569 0
M  V30 5211 H 484.732 -3.32767 1.7071 0
M  V30 5212 H 487.024 -6.49017 1.94379 0
M  V30 5213 H 487.967 -6.19026 3.4382 0
M  V30 5214 H 488.375 -5.30083 1.94094 0
M  V30 5215 N 487.773 -1.03688 -1.18687 0
M  V30 5216 C 488.703 -0.645407 -2.24403 0
M  V30 5217 C 489.684 0.349511 -1.66471 0
M  V30 5218 O 490.869 0.230453 -1.92828 0
M  V30 5219 C 487.999 -0.00365337 -3.473 0
M  V30 5220 C 486.953 -0.921705 -4.17958 0
M  V30 5221 C 486.279 -0.144629 -5.34504 0
M  V30 5222 C 487.579 -2.23909 -4.71871 0
M  V30 5223 H 489.273 -1.52917 -2.57404 0
M  V30 5224 H 486.819 -0.736711 -1.23728 0
M  V30 5225 H 488.772 0.281908 -4.20456 0
M  V30 5226 H 487.496 0.914963 -3.13522 0
M  V30 5227 H 486.155 -1.19159 -3.46694 0
M  V30 5228 H 485.803 0.776274 -4.96974 0
M  V30 5229 H 485.503 -0.756206 -5.82714 0
M  V30 5230 H 487.027 0.134004 -6.10453 0
M  V30 5231 H 488.441 -2.0145 -5.36741 0
M  V30 5232 H 486.838 -2.8033 -5.30599 0
M  V30 5233 H 487.908 -2.88822 -3.895 0
M  V30 5234 N 489.251 1.34841 -0.815825 0
M  V30 5235 C 490.498 1.98499 -0.400535 0
M  V30 5236 C 490.826 1.64699 1.03463 0
M  V30 5237 O 490.081 0.907006 1.73412 0
M  V30 5238 C 490.38 3.53273 -0.541541 0
M  V30 5239 C 490.046 4.06966 -1.94138 0
M  V30 5240 C 488.708 4.21341 -2.32433 0
M  V30 5241 C 491.06 4.35933 -2.85677 0
M  V30 5242 C 488.388 4.62007 -3.61617 0
M  V30 5243 C 490.74 4.78042 -4.14317 0
M  V30 5244 C 489.404 4.90622 -4.52599 0
M  V30 5245 H 488.674 0.72636 -0.146566 0
M  V30 5246 H 491.321 1.60902 -1.0384 0
M  V30 5247 H 489.626 3.91387 0.179741 0
M  V30 5248 H 491.323 4.00497 -0.20085 0
M  V30 5249 H 487.913 3.96235 -1.63388 0
M  V30 5250 H 492.097 4.24372 -2.57337 0
M  V30 5251 H 487.353 4.69937 -3.91113 0
M  V30 5252 H 491.527 4.99415 -4.85342 0
M  V30 5253 H 489.154 5.2189 -5.52752 0
M  V30 5254 N 490.729 0.570148 1.46925 0
M  V30 5255 C 491.957 0.0561966 2.06824 0
M  V30 5256 C 492.372 -1.24326 1.42086 0
M  V30 5257 O 491.729 -1.74882 0.521794 0
M  V30 5258 C 491.78 -0.129517 3.61268 0
M  V30 5259 O 491.501 1.1185 4.23581 0
M  V30 5260 C 493.002 -0.679266 4.38065 0
M  V30 5261 H 490.222 0.0517261 0.669003 0
M  V30 5262 H 492.766 0.787243 1.8874 0
M  V30 5263 H 490.921 -0.810739 3.78822 0
M  V30 5264 H 491.335 0.924375 5.1629 0
M  V30 5265 H 492.809 -0.758445 5.46765 0
M  V30 5266 H 493.286 -1.69346 4.05239 0
M  V30 5267 H 493.892 -0.0333237 4.25287 0
M  V30 5268 N 492.207 -1.54576 0.307264 0
M  V30 5269 C 493.455 -1.99867 -0.299574 0
M  V30 5270 C 493.776 -1.19714 -1.53927 0
M  V30 5271 O 493.046 -0.29472 -1.9367 0
M  V30 5272 H 491.626 -0.738299 -0.113683 0
M  V30 5273 H 494.288 -1.9032 0.420042 0
M  V30 5274 H 493.384 -3.06901 -0.567283 0
M  V30 5275 N 493.685 -0.035106 -1.57561 0
M  V30 5276 C 494.635 0.954034 -2.0708 0
M  V30 5277 C 495.619 1.2818 -0.972558 0
M  V30 5278 O 496.811 1.26691 -1.23606 0
M  V30 5279 C 493.94 2.23442 -2.60631 0
M  V30 5280 C 493.026 1.93475 -3.77396 0
M  V30 5281 N 493.417 1.33802 -4.87781 0
M  V30 5282 C 491.715 2.23434 -3.85996 0
M  V30 5283 C 492.416 1.21103 -5.68954 0
M  V30 5284 N 491.392 1.70855 -5.16052 0
M  V30 5285 H 495.194 0.487731 -2.89825 0
M  V30 5286 H 492.708 0.169759 -1.6151 0
M  V30 5287 H 494.705 2.95183 -2.94402 0
M  V30 5288 H 493.365 2.70693 -1.79319 0
M  V30 5289 H 494.376 1.01227 -5.07911 0
M  V30 5290 H 491.053 2.73317 -3.15601 0
M  V30 5291 H 492.443 0.749105 -6.67711 0
M  V30 5292 N 495.163 1.55791 0.238111 0
M  V30 5293 C 496.093 1.94068 1.29846 0
M  V30 5294 C 497.074 0.806726 1.49753 0
M  V30 5295 O 498.259 1.06772 1.62214 0
M  V30 5296 C 495.389 2.24302 2.65153 0
M  V30 5297 C 494.343 3.40032 2.59927 0
M  V30 5298 C 493.669 3.55829 3.99111 0
M  V30 5299 C 494.969 4.75476 2.16148 0
M  V30 5300 H 496.663 2.82887 0.980563 0
M  V30 5301 H 494.209 1.36105 0.470253 0
M  V30 5302 H 496.162 2.4967 3.39475 0
M  V30 5303 H 494.886 1.32318 2.98596 0
M  V30 5304 H 493.545 3.14687 1.88063 0
M  V30 5305 H 493.193 2.6125 4.29834 0
M  V30 5306 H 492.893 4.3366 3.96501 0
M  V30 5307 H 494.417 3.83528 4.7512 0
M  V30 5308 H 495.831 5.00158 2.80205 0
M  V30 5309 H 494.228 5.56472 2.24631 0
M  V30 5310 H 495.298 4.71946 1.11333 0
M  V30 5311 N 496.642 -0.504142 1.49319 0
M  V30 5312 C 497.889 -1.25846 1.58647 0
M  V30 5313 C 498.217 -1.92592 0.27177 0
M  V30 5314 O 497.472 -1.81167 -0.74007 0
M  V30 5315 C 497.771 -2.35021 2.69258 0
M  V30 5316 C 497.437 -1.85755 4.1086 0
M  V30 5317 C 496.099 -1.72038 4.49395 0
M  V30 5318 C 498.451 -1.48844 4.99495 0
M  V30 5319 C 495.779 -1.19783 5.74342 0
M  V30 5320 C 498.131 -0.980422 6.24956 0
M  V30 5321 C 496.795 -0.829622 6.62324 0
M  V30 5322 H 496.065 -0.460505 0.580531 0
M  V30 5323 H 498.712 -0.559716 1.83138 0
M  V30 5324 H 497.017 -3.10672 2.38726 0
M  V30 5325 H 498.714 -2.93083 2.73685 0
M  V30 5326 H 495.304 -1.9739 3.80441 0
M  V30 5327 H 499.488 -1.5829 4.70381 0
M  V30 5328 H 494.744 -1.06817 6.01997 0
M  V30 5329 H 498.918 -0.685608 6.93017 0
M  V30 5330 H 496.545 -0.42253 7.59025 0
M  V30 5331 N 498.12 -1.38341 -0.754957 0
M  V30 5332 C 499.07 -1.31964 -1.85929 0
M  V30 5333 C 500.054 -0.204181 -1.59599 0
M  V30 5334 O 501.246 -0.440036 -1.71443 0
M  V30 5335 C 498.375 -1.14565 -3.2362 0
M  V30 5336 C 497.461 -2.30727 -3.55846 0
M  V30 5337 N 497.852 -3.56165 -3.59138 0
M  V30 5338 C 496.15 -2.23249 -3.86104 0
M  V30 5339 C 496.851 -4.32865 -3.88591 0
M  V30 5340 N 495.827 -3.62203 -4.05351 0
M  V30 5341 H 499.629 -2.2694 -1.8675 0
M  V30 5342 H 497.143 -1.31553 -0.952243 0
M  V30 5343 H 499.14 -1.0808 -4.02647 0
M  V30 5344 H 497.8 -0.205212 -3.24051 0
M  V30 5345 H 498.811 -3.89854 -3.40932 0
M  V30 5346 H 495.488 -1.37357 -3.94258 0
M  V30 5347 H 496.878 -5.41504 -3.97773 0
M  V30 5348 N 499.598 0.982988 -1.23187 0
M  V30 5349 C 500.508 2.10907 -1.02739 0
M  V30 5350 C 501.524 1.73979 0.0273188 0
M  V30 5351 O 502.7 2.00702 -0.16757 0
M  V30 5352 C 499.765 3.41142 -0.618304 0
M  V30 5353 C 498.826 3.92112 -1.74777 0
M  V30 5354 C 498.059 5.16131 -1.3581 0
M  V30 5355 O 498.282 5.6989 -0.241201 0
M  V30 5356 O 497.216 5.61103 -2.17824 0
M  V30 5357 H 501.042 2.31046 -1.97108 0
M  V30 5358 H 498.627 1.09284 -1.01869 0
M  V30 5359 H 500.509 4.19488 -0.400982 0
M  V30 5360 H 499.184 3.2234 0.296421 0
M  V30 5361 H 498.091 3.14895 -2.0197 0
M  V30 5362 H 499.424 4.15364 -2.64071 0
M  V30 5363 N 501.076 1.04316 1.18135 0
M  V30 5364 C 502.006 0.657299 2.24058 0
M  V30 5365 C 502.987 -0.340678 1.66654 0
M  V30 5366 O 504.172 -0.220223 1.92947 0
M  V30 5367 C 501.302 0.0220715 3.47293 0
M  V30 5368 C 500.256 0.943857 4.17463 0
M  V30 5369 C 499.582 0.172973 5.3442 0
M  V30 5370 C 500.882 2.26409 4.70677 0
M  V30 5371 H 502.576 1.5428 2.56589 0
M  V30 5372 H 500.122 0.743263 1.23335 0
M  V30 5373 H 502.075 -0.259607 4.206 0
M  V30 5374 H 500.799 -0.898323 3.14003 0
M  V30 5375 H 499.458 1.20996 3.46057 0
M  V30 5376 H 499.106 -0.749907 4.97379 0
M  V30 5377 H 498.806 0.787098 5.82304 0
M  V30 5378 H 500.33 -0.101628 6.10515 0
M  V30 5379 H 501.744 2.04294 5.35665 0
M  V30 5380 H 500.141 2.8314 5.29105 0
M  V30 5381 H 501.211 2.90883 3.87962 0
M  V30 5382 N 502.554 -1.34406 0.822964 0
M  V30 5383 C 503.8 -1.98578 0.411666 0
M  V30 5384 C 504.133 -1.65093 -1.02264 0
M  V30 5385 O 503.408 -0.92258 -1.71227 0
M  V30 5386 C 503.691 -3.54823 0.614235 0
M  V30 5387 C 503.544 -3.9805 2.09466 0
M  V30 5388 C 504.863 -4.40071 0.050221 0
M  V30 5389 H 501.982 -0.721355 0.151047 0
M  V30 5390 H 504.624 -1.59301 1.03554 0
M  V30 5391 H 502.774 -3.88411 0.0831774 0
M  V30 5392 H 504.446 -3.74795 2.68936 0
M  V30 5393 H 502.689 -3.4836 2.5851 0
M  V30 5394 H 503.36 -5.06819 2.18721 0
M  V30 5395 H 505.836 -4.13037 0.503953 0
M  V30 5396 H 504.712 -5.48452 0.221759 0
M  V30 5397 H 504.973 -4.29576 -1.04482 0
M  V30 5398 N 504.032 -0.577932 -1.46621 0
M  V30 5399 C 504.964 0.195801 -2.28362 0
M  V30 5400 C 505.977 0.859983 -1.38232 0
M  V30 5401 O 507.166 0.730349 -1.62875 0
M  V30 5402 C 504.266 1.29639 -3.13124 0
M  V30 5403 C 503.439 0.725049 -4.31349 0
M  V30 5404 C 502.498 1.71274 -4.97546 0
M  V30 5405 O 501.524 1.25067 -5.5529 0
M  V30 5406 N 502.726 3.04672 -4.94121 0
M  V30 5407 H 505.491 -0.505468 -2.95407 0
M  V30 5408 H 503.052 -0.415381 -1.56481 0
M  V30 5409 H 505.044 1.95631 -3.54275 0
M  V30 5410 H 503.614 1.90059 -2.48186 0
M  V30 5411 H 502.834 -0.112205 -3.9404 0
M  V30 5412 H 504.122 0.323034 -5.07774 0
M  V30 5413 H 503.52 3.4484 -4.48444 0
M  V30 5414 H 502.077 3.66166 -5.39227 0
M  V30 5415 N 505.51 1.54411 -0.315457 0
M  V30 5416 C 506.926 1.59556 0.037464 0
M  V30 5417 C 507.126 1.33217 1.5118 0
M  V30 5418 O 506.182 1.11264 2.26664 0
M  V30 5419 C 507.495 2.98372 -0.373477 0
M  V30 5420 C 509.043 3.11324 -0.323452 0
M  V30 5421 C 509.518 4.52472 -0.709433 0
M  V30 5422 N 511.009 4.58437 -0.662524 0
M  V30 5423 C 511.744 5.65751 -0.933474 0
M  V30 5424 N 511.24 6.81039 -1.27114 0
M  V30 5425 N 513.033 5.55489 -0.859573 0
M  V30 5426 H 505.184 1.6979 -1.27614 0
M  V30 5427 H 507.447 0.793732 -0.518356 0
M  V30 5428 H 507.153 3.22618 -1.40037 0
M  V30 5429 H 507.027 3.76264 0.265615 0
M  V30 5430 H 509.414 2.86818 0.694223 0
M  V30 5431 H 509.495 2.35555 -0.997367 0
M  V30 5432 H 509.139 4.7771 -1.72498 0
M  V30 5433 H 509.069 5.26598 -0.0132923 0
M  V30 5434 H 511.56 3.75636 -0.413065 0
M  V30 5435 H 511.873 7.58816 -1.46348 0
M  V30 5436 H 510.218 6.82555 -1.30932 0
M  V30 5437 H 513.409 4.64299 -0.595324 0
M  V30 5438 H 513.582 6.39036 -1.0741 0
M  V30 5439 N 506.988 0.0434614 1.5754 0
M  V30 5440 C 508.235 -0.632035 1.92384 0
M  V30 5441 C 508.563 -1.71304 0.921157 0
M  V30 5442 O 507.818 -1.95583 -0.067744 0
M  V30 5443 C 508.117 -1.2738 3.3393 0
M  V30 5444 C 507.783 -0.321757 4.49751 0
M  V30 5445 C 506.445 -0.0597611 4.81163 0
M  V30 5446 C 508.797 0.331158 5.20147 0
M  V30 5447 C 506.125 0.862715 5.80322 0
M  V30 5448 C 508.477 1.24178 6.20292 0
M  V30 5449 C 507.141 1.51252 6.50138 0
M  V30 5450 H 506.411 -0.231278 0.703983 0
M  V30 5451 H 509.058 0.108294 1.91194 0
M  V30 5452 H 507.363 -2.08921 3.3145 0
M  V30 5453 H 509.06 -1.80326 3.58167 0
M  V30 5454 H 505.65 -0.53614 4.25233 0
M  V30 5455 H 509.834 0.141826 4.96097 0
M  V30 5456 H 505.09 1.08003 6.01785 0
M  V30 5457 H 509.264 1.75381 6.73954 0
M  V30 5458 H 506.891 2.22897 7.26788 0
M  V30 5459 N 508.466 -1.55915 -0.229846 0
M  V30 5460 C 509.396 -1.94754 -1.28815 0
M  V30 5461 C 510.377 -0.814657 -1.49323 0
M  V30 5462 O 511.562 -1.07631 -1.61645 0
M  V30 5463 C 508.692 -2.25705 -2.63959 0
M  V30 5464 C 507.646 -3.41406 -2.5812 0
M  V30 5465 C 506.972 -3.57941 -3.97218 0
M  V30 5466 C 508.272 -4.76616 -2.13623 0
M  V30 5467 H 509.966 -2.83404 -0.965547 0
M  V30 5468 H 507.512 -1.36353 -0.463028 0
M  V30 5469 H 509.465 -2.51467 -3.38146 0
M  V30 5470 H 508.189 -1.339 -2.9789 0
M  V30 5471 H 506.848 -3.1568 -1.86391 0
M  V30 5472 H 506.496 -2.63526 -4.28443 0
M  V30 5473 H 506.196 -4.35757 -3.94195 0
M  V30 5474 H 507.72 -3.86042 -4.73079 0
M  V30 5475 H 509.134 -5.01637 -2.77549 0
M  V30 5476 H 507.531 -5.57655 -2.21677 0
M  V30 5477 H 508.601 -4.7253 -1.08829 0
M  V30 5478 N 509.944 0.496216 -1.49584 0
M  V30 5479 C 511.184 1.26015 -1.60933 0
M  V30 5480 C 511.548 1.89772 -0.291646 0
M  V30 5481 O 512.749 2.67334 -0.280357 0
M  V30 5482 C 511.02 2.29506 -2.73974 0
M  V30 5483 S 512.579 3.15175 -3.05303 0
M  V30 5484 H 509.397 0.428194 -0.567601 0
M  V30 5485 H 511.999 0.561484 -1.87263 0
M  V30 5486 H 510.703 1.81205 -3.68229 0
M  V30 5487 H 510.234 3.04036 -2.49651 0
M  V30 5488 H 512.249 4.30244 -2.47193 0
M  V30 5489 N 511.423 1.38739 0.74761 0
M  V30 5490 C 512.663 1.36695 1.51966 0
M  V30 5491 C 513.027 -0.0411889 1.91956 0
M  V30 5492 O 514.228 -0.186543 2.68152 0
M  V30 5493 C 512.499 2.30119 2.73459 0
M  V30 5494 S 514.058 2.4615 3.63257 0
M  V30 5495 H 510.876 0.484929 0.519966 0
M  V30 5496 H 513.478 1.7472 0.877104 0
M  V30 5497 H 512.182 3.31312 2.422 0
M  V30 5498 H 511.713 1.93265 3.42655 0
M  V30 5499 H 513.728 1.69001 4.66533 0
M  V30 5500 N 512.901 -0.976442 1.23707 0
M  V30 5501 C 514.126 -1.75875 1.09922 0
M  V30 5502 C 514.551 -1.84911 -0.34489 0
M  V30 5503 O 513.909 -1.31363 -1.24954 0
M  V30 5504 C 513.957 -3.16179 1.73388 0
M  V30 5505 O 513.061 -4.00124 0.99871 0
M  V30 5506 H 512.402 -0.540954 0.385052 0
M  V30 5507 H 514.932 -1.22546 1.6384 0
M  V30 5508 H 514.942 -3.66741 1.78788 0
M  V30 5509 H 513.617 -3.08917 2.78466 0
M  V30 5510 H 512.194 -3.58624 1.02193 0
M  V30 5511 N 514.379 -1.04941 -1.1758 0
M  V30 5512 C 515.342 -0.652456 -2.19717 0
M  V30 5513 C 516.342 0.294745 -1.58076 0
M  V30 5514 O 517.532 0.0789579 -1.74021 0
M  V30 5515 C 514.664 0.0420712 -3.40874 0
M  V30 5516 H 515.857 -1.55642 -2.5635 0
M  V30 5517 H 513.41 -0.842995 -1.31618 0
M  V30 5518 H 514.145 0.95943 -3.09783 0
M  V30 5519 H 513.93 -0.638844 -3.86861 0
M  V30 5520 H 515.42 0.306 -4.16477 0
M  V30 5521 N 515.857 1.33968 -0.830081 0
M  V30 5522 C 517.082 2.02813 -0.433796 0
M  V30 5523 C 517.507 1.62076 0.954614 0
M  V30 5524 O 516.865 0.808955 1.62252 0
M  V30 5525 C 516.913 3.56348 -0.552115 0
M  V30 5526 O 516.017 4.10202 0.425191 0
M  V30 5527 H 515.358 0.639817 -0.177567 0
M  V30 5528 H 517.888 1.7106 -1.12248 0
M  V30 5529 H 517.898 4.05722 -0.430513 0
M  V30 5530 H 516.573 3.85344 -1.56471 0
M  V30 5531 H 515.15 3.71979 0.261878 0
M  V30 5532 N 517.335 0.585699 1.46312 0
M  V30 5533 C 518.565 0.0780166 2.06453 0
M  V30 5534 C 518.973 -1.2336 1.43454 0
M  V30 5535 O 518.316 -1.75734 0.535086 0
M  V30 5536 C 518.378 -0.158951 3.59148 0
M  V30 5537 C 518.042 1.06752 4.44357 0
M  V30 5538 C 519.039 1.98031 4.80708 0
M  V30 5539 C 516.724 1.2902 4.85447 0
M  V30 5540 C 518.718 3.09924 5.5698 0
M  V30 5541 C 516.405 2.41218 5.61478 0
M  V30 5542 C 517.403 3.31499 5.97158 0
M  V30 5543 O 517.091 4.41747 6.71651 0
M  V30 5544 H 516.823 0.0558894 0.673686 0
M  V30 5545 H 519.377 0.806994 1.88883 0
M  V30 5546 H 517.607 -0.942575 3.75037 0
M  V30 5547 H 519.296 -0.615513 4.01206 0
M  V30 5548 H 520.062 1.82043 4.49539 0
M  V30 5549 H 515.941 0.596567 4.57124 0
M  V30 5550 H 519.485 3.80415 5.84748 0
M  V30 5551 H 515.382 2.57167 5.9206 0
M  V30 5552 H 516.15 4.40152 6.90079 0
M  V30 5553 N 518.813 -1.54241 0.323641 0
M  V30 5554 C 519.743 -2.27289 -0.534993 0
M  V30 5555 C 520.724 -1.28087 -1.11927 0
M  V30 5556 O 521.909 -1.56899 -1.14439 0
M  V30 5557 C 519.039 -3.03075 -1.69596 0
M  V30 5558 C 517.993 -4.09614 -1.24098 0
M  V30 5559 C 517.319 -4.73242 -2.4889 0
M  V30 5560 C 518.619 -5.21087 -0.355789 0
M  V30 5561 H 520.313 -2.99308 0.0743257 0
M  V30 5562 H 517.859 -1.43952 0.0371874 0
M  V30 5563 H 519.812 -3.52907 -2.30293 0
M  V30 5564 H 518.536 -2.28673 -2.33187 0
M  V30 5565 H 517.195 -3.60666 -0.656945 0
M  V30 5566 H 516.843 -3.95455 -3.10845 0
M  V30 5567 H 516.543 -5.45209 -2.19138 0
M  V30 5568 H 518.067 -5.25848 -3.10348 0
M  V30 5569 H 519.481 -5.66675 -0.869042 0
M  V30 5570 H 517.878 -5.9991 -0.151045 0
M  V30 5571 H 518.948 -4.81005 0.613339 0
M  V30 5572 N 520.291 -0.0518155 -1.57515 0
M  V30 5573 C 521.238 0.922352 -2.11569 0
M  V30 5574 C 522.208 1.30842 -1.02321 0
M  V30 5575 O 523.393 1.39778 -1.29872 0
M  V30 5576 C 520.533 2.19167 -2.6657 0
M  V30 5577 C 519.646 1.86003 -3.89906 0
M  V30 5578 C 518.781 3.07398 -4.33221 0
M  V30 5579 C 517.82 2.70158 -5.49255 0
M  V30 5580 N 516.957 3.84248 -5.8762 0
M  V30 5581 H 521.797 0.454506 -2.94514 0
M  V30 5582 H 519.334 0.212718 -1.45554 0
M  V30 5583 H 521.292 2.93443 -2.96559 0
M  V30 5584 H 519.922 2.63528 -1.86421 0
M  V30 5585 H 518.974 1.01874 -3.66505 0
M  V30 5586 H 520.286 1.54592 -4.74239 0
M  V30 5587 H 519.44 3.89972 -4.64765 0
M  V30 5588 H 518.179 3.41988 -3.477 0
M  V30 5589 H 517.184 1.86001 -5.17382 0
M  V30 5590 H 518.409 2.36759 -6.36492 0
M  V30 5591 H 516.355 4.18638 -5.05053 0
M  V30 5592 H 516.272 3.56538 -6.66646 0
M  V30 5593 H 517.54 4.6746 -6.2378 0
M  V30 5594 N 521.769 1.56035 0.221574 0
M  V30 5595 C 523.017 1.78693 0.944102 0
M  V30 5596 C 523.338 0.620317 1.8487 0
M  V30 5597 O 522.608 -0.362784 1.92512 0
M  V30 5598 H 521.188 0.659082 0.351597 0
M  V30 5599 H 523.85 1.93497 0.233435 0
M  V30 5600 H 522.946 2.70837 1.55093 0
M  V30 5601 N 523.247 -0.488276 1.49845 0
M  V30 5602 C 524.663 -0.820566 1.3689 0
M  V30 5603 C 524.863 -1.97248 0.411752 0
M  V30 5604 O 523.919 -2.52042 -0.151931 0
M  V30 5605 C 525.232 -1.1488 2.77891 0
M  V30 5606 C 526.78 -1.25626 2.86683 0
M  V30 5607 C 527.255 -1.61772 4.28479 0
M  V30 5608 N 528.746 -1.68797 4.31349 0
M  V30 5609 C 529.481 -1.98235 5.38043 0
M  V30 5610 N 528.977 -2.2581 6.54967 0
M  V30 5611 N 530.77 -1.99593 5.2547 0
M  V30 5612 H 522.921 0.271123 2.10662 0
M  V30 5613 H 525.184 0.058735 0.946179 0
M  V30 5614 H 524.89 -0.375614 3.49688 0
M  V30 5615 H 524.764 -2.08919 3.14058 0
M  V30 5616 H 527.151 -2.02014 2.15114 0
M  V30 5617 H 527.232 -0.296072 2.54081 0
M  V30 5618 H 526.876 -0.859295 5.00578 0
M  V30 5619 H 526.806 -2.58912 4.58554 0
M  V30 5620 H 529.297 -1.49595 3.4703 0
M  V30 5621 H 529.61 -2.47497 7.32096 0
M  V30 5622 H 527.955 -2.23239 6.58171 0
M  V30 5623 H 531.146 -1.77535 4.33127 0
M  V30 5624 H 531.319 -2.222 6.08713 0
M  V30 5625 N 524.725 -1.39134 -0.740242 0
M  V30 5626 C 526.141 -1.20623 -1.0451 0
M  V30 5627 C 526.341 -0.0641651 -2.01398 0
M  V30 5628 O 525.397 0.585843 -2.4561 0
M  V30 5629 C 526.71 -2.53815 -1.6124 0
M  V30 5630 C 528.258 -2.60615 -1.73346 0
M  V30 5631 C 528.733 -3.94015 -2.33486 0
M  V30 5632 N 530.224 -3.95627 -2.40902 0
M  V30 5633 C 530.959 -4.95616 -2.88361 0
M  V30 5634 N 530.455 -6.06003 -3.35756 0
M  V30 5635 N 532.248 -4.82998 -2.87523 0
M  V30 5636 H 524.399 -2.12176 -0.0975576 0
M  V30 5637 H 526.662 -0.942066 -0.105904 0
M  V30 5638 H 526.368 -3.37911 -0.975144 0
M  V30 5639 H 526.242 -2.73162 -2.6012 0
M  V30 5640 H 528.629 -1.76906 -2.36195 0
M  V30 5641 H 528.71 -2.45123 -0.731336 0
M  V30 5642 H 528.354 -4.78153 -1.71267 0
M  V30 5643 H 528.284 -4.06825 -3.34366 0
M  V30 5644 H 530.775 -3.15903 -2.07398 0
M  V30 5645 H 531.088 -6.78215 -3.70464 0
M  V30 5646 H 529.433 -6.09604 -3.33778 0
M  V30 5647 H 532.624 -3.95866 -2.49816 0
M  V30 5648 H 532.797 -5.61072 -3.24196 0
M  V30 5649 N 526.204 0.969867 -1.24223 0
M  V30 5650 C 527.134 2.08191 -1.05729 0
M  V30 5651 C 528.115 1.70075 0.0290765 0
M  V30 5652 O 529.3 1.93712 -0.137583 0
M  V30 5653 C 526.43 3.40991 -0.658995 0
M  V30 5654 C 525.384 3.93054 -1.69389 0
M  V30 5655 C 524.71 5.22171 -1.15072 0
M  V30 5656 C 526.01 4.21137 -3.08935 0
M  V30 5657 H 527.704 2.23921 -1.98746 0
M  V30 5658 H 525.25 1.07602 -0.956967 0
M  V30 5659 H 527.203 4.18221 -0.51662 0
M  V30 5660 H 525.927 3.25155 0.30686 0
M  V30 5661 H 524.586 3.17977 -1.82444 0
M  V30 5662 H 524.234 5.02694 -0.175539 0
M  V30 5663 H 523.934 5.57973 -1.84229 0
M  V30 5664 H 525.458 6.02013 -1.02042 0
M  V30 5665 H 526.872 4.8908 -2.99121 0
M  V30 5666 H 525.269 4.68163 -3.75425 0
M  V30 5667 H 526.339 3.27996 -3.57137 0
M  V30 5668 N 527.682 1.05563 1.17022 0
M  V30 5669 C 528.93 0.76642 1.87004 0
M  V30 5670 C 529.251 -0.708854 1.8166 0
M  V30 5671 O 528.521 -1.51242 1.2451 0
M  V30 5672 H 527.101 0.280516 0.692329 0
M  V30 5673 H 529.763 1.33557 1.41945 0
M  V30 5674 H 528.859 1.08472 2.92644 0
M  V30 5675 N 529.16 -1.33526 0.837174 0
M  V30 5676 C 530.07 -2.33023 0.271568 0
M  V30 5677 C 531.086 -1.63272 -0.601514 0
M  V30 5678 O 532.262 -1.94939 -0.506038 0
M  V30 5679 C 529.327 -3.42382 -0.545448 0
M  V30 5680 C 528.388 -4.27857 0.351709 0
M  V30 5681 C 527.621 -5.31994 -0.426409 0
M  V30 5682 O 527.844 -5.45763 -1.65828 0
M  V30 5683 O 526.778 -6.01572 0.1987 0
M  V30 5684 H 530.604 -2.83256 1.09545 0
M  V30 5685 H 528.189 -1.36837 0.599655 0
M  V30 5686 H 530.071 -4.09122 -1.00979 0
M  V30 5687 H 528.746 -2.94369 -1.34641 0
M  V30 5688 H 527.653 -3.6399 0.863853 0
M  V30 5689 H 528.986 -4.79349 1.1174 0
M  V30 5690 N 530.638 -0.59345 -1.46 0
M  V30 5691 C 531.866 -0.0890934 -2.06708 0
M  V30 5692 C 532.281 1.2205 -1.44046 0
M  V30 5693 O 531.638 1.74029 -0.549551 0
M  V30 5694 C 531.689 0.0720263 -3.61428 0
M  V30 5695 O 531.41 -1.18574 -4.21748 0
M  V30 5696 C 532.911 0.609487 -4.3909 0
M  V30 5697 H 530.131 -0.0623628 -0.668096 0
M  V30 5698 H 532.675 -0.817171 -1.87464 0
M  V30 5699 H 530.83 0.750369 -3.80063 0
M  V30 5700 H 531.244 -1.0064 -5.14754 0
M  V30 5701 H 532.718 0.671363 -5.47902 0
M  V30 5702 H 533.195 1.62878 -4.07882 0
M  V30 5703 H 533.801 -0.03434 -4.25286 0
M  V30 5704 N 532.116 1.54067 -0.331816 0
M  V30 5705 C 533.341 2.05599 0.272705 0
M  V30 5706 C 533.766 1.2059 1.44359 0
M  V30 5707 O 533.124 0.216907 1.79998 0
M  V30 5708 C 533.172 3.54188 0.677021 0
M  V30 5709 O 532.276 3.72082 1.77844 0
M  V30 5710 H 531.617 0.662286 0.0476801 0
M  V30 5711 H 534.147 1.98826 -0.482624 0
M  V30 5712 H 534.157 3.96608 0.957415 0
M  V30 5713 H 532.832 4.15513 -0.179325 0
M  V30 5714 H 531.409 3.41566 1.49622 0
M  V30 5715 N 533.594 0.0601682 1.57485 0
M  V30 5716 C 534.557 -0.896373 2.10945 0
M  V30 5717 C 535.557 -1.23402 1.03095 0
M  V30 5718 O 536.747 -1.16921 1.29132 0
M  V30 5719 C 533.879 -2.20346 2.60116 0
M  V30 5720 H 535.072 -0.432778 2.96761 0
M  V30 5721 H 532.625 -0.188372 1.55161 0
M  V30 5722 H 533.36 -2.71268 1.7772 0
M  V30 5723 H 533.145 -1.9714 3.38937 0
M  V30 5724 H 534.635 -2.88846 3.01592 0
M  V30 5725 N 535.072 -1.5615 -0.213296 0
M  V30 5726 C 536.297 -1.83986 -0.957282 0
M  V30 5727 C 536.722 -0.641526 -1.76822 0
M  V30 5728 O 536.08 0.409722 -1.7661 0
M  V30 5729 C 536.128 -3.09889 -1.84393 0
M  V30 5730 O 535.232 -2.89163 -2.94038 0
M  V30 5731 H 534.573 -0.606357 -0.270605 0
M  V30 5732 H 537.103 -2.03369 -0.224111 0
M  V30 5733 H 537.113 -3.40209 -2.25215 0
M  V30 5734 H 535.788 -3.96735 -1.24795 0
M  V30 5735 H 534.365 -2.70097 -2.57103 0
M  V30 5736 N 536.55 0.480323 -1.50102 0
M  V30 5737 C 537.497 1.57946 -1.6829 0
M  V30 5738 C 538.467 1.57611 -0.524223 0
M  V30 5739 O 539.652 1.75282 -0.753709 0
M  V30 5740 C 536.792 2.95978 -1.77457 0
M  V30 5741 C 535.905 3.06173 -3.04766 0
M  V30 5742 C 535.04 4.35063 -3.04784 0
M  V30 5743 C 534.079 4.38966 -4.26586 0
M  V30 5744 N 533.216 5.59314 -4.24396 0
M  V30 5745 H 538.056 1.41743 -2.62131 0
M  V30 5746 H 535.593 0.689304 -1.2995 0
M  V30 5747 H 537.551 3.76011 -1.80752 0
M  V30 5748 H 536.181 3.10837 -0.870637 0
M  V30 5749 H 535.233 2.19071 -3.10986 0
M  V30 5750 H 536.545 3.04916 -3.9475 0
M  V30 5751 H 535.699 5.23436 -3.06757 0
M  V30 5752 H 534.438 4.38915 -2.12614 0
M  V30 5753 H 533.443 3.48992 -4.24835 0
M  V30 5754 H 534.668 4.36813 -5.19972 0
M  V30 5755 H 532.614 5.63969 -3.35074 0
M  V30 5756 H 532.531 5.5976 -5.08138 0
M  V30 5757 H 533.799 6.49837 -4.30502 0
M  V30 5758 N 538.028 1.39524 0.732853 0
M  V30 5759 C 538.975 1.38416 1.84688 0
M  V30 5760 C 539.945 0.243539 1.64305 0
M  V30 5761 O 541.13 0.438979 1.85681 0
M  V30 5762 C 538.27 1.23555 3.22224 0
M  V30 5763 C 537.383 2.47179 3.54298 0
M  V30 5764 C 536.518 2.2489 4.81246 0
M  V30 5765 C 535.557 3.44178 5.0617 0
M  V30 5766 N 534.694 3.21192 6.24323 0
M  V30 5767 H 539.534 2.33645 1.84971 0
M  V30 5768 H 537.071 1.16059 0.903804 0
M  V30 5769 H 539.029 1.12949 4.0162 0
M  V30 5770 H 537.659 0.31954 3.21215 0
M  V30 5771 H 536.711 2.68379 2.69587 0
M  V30 5772 H 538.023 3.36022 3.68633 0
M  V30 5773 H 537.177 2.11538 5.68627 0
M  V30 5774 H 535.916 1.33443 4.69089 0
M  V30 5775 H 534.921 3.58025 4.17251 0
M  V30 5776 H 536.146 4.36528 5.20212 0
M  V30 5777 H 534.092 2.32413 6.1345 0
M  V30 5778 H 534.009 4.03594 6.39256 0
M  V30 5779 H 535.277 3.1154 7.14537 0
M  V30 5780 N 539.506 -0.963266 1.24736 0
M  V30 5781 C 540.731 -1.74699 1.11781 0
M  V30 5782 C 541.156 -1.85267 -0.325258 0
M  V30 5783 O 540.514 -1.32681 -1.23553 0
M  V30 5784 C 540.562 -3.14322 1.76731 0
M  V30 5785 O 539.666 -3.99043 1.04109 0
M  V30 5786 H 539.007 -0.53684 0.390767 0
M  V30 5787 H 541.537 -1.20801 1.65131 0
M  V30 5788 H 541.547 -3.64824 1.82668 0
M  V30 5789 H 540.222 -3.05946 2.81726 0
M  V30 5790 H 538.799 -3.5752 1.05991 0
M  V30 5791 N 540.985 -1.06182 -1.16461 0
M  V30 5792 C 541.933 -0.665716 -2.2287 0
M  V30 5793 C 542.927 0.317822 -1.66392 0
M  V30 5794 O 544.133 0.182807 -1.79069 0
M  V30 5795 H 540.508 -0.197148 -0.725697 0
M  V30 5796 H 542.479 -1.57307 -2.53569 0
M  V30 5797 C 541.228 -0.0669803 -3.47635 0
M  V30 5798 H 540.551 -0.814899 -3.91407 0
M  V30 5799 H 541.991 0.172669 -4.23648 0
M  V30 5800 C 540.45 1.18913 -3.15216 0
M  V30 5801 O 540.98 2.27723 -3.30916 0
M  V30 5802 N 539.186 1.09066 -2.69357 0
M  V30 5803 H 538.733 0.20518 -2.56782 0
M  V30 5804 H 538.691 1.93195 -2.48039 0
M  V30 5805 N 542.463 1.3308 -0.844243 0
M  V30 5806 C 543.688 2.02341 -0.455282 0
M  V30 5807 C 544.113 1.6308 0.93737 0
M  V30 5808 O 543.471 0.826118 1.61385 0
M  V30 5809 C 543.519 3.55743 -0.58988 0
M  V30 5810 O 542.623 4.1063 0.38166 0
M  V30 5811 H 541.964 0.637898 -0.184343 0
M  V30 5812 H 544.494 1.6986 -1.14056 0
M  V30 5813 H 544.504 4.05243 -0.473522 0
M  V30 5814 H 543.179 3.83662 -1.60549 0
M  V30 5815 H 541.756 3.72236 0.22241 0
M  V30 5816 N 543.941 0.601185 1.45683 0
M  V30 5817 C 545.166 0.0982245 2.07167 0
M  V30 5818 C 545.591 -1.20546 1.44396 0
M  V30 5819 O 544.949 -1.73247 0.534347 0
M  V30 5820 C 544.997 -0.0346976 3.60583 0
M  V30 5821 O 544.101 -1.08657 3.97828 0
M  V30 5822 H 543.442 0.0711618 0.660176 0
M  V30 5823 H 545.972 0.829376 1.87036 0
M  V30 5824 H 545.982 -0.234969 4.07323 0
M  V30 5825 H 544.657 0.917265 4.05659 0
M  V30 5826 H 543.234 -0.863275 3.6277 0
M  V30 5827 N 545.419 -1.53889 0.339982 0
M  V30 5828 C 546.644 -2.05741 -0.261798 0
M  V30 5829 C 547.069 -1.21354 -1.43718 0
M  V30 5830 O 546.427 -0.22645 -1.7988 0
M  V30 5831 C 546.475 -3.54542 -0.658228 0
M  V30 5832 O 545.579 -3.7302 -1.75869 0
M  V30 5833 H 544.92 -0.662529 -0.0441672 0
M  V30 5834 H 547.45 -1.98568 0.493161 0
M  V30 5835 H 547.46 -3.9711 -0.936368 0
M  V30 5836 H 546.135 -4.15412 0.201358 0
M  V30 5837 H 544.712 -3.42355 -1.47809 0
M  V30 5838 N 546.897 -0.0685191 -1.57451 0
M  V30 5839 C 548.144 0.601348 -1.93365 0
M  V30 5840 C 548.472 1.69816 -0.948294 0
M  V30 5841 O 547.727 1.95666 0.0366199 0
M  V30 5842 C 548.026 1.22051 -3.35914 0
M  V30 5843 C 547.692 0.250165 -4.50205 0
M  V30 5844 C 546.354 -0.0167954 -4.81197 0
M  V30 5845 C 548.706 -0.413867 -5.19554 0
M  V30 5846 C 546.034 -0.95493 -5.78876 0
M  V30 5847 C 548.386 -1.3403 -6.18238 0
M  V30 5848 C 547.05 -1.61576 -6.47649 0
M  V30 5849 H 546.32 0.220049 -0.707573 0
M  V30 5850 H 548.967 -0.138697 -1.90997 0
M  V30 5851 H 547.272 2.03622 -3.34732 0
M  V30 5852 H 548.969 1.74605 -3.6099 0
M  V30 5853 H 545.559 0.468421 -4.26033 0
M  V30 5854 H 549.743 -0.220733 -4.95809 0
M  V30 5855 H 544.999 -1.17563 -5.99991 0
M  V30 5856 H 549.173 -1.86081 -6.71079 0
M  V30 5857 H 546.8 -2.34431 -7.2315 0
M  V30 5858 N 548.375 1.56261 0.205012 0
M  V30 5859 C 549.621 1.80306 0.9283 0
M  V30 5860 C 549.954 0.640932 1.83319 0
M  V30 5861 O 549.229 -0.359032 1.91158 0
M  V30 5862 C 549.512 3.14547 1.75306 0
M  V30 5863 C 549.365 4.41236 0.873562 0
M  V30 5864 C 550.684 3.45382 2.72762 0
M  V30 5865 H 547.803 0.655929 0.336044 0
M  V30 5866 H 550.445 1.88984 0.196211 0
M  V30 5867 H 548.595 3.0728 2.37721 0
M  V30 5868 H 550.267 4.60539 0.264887 0
M  V30 5869 H 548.51 4.33427 0.179773 0
M  V30 5870 H 549.181 5.31639 1.48541 0
M  V30 5871 H 551.657 3.52884 2.20481 0
M  V30 5872 H 550.533 4.40449 3.2756 0
M  V30 5873 H 550.794 2.68377 3.51321 0
M  V30 5874 N 549.853 -0.472356 1.50355 0
M  V30 5875 C 550.783 -1.57859 1.72055 0
M  V30 5876 C 551.764 -1.60283 0.569505 0
M  V30 5877 O 552.949 -1.7657 0.808503 0
M  V30 5878 C 550.079 -2.96191 1.81351 0
M  V30 5879 C 549.033 -3.08633 2.96529 0
M  V30 5880 C 548.359 -4.486 2.90968 0
M  V30 5881 C 549.659 -2.85969 4.37057 0
M  V30 5882 H 551.353 -1.39953 2.64676 0
M  V30 5883 H 548.899 -0.671846 1.27367 0
M  V30 5884 H 550.852 -3.73507 1.95117 0
M  V30 5885 H 549.576 -3.15251 0.853502 0
M  V30 5886 H 548.235 -2.33749 2.82413 0
M  V30 5887 H 547.883 -4.64577 1.92815 0
M  V30 5888 H 547.583 -4.57861 3.68289 0
M  V30 5889 H 549.107 -5.27938 3.0678 0
M  V30 5890 H 550.521 -3.53036 4.51706 0
M  V30 5891 H 548.918 -3.06677 5.15819 0
M  V30 5892 H 549.988 -1.81838 4.49514 0
M  V30 5893 N 551.331 -1.39911 -0.725443 0
M  V30 5894 C 552.556 -1.41137 -1.5197 0
M  V30 5895 C 552.981 -0.010262 -1.88097 0
M  V30 5896 O 552.339 0.979184 -1.52583 0
M  V30 5897 C 552.387 -2.2994 -2.77777 0
M  V30 5898 O 551.491 -1.73586 -3.74088 0
M  V30 5899 H 550.832 -0.480219 -0.458569 0
M  V30 5900 H 553.362 -1.84023 -0.894249 0
M  V30 5901 H 553.372 -2.44785 -3.26411 0
M  V30 5902 H 552.047 -3.31759 -2.50816 0
M  V30 5903 H 550.624 -1.68035 -3.32894 0
M  V30 5904 N 552.809 0.956637 -1.25245 0
M  V30 5905 C 553.759 2.03841 -1.02141 0
M  V30 5906 C 554.743 1.60848 0.0410058 0
M  V30 5907 O 555.935 1.76142 -0.174084 0
M  V30 5908 C 553.064 3.37282 -0.639963 0
M  V30 5909 C 552.15 3.86805 -1.73903 0
M  V30 5910 N 552.541 4.09143 -2.97381 0
M  V30 5911 C 550.839 4.15574 -1.61909 0
M  V30 5912 C 551.54 4.49923 -3.68707 0
M  V30 5913 N 550.516 4.55737 -2.96318 0
M  V30 5914 H 554.318 2.19102 -1.95886 0
M  V30 5915 H 551.832 1.1413 -1.15534 0
M  V30 5916 H 553.829 4.14403 -0.455643 0
M  V30 5917 H 552.489 3.23401 0.29018 0
M  V30 5918 H 553.5 3.96275 -3.33447 0
M  V30 5919 H 550.177 4.10566 -0.757764 0
M  V30 5920 H 551.567 4.75526 -4.74684 0
M  V30 5921 N 554.287 1.06798 1.15896 0
M  V30 5922 C 555.703 0.792423 1.38538 0
M  V30 5923 C 555.903 -0.60592 1.92174 0
M  V30 5924 O 554.959 -1.36561 2.12385 0
M  V30 5925 C 556.272 1.86157 2.36149 0
M  V30 5926 C 557.82 1.88567 2.49823 0
M  V30 5927 C 558.295 2.9455 3.5072 0
M  V30 5928 N 559.786 2.93616 3.58251 0
M  V30 5929 C 560.521 3.72267 4.36125 0
M  V30 5930 N 560.017 4.60751 5.17379 0
M  V30 5931 N 561.81 3.60637 4.31158 0
M  V30 5932 H 553.961 1.96993 0.794198 0
M  V30 5933 H 556.224 0.853942 0.411688 0
M  V30 5934 H 555.93 2.86603 2.03843 0
M  V30 5935 H 555.804 1.71692 3.3586 0
M  V30 5936 H 558.191 0.887765 2.8143 0
M  V30 5937 H 558.272 2.0711 1.5013 0
M  V30 5938 H 557.916 3.94537 3.19849 0
M  V30 5939 H 557.846 2.73255 4.50155 0
M  V30 5940 H 560.337 2.29472 3.00252 0
M  V30 5941 H 560.65 5.17408 5.74028 0
M  V30 5942 H 558.995 4.64803 5.16704 0
M  V30 5943 H 562.186 2.90892 3.66742 0
M  V30 5944 H 562.359 4.22176 4.91601 0
M  V30 5945 N 555.766 -1.3263 0.851289 0
M  V30 5946 C 556.991 -2.02097 0.466006 0
M  V30 5947 C 557.416 -1.63574 -0.928709 0
M  V30 5948 O 556.774 -0.834665 -1.60944 0
M  V30 5949 C 556.822 -3.55425 0.608737 0
M  V30 5950 O 555.926 -4.10827 -0.359878 0
M  V30 5951 H 555.267 -0.636911 0.187724 0
M  V30 5952 H 557.797 -1.69253 1.14955 0
M  V30 5953 H 557.807 -4.04986 0.495006 0
M  V30 5954 H 556.482 -3.82806 1.62581 0
M  V30 5955 H 555.059 -3.72349 -0.202666 0
M  V30 5956 N 557.244 -0.608902 -1.45362 0
M  V30 5957 C 558.469 -0.10921 -2.07112 0
M  V30 5958 C 558.894 1.19779 -1.45033 0
M  V30 5959 O 558.252 1.72961 -0.543527 0
M  V30 5960 C 558.3 0.0155745 -3.60597 0
M  V30 5961 O 557.404 1.06546 -3.98399 0
M  V30 5962 H 556.745 -0.0746619 -0.659789 0
M  V30 5963 H 559.275 -0.839283 -1.86594 0
M  V30 5964 H 559.285 0.213364 -4.07442 0
M  V30 5965 H 557.96 -0.938765 -4.05167 0
M  V30 5966 H 556.537 0.844024 -3.63223 0
M  V30 5967 N 558.722 1.53707 -0.348139 0
M  V30 5968 C 559.947 2.05877 0.250883 0
M  V30 5969 C 560.372 1.22115 1.43072 0
M  V30 5970 O 559.73 0.235986 1.79758 0
M  V30 5971 C 559.778 3.54886 0.639416 0
M  V30 5972 O 558.882 3.73948 1.73888 0
M  V30 5973 H 558.223 0.662754 0.040653 0
M  V30 5974 H 560.753 1.98303 -0.503685 0
M  V30 5975 H 560.763 3.97601 0.915295 0
M  V30 5976 H 559.438 4.153 -0.223386 0
M  V30 5977 H 558.015 3.43134 1.45991 0
M  V30 5978 N 560.2 0.0768682 1.57412 0
M  V30 5979 C 561.132 -0.918248 2.10002 0
M  V30 5980 C 562.145 -1.25808 1.03325 0
M  V30 5981 O 563.334 -1.21438 1.30824 0
M  V30 5982 C 560.434 -2.23263 2.54964 0
M  V30 5983 C 559.607 -2.07088 3.8527 0
M  V30 5984 C 558.666 -3.21876 4.16272 0
M  V30 5985 O 557.692 -2.96643 4.8579 0
M  V30 5986 N 558.894 -4.4712 3.70221 0
M  V30 5987 H 561.659 -0.469209 2.96004 0
M  V30 5988 H 559.22 -0.108725 1.61535 0
M  V30 5989 H 561.212 -2.9897 2.72762 0
M  V30 5990 H 559.782 -2.59649 1.74072 0
M  V30 5991 H 559.002 -1.15818 3.76802 0
M  V30 5992 H 560.29 -1.93537 4.70554 0
M  V30 5993 H 559.688 -4.70506 3.1407 0
M  V30 5994 H 558.245 -5.19837 3.93209 0
M  V30 5995 N 561.678 -1.56367 -0.196722 0
M  V30 5996 C 563.094 -1.49916 -0.54749 0
M  V30 5997 C 563.294 -0.77659 -1.85934 0
M  V30 5998 O 562.35 -0.32644 -2.50381 0
M  V30 5999 C 563.663 -2.94577 -0.603734 0
M  V30 6000 C 565.211 -3.05239 -0.692677 0
M  V30 6001 C 565.686 -4.51308 -0.780046 0
M  V30 6002 N 567.177 -4.55453 -0.843616 0
M  V30 6003 C 567.912 -5.65786 -0.931358 0
M  V30 6004 N 567.408 -6.85812 -0.981503 0
M  V30 6005 N 569.201 -5.53695 -0.968421 0
M  V30 6006 H 561.352 -2.01761 0.663803 0
M  V30 6007 H 563.615 -0.918094 0.236238 0
M  V30 6008 H 563.321 -3.50494 0.29105 0
M  V30 6009 H 563.195 -3.47841 -1.45898 0
M  V30 6010 H 565.582 -2.49372 -1.57789 0
M  V30 6011 H 565.663 -2.55103 0.188736 0
M  V30 6012 H 565.307 -5.078 0.100811 0
M  V30 6013 H 565.237 -4.99176 -1.67724 0
M  V30 6014 H 567.728 -3.69025 -0.814176 0
M  V30 6015 H 568.041 -7.65648 -1.04892 0
M  V30 6016 H 566.386 -6.88474 -0.950208 0
M  V30 6017 H 569.577 -4.58848 -0.926072 0
M  V30 6018 H 569.75 -6.39708 -1.03334 0
M  V30 6019 N 563.156 0.464375 -1.50603 0
M  V30 6020 C 564.381 1.24372 -1.65971 0
M  V30 6021 C 564.806 1.84901 -0.345453 0
M  V30 6022 O 564.164 1.67596 0.691457 0
M  V30 6023 C 564.212 2.32331 -2.7578 0
M  V30 6024 O 563.316 3.37146 -2.375 0
M  V30 6025 H 562.657 0.365604 -0.554283 0
M  V30 6026 H 565.187 0.55183 -1.97018 0
M  V30 6027 H 565.197 2.77539 -2.99059 0
M  V30 6028 H 563.872 1.87648 -3.71162 0
M  V30 6029 H 562.449 2.97602 -2.24694 0
M  V30 6030 N 564.634 1.40294 0.718013 0
M  V30 6031 C 565.874 1.39888 1.49032 0
M  V30 6032 C 566.238 -0.000462935 1.92 0
M  V30 6033 O 567.439 -0.129622 2.68487 0
M  V30 6034 C 565.71 2.35868 2.68516 0
M  V30 6035 S 567.269 2.53799 3.57954 0
M  V30 6036 H 564.087 0.495849 0.509563 0
M  V30 6037 H 566.689 1.76541 0.839846 0
M  V30 6038 H 565.393 3.36375 2.35117 0
M  V30 6039 H 564.924 2.0049 3.38478 0
M  V30 6040 H 566.939 1.78859 4.62843 0
M  V30 6041 N 566.112 -0.949982 1.2575 0
M  V30 6042 C 567.337 -1.73503 1.13628 0
M  V30 6043 C 567.762 -1.85601 -0.30559 0
M  V30 6044 O 567.12 -1.33984 -1.22139 0
M  V30 6045 C 567.168 -3.1243 1.80055 0
M  V30 6046 O 566.272 -3.97916 1.08336 0
M  V30 6047 H 565.613 -0.532665 0.396439 0
M  V30 6048 H 568.143 -1.19043 1.66403 0
M  V30 6049 H 568.153 -3.62866 1.86527 0
M  V30 6050 H 566.828 -3.02941 2.84956 0
M  V30 6051 H 565.405 -3.56375 1.09777 0
M  V30 6052 N 567.59 -1.07411 -1.15328 0
M  V30 6053 C 568.522 -0.652924 -2.19703 0
M  V30 6054 C 569.535 0.294869 -1.60107 0
M  V30 6055 O 570.724 0.0840932 -1.78302 0
M  V30 6056 C 567.824 0.061434 -3.38844 0
M  V30 6057 C 566.997 -0.902696 -4.27984 0
M  V30 6058 C 566.056 -0.225521 -5.25717 0
M  V30 6059 O 565.082 -0.86676 -5.62562 0
M  V30 6060 N 566.284 1.02858 -5.71315 0
M  V30 6061 H 569.049 -1.55081 -2.56457 0
M  V30 6062 H 566.61 -0.958883 -1.30449 0
M  V30 6063 H 568.602 0.525145 -4.01278 0
M  V30 6064 H 567.172 0.861269 -3.00501 0
M  V30 6065 H 566.392 -1.54551 -3.6264 0
M  V30 6066 H 567.68 -1.55636 -4.84412 0
M  V30 6067 H 567.078 1.56948 -5.43492 0
M  V30 6068 H 565.635 1.43596 -6.35786 0
M  V30 6069 N 569.068 1.32177 -0.85831 0
M  V30 6070 C 570.479 1.79381 -0.517621 0
M  V30 6071 C 570.83 1.70841 0.964769 0
M  V30 6072 O 569.955 1.26917 1.75274 0
M  V30 6073 C 570.55 3.25706 -0.932801 0
M  V30 6074 C 569.109 3.70851 -0.643953 0
M  V30 6075 C 568.256 2.53208 -1.13054 0
M  V30 6076 H 571.207 1.19424 -1.04516 0
M  V30 6077 H 571.228 3.79673 -0.250674 0
M  V30 6078 H 570.74 3.31889 -2.01174 0
M  V30 6079 H 568.841 3.70178 0.424112 0
M  V30 6080 H 568.954 4.63495 -1.21281 0
M  V30 6081 H 567.318 2.48676 -0.550679 0
M  V30 6082 H 568.101 2.62143 -2.21666 0
M  V30 6083 N 570.547 0.616602 1.45037 0
M  V30 6084 C 571.772 0.120192 2.07051 0
M  V30 6085 C 572.197 -1.19008 1.45666 0
M  V30 6086 O 571.555 -1.7267 0.552692 0
M  V30 6087 C 571.603 0.00354901 3.606 0
M  V30 6088 O 570.707 -1.04431 3.98958 0
M  V30 6089 H 570.048 0.0781599 0.659384 0
M  V30 6090 H 572.578 0.849167 1.86146 0
M  V30 6091 H 572.588 -0.191754 4.07549 0
M  V30 6092 H 571.263 0.960239 4.04663 0
M  V30 6093 H 569.84 -0.824749 3.63665 0
M  V30 6094 N 572.025 -1.5352 0.356285 0
M  V30 6095 C 573.253 -2.05534 -0.237328 0
M  V30 6096 C 573.668 -1.23043 -1.43199 0
M  V30 6097 O 573.025 -0.268821 -1.80509 0
M  V30 6098 C 573.076 -3.55791 -0.639933 0
M  V30 6099 O 572.797 -4.35154 0.507233 0
M  V30 6100 C 574.298 -4.24027 -1.29292 0
M  V30 6101 H 571.518 -0.669585 -0.0435572 0
M  V30 6102 H 574.062 -1.97988 0.511963 0
M  V30 6103 H 572.217 -3.63518 -1.33915 0
M  V30 6104 H 572.631 -5.24178 0.18375 0
M  V30 6105 H 574.105 -5.30509 -1.52527 0
M  V30 6106 H 574.582 -3.77166 -2.25039 0
M  V30 6107 H 575.188 -4.20527 -0.63539 0
M  V30 6108 N 573.503 -0.0852151 -1.57369 0
M  V30 6109 C 574.466 0.8627 -2.12344 0
M  V30 6110 C 575.466 1.21746 -1.05046 0
M  V30 6111 O 576.656 1.14852 -1.30976 0
M  V30 6112 C 573.788 2.1618 -2.63589 0
M  V30 6113 H 574.981 0.385511 -2.97412 0
M  V30 6114 H 572.534 0.163663 -1.55441 0
M  V30 6115 H 573.269 2.68406 -1.82013 0
M  V30 6116 H 573.054 1.91723 -3.4203 0
M  V30 6117 H 574.544 2.84011 -3.06149 0
M  V30 6118 O 575.02 1.61406 0.0550718 0
M  V30 6119 H 575.711 1.81412 0.678922 0
M  V30 END ATOM
M  V30 BEGIN BOND
M  V30 END BOND
M  V30 END CTAB
M  END
$$$$
