drugbank_target|P30542 Adenosine receptor A1 (DB00193; DB00201; DB00277; DB00555; DB00640; DB00651; DB00806; DB00824; DB00996; DB01223; DB01303; DB01412; DB04932; DB04954; DB06471; DB09061; DB11757; DB12569; DB12670)
 OpenBabel12092119223D

  0  0  0     0  0            999 V3000
M  V30 BEGIN CTAB
M  V30 COUNTS 5265 5336 0 0 0
M  V30 BEGIN ATOM
M  V30 1 H -0.908 1.98254 -0.117106 0
M  V30 2 N 0 1.576 0 0
M  V30 3 C 0.933 2.03868 1.02534 0
M  V30 4 C 1.911 0.928543 1.3348 0
M  V30 5 O 3.095 1.19667 1.45644 0
M  V30 6 C 0.222 2.43627 2.35294 0
M  V30 7 C -0.732 3.65373 2.2001 0
M  V30 8 S 0.101 5.13292 1.52614 0
M  V30 9 C 1.257 5.56322 2.86805 0
M  V30 10 H 1.49 2.90518 0.631377 0
M  V30 11 H -0.977 1.52953 0.210867 0
M  V30 12 H 0.981 2.67203 3.11629 0
M  V30 13 H -0.358 1.57376 2.7183 0
M  V30 14 H -1.165 3.90944 3.18086 0
M  V30 15 H -1.563 3.418 1.51819 0
M  V30 16 H 0.729 5.58782 3.83104 0
M  V30 17 H 1.672 6.56266 2.65933 0
M  V30 18 H 2.08 4.83886 2.90714 0
M  V30 19 N 1.4781 -0.272755 1.55222 0
M  V30 20 C 2.8891 -0.84378 1.66545 0
M  V30 21 C 3.2401 -1.87035 0.592641 0
M  V30 22 O 2.3651 -2.14761 -0.265818 0
M  V30 23 C 2.9601 -1.53723 3.01918 0
M  V30 24 C 1.5191 -2.05628 3.15268 0
M  V30 25 C 0.6661 -0.898424 2.62343 0
M  V30 26 H 3.6171 -0.0490998 1.58624 0
M  V30 27 H 3.6381 -2.40421 2.94921 0
M  V30 28 H 3.1501 -0.78983 3.79978 0
M  V30 29 H 1.2511 -2.83329 2.41983 0
M  V30 30 H 1.3641 -2.27142 4.21833 0
M  V30 31 H -0.2719 -1.29186 2.19506 0
M  V30 32 H 0.5111 -0.164528 3.42906 0
M  V30 33 N 2.9562 -1.48159 -0.537278 0
M  V30 34 C 4.3672 -1.49429 -1.11928 0
M  V30 35 C 4.7182 -0.26 -1.9447 0
M  V30 36 O 3.8432 0.633489 -2.0692 0
M  V30 37 C 4.4382 -2.70758 -2.03656 0
M  V30 38 C 2.9972 -2.74923 -2.57088 0
M  V30 39 C 2.1442 -2.42835 -1.3389 0
M  V30 40 H 5.0952 -1.55381 -0.322886 0
M  V30 41 H 5.1162 -2.48861 -2.87834 0
M  V30 42 H 4.6282 -3.60575 -1.43553 0
M  V30 43 H 2.7292 -1.89296 -3.20933 0
M  V30 44 H 2.8422 -3.76157 -2.9672 0
M  V30 45 H 1.2062 -1.93836 -1.65226 0
M  V30 46 H 1.9892 -3.34884 -0.755504 0
M  V30 47 N 4.4343 0.785586 -1.36625 0
M  V30 48 C 5.6593 1.57963 -1.34397 0
M  V30 49 C 6.0843 1.87964 0.071526 0
M  V30 50 O 5.4423 1.48182 1.0446 0
M  V30 51 C 5.4903 2.87511 -2.17646 0
M  V30 52 O 4.5943 3.81281 -1.57158 0
M  V30 53 H 3.9353 0.479014 -0.459828 0
M  V30 54 H 6.4653 0.973411 -1.79961 0
M  V30 55 H 6.4753 3.36745 -2.30362 0
M  V30 56 H 5.1503 2.65002 -3.20541 0
M  V30 57 H 3.7273 3.39885 -1.53403 0
M  V30 58 N 5.9124 1.20967 1.01018 0
M  V30 59 C 7.1614 1.01796 1.74128 0
M  V30 60 C 7.4744 -0.449691 1.90361 0
M  V30 61 O 8.6804 -0.76068 2.60626 0
M  V30 62 C 7.1364 1.7727 3.13215 0
M  V30 63 C 6.7444 3.28171 3.04972 0
M  V30 64 C 8.4884 1.66489 3.90489 0
M  V30 65 C 6.3954 3.96156 4.39107 0
M  V30 66 H 5.3254 0.377276 0.652824 0
M  V30 67 H 7.9764 1.44651 1.12909 0
M  V30 68 H 6.3584 1.27205 3.75013 0
M  V30 69 H 7.5324 3.85499 2.52443 0
M  V30 70 H 5.8474 3.39437 2.41188 0
M  V30 71 H 8.4444 2.14617 4.89738 0
M  V30 72 H 8.7874 0.6222 4.11624 0
M  V30 73 H 9.3204 2.14003 3.35332 0
M  V30 74 H 6.0594 5.00604 4.23174 0
M  V30 75 H 5.5794 3.43617 4.91617 0
M  V30 76 H 7.2584 4.00774 5.07926 0
M  V30 77 N 7.3905 -1.2043 1.01659 0
M  V30 78 C 8.6155 -1.94318 0.724942 0
M  V30 79 C 9.0405 -1.74266 -0.708034 0
M  V30 80 O 8.3985 -1.03694 -1.48719 0
M  V30 81 C 8.4465 -3.44486 1.06591 0
M  V30 82 O 7.5505 -4.12017 0.177599 0
M  V30 83 H 6.8915 -0.60708 0.26898 0
M  V30 84 H 9.4215 -1.52861 1.35995 0
M  V30 85 H 9.4315 -3.95106 1.01762 0
M  V30 86 H 8.1065 -3.58404 2.10997 0
M  V30 87 H 6.6835 -3.71821 0.283421 0
M  V30 88 N 8.8686 -0.792821 -1.36206 0
M  V30 89 C 9.8316 -0.199459 -2.2833 0
M  V30 90 C 10.8316 0.605189 -1.48977 0
M  V30 91 O 12.0216 0.425685 -1.68919 0
M  V30 92 C 9.1536 0.723523 -3.33134 0
M  V30 93 H 10.3466 -1.01181 -2.82316 0
M  V30 94 H 7.8996 -0.562485 -1.45828 0
M  V30 95 H 8.6346 1.56008 -2.84309 0
M  V30 96 H 8.4196 0.148436 -3.91819 0
M  V30 97 H 9.9096 1.13344 -4.01924 0
M  V30 98 N 10.3467 1.47872 -0.545128 0
M  V30 99 C 11.5937 2.02493 -0.0165858 0
M  V30 100 C 11.9217 1.42073 1.32836 0
M  V30 101 O 11.1767 0.561459 1.87473 0
M  V30 102 C 11.4757 3.57131 0.13867 0
M  V30 103 C 11.1417 4.36411 -1.13384 0
M  V30 104 C 9.8037 4.57792 -1.48256 0
M  V30 105 C 12.1557 4.82223 -1.97764 0
M  V30 106 C 9.4837 5.22233 -2.67376 0
M  V30 107 C 11.8357 5.47977 -3.16076 0
M  V30 108 C 10.4997 5.67593 -3.51275 0
M  V30 109 H 9.7697 0.740975 -0.00606918 0
M  V30 110 H 12.4167 1.77683 -0.714207 0
M  V30 111 H 10.7217 3.80865 0.919172 0
M  V30 112 H 12.4187 3.97031 0.562782 0
M  V30 113 H 9.0087 4.2004 -0.852297 0
M  V30 114 H 13.1927 4.65493 -1.72132 0
M  V30 115 H 8.4487 5.35616 -2.94831 0
M  V30 116 H 12.6227 5.8244 -3.81755 0
M  V30 117 H 10.2497 6.17298 -4.43675 0
M  V30 118 N 11.8248 0.280983 1.55075 0
M  V30 119 C 12.7568 -0.637268 2.20163 0
M  V30 120 C 13.7698 -1.11298 1.18813 0
M  V30 121 O 14.9588 -1.03388 1.4551 0
M  V30 122 C 12.0588 -1.88199 2.81841 0
M  V30 123 C 11.2318 -1.55211 4.08936 0
M  V30 124 C 10.2908 -2.64991 4.54606 0
M  V30 125 O 9.3168 -2.30929 5.2025 0
M  V30 126 N 10.5188 -3.95161 4.25238 0
M  V30 127 H 13.2838 -0.0801694 2.99593 0
M  V30 128 H 10.8448 0.102329 1.61576 0
M  V30 129 H 12.8368 -2.60948 3.09335 0
M  V30 130 H 11.4068 -2.34799 2.06369 0
M  V30 131 H 10.6268 -0.658185 3.88666 0
M  V30 132 H 11.9148 -1.30681 4.91732 0
M  V30 133 H 11.3128 -4.25653 3.72607 0
M  V30 134 H 9.8698 -4.6427 4.5749 0
M  V30 135 N 13.3029 -1.57598 0.00835791 0
M  V30 136 C 14.2659 -2.07884 -0.965242 0
M  V30 137 C 15.2659 -0.989825 -1.26725 0
M  V30 138 O 16.4559 -1.25218 -1.21104 0
M  V30 139 C 13.5879 -2.52731 -2.28779 0
M  V30 140 H 14.7809 -2.95178 -0.530112 0
M  V30 141 H 12.3339 -1.54458 -0.239283 0
M  V30 142 H 13.0689 -1.68705 -2.76964 0
M  V30 143 H 12.8539 -3.32272 -2.08177 0
M  V30 144 H 14.3439 -2.91933 -2.98605 0
M  V30 145 N 14.781 0.264519 -1.55364 0
M  V30 146 C 15.744 1.31046 -1.88042 0
M  V30 147 C 16.744 1.41943 -0.755569 0
M  V30 148 O 17.934 1.40947 -1.02369 0
M  V30 149 C 15.066 2.69067 -2.09323 0
M  V30 150 H 16.259 1.03297 -2.81549 0
M  V30 151 H 13.812 0.502989 -1.47986 0
M  V30 152 H 14.547 3.01982 -1.18226 0
M  V30 153 H 14.332 2.62542 -2.91229 0
M  V30 154 H 15.822 3.44623 -2.35848 0
M  V30 155 N 16.2591 1.48442 0.529413 0
M  V30 156 C 17.4891 1.59919 1.30804 0
M  V30 157 C 17.8971 0.258792 1.87422 0
M  V30 158 O 17.2401 -0.762096 1.67146 0
M  V30 159 C 17.3021 2.58693 2.49636 0
M  V30 160 C 16.9661 4.03745 2.14101 0
M  V30 161 C 17.9631 4.9141 1.6974 0
M  V30 162 C 15.6481 4.49285 2.24607 0
M  V30 163 C 17.6421 6.22645 1.36351 0
M  V30 164 C 15.3291 5.8054 1.9083 0
M  V30 165 C 16.3271 6.67043 1.46773 0
M  V30 166 O 16.0151 7.95856 1.1344 0
M  V30 167 H 15.7471 0.541981 0.404021 0
M  V30 168 H 18.3011 1.95 0.645309 0
M  V30 169 H 16.5311 2.18734 3.18892 0
M  V30 170 H 18.2201 2.59999 3.11698 0
M  V30 171 H 18.9861 4.57465 1.61094 0
M  V30 172 H 14.8651 3.82142 2.57854 0
M  V30 173 H 18.4091 6.90119 1.01891 0
M  V30 174 H 14.3061 6.14022 1.99117 0
M  V30 175 H 15.0741 8.08613 1.26832 0
M  V30 176 N 17.7372 -0.778329 1.37039 0
M  V30 177 C 18.9862 -1.53189 1.3121 0
M  V30 178 C 19.2992 -1.95328 -0.103095 0
M  V30 179 O 20.5052 -2.70012 -0.283826 0
M  V30 180 C 18.9612 -2.76591 2.30272 0
M  V30 181 C 18.5692 -2.41577 3.77286 0
M  V30 182 C 20.3132 -3.5455 2.33441 0
M  V30 183 C 18.2202 -3.61441 4.68096 0
M  V30 184 H 17.1502 -0.5751 0.487622 0
M  V30 185 H 19.8012 -0.853101 1.62464 0
M  V30 186 H 18.1832 -3.46326 1.92027 0
M  V30 187 H 19.3572 -1.79668 4.2433 0
M  V30 188 H 17.6722 -1.76806 3.76999 0
M  V30 189 H 20.2692 -4.43628 2.98493 0
M  V30 190 H 20.6122 -3.93936 1.34611 0
M  V30 191 H 21.1452 -2.91805 2.7036 0
M  V30 192 H 17.8842 -3.27142 5.6803 0
M  V30 193 H 17.4042 -4.22478 4.25761 0
M  V30 194 H 19.0832 -4.28335 4.8491 0
M  V30 195 N 19.2153 -1.21501 -1.00376 0
M  V30 196 C 20.4633 -1.03095 -1.73827 0
M  V30 197 C 20.7843 0.436341 -1.90055 0
M  V30 198 O 20.0543 1.31466 -1.45236 0
M  V30 199 H 18.6343 -0.378487 -0.644016 0
M  V30 200 H 21.2963 -1.52831 -1.20949 0
M  V30 201 H 20.3923 -1.49991 -2.73695 0
M  V30 202 N 20.6934 1.19889 -1.02296 0
M  V30 203 C 21.9424 1.88743 -0.711257 0
M  V30 204 C 22.2554 1.80112 0.762817 0
M  V30 205 O 23.4614 2.44161 1.18733 0
M  V30 206 C 21.9174 3.38525 -1.22185 0
M  V30 207 C 21.5254 3.55727 -2.72328 0
M  V30 208 C 23.2694 4.12893 -0.985864 0
M  V30 209 C 21.1764 4.99369 -3.16835 0
M  V30 210 H 20.1064 0.706885 -0.262353 0
M  V30 211 H 22.7574 1.35586 -1.23648 0
M  V30 212 H 21.1394 3.91044 -0.624571 0
M  V30 213 H 22.3134 3.13564 -3.3766 0
M  V30 214 H 20.6284 2.94739 -2.9414 0
M  V30 215 H 23.2254 5.18813 -1.29374 0
M  V30 216 H 23.5684 4.16228 0.0775055 0
M  V30 217 H 24.1014 3.66494 -1.54684 0
M  V30 218 H 20.8404 5.01193 -4.22476 0
M  V30 219 H 20.3604 5.42317 -2.56228 0
M  V30 220 H 22.0394 5.67988 -3.09837 0
M  V30 221 N 22.1715 0.800033 1.35784 0
M  V30 222 C 23.0815 0.207204 2.33683 0
M  V30 223 C 24.0975 -0.64631 1.61551 0
M  V30 224 O 25.2735 -0.559604 1.93469 0
M  V30 225 C 22.3385 -0.639659 3.40748 0
M  V30 226 C 21.3995 0.233585 4.28664 0
M  V30 227 C 20.6325 -0.572954 5.30616 0
M  V30 228 O 20.8555 -1.80816 5.40982 0
M  V30 229 O 19.7895 0.0327285 6.01891 0
M  V30 230 H 23.6155 1.01692 2.86169 0
M  V30 231 H 21.2005 0.561691 1.38439 0
M  V30 232 H 23.0825 -1.12223 4.06182 0
M  V30 233 H 21.7575 -1.42708 2.90544 0
M  V30 234 H 20.6645 0.763147 3.66233 0
M  V30 235 H 21.9975 0.984784 4.82248 0
M  V30 236 N 23.6496 -1.47581 0.552962 0
M  V30 237 C 24.8956 -2.02782 0.0273648 0
M  V30 238 C 25.2286 -1.42687 -1.31734 0
M  V30 239 O 24.5036 -0.580897 -1.85623 0
M  V30 240 C 24.7866 -3.60031 -0.0702371 0
M  V30 241 C 24.6396 -4.30566 1.30126 0
M  V30 242 C 25.9586 -4.33028 -0.785771 0
M  V30 243 H 23.0776 -0.736912 0.0114185 0
M  V30 244 H 25.7196 -1.76056 0.714432 0
M  V30 245 H 23.8696 -3.82932 -0.655382 0
M  V30 246 H 25.5416 -4.19018 1.92929 0
M  V30 247 H 23.7846 -3.91086 1.87709 0
M  V30 248 H 24.4556 -5.39114 1.18573 0
M  V30 249 H 26.9316 -4.15095 -0.288982 0
M  V30 250 H 25.8076 -5.42695 -0.823013 0
M  V30 251 H 26.0686 -4.01945 -1.841 0
M  V30 252 N 25.1277 -0.289203 -1.54924 0
M  V30 253 C 26.0577 0.58549 -2.2604 0
M  V30 254 C 27.0387 1.14753 -1.25562 0
M  V30 255 O 28.2237 1.17906 -1.54311 0
M  V30 256 C 25.3537 1.76305 -2.99222 0
M  V30 257 C 24.3077 1.33191 -4.06748 0
M  V30 258 C 23.6337 2.5937 -4.6758 0
M  V30 259 C 24.9337 0.471775 -5.20165 0
M  V30 260 H 26.6277 -0.00763532 -2.99399 0
M  V30 261 H 24.1737 -0.00511229 -1.43999 0
M  V30 262 H 26.1267 2.38097 -3.47689 0
M  V30 263 H 24.8507 2.38223 -2.23422 0
M  V30 264 H 23.5097 0.737121 -3.59113 0
M  V30 265 H 23.1577 3.19576 -3.88433 0
M  V30 266 H 22.8577 2.31228 -5.40192 0
M  V30 267 H 24.3817 3.21985 -5.18804 0
M  V30 268 H 25.7957 0.995056 -5.64599 0
M  V30 269 H 24.1927 0.284639 -5.99425 0
M  V30 270 H 25.2627 -0.506041 -4.82252 0
M  V30 271 N 26.6058 1.57591 -0.0167156 0
M  V30 272 C 27.8548 1.90461 0.663877 0
M  V30 273 C 28.1678 0.893515 1.73999 0
M  V30 274 O 29.3738 1.11302 2.47637 0
M  V30 275 C 27.8298 3.38155 1.23204 0
M  V30 276 C 27.4378 4.47597 0.189866 0
M  V30 277 C 29.1818 3.80111 1.88986 0
M  V30 278 C 27.0888 5.86379 0.768964 0
M  V30 279 H 26.0188 0.710738 0.251729 0
M  V30 280 H 28.6698 1.83326 -0.0799926 0
M  V30 281 H 27.0518 3.40182 2.02712 0
M  V30 282 H 28.2258 4.57112 -0.581846 0
M  V30 283 H 26.5408 4.14766 -0.368475 0
M  V30 284 H 29.1378 4.81145 2.33247 0
M  V30 285 H 29.4808 3.14511 2.72743 0
M  V30 286 H 30.0138 3.80454 1.16187 0
M  V30 287 H 26.7528 6.55493 -0.0301957 0
M  V30 288 H 26.2728 5.80496 1.50945 0
M  V30 289 H 27.9518 6.34563 1.26251 0
M  V30 290 N 28.0839 -0.256276 1.55502 0
M  V30 291 C 29.0469 -1.30047 1.88734 0
M  V30 292 C 30.0469 -1.4154 0.763086 0
M  V30 293 O 31.2369 -1.40403 1.03115 0
M  V30 294 C 28.3689 -2.67953 2.10747 0
M  V30 295 H 29.5619 -1.01802 2.82093 0
M  V30 296 H 27.1149 -0.495134 1.4825 0
M  V30 297 H 27.8499 -3.01351 1.19825 0
M  V30 298 H 27.6349 -2.60993 2.92617 0
M  V30 299 H 29.1249 -3.43368 2.37673 0
M  V30 300 N 29.562 -1.4872 -0.521534 0
M  V30 301 C 30.492 -1.66771 -1.63431 0
M  V30 302 C 31.473 -0.516499 -1.62069 0
M  V30 303 O 32.658 -0.750013 -1.79132 0
M  V30 304 C 29.788 -1.71515 -3.01993 0
M  V30 305 C 28.742 -2.86222 -3.18216 0
M  V30 306 C 28.068 -2.76061 -4.57924 0
M  V30 307 C 29.368 -4.27419 -3.00184 0
M  V30 308 H 31.062 -2.59932 -1.48579 0
M  V30 309 H 28.608 -1.25089 -0.713358 0
M  V30 310 H 30.561 -1.82731 -3.7972 0
M  V30 311 H 29.285 -0.749393 -3.17886 0
M  V30 312 H 27.944 -2.74575 -2.42908 0
M  V30 313 H 27.592 -1.77437 -4.70665 0
M  V30 314 H 27.292 -3.53037 -4.69722 0
M  V30 315 H 28.816 -2.89256 -5.37739 0
M  V30 316 H 30.23 -4.39855 -3.67697 0
M  V30 317 H 28.627 -5.05458 -3.2347 0
M  V30 318 H 29.697 -4.43293 -1.96518 0
M  V30 319 N 31.0401 0.771051 -1.3745 0
M  V30 320 C 32.2861 1.5319 -1.32894 0
M  V30 321 C 32.6191 1.94008 0.0862511 0
M  V30 322 O 31.8941 1.64124 1.04373 0
M  V30 323 C 32.1771 2.79648 -2.26868 0
M  V30 324 C 32.0301 2.45079 -3.77169 0
M  V30 325 C 33.3491 3.81583 -2.19277 0
M  V30 326 H 30.4681 0.555744 -0.484064 0
M  V30 327 H 33.1101 0.884492 -1.68157 0
M  V30 328 H 31.2601 3.34891 -1.96926 0
M  V30 329 H 32.9321 1.95745 -4.1771 0
M  V30 330 H 31.1751 1.77767 -3.95704 0
M  V30 331 H 31.8461 3.35478 -4.38359 0
M  V30 332 H 34.3221 3.35835 -2.45671 0
M  V30 333 H 33.1981 4.67787 -2.87171 0
M  V30 334 H 33.4591 4.25897 -1.18592 0
M  V30 335 N 32.5182 1.22032 0.997298 0
M  V30 336 C 33.7432 1.06921 1.77715 0
M  V30 337 C 34.1682 -0.376226 1.84299 0
M  V30 338 O 33.5262 -1.27165 1.29223 0
M  V30 339 C 33.5742 1.67996 3.19076 0
M  V30 340 O 32.6782 0.930653 4.01762 0
M  V30 341 H 32.0192 0.375814 0.547412 0
M  V30 342 H 34.5492 1.61737 1.25309 0
M  V30 343 H 34.5592 1.72538 3.69723 0
M  V30 344 H 33.2342 2.73182 3.13599 0
M  V30 345 H 31.8112 0.960917 3.60307 0
M  V30 346 N 33.9963 -1.19345 1.0293 0
M  V30 347 C 35.2423 -1.89318 0.727083 0
M  V30 348 C 35.5753 -1.79446 -0.742483 0
M  V30 349 O 34.8503 -1.1871 -1.54072 0
M  V30 350 C 35.1333 -3.40238 1.17942 0
M  V30 351 C 34.9863 -3.58979 2.71024 0
M  V30 352 C 36.3053 -4.33479 0.760548 0
M  V30 353 H 33.4243 -0.687475 0.265606 0
M  V30 354 H 36.0663 -1.40477 1.2793 0
M  V30 355 H 34.2163 -3.81964 0.709608 0
M  V30 356 H 35.8883 -3.26421 3.25955 0
M  V30 357 H 34.1313 -3.02018 3.11396 0
M  V30 358 H 34.8023 -4.64823 2.9773 0
M  V30 359 H 37.2783 -3.99469 1.16464 0
M  V30 360 H 36.1543 -5.37664 1.10493 0
M  V30 361 H 36.4153 -4.40813 -0.337063 0
M  V30 362 N 35.4744 -0.807222 -1.35358 0
M  V30 363 C 36.8854 -0.44876 -1.81226 0
M  V30 364 C 37.2364 1.02929 -1.67033 0
M  V30 365 O 36.3614 1.79991 -1.20133 0
M  V30 366 C 36.9564 -0.807774 -3.2903 0
M  V30 367 C 35.5154 -0.501901 -3.73039 0
M  V30 368 C 34.6624 -1.03304 -2.57339 0
M  V30 369 H 37.6134 -0.998808 -1.23327 0
M  V30 370 H 37.6344 -0.10554 -3.80354 0
M  V30 371 H 37.1464 -1.88357 -3.39328 0
M  V30 372 H 35.2474 0.565128 -3.68289 0
M  V30 373 H 35.3604 -1.03497 -4.67787 0
M  V30 374 H 33.7244 -0.455339 -2.50597 0
M  V30 375 H 34.5074 -2.11496 -2.70415 0
M  V30 376 N 36.9525 1.47285 -0.560781 0
M  V30 377 C 38.2005 2.02064 -0.0379868 0
M  V30 378 C 38.5215 1.43711 1.31803 0
M  V30 379 O 37.7915 0.61362 1.86042 0
M  V30 380 H 36.3715 0.746918 -0.0110531 0
M  V30 381 H 39.0335 1.80648 -0.731598 0
M  V30 382 H 38.1295 3.12064 0.0474463 0
M  V30 383 N 38.4306 0.297415 1.54768 0
M  V30 384 C 39.3786 -0.596051 2.24833 0
M  V30 385 C 40.3726 -1.13992 1.25308 0
M  V30 386 O 41.5786 -1.09098 1.4317 0
M  V30 387 H 37.9536 -0.210814 0.721846 0
M  V30 388 H 39.9246 0.0174667 2.98395 0
M  V30 389 C 38.6736 -1.75818 2.99972 0
M  V30 390 H 37.9966 -1.3489 3.76357 0
M  V30 391 H 39.4366 -2.35949 3.52284 0
M  V30 392 C 37.8956 -2.66014 2.06732 0
M  V30 393 O 38.4256 -3.67009 1.63302 0
M  V30 394 N 36.6316 -2.33669 1.72763 0
M  V30 395 H 36.1786 -1.51586 2.08277 0
M  V30 396 H 36.1366 -2.94285 1.10652 0
M  V30 397 N 39.9087 -1.5758 0.0250728 0
M  V30 398 C 41.1547 -1.91917 -0.655413 0
M  V30 399 C 41.4877 -0.901433 -1.72011 0
M  V30 400 O 40.7627 0.0764069 -1.9435 0
M  V30 401 C 41.0457 -3.36751 -1.27558 0
M  V30 402 C 40.8987 -4.49258 -0.220719 0
M  V30 403 C 42.2177 -3.81469 -2.19475 0
M  V30 404 H 39.3367 -0.697925 -0.23679 0
M  V30 405 H 41.9787 -1.89825 0.0815036 0
M  V30 406 H 40.1287 -3.38664 -1.90365 0
M  V30 407 H 41.8007 -4.59478 0.409601 0
M  V30 408 H 40.0437 -4.31415 0.454264 0
M  V30 409 H 40.7147 -5.47618 -0.694175 0
M  V30 410 H 43.1907 -3.81266 -1.66659 0
M  V30 411 H 42.0667 -4.83512 -2.59822 0
M  V30 412 H 42.3277 -3.16744 -3.08424 0
M  V30 413 N 41.3868 0.248026 -1.55636 0
M  V30 414 C 42.3168 1.31079 -1.93237 0
M  V30 415 C 43.2978 1.50264 -0.797174 0
M  V30 416 O 44.4828 1.62891 -1.05737 0
M  V30 417 C 41.6128 2.66575 -2.22609 0
M  V30 418 C 40.5668 2.62087 -3.3837 0
M  V30 419 C 39.8928 4.01369 -3.53281 0
M  V30 420 C 41.1928 2.19171 -4.7409 0
M  V30 421 H 42.8868 0.998556 -2.82257 0
M  V30 422 H 40.4328 0.47891 -1.35803 0
M  V30 423 H 42.3858 3.41057 -2.47503 0
M  V30 424 H 41.1098 2.99432 -1.30414 0
M  V30 425 H 39.7688 1.90063 -3.13483 0
M  V30 426 H 39.4168 4.31489 -2.58508 0
M  V30 427 H 39.1168 3.99254 -4.31127 0
M  V30 428 H 40.6408 4.77552 -3.80495 0
M  V30 429 H 42.0548 2.83384 -4.98363 0
M  V30 430 H 40.4518 2.2817 -5.5503 0
M  V30 431 H 41.5218 1.14336 -4.71227 0
M  V30 432 N 42.8649 1.48995 0.513639 0
M  V30 433 C 44.1109 1.58076 1.27042 0
M  V30 434 C 44.4439 0.261026 1.92438 0
M  V30 435 O 43.7189 -0.734393 1.80103 0
M  V30 436 C 44.0019 2.73091 2.34719 0
M  V30 437 C 43.8549 4.14821 1.73907 0
M  V30 438 C 45.1739 2.83796 3.36375 0
M  V30 439 H 42.2929 0.575391 0.460536 0
M  V30 440 H 44.9349 1.81232 0.570516 0
M  V30 441 H 43.0849 2.53479 2.94416 0
M  V30 442 H 44.7569 4.45917 1.18135 0
M  V30 443 H 42.9999 4.21058 1.0437 0
M  V30 444 H 43.6709 4.91147 2.51949 0
M  V30 445 H 46.1469 3.01611 2.86653 0
M  V30 446 H 45.0229 3.65971 4.09093 0
M  V30 447 H 45.2839 1.92624 3.9793 0
M  V30 448 N 44.343 -0.763751 1.37857 0
M  V30 449 C 45.592 -1.51789 1.32827 0
M  V30 450 C 45.905 -1.95426 -0.0823719 0
M  V30 451 O 47.111 -2.70298 -0.255172 0
M  V30 452 C 45.567 -2.74133 2.33193 0
M  V30 453 C 45.175 -2.37562 3.79827 0
M  V30 454 C 46.919 -3.52054 2.37188 0
M  V30 455 C 44.826 -3.56456 4.71904 0
M  V30 456 H 43.756 -0.569896 0.493695 0
M  V30 457 H 46.407 -0.835822 1.63359 0
M  V30 458 H 44.789 -3.4427 1.9569 0
M  V30 459 H 45.963 -1.75157 4.26212 0
M  V30 460 H 44.278 -1.72798 3.78853 0
M  V30 461 H 46.875 -4.40437 3.03182 0
M  V30 462 H 47.218 -3.92486 1.38782 0
M  V30 463 H 47.751 -2.88921 2.7344 0
M  V30 464 H 44.49 -3.21099 5.71468 0
M  V30 465 H 44.01 -4.17938 4.30218 0
M  V30 466 H 45.689 -4.23168 4.89426 0
M  V30 467 N 45.8211 -1.22559 -0.990812 0
M  V30 468 C 47.0671 -1.06303 -1.73411 0
M  V30 469 C 47.4221 0.397442 -1.8825 0
M  V30 470 O 46.7151 1.29062 -1.41611 0
M  V30 471 C 46.9091 -1.71011 -3.13831 0
M  V30 472 C 46.7381 -3.232 -3.12685 0
M  V30 473 C 45.5081 -3.92314 -3.18461 0
M  V30 474 C 47.7061 -4.20107 -2.96673 0
M  V30 475 N 45.6881 -5.31571 -3.07091 0
M  V30 476 C 47.0591 -5.46208 -2.93354 0
M  V30 477 C 49.1141 -4.10973 -2.8108 0
M  V30 478 C 47.8171 -6.64225 -2.76039 0
M  V30 479 C 49.8431 -5.28642 -2.65126 0
M  V30 480 C 49.2051 -6.53663 -2.62496 0
M  V30 481 H 45.3041 -0.443441 -0.644115 0
M  V30 482 H 47.8881 -1.55131 -1.17654 0
M  V30 483 H 46.0591 -1.2473 -3.67827 0
M  V30 484 H 47.7911 -1.47828 -3.76735 0
M  V30 485 H 44.5461 -3.43326 -3.26227 0
M  V30 486 H 44.9701 -6.0455 -3.0471 0
M  V30 487 H 49.6121 -3.15098 -2.8191 0
M  V30 488 H 47.3301 -7.60246 -2.73954 0
M  V30 489 H 50.9161 -5.23407 -2.54039 0
M  V30 490 H 49.7961 -7.43182 -2.50302 0
M  V30 491 N 47.2992 1.18797 -1.03562 0
M  V30 492 C 48.2622 2.20464 -0.626769 0
M  V30 493 C 49.2622 1.57721 0.313173 0
M  V30 494 O 50.4522 1.73917 0.0992615 0
M  V30 495 C 47.5842 3.40802 0.0818498 0
M  V30 496 H 48.7772 2.58149 -1.5264 0
M  V30 497 H 46.3302 1.32593 -0.827578 0
M  V30 498 H 47.0652 3.08642 0.995518 0
M  V30 499 H 46.8502 3.8758 -0.593652 0
M  V30 500 H 48.3402 4.16092 0.354584 0
M  V30 501 N 48.7773 0.814389 1.34928 0
M  V30 502 C 50.0233 0.399013 1.98836 0
M  V30 503 C 50.3563 -1.03314 1.64438 0
M  V30 504 O 49.6313 -1.71811 0.911659 0
M  V30 505 C 49.9143 0.591629 3.55207 0
M  V30 506 C 49.7673 2.06928 3.99376 0
M  V30 507 C 51.0863 0.022199 4.40094 0
M  V30 508 H 48.2053 0.146451 0.722303 0
M  V30 509 H 50.8473 1.02537 1.59957 0
M  V30 510 H 48.9973 0.0584441 3.88456 0
M  V30 511 H 50.6693 2.66544 3.76499 0
M  V30 512 H 48.9123 2.56287 3.49999 0
M  V30 513 H 49.5833 2.1549 5.08201 0
M  V30 514 H 52.0593 0.477643 4.13349 0
M  V30 515 H 50.9353 0.186832 5.48582 0
M  V30 516 H 51.1963 -1.07215 4.28902 0
M  V30 517 N 50.2554 -1.46986 0.568584 0
M  V30 518 C 51.2024 -2.30153 -0.172707 0
M  V30 519 C 52.1724 -1.39759 -0.897586 0
M  V30 520 O 53.3574 -1.68716 -0.891044 0
M  V30 521 C 50.4974 -3.23952 -1.1895 0
M  V30 522 C 49.6104 -4.29441 -0.469517 0
M  V30 523 C 48.7454 -5.1038 -1.47259 0
M  V30 524 C 47.7844 -6.07632 -0.738225 0
M  V30 525 N 46.9214 -6.8149 -1.68868 0
M  V30 526 H 51.7614 -2.93019 0.542596 0
M  V30 527 H 49.2984 -1.44422 0.279401 0
M  V30 528 H 51.2564 -3.76767 -1.79173 0
M  V30 529 H 49.8864 -2.62926 -1.87269 0
M  V30 530 H 48.9384 -3.79594 0.247467 0
M  V30 531 H 50.2504 -4.98689 0.105241 0
M  V30 532 H 49.4044 -5.67402 -2.14803 0
M  V30 533 H 48.1434 -4.4106 -2.08128 0
M  V30 534 H 47.1484 -5.49778 -0.0489293 0
M  V30 535 H 48.3734 -6.78966 -0.135129 0
M  V30 536 H 46.3194 -6.14891 -2.28573 0
M  V30 537 H 46.2364 -7.46948 -1.16636 0
M  V30 538 H 47.5044 -7.43078 -2.3549 0
M  V30 539 N 51.7335 -0.305618 -1.54608 0
M  V30 540 C 52.9795 0.302746 -2.00528 0
M  V30 541 C 53.3125 1.53184 -1.19367 0
M  V30 542 O 52.5875 1.92598 -0.271321 0
M  V30 543 C 52.8705 0.654756 -3.54097 0
M  V30 544 C 52.7235 -0.583793 -4.45995 0
M  V30 545 C 54.0425 1.47947 -4.14487 0
M  V30 546 H 51.1615 0.108564 -0.72896 0
M  V30 547 H 53.8035 -0.418634 -1.85331 0
M  V30 548 H 51.9535 1.26935 -3.67178 0
M  V30 549 H 53.6255 -1.22224 -4.44814 0
M  V30 550 H 51.8685 -1.21615 -4.16404 0
M  V30 551 H 52.5395 -0.293287 -5.5122 0
M  V30 552 H 55.0155 0.96013 -4.04871 0
M  V30 553 H 53.8915 1.69454 -5.22088 0
M  V30 554 H 54.1525 2.47011 -3.66658 0
M  V30 555 N 53.2116 1.57565 -0.0334293 0
M  V30 556 C 54.1596 2.1164 0.96496 0
M  V30 557 C 55.1536 1.04398 1.33407 0
M  V30 558 O 56.3596 1.22828 1.3158 0
M  V30 559 H 52.7346 0.676222 0.32898 0
M  V30 560 H 54.7056 2.94455 0.483614 0
M  V30 561 C 53.4546 2.66207 2.23672 0
M  V30 562 H 52.7776 3.48378 1.96145 0
M  V30 563 H 54.2176 3.07685 2.9173 0
M  V30 564 C 52.6766 1.59151 2.96939 0
M  V30 565 O 53.2066 0.993858 3.89211 0
M  V30 566 N 51.4126 1.31093 2.59351 0
M  V30 567 H 50.9596 1.7988 1.84393 0
M  V30 568 H 50.9176 0.596889 3.08682 0
M  V30 569 N 54.6897 -0.239769 1.55765 0
M  V30 570 C 55.6217 -1.32001 1.87372 0
M  V30 571 C 56.6347 -1.43944 0.760522 0
M  V30 572 O 57.8237 -1.45167 1.0387 0
M  V30 573 C 54.9237 -2.69779 2.05115 0
M  V30 574 C 54.0967 -2.80014 3.36022 0
M  V30 575 C 53.1557 -3.98684 3.4342 0
M  V30 576 O 52.1817 -3.87877 4.16582 0
M  V30 577 N 53.3837 -5.12176 2.73232 0
M  V30 578 H 56.1487 -1.0522 2.80622 0
M  V30 579 H 53.7097 -0.429857 1.56089 0
M  V30 580 H 55.7017 -3.47517 2.07399 0
M  V30 581 H 54.2717 -2.89237 1.18577 0
M  V30 582 H 53.4917 -1.88896 3.45994 0
M  V30 583 H 54.7797 -2.83808 4.22292 0
M  V30 584 H 54.1777 -5.2385 2.13536 0
M  V30 585 H 52.7347 -5.88022 2.81199 0
M  V30 586 N 56.1678 -1.49265 -0.50573 0
M  V30 587 C 57.1308 -1.65075 -1.59006 0
M  V30 588 C 58.1308 -0.522768 -1.52065 0
M  V30 589 O 59.3208 -0.789117 -1.55302 0
M  V30 590 C 56.4528 -1.64369 -2.98656 0
M  V30 591 H 57.6458 -2.61784 -1.46319 0
M  V30 592 H 55.1988 -1.38226 -0.729616 0
M  V30 593 H 55.9338 -0.692272 -3.16825 0
M  V30 594 H 55.7188 -2.46282 -3.05103 0
M  V30 595 H 57.2088 -1.78674 -3.77446 0
M  V30 596 N 57.6459 0.756429 -1.3826 0
M  V30 597 C 58.5759 1.88374 -1.37976 0
M  V30 598 C 59.5569 1.68311 -0.246082 0
M  V30 599 O 60.7419 1.88944 -0.44874 0
M  V30 600 C 57.8719 3.25864 -1.20125 0
M  V30 601 C 56.8259 3.60523 -2.30666 0
M  V30 602 C 56.1519 4.9672 -1.97923 0
M  V30 603 C 57.4519 3.65692 -3.72916 0
M  V30 604 H 59.1459 1.88869 -2.32312 0
M  V30 605 H 56.6919 0.907272 -1.11824 0
M  V30 606 H 58.6449 4.0438 -1.18552 0
M  V30 607 H 57.3689 3.25841 -0.222498 0
M  V30 608 H 56.0279 2.84324 -2.3142 0
M  V30 609 H 55.6759 4.93253 -0.985393 0
M  V30 610 H 55.3759 5.20878 -2.71955 0
M  V30 611 H 56.8999 5.77618 -1.97964 0
M  V30 612 H 58.3139 4.34328 -3.74208 0
M  V30 613 H 56.7109 4.01358 -4.4613 0
M  V30 614 H 57.7809 2.65987 -4.05436 0
M  V30 615 N 59.124 1.23083 0.984299 0
M  V30 616 C 60.54 0.992637 1.24975 0
M  V30 617 C 60.74 -0.308618 1.99123 0
M  V30 618 O 59.796 -1.02905 2.30579 0
M  V30 619 C 61.109 2.19698 2.05312 0
M  V30 620 C 62.657 2.24147 2.18465 0
M  V30 621 C 63.132 3.44157 3.02192 0
M  V30 622 N 64.623 3.44372 3.09777 0
M  V30 623 C 65.358 4.33886 3.74874 0
M  V30 624 N 64.854 5.3363 4.41827 0
M  V30 625 N 66.647 4.21639 3.71721 0
M  V30 626 H 58.798 2.06731 0.487453 0
M  V30 627 H 61.061 0.906339 0.277944 0
M  V30 628 H 60.767 3.1411 1.58201 0
M  V30 629 H 60.641 2.20465 3.06064 0
M  V30 630 H 63.028 1.30277 2.64786 0
M  V30 631 H 63.109 2.27415 1.17115 0
M  V30 632 H 62.753 4.38332 2.56568 0
M  V30 633 H 62.683 3.3813 4.03702 0
M  V30 634 H 65.174 2.72201 2.62135 0
M  V30 635 H 65.487 5.98196 4.89266 0
M  V30 636 H 63.832 5.37534 4.40548 0
M  V30 637 H 67.023 3.42962 3.18582 0
M  V30 638 H 67.196 4.91604 4.22173 0
M  V30 639 N 60.6021 -1.18246 1.0419 0
M  V30 640 C 61.8791 -1.84121 0.660208 0
M  V30 641 C 62.2591 -1.92778 -0.860221 0
M  V30 642 O 61.6071 -1.45464 -1.76217 0
M  V30 643 C 61.8171 -3.22355 1.33747 0
M  V30 644 C 63.1651 -3.98376 1.46906 0
M  V30 645 O 64.1891 -3.31799 1.29568 0
M  V30 646 O 63.0481 -5.17665 1.75171 0
M  V30 647 H 60.1421 -0.794036 0.231161 0
M  V30 648 H 62.6881 -1.25628 1.14087 0
M  V30 649 H 61.4601 -3.10964 2.37522 0
M  V30 650 H 61.0831 -3.88506 0.845515 0
M  V30 651 N 62.0802 -0.821533 -1.34494 0
M  V30 652 C 63.0432 -0.247847 -2.27856 0
M  V30 653 C 64.0432 0.573453 -1.50227 0
M  V30 654 O 65.2332 0.389759 -1.69784 0
M  V30 655 C 62.3652 0.652698 -3.34593 0
M  V30 656 H 63.5582 -1.07146 -2.80107 0
M  V30 657 H 61.1112 -0.593291 -1.44602 0
M  V30 658 H 61.8462 1.49943 -2.87555 0
M  V30 659 H 61.6312 0.065292 -3.92046 0
M  V30 660 H 63.1212 1.04793 -4.04238 0
M  V30 661 N 63.5583 1.46682 -0.576371 0
M  V30 662 C 64.7863 2.06798 -0.0649635 0
M  V30 663 C 65.2013 1.42612 1.23723 0
M  V30 664 O 64.5583 0.529203 1.74659 0
M  V30 665 C 64.6093 3.6132 0.114202 0
M  V30 666 O 64.3303 4.23104 -1.13644 0
M  V30 667 C 65.8313 4.38349 0.66069 0
M  V30 668 H 63.0513 0.668778 -0.0545616 0
M  V30 669 H 65.5953 1.88404 -0.795237 0
M  V30 670 H 63.7503 3.79162 0.794673 0
M  V30 671 H 64.1643 5.15894 -0.946253 0
M  V30 672 H 65.6383 5.47081 0.73526 0
M  V30 673 H 66.1153 4.05953 1.67627 0
M  V30 674 H 66.7213 4.25297 0.0152951 0
M  V30 675 N 65.0364 0.313813 1.54444 0
M  V30 676 C 66.2834 -0.291675 2.00388 0
M  V30 677 C 66.6114 -1.52904 1.2021 0
M  V30 678 O 65.8664 -1.93833 0.269707 0
M  V30 679 C 66.1654 -0.680386 3.50864 0
M  V30 680 C 65.8314 0.456699 4.48581 0
M  V30 681 C 64.4934 0.768824 4.75018 0
M  V30 682 C 66.8454 1.22098 5.06697 0
M  V30 683 C 64.1734 1.84812 5.56831 0
M  V30 684 C 66.5254 2.29029 5.89685 0
M  V30 685 C 65.1894 2.60834 6.14428 0
M  V30 686 H 64.4594 -0.106732 0.733273 0
M  V30 687 H 67.1064 0.43557 1.86481 0
M  V30 688 H 65.4114 -1.48791 3.62448 0
M  V30 689 H 67.1084 -1.16026 3.83847 0
M  V30 690 H 63.6984 0.203337 4.28117 0
M  V30 691 H 67.8824 0.993096 4.86263 0
M  V30 692 H 63.1384 2.09912 5.74236 0
M  V30 693 H 67.3124 2.887 6.33739 0
M  V30 694 H 64.9394 3.44596 6.77612 0
M  V30 695 N 66.5145 -1.57545 0.0417849 0
M  V30 696 C 67.7545 -1.94185 -0.63809 0
M  V30 697 C 68.1185 -0.919339 -1.68559 0
M  V30 698 O 69.3195 -1.17236 -2.41886 0
M  V30 699 C 67.5905 -3.35672 -1.22714 0
M  V30 700 S 69.1495 -3.94256 -1.92633 0
M  V30 701 H 65.9675 -0.679353 -0.209764 0
M  V30 702 H 68.5695 -1.95199 0.108479 0
M  V30 703 H 67.2735 -4.07898 -0.452503 0
M  V30 704 H 66.8045 -3.38132 -2.01073 0
M  V30 705 H 68.8195 -3.7872 -3.20602 0
M  V30 706 N 67.9926 0.231505 -1.5589 0
M  V30 707 C 69.2396 0.957352 -1.78441 0
M  V30 708 C 69.5676 1.84726 -0.60882 0
M  V30 709 O 68.8226 1.91416 0.40725 0
M  V30 710 C 69.1216 1.83577 -3.0665 0
M  V30 711 C 68.7876 1.09993 -4.37278 0
M  V30 712 C 67.4496 0.896629 -4.72773 0
M  V30 713 C 69.8016 0.579558 -5.17968 0
M  V30 714 C 67.1296 0.160896 -5.86479 0
M  V30 715 C 69.4816 -0.142783 -6.32439 0
M  V30 716 C 68.1456 -0.357427 -6.66542 0
M  V30 717 H 67.4156 0.35032 -0.65296 0
M  V30 718 H 70.0626 0.226259 -1.90159 0
M  V30 719 H 68.3676 2.63441 -2.90011 0
M  V30 720 H 70.0646 2.39934 -3.21298 0
M  V30 721 H 66.6546 1.26835 -4.09403 0
M  V30 722 H 70.8386 0.724125 -4.90989 0
M  V30 723 H 66.0946 -0.0157293 -6.11398 0
M  V30 724 H 70.2686 -0.553559 -6.94196 0
M  V30 725 H 67.8956 -0.929466 -7.54497 0
M  V30 726 N 69.4707 1.49531 0.497807 0
M  V30 727 C 70.7197 1.58426 1.24837 0
M  V30 728 C 71.0327 0.277643 1.93619 0
M  V30 729 O 72.2387 0.24517 2.70391 0
M  V30 730 C 70.6947 2.79538 2.26686 0
M  V30 731 C 70.3027 4.16971 1.63828 0
M  V30 732 C 72.0467 2.97764 3.0255 0
M  V30 733 C 69.9537 5.29301 2.63807 0
M  V30 734 H 68.8837 0.58989 0.469623 0
M  V30 735 H 71.5347 1.75923 0.521857 0
M  V30 736 H 69.9167 2.55542 3.02514 0
M  V30 737 H 71.0907 4.51116 0.939711 0
M  V30 738 H 69.4057 4.04129 1.00342 0
M  V30 739 H 72.0027 3.78856 3.77323 0
M  V30 740 H 72.3457 2.08448 3.60354 0
M  V30 741 H 72.8787 3.21815 2.33838 0
M  V30 742 H 69.6177 6.20687 2.10779 0
M  V30 743 H 69.1377 4.99606 3.31894 0
M  V30 744 H 70.8167 5.58768 3.2617 0
M  V30 745 N 70.9488 -0.749086 1.3866 0
M  V30 746 C 72.1948 -1.51056 1.35314 0
M  V30 747 C 72.5278 -1.94121 -0.0553751 0
M  V30 748 O 71.8028 -1.65763 -1.01749 0
M  V30 749 C 72.0858 -2.76003 2.31288 0
M  V30 750 C 71.9388 -2.39047 3.8102 0
M  V30 751 C 73.2578 -3.78046 2.2532 0
M  V30 752 H 70.3768 -0.547972 0.492844 0
M  V30 753 H 73.0188 -0.857628 1.69543 0
M  V30 754 H 71.1688 -3.31716 2.02229 0
M  V30 755 H 72.8408 -1.89074 4.20771 0
M  V30 756 H 71.0838 -1.71449 3.98482 0
M  V30 757 H 71.7548 -3.28462 4.4364 0
M  V30 758 H 74.2308 -3.31884 2.50983 0
M  V30 759 H 73.1068 -4.63159 2.94576 0
M  V30 760 H 73.3678 -4.23957 1.25352 0
M  V30 761 N 72.4269 -1.23603 -0.977757 0
M  V30 762 C 73.6519 -1.09735 -1.75991 0
M  V30 763 C 74.0769 0.346858 -1.84874 0
M  V30 764 O 73.4349 1.25093 -1.3123 0
M  V30 765 C 73.4829 -1.73051 -3.16363 0
M  V30 766 O 72.5869 -0.994452 -4.0023 0
M  V30 767 H 71.9279 -0.384476 -0.541364 0
M  V30 768 H 74.4579 -1.6371 -1.2272 0
M  V30 769 H 74.4679 -1.78398 -3.66931 0
M  V30 770 H 73.1429 -2.78137 -3.09213 0
M  V30 771 H 71.7199 -1.01812 -3.58732 0
M  V30 772 N 73.905 1.17692 -1.04816 0
M  V30 773 C 74.835 2.23777 -0.666791 0
M  V30 774 C 75.816 1.66796 0.33361 0
M  V30 775 O 77.001 1.93039 0.212042 0
M  V30 776 C 74.131 3.47281 -0.0367933 0
M  V30 777 C 73.085 4.17059 -0.961546 0
M  V30 778 C 72.411 5.34342 -0.195626 0
M  V30 779 C 73.711 4.69713 -2.28402 0
M  V30 780 H 75.405 2.55933 -1.55367 0
M  V30 781 H 72.951 1.23019 -0.748484 0
M  V30 782 H 74.904 4.20706 0.241775 0
M  V30 783 H 73.628 3.14381 0.885004 0
M  V30 784 H 72.287 3.45541 -1.22462 0
M  V30 785 H 71.935 4.97692 0.728816 0
M  V30 786 H 71.635 5.81966 -0.811775 0
M  V30 787 H 73.159 6.10553 0.0757473 0
M  V30 788 H 74.573 5.34794 -2.06563 0
M  V30 789 H 72.97 5.279 -2.8538 0
M  V30 790 H 74.04 3.86726 -2.92525 0
M  V30 791 N 75.3831 0.828654 1.34056 0
M  V30 792 C 76.3461 0.259927 2.27721 0
M  V30 793 C 77.3461 -0.565478 1.50529 0
M  V30 794 O 78.5361 -0.38075 1.69988 0
M  V30 795 C 75.6681 -0.634944 3.34935 0
M  V30 796 H 76.8611 1.0863 2.79534 0
M  V30 797 H 74.4141 0.600951 1.44285 0
M  V30 798 H 75.1491 -1.48416 2.88346 0
M  V30 799 H 74.9341 -0.0444999 3.92075 0
M  V30 800 H 76.4241 -1.02648 4.04788 0
M  V30 801 N 76.8612 -1.46375 0.584142 0
M  V30 802 C 78.1072 -2.02678 0.0703716 0
M  V30 803 C 78.4402 -1.4545 -1.28678 0
M  V30 804 O 77.7152 -0.62014 -1.84349 0
M  V30 805 C 77.9982 -3.60099 0.00614674 0
M  V30 806 C 77.8512 -4.27709 1.3923 0
M  V30 807 C 79.1702 -4.34598 -0.693742 0
M  V30 808 H 76.2892 -0.736504 0.027047 0
M  V30 809 H 78.9312 -1.74501 0.751615 0
M  V30 810 H 77.0812 -3.84236 -0.574009 0
M  V30 811 H 78.7532 -4.14832 2.01773 0
M  V30 812 H 76.9962 -3.87016 1.95962 0
M  V30 813 H 77.6672 -5.36478 1.29982 0
M  V30 814 H 80.1432 -4.15615 -0.200869 0
M  V30 815 H 79.0192 -5.44318 -0.707714 0
M  V30 816 H 79.2802 -4.05759 -1.75533 0
M  V30 817 N 78.3393 -0.321999 -1.54275 0
M  V30 818 C 79.3023 0.531975 -2.22941 0
M  V30 819 C 80.3023 1.04478 -1.22234 0
M  V30 820 O 81.4923 0.937452 -1.46825 0
M  V30 821 C 78.6243 1.73874 -2.93224 0
M  V30 822 H 79.8173 -0.0682612 -2.99822 0
M  V30 823 H 77.3703 -0.0730644 -1.56129 0
M  V30 824 H 78.1053 2.37825 -2.20476 0
M  V30 825 H 77.8903 1.37847 -3.6707 0
M  V30 826 H 79.3803 2.34496 -3.45545 0
M  V30 827 N 79.8174 1.5752 -0.0501392 0
M  V30 828 C 81.0944 1.83996 0.663685 0
M  V30 829 C 81.4744 0.938339 1.89099 0
M  V30 830 O 80.8224 -0.00087759 2.285 0
M  V30 831 C 81.0324 3.33702 1.02196 0
M  V30 832 C 82.3804 4.00691 1.40469 0
M  V30 833 O 83.4044 3.38321 1.11433 0
M  V30 834 O 82.2634 5.10658 1.94654 0
M  V30 835 H 79.3574 0.759385 0.32751 0
M  V30 836 H 81.9034 1.69514 -0.0794238 0
M  V30 837 H 80.6754 3.91015 0.149364 0
M  V30 838 H 80.2984 3.53368 1.82255 0
M  V30 839 N 81.2955 -0.223234 1.56011 0
M  V30 840 C 82.5415 -0.949279 1.79211 0
M  V30 841 C 82.8745 -1.84054 0.619494 0
M  V30 842 O 82.1495 -1.90726 -0.381317 0
M  V30 843 C 82.4325 -1.78965 3.12479 0
M  V30 844 C 82.2855 -0.924997 4.40186 0
M  V30 845 C 83.6045 -2.76774 3.42175 0
M  V30 846 H 80.7235 -0.343676 0.651963 0
M  V30 847 H 83.3655 -0.218253 1.88742 0
M  V30 848 H 81.5155 -2.41291 3.04485 0
M  V30 849 H 83.1875 -0.318615 4.60198 0
M  V30 850 H 81.4305 -0.230344 4.33188 0
M  V30 851 H 82.1015 -1.54735 5.29869 0
M  V30 852 H 84.5775 -2.24584 3.50287 0
M  V30 853 H 83.4535 -3.32678 4.36597 0
M  V30 854 H 83.7145 -3.54429 2.64258 0
M  V30 855 N 82.7736 -1.49793 -0.48987 0
M  V30 856 C 83.7366 -1.66752 -1.57246 0
M  V30 857 C 84.7366 -0.538867 -1.51502 0
M  V30 858 O 85.9266 -0.805545 -1.54456 0
M  V30 859 C 83.0586 -1.67528 -2.96896 0
M  V30 860 H 84.2516 -2.63321 -1.43534 0
M  V30 861 H 81.8046 -1.38992 -0.714914 0
M  V30 862 H 82.5396 -0.725837 -3.16073 0
M  V30 863 H 82.3246 -2.49504 -3.02473 0
M  V30 864 H 83.8146 -1.82667 -3.7553 0
M  V30 865 N 84.2517 0.741722 -1.39055 0
M  V30 866 C 85.4977 1.50336 -1.36113 0
M  V30 867 C 85.8307 1.94148 0.0450796 0
M  V30 868 O 85.1057 1.66301 1.00868 0
M  V30 869 C 85.3887 2.74773 -2.32749 0
M  V30 870 C 85.2417 2.37023 -3.82283 0
M  V30 871 C 86.5607 3.76846 -2.27322 0
M  V30 872 H 83.6797 0.545351 -0.495743 0
M  V30 873 H 86.3217 0.848624 -1.69995 0
M  V30 874 H 84.4717 3.30639 -2.03986 0
M  V30 875 H 86.1437 1.8684 -4.21768 0
M  V30 876 H 84.3867 1.69334 -3.99385 0
M  V30 877 H 85.0577 3.26104 -4.45376 0
M  V30 878 H 87.5337 3.30548 -2.5274 0
M  V30 879 H 86.4097 4.6159 -2.97028 0
M  V30 880 H 86.6707 4.23286 -1.27599 0
M  V30 881 N 85.7298 1.2412 0.971189 0
M  V30 882 C 86.9778 1.07668 1.71032 0
M  V30 883 C 87.2988 -0.385797 1.91146 0
M  V30 884 O 86.5688 -1.27569 1.4867 0
M  V30 885 H 85.1488 0.395429 0.633755 0
M  V30 886 H 87.8108 1.55984 1.16855 0
M  V30 887 H 86.9068 1.57195 2.69622 0
M  V30 888 N 87.2079 -1.17134 1.05439 0
M  V30 889 C 88.1709 -2.19439 0.661764 0
M  V30 890 C 89.1709 -1.58199 -0.288042 0
M  V30 891 O 90.3609 -1.74053 -0.0715803 0
M  V30 892 C 87.4929 -3.40889 -0.0276209 0
M  V30 893 H 88.6859 -2.55688 1.56728 0
M  V30 894 H 86.2389 -1.31259 0.848567 0
M  V30 895 H 86.9739 -3.10187 -0.94629 0
M  V30 896 H 86.7589 -3.86586 0.655238 0
M  V30 897 H 88.2489 -4.16603 -0.288342 0
M  V30 898 N 88.686 -0.835752 -1.33615 0
M  V30 899 C 89.616 -0.281739 -2.31794 0
M  V30 900 C 90.597 0.608833 -1.58831 0
M  V30 901 O 91.782 0.533035 -1.86741 0
M  V30 902 C 88.912 0.546612 -3.42971 0
M  V30 903 C 87.866 -0.247904 -4.27281 0
M  V30 904 C 87.192 0.704001 -5.30045 0
M  V30 905 C 88.492 -1.46324 -5.01385 0
M  V30 906 H 90.186 -1.10206 -2.78379 0
M  V30 907 H 87.732 -0.531388 -1.33837 0
M  V30 908 H 89.685 0.944467 -4.1068 0
M  V30 909 H 88.409 1.40011 -2.95067 0
M  V30 910 H 87.068 -0.627281 -3.61194 0
M  V30 911 H 86.716 1.55381 -4.78399 0
M  V30 912 H 86.416 0.176524 -5.87335 0
M  V30 913 H 87.94 1.09944 -6.0062 0
M  V30 914 H 89.354 -1.13871 -5.61877 0
M  V30 915 H 87.751 -1.92728 -5.6831 0
M  V30 916 H 88.821 -2.23467 -4.30338 0
M  V30 917 N 90.1641 1.46063 -0.591896 0
M  V30 918 C 91.4101 2.02638 -0.0811191 0
M  V30 919 C 91.7431 1.4613 1.27905 0
M  V30 920 O 91.0181 0.629908 1.84017 0
M  V30 921 C 91.3011 3.60091 -0.0252436 0
M  V30 922 C 91.1541 4.26965 -1.41496 0
M  V30 923 C 92.4731 4.3496 0.670685 0
M  V30 924 H 89.5921 0.73635 -0.0309524 0
M  V30 925 H 92.2341 1.741 -0.760859 0
M  V30 926 H 90.3841 3.84535 0.553624 0
M  V30 927 H 92.0561 4.13756 -2.0397 0
M  V30 928 H 90.2991 3.85971 -1.98011 0
M  V30 929 H 90.9701 5.35781 -1.32825 0
M  V30 930 H 93.4461 4.15716 0.178825 0
M  V30 931 H 92.3221 5.44686 0.678837 0
M  V30 932 H 92.5831 4.06685 1.73379 0
M  V30 933 N 91.6422 0.330177 1.54103 0
M  V30 934 C 92.8912 -0.271336 1.99867 0
M  V30 935 C 93.2042 -1.52723 1.22209 0
M  V30 936 O 94.4102 -2.20515 1.58383 0
M  V30 937 C 92.8662 -0.534032 3.55916 0
M  V30 938 C 92.4742 0.705193 4.42415 0
M  V30 939 C 94.2182 -1.09514 4.1013 0
M  V30 940 C 92.1252 0.414035 5.89949 0
M  V30 941 H 91.0552 -0.105166 0.74663 0
M  V30 942 H 93.7062 0.443429 1.78062 0
M  V30 943 H 92.0882 -1.30915 3.73734 0
M  V30 944 H 93.2622 1.4804 4.36372 0
M  V30 945 H 91.5772 1.18698 3.99124 0
M  V30 946 H 94.1742 -1.3277 5.17954 0
M  V30 947 H 94.5172 -2.04656 3.62521 0
M  V30 948 H 95.0502 -0.381038 3.95971 0
M  V30 949 H 91.7892 1.33481 6.41766 0
M  V30 950 H 91.3092 -0.323336 5.98928 0
M  V30 951 H 92.9882 0.0263105 6.46995 0
M  V30 952 N 93.1203 -1.57491 0.0584922 0
M  V30 953 C 94.5313 -1.80526 -0.476138 0
M  V30 954 C 94.8823 -0.971334 -1.70469 0
M  V30 955 O 94.0073 -0.190012 -2.15564 0
M  V30 956 C 94.6023 -3.27424 -0.870587 0
M  V30 957 C 93.1613 -3.51351 -1.35015 0
M  V30 958 C 92.3083 -2.75343 -0.32887 0
M  V30 959 H 95.2593 -1.56133 0.284312 0
M  V30 960 H 95.2803 -3.38745 -1.73299 0
M  V30 961 H 94.7923 -3.88093 0.0237627 0
M  V30 962 H 92.8933 -2.95971 -2.26345 0
M  V30 963 H 93.0063 -4.60059 -1.33726 0
M  V30 964 H 91.3703 -2.417 -0.803321 0
M  V30 965 H 92.1533 -3.38743 0.557521 0
M  V30 966 N 94.5984 0.214957 -1.56127 0
M  V30 967 C 95.5284 1.2695 -1.95974 0
M  V30 968 C 96.5094 1.48539 -0.828868 0
M  V30 969 O 97.6944 1.60611 -1.09168 0
M  V30 970 C 94.8244 2.61794 -2.28214 0
M  V30 971 C 93.7784 2.54851 -3.43853 0
M  V30 972 C 93.1044 3.93785 -3.61715 0
M  V30 973 C 94.4044 2.09065 -4.78632 0
M  V30 974 H 96.0984 0.93846 -2.84312 0
M  V30 975 H 93.6444 0.449996 -1.36788 0
M  V30 976 H 95.5974 3.35731 -2.54682 0
M  V30 977 H 94.3214 2.96599 -1.36736 0
M  V30 978 H 92.9804 1.8337 -3.17444 0
M  V30 979 H 92.6284 4.25908 -2.67602 0
M  V30 980 H 92.3284 3.90019 -4.39498 0
M  V30 981 H 93.8524 4.69374 -3.90539 0
M  V30 982 H 95.2664 2.7275 -5.04262 0
M  V30 983 H 93.6634 2.16346 -5.59745 0
M  V30 984 H 94.7334 1.04315 -4.73547 0
M  V30 985 N 96.0765 1.50051 0.48192 0
M  V30 986 C 97.0395 1.67584 1.5636 0
M  V30 987 C 98.0395 0.546894 1.51214 0
M  V30 988 O 99.2295 0.813725 1.54026 0
M  V30 989 C 96.3615 1.691 2.96003 0
M  V30 990 H 97.5545 2.64078 1.42136 0
M  V30 991 H 95.1075 1.39369 0.707533 0
M  V30 992 H 95.8425 0.742589 3.15684 0
M  V30 993 H 95.6275 2.51105 3.01146 0
M  V30 994 H 97.1175 1.84656 3.74556 0
M  V30 995 N 97.5546 -0.734337 1.39446 0
M  V30 996 C 98.8036 -1.48937 1.36017 0
M  V30 997 C 99.1166 -1.95557 -0.0409005 0
M  V30 998 O 100.323 -2.70779 -0.19778 0
M  V30 999 C 98.7786 -2.69125 2.38955 0
M  V30 1000 C 98.3866 -2.29452 3.8478 0
M  V30 1001 C 100.131 -3.46944 2.44603 0
M  V30 1002 C 98.0376 -3.46366 4.79358 0
M  V30 1003 H 96.9676 -0.559296 0.505672 0
M  V30 1004 H 99.6186 -0.800983 1.65095 0
M  V30 1005 H 98.0006 -3.40041 2.02948 0
M  V30 1006 H 99.1746 -1.66077 4.29831 0
M  V30 1007 H 97.4896 -1.64723 3.82433 0
M  V30 1008 H 100.087 -4.33907 3.12456 0
M  V30 1009 H 100.43 -3.89454 1.47076 0
M  V30 1010 H 100.963 -2.83056 2.79507 0
M  V30 1011 H 97.7016 -3.08905 5.78151 0
M  V30 1012 H 97.2216 -4.08719 4.38986 0
M  V30 1013 H 98.9006 -4.12691 4.98292 0
M  V30 1014 N 99.0327 -1.24633 -0.964593 0
M  V30 1015 C 99.9627 -1.06611 -2.07741 0
M  V30 1016 C 100.944 0.0218666 -1.70086 0
M  V30 1017 O 102.129 -0.145793 -1.93652 0
M  V30 1018 C 99.2587 -0.673444 -3.40708 0
M  V30 1019 C 98.2127 -1.71054 -3.92332 0
M  V30 1020 C 97.5387 -1.17285 -5.21678 0
M  V30 1021 C 98.8387 -3.10718 -4.19824 0
M  V30 1022 H 100.533 -1.99693 -2.23076 0
M  V30 1023 H 98.0787 -0.96152 -1.07195 0
M  V30 1024 H 100.032 -0.534345 -4.17998 0
M  V30 1025 H 98.7557 0.293073 -3.25282 0
M  V30 1026 H 97.4147 -1.83791 -3.17201 0
M  V30 1027 H 97.0627 -0.196847 -5.02615 0
M  V30 1028 H 96.7627 -1.86592 -5.57187 0
M  V30 1029 H 98.2867 -1.04593 -6.01575 0
M  V30 1030 H 99.7007 -3.01192 -4.87808 0
M  V30 1031 H 98.0977 -3.77406 -4.66567 0
M  V30 1032 H 99.1677 -3.58524 -3.26479 0
M  V30 1033 N 100.511 1.16574 -1.06058 0
M  V30 1034 C 101.76 1.86385 -0.770944 0
M  V30 1035 C 102.073 1.82448 0.705129 0
M  V30 1036 O 103.279 2.47815 1.10905 0
M  V30 1037 C 101.735 3.34466 -1.32893 0
M  V30 1038 C 101.343 3.46883 -2.83507 0
M  V30 1039 C 103.087 4.09548 -1.11672 0
M  V30 1040 C 100.994 4.89036 -3.32562 0
M  V30 1041 H 99.9238 0.698181 -0.284709 0
M  V30 1042 H 102.575 1.31583 -1.27899 0
M  V30 1043 H 100.957 3.88859 -0.748662 0
M  V30 1044 H 102.131 3.02663 -3.47465 0
M  V30 1045 H 100.446 2.85232 -3.03368 0
M  V30 1046 H 103.043 5.14434 -1.45814 0
M  V30 1047 H 103.386 4.16264 -0.0549535 0
M  V30 1048 H 103.919 3.61387 -1.66265 0
M  V30 1049 H 100.658 4.87499 -4.38207 0
M  V30 1050 H 100.178 5.3389 -2.73351 0
M  V30 1051 H 101.857 5.57843 -3.2775 0
M  V30 1052 N 101.989 0.842826 1.3317 0
M  V30 1053 C 102.937 0.267495 2.31057 0
M  V30 1054 C 103.931 -0.602682 1.58316 0
M  V30 1055 O 105.137 -0.491803 1.73151 0
M  V30 1056 H 101.512 0.0677813 0.748939 0
M  V30 1057 H 103.483 1.10754 2.77085 0
M  V30 1058 C 102.232 -0.539331 3.43492 0
M  V30 1059 H 101.555 0.12095 3.99617 0
M  V30 1060 H 102.995 -0.90767 4.14171 0
M  V30 1061 C 101.454 -1.71981 2.89697 0
M  V30 1062 O 101.984 -2.81862 2.86211 0
M  V30 1063 N 100.19 -1.54299 2.46252 0
M  V30 1064 H 99.7369 -0.649143 2.49287 0
M  V30 1065 H 99.6949 -2.33431 2.10612 0
M  V30 1066 N 103.467 -1.45747 0.599634 0
M  V30 1067 C 104.716 -2.01502 0.0893511 0
M  V30 1068 C 105.029 -1.4748 -1.28488 0
M  V30 1069 O 106.235 -1.95161 -1.88745 0
M  V30 1070 C 104.691 -3.59735 0.109082 0
M  V30 1071 C 104.299 -4.22754 1.48267 0
M  V30 1072 C 106.043 -4.23085 -0.346374 0
M  V30 1073 C 103.95 -5.73115 1.45921 0
M  V30 1074 H 102.88 -0.753417 0.0296347 0
M  V30 1075 H 105.531 -1.67303 0.753788 0
M  V30 1076 H 103.913 -3.91087 -0.621854 0
M  V30 1077 H 105.087 -4.02987 2.23468 0
M  V30 1078 H 103.402 -3.71567 1.87955 0
M  V30 1079 H 105.999 -5.33327 -0.38298 0
M  V30 1080 H 106.342 -3.93201 -1.36743 0
M  V30 1081 H 106.875 -3.9642 0.331038 0
M  V30 1082 H 103.614 -6.07685 2.45762 0
M  V30 1083 H 103.134 -5.95097 0.749665 0
M  V30 1084 H 104.813 -6.3616 1.17941 0
M  V30 1085 N 104.945 -0.338344 -1.53925 0
M  V30 1086 C 106.193 0.259245 -2.0043 0
M  V30 1087 C 106.514 1.51484 -1.22791 0
M  V30 1088 O 105.784 1.93037 -0.33368 0
M  V30 1089 H 104.364 0.0987845 -0.740439 0
M  V30 1090 H 107.026 -0.458302 -1.89435 0
M  V30 1091 H 106.122 0.505334 -3.07982 0
M  V30 1092 N 106.423 1.57458 -0.0668435 0
M  V30 1093 C 107.834 1.80776 0.466558 0
M  V30 1094 C 108.185 0.980361 1.69951 0
M  V30 1095 O 107.31 0.201441 2.1546 0
M  V30 1096 C 107.905 3.27881 0.85321 0
M  V30 1097 C 106.464 3.52062 1.3315 0
M  V30 1098 C 105.611 2.75513 0.314264 0
M  V30 1099 H 108.562 1.5598 -0.292588 0
M  V30 1100 H 108.583 3.39659 1.715 0
M  V30 1101 H 108.095 3.88075 -0.0443439 0
M  V30 1102 H 106.196 2.97167 2.24772 0
M  V30 1103 H 106.309 4.60762 1.31285 0
M  V30 1104 H 104.673 2.42123 0.790492 0
M  V30 1105 H 105.456 3.38442 -0.575477 0
M  V30 1106 N 107.901 -0.206675 1.56239 0
M  V30 1107 C 108.833 -1.27997 1.9013 0
M  V30 1108 C 109.846 -1.42299 0.790883 0
M  V30 1109 O 111.035 -1.42931 1.06925 0
M  V30 1110 C 108.135 -2.65368 2.10792 0
M  V30 1111 C 107.308 -2.72824 3.41886 0
M  V30 1112 C 106.367 -3.9131 3.51799 0
M  V30 1113 O 105.393 -3.78953 4.24716 0
M  V30 1114 N 106.595 -5.06265 2.84035 0
M  V30 1115 H 109.36 -0.992444 2.82791 0
M  V30 1116 H 106.921 -0.396652 1.56966 0
M  V30 1117 H 108.913 -3.43039 2.14724 0
M  V30 1118 H 107.483 -2.86657 1.24685 0
M  V30 1119 H 106.703 -1.81515 3.49923 0
M  V30 1120 H 107.991 -2.74786 4.28217 0
M  V30 1121 H 107.389 -5.19203 2.246 0
M  V30 1122 H 105.946 -5.81925 2.93609 0
M  V30 1123 N 109.379 -1.50304 -0.473955 0
M  V30 1124 C 110.607 -1.64902 -1.24959 0
M  V30 1125 C 111.022 -0.331198 -1.85872 0
M  V30 1126 O 110.379 0.68652 -1.69095 0
M  V30 1127 C 110.43 -2.73803 -2.36038 0
M  V30 1128 O 110.151 -4.00477 -1.77624 0
M  V30 1129 C 111.652 -2.99349 -3.26964 0
M  V30 1130 H 108.872 -0.554383 -0.378022 0
M  V30 1131 H 111.416 -1.9651 -0.566054 0
M  V30 1132 H 109.571 -2.44898 -3.00173 0
M  V30 1133 H 109.985 -4.60678 -2.5075 0
M  V30 1134 H 111.459 -3.79217 -4.01121 0
M  V30 1135 H 111.936 -2.10307 -3.85574 0
M  V30 1136 H 112.542 -3.29774 -2.68569 0
M  V30 1137 N 110.857 0.726932 -1.39834 0
M  V30 1138 C 112.087 1.51393 -1.40583 0
M  V30 1139 C 112.495 1.892 -0.000740625 0
M  V30 1140 O 111.838 1.55189 0.982951 0
M  V30 1141 C 111.9 2.82588 -2.22226 0
M  V30 1142 C 111.564 2.67169 -3.70769 0
M  V30 1143 C 112.561 2.3518 -4.63666 0
M  V30 1144 C 110.246 2.83788 -4.14451 0
M  V30 1145 C 112.24 2.20002 -5.98229 0
M  V30 1146 C 109.927 2.68229 -5.49087 0
M  V30 1147 C 110.925 2.36382 -6.4079 0
M  V30 1148 O 110.613 2.2093 -7.72946 0
M  V30 1149 H 110.345 0.474168 -0.48181 0
M  V30 1150 H 112.899 0.905247 -1.84376 0
M  V30 1151 H 111.129 3.45746 -1.73195 0
M  V30 1152 H 112.818 3.44247 -2.15055 0
M  V30 1153 H 113.584 2.21984 -4.31217 0
M  V30 1154 H 109.463 3.07566 -3.43401 0
M  V30 1155 H 113.007 1.95067 -6.69772 0
M  V30 1156 H 108.904 2.81006 -5.81125 0
M  V30 1157 H 109.672 2.35937 -7.83757 0
M  V30 1158 N 112.336 1.25143 0.95797 0
M  V30 1159 C 113.583 1.09692 1.70217 0
M  V30 1160 C 113.911 -0.362654 1.91089 0
M  V30 1161 O 113.166 -1.28386 1.47701 0
M  V30 1162 C 113.465 1.79272 3.09187 0
M  V30 1163 C 113.131 3.29196 3.08125 0
M  V30 1164 C 111.793 3.70096 3.07543 0
M  V30 1165 C 114.145 4.24995 3.0171 0
M  V30 1166 C 111.473 5.05213 2.9829 0
M  V30 1167 C 113.825 5.60132 2.93999 0
M  V30 1168 C 112.489 6.00365 2.9175 0
M  V30 1169 H 111.759 0.401393 0.622868 0
M  V30 1170 H 114.406 1.55372 1.11945 0
M  V30 1171 H 112.711 1.26014 3.70982 0
M  V30 1172 H 114.408 1.64773 3.65583 0
M  V30 1173 H 110.998 2.96651 3.09348 0
M  V30 1174 H 115.182 3.9439 3.01281 0
M  V30 1175 H 110.438 5.35569 2.94916 0
M  V30 1176 H 114.612 6.3406 2.87996 0
M  V30 1177 H 112.239 7.05023 2.84336 0
M  V30 1178 N 113.814 -1.1601 1.06675 0
M  V30 1179 C 114.764 -2.18512 0.650888 0
M  V30 1180 C 115.748 -1.57677 -0.320441 0
M  V30 1181 O 116.94 -1.76482 -0.135266 0
M  V30 1182 C 114.069 -3.43273 0.0429255 0
M  V30 1183 C 113.155 -4.11176 1.03898 0
M  V30 1184 N 113.546 -4.54672 2.216 0
M  V30 1185 C 111.844 -4.37417 0.870779 0
M  V30 1186 C 112.545 -5.07248 2.84736 0
M  V30 1187 N 111.521 -5.0037 2.12441 0
M  V30 1188 H 115.323 -2.49863 1.54745 0
M  V30 1189 H 112.837 -1.32503 0.938975 0
M  V30 1190 H 114.834 -4.16006 -0.272857 0
M  V30 1191 H 113.494 -3.13408 -0.84884 0
M  V30 1192 H 114.505 -4.4828 2.59356 0
M  V30 1193 H 111.182 -4.17488 0.0313293 0
M  V30 1194 H 112.572 -5.50912 3.84636 0
M  V30 1195 N 115.292 -0.849877 -1.32721 0
M  V30 1196 C 116.52 -0.464754 -2.01613 0
M  V30 1197 C 116.935 0.937191 -1.63897 0
M  V30 1198 O 116.292 1.61081 -0.857856 0
M  V30 1199 C 116.343 -0.588638 -3.56675 0
M  V30 1200 O 116.064 -1.93535 -3.93034 0
M  V30 1201 C 117.565 -0.2019 -4.4284 0
M  V30 1202 H 114.785 -0.183215 -0.645502 0
M  V30 1203 H 117.329 -1.1455 -1.69407 0
M  V30 1204 H 115.484 0.0443159 -3.87375 0
M  V30 1205 H 115.898 -1.92871 -4.87751 0
M  V30 1206 H 117.372 -0.339599 -5.50954 0
M  V30 1207 H 117.849 0.857224 -4.30753 0
M  V30 1208 H 118.455 -0.809733 -4.17521 0
M  V30 1209 N 116.77 1.45427 -0.607355 0
M  V30 1210 C 118.01 2.04128 -0.105458 0
M  V30 1211 C 118.374 1.46555 1.24039 0
M  V30 1212 O 119.575 1.96608 1.833 0
M  V30 1213 C 117.846 3.57338 -0.0665324 0
M  V30 1214 S 119.405 4.37201 0.374207 0
M  V30 1215 H 116.223 0.709278 -0.0494575 0
M  V30 1216 H 118.825 1.78139 -0.805404 0
M  V30 1217 H 117.529 3.96752 -1.04957 0
M  V30 1218 H 117.06 3.87902 0.655415 0
M  V30 1219 H 119.075 4.6888 1.62377 0
M  V30 1220 N 118.248 0.346503 1.53744 0
M  V30 1221 C 119.178 -0.501193 2.28058 0
M  V30 1222 C 120.159 -1.10014 1.29734 0
M  V30 1223 O 121.344 -1.12097 1.58581 0
M  V30 1224 C 118.474 -1.65078 3.05559 0
M  V30 1225 C 117.428 -1.18003 4.11411 0
M  V30 1226 C 116.754 -2.41837 4.76884 0
M  V30 1227 C 118.054 -0.278394 5.21558 0
M  V30 1228 H 119.748 0.11875 2.99164 0
M  V30 1229 H 117.294 0.0585531 1.43881 0
M  V30 1230 H 119.247 -2.25028 3.56287 0
M  V30 1231 H 117.971 -2.29767 2.32109 0
M  V30 1232 H 116.63 -0.603331 3.61601 0
M  V30 1233 H 116.278 -3.0494 4.00026 0
M  V30 1234 H 115.978 -2.1102 5.48402 0
M  V30 1235 H 117.502 -3.02508 5.30397 0
M  V30 1236 H 118.916 -0.784823 5.67903 0
M  V30 1237 H 117.313 -0.0619707 6.00068 0
M  V30 1238 H 118.383 0.684677 4.80042 0
M  V30 1239 N 119.726 -1.57421 0.075193 0
M  V30 1240 C 120.659 -2.08528 -0.926904 0
M  V30 1241 C 121.637 -0.991171 -1.28898 0
M  V30 1242 O 122.821 -1.26479 -1.39769 0
M  V30 1243 C 119.948 -2.54576 -2.23402 0
M  V30 1244 C 118.994 -3.75454 -2.02327 0
M  V30 1245 S 119.827 -5.19989 -1.27951 0
M  V30 1246 C 120.983 -5.69372 -2.59935 0
M  V30 1247 H 121.216 -2.932 -0.492048 0
M  V30 1248 H 118.749 -1.53785 -0.137651 0
M  V30 1249 H 120.707 -2.81767 -2.98526 0
M  V30 1250 H 119.368 -1.70166 -2.64012 0
M  V30 1251 H 118.561 -4.05675 -2.99071 0
M  V30 1252 H 118.163 -3.48654 -1.35339 0
M  V30 1253 H 120.455 -5.76424 -3.56008 0
M  V30 1254 H 121.398 -6.68207 -2.34319 0
M  V30 1255 H 121.806 -4.97205 -2.67296 0
M  V30 1256 N 121.204 0.198386 -1.56346 0
M  V30 1257 C 122.45 0.920648 -1.80698 0
M  V30 1258 C 122.783 1.83045 -0.648697 0
M  V30 1259 O 122.058 1.91308 0.350925 0
M  V30 1260 C 122.341 1.73971 -3.15287 0
M  V30 1261 C 122.194 0.85485 -4.41602 0
M  V30 1262 C 123.513 2.71296 -3.46535 0
M  V30 1263 H 120.632 0.333261 -0.657348 0
M  V30 1264 H 123.274 0.188198 -1.89066 0
M  V30 1265 H 121.424 2.36416 -3.08285 0
M  V30 1266 H 123.096 0.245362 -4.60647 0
M  V30 1267 H 121.339 0.161398 -4.335 0
M  V30 1268 H 122.01 1.46286 -5.32264 0
M  V30 1269 H 124.486 2.18983 -3.53816 0
M  V30 1270 H 123.362 3.2569 -4.41834 0
M  V30 1271 H 123.623 3.5018 -2.69864 0
M  V30 1272 N 122.682 1.50554 0.465978 0
M  V30 1273 C 123.645 1.69233 1.54574 0
M  V30 1274 C 124.645 0.562901 1.50626 0
M  V30 1275 O 125.835 0.830016 1.53155 0
M  V30 1276 C 122.967 1.7223 2.94193 0
M  V30 1277 H 124.16 2.65571 1.39327 0
M  V30 1278 H 121.713 1.40111 0.692711 0
M  V30 1279 H 122.448 0.77603 3.14878 0
M  V30 1280 H 122.233 2.54285 2.98466 0
M  V30 1281 H 123.723 1.88618 3.72576 0
M  V30 1282 N 124.16 -0.719506 1.40217 0
M  V30 1283 C 125.4 -1.49181 1.39729 0
M  V30 1284 C 125.764 -1.92 -0.00250614 0
M  V30 1285 O 126.965 -2.68473 -0.132479 0
M  V30 1286 C 125.236 -2.68767 2.35582 0
M  V30 1287 S 126.795 -3.58224 2.53418 0
M  V30 1288 H 123.613 -0.510091 0.495307 0
M  V30 1289 H 126.215 -0.841724 1.76452 0
M  V30 1290 H 124.919 -2.35475 3.36124 0
M  V30 1291 H 124.45 -3.38691 2.0013 0
M  V30 1292 H 126.465 -4.63033 1.78367 0
M  V30 1293 N 125.638 -1.25649 -0.95132 0
M  V30 1294 C 127.049 -1.09654 -1.51106 0
M  V30 1295 C 127.4 0.326615 -1.93462 0
M  V30 1296 O 126.525 1.21697 -1.78938 0
M  V30 1297 C 127.12 -1.98437 -2.74605 0
M  V30 1298 C 125.679 -1.86618 -3.2688 0
M  V30 1299 C 124.826 -1.9239 -1.99703 0
M  V30 1300 H 127.777 -1.38887 -0.767865 0
M  V30 1301 H 127.798 -1.5263 -3.48546 0
M  V30 1302 H 127.31 -3.02009 -2.43746 0
M  V30 1303 H 125.411 -0.859421 -3.62553 0
M  V30 1304 H 125.524 -2.71607 -3.94673 0
M  V30 1305 H 123.888 -1.36317 -2.15151 0
M  V30 1306 H 124.671 -2.97573 -1.71188 0
M  V30 1307 N 127.117 1.15442 -1.07289 0
M  V30 1308 C 128.363 1.86489 -0.796846 0
M  V30 1309 C 128.696 1.82078 0.675371 0
M  V30 1310 O 127.971 1.24346 1.4956 0
M  V30 1311 C 128.254 3.35626 -1.30489 0
M  V30 1312 C 128.107 3.48673 -2.84161 0
M  V30 1313 C 129.426 4.30357 -0.920907 0
M  V30 1314 H 126.545 0.677144 -0.290939 0
M  V30 1315 H 129.187 1.35633 -1.33056 0
M  V30 1316 H 127.337 3.79068 -0.850883 0
M  V30 1317 H 129.009 3.14099 -3.37846 0
M  V30 1318 H 127.252 2.90253 -3.22391 0
M  V30 1319 H 127.923 4.53453 -3.14777 0
M  V30 1320 H 130.399 3.94871 -1.3121 0
M  V30 1321 H 129.275 5.33193 -1.30372 0
M  V30 1322 H 129.536 4.4176 0.173226 0
M  V30 1323 N 128.595 0.856903 1.32268 0
M  V30 1324 C 129.525 0.31858 2.31316 0
M  V30 1325 C 130.506 -0.583487 1.59779 0
M  V30 1326 O 131.691 -0.503259 1.87566 0
M  V30 1327 C 128.821 -0.491979 3.43798 0
M  V30 1328 C 127.775 0.315849 4.26833 0
M  V30 1329 C 127.101 -0.619586 5.31098 0
M  V30 1330 C 128.401 1.54282 4.98993 0
M  V30 1331 H 130.095 1.14621 2.76591 0
M  V30 1332 H 127.641 0.552613 1.32974 0
M  V30 1333 H 129.594 -0.879012 4.1213 0
M  V30 1334 H 128.318 -1.35299 2.97257 0
M  V30 1335 H 126.977 0.684664 3.6015 0
M  V30 1336 H 126.625 -1.47751 4.8081 0
M  V30 1337 H 126.325 -0.0830621 5.87541 0
M  V30 1338 H 127.849 -1.00375 6.02293 0
M  V30 1339 H 129.263 1.22796 5.59995 0
M  V30 1340 H 127.66 2.01745 5.65172 0
M  V30 1341 H 128.73 2.30285 4.26728 0
M  V30 1342 N 130.073 -1.45103 0.615059 0
M  V30 1343 C 131.322 -2.01396 0.110718 0
M  V30 1344 C 131.635 -1.48834 -1.26916 0
M  V30 1345 O 132.841 -1.97152 -1.86664 0
M  V30 1346 C 131.297 -3.59599 0.14723 0
M  V30 1347 C 130.905 -4.21158 1.52743 0
M  V30 1348 C 132.649 -4.23428 -0.30148 0
M  V30 1349 C 130.556 -5.71535 1.51992 0
M  V30 1350 H 129.486 -0.753061 0.0376241 0
M  V30 1351 H 132.137 -1.66494 0.77149 0
M  V30 1352 H 130.519 -3.91724 -0.580339 0
M  V30 1353 H 131.693 -4.00594 2.2773 0
M  V30 1354 H 130.008 -3.69552 1.91886 0
M  V30 1355 H 132.605 -5.33703 -0.326392 0
M  V30 1356 H 132.948 -3.94629 -1.32565 0
M  V30 1357 H 133.481 -3.96047 0.373065 0
M  V30 1358 H 130.22 -6.05044 2.52193 0
M  V30 1359 H 129.74 -5.94268 0.81274 0
M  V30 1360 H 131.419 -6.34873 1.24681 0
M  V30 1361 N 131.551 -0.354651 -1.53558 0
M  V30 1362 C 132.481 0.489091 -2.2832 0
M  V30 1363 C 133.462 1.09324 -1.30316 0
M  V30 1364 O 134.647 1.11255 -1.59173 0
M  V30 1365 C 131.777 1.63456 -3.0643 0
M  V30 1366 C 130.731 1.1582 -4.12031 0
M  V30 1367 C 130.057 2.39305 -4.7816 0
M  V30 1368 C 131.357 0.250731 -5.21698 0
M  V30 1369 H 133.051 -0.134614 -2.99097 0
M  V30 1370 H 130.597 -0.0661826 -1.43848 0
M  V30 1371 H 132.55 2.23136 -3.57475 0
M  V30 1372 H 131.274 2.28533 -2.33325 0
M  V30 1373 H 129.933 0.584146 -3.61916 0
M  V30 1374 H 129.581 3.02814 -4.01637 0
M  V30 1375 H 129.281 2.08109 -5.49513 0
M  V30 1376 H 130.805 2.99691 -5.31994 0
M  V30 1377 H 132.219 0.754695 -5.68311 0
M  V30 1378 H 130.616 0.0301468 -6.00092 0
M  V30 1379 H 131.686 -0.710125 -4.79672 0
M  V30 1380 N 133.029 1.57378 -0.0835403 0
M  V30 1381 C 134.257 1.98263 0.59157 0
M  V30 1382 C 134.672 0.962302 1.62435 0
M  V30 1383 O 134.029 -0.049581 1.82433 0
M  V30 1384 C 134.08 3.39214 1.24965 0
M  V30 1385 O 133.801 4.37339 0.258186 0
M  V30 1386 C 135.302 3.95038 2.01147 0
M  V30 1387 H 132.522 0.651773 0.159477 0
M  V30 1388 H 135.066 2.03878 -0.159415 0
M  V30 1389 H 133.221 3.34649 1.95164 0
M  V30 1390 H 133.635 5.19371 0.731734 0
M  V30 1391 H 135.109 4.95848 2.42567 0
M  V30 1392 H 135.586 3.32222 2.87272 0
M  V30 1393 H 136.192 4.0304 1.35789 0
M  V30 1394 N 134.507 -0.190092 1.56449 0
M  V30 1395 C 135.439 -1.25973 1.91477 0
M  V30 1396 C 136.452 -1.41452 0.805931 0
M  V30 1397 O 137.641 -1.41789 1.08435 0
M  V30 1398 C 134.741 -2.63117 2.13594 0
M  V30 1399 C 133.914 -2.69182 3.4476 0
M  V30 1400 C 132.973 -3.87557 3.5593 0
M  V30 1401 O 131.999 -3.74427 4.28711 0
M  V30 1402 N 133.201 -5.03224 2.89388 0
M  V30 1403 H 135.966 -0.962394 2.83828 0
M  V30 1404 H 133.527 -0.379981 1.57378 0
M  V30 1405 H 135.519 -3.40742 2.1835 0
M  V30 1406 H 134.089 -2.85319 1.27719 0
M  V30 1407 H 133.309 -1.77793 3.51828 0
M  V30 1408 H 134.597 -2.70229 4.31107 0
M  V30 1409 H 133.995 -5.16791 2.30094 0
M  V30 1410 H 132.552 -5.78778 2.99764 0
M  V30 1411 N 135.985 -1.50799 -0.457987 0
M  V30 1412 C 137.21 -1.66496 -1.23668 0
M  V30 1413 C 137.635 -0.353288 -1.84752 0
M  V30 1414 O 136.993 0.684346 -1.67888 0
M  V30 1415 C 137.041 -2.76763 -2.3116 0
M  V30 1416 O 136.145 -2.38928 -3.36136 0
M  V30 1417 H 135.486 -0.555828 -0.363252 0
M  V30 1418 H 138.016 -1.9725 -0.543474 0
M  V30 1419 H 138.026 -3.00232 -2.76269 0
M  V30 1420 H 136.701 -3.71954 -1.86073 0
M  V30 1421 H 135.278 -2.25953 -2.96647 0
M  V30 1422 N 137.463 0.71206 -1.40597 0
M  V30 1423 C 138.688 1.50617 -1.42581 0
M  V30 1424 C 139.113 1.88079 -0.0282102 0
M  V30 1425 O 138.471 1.53511 0.964579 0
M  V30 1426 C 138.519 2.7557 -2.3258 0
M  V30 1427 O 137.623 3.72414 -1.77148 0
M  V30 1428 H 136.964 0.453966 -0.484573 0
M  V30 1429 H 139.494 0.876649 -1.84868 0
M  V30 1430 H 139.504 3.2406 -2.47889 0
M  V30 1431 H 138.179 2.47639 -3.34138 0
M  V30 1432 H 136.756 3.31276 -1.71204 0
M  V30 1433 N 138.941 1.26152 0.944643 0
M  V30 1434 C 140.19 1.10883 1.68487 0
M  V30 1435 C 140.503 -0.348153 1.92477 0
M  V30 1436 O 141.709 -0.621459 2.64292 0
M  V30 1437 C 140.165 1.93624 3.03377 0
M  V30 1438 C 139.773 3.43875 2.87148 0
M  V30 1439 C 141.517 1.86954 3.81115 0
M  V30 1440 C 139.424 4.18875 4.1749 0
M  V30 1441 H 138.354 0.41135 0.631907 0
M  V30 1442 H 141.005 1.50433 1.05082 0
M  V30 1443 H 139.387 1.46904 3.67743 0
M  V30 1444 H 140.561 3.98338 2.31653 0
M  V30 1445 H 138.876 3.51744 2.22856 0
M  V30 1446 H 141.473 2.40275 4.77673 0
M  V30 1447 H 141.816 0.839518 4.07747 0
M  V30 1448 H 142.349 2.31477 3.23517 0
M  V30 1449 H 139.088 5.22332 3.96043 0
M  V30 1450 H 138.608 3.69193 4.72712 0
M  V30 1451 H 140.287 4.27134 4.85968 0
M  V30 1452 N 140.419 -1.14872 1.07899 0
M  V30 1453 C 141.349 -2.2193 0.725887 0
M  V30 1454 C 142.33 -1.67622 -0.28927 0
M  V30 1455 O 143.515 -1.93533 -0.160787 0
M  V30 1456 C 140.645 -3.47061 0.128856 0
M  V30 1457 C 139.599 -4.14363 1.07178 0
M  V30 1458 C 138.925 -5.33636 0.337229 0
M  V30 1459 C 140.225 -4.63492 2.40775 0
M  V30 1460 H 141.919 -2.51724 1.62097 0
M  V30 1461 H 139.465 -1.20991 0.780838 0
M  V30 1462 H 141.418 -4.21199 -0.130147 0
M  V30 1463 H 140.142 -3.16617 -0.80134 0
M  V30 1464 H 138.801 -3.42173 1.3158 0
M  V30 1465 H 138.449 -4.99449 -0.596606 0
M  V30 1466 H 138.149 -5.79609 0.965788 0
M  V30 1467 H 139.673 -6.10539 0.0861567 0
M  V30 1468 H 141.087 -5.2913 2.20669 0
M  V30 1469 H 139.484 -5.20148 2.99276 0
M  V30 1470 H 140.554 -3.78834 3.02676 0
M  V30 1471 N 141.898 -0.863906 -1.31812 0
M  V30 1472 C 142.861 -0.320212 -2.26952 0
M  V30 1473 C 143.861 0.525369 -1.51975 0
M  V30 1474 O 145.051 0.335547 -1.70938 0
M  V30 1475 C 142.183 0.545919 -3.365 0
M  V30 1476 H 143.376 -1.16004 -2.76556 0
M  V30 1477 H 140.929 -0.638995 -1.42641 0
M  V30 1478 H 141.664 1.40718 -2.92179 0
M  V30 1479 H 141.449 -0.0594674 -3.92055 0
M  V30 1480 H 142.939 0.918796 -4.07367 0
M  V30 1481 N 143.376 1.44774 -0.622745 0
M  V30 1482 C 144.306 2.33382 0.0741861 0
M  V30 1483 C 145.287 1.47719 0.843387 0
M  V30 1484 O 146.472 1.76458 0.810934 0
M  V30 1485 C 143.602 3.30663 1.06204 0
M  V30 1486 C 142.556 4.26079 0.405037 0
M  V30 1487 C 141.882 5.13165 1.5022 0
M  V30 1488 C 143.182 5.1781 -0.683414 0
M  V30 1489 H 144.876 2.91905 -0.665713 0
M  V30 1490 H 142.422 1.40363 -0.321587 0
M  V30 1491 H 144.375 3.9153 1.55827 0
M  V30 1492 H 143.099 2.70331 1.83272 0
M  V30 1493 H 141.758 3.66532 -0.0704683 0
M  V30 1494 H 141.406 4.49191 2.26355 0
M  V30 1495 H 141.106 5.77812 1.06803 0
M  V30 1496 H 142.63 5.76902 2.00041 0
M  V30 1497 H 144.044 5.72661 -0.270631 0
M  V30 1498 H 142.441 5.91015 -1.04023 0
M  V30 1499 H 143.511 4.59326 -1.55395 0
M  V30 1500 N 144.854 0.36279 1.53368 0
M  V30 1501 C 145.784 -0.476976 2.28576 0
M  V30 1502 C 146.765 -1.08631 1.30894 0
M  V30 1503 O 147.95 -1.10409 1.59761 0
M  V30 1504 C 145.08 -1.61828 3.07293 0
M  V30 1505 C 144.034 -1.13633 4.1264 0
M  V30 1506 C 143.36 -2.36766 4.79423 0
M  V30 1507 C 144.66 -0.223061 5.21823 0
M  V30 1508 H 146.354 0.150474 2.99022 0
M  V30 1509 H 143.9 0.0738103 1.43811 0
M  V30 1510 H 145.853 -2.21237 3.58653 0
M  V30 1511 H 144.577 -2.27292 2.34533 0
M  V30 1512 H 143.236 -0.564945 3.62221 0
M  V30 1513 H 142.884 -3.0068 4.03238 0
M  V30 1514 H 142.584 -2.05192 5.50609 0
M  V30 1515 H 144.108 -2.96865 5.33576 0
M  V30 1516 H 145.522 -0.724545 5.68703 0
M  V30 1517 H 143.919 0.001678 6.001 0
M  V30 1518 H 144.989 0.735553 4.79289 0
M  V30 1519 N 146.332 -1.57332 0.0918853 0
M  V30 1520 C 147.295 -2.12708 -0.85369 0
M  V30 1521 C 148.295 -1.05561 -1.213 0
M  V30 1522 O 149.485 -1.31461 -1.14296 0
M  V30 1523 C 146.617 -2.64503 -2.15061 0
M  V30 1524 H 147.81 -2.97573 -0.3729 0
M  V30 1525 H 145.363 -1.55509 -0.157072 0
M  V30 1526 H 146.098 -1.83149 -2.67632 0
M  V30 1527 H 145.883 -3.4284 -1.90272 0
M  V30 1528 H 147.373 -3.07351 -2.82711 0
M  V30 1529 N 147.81 0.181792 -1.56548 0
M  V30 1530 C 149.059 0.898348 -1.8059 0
M  V30 1531 C 149.372 1.83862 -0.667379 0
M  V30 1532 O 150.578 2.59678 -0.792446 0
M  V30 1533 C 149.034 1.64791 -3.19956 0
M  V30 1534 C 148.642 0.751789 -4.41647 0
M  V30 1535 C 150.386 2.35331 -3.53298 0
M  V30 1536 C 148.293 1.50098 -5.72035 0
M  V30 1537 H 147.223 0.339194 -0.673397 0
M  V30 1538 H 149.874 0.151413 -1.82874 0
M  V30 1539 H 148.256 2.43921 -3.11959 0
M  V30 1540 H 149.43 -0.0018076 -4.608 0
M  V30 1541 H 147.745 0.156562 -4.16106 0
M  V30 1542 H 150.342 2.91958 -4.47956 0
M  V30 1543 H 150.685 3.10164 -2.77676 0
M  V30 1544 H 151.218 1.63154 -3.62803 0
M  V30 1545 H 147.957 0.795175 -6.50659 0
M  V30 1546 H 147.477 2.22817 -5.56878 0
M  V30 1547 H 149.156 2.05125 -6.13622 0
M  V30 1548 N 149.288 1.51039 0.449983 0
M  V30 1549 C 150.251 1.70863 1.5277 0
M  V30 1550 C 151.251 0.578846 1.5002 0
M  V30 1551 O 152.441 0.846213 1.52266 0
M  V30 1552 C 149.573 1.75341 2.9235 0
M  V30 1553 H 150.766 2.67034 1.36502 0
M  V30 1554 H 148.319 1.40838 0.677812 0
M  V30 1555 H 149.054 0.809383 3.14037 0
M  V30 1556 H 148.839 2.57436 2.95752 0
M  V30 1557 H 150.329 1.92559 3.70555 0
M  V30 1558 N 150.766 -0.704594 1.40972 0
M  V30 1559 C 152.012 -1.46675 1.40051 0
M  V30 1560 C 152.345 -1.94199 0.00641102 0
M  V30 1561 O 151.62 -1.68916 -0.964235 0
M  V30 1562 C 151.903 -2.68505 2.39952 0
M  V30 1563 C 151.756 -2.26805 3.88432 0
M  V30 1564 C 153.075 -3.70686 2.37233 0
M  V30 1565 H 150.194 -0.532015 0.510028 0
M  V30 1566 H 152.836 -0.803255 1.72185 0
M  V30 1567 H 150.986 -3.25114 2.1268 0
M  V30 1568 H 152.658 -1.75592 4.26574 0
M  V30 1569 H 150.901 -1.58685 4.03734 0
M  V30 1570 H 151.572 -3.14181 4.53866 0
M  V30 1571 H 154.048 -3.23731 2.61415 0
M  V30 1572 H 152.924 -4.53553 3.09162 0
M  V30 1573 H 153.185 -4.19754 1.38777 0
M  V30 1574 N 152.244 -1.26651 -0.937939 0
M  V30 1575 C 153.521 -1.0313 -1.66204 0
M  V30 1576 C 153.901 0.437256 -2.06522 0
M  V30 1577 O 153.249 1.41831 -1.79154 0
M  V30 1578 C 153.459 -1.98314 -2.87181 0
M  V30 1579 C 154.807 -2.27107 -3.58758 0
M  V30 1580 O 155.831 -1.96205 -2.97291 0
M  V30 1581 O 154.69 -2.79736 -4.69479 0
M  V30 1582 H 151.784 -0.392384 -0.727986 0
M  V30 1583 H 154.33 -1.37874 -0.989382 0
M  V30 1584 H 153.102 -2.97399 -2.54302 0
M  V30 1585 H 152.725 -1.64068 -3.6217 0
M  V30 1586 N 153.722 1.14298 -1.08507 0
M  V30 1587 C 155.138 1.37347 -0.812901 0
M  V30 1588 C 155.338 1.93052 0.577325 0
M  V30 1589 O 154.394 2.14389 1.33393 0
M  V30 1590 C 155.707 2.33359 -1.89642 0
M  V30 1591 C 157.255 2.46996 -1.92255 0
M  V30 1592 C 157.73 3.46309 -2.99724 0
M  V30 1593 N 159.221 3.53853 -2.98902 0
M  V30 1594 C 159.956 4.3055 -3.787 0
M  V30 1595 N 159.452 5.10482 -4.6838 0
M  V30 1596 N 161.245 4.25757 -3.66998 0
M  V30 1597 H 153.396 0.764867 -1.9815 0
M  V30 1598 H 155.659 0.398966 -0.859959 0
M  V30 1599 H 155.365 1.99565 -2.89597 0
M  V30 1600 H 155.239 3.33274 -1.76659 0
M  V30 1601 H 157.626 2.80081 -0.929445 0
M  V30 1602 H 157.707 1.47039 -2.09316 0
M  V30 1603 H 157.351 3.13957 -3.99241 0
M  V30 1604 H 157.281 4.46049 -2.79907 0
M  V30 1605 H 159.772 2.96812 -2.33904 0
M  V30 1606 H 160.085 5.66284 -5.25873 0
M  V30 1607 H 158.43 5.09747 -4.72422 0
M  V30 1608 H 161.621 3.62383 -2.96304 0
M  V30 1609 H 161.794 4.85279 -4.29427 0
M  V30 1610 N 155.201 0.870884 1.31352 0
M  V30 1611 C 156.431 0.496049 2.00557 0
M  V30 1612 C 156.839 -0.916241 1.65534 0
M  V30 1613 O 156.182 -1.61188 0.881134 0
M  V30 1614 C 156.244 0.574418 3.54881 0
M  V30 1615 C 155.908 1.94849 4.1338 0
M  V30 1616 C 156.905 2.91611 4.30417 0
M  V30 1617 C 154.59 2.25005 4.49086 0
M  V30 1618 C 156.584 4.16672 4.82352 0
M  V30 1619 C 154.271 3.50315 5.00722 0
M  V30 1620 C 155.269 4.45964 5.17306 0
M  V30 1621 O 154.957 5.69052 5.67833 0
M  V30 1622 H 154.689 0.191664 0.64826 0
M  V30 1623 H 157.243 1.17409 1.68536 0
M  V30 1624 H 155.473 -0.160549 3.86367 0
M  V30 1625 H 157.162 0.212879 4.05341 0
M  V30 1626 H 157.928 2.69622 4.03149 0
M  V30 1627 H 153.807 1.51332 4.35453 0
M  V30 1628 H 157.351 4.91336 4.95211 0
M  V30 1629 H 153.248 3.72147 5.27424 0
M  V30 1630 H 154.016 5.71236 5.86201 0
M  V30 1631 N 156.679 -1.44442 0.630414 0
M  V30 1632 C 157.609 -2.33418 -0.0618083 0
M  V30 1633 C 158.59 -1.48165 -0.835541 0
M  V30 1634 O 159.775 -1.76886 -0.801564 0
M  V30 1635 C 156.905 -3.31222 -1.04449 0
M  V30 1636 C 155.859 -4.26288 -0.382436 0
M  V30 1637 C 155.185 -5.13954 -1.47497 0
M  V30 1638 C 156.485 -5.1744 0.710865 0
M  V30 1639 H 158.179 -2.91548 0.681184 0
M  V30 1640 H 155.725 -1.40191 0.329026 0
M  V30 1641 H 157.678 -3.92351 -1.53748 0
M  V30 1642 H 156.402 -2.71299 -1.81836 0
M  V30 1643 H 155.061 -3.6649 0.0899054 0
M  V30 1644 H 154.709 -4.50385 -2.2397 0
M  V30 1645 H 154.409 -5.7837 -1.03737 0
M  V30 1646 H 155.933 -5.77955 -1.96979 0
M  V30 1647 H 157.347 -5.72509 0.300996 0
M  V30 1648 H 155.744 -5.90455 1.07156 0
M  V30 1649 H 156.814 -4.58496 1.57829 0
M  V30 1650 N 158.157 -0.370918 -1.53173 0
M  V30 1651 C 159.573 -0.0200818 -1.59587 0
M  V30 1652 C 159.773 1.46279 -1.38581 0
M  V30 1653 O 158.829 2.22506 -1.19363 0
M  V30 1654 C 160.142 -0.4808 -2.96831 0
M  V30 1655 C 161.69 -0.435477 -3.09956 0
M  V30 1656 C 162.165 -0.872092 -4.4962 0
M  V30 1657 N 163.656 -0.827364 -4.55751 0
M  V30 1658 C 164.391 -1.13683 -5.62018 0
M  V30 1659 N 163.887 -1.51584 -6.76014 0
M  V30 1660 N 165.68 -1.05927 -5.52029 0
M  V30 1661 H 157.831 -1.33652 -1.65079 0
M  V30 1662 H 160.094 -0.546634 -0.774529 0
M  V30 1663 H 159.8 -1.51577 -3.1736 0
M  V30 1664 H 159.674 0.129796 -3.76977 0
M  V30 1665 H 162.061 0.590371 -2.89134 0
M  V30 1666 H 162.142 -1.08164 -2.31806 0
M  V30 1667 H 161.786 -1.89608 -4.71181 0
M  V30 1668 H 161.716 -0.203127 -5.26208 0
M  V30 1669 H 164.207 -0.548216 -3.73902 0
M  V30 1670 H 164.52 -1.73609 -7.53047 0
M  V30 1671 H 162.865 -1.55454 -6.77391 0
M  V30 1672 H 166.056 -0.762321 -4.61851 0
M  V30 1673 H 166.229 -1.30378 -6.34749 0
M  V30 1674 N 159.635 1.57281 -0.100228 0
M  V30 1675 C 160.881 1.94826 0.563101 0
M  V30 1676 C 161.214 0.982475 1.67514 0
M  V30 1677 O 160.489 0.0164069 1.94493 0
M  V30 1678 C 160.772 3.42453 1.11346 0
M  V30 1679 C 160.625 4.498 0.00612081 0
M  V30 1680 C 161.944 3.91506 2.01024 0
M  V30 1681 H 159.063 0.708428 0.203221 0
M  V30 1682 H 161.705 1.8922 -0.171979 0
M  V30 1683 H 159.855 3.47361 1.7399 0
M  V30 1684 H 161.527 4.57 -0.628357 0
M  V30 1685 H 159.77 4.28756 -0.659581 0
M  V30 1686 H 160.441 5.50306 0.432109 0
M  V30 1687 H 162.917 3.88784 1.48278 0
M  V30 1688 H 161.793 4.95358 2.36457 0
M  V30 1689 H 162.054 3.31099 2.92961 0
M  V30 1690 N 161.113 -0.173488 1.56642 0
M  V30 1691 C 162.06 -1.21482 1.96242 0
M  V30 1692 C 163.03 -1.44104 0.826027 0
M  V30 1693 O 164.215 -1.5688 1.08597 0
M  V30 1694 C 161.355 -2.54964 2.32567 0
M  V30 1695 C 160.468 -2.39739 3.59373 0
M  V30 1696 C 159.603 -3.66072 3.84921 0
M  V30 1697 C 158.642 -3.45771 5.05083 0
M  V30 1698 N 157.779 -4.64169 5.26775 0
M  V30 1699 H 162.619 -0.870123 2.85014 0
M  V30 1700 H 160.156 -0.418245 1.41029 0
M  V30 1701 H 162.114 -3.32758 2.5165 0
M  V30 1702 H 160.744 -2.87433 1.46908 0
M  V30 1703 H 159.796 -1.53131 3.48217 0
M  V30 1704 H 161.108 -2.20683 4.47326 0
M  V30 1705 H 160.262 -4.52303 4.0436 0
M  V30 1706 H 159.001 -3.88105 2.9534 0
M  V30 1707 H 158.006 -2.57927 4.85545 0
M  V30 1708 H 159.231 -3.25163 5.96193 0
M  V30 1709 H 157.177 -4.86425 4.40144 0
M  V30 1710 H 157.094 -4.48019 6.08946 0
M  V30 1711 H 158.362 -5.51689 5.5069 0
M  V30 1712 N 162.591 -1.51276 -0.441967 0
M  V30 1713 C 163.84 -1.6295 -1.18871 0
M  V30 1714 C 164.153 -0.349312 -1.92456 0
M  V30 1715 O 165.359 -0.345355 -2.69295 0
M  V30 1716 C 163.815 -2.87759 -2.16155 0
M  V30 1717 C 163.423 -4.22764 -1.48239 0
M  V30 1718 C 165.167 -3.08788 -2.91291 0
M  V30 1719 C 163.074 -5.38728 -2.4398 0
M  V30 1720 H 162.004 -0.606913 -0.447406 0
M  V30 1721 H 164.655 -1.77739 -0.456205 0
M  V30 1722 H 163.037 -2.66593 -2.92821 0
M  V30 1723 H 164.211 -4.54293 -0.771635 0
M  V30 1724 H 162.526 -4.07575 -0.852741 0
M  V30 1725 H 165.123 -3.92599 -3.63002 0
M  V30 1726 H 165.466 -2.21679 -3.5237 0
M  V30 1727 H 165.999 -3.30272 -2.21733 0
M  V30 1728 H 162.738 -6.28082 -1.87598 0
M  V30 1729 H 162.258 -5.1158 -3.13123 0
M  V30 1730 H 163.937 -5.70489 -3.05207 0
M  V30 1731 N 164.069 0.697108 -1.41344 0
M  V30 1732 C 165.48 1.27697 -1.36199 0
M  V30 1733 C 165.831 1.9615 -0.0443463 0
M  V30 1734 O 164.956 1.98689 0.857419 0
M  V30 1735 C 165.551 2.32223 -2.46694 0
M  V30 1736 C 164.11 2.8579 -2.44952 0
M  V30 1737 C 163.257 1.59807 -2.26621 0
M  V30 1738 H 166.208 0.491968 -1.50882 0
M  V30 1739 H 166.229 3.1348 -2.15664 0
M  V30 1740 H 165.741 1.82373 -3.42581 0
M  V30 1741 H 163.842 3.3982 -1.52817 0
M  V30 1742 H 163.955 3.36325 -3.41207 0
M  V30 1743 H 162.319 1.8556 -1.7447 0
M  V30 1744 H 163.102 1.11956 -3.24532 0
M  V30 1745 N 165.547 1.27147 0.931209 0
M  V30 1746 C 166.477 1.12081 2.04842 0
M  V30 1747 C 167.458 0.0232364 1.70084 0
M  V30 1748 O 168.643 0.197085 1.93197 0
M  V30 1749 C 165.773 0.76354 3.38803 0
M  V30 1750 C 164.727 1.81396 3.87659 0
M  V30 1751 C 164.053 1.31075 5.18385 0
M  V30 1752 C 165.353 3.21739 4.11438 0
M  V30 1753 H 167.047 2.05537 2.17703 0
M  V30 1754 H 164.593 0.989603 1.04608 0
M  V30 1755 H 166.546 0.644982 4.16435 0
M  V30 1756 H 165.27 -0.206727 3.25945 0
M  V30 1757 H 163.929 1.92136 3.12217 0
M  V30 1758 H 163.577 0.330037 5.01916 0
M  V30 1759 H 163.277 2.013 5.52044 0
M  V30 1760 H 164.801 1.20506 5.98591 0
M  V30 1761 H 166.215 3.14019 4.79651 0
M  V30 1762 H 164.612 3.89644 4.56397 0
M  V30 1763 H 165.682 3.67054 3.16859 0
M  V30 1764 N 167.025 -1.13721 1.09112 0
M  V30 1765 C 168.441 -1.36914 0.820174 0
M  V30 1766 C 168.641 -1.93356 -0.567079 0
M  V30 1767 O 167.697 -2.15093 -1.32255 0
M  V30 1768 C 169.01 -2.3235 1.90877 0
M  V30 1769 C 170.558 -2.45973 1.93562 0
M  V30 1770 C 171.033 -3.44714 3.01556 0
M  V30 1771 N 172.524 -3.52263 3.00775 0
M  V30 1772 C 173.259 -4.28536 3.80978 0
M  V30 1773 N 172.755 -5.07991 4.71081 0
M  V30 1774 N 174.548 -4.23804 3.69251 0
M  V30 1775 H 166.699 -0.754348 1.98553 0
M  V30 1776 H 168.962 -0.3944 0.862063 0
M  V30 1777 H 168.668 -1.98027 2.90651 0
M  V30 1778 H 168.542 -3.32332 1.78424 0
M  V30 1779 H 170.929 -2.79584 0.944286 0
M  V30 1780 H 171.01 -1.45926 2.10093 0
M  V30 1781 H 170.654 -3.11835 4.00901 0
M  V30 1782 H 170.584 -4.44558 2.82269 0
M  V30 1783 H 173.075 -2.95567 2.35475 0
M  V30 1784 H 173.388 -5.63487 5.28869 0
M  V30 1785 H 171.733 -5.07235 4.75119 0
M  V30 1786 H 174.924 -3.60806 2.98222 0
M  V30 1787 H 175.097 -4.82995 4.31995 0
M  V30 1788 N 168.503 -0.877838 -1.30888 0
M  V30 1789 C 169.733 -0.506678 -2.00291 0
M  V30 1790 C 170.141 0.907449 -1.66018 0
M  V30 1791 O 169.484 1.60719 -0.88967 0
M  V30 1792 C 169.546 -0.59323 -3.54572 0
M  V30 1793 C 169.21 -1.97038 -4.12341 0
M  V30 1794 C 170.207 -2.93889 -4.28865 0
M  V30 1795 C 167.892 -2.27383 -4.47886 0
M  V30 1796 C 169.886 -4.19224 -4.80136 0
M  V30 1797 C 167.573 -3.52965 -4.98857 0
M  V30 1798 C 168.571 -4.48701 -5.14934 0
M  V30 1799 O 168.259 -5.72056 -5.64808 0
M  V30 1800 H 167.991 -0.1951 -0.647234 0
M  V30 1801 H 170.545 -1.18301 -1.6791 0
M  V30 1802 H 168.775 0.140057 -3.86446 0
M  V30 1803 H 170.464 -0.234372 -4.05223 0
M  V30 1804 H 171.23 -2.71756 -4.01714 0
M  V30 1805 H 167.109 -1.53639 -4.34645 0
M  V30 1806 H 170.653 -4.93956 -4.92599 0
M  V30 1807 H 166.55 -3.74939 -5.25443 0
M  V30 1808 H 167.318 -5.74337 -5.83163 0
M  V30 1809 N 169.982 1.44106 -0.638065 0
M  V30 1810 C 170.929 2.30715 0.062701 0
M  V30 1811 C 171.899 1.43882 0.829883 0
M  V30 1812 O 173.084 1.72775 0.809532 0
M  V30 1813 C 170.224 3.29258 1.03358 0
M  V30 1814 C 169.337 4.31192 0.26409 0
M  V30 1815 C 168.472 5.16825 1.22741 0
M  V30 1816 C 167.511 6.10462 0.447475 0
M  V30 1817 N 166.648 6.8877 1.36161 0
M  V30 1818 H 171.488 2.90096 -0.681781 0
M  V30 1819 H 169.025 1.42925 -0.347988 0
M  V30 1820 H 170.983 3.84886 1.60992 0
M  V30 1821 H 169.613 2.71562 1.74511 0
M  V30 1822 H 168.665 3.77981 -0.428295 0
M  V30 1823 H 169.977 4.97619 -0.343052 0
M  V30 1824 H 169.131 5.77004 1.87487 0
M  V30 1825 H 167.87 4.50488 1.86847 0
M  V30 1826 H 166.875 5.49386 -0.213433 0
M  V30 1827 H 168.1 6.78837 -0.188968 0
M  V30 1828 H 166.046 6.25096 1.98975 0
M  V30 1829 H 165.963 7.51663 0.808656 0
M  V30 1830 H 167.231 7.53467 1.99769 0
M  V30 1831 N 171.46 0.379036 1.52974 0
M  V30 1832 C 172.393 -0.504932 2.22544 0
M  V30 1833 C 173.371 -1.0723 1.22231 0
M  V30 1834 O 174.555 -1.12589 1.51182 0
M  V30 1835 C 171.682 -1.69794 2.93066 0
M  V30 1836 C 170.728 -1.25678 4.07563 0
M  V30 1837 S 171.561 -0.246852 5.34931 0
M  V30 1838 C 172.717 -1.44588 6.08971 0
M  V30 1839 H 172.95 0.0858666 2.97176 0
M  V30 1840 H 170.483 0.163183 1.53535 0
M  V30 1841 H 172.441 -2.38219 3.34308 0
M  V30 1842 H 171.102 -2.26002 2.18133 0
M  V30 1843 H 170.295 -2.14725 4.5597 0
M  V30 1844 H 169.897 -0.651584 3.6828 0
M  V30 1845 H 172.189 -2.37469 6.34519 0
M  V30 1846 H 173.132 -1.00292 7.00962 0
M  V30 1847 H 173.54 -1.65804 5.39601 0
M  V30 1848 N 172.938 -1.57226 0.108567 0
M  V30 1849 C 174.184 -1.95121 -0.552761 0
M  V30 1850 C 174.517 -0.991345 -1.66991 0
M  V30 1851 O 173.792 -0.0267211 -1.94482 0
M  V30 1852 C 174.075 -3.43039 -1.09528 0
M  V30 1853 C 173.928 -4.49797 0.0177332 0
M  V30 1854 C 175.247 -3.92567 -1.98945 0
M  V30 1855 H 172.366 -0.709496 -0.199461 0
M  V30 1856 H 175.008 -1.89126 0.182011 0
M  V30 1857 H 173.158 -3.48279 -1.72146 0
M  V30 1858 H 174.83 -4.56661 0.652584 0
M  V30 1859 H 173.073 -4.284 0.682309 0
M  V30 1860 H 173.744 -5.50528 -0.402919 0
M  V30 1861 H 176.22 -3.89565 -1.46214 0
M  V30 1862 H 175.096 -4.96605 -2.33827 0
M  V30 1863 H 175.357 -3.32648 -2.91201 0
M  V30 1864 N 174.416 0.165178 -1.56732 0
M  V30 1865 C 175.662 0.882112 -1.82611 0
M  V30 1866 C 175.995 1.81628 -0.687378 0
M  V30 1867 O 175.27 1.92009 0.310267 0
M  V30 1868 C 175.553 1.67245 -3.18906 0
M  V30 1869 C 175.406 0.760987 -4.43316 0
M  V30 1870 C 176.725 2.63884 -3.52212 0
M  V30 1871 H 173.844 0.319242 -0.664269 0
M  V30 1872 H 176.486 0.148052 -1.89422 0
M  V30 1873 H 174.636 2.29824 -3.1323 0
M  V30 1874 H 176.308 0.147596 -4.61064 0
M  V30 1875 H 174.551 0.0694102 -4.33744 0
M  V30 1876 H 175.222 1.34962 -5.35247 0
M  V30 1877 H 177.698 2.11429 -3.58381 0
M  V30 1878 H 176.574 3.16245 -4.48643 0
M  V30 1879 H 176.835 3.44377 -2.77231 0
M  V30 1880 N 175.894 1.51508 0.433938 0
M  V30 1881 C 177.122 1.68157 1.20543 0
M  V30 1882 C 177.537 0.380362 1.84929 0
M  V30 1883 O 176.894 -0.641446 1.70856 0
M  V30 1884 C 176.945 2.79965 2.28696 0
M  V30 1885 O 176.666 4.05045 1.66943 0
M  V30 1886 C 178.167 3.07912 3.18912 0
M  V30 1887 H 175.387 0.56421 0.363191 0
M  V30 1888 H 177.931 1.97941 0.513754 0
M  V30 1889 H 176.086 2.5277 2.93574 0
M  V30 1890 H 176.5 4.67165 2.38448 0
M  V30 1891 H 177.974 3.89719 3.90926 0
M  V30 1892 H 178.451 2.20456 3.79863 0
M  V30 1893 H 179.057 3.36779 2.59731 0
M  V30 1894 N 177.372 -0.689602 1.41712 0
M  V30 1895 C 178.783 -1.26973 1.36875 0
M  V30 1896 C 179.134 -1.96124 0.054748 0
M  V30 1897 O 178.259 -1.99141 -0.84687 0
M  V30 1898 C 178.854 -2.30912 2.47922 0
M  V30 1899 C 177.413 -2.84486 2.46464 0
M  V30 1900 C 176.56 -1.58603 2.27465 0
M  V30 1901 H 179.511 -0.48396 1.51141 0
M  V30 1902 H 179.532 -3.12331 2.17323 0
M  V30 1903 H 179.044 -1.80554 3.43543 0
M  V30 1904 H 177.145 -3.39005 1.54617 0
M  V30 1905 H 177.258 -3.34511 3.42986 0
M  V30 1906 H 175.622 -1.84632 1.75451 0
M  V30 1907 H 176.405 -1.10233 3.25121 0
M  V30 1908 N 178.85 -1.27639 -0.924453 0
M  V30 1909 C 180.266 -1.05113 -1.20097 0
M  V30 1910 C 180.466 0.213262 -2.00368 0
M  V30 1911 O 179.522 0.91787 -2.35226 0
M  V30 1912 C 180.835 -2.29244 -1.94596 0
M  V30 1913 C 182.383 -2.34315 -2.07522 0
M  V30 1914 C 182.858 -3.58183 -2.85427 0
M  V30 1915 N 184.349 -3.5876 -2.92994 0
M  V30 1916 C 185.084 -4.51277 -3.53746 0
M  V30 1917 N 184.58 -5.54102 -4.15863 0
M  V30 1918 N 186.373 -4.38894 -3.51181 0
M  V30 1919 H 178.524 -2.08821 -0.388264 0
M  V30 1920 H 180.787 -0.918568 -0.234385 0
M  V30 1921 H 180.493 -3.21301 -1.43034 0
M  V30 1922 H 180.367 -2.34816 -2.95197 0
M  V30 1923 H 182.754 -1.42762 -2.58269 0
M  V30 1924 H 182.835 -2.32744 -1.06131 0
M  V30 1925 H 182.479 -4.50074 -2.35363 0
M  V30 1926 H 182.409 -3.57006 -3.8711 0
M  V30 1927 H 184.9 -2.84398 -2.4885 0
M  V30 1928 H 185.213 -6.20859 -4.60168 0
M  V30 1929 H 183.558 -5.57941 -4.144 0
M  V30 1930 H 186.749 -3.57772 -3.01856 0
M  V30 1931 H 186.922 -5.11186 -3.98237 0
M  V30 1932 N 180.328 1.1314 -1.09713 0
M  V30 1933 C 181.744 1.36477 -0.827423 0
M  V30 1934 C 181.944 1.93654 0.556817 0
M  V30 1935 O 181 2.15791 1.31112 0
M  V30 1936 C 182.313 2.31334 -1.92106 0
M  V30 1937 C 183.861 2.44943 -1.94864 0
M  V30 1938 C 184.336 3.4311 -3.0338 0
M  V30 1939 N 185.827 3.50662 -3.02639 0
M  V30 1940 C 186.562 4.2651 -3.83246 0
M  V30 1941 N 186.058 5.05485 -4.73768 0
M  V30 1942 N 187.851 4.2184 -3.71493 0
M  V30 1943 H 180.002 0.743807 -1.9895 0
M  V30 1944 H 182.265 0.389823 -0.864143 0
M  V30 1945 H 181.971 1.96483 -2.91698 0
M  V30 1946 H 181.845 3.31381 -1.80184 0
M  V30 1947 H 184.232 2.79079 -0.959099 0
M  V30 1948 H 184.313 1.4481 -2.10864 0
M  V30 1949 H 183.957 3.09704 -4.02549 0
M  V30 1950 H 183.887 4.43055 -2.84622 0
M  V30 1951 H 186.378 2.94315 -2.37039 0
M  V30 1952 H 186.691 5.60675 -5.3185 0
M  V30 1953 H 185.036 5.04708 -4.77802 0
M  V30 1954 H 188.227 3.5922 -3.00131 0
M  V30 1955 H 188.4 4.80697 -4.3455 0
M  V30 1956 N 181.806 0.884767 1.30421 0
M  V30 1957 C 182.769 0.356277 2.26414 0
M  V30 1958 C 183.769 -0.501124 1.52792 0
M  V30 1959 O 184.959 -0.30831 1.7145 0
M  V30 1960 C 182.091 -0.492316 3.37326 0
M  V30 1961 H 183.284 1.20389 2.74675 0
M  V30 1962 H 180.837 0.661607 1.41607 0
M  V30 1963 H 181.572 -1.36052 2.94381 0
M  V30 1964 H 181.357 0.121832 3.91911 0
M  V30 1965 H 182.847 -0.853871 4.08777 0
M  V30 1966 N 183.284 -1.43765 0.645699 0
M  V30 1967 C 184.247 -2.29163 -0.0409488 0
M  V30 1968 C 185.247 -1.41813 -0.757996 0
M  V30 1969 O 186.437 -1.63527 -0.600382 0
M  V30 1970 C 183.569 -3.23716 -1.06869 0
M  V30 1971 H 184.762 -2.91366 0.710345 0
M  V30 1972 H 182.315 -1.5092 0.406547 0
M  V30 1973 H 183.05 -2.66393 -1.84947 0
M  V30 1974 H 182.835 -3.88105 -0.558277 0
M  V30 1975 H 184.325 -3.87831 -1.54845 0
M  V30 1976 N 184.763 -0.387143 -1.52771 0
M  V30 1977 C 186.009 0.196025 -2.0185 0
M  V30 1978 C 186.342 1.46641 -1.27319 0
M  V30 1979 O 185.617 1.90889 -0.373032 0
M  V30 1980 C 185.9 0.466136 -3.5707 0
M  V30 1981 C 185.753 -0.819385 -4.42274 0
M  V30 1982 C 187.072 1.25768 -4.21747 0
M  V30 1983 H 184.191 0.0697708 -0.73369 0
M  V30 1984 H 186.833 -0.516286 -1.82851 0
M  V30 1985 H 184.983 1.07293 -3.7339 0
M  V30 1986 H 186.655 -1.4563 -4.37709 0
M  V30 1987 H 184.898 -1.43517 -4.09372 0
M  V30 1988 H 185.569 -0.585065 -5.48891 0
M  V30 1989 H 188.045 0.744167 -4.09391 0
M  V30 1990 H 186.921 1.41541 -5.30337 0
M  V30 1991 H 187.182 2.27228 -3.79236 0
M  V30 1992 N 186.241 1.57166 -0.116904 0
M  V30 1993 C 187.204 2.14039 0.819742 0
M  V30 1994 C 188.204 1.07477 1.19605 0
M  V30 1995 O 189.394 1.33263 1.1219 0
M  V30 1996 C 186.526 2.67891 2.10826 0
M  V30 1997 H 187.719 2.98128 0.325511 0
M  V30 1998 H 185.272 1.55739 0.132312 0
M  V30 1999 H 186.007 1.87384 2.64685 0
M  V30 2000 H 185.792 3.45823 1.84793 0
M  V30 2001 H 187.282 3.11809 2.77785 0
M  V30 2002 N 187.719 -0.156864 1.56817 0
M  V30 2003 C 188.968 -0.869504 1.81996 0
M  V30 2004 C 189.281 -1.82777 0.696545 0
M  V30 2005 O 190.487 -2.58384 0.833658 0
M  V30 2006 C 188.943 -1.59679 3.22538 0
M  V30 2007 C 188.551 -0.681431 4.42787 0
M  V30 2008 C 190.295 -2.2968 3.56997 0
M  V30 2009 C 188.202 -1.40978 5.74351 0
M  V30 2010 H 187.132 -0.328438 0.678708 0
M  V30 2011 H 189.783 -0.1223 1.83092 0
M  V30 2012 H 188.165 -2.38927 3.158 0
M  V30 2013 H 189.339 0.0751166 4.60739 0
M  V30 2014 H 187.654 -0.0903431 4.16302 0
M  V30 2015 H 190.251 -2.84794 4.52544 0
M  V30 2016 H 190.594 -3.05707 2.82576 0
M  V30 2017 H 191.127 -1.57361 3.65352 0
M  V30 2018 H 187.866 -0.691561 6.51842 0
M  V30 2019 H 187.386 -2.13929 5.60352 0
M  V30 2020 H 189.065 -1.95337 6.16808 0
M  V30 2021 N 189.197 -1.51736 -0.425897 0
M  V30 2022 C 190.16 -1.73271 -1.50032 0
M  V30 2023 C 191.16 -0.602639 -1.4908 0
M  V30 2024 O 192.35 -0.87033 -1.509 0
M  V30 2025 C 189.482 -1.79969 -2.89523 0
M  V30 2026 H 190.675 -2.69172 -1.32237 0
M  V30 2027 H 188.228 -1.41899 -0.65532 0
M  V30 2028 H 188.963 -0.859241 -3.1271 0
M  V30 2029 H 188.748 -2.62109 -2.91619 0
M  V30 2030 H 190.238 -1.9843 -3.67444 0
M  V30 2031 N 190.675 0.682077 -1.42076 0
M  V30 2032 C 191.923 1.4393 -1.41876 0
M  V30 2033 C 192.244 1.94971 -0.0335599 0
M  V30 2034 O 191.514 1.72591 0.926773 0
M  V30 2035 H 190.094 0.534085 -0.522267 0
M  V30 2036 H 192.756 0.806427 -1.77434 0
M  V30 2037 H 191.852 2.29588 -2.11414 0
M  V30 2038 N 192.153 1.28127 0.917671 0
M  V30 2039 C 193.393 1.163 1.68088 0
M  V30 2040 C 193.757 -0.284515 1.8988 0
M  V30 2041 O 194.958 -0.525413 2.63615 0
M  V30 2042 C 193.229 1.93546 3.00457 0
M  V30 2043 S 194.788 1.98048 3.91564 0
M  V30 2044 H 191.606 0.415005 0.577315 0
M  V30 2045 H 194.208 1.62173 1.09179 0
M  V30 2046 H 192.912 2.97888 2.82295 0
M  V30 2047 H 192.443 1.48207 3.64415 0
M  V30 2048 H 194.458 1.08415 4.84211 0
M  V30 2049 N 193.631 -1.12557 1.10312 0
M  V30 2050 C 194.877 -1.84515 0.855901 0
M  V30 2051 C 195.232 -1.82409 -0.611936 0
M  V30 2052 O 194.525 -1.25778 -1.44535 0
M  V30 2053 C 194.719 -3.31462 1.33669 0
M  V30 2054 C 194.548 -3.47879 2.84974 0
M  V30 2055 C 193.318 -3.61589 3.52961 0
M  V30 2056 C 195.516 -3.43152 3.83081 0
M  V30 2057 N 193.498 -3.66359 4.926 0
M  V30 2058 C 194.869 -3.54401 5.08724 0
M  V30 2059 C 196.924 -3.2661 3.75807 0
M  V30 2060 C 195.627 -3.50815 6.2795 0
M  V30 2061 C 197.653 -3.24335 4.94531 0
M  V30 2062 C 197.015 -3.36144 6.19021 0
M  V30 2063 H 193.114 -0.690967 0.366182 0
M  V30 2064 H 195.698 -1.34763 1.40524 0
M  V30 2065 H 193.869 -3.7976 0.814686 0
M  V30 2066 H 195.601 -3.91272 1.03385 0
M  V30 2067 H 192.356 -3.63652 3.03404 0
M  V30 2068 H 192.78 -3.72411 5.65366 0
M  V30 2069 H 197.422 -3.16375 2.80476 0
M  V30 2070 H 195.14 -3.5982 7.23571 0
M  V30 2071 H 198.726 -3.12719 4.9061 0
M  V30 2072 H 197.606 -3.34357 7.09348 0
M  V30 2073 N 195.109 -0.891671 -1.2995 0
M  V30 2074 C 196.358 -0.509521 -1.95158 0
M  V30 2075 C 196.671 0.947388 -1.71125 0
M  V30 2076 O 197.877 1.43669 -2.30372 0
M  V30 2077 C 196.333 -0.860315 -3.49466 0
M  V30 2078 C 195.941 -2.33545 -3.8231 0
M  V30 2079 C 197.685 -0.547687 -4.20952 0
M  V30 2080 C 195.592 -2.62752 -5.29826 0
M  V30 2081 H 194.522 -0.18682 -0.730489 0
M  V30 2082 H 197.173 -1.08756 -1.47798 0
M  V30 2083 H 195.555 -0.211285 -3.95436 0
M  V30 2084 H 196.729 -3.02936 -3.47227 0
M  V30 2085 H 195.044 -2.61629 -3.23944 0
M  V30 2086 H 197.641 -0.742854 -5.29515 0
M  V30 2087 H 197.984 0.51332 -4.13123 0
M  V30 2088 H 198.517 -1.1542 -3.80688 0
M  V30 2089 H 195.256 -3.6762 -5.42712 0
M  V30 2090 H 194.776 -1.97977 -5.66185 0
M  V30 2091 H 196.455 -2.48601 -5.97333 0
M  V30 2092 N 196.587 1.43421 -0.653314 0
M  V30 2093 C 197.517 2.33487 0.0246656 0
M  V30 2094 C 198.498 1.49475 0.811863 0
M  V30 2095 O 199.683 1.78139 0.773322 0
M  V30 2096 C 196.813 3.32841 0.99166 0
M  V30 2097 C 195.767 4.26842 0.314568 0
M  V30 2098 C 195.093 5.16236 1.39302 0
M  V30 2099 C 196.393 5.16243 -0.793095 0
M  V30 2100 H 198.087 2.90427 -0.727481 0
M  V30 2101 H 195.633 1.39649 -0.351287 0
M  V30 2102 H 197.586 3.94747 1.47487 0
M  V30 2103 H 196.31 2.74158 1.77497 0
M  V30 2104 H 194.969 3.663 -0.148199 0
M  V30 2105 H 194.617 4.53891 2.16776 0
M  V30 2106 H 194.317 5.79948 0.945223 0
M  V30 2107 H 195.841 5.81015 1.87759 0
M  V30 2108 H 197.255 5.71958 -0.392039 0
M  V30 2109 H 195.652 5.88676 -1.16536 0
M  V30 2110 H 196.722 4.55927 -1.65103 0
M  V30 2111 N 198.065 0.39524 1.52563 0
M  V30 2112 C 199.29 -0.187456 2.06551 0
M  V30 2113 C 199.715 -1.39249 1.26457 0
M  V30 2114 O 199.073 -1.78947 0.291151 0
M  V30 2115 C 199.121 -0.529985 3.56684 0
M  V30 2116 O 198.225 -1.62307 3.79118 0
M  V30 2117 H 197.566 -0.0202537 0.663691 0
M  V30 2118 H 200.096 0.564426 1.96661 0
M  V30 2119 H 200.106 -0.792598 4.00227 0
M  V30 2120 H 198.781 0.350987 4.14416 0
M  V30 2121 H 197.358 -1.3537 3.47461 0
M  V30 2122 N 199.544 -1.57102 0.125237 0
M  V30 2123 C 200.791 -1.95407 -0.531248 0
M  V30 2124 C 201.119 -1.0089 -1.66287 0
M  V30 2125 O 200.374 -0.0339431 -1.95671 0
M  V30 2126 C 200.673 -3.40096 -1.09862 0
M  V30 2127 C 200.339 -4.50815 -0.0876989 0
M  V30 2128 C 199.001 -4.80824 0.19026 0
M  V30 2129 C 201.353 -5.17724 0.600902 0
M  V30 2130 C 198.681 -5.75058 1.163 0
M  V30 2131 C 201.033 -6.13005 1.56231 0
M  V30 2132 C 199.697 -6.41403 1.8482 0
M  V30 2133 H 198.967 -0.715046 -0.194397 0
M  V30 2134 H 201.614 -1.90373 0.207463 0
M  V30 2135 H 199.919 -3.41855 -1.91422 0
M  V30 2136 H 201.616 -3.6705 -1.61478 0
M  V30 2137 H 198.206 -4.27444 -0.314528 0
M  V30 2138 H 202.39 -4.94691 0.399333 0
M  V30 2139 H 197.646 -5.95362 1.39117 0
M  V30 2140 H 201.82 -6.63934 2.10153 0
M  V30 2141 H 199.447 -7.14229 2.60349 0
M  V30 2142 N 201.022 0.148545 -1.56898 0
M  V30 2143 C 202.268 0.862694 -1.83536 0
M  V30 2144 C 202.601 1.80889 -0.706604 0
M  V30 2145 O 201.876 1.92328 0.289885 0
M  V30 2146 C 202.159 1.63853 -3.20662 0
M  V30 2147 C 202.012 0.713925 -4.44098 0
M  V30 2148 C 203.331 2.60133 -3.54991 0
M  V30 2149 H 200.45 0.312179 -0.667618 0
M  V30 2150 H 203.092 0.127953 -1.89569 0
M  V30 2151 H 201.242 2.26489 -3.1565 0
M  V30 2152 H 202.914 0.098686 -4.61194 0
M  V30 2153 H 201.157 0.0234019 -4.33794 0
M  V30 2154 H 201.828 1.29278 -5.36648 0
M  V30 2155 H 204.304 2.07616 -3.60603 0
M  V30 2156 H 203.18 3.11468 -4.51972 0
M  V30 2157 H 203.441 3.41417 -2.80868 0
M  V30 2158 N 202.5 1.5196 0.417844 0
M  V30 2159 C 203.746 1.65836 1.16732 0
M  V30 2160 C 204.079 0.382881 1.90388 0
M  V30 2161 O 203.354 -0.618368 1.84408 0
M  V30 2162 C 203.637 2.87466 2.16876 0
M  V30 2163 C 203.49 4.25041 1.47174 0
M  V30 2164 C 204.809 3.04613 3.17646 0
M  V30 2165 H 201.928 0.603515 0.423011 0
M  V30 2166 H 204.57 1.84494 0.454105 0
M  V30 2167 H 202.72 2.71689 2.777 0
M  V30 2168 H 204.392 4.52527 0.895376 0
M  V30 2169 H 202.635 4.26843 0.773806 0
M  V30 2170 H 203.306 5.06176 2.20204 0
M  V30 2171 H 205.782 3.1923 2.66892 0
M  V30 2172 H 204.658 3.91247 3.8499 0
M  V30 2173 H 204.919 2.17541 3.84874 0
M  V30 2174 N 203.978 -0.674533 1.42435 0
M  V30 2175 C 205.226 -1.43175 1.42637 0
M  V30 2176 C 205.547 -1.94951 0.0438992 0
M  V30 2177 O 204.817 -1.7308 -0.917607 0
M  V30 2178 H 203.397 -0.531307 0.525092 0
M  V30 2179 H 206.059 -0.797006 1.77859 0
M  V30 2180 H 205.155 -2.28463 2.12629 0
M  V30 2181 N 205.456 -1.28612 -0.910864 0
M  V30 2182 C 206.386 -1.15326 -2.03032 0
M  V30 2183 C 207.367 -0.0502924 -1.70026 0
M  V30 2184 O 208.552 -0.227797 -1.92859 0
M  V30 2185 C 205.682 -0.817343 -3.37545 0
M  V30 2186 C 204.636 -1.8754 -3.84724 0
M  V30 2187 C 203.962 -1.39305 -5.16235 0
M  V30 2188 C 205.262 -3.28244 -4.06267 0
M  V30 2189 H 206.956 -2.08975 -2.14406 0
M  V30 2190 H 204.502 -1.00612 -1.03021 0
M  V30 2191 H 206.455 -0.711151 -4.15356 0
M  V30 2192 H 205.179 0.154846 -3.26233 0
M  V30 2193 H 203.838 -1.97079 -3.09121 0
M  V30 2194 H 203.486 -0.409846 -5.01328 0
M  V30 2195 H 203.186 -2.10057 -5.48771 0
M  V30 2196 H 204.71 -1.30014 -5.96598 0
M  V30 2197 H 206.124 -3.21611 -4.74594 0
M  V30 2198 H 204.521 -3.96855 -4.5014 0
M  V30 2199 H 205.591 -3.72048 -3.10979 0
M  V30 2200 N 206.934 1.1197 -1.10907 0
M  V30 2201 C 208.162 1.87402 -0.876824 0
M  V30 2202 C 208.577 1.79894 0.573025 0
M  V30 2203 O 207.934 1.17629 1.39534 0
M  V30 2204 C 207.985 3.36428 -1.32282 0
M  V30 2205 O 207.706 3.43765 -2.71582 0
M  V30 2206 C 209.207 4.28783 -1.12518 0
M  V30 2207 H 206.427 0.592793 -0.314384 0
M  V30 2208 H 208.971 1.41649 -1.47499 0
M  V30 2209 H 207.126 3.79706 -0.768229 0
M  V30 2210 H 207.54 4.3652 -2.90776 0
M  V30 2211 H 209.014 5.31613 -1.48633 0
M  V30 2212 H 209.491 4.39153 -0.0642394 0
M  V30 2213 H 210.097 3.91291 -1.66648 0
M  V30 2214 N 208.412 0.89855 1.29475 0
M  V30 2215 C 209.823 0.572537 1.77705 0
M  V30 2216 C 210.174 -0.911778 1.73727 0
M  V30 2217 O 209.299 -1.71288 1.32247 0
M  V30 2218 C 209.894 1.03252 3.22683 0
M  V30 2219 C 208.453 0.757687 3.68695 0
M  V30 2220 C 207.6 1.20787 2.49612 0
M  V30 2221 H 210.551 1.08139 1.16153 0
M  V30 2222 H 210.572 0.367307 3.78723 0
M  V30 2223 H 210.084 2.11285 3.25546 0
M  V30 2224 H 208.185 -0.310079 3.71308 0
M  V30 2225 H 208.298 1.35476 4.59547 0
M  V30 2226 H 206.662 0.626888 2.46865 0
M  V30 2227 H 207.445 2.29622 2.55203 0
M  V30 2228 N 209.89 -1.43072 0.660911 0
M  V30 2229 C 210.823 -2.28074 -0.0758862 0
M  V30 2230 C 211.801 -1.40271 -0.822362 0
M  V30 2231 O 212.985 -1.69713 -0.820352 0
M  V30 2232 C 210.112 -3.19843 -1.11437 0
M  V30 2233 C 209.158 -4.23957 -0.465069 0
M  V30 2234 S 209.991 -5.29978 0.767078 0
M  V30 2235 C 211.147 -6.25314 -0.270682 0
M  V30 2236 H 211.38 -2.90216 0.645139 0
M  V30 2237 H 208.913 -1.47697 0.449995 0
M  V30 2238 H 210.871 -3.73257 -1.70849 0
M  V30 2239 H 209.532 -2.56863 -1.80776 0
M  V30 2240 H 208.725 -4.88299 -1.24819 0
M  V30 2241 H 208.327 -3.73959 0.0551242 0
M  V30 2242 H 210.619 -6.67932 -1.13459 0
M  V30 2243 H 211.562 -7.07293 0.337916 0
M  V30 2244 H 211.97 -5.61195 -0.609937 0
M  V30 2245 N 211.368 -0.403325 -1.52352 0
M  V30 2246 C 212.615 0.174347 -2.01748 0
M  V30 2247 C 212.943 1.45636 -1.2892 0
M  V30 2248 O 212.198 1.9193 -0.382258 0
M  V30 2249 C 212.497 0.474665 -3.54234 0
M  V30 2250 C 212.163 -0.717458 -4.45155 0
M  V30 2251 C 210.825 -1.04447 -4.69728 0
M  V30 2252 C 213.177 -1.51432 -4.98716 0
M  V30 2253 C 210.505 -2.16963 -5.45109 0
M  V30 2254 C 212.857 -2.6302 -5.75329 0
M  V30 2255 C 211.521 -2.96213 -5.98175 0
M  V30 2256 H 210.791 0.0637981 -0.738248 0
M  V30 2257 H 213.438 -0.543553 -1.83624 0
M  V30 2258 H 211.743 1.27406 -3.70506 0
M  V30 2259 H 213.44 0.934496 -3.89959 0
M  V30 2260 H 210.03 -0.452596 -4.26204 0
M  V30 2261 H 214.214 -1.27491 -4.79645 0
M  V30 2262 H 209.47 -2.43034 -5.61021 0
M  V30 2263 H 213.644 -3.25158 -6.15829 0
M  V30 2264 H 211.271 -3.83516 -6.56368 0
M  V30 2265 N 212.846 1.57033 -0.133567 0
M  V30 2266 C 214.094 1.953 0.519848 0
M  V30 2267 C 214.415 1.01866 1.66278 0
M  V30 2268 O 213.685 0.0776513 1.95746 0
M  V30 2269 H 212.265 0.721091 0.195032 0
M  V30 2270 H 214.927 1.93809 -0.205921 0
M  V30 2271 H 214.023 2.98695 0.904854 0
M  V30 2272 N 214.325 -0.140222 1.56975 0
M  V30 2273 C 215.571 -0.848084 1.84876 0
M  V30 2274 C 215.926 -1.78481 0.718481 0
M  V30 2275 O 215.219 -1.89497 -0.283093 0
M  V30 2276 C 215.413 -1.65386 3.16832 0
M  V30 2277 C 215.242 -0.79665 4.42587 0
M  V30 2278 C 214.012 -0.459648 5.03205 0
M  V30 2279 C 216.21 -0.12389 5.14151 0
M  V30 2280 N 214.192 0.410446 6.12526 0
M  V30 2281 C 215.563 0.606064 6.17031 0
M  V30 2282 C 217.618 -0.0452654 4.97879 0
M  V30 2283 C 216.321 1.40723 7.054 0
M  V30 2284 C 218.347 0.742658 5.86718 0
M  V30 2285 C 217.709 1.46087 6.89085 0
M  V30 2286 H 213.808 -0.287946 0.727056 0
M  V30 2287 H 216.392 -0.11304 1.94372 0
M  V30 2288 H 214.563 -2.36009 3.08471 0
M  V30 2289 H 216.295 -2.30541 3.32615 0
M  V30 2290 H 213.05 -0.797006 4.66846 0
M  V30 2291 H 213.474 0.836716 6.7181 0
M  V30 2292 H 218.116 -0.586184 4.18717 0
M  V30 2293 H 215.834 1.95938 7.83986 0
M  V30 2294 H 219.42 0.805574 5.76196 0
M  V30 2295 H 218.3 2.06077 7.56639 0
M  V30 2296 N 215.803 -1.52179 -0.40978 0
M  V30 2297 C 216.751 -1.76086 -1.51975 0
M  V30 2298 C 217.745 -0.627964 -1.57331 0
M  V30 2299 O 218.951 -0.809993 -1.60745 0
M  V30 2300 H 215.326 -0.556829 -0.505416 0
M  V30 2301 H 217.297 -2.69077 -1.28996 0
M  V30 2302 C 216.046 -1.92799 -2.8935 0
M  V30 2303 H 215.369 -2.79392 -2.85972 0
M  V30 2304 H 216.809 -2.13527 -3.66309 0
M  V30 2305 C 215.268 -0.694923 -3.29655 0
M  V30 2306 O 215.798 0.13751 -4.01465 0
M  V30 2307 N 214.004 -0.53101 -2.85707 0
M  V30 2308 H 213.551 -1.20952 -2.27439 0
M  V30 2309 H 213.509 0.292718 -3.13034 0
M  V30 2310 N 217.281 0.66697 -1.42791 0
M  V30 2311 C 218.229 1.80157 -1.47127 0
M  V30 2312 C 219.223 1.65825 -0.346199 0
M  V30 2313 O 220.429 1.72338 -0.519572 0
M  V30 2314 H 216.804 0.594158 -0.460956 0
M  V30 2315 H 218.775 1.73619 -2.42692 0
M  V30 2316 C 217.524 3.18351 -1.39813 0
M  V30 2317 H 216.847 3.3001 -2.25684 0
M  V30 2318 H 218.287 3.97736 -1.46908 0
M  V30 2319 C 216.746 3.36707 -0.11391 0
M  V30 2320 O 217.276 3.93027 0.830241 0
M  V30 2321 N 215.482 2.90586 -0.0285295 0
M  V30 2322 H 215.029 2.4494 -0.79764 0
M  V30 2323 H 214.987 3.03245 0.830063 0
M  V30 2324 N 218.759 1.29093 0.90403 0
M  V30 2325 C 219.689 1.16401 2.02418 0
M  V30 2326 C 220.67 0.0593085 1.69997 0
M  V30 2327 O 221.855 0.238021 1.92736 0
M  V30 2328 C 218.985 0.835233 3.37107 0
M  V30 2329 C 217.939 1.89578 3.83724 0
M  V30 2330 C 217.265 1.42041 5.15489 0
M  V30 2331 C 218.565 3.30394 4.04521 0
M  V30 2332 H 220.259 2.10109 2.13295 0
M  V30 2333 H 217.805 1.01157 1.02486 0
M  V30 2334 H 219.758 0.733169 4.14973 0
M  V30 2335 H 218.482 -0.137543 3.2631 0
M  V30 2336 H 217.141 1.98715 3.08071 0
M  V30 2337 H 216.789 0.436426 5.01103 0
M  V30 2338 H 216.489 2.12964 5.4765 0
M  V30 2339 H 218.013 1.33176 5.959 0
M  V30 2340 H 219.427 3.24123 4.72882 0
M  V30 2341 H 217.824 3.99237 4.48029 0
M  V30 2342 H 218.894 3.73692 3.09002 0
M  V30 2343 N 220.237 -1.11381 1.11499 0
M  V30 2344 C 221.462 -1.87475 0.887019 0
M  V30 2345 C 221.887 -1.79639 -0.557796 0
M  V30 2346 O 221.245 -1.15924 -1.39396 0
M  V30 2347 C 221.293 -3.34213 1.35403 0
M  V30 2348 O 220.397 -4.0903 0.526146 0
M  V30 2349 H 219.738 -0.582099 0.319463 0
M  V30 2350 H 222.268 -1.40785 1.48461 0
M  V30 2351 H 222.278 -3.8506 1.34881 0
M  V30 2352 H 220.953 -3.39232 2.40612 0
M  V30 2353 H 219.53 -3.68082 0.597522 0
M  V30 2354 N 221.715 -0.905404 -1.28997 0
M  V30 2355 C 222.678 -0.392253 -2.25819 0
M  V30 2356 C 223.678 0.476753 -1.5357 0
M  V30 2357 O 224.868 0.280994 -1.71919 0
M  V30 2358 C 222 0.438588 -3.38067 0
M  V30 2359 H 223.193 -1.24743 -2.72725 0
M  V30 2360 H 220.746 -0.684051 -1.40536 0
M  V30 2361 H 221.481 1.31352 -2.96508 0
M  V30 2362 H 221.266 -0.184167 -3.91667 0
M  V30 2363 H 222.756 0.78873 -4.10084 0
M  V30 2364 N 223.193 1.4272 -0.668489 0
M  V30 2365 C 224.439 2.01923 -0.188419 0
M  V30 2366 C 224.772 1.52704 1.19979 0
M  V30 2367 O 224.047 0.726566 1.8042 0
M  V30 2368 C 224.33 3.59451 -0.216085 0
M  V30 2369 C 224.183 4.18864 -1.6393 0
M  V30 2370 C 225.502 4.37903 0.439179 0
M  V30 2371 H 222.621 0.733674 -0.0699412 0
M  V30 2372 H 225.263 1.69822 -0.852076 0
M  V30 2373 H 223.413 3.86929 0.349012 0
M  V30 2374 H 225.085 4.02362 -2.25616 0
M  V30 2375 H 223.328 3.74933 -2.18193 0
M  V30 2376 H 223.999 5.27987 -1.61039 0
M  V30 2377 H 226.475 4.16079 -0.0417878 0
M  V30 2378 H 225.351 5.47519 0.389157 0
M  V30 2379 H 225.612 4.15303 1.51577 0
M  V30 2380 N 224.671 0.411399 1.52136 0
M  V30 2381 C 225.581 -0.419774 2.30814 0
M  V30 2382 C 226.597 -1.0515 1.38634 0
M  V30 2383 O 227.773 -1.05252 1.71709 0
M  V30 2384 C 224.838 -1.52019 3.11594 0
M  V30 2385 C 223.899 -0.91129 4.19516 0
M  V30 2386 C 223.132 -1.95927 4.96436 0
M  V30 2387 O 223.355 -3.17775 4.73683 0
M  V30 2388 O 222.289 -1.56423 5.81219 0
M  V30 2389 H 226.115 0.221805 3.02889 0
M  V30 2390 H 223.7 0.174547 1.48377 0
M  V30 2391 H 225.582 -2.15898 3.61892 0
M  V30 2392 H 224.257 -2.14633 2.42311 0
M  V30 2393 H 223.164 -0.235157 3.7336 0
M  V30 2394 H 224.497 -0.32904 4.91099 0
M  V30 2395 N 226.149 -1.5696 0.141893 0
M  V30 2396 C 227.565 -1.58151 -0.21456 0
M  V30 2397 C 227.765 -1.1559 -1.65049 0
M  V30 2398 O 226.821 -0.853832 -2.37626 0
M  V30 2399 C 228.134 -3.00674 0.0395576 0
M  V30 2400 C 229.682 -3.1299 -0.0245529 0
M  V30 2401 C 230.157 -4.57554 0.202167 0
M  V30 2402 N 231.648 -4.62961 0.148919 0
M  V30 2403 C 232.383 -5.7262 0.298924 0
M  V30 2404 N 231.879 -6.90947 0.50637 0
M  V30 2405 N 233.672 -5.61601 0.236886 0
M  V30 2406 H 225.823 -1.8292 1.07953 0
M  V30 2407 H 228.086 -0.846425 0.42693 0
M  V30 2408 H 227.792 -3.36183 1.03315 0
M  V30 2409 H 227.666 -3.70981 -0.682143 0
M  V30 2410 H 230.053 -2.77326 -1.00869 0
M  V30 2411 H 230.134 -2.4518 0.729396 0
M  V30 2412 H 229.778 -4.93922 1.18338 0
M  V30 2413 H 229.708 -5.23484 -0.572044 0
M  V30 2414 H 232.199 -3.77899 -0.00697015 0
M  V30 2415 H 232.512 -7.7038 0.611076 0
M  V30 2416 H 230.857 -6.92878 0.542628 0
M  V30 2417 H 234.048 -4.68039 0.0756209 0
M  V30 2418 H 234.221 -6.47015 0.357227 0
M  V30 2419 N 227.627 0.131896 -1.57047 0
M  V30 2420 C 228.59 1.14638 -1.98471 0
M  V30 2421 C 229.59 1.35029 -0.873148 0
M  V30 2422 O 230.78 1.31764 -1.13946 0
M  V30 2423 C 227.912 2.50358 -2.31373 0
M  V30 2424 H 229.105 0.79064 -2.8929 0
M  V30 2425 H 226.658 0.375761 -1.51716 0
M  V30 2426 H 227.393 2.90876 -1.43393 0
M  V30 2427 H 227.178 2.36915 -3.12432 0
M  V30 2428 H 228.668 3.23395 -2.64207 0
M  V30 2429 N 229.106 1.52395 0.401703 0
M  V30 2430 C 230.352 1.68019 1.14635 0
M  V30 2431 C 230.707 0.408722 1.88009 0
M  V30 2432 O 230 -0.597133 1.82057 0
M  V30 2433 C 230.194 2.84578 2.16217 0
M  V30 2434 C 230.023 4.22938 1.5282 0
M  V30 2435 C 228.793 4.88352 1.29772 0
M  V30 2436 C 230.991 5.04778 0.985094 0
M  V30 2437 N 228.973 6.10726 0.623455 0
M  V30 2438 C 230.344 6.1845 0.438172 0
M  V30 2439 C 232.399 4.90057 0.880275 0
M  V30 2440 C 231.102 7.19013 -0.203306 0
M  V30 2441 C 233.128 5.9086 0.252639 0
M  V30 2442 C 232.49 7.03829 -0.283573 0
M  V30 2443 H 228.589 0.668413 0.405892 0
M  V30 2444 H 231.173 1.89717 0.437674 0
M  V30 2445 H 229.344 2.64483 2.84435 0
M  V30 2446 H 231.076 2.89202 2.83098 0
M  V30 2447 H 227.831 4.46846 1.56926 0
M  V30 2448 H 228.255 6.76323 0.302733 0
M  V30 2449 H 232.897 4.02938 1.28065 0
M  V30 2450 H 230.615 8.05751 -0.615726 0
M  V30 2451 H 234.201 5.81543 0.172954 0
M  V30 2452 H 233.081 7.80493 -0.761575 0
M  V30 2453 N 230.584 -0.659388 1.43143 0
M  V30 2454 C 231.547 -1.75432 1.47501 0
M  V30 2455 C 232.547 -1.56707 0.360512 0
M  V30 2456 O 233.737 -1.62717 0.622002 0
M  V30 2457 C 230.869 -3.14239 1.32162 0
M  V30 2458 H 232.062 -1.7295 2.45006 0
M  V30 2459 H 229.615 -0.870469 1.29817 0
M  V30 2460 H 230.35 -3.22336 0.356401 0
M  V30 2461 H 230.135 -3.29235 2.12948 0
M  V30 2462 H 231.625 -3.94094 1.3813 0
M  V30 2463 N 232.062 -1.29571 -0.897171 0
M  V30 2464 C 233.025 -1.14913 -1.98312 0
M  V30 2465 C 234.025 -0.0838629 -1.60581 0
M  V30 2466 O 235.215 -0.331006 -1.71026 0
M  V30 2467 C 232.347 -0.757835 -3.3237 0
M  V30 2468 H 233.54 -2.11377 -2.12743 0
M  V30 2469 H 231.093 -1.12793 -1.08201 0
M  V30 2470 H 231.828 0.206837 -3.2364 0
M  V30 2471 H 231.613 -1.52755 -3.61121 0
M  V30 2472 H 233.103 -0.678408 -4.12053 0
M  V30 2473 N 233.54 1.10788 -1.12088 0
M  V30 2474 C 234.488 2.19111 -0.780587 0
M  V30 2475 C 235.482 1.67818 0.230961 0
M  V30 2476 O 236.688 1.79777 0.0895427 0
M  V30 2477 H 233.063 0.714477 -0.234578 0
M  V30 2478 H 235.034 2.45055 -1.70266 0
M  V30 2479 C 233.783 3.46818 -0.24747 0
M  V30 2480 H 233.106 3.86646 -1.01712 0
M  V30 2481 H 234.546 4.23973 -0.0476291 0
M  V30 2482 C 233.005 3.20968 1.02378 0
M  V30 2483 O 233.535 3.42298 2.10226 0
M  V30 2484 N 231.741 2.74658 0.949271 0
M  V30 2485 H 231.288 2.57501 0.0715173 0
M  V30 2486 H 231.246 2.57739 1.80049 0
M  V30 2487 N 235.018 0.912232 1.28515 0
M  V30 2488 C 236.266 0.543523 1.94654 0
M  V30 2489 C 236.587 -0.9155 1.72173 0
M  V30 2490 O 235.857 -1.64708 1.06058 0
M  V30 2491 H 234.437 0.198017 0.720277 0
M  V30 2492 H 237.099 1.16126 1.56527 0
M  V30 2493 H 236.195 0.736684 3.03281 0
M  V30 2494 N 236.496 -1.42363 0.676048 0
M  V30 2495 C 237.721 -2.06377 0.205705 0
M  V30 2496 C 238.146 -1.50463 -1.12883 0
M  V30 2497 O 237.504 -0.623619 -1.70237 0
M  V30 2498 C 237.552 -3.60277 0.152655 0
M  V30 2499 O 236.656 -4.02935 -0.87845 0
M  V30 2500 H 235.997 -0.655588 0.105359 0
M  V30 2501 H 238.527 -1.82475 0.925412 0
M  V30 2502 H 238.537 -4.07993 -0.0230675 0
M  V30 2503 H 237.212 -4.00346 1.12675 0
M  V30 2504 H 235.789 -3.66764 -0.673668 0
M  V30 2505 N 237.974 -0.419461 -1.51915 0
M  V30 2506 C 238.907 0.445751 -2.23804 0
M  V30 2507 C 239.885 1.03951 -1.25031 0
M  V30 2508 O 241.069 1.08541 -1.54114 0
M  V30 2509 C 238.196 1.61964 -2.97465 0
M  V30 2510 C 237.242 1.14828 -4.10751 0
M  V30 2511 S 238.075 0.104938 -5.35397 0
M  V30 2512 C 239.231 1.28391 -6.1259 0
M  V30 2513 H 239.464 -0.164627 -2.96844 0
M  V30 2514 H 236.997 -0.203833 -1.53049 0
M  V30 2515 H 238.955 2.29271 -3.40507 0
M  V30 2516 H 237.616 2.20139 -2.24048 0
M  V30 2517 H 236.809 2.02561 -4.61503 0
M  V30 2518 H 236.411 0.553712 -3.69878 0
M  V30 2519 H 238.703 2.20563 -6.40592 0
M  V30 2520 H 239.646 0.816724 -7.03374 0
M  V30 2521 H 240.054 1.51439 -5.43807 0
M  V30 2522 N 239.452 1.56882 -0.150215 0
M  V30 2523 C 240.7 1.9584 0.499105 0
M  V30 2524 C 241.021 1.03623 1.65188 0
M  V30 2525 O 240.291 0.0984084 1.95653 0
M  V30 2526 H 238.871 0.723119 0.187373 0
M  V30 2527 H 241.533 1.9358 -0.226466 0
M  V30 2528 H 240.629 2.99638 0.873122 0
M  V30 2529 N 240.93 -0.123565 1.57115 0
M  V30 2530 C 241.84 -1.17074 2.033 0
M  V30 2531 C 242.856 -1.4561 0.952559 0
M  V30 2532 O 244.032 -1.56817 1.26374 0
M  V30 2533 C 241.097 -2.47857 2.42421 0
M  V30 2534 C 240.158 -2.26758 3.64526 0
M  V30 2535 C 239.391 -3.51305 4.01771 0
M  V30 2536 O 239.614 -4.5843 3.39409 0
M  V30 2537 O 238.548 -3.42578 4.94898 0
M  V30 2538 H 242.374 -0.808555 2.92739 0
M  V30 2539 H 239.959 -0.334027 1.45618 0
M  V30 2540 H 241.841 -3.2492 2.68338 0
M  V30 2541 H 240.516 -2.83558 1.5613 0
M  V30 2542 H 239.423 -1.47569 3.43765 0
M  V30 2543 H 240.756 -1.95963 4.51508 0
M  V30 2544 N 242.408 -1.52605 -0.393616 0
M  V30 2545 C 243.819 -1.59417 -0.971761 0
M  V30 2546 C 244.17 -0.444173 -1.91106 0
M  V30 2547 O 243.295 0.433382 -2.12016 0
M  V30 2548 C 243.89 -2.88936 -1.76921 0
M  V30 2549 C 242.449 -2.98175 -2.29714 0
M  V30 2550 C 241.596 -2.54491 -1.10135 0
M  V30 2551 H 244.547 -1.57751 -0.173317 0
M  V30 2552 H 244.568 -2.75163 -2.62804 0
M  V30 2553 H 244.08 -3.72616 -1.08532 0
M  V30 2554 H 242.181 -2.19024 -3.01429 0
M  V30 2555 H 242.294 -4.02726 -2.59517 0
M  V30 2556 H 240.658 -2.08702 -1.45999 0
M  V30 2557 H 241.441 -3.4056 -0.432874 0
M  V30 2558 N 243.887 0.651787 -1.4349 0
M  V30 2559 C 245.133 1.41376 -1.45398 0
M  V30 2560 C 245.466 1.94041 -0.0784823 0
M  V30 2561 O 244.741 1.72379 0.900878 0
M  V30 2562 C 245.024 2.59414 -2.49752 0
M  V30 2563 C 244.877 2.12232 -3.96582 0
M  V30 2564 C 246.196 3.61626 -2.50827 0
M  V30 2565 H 243.315 0.512719 -0.529422 0
M  V30 2566 H 245.957 0.738796 -1.75048 0
M  V30 2567 H 244.107 3.16997 -2.246 0
M  V30 2568 H 245.779 1.59639 -4.32797 0
M  V30 2569 H 244.022 1.43592 -4.09346 0
M  V30 2570 H 244.693 2.9712 -4.65214 0
M  V30 2571 H 247.169 3.13805 -2.7325 0
M  V30 2572 H 246.045 4.41766 -3.25783 0
M  V30 2573 H 246.306 4.14314 -1.5426 0
M  V30 2574 N 245.365 1.30045 0.890287 0
M  V30 2575 C 246.614 1.17929 1.63633 0
M  V30 2576 C 246.927 -0.266204 1.9378 0
M  V30 2577 O 248.133 -0.508804 2.6669 0
M  V30 2578 C 246.589 2.06317 2.94892 0
M  V30 2579 C 246.197 3.55745 2.72305 0
M  V30 2580 C 247.941 2.0295 3.72843 0
M  V30 2581 C 245.848 4.36205 3.99348 0
M  V30 2582 H 244.778 0.437782 0.613892 0
M  V30 2583 H 247.429 1.54754 0.986075 0
M  V30 2584 H 245.811 1.6237 3.61182 0
M  V30 2585 H 246.985 4.07805 2.1455 0
M  V30 2586 H 245.3 3.6088 2.07737 0
M  V30 2587 H 247.897 2.60319 4.67053 0
M  V30 2588 H 248.24 1.0117 4.0382 0
M  V30 2589 H 248.773 2.4499 3.13408 0
M  V30 2590 H 245.512 5.38659 3.73533 0
M  V30 2591 H 245.032 3.8891 4.56628 0
M  V30 2592 H 246.711 4.47362 4.67415 0
M  V30 2593 N 246.843 -1.10192 1.12674 0
M  V30 2594 C 247.79 -2.16606 0.796906 0
M  V30 2595 C 248.76 -1.64394 -0.237476 0
M  V30 2596 O 249.945 -1.90474 -0.111484 0
M  V30 2597 C 247.085 -3.44116 0.26043 0
M  V30 2598 C 246.198 -4.10268 1.35293 0
M  V30 2599 C 245.333 -5.25507 0.775621 0
M  V30 2600 C 244.372 -5.83567 1.84706 0
M  V30 2601 N 243.509 -6.90179 1.28829 0
M  V30 2602 H 248.349 -2.44163 1.70846 0
M  V30 2603 H 245.886 -1.19846 0.85295 0
M  V30 2604 H 247.844 -4.17143 -0.0686814 0
M  V30 2605 H 246.474 -3.16901 -0.614274 0
M  V30 2606 H 245.526 -3.35184 1.79877 0
M  V30 2607 H 246.838 -4.4946 2.16303 0
M  V30 2608 H 245.992 -6.05398 0.397327 0
M  V30 2609 H 244.731 -4.87656 -0.0656581 0
M  V30 2610 H 243.736 -5.02344 2.23452 0
M  V30 2611 H 244.961 -6.23482 2.69161 0
M  V30 2612 H 242.907 -6.54322 0.468881 0
M  V30 2613 H 242.824 -7.28097 2.03497 0
M  V30 2614 H 244.092 -7.73844 0.937311 0
M  V30 2615 N 248.321 -0.919034 -1.28029 0
M  V30 2616 C 249.561 -0.562107 -1.96519 0
M  V30 2617 C 249.925 0.878784 -1.70708 0
M  V30 2618 O 251.126 1.34355 -2.32813 0
M  V30 2619 C 249.397 -0.868953 -3.46676 0
M  V30 2620 S 250.956 -0.619237 -4.34409 0
M  V30 2621 H 247.774 -0.2078 -0.679956 0
M  V30 2622 H 250.376 -1.18562 -1.55446 0
M  V30 2623 H 249.08 -1.91547 -3.62957 0
M  V30 2624 H 248.611 -0.234301 -3.92702 0
M  V30 2625 H 250.626 0.526995 -4.93394 0
M  V30 2626 N 249.799 1.42003 -0.683588 0
M  V30 2627 C 250.709 2.34597 -0.0109075 0
M  V30 2628 C 251.725 1.55576 0.779245 0
M  V30 2629 O 252.901 1.88107 0.719555 0
M  V30 2630 C 249.966 3.34199 0.922588 0
M  V30 2631 C 249.027 4.29115 0.125984 0
M  V30 2632 C 248.26 5.23959 1.01502 0
M  V30 2633 O 248.483 5.23952 2.25456 0
M  V30 2634 O 247.417 6.00053 0.47111 0
M  V30 2635 H 251.243 2.93675 -0.773853 0
M  V30 2636 H 248.828 1.42654 -0.443861 0
M  V30 2637 H 250.71 3.95365 1.45823 0
M  V30 2638 H 249.385 2.77582 1.66523 0
M  V30 2639 H 248.292 3.71335 -0.453969 0
M  V30 2640 H 249.625 4.88798 -0.577736 0
M  V30 2641 N 251.277 0.427512 1.51691 0
M  V30 2642 C 252.524 -0.142229 2.02 0
M  V30 2643 C 252.852 -1.43566 1.31221 0
M  V30 2644 O 252.107 -1.91298 0.412744 0
M  V30 2645 C 252.406 -0.418249 3.54944 0
M  V30 2646 C 252.072 0.788187 4.43958 0
M  V30 2647 C 250.734 1.11906 4.68007 0
M  V30 2648 C 253.086 1.59347 4.96244 0
M  V30 2649 C 250.414 2.25608 5.41588 0
M  V30 2650 C 252.766 2.7214 5.71072 0
M  V30 2651 C 251.43 3.05692 5.93387 0
M  V30 2652 H 250.7 -0.0520451 0.73917 0
M  V30 2653 H 253.347 0.572697 1.82736 0
M  V30 2654 H 251.652 -1.21496 3.72486 0
M  V30 2655 H 253.349 -0.872339 3.91397 0
M  V30 2656 H 249.939 0.520344 4.2543 0
M  V30 2657 H 254.123 1.35106 4.77556 0
M  V30 2658 H 249.379 2.51929 5.57083 0
M  V30 2659 H 253.553 3.34914 6.10578 0
M  V30 2660 H 251.18 3.9391 6.50184 0
M  V30 2661 N 252.755 -1.56801 0.158532 0
M  V30 2662 C 253.665 -2.20916 -0.789518 0
M  V30 2663 C 254.681 -1.1969 -1.26294 0
M  V30 2664 O 255.857 -1.52308 -1.31773 0
M  V30 2665 C 252.922 -2.82727 -2.00665 0
M  V30 2666 C 251.983 -3.99114 -1.58134 0
M  V30 2667 C 251.216 -4.57968 -2.74045 0
M  V30 2668 O 251.439 -4.15704 -3.90572 0
M  V30 2669 O 250.373 -5.48047 -2.48855 0
M  V30 2670 H 254.199 -3.02464 -0.273681 0
M  V30 2671 H 251.784 -1.4924 -0.0690548 0
M  V30 2672 H 253.666 -3.21968 -2.71872 0
M  V30 2673 H 252.341 -2.04184 -2.51179 0
M  V30 2674 H 251.248 -3.64567 -0.839155 0
M  V30 2675 H 252.581 -4.79212 -1.12325 0
M  V30 2676 N 254.233 0.115231 -1.57178 0
M  V30 2677 C 255.18 1.14115 -2.00615 0
M  V30 2678 C 256.15 1.40939 -0.878941 0
M  V30 2679 O 257.335 1.52741 -1.14345 0
M  V30 2680 C 254.475 2.46156 -2.4187 0
M  V30 2681 C 253.588 2.26236 -3.68024 0
M  V30 2682 C 252.723 3.51534 -3.98243 0
M  V30 2683 C 251.762 3.26787 -5.17568 0
M  V30 2684 N 250.899 4.44298 -5.43639 0
M  V30 2685 H 255.739 0.763743 -2.88047 0
M  V30 2686 H 253.276 0.365615 -1.42484 0
M  V30 2687 H 255.234 3.23189 -2.63827 0
M  V30 2688 H 253.864 2.81783 -1.57475 0
M  V30 2689 H 252.916 1.40102 -3.5366 0
M  V30 2690 H 254.228 2.03929 -4.55208 0
M  V30 2691 H 253.382 4.36984 -4.20868 0
M  V30 2692 H 252.121 3.76876 -3.09541 0
M  V30 2693 H 251.126 2.39729 -4.94783 0
M  V30 2694 H 252.351 3.02812 -6.0785 0
M  V30 2695 H 250.297 4.69754 -4.57895 0
M  V30 2696 H 250.214 4.25109 -6.25154 0
M  V30 2697 H 251.482 5.3087 -5.70786 0
M  V30 2698 N 255.711 1.52812 0.385517 0
M  V30 2699 C 256.957 1.68275 1.13188 0
M  V30 2700 C 257.29 0.423179 1.89533 0
M  V30 2701 O 256.565 -0.579113 1.85679 0
M  V30 2702 C 256.848 2.92001 2.1073 0
M  V30 2703 C 256.701 4.28067 1.38125 0
M  V30 2704 C 258.02 3.11283 3.11113 0
M  V30 2705 H 255.139 0.612352 0.410115 0
M  V30 2706 H 257.781 1.85415 0.414869 0
M  V30 2707 H 255.931 2.77519 2.71874 0
M  V30 2708 H 257.603 4.54324 0.799187 0
M  V30 2709 H 255.846 4.28388 0.683092 0
M  V30 2710 H 256.517 5.10733 2.09417 0
M  V30 2711 H 258.993 3.2482 2.6006 0
M  V30 2712 H 257.869 3.99325 3.76605 0
M  V30 2713 H 258.13 2.25656 3.80173 0
M  V30 2714 N 257.189 -0.644168 1.43834 0
M  V30 2715 C 258.438 -1.39985 1.45214 0
M  V30 2716 C 258.751 -1.95421 0.0835494 0
M  V30 2717 O 259.957 -2.71488 -0.0251748 0
M  V30 2718 C 258.413 -2.53384 2.55587 0
M  V30 2719 C 258.021 -2.04517 3.98594 0
M  V30 2720 C 259.765 -3.30685 2.66172 0
M  V30 2721 C 257.672 -3.1518 5.00416 0
M  V30 2722 H 256.602 -0.526005 0.540218 0
M  V30 2723 H 259.253 -0.694367 1.69855 0
M  V30 2724 H 257.635 -3.26446 2.24163 0
M  V30 2725 H 258.809 -1.38405 4.39523 0
M  V30 2726 H 257.124 -1.40068 3.92135 0
M  V30 2727 H 259.721 -4.13158 3.39418 0
M  V30 2728 H 260.064 -3.79312 1.71546 0
M  V30 2729 H 260.597 -2.64708 2.96942 0
M  V30 2730 H 257.336 -2.71511 5.96625 0
M  V30 2731 H 256.856 -3.79974 4.64091 0
M  V30 2732 H 258.535 -3.80166 5.23529 0
M  V30 2733 N 258.668 -1.30515 -0.883378 0
M  V30 2734 C 259.893 -1.22487 -1.67367 0
M  V30 2735 C 260.318 0.208767 -1.86938 0
M  V30 2736 O 259.676 1.15015 -1.40148 0
M  V30 2737 C 259.724 -1.96041 -3.02655 0
M  V30 2738 O 258.828 -1.28859 -3.91751 0
M  V30 2739 H 258.169 -0.423573 -0.511353 0
M  V30 2740 H 260.699 -1.72362 -1.10239 0
M  V30 2741 H 260.709 -2.05124 -3.52687 0
M  V30 2742 H 259.384 -3.00307 -2.8773 0
M  V30 2743 H 257.961 -1.28141 -3.50192 0
M  V30 2744 N 260.146 1.09593 -1.13257 0
M  V30 2745 C 261.079 2.15451 -0.752061 0
M  V30 2746 C 262.057 1.60493 0.260913 0
M  V30 2747 O 263.241 1.8788 0.152819 0
M  V30 2748 C 260.368 3.38506 -0.114594 0
M  V30 2749 C 259.414 4.12183 -1.09579 0
M  V30 2750 S 260.247 4.6661 -2.62745 0
M  V30 2751 C 261.403 5.92966 -2.00354 0
M  V30 2752 H 261.636 2.47395 -1.64872 0
M  V30 2753 H 259.169 1.21515 -0.952545 0
M  V30 2754 H 261.127 4.09757 0.246808 0
M  V30 2755 H 259.788 3.04784 0.759309 0
M  V30 2756 H 258.981 5.00445 -0.597545 0
M  V30 2757 H 258.583 3.46785 -1.40057 0
M  V30 2758 H 260.875 6.63882 -1.35156 0
M  V30 2759 H 261.818 6.47467 -2.86691 0
M  V30 2760 H 262.226 5.45405 -1.4558 0
M  V30 2761 N 261.624 0.925811 1.2754 0
M  V30 2762 C 262.534 0.428993 2.30644 0
M  V30 2763 C 263.55 -0.489387 1.66976 0
M  V30 2764 O 264.726 -0.372653 1.97922 0
M  V30 2765 C 261.791 -0.311967 3.45294 0
M  V30 2766 C 260.852 0.641098 4.24486 0
M  V30 2767 C 260.085 -0.0645955 5.33661 0
M  V30 2768 O 260.308 -1.28429 5.55754 0
M  V30 2769 O 259.242 0.606265 5.98839 0
M  V30 2770 H 263.068 1.28504 2.75173 0
M  V30 2771 H 260.653 0.691086 1.32455 0
M  V30 2772 H 262.535 -0.729972 4.15029 0
M  V30 2773 H 261.21 -1.14365 3.02824 0
M  V30 2774 H 260.117 1.10874 3.57292 0
M  V30 2775 H 261.45 1.43995 4.70666 0
M  V30 2776 N 263.102 -1.41638 0.69111 0
M  V30 2777 C 264.332 -2.0533 0.228758 0
M  V30 2778 C 264.74 -1.52089 -1.12541 0
M  V30 2779 O 264.083 -0.662145 -1.71351 0
M  V30 2780 C 264.145 -3.59349 0.10407 0
M  V30 2781 C 263.809 -4.35362 1.38956 0
M  V30 2782 C 264.806 -4.64942 2.32648 0
M  V30 2783 C 262.491 -4.74714 1.64169 0
M  V30 2784 C 264.485 -5.32828 3.49818 0
M  V30 2785 C 262.172 -5.42338 2.81625 0
M  V30 2786 C 263.17 -5.71322 3.74273 0
M  V30 2787 O 262.858 -6.37554 4.89673 0
M  V30 2788 H 262.59 -0.667796 0.104997 0
M  V30 2789 H 265.144 -1.82477 0.942938 0
M  V30 2790 H 263.374 -3.80924 -0.665839 0
M  V30 2791 H 265.063 -4.04633 -0.320519 0
M  V30 2792 H 265.829 -4.35025 2.14425 0
M  V30 2793 H 261.708 -4.51538 0.929202 0
M  V30 2794 H 265.252 -5.55368 4.22152 0
M  V30 2795 H 261.149 -5.71673 2.99768 0
M  V30 2796 H 261.917 -6.56049 4.8943 0
M  V30 2797 N 264.58 -0.43555 -1.51462 0
M  V30 2798 C 265.513 0.421989 -2.24264 0
M  V30 2799 C 266.491 1.02619 -1.26127 0
M  V30 2800 O 267.675 1.069 -1.55257 0
M  V30 2801 C 264.802 1.588 -2.99166 0
M  V30 2802 C 263.848 1.10465 -4.11946 0
M  V30 2803 S 264.681 0.048146 -5.35478 0
M  V30 2804 C 265.837 1.21887 -6.13917 0
M  V30 2805 H 266.07 -0.196102 -2.96653 0
M  V30 2806 H 263.603 -0.220054 -1.52824 0
M  V30 2807 H 265.561 2.25647 -3.42919 0
M  V30 2808 H 264.222 2.1775 -2.26371 0
M  V30 2809 H 263.415 1.97654 -4.63626 0
M  V30 2810 H 263.017 0.51445 -3.70445 0
M  V30 2811 H 265.309 2.13756 -6.42895 0
M  V30 2812 H 266.252 0.742076 -7.04201 0
M  V30 2813 H 266.66 1.45663 -5.45383 0
M  V30 2814 N 266.058 1.56714 -0.166846 0
M  V30 2815 C 267.304 1.97039 0.479962 0
M  V30 2816 C 267.637 1.05264 1.63197 0
M  V30 2817 O 266.912 0.0988833 1.94248 0
M  V30 2818 C 267.195 3.46867 0.967212 0
M  V30 2819 C 267.048 4.49421 -0.18466 0
M  V30 2820 C 268.367 3.9968 1.84238 0
M  V30 2821 H 265.486 0.71641 0.172992 0
M  V30 2822 H 268.128 1.8832 -0.252079 0
M  V30 2823 H 266.278 3.54428 1.59101 0
M  V30 2824 H 267.95 4.53924 -0.821621 0
M  V30 2825 H 266.193 4.25573 -0.840837 0
M  V30 2826 H 266.864 5.51644 0.198317 0
M  V30 2827 H 269.34 3.94723 1.31655 0
M  V30 2828 H 268.216 5.04941 2.15234 0
M  V30 2829 H 268.477 3.43226 2.78654 0
M  V30 2830 N 267.536 -0.106894 1.57237 0
M  V30 2831 C 268.766 -0.825191 1.89405 0
M  V30 2832 C 269.174 -1.73374 0.757496 0
M  V30 2833 O 268.517 -1.81552 -0.280115 0
M  V30 2834 C 268.579 -1.70102 3.1671 0
M  V30 2835 C 268.243 -0.965523 4.46684 0
M  V30 2836 C 269.24 -0.300741 5.19029 0
M  V30 2837 C 266.925 -0.943105 4.93367 0
M  V30 2838 C 268.919 0.376622 6.36286 0
M  V30 2839 C 266.606 -0.261949 6.10538 0
M  V30 2840 C 267.604 0.396748 6.81847 0
M  V30 2841 O 267.292 1.06701 7.96787 0
M  V30 2842 H 267.024 -0.241852 0.631255 0
M  V30 2843 H 269.578 -0.0921491 2.05193 0
M  V30 2844 H 267.808 -2.47601 2.97036 0
M  V30 2845 H 269.497 -2.29483 3.34802 0
M  V30 2846 H 270.263 -0.309599 4.84011 0
M  V30 2847 H 266.142 -1.44524 4.3776 0
M  V30 2848 H 269.686 0.891334 6.91882 0
M  V30 2849 H 265.583 -0.250896 6.45012 0
M  V30 2850 H 266.351 0.972707 8.127 0
M  V30 2851 N 269.014 -1.53014 -0.377408 0
M  V30 2852 C 270.261 -1.68623 -1.12128 0
M  V30 2853 C 270.589 -0.431997 -1.89642 0
M  V30 2854 O 269.844 0.585855 -1.86725 0
M  V30 2855 C 270.143 -2.87982 -2.11663 0
M  V30 2856 C 269.809 -4.24964 -1.50719 0
M  V30 2857 C 268.471 -4.62217 -1.33825 0
M  V30 2858 C 270.823 -5.10199 -1.06519 0
M  V30 2859 C 268.151 -5.82352 -0.712963 0
M  V30 2860 C 270.503 -6.30969 -0.453955 0
M  V30 2861 C 269.167 -6.66944 -0.272411 0
M  V30 2862 H 268.437 -0.617034 -0.410305 0
M  V30 2863 H 271.084 -1.8718 -0.404484 0
M  V30 2864 H 269.389 -2.63889 -2.89603 0
M  V30 2865 H 271.086 -2.97253 -2.6915 0
M  V30 2866 H 267.676 -3.95626 -1.64858 0
M  V30 2867 H 271.86 -4.81978 -1.18368 0
M  V30 2868 H 267.116 -6.08824 -0.560611 0
M  V30 2869 H 271.29 -6.96324 -0.103217 0
M  V30 2870 H 268.917 -7.59898 0.214181 0
M  V30 2871 N 270.492 0.636531 -1.44174 0
M  V30 2872 C 271.44 1.76995 -1.50915 0
M  V30 2873 C 272.434 1.65053 -0.381295 0
M  V30 2874 O 273.64 1.71197 -0.55601 0
M  V30 2875 H 270.015 0.584247 -0.473455 0
M  V30 2876 H 271.986 1.68432 -2.4632 0
M  V30 2877 C 270.735 3.15314 -1.46534 0
M  V30 2878 H 270.058 3.25149 -2.32633 0
M  V30 2879 H 271.498 3.9453 -1.55312 0
M  V30 2880 C 269.957 3.3639 -0.185305 0
M  V30 2881 O 270.487 3.94699 0.746688 0
M  V30 2882 N 268.693 2.9046 -0.0901606 0
M  V30 2883 H 268.24 2.43193 -0.849416 0
M  V30 2884 H 268.198 3.04937 0.765553 0
M  V30 2885 N 271.97 1.30982 0.876444 0
M  V30 2886 C 273.217 1.20296 1.62896 0
M  V30 2887 C 273.545 -0.240395 1.93009 0
M  V30 2888 O 272.8 -1.18733 1.55567 0
M  V30 2889 C 273.099 1.98572 2.9716 0
M  V30 2890 C 272.765 3.48125 2.86566 0
M  V30 2891 C 271.427 3.88905 2.83383 0
M  V30 2892 C 273.779 4.43322 2.74071 0
M  V30 2893 C 271.107 5.2316 2.65556 0
M  V30 2894 C 273.459 5.77695 2.57781 0
M  V30 2895 C 272.123 6.17704 2.52979 0
M  V30 2896 H 271.393 0.440193 0.59608 0
M  V30 2897 H 274.04 1.62177 1.01837 0
M  V30 2898 H 272.345 1.49352 3.62217 0
M  V30 2899 H 274.042 1.8769 3.54364 0
M  V30 2900 H 270.632 3.15723 2.89856 0
M  V30 2901 H 274.816 4.12752 2.75589 0
M  V30 2902 H 270.072 5.53241 2.60259 0
M  V30 2903 H 274.246 6.51091 2.47089 0
M  V30 2904 H 271.873 7.21678 2.38924 0
M  V30 2905 N 273.449 -1.08991 1.13837 0
M  V30 2906 C 274.696 -1.81258 0.902882 0
M  V30 2907 C 275.024 -1.85936 -0.570803 0
M  V30 2908 O 274.279 -1.3267 -1.43865 0
M  V30 2909 C 274.578 -3.27042 1.44147 0
M  V30 2910 C 274.244 -3.4249 2.93276 0
M  V30 2911 C 272.906 -3.46414 3.33992 0
M  V30 2912 C 275.258 -3.4666 3.892 0
M  V30 2913 C 272.586 -3.52091 4.69307 0
M  V30 2914 C 274.938 -3.53872 5.24364 0
M  V30 2915 C 273.602 -3.56066 5.646 0
M  V30 2916 H 272.872 -0.663268 0.330388 0
M  V30 2917 H 275.519 -1.28368 1.42105 0
M  V30 2918 H 273.824 -3.82599 0.844097 0
M  V30 2919 H 275.521 -3.81499 1.23528 0
M  V30 2920 H 272.111 -3.40124 2.60794 0
M  V30 2921 H 276.295 -3.42865 3.58828 0
M  V30 2922 H 271.551 -3.52079 4.9985 0
M  V30 2923 H 275.725 -3.56043 5.98503 0
M  V30 2924 H 273.352 -3.60218 6.69438 0
M  V30 2925 N 274.927 -0.932562 -1.27047 0
M  V30 2926 C 276.173 -0.576412 -1.94436 0
M  V30 2927 C 276.506 0.880891 -1.73072 0
M  V30 2928 O 275.781 1.62905 -1.06264 0
M  V30 2929 C 276.064 -0.909031 -3.48437 0
M  V30 2930 C 275.917 -2.42044 -3.79123 0
M  V30 2931 C 277.236 -0.418341 -4.38107 0
M  V30 2932 H 274.355 -0.210888 -0.706184 0
M  V30 2933 H 276.997 -1.16522 -1.50075 0
M  V30 2934 H 275.147 -0.407947 -3.86352 0
M  V30 2935 H 276.819 -2.99359 -3.50973 0
M  V30 2936 H 275.062 -2.86758 -3.25503 0
M  V30 2937 H 275.733 -2.6037 -4.86736 0
M  V30 2938 H 278.209 -0.847856 -4.0737 0
M  V30 2939 H 277.085 -0.679981 -5.44672 0
M  V30 2940 H 277.346 0.681642 -4.36814 0
M  V30 2941 N 276.405 1.4127 -0.698611 0
M  V30 2942 C 277.651 2.01979 -0.239972 0
M  V30 2943 C 278.006 1.54353 1.14861 0
M  V30 2944 O 277.299 0.746218 1.76471 0
M  V30 2945 C 277.493 3.56592 -0.240192 0
M  V30 2946 C 277.322 4.19226 -1.62726 0
M  V30 2947 C 276.092 4.53389 -2.23084 0
M  V30 2948 C 278.29 4.45228 -2.57443 0
M  V30 2949 N 276.272 5.01327 -3.54323 0
M  V30 2950 C 277.643 4.94973 -3.73365 0
M  V30 2951 C 279.698 4.27243 -2.55671 0
M  V30 2952 C 278.401 5.28624 -4.878 0
M  V30 2953 C 280.427 4.61985 -3.69221 0
M  V30 2954 C 279.789 5.11904 -4.83873 0
M  V30 2955 H 275.888 0.770561 -0.133269 0
M  V30 2956 H 278.472 1.71767 -0.916748 0
M  V30 2957 H 276.643 3.86271 0.406082 0
M  V30 2958 H 278.375 4.04025 0.23356 0
M  V30 2959 H 275.13 4.39946 -1.75341 0
M  V30 2960 H 275.554 5.29697 -4.21604 0
M  V30 2961 H 280.196 3.87884 -1.68243 0
M  V30 2962 H 277.914 5.66905 -5.75885 0
M  V30 2963 H 281.5 4.49725 -3.69105 0
M  V30 2964 H 280.38 5.38282 -5.70282 0
M  V30 2965 N 277.883 0.443576 1.51229 0
M  V30 2966 C 279.129 -0.120975 2.02439 0
M  V30 2967 C 279.462 -1.41815 1.32674 0
M  V30 2968 O 278.737 -1.89373 0.443622 0
M  V30 2969 C 279.02 -0.333291 3.58554 0
M  V30 2970 C 278.873 0.982968 4.38928 0
M  V30 2971 C 280.192 -1.10028 4.26124 0
M  V30 2972 H 277.311 -0.0424923 0.735774 0
M  V30 2973 H 279.953 0.583794 1.80809 0
M  V30 2974 H 278.103 -0.933614 3.77115 0
M  V30 2975 H 279.775 1.61775 4.32003 0
M  V30 2976 H 278.018 1.58611 4.03763 0
M  V30 2977 H 278.689 0.788379 5.46341 0
M  V30 2978 H 281.165 -0.591711 4.11871 0
M  V30 2979 H 280.041 -1.21761 5.35225 0
M  V30 2980 H 280.302 -2.12996 3.87408 0
M  V30 2981 N 279.361 -1.56624 0.175154 0
M  V30 2982 C 280.291 -2.21155 -0.749195 0
M  V30 2983 C 281.272 -1.16836 -1.23626 0
M  V30 2984 O 282.457 -1.45277 -1.28873 0
M  V30 2985 C 279.587 -2.8553 -1.97711 0
M  V30 2986 C 278.541 -3.95921 -1.62575 0
M  V30 2987 C 277.867 -4.47365 -2.92864 0
M  V30 2988 C 279.167 -5.15323 -0.850838 0
M  V30 2989 H 280.861 -2.98653 -0.211295 0
M  V30 2990 H 278.407 -1.43651 -0.100188 0
M  V30 2991 H 280.36 -3.2935 -2.62881 0
M  V30 2992 H 279.084 -2.05406 -2.53921 0
M  V30 2993 H 277.743 -3.52762 -0.997719 0
M  V30 2994 H 277.391 -3.64027 -3.47122 0
M  V30 2995 H 277.091 -5.21839 -2.70106 0
M  V30 2996 H 278.615 -4.93873 -3.59056 0
M  V30 2997 H 280.029 -5.55812 -1.40521 0
M  V30 2998 H 278.426 -5.95739 -0.722154 0
M  V30 2999 H 279.496 -4.84661 0.152082 0
M  V30 3000 N 280.839 0.0985539 -1.57292 0
M  V30 3001 C 282.25 0.653457 -1.74891 0
M  V30 3002 C 282.601 1.7929 -0.796838 0
M  V30 3003 O 281.726 2.16385 0.0254886 0
M  V30 3004 C 282.321 1.19216 -3.17133 0
M  V30 3005 C 280.88 1.69316 -3.36168 0
M  V30 3006 C 280.027 0.601294 -2.70702 0
M  V30 3007 H 282.978 -0.127497 -1.58187 0
M  V30 3008 H 282.999 2.06154 -3.19814 0
M  V30 3009 H 282.511 0.362635 -3.86402 0
M  V30 3010 H 280.612 2.5468 -2.71972 0
M  V30 3011 H 280.725 1.78853 -4.44464 0
M  V30 3012 H 279.089 1.0399 -2.32504 0
M  V30 3013 H 279.872 -0.217592 -3.4261 0
M  V30 3014 N 282.317 1.53212 0.369288 0
M  V30 3015 C 283.728 1.60943 0.946276 0
M  V30 3016 C 284.079 0.47452 1.90375 0
M  V30 3017 O 283.204 -0.399597 2.12679 0
M  V30 3018 C 283.799 2.91715 1.72302 0
M  V30 3019 C 282.358 3.01792 2.24941 0
M  V30 3020 C 281.505 2.56211 1.06072 0
M  V30 3021 H 284.456 1.58007 0.148198 0
M  V30 3022 H 284.477 2.79309 2.58393 0
M  V30 3023 H 283.989 3.74295 1.0259 0
M  V30 3024 H 282.09 2.23791 2.97906 0
M  V30 3025 H 282.203 4.06803 2.53077 0
M  V30 3026 H 280.567 2.10998 1.4266 0
M  V30 3027 H 281.35 3.41206 0.378639 0
M  V30 3028 N 283.795 -0.628877 1.44509 0
M  V30 3029 C 284.725 -1.75187 1.54376 0
M  V30 3030 C 285.706 -1.65411 0.396618 0
M  V30 3031 O 286.891 -1.84137 0.617031 0
M  V30 3032 C 284.021 -3.13725 1.48976 0
M  V30 3033 C 282.975 -3.38291 2.62189 0
M  V30 3034 C 282.301 -4.76883 2.41841 0
M  V30 3035 C 283.601 -3.30632 4.04326 0
M  V30 3036 H 285.295 -1.67187 2.48373 0
M  V30 3037 H 282.841 -0.802909 1.19538 0
M  V30 3038 H 284.794 -3.92064 1.54478 0
M  V30 3039 H 283.518 -3.22515 0.514961 0
M  V30 3040 H 282.177 -2.62334 2.56079 0
M  V30 3041 H 281.825 -4.82378 1.42548 0
M  V30 3042 H 281.525 -4.94278 3.17747 0
M  V30 3043 H 283.049 -5.57449 2.49165 0
M  V30 3044 H 284.463 -3.98873 4.11793 0
M  V30 3045 H 282.86 -3.59561 4.80454 0
M  V30 3046 H 283.93 -2.28404 4.27738 0
M  V30 3047 N 285.273 -1.31445 -0.869486 0
M  V30 3048 C 286.203 -1.21727 -1.99261 0
M  V30 3049 C 287.184 -0.104359 -1.6978 0
M  V30 3050 O 288.369 -0.289038 -1.92037 0
M  V30 3051 C 285.499 -0.924317 -3.34774 0
M  V30 3052 C 284.453 -1.99685 -3.78563 0
M  V30 3053 C 283.779 -1.55658 -5.11541 0
M  V30 3054 C 285.079 -3.41003 -3.95619 0
M  V30 3055 H 286.773 -2.1569 -2.07649 0
M  V30 3056 H 284.319 -1.03839 -0.997675 0
M  V30 3057 H 286.272 -0.842934 -4.12883 0
M  V30 3058 H 284.996 0.0509793 -3.2656 0
M  V30 3059 H 283.655 -2.06813 -3.02694 0
M  V30 3060 H 283.303 -0.569132 -4.9977 0
M  V30 3061 H 283.003 -2.27409 -5.41811 0
M  V30 3062 H 284.527 -1.48928 -5.92159 0
M  V30 3063 H 285.941 -3.36547 -4.64122 0
M  V30 3064 H 284.338 -4.10975 -4.37286 0
M  V30 3065 H 285.408 -3.81754 -2.98985 0
M  V30 3066 N 286.751 1.08385 -1.14413 0
M  V30 3067 C 287.681 2.17321 -0.854044 0
M  V30 3068 C 288.662 1.69024 0.191049 0
M  V30 3069 O 289.847 1.94141 0.0476779 0
M  V30 3070 C 286.977 3.45719 -0.330983 0
M  V30 3071 C 285.931 4.07409 -1.31155 0
M  V30 3072 C 285.257 5.30762 -0.64778 0
M  V30 3073 C 286.557 4.48665 -2.67388 0
M  V30 3074 H 288.251 2.41845 -1.76498 0
M  V30 3075 H 285.797 1.16233 -0.850051 0
M  V30 3076 H 287.75 4.21241 -0.115645 0
M  V30 3077 H 286.474 3.2075 0.615381 0
M  V30 3078 H 285.133 3.33919 -1.51306 0
M  V30 3079 H 284.781 5.02078 0.304398 0
M  V30 3080 H 284.481 5.72992 -1.30207 0
M  V30 3081 H 286.005 6.08998 -0.441972 0
M  V30 3082 H 287.419 5.15364 -2.51143 0
M  V30 3083 H 285.816 5.01814 -3.29093 0
M  V30 3084 H 286.886 3.60543 -3.24248 0
M  V30 3085 N 288.23 0.939286 1.26551 0
M  V30 3086 C 289.163 0.391702 2.24813 0
M  V30 3087 C 290.141 -0.518421 1.54114 0
M  V30 3088 O 291.325 -0.456299 1.82894 0
M  V30 3089 C 288.452 -0.437382 3.35864 0
M  V30 3090 C 287.498 0.410946 4.24516 0
M  V30 3091 S 288.331 1.83372 5.03125 0
M  V30 3092 C 289.487 1.01264 6.17654 0
M  V30 3093 H 289.72 1.22448 2.70913 0
M  V30 3094 H 287.253 0.742269 1.35387 0
M  V30 3095 H 289.211 -0.909837 4.0029 0
M  V30 3096 H 287.872 -1.24482 2.8838 0
M  V30 3097 H 287.065 -0.224191 5.03501 0
M  V30 3098 H 286.667 0.818014 3.64945 0
M  V30 3099 H 288.959 0.254023 6.77024 0
M  V30 3100 H 289.902 1.77589 6.85469 0
M  V30 3101 H 290.31 0.549532 5.61819 0
M  V30 3102 N 289.708 -1.40897 0.706093 0
M  V30 3103 C 290.954 -2.01352 0.241889 0
M  V30 3104 C 291.287 -1.55832 -1.15888 0
M  V30 3105 O 290.562 -0.774145 -1.7843 0
M  V30 3106 C 290.845 -3.58752 0.311311 0
M  V30 3107 C 290.698 -4.1437 1.74978 0
M  V30 3108 C 292.017 -4.38914 -0.322922 0
M  V30 3109 H 289.136 -0.731562 0.0893687 0
M  V30 3110 H 291.778 -1.67504 0.896802 0
M  V30 3111 H 289.928 -3.87718 -0.246302 0
M  V30 3112 H 291.6 -3.96239 2.36205 0
M  V30 3113 H 289.843 -3.69016 2.28057 0
M  V30 3114 H 290.514 -5.23532 1.74981 0
M  V30 3115 H 292.99 -4.15822 0.152089 0
M  V30 3116 H 291.866 -5.48358 -0.243855 0
M  V30 3117 H 292.127 -4.19176 -1.40513 0
M  V30 3118 N 291.186 -0.45159 -1.50991 0
M  V30 3119 C 292.116 0.342898 -2.30969 0
M  V30 3120 C 293.097 1.00815 -1.37005 0
M  V30 3121 O 294.282 1.00907 -1.65926 0
M  V30 3122 C 291.412 1.43637 -3.16205 0
M  V30 3123 C 290.366 0.893818 -4.18563 0
M  V30 3124 C 289.692 2.08411 -4.92411 0
M  V30 3125 C 290.992 -0.0815568 -5.22236 0
M  V30 3126 H 292.686 -0.324556 -2.97636 0
M  V30 3127 H 290.232 -0.157531 -1.43136 0
M  V30 3128 H 292.185 1.9995 -3.70942 0
M  V30 3129 H 290.909 2.13232 -2.47386 0
M  V30 3130 H 289.568 0.352798 -3.64898 0
M  V30 3131 H 289.216 2.76658 -4.20082 0
M  V30 3132 H 288.916 1.72741 -5.61636 0
M  V30 3133 H 290.44 2.65251 -5.49976 0
M  V30 3134 H 291.854 0.391742 -5.7196 0
M  V30 3135 H 290.251 -0.351551 -5.99069 0
M  V30 3136 H 291.321 -1.01374 -4.74185 0
M  V30 3137 N 292.664 1.56529 -0.183458 0
M  V30 3138 C 293.913 1.96419 0.458511 0
M  V30 3139 C 294.226 1.0727 1.63562 0
M  V30 3140 O 295.432 1.36893 2.34462 0
M  V30 3141 C 293.888 3.49298 0.867122 0
M  V30 3142 C 293.496 4.47092 -0.285057 0
M  V30 3143 C 295.24 3.97983 1.47683 0
M  V30 3144 C 293.147 5.91225 0.143862 0
M  V30 3145 H 292.077 0.733394 0.175071 0
M  V30 3146 H 294.728 1.81448 -0.273624 0
M  V30 3147 H 293.11 3.59731 1.65559 0
M  V30 3148 H 294.284 4.48383 -1.0625 0
M  V30 3149 H 292.599 4.08535 -0.805503 0
M  V30 3150 H 295.196 5.03134 1.80999 0
M  V30 3151 H 295.539 3.41618 2.37914 0
M  V30 3152 H 296.072 3.90617 0.752562 0
M  V30 3153 H 292.811 6.5149 -0.723974 0
M  V30 3154 H 292.331 5.93214 0.886413 0
M  V30 3155 H 294.01 6.44362 0.583628 0
M  V30 3156 N 294.142 -0.090211 1.57342 0
M  V30 3157 C 295.372 -0.805055 1.90269 0
M  V30 3158 C 295.78 -1.72561 0.775842 0
M  V30 3159 O 295.123 -1.81839 -0.260843 0
M  V30 3160 C 295.185 -1.66734 3.18497 0
M  V30 3161 C 294.849 -0.918092 4.47683 0
M  V30 3162 C 295.846 -0.245674 5.19319 0
M  V30 3163 C 293.531 -0.890724 4.94339 0
M  V30 3164 C 295.525 0.444088 6.35851 0
M  V30 3165 C 293.212 -0.197179 6.10782 0
M  V30 3166 C 294.21 0.469044 6.81388 0
M  V30 3167 O 293.898 1.15146 7.95611 0
M  V30 3168 H 293.63 -0.235143 0.633785 0
M  V30 3169 H 296.184 -0.0703805 2.05279 0
M  V30 3170 H 294.414 -2.44437 2.99646 0
M  V30 3171 H 296.103 -2.25919 3.37217 0
M  V30 3172 H 296.869 -0.258246 4.84312 0
M  V30 3173 H 292.748 -1.39873 4.39268 0
M  V30 3174 H 296.292 0.964667 6.90898 0
M  V30 3175 H 292.189 -0.18247 6.45242 0
M  V30 3176 H 292.957 1.05885 8.11622 0
M  V30 3177 N 295.62 -1.53406 -0.361157 0
M  V30 3178 C 296.55 -1.83136 -1.44857 0
M  V30 3179 C 297.531 -0.685174 -1.5569 0
M  V30 3180 O 298.716 -0.93544 -1.70186 0
M  V30 3181 C 295.846 -2.02522 -2.82138 0
M  V30 3182 C 294.8 -3.18302 -2.86126 0
M  V30 3183 C 294.126 -3.22989 -4.26125 0
M  V30 3184 C 295.426 -4.56796 -2.53248 0
M  V30 3185 H 297.12 -2.74201 -1.20226 0
M  V30 3186 H 294.666 -1.31938 -0.576922 0
M  V30 3187 H 296.619 -2.21904 -3.58241 0
M  V30 3188 H 295.343 -1.08172 -3.08166 0
M  V30 3189 H 294.002 -2.98747 -2.12475 0
M  V30 3190 H 293.65 -2.26267 -4.49235 0
M  V30 3191 H 293.35 -4.00781 -4.29708 0
M  V30 3192 H 294.874 -3.44559 -5.04094 0
M  V30 3193 H 296.288 -4.7631 -3.19064 0
M  V30 3194 H 294.685 -5.36862 -2.68141 0
M  V30 3195 H 295.755 -4.61606 -1.48484 0
M  V30 3196 N 297.098 0.621204 -1.44841 0
M  V30 3197 C 298.008 1.7612 -1.5498 0
M  V30 3198 C 299.024 1.68477 -0.434927 0
M  V30 3199 O 300.2 1.89076 -0.693693 0
M  V30 3200 C 297.265 3.1254 -1.50065 0
M  V30 3201 C 296.326 3.31741 -2.72482 0
M  V30 3202 C 295.559 4.61653 -2.67792 0
M  V30 3203 O 295.782 5.431 -1.74352 0
M  V30 3204 O 294.716 4.83271 -3.58794 0
M  V30 3205 H 298.542 1.70518 -2.51311 0
M  V30 3206 H 296.127 0.783643 -1.27198 0
M  V30 3207 H 298.009 3.93844 -1.49882 0
M  V30 3208 H 296.684 3.18663 -0.568806 0
M  V30 3209 H 295.591 2.50077 -2.7823 0
M  V30 3210 H 296.924 3.30486 -3.64746 0
M  V30 3211 N 298.576 1.31904 0.862503 0
M  V30 3212 C 299.822 1.22197 1.61851 0
M  V30 3213 C 300.155 -0.217641 1.92977 0
M  V30 3214 O 299.43 -1.15264 1.56666 0
M  V30 3215 C 299.713 2.07378 2.94391 0
M  V30 3216 C 299.566 3.59678 2.70096 0
M  V30 3217 C 300.885 1.92891 3.95577 0
M  V30 3218 H 298.004 0.445255 0.587296 0
M  V30 3219 H 300.646 1.6177 0.99651 0
M  V30 3220 H 298.796 1.73758 3.47477 0
M  V30 3221 H 300.468 4.03472 2.23625 0
M  V30 3222 H 298.711 3.82735 2.04197 0
M  V30 3223 H 299.382 4.14595 3.64438 0
M  V30 3224 H 301.858 2.22327 3.51724 0
M  V30 3225 H 300.734 2.54781 4.86187 0
M  V30 3226 H 300.995 0.894315 4.3296 0
M  V30 3227 N 300.054 -1.07777 1.14986 0
M  V30 3228 C 301.301 -1.8029 0.922056 0
M  V30 3229 C 301.629 -1.86531 -0.55105 0
M  V30 3230 O 300.884 -1.34189 -1.42449 0
M  V30 3231 C 301.183 -3.25495 1.47608 0
M  V30 3232 C 300.849 -3.39361 2.96893 0
M  V30 3233 C 299.511 -3.42852 3.37647 0
M  V30 3234 C 301.863 -3.42512 3.92854 0
M  V30 3235 C 299.191 -3.47094 4.73015 0
M  V30 3236 C 301.543 -3.4829 5.28088 0
M  V30 3237 C 300.207 -3.50058 5.68345 0
M  V30 3238 H 299.477 -0.659727 0.337404 0
M  V30 3239 H 302.124 -1.26854 1.43459 0
M  V30 3240 H 300.429 -3.81683 0.88463 0
M  V30 3241 H 302.126 -3.80168 1.27568 0
M  V30 3242 H 298.716 -3.37339 2.64387 0
M  V30 3243 H 302.9 -3.3904 3.62444 0
M  V30 3244 H 298.156 -3.46758 5.03556 0
M  V30 3245 H 302.33 -3.49675 6.02246 0
M  V30 3246 H 299.957 -3.53097 6.73221 0
M  V30 3247 N 301.532 -0.945985 -1.26051 0
M  V30 3248 C 302.762 -0.612136 -1.97323 0
M  V30 3249 C 303.17 0.818171 -1.70595 0
M  V30 3250 O 302.513 1.55777 -0.973613 0
M  V30 3251 C 302.575 -0.780347 -3.50929 0
M  V30 3252 C 302.239 -2.18619 -4.01317 0
M  V30 3253 C 303.236 -3.16209 -4.12683 0
M  V30 3254 C 300.921 -2.50805 -4.35203 0
M  V30 3255 C 302.915 -4.44085 -4.57238 0
M  V30 3256 C 300.602 -3.78912 -4.79446 0
M  V30 3257 C 301.6 -4.75365 -4.90425 0
M  V30 3258 O 301.288 -6.01191 -5.3369 0
M  V30 3259 H 301.02 -0.229134 -0.635982 0
M  V30 3260 H 303.574 -1.27036 -1.61404 0
M  V30 3261 H 301.804 -0.0649864 -3.86645 0
M  V30 3262 H 303.493 -0.448842 -4.03411 0
M  V30 3263 H 304.259 -2.92668 -3.86744 0
M  V30 3264 H 300.138 -1.76463 -4.2589 0
M  V30 3265 H 303.682 -5.19373 -4.65723 0
M  V30 3266 H 299.579 -4.02265 -5.0483 0
M  V30 3267 H 300.347 -6.04442 -5.51899 0
M  V30 3268 N 303.011 1.40521 -0.713556 0
M  V30 3269 C 303.941 2.33381 -0.0743864 0
M  V30 3270 C 304.922 1.52784 0.747735 0
M  V30 3271 O 306.107 1.81258 0.697071 0
M  V30 3272 C 303.237 3.36748 0.849598 0
M  V30 3273 C 302.191 4.27793 0.133247 0
M  V30 3274 C 301.517 5.21679 1.17281 0
M  V30 3275 C 302.817 5.12415 -1.01134 0
M  V30 3276 H 304.511 2.87081 -0.850007 0
M  V30 3277 H 302.057 1.38034 -0.410201 0
M  V30 3278 H 304.01 4.00648 1.30612 0
M  V30 3279 H 302.734 2.81439 1.65709 0
M  V30 3280 H 301.393 3.65342 -0.303426 0
M  V30 3281 H 301.041 4.62677 1.9733 0
M  V30 3282 H 300.741 5.83435 0.698397 0
M  V30 3283 H 302.265 5.88456 1.62947 0
M  V30 3284 H 303.679 5.69781 -0.634274 0
M  V30 3285 H 302.076 5.83203 -1.41399 0
M  V30 3286 H 303.146 4.48514 -1.84292 0
M  V30 3287 N 304.489 0.459591 1.5075 0
M  V30 3288 C 305.738 -0.100971 2.01447 0
M  V30 3289 C 306.051 -1.41816 1.34713 0
M  V30 3290 O 307.257 -2.06299 1.76502 0
M  V30 3291 C 305.713 -0.23047 3.59161 0
M  V30 3292 C 305.321 1.0776 4.34847 0
M  V30 3293 C 307.065 -0.743608 4.17936 0
M  V30 3294 C 304.972 0.91253 5.84317 0
M  V30 3295 H 303.902 -0.0415102 0.752856 0
M  V30 3296 H 306.553 0.592742 1.73663 0
M  V30 3297 H 304.935 -0.987703 3.83485 0
M  V30 3298 H 306.109 1.8449 4.22256 0
M  V30 3299 H 304.424 1.52097 3.87628 0
M  V30 3300 H 307.021 -0.883959 5.27343 0
M  V30 3301 H 307.364 -1.73196 3.78562 0
M  V30 3302 H 307.897 -0.04408 3.97776 0
M  V30 3303 H 304.636 1.87391 6.28144 0
M  V30 3304 H 304.156 0.185422 5.99513 0
M  V30 3305 H 305.835 0.574547 6.44444 0
M  V30 3306 N 305.967 -1.56429 0.191757 0
M  V30 3307 C 307.383 -1.58754 -0.164137 0
M  V30 3308 C 307.583 -1.20782 -1.61288 0
M  V30 3309 O 306.639 -0.928999 -2.34789 0
M  V30 3310 C 307.952 -3.00396 0.135195 0
M  V30 3311 C 309.5 -3.1291 0.0750351 0
M  V30 3312 C 309.975 -4.56679 0.347632 0
M  V30 3313 N 311.466 -4.62252 0.296131 0
M  V30 3314 C 312.201 -5.71379 0.480948 0
M  V30 3315 N 311.697 -6.88986 0.725933 0
M  V30 3316 N 313.49 -5.60563 0.415435 0
M  V30 3317 H 305.641 -1.79393 1.13718 0
M  V30 3318 H 307.904 -0.832414 0.453643 0
M  V30 3319 H 307.61 -3.32726 1.13958 0
M  V30 3320 H 307.484 -3.72963 -0.563773 0
M  V30 3321 H 309.871 -2.80394 -0.919948 0
M  V30 3322 H 309.952 -2.42736 0.807029 0
M  V30 3323 H 309.596 -4.89907 1.33992 0
M  V30 3324 H 309.526 -5.25039 -0.405212 0
M  V30 3325 H 312.017 -3.7773 0.113259 0
M  V30 3326 H 312.33 -7.68046 0.855857 0
M  V30 3327 H 310.675 -6.90801 0.762788 0
M  V30 3328 H 313.866 -4.67561 0.224486 0
M  V30 3329 H 314.039 -6.45551 0.562889 0
M  V30 3330 N 307.445 0.0818655 -1.57387 0
M  V30 3331 C 308.392 1.09834 -2.0299 0
M  V30 3332 C 309.362 1.39043 -0.908639 0
M  V30 3333 O 310.547 1.50282 -1.17559 0
M  V30 3334 C 307.687 2.40971 -2.47037 0
M  V30 3335 C 306.8 2.18379 -3.7274 0
M  V30 3336 C 305.935 3.43008 -4.0561 0
M  V30 3337 C 304.974 3.15736 -5.24383 0
M  V30 3338 N 304.111 4.32667 -5.52941 0
M  V30 3339 H 308.951 0.702472 -2.89602 0
M  V30 3340 H 306.488 0.33531 -1.43227 0
M  V30 3341 H 308.446 3.1752 -2.70623 0
M  V30 3342 H 307.076 2.78379 -1.63417 0
M  V30 3343 H 306.128 1.32569 -3.56552 0
M  V30 3344 H 307.44 1.94227 -4.59431 0
M  V30 3345 H 306.594 4.27958 -4.30043 0
M  V30 3346 H 305.333 3.70225 -3.17466 0
M  V30 3347 H 304.338 2.2918 -4.99757 0
M  V30 3348 H 305.563 2.8985 -6.14136 0
M  V30 3349 H 303.509 4.59935 -4.67756 0
M  V30 3350 H 303.426 4.11753 -6.34031 0
M  V30 3351 H 304.694 5.18644 -5.81918 0
M  V30 3352 N 308.923 1.53595 0.353017 0
M  V30 3353 C 309.855 1.77219 1.45348 0
M  V30 3354 C 310.868 0.65324 1.49119 0
M  V30 3355 O 312.057 0.929775 1.52373 0
M  V30 3356 C 309.157 1.84841 2.84055 0
M  V30 3357 C 308.33 3.14649 3.03833 0
M  V30 3358 C 307.389 3.13351 4.22727 0
M  V30 3359 O 306.415 3.87107 4.17297 0
M  V30 3360 N 307.617 2.35052 5.30783 0
M  V30 3361 H 310.382 2.72178 1.25457 0
M  V30 3362 H 307.943 1.52528 0.542833 0
M  V30 3363 H 309.935 1.81435 3.61751 0
M  V30 3364 H 308.505 0.971114 2.97133 0
M  V30 3365 H 307.725 3.31256 2.13689 0
M  V30 3366 H 309.013 4.00411 3.13925 0
M  V30 3367 H 308.411 1.74663 5.38061 0
M  V30 3368 H 306.968 2.37453 6.07009 0
M  V30 3369 N 310.401 -0.613514 1.45168 0
M  V30 3370 C 311.331 -1.7354 1.56225 0
M  V30 3371 C 312.312 -1.64981 0.41414 0
M  V30 3372 O 313.497 -1.83472 0.636526 0
M  V30 3373 C 310.627 -3.12128 1.52295 0
M  V30 3374 C 309.581 -3.35491 2.65762 0
M  V30 3375 C 308.907 -4.74291 2.46885 0
M  V30 3376 C 310.207 -3.26325 4.0781 0
M  V30 3377 H 311.901 -1.64543 2.50132 0
M  V30 3378 H 309.447 -0.790185 1.20383 0
M  V30 3379 H 311.4 -3.90404 1.58628 0
M  V30 3380 H 310.124 -3.2195 0.549139 0
M  V30 3381 H 308.783 -2.59603 2.58847 0
M  V30 3382 H 308.431 -4.80839 1.47657 0
M  V30 3383 H 308.131 -4.9088 3.22972 0
M  V30 3384 H 309.655 -5.54775 2.55063 0
M  V30 3385 H 311.069 -3.94483 4.16 0
M  V30 3386 H 309.466 -3.54445 4.8424 0
M  V30 3387 H 310.536 -2.23855 4.30136 0
M  V30 3388 N 311.879 -1.3236 -0.855495 0
M  V30 3389 C 312.827 -1.2118 -1.9854 0
M  V30 3390 C 313.821 -0.116788 -1.68997 0
M  V30 3391 O 315.027 -0.279657 -1.77814 0
M  V30 3392 H 311.402 -0.375608 -0.651477 0
M  V30 3393 H 313.373 -2.16743 -2.05098 0
M  V30 3394 C 312.122 -0.950849 -3.34446 0
M  V30 3395 H 311.445 -1.78563 -3.57708 0
M  V30 3396 H 312.885 -0.912863 -4.14057 0
M  V30 3397 C 311.344 0.346404 -3.35114 0
M  V30 3398 O 311.874 1.35855 -3.7803 0
M  V30 3399 N 310.08 0.36808 -2.88259 0
M  V30 3400 H 309.627 -0.456102 -2.5353 0
M  V30 3401 H 309.585 1.23591 -2.89089 0
M  V30 3402 N 313.357 1.07166 -1.15556 0
M  V30 3403 C 314.304 2.14417 -0.854055 0
M  V30 3404 C 315.274 1.64965 0.193806 0
M  V30 3405 O 316.459 1.90703 0.0609443 0
M  V30 3406 C 313.599 3.43304 -0.351574 0
M  V30 3407 C 312.712 4.06537 -1.46123 0
M  V30 3408 C 311.847 5.23266 -0.914677 0
M  V30 3409 C 310.886 5.78464 -2.00114 0
M  V30 3410 N 310.023 6.86521 -1.47083 0
M  V30 3411 H 314.863 2.39548 -1.77259 0
M  V30 3412 H 312.4 1.17543 -0.884425 0
M  V30 3413 H 314.358 4.17179 -0.0419409 0
M  V30 3414 H 312.988 3.18419 0.530037 0
M  V30 3415 H 312.04 3.30297 -1.88701 0
M  V30 3416 H 313.352 4.43567 -2.28144 0
M  V30 3417 H 312.506 6.04131 -0.557698 0
M  V30 3418 H 311.245 4.87658 -0.0636583 0
M  V30 3419 H 310.25 4.96243 -2.36692 0
M  V30 3420 H 311.475 6.16126 -2.85597 0
M  V30 3421 H 309.421 6.52849 -0.642198 0
M  V30 3422 H 309.338 7.22446 -2.22729 0
M  V30 3423 H 310.606 7.71087 -1.14215 0
M  V30 3424 N 314.835 0.952656 1.25548 0
M  V30 3425 C 315.782 0.47008 2.25962 0
M  V30 3426 C 316.752 -0.476384 1.59122 0
M  V30 3427 O 317.937 -0.39007 1.8677 0
M  V30 3428 C 315.077 -0.247881 3.44209 0
M  V30 3429 C 314.19 0.735591 4.25691 0
M  V30 3430 C 313.325 -0.0047306 5.312 0
M  V30 3431 C 312.364 0.969805 6.04368 0
M  V30 3432 N 311.501 0.260486 7.01617 0
M  V30 3433 H 316.341 1.33126 2.66611 0
M  V30 3434 H 313.878 0.66765 1.31076 0
M  V30 3435 H 315.836 -0.680695 4.1161 0
M  V30 3436 H 314.466 -1.07312 3.0444 0
M  V30 3437 H 313.518 1.28689 3.57971 0
M  V30 3438 H 314.83 1.47934 4.76358 0
M  V30 3439 H 313.984 -0.496275 6.04667 0
M  V30 3440 H 312.723 -0.781282 4.81401 0
M  V30 3441 H 311.728 1.47237 5.29718 0
M  V30 3442 H 312.953 1.74655 6.56256 0
M  V30 3443 H 310.899 -0.497364 6.54112 0
M  V30 3444 H 310.816 0.943362 7.50091 0
M  V30 3445 H 312.084 -0.209587 7.79218 0
M  V30 3446 N 316.313 -1.40141 0.720998 0
M  V30 3447 C 317.559 -2.01084 0.263231 0
M  V30 3448 C 317.892 -1.57052 -1.14229 0
M  V30 3449 O 317.167 -0.793027 -1.77599 0
M  V30 3450 C 317.45 -3.58401 0.349344 0
M  V30 3451 C 317.303 -4.12491 1.79363 0
M  V30 3452 C 318.622 -4.39231 -0.276351 0
M  V30 3453 H 315.741 -0.730572 0.0971228 0
M  V30 3454 H 318.383 -1.66543 0.914518 0
M  V30 3455 H 316.533 -3.87958 -0.205165 0
M  V30 3456 H 318.205 -3.93711 2.40394 0
M  V30 3457 H 316.448 -3.66576 2.31958 0
M  V30 3458 H 317.119 -5.21646 1.80524 0
M  V30 3459 H 319.595 -4.15637 0.196184 0
M  V30 3460 H 318.471 -5.48586 -0.185681 0
M  V30 3461 H 318.732 -4.20643 -1.36059 0
M  V30 3462 N 317.792 -0.46758 -1.50504 0
M  V30 3463 C 319.017 0.0886943 -2.0721 0
M  V30 3464 C 319.442 1.33057 -1.32956 0
M  V30 3465 O 318.8 1.77354 -0.376197 0
M  V30 3466 C 318.848 0.359202 -3.58806 0
M  V30 3467 O 317.952 1.44034 -3.8643 0
M  V30 3468 H 317.293 -0.0114349 -0.663902 0
M  V30 3469 H 319.823 -0.657613 -1.93744 0
M  V30 3470 H 319.833 0.600742 -4.03553 0
M  V30 3471 H 318.508 -0.548311 -4.1227 0
M  V30 3472 H 317.085 1.18638 -3.53524 0
M  V30 3473 N 319.27 1.56325 -0.20005 0
M  V30 3474 C 320.233 2.18084 0.705132 0
M  V30 3475 C 321.233 1.13666 1.1374 0
M  V30 3476 O 322.423 1.39023 1.04968 0
M  V30 3477 C 319.555 2.78689 1.96329 0
M  V30 3478 H 320.748 2.99435 0.167023 0
M  V30 3479 H 318.301 1.56221 0.0495725 0
M  V30 3480 H 319.036 2.0115 2.5438 0
M  V30 3481 H 318.821 3.55133 1.66202 0
M  V30 3482 H 320.311 3.26096 2.60866 0
M  V30 3483 N 320.748 -0.0735177 1.57428 0
M  V30 3484 C 321.973 -0.789787 1.91774 0
M  V30 3485 C 322.398 -1.70413 0.796306 0
M  V30 3486 O 321.756 -1.79555 -0.250961 0
M  V30 3487 C 321.804 -1.5609 3.25067 0
M  V30 3488 O 320.908 -2.67144 3.14178 0
M  V30 3489 H 320.249 -0.215582 0.628029 0
M  V30 3490 H 322.779 -0.0422781 2.04556 0
M  V30 3491 H 322.789 -1.94052 3.58898 0
M  V30 3492 H 321.464 -0.890015 4.06265 0
M  V30 3493 H 320.041 -2.32052 2.91901 0
M  V30 3494 N 322.226 -1.5378 -0.344866 0
M  V30 3495 C 323.451 -1.75211 -1.10977 0
M  V30 3496 C 323.876 -0.48936 -1.81623 0
M  V30 3497 O 323.234 0.557925 -1.72502 0
M  V30 3498 C 323.282 -2.93147 -2.09993 0
M  V30 3499 O 322.386 -2.63203 -3.17487 0
M  V30 3500 H 321.727 -0.581241 -0.321021 0
M  V30 3501 H 324.257 -2.00738 -0.395661 0
M  V30 3502 H 324.267 -3.19898 -2.53237 0
M  V30 3503 H 322.942 -3.84731 -1.5797 0
M  V30 3504 H 321.519 -2.47336 -2.79069 0
M  V30 3505 N 323.704 0.605807 -1.45491 0
M  V30 3506 C 324.952 1.36207 -1.49305 0
M  V30 3507 C 325.273 1.94519 -0.136863 0
M  V30 3508 O 324.543 1.77261 0.833983 0
M  V30 3509 H 323.123 0.50565 -0.549843 0
M  V30 3510 H 325.785 0.711239 -1.81459 0
M  V30 3511 H 324.881 2.18058 -2.23287 0
M  V30 3512 N 325.182 1.32811 0.848464 0
M  V30 3513 C 326.459 1.14334 1.58704 0
M  V30 3514 C 326.839 -0.293948 2.09043 0
M  V30 3515 O 326.187 -1.29153 1.88499 0
M  V30 3516 C 326.397 2.17626 2.72837 0
M  V30 3517 C 327.745 2.51282 3.42261 0
M  V30 3518 O 328.769 2.16219 2.83068 0
M  V30 3519 O 327.628 3.11413 4.49093 0
M  V30 3520 H 324.722 0.441601 0.699226 0
M  V30 3521 H 327.268 1.44362 0.892053 0
M  V30 3522 H 326.04 3.14211 2.3321 0
M  V30 3523 H 325.663 1.88628 3.50008 0
M  V30 3524 N 326.66 -1.06551 1.16123 0
M  V30 3525 C 328.071 -1.60768 0.949232 0
M  V30 3526 C 328.422 -1.89523 -0.507508 0
M  V30 3527 O 327.547 -1.66671 -1.38021 0
M  V30 3528 C 328.142 -2.92086 1.71671 0
M  V30 3529 C 326.701 -3.43015 1.54977 0
M  V30 3530 C 325.848 -2.16947 1.72711 0
M  V30 3531 H 328.799 -0.895354 1.31031 0
M  V30 3532 H 328.82 -3.6138 1.19099 0
M  V30 3533 H 328.332 -2.71127 2.7769 0
M  V30 3534 H 326.433 -3.69039 0.513873 0
M  V30 3535 H 326.546 -4.18516 2.33198 0
M  V30 3536 H 324.91 -2.27041 1.15431 0
M  V30 3537 H 325.693 -1.98473 2.80113 0
M  V30 3538 N 328.138 -0.959301 -1.25041 0
M  V30 3539 C 329.07 -0.440543 -2.24926 0
M  V30 3540 C 330.083 0.446131 -1.56568 0
M  V30 3541 O 331.272 0.253657 -1.76689 0
M  V30 3542 C 328.372 0.38412 -3.36716 0
M  V30 3543 C 327.545 -0.490658 -4.34639 0
M  V30 3544 C 326.604 0.276587 -5.25473 0
M  V30 3545 O 325.63 -0.326614 -5.68262 0
M  V30 3546 N 326.832 1.56844 -5.5891 0
M  V30 3547 H 329.597 -1.29931 -2.70071 0
M  V30 3548 H 327.158 -0.830181 -1.38995 0
M  V30 3549 H 329.15 0.905228 -3.94446 0
M  V30 3550 H 327.72 1.14377 -2.90924 0
M  V30 3551 H 326.94 -1.19282 -3.7572 0
M  V30 3552 H 328.228 -1.08756 -4.97041 0
M  V30 3553 H 327.626 2.08036 -5.26059 0
M  V30 3554 H 326.183 2.03541 -6.19205 0
M  V30 3555 N 329.616 1.39756 -0.72842 0
M  V30 3556 C 330.563 2.30647 -0.0841519 0
M  V30 3557 C 331.533 1.48869 0.7367 0
M  V30 3558 O 332.718 1.77574 0.698015 0
M  V30 3559 C 329.858 3.35165 0.822091 0
M  V30 3560 C 328.971 4.31999 -0.0106663 0
M  V30 3561 C 328.106 5.23585 0.896241 0
M  V30 3562 C 327.145 6.12072 0.0583381 0
M  V30 3563 N 326.282 6.96035 0.920818 0
M  V30 3564 H 331.122 2.85173 -0.864891 0
M  V30 3565 H 328.659 1.40422 -0.438179 0
M  V30 3566 H 330.617 3.94345 1.36189 0
M  V30 3567 H 329.247 2.8211 1.56888 0
M  V30 3568 H 328.299 3.74492 -0.66781 0
M  V30 3569 H 329.611 4.9443 -0.658825 0
M  V30 3570 H 328.765 5.87759 1.50412 0
M  V30 3571 H 327.504 4.61459 1.57819 0
M  V30 3572 H 326.509 5.46916 -0.562389 0
M  V30 3573 H 327.734 6.76261 -0.6203 0
M  V30 3574 H 325.68 6.36485 1.58818 0
M  V30 3575 H 325.597 7.55284 0.32899 0
M  V30 3576 H 326.865 7.64646 1.51447 0
M  V30 3577 N 331.094 0.475555 1.50254 0
M  V30 3578 C 332.324 -0.0753399 2.06463 0
M  V30 3579 C 332.732 -1.33661 1.33908 0
M  V30 3580 O 332.075 -1.79219 0.403257 0
M  V30 3581 C 332.137 -0.424921 3.5698 0
M  V30 3582 C 331.801 0.734965 4.51051 0
M  V30 3583 C 332.798 1.61827 4.94073 0
M  V30 3584 C 330.483 0.926557 4.9368 0
M  V30 3585 C 332.477 2.67754 5.78434 0
M  V30 3586 C 330.164 1.98904 5.77824 0
M  V30 3587 C 331.162 2.8629 6.20103 0
M  V30 3588 O 330.85 3.90708 7.02568 0
M  V30 3589 H 330.582 0.00576308 0.675975 0
M  V30 3590 H 333.136 0.664662 1.94349 0
M  V30 3591 H 331.366 -1.21817 3.67012 0
M  V30 3592 H 333.055 -0.911422 3.95535 0
M  V30 3593 H 333.821 1.48196 4.61804 0
M  V30 3594 H 329.7 0.25584 4.6029 0
M  V30 3595 H 333.244 3.35992 6.11355 0
M  V30 3596 H 329.141 2.12541 6.09505 0
M  V30 3597 H 329.909 3.87751 7.20827 0
M  V30 3598 N 332.573 -1.56217 0.208337 0
M  V30 3599 C 333.803 -2.02043 -0.431523 0
M  V30 3600 C 334.211 -1.08755 -1.54819 0
M  V30 3601 O 333.554 -0.0870009 -1.83494 0
M  V30 3602 C 333.616 -3.44239 -1.03633 0
M  V30 3603 C 333.28 -4.56965 -0.0567502 0
M  V30 3604 C 334.277 -5.14624 0.738773 0
M  V30 3605 C 331.962 -5.02266 0.0581736 0
M  V30 3606 C 333.956 -6.16045 1.63605 0
M  V30 3607 C 331.643 -6.03528 0.959001 0
M  V30 3608 C 332.641 -6.60293 1.7465 0
M  V30 3609 O 332.329 -7.59586 2.6322 0
M  V30 3610 H 332.061 -0.666772 -0.111313 0
M  V30 3611 H 334.615 -2.02919 0.318277 0
M  V30 3612 H 332.845 -3.40391 -1.83497 0
M  V30 3613 H 334.534 -3.73793 -1.58221 0
M  V30 3614 H 335.3 -4.80483 0.660364 0
M  V30 3615 H 331.179 -4.57771 -0.544633 0
M  V30 3616 H 334.723 -6.60279 2.25116 0
M  V30 3617 H 330.62 -6.37092 1.03848 0
M  V30 3618 H 331.388 -7.77057 2.57148 0
M  V30 3619 N 334.051 0.0651679 -1.57465 0
M  V30 3620 C 335.299 0.761555 -1.87202 0
M  V30 3621 C 335.62 1.77778 -0.801243 0
M  V30 3622 O 334.89 1.95166 0.16937 0
M  V30 3623 H 333.47 0.284251 -0.690804 0
M  V30 3624 H 336.132 0.0396827 -1.9486 0
M  V30 3625 H 335.228 1.27365 -2.84929 0
M  V30 3626 N 335.529 1.53961 0.336706 0
M  V30 3627 C 336.476 1.82428 1.41381 0
M  V30 3628 C 337.446 0.670444 1.51968 0
M  V30 3629 O 338.631 0.915565 1.67398 0
M  V30 3630 C 335.771 2.04564 2.77934 0
M  V30 3631 C 334.884 3.32267 2.76084 0
M  V30 3632 C 334.019 3.44434 4.04399 0
M  V30 3633 C 333.058 4.66061 3.96804 0
M  V30 3634 N 332.195 4.75224 5.16823 0
M  V30 3635 H 337.035 2.74324 1.16405 0
M  V30 3636 H 334.572 1.35869 0.563752 0
M  V30 3637 H 336.53 2.15388 3.57301 0
M  V30 3638 H 335.16 1.15974 3.01247 0
M  V30 3639 H 334.212 3.3025 1.88784 0
M  V30 3640 H 335.524 4.21733 2.66351 0
M  V30 3641 H 334.678 3.54728 4.92192 0
M  V30 3642 H 333.417 2.53037 4.16921 0
M  V30 3643 H 332.422 4.55838 3.07396 0
M  V30 3644 H 333.647 5.58829 3.85858 0
M  V30 3645 H 331.593 3.86739 5.29876 0
M  V30 3646 H 331.51 5.58636 5.09374 0
M  V30 3647 H 332.778 4.89835 6.06367 0
M  V30 3648 N 337.007 -0.598083 1.45811 0
M  V30 3649 C 337.917 -1.73632 1.57763 0
M  V30 3650 C 338.933 -1.67763 0.461676 0
M  V30 3651 O 340.109 -1.87949 0.723685 0
M  V30 3652 C 337.174 -3.10114 1.55018 0
M  V30 3653 C 336.235 -3.27364 2.77726 0
M  V30 3654 C 335.468 -4.57334 2.75102 0
M  V30 3655 O 335.691 -5.40258 1.8297 0
M  V30 3656 O 334.625 -4.77502 3.66437 0
M  V30 3657 H 338.451 -1.66498 2.53992 0
M  V30 3658 H 336.036 -0.763308 1.28429 0
M  V30 3659 H 337.918 -3.9141 1.56129 0
M  V30 3660 H 336.593 -3.17718 0.619431 0
M  V30 3661 H 335.5 -2.45619 2.82174 0
M  V30 3662 H 336.833 -3.24641 3.69958 0
M  V30 3663 N 338.485 -1.33259 -0.841409 0
M  V30 3664 C 339.415 -1.25926 -1.96634 0
M  V30 3665 C 340.396 -0.140349 -1.6952 0
M  V30 3666 O 341.581 -0.329707 -1.91381 0
M  V30 3667 C 338.711 -0.99512 -3.32738 0
M  V30 3668 C 337.665 -2.0767 -3.74242 0
M  V30 3669 C 336.991 -1.66474 -5.08125 0
M  V30 3670 C 338.291 -3.49318 -3.88297 0
M  V30 3671 H 339.985 -2.20046 -2.03027 0
M  V30 3672 H 337.531 -1.05931 -0.975425 0
M  V30 3673 H 339.484 -0.930323 -4.11002 0
M  V30 3674 H 338.208 -0.0183004 -3.26595 0
M  V30 3675 H 336.867 -2.13187 -2.98239 0
M  V30 3676 H 336.515 -0.675012 -4.9845 0
M  V30 3677 H 336.215 -2.3885 -5.36865 0
M  V30 3678 H 337.739 -1.61455 -5.88867 0
M  V30 3679 H 339.153 -3.46316 -4.56879 0
M  V30 3680 H 337.55 -4.20158 -4.28471 0
M  V30 3681 H 338.62 -3.8801 -2.9082 0
M  V30 3682 N 339.963 1.05934 -1.16686 0
M  V30 3683 C 340.91 2.13499 -0.876748 0
M  V30 3684 C 341.88 1.65162 0.176299 0
M  V30 3685 O 343.065 1.90757 0.0407143 0
M  V30 3686 C 340.205 3.42912 -0.387967 0
M  V30 3687 C 339.318 4.04964 -1.50426 0
M  V30 3688 C 338.453 5.22266 -0.970125 0
M  V30 3689 C 337.492 5.76309 -2.06238 0
M  V30 3690 N 336.629 6.84922 -1.54356 0
M  V30 3691 H 341.469 2.37654 -1.7979 0
M  V30 3692 H 339.006 1.16598 -0.896843 0
M  V30 3693 H 340.964 4.17111 -0.086186 0
M  V30 3694 H 339.594 3.18963 0.496235 0
M  V30 3695 H 338.646 3.28277 -1.92193 0
M  V30 3696 H 339.958 4.41122 -2.32836 0
M  V30 3697 H 339.112 6.03506 -0.621743 0
M  V30 3698 H 337.851 4.87564 -0.115377 0
M  V30 3699 H 336.856 4.93704 -2.41942 0
M  V30 3700 H 338.081 6.13062 -2.92115 0
M  V30 3701 H 336.027 6.52131 -0.711406 0
M  V30 3702 H 335.944 7.20043 -2.30379 0
M  V30 3703 H 337.212 7.69832 -1.22387 0
M  V30 3704 N 341.441 0.965919 1.2453 0
M  V30 3705 C 342.69 0.622437 1.91856 0
M  V30 3706 C 343.003 -0.846006 1.76358 0
M  V30 3707 O 344.209 -1.29993 2.38357 0
M  V30 3708 C 342.665 1.0626 3.43856 0
M  V30 3709 C 342.273 2.55437 3.68043 0
M  V30 3710 C 344.017 0.792183 4.17043 0
M  V30 3711 C 341.924 2.93196 5.13605 0
M  V30 3712 H 340.854 0.229092 0.718354 0
M  V30 3713 H 343.505 1.17189 1.41206 0
M  V30 3714 H 341.887 0.441476 3.93531 0
M  V30 3715 H 343.061 3.22665 3.28974 0
M  V30 3716 H 341.376 2.8007 3.08139 0
M  V30 3717 H 343.973 1.05031 5.24283 0
M  V30 3718 H 344.316 -0.271584 4.15413 0
M  V30 3719 H 344.849 1.37419 3.73311 0
M  V30 3720 H 341.588 3.98636 5.20355 0
M  V30 3721 H 341.108 2.30651 5.53679 0
M  V30 3722 H 342.787 2.83004 5.81823 0
M  V30 3723 N 342.919 -1.39368 0.735821 0
M  V30 3724 C 343.882 -2.2896 0.104874 0
M  V30 3725 C 344.882 -1.46347 -0.666274 0
M  V30 3726 O 346.072 -1.67014 -0.49517 0
M  V30 3727 C 343.204 -3.29857 -0.860656 0
M  V30 3728 H 344.397 -2.86259 0.894205 0
M  V30 3729 H 341.95 -1.48029 0.501704 0
M  V30 3730 H 342.685 -2.77615 -1.67631 0
M  V30 3731 H 342.47 -3.9087 -0.310327 0
M  V30 3732 H 343.96 -3.96893 -1.29867 0
M  V30 3733 N 344.397 -0.483516 -1.5 0
M  V30 3734 C 345.344 0.304164 -2.28787 0
M  V30 3735 C 346.314 0.976114 -1.34392 0
M  V30 3736 O 347.499 0.986156 -1.63339 0
M  V30 3737 C 344.639 1.37298 -3.16612 0
M  V30 3738 C 343.752 0.714561 -4.26049 0
M  V30 3739 C 342.887 1.76232 -5.01114 0
M  V30 3740 C 341.926 1.08483 -6.0241 0
M  V30 3741 N 341.063 2.076 -6.70706 0
M  V30 3742 H 345.903 -0.373981 -2.95644 0
M  V30 3743 H 343.44 -0.196275 -1.45785 0
M  V30 3744 H 345.398 2.00445 -3.65893 0
M  V30 3745 H 344.028 2.02012 -2.51776 0
M  V30 3746 H 343.08 -0.0297798 -3.80388 0
M  V30 3747 H 344.392 0.180383 -4.98474 0
M  V30 3748 H 343.546 2.46929 -5.54176 0
M  V30 3749 H 342.285 2.33033 -4.28424 0
M  V30 3750 H 341.29 0.363545 -5.48597 0
M  V30 3751 H 342.515 0.523551 -6.77079 0
M  V30 3752 H 340.461 2.63394 -6.00799 0
M  V30 3753 H 340.378 1.59201 -7.39047 0
M  V30 3754 H 341.646 2.77639 -7.2838 0
M  V30 3755 N 345.875 1.56104 -0.216619 0
M  V30 3756 C 347.1 2.0301 0.424462 0
M  V30 3757 C 347.525 1.0955 1.52907 0
M  V30 3758 O 346.883 0.0827914 1.81111 0
M  V30 3759 C 346.931 3.4819 0.937883 0
M  V30 3760 O 346.035 3.57865 2.04955 0
M  V30 3761 H 345.376 0.656925 0.0966755 0
M  V30 3762 H 347.906 2.01859 -0.33381 0
M  V30 3763 H 347.916 3.88413 1.24897 0
M  V30 3764 H 346.591 4.15699 0.129387 0
M  V30 3765 H 345.168 3.29527 1.74546 0
M  V30 3766 N 347.353 -0.0568162 1.57498 0
M  V30 3767 C 348.283 -1.06593 2.0775 0
M  V30 3768 C 349.264 -1.39448 0.974082 0
M  V30 3769 O 350.449 -1.48815 1.24771 0
M  V30 3770 C 347.579 -2.37509 2.5339 0
M  V30 3771 C 346.533 -2.1897 3.67745 0
M  V30 3772 C 345.859 -3.55402 3.99492 0
M  V30 3773 C 347.159 -1.59859 4.97235 0
M  V30 3774 H 348.853 -0.647706 2.9231 0
M  V30 3775 H 346.399 -0.310116 1.40621 0
M  V30 3776 H 348.352 -3.08409 2.87162 0
M  V30 3777 H 347.076 -2.8134 1.65878 0
M  V30 3778 H 345.735 -1.50508 3.3428 0
M  V30 3779 H 345.383 -3.9683 3.09088 0
M  V30 3780 H 345.083 -3.43831 4.76502 0
M  V30 3781 H 346.607 -4.27708 4.35773 0
M  V30 3782 H 348.021 -2.20642 5.29141 0
M  V30 3783 H 346.418 -1.58942 5.78669 0
M  V30 3784 H 347.488 -0.561506 4.81638 0
M  V30 3785 N 348.832 -1.54138 -0.328536 0
M  V30 3786 C 349.795 -1.82462 -1.38709 0
M  V30 3787 C 350.795 -0.696229 -1.44946 0
M  V30 3788 O 351.985 -0.964535 -1.4506 0
M  V30 3789 C 349.117 -1.98018 -2.77492 0
M  V30 3790 H 350.31 -2.77037 -1.14851 0
M  V30 3791 H 347.863 -1.45779 -0.563751 0
M  V30 3792 H 348.598 -1.05637 -3.06613 0
M  V30 3793 H 348.383 -2.80124 -2.74359 0
M  V30 3794 H 349.873 -2.21396 -3.54081 0
M  V30 3795 N 350.31 0.590341 -1.46126 0
M  V30 3796 C 351.24 1.71032 -1.58966 0
M  V30 3797 C 352.221 1.64302 -0.440335 0
M  V30 3798 O 353.406 1.82436 -0.665634 0
M  V30 3799 C 350.536 3.09665 -1.57241 0
M  V30 3800 C 349.49 3.31221 -2.71066 0
M  V30 3801 C 348.816 4.70303 -2.54399 0
M  V30 3802 C 350.116 3.19796 -4.1295 0
M  V30 3803 H 351.81 1.60543 -2.52718 0
M  V30 3804 H 349.356 0.770933 -1.21625 0
M  V30 3805 H 351.309 3.87831 -1.64819 0
M  V30 3806 H 350.033 3.21036 -0.600289 0
M  V30 3807 H 348.692 2.55452 -2.62944 0
M  V30 3808 H 348.34 4.78429 -1.55288 0
M  V30 3809 H 348.04 4.85679 -3.30741 0
M  V30 3810 H 349.564 5.50647 -2.63857 0
M  V30 3811 H 350.978 3.87815 -4.22223 0
M  V30 3812 H 349.375 3.46696 -4.89818 0
M  V30 3813 H 350.445 2.16983 -4.33643 0
M  V30 3814 N 351.788 1.33704 0.83433 0
M  V30 3815 C 353.037 1.24763 1.58484 0
M  V30 3816 C 353.35 -0.183775 1.94735 0
M  V30 3817 O 354.556 -0.395234 2.68608 0
M  V30 3818 C 353.012 2.18638 2.85876 0
M  V30 3819 C 352.62 3.66974 2.56971 0
M  V30 3820 C 354.364 2.18581 3.63899 0
M  V30 3821 C 352.271 4.5275 3.80488 0
M  V30 3822 H 351.201 0.463425 0.594772 0
M  V30 3823 H 353.852 1.58797 0.919551 0
M  V30 3824 H 352.234 1.77542 3.5397 0
M  V30 3825 H 353.408 4.16538 1.9706 0
M  V30 3826 H 351.723 3.69366 1.92244 0
M  V30 3827 H 354.32 2.79894 4.55591 0
M  V30 3828 H 354.663 1.18207 3.99165 0
M  V30 3829 H 355.196 2.58062 3.02735 0
M  V30 3830 H 351.935 5.54017 3.5035 0
M  V30 3831 H 351.455 4.07927 4.39722 0
M  V30 3832 H 353.134 4.66784 4.4802 0
M  V30 3833 N 353.266 -1.05314 1.17247 0
M  V30 3834 C 354.196 -2.1498 0.911362 0
M  V30 3835 C 355.177 -1.69471 -0.146169 0
M  V30 3836 O 356.362 -1.942 0.003812 0
M  V30 3837 C 353.492 -3.4472 0.422528 0
M  V30 3838 C 352.446 -4.03789 1.4191 0
M  V30 3839 C 351.772 -5.28858 0.788274 0
M  V30 3840 C 353.072 -4.41418 2.7919 0
M  V30 3841 H 354.766 -2.3708 1.82848 0
M  V30 3842 H 352.312 -1.13938 0.880569 0
M  V30 3843 H 354.265 -4.20787 0.227289 0
M  V30 3844 H 352.989 -3.22269 -0.530123 0
M  V30 3845 H 351.648 -3.2979 1.60106 0
M  V30 3846 H 351.296 -5.02709 -0.171173 0
M  V30 3847 H 350.996 -5.69338 1.45353 0
M  V30 3848 H 352.52 -6.07612 0.603282 0
M  V30 3849 H 353.934 -5.08524 2.64719 0
M  V30 3850 H 352.331 -4.92913 3.42282 0
M  V30 3851 H 353.401 -3.51819 3.33693 0
M  V30 3852 N 354.744 -0.972509 -1.24016 0
M  V30 3853 C 355.991 -0.637034 -1.92219 0
M  V30 3854 C 356.319 0.828418 -1.75976 0
M  V30 3855 O 355.574 1.61206 -1.10955 0
M  V30 3856 C 355.873 -0.963694 -3.44162 0
M  V30 3857 C 355.539 -2.41807 -3.80579 0
M  V30 3858 C 354.201 -2.81556 -3.9023 0
M  V30 3859 C 356.553 -3.36172 -3.98293 0
M  V30 3860 C 353.881 -4.14702 -4.15017 0
M  V30 3861 C 356.233 -4.68952 -4.24578 0
M  V30 3862 C 354.897 -5.08472 -4.32449 0
M  V30 3863 H 354.167 -0.233107 -0.703379 0
M  V30 3864 H 356.814 -1.2249 -1.47202 0
M  V30 3865 H 355.119 -0.29365 -3.90698 0
M  V30 3866 H 356.816 -0.682449 -3.9515 0
M  V30 3867 H 353.406 -2.09988 -3.73635 0
M  V30 3868 H 357.59 -3.06644 -3.90234 0
M  V30 3869 H 352.846 -4.4494 -4.19331 0
M  V30 3870 H 357.02 -5.42037 -4.37229 0
M  V30 3871 H 354.647 -6.11665 -4.51409 0
M  V30 3872 N 356.222 1.38976 -0.743202 0
M  V30 3873 C 357.152 2.33171 -0.123873 0
M  V30 3874 C 358.133 1.54336 0.71516 0
M  V30 3875 O 359.318 1.82696 0.658467 0
M  V30 3876 C 356.448 3.38474 0.777978 0
M  V30 3877 C 355.402 4.27979 0.0424758 0
M  V30 3878 C 354.728 5.2405 1.06189 0
M  V30 3879 C 356.028 5.10155 -1.1198 0
M  V30 3880 H 357.722 2.85213 -0.910709 0
M  V30 3881 H 355.268 1.37133 -0.439388 0
M  V30 3882 H 357.221 4.03328 1.22084 0
M  V30 3883 H 355.945 2.84891 1.59702 0
M  V30 3884 H 354.604 3.64616 -0.380853 0
M  V30 3885 H 354.252 4.66758 1.87472 0
M  V30 3886 H 353.952 5.84785 0.574485 0
M  V30 3887 H 355.476 5.9178 1.50428 0
M  V30 3888 H 356.89 5.68307 -0.75499 0
M  V30 3889 H 355.287 5.80073 -1.53738 0
M  V30 3890 H 356.357 4.44504 -1.93764 0
M  V30 3891 N 357.7 0.491464 1.49741 0
M  V30 3892 C 358.947 -0.0564256 2.02421 0
M  V30 3893 C 359.275 -1.37872 1.37192 0
M  V30 3894 O 358.53 -1.89375 0.493508 0
M  V30 3895 C 358.829 -0.267329 3.56399 0
M  V30 3896 C 358.495 0.975775 4.40215 0
M  V30 3897 C 357.157 1.31655 4.62839 0
M  V30 3898 C 359.509 1.80251 4.89039 0
M  V30 3899 C 356.837 2.48375 5.31532 0
M  V30 3900 C 359.189 2.96116 5.59015 0
M  V30 3901 C 357.853 3.30585 5.79888 0
M  V30 3902 H 357.123 -0.0206476 0.740712 0
M  V30 3903 H 359.77 0.649686 1.80143 0
M  V30 3904 H 358.075 -1.05588 3.77304 0
M  V30 3905 H 359.772 -0.705549 3.94744 0
M  V30 3906 H 356.362 0.700315 4.2284 0
M  V30 3907 H 360.546 1.55239 4.71396 0
M  V30 3908 H 355.802 2.7533 5.45897 0
M  V30 3909 H 359.976 3.60509 5.95824 0
M  V30 3910 H 357.603 4.21132 6.32892 0
M  V30 3911 N 359.178 -1.55987 0.224894 0
M  V30 3912 C 360.141 -2.19178 -0.670348 0
M  V30 3913 C 361.141 -1.15461 -1.11917 0
M  V30 3914 O 362.331 -1.40675 -1.02743 0
M  V30 3915 C 359.463 -2.81777 -1.9187 0
M  V30 3916 H 360.656 -2.99662 -0.119364 0
M  V30 3917 H 358.209 -1.5628 -0.0247128 0
M  V30 3918 H 358.944 -2.05172 -2.51147 0
M  V30 3919 H 358.729 -3.57732 -1.60531 0
M  V30 3920 H 360.219 -3.30205 -2.55645 0
M  V30 3921 N 360.656 0.0484629 -1.57525 0
M  V30 3922 C 361.586 1.0549 -2.08313 0
M  V30 3923 C 362.567 1.38929 -0.981463 0
M  V30 3924 O 363.752 1.48151 -1.25558 0
M  V30 3925 C 360.882 2.36162 -2.54646 0
M  V30 3926 C 359.836 2.17016 -3.68901 0
M  V30 3927 C 359.162 3.53278 -4.01371 0
M  V30 3928 C 360.462 1.57219 -4.98076 0
M  V30 3929 H 362.156 0.632195 -2.92649 0
M  V30 3930 H 359.702 0.302654 -1.40784 0
M  V30 3931 H 361.655 3.06882 -2.88793 0
M  V30 3932 H 360.379 2.80456 -1.67368 0
M  V30 3933 H 359.038 1.48733 -3.35073 0
M  V30 3934 H 358.686 3.95185 -3.11188 0
M  V30 3935 H 358.386 3.41299 -4.78318 0
M  V30 3936 H 359.91 4.25391 -4.38035 0
M  V30 3937 H 361.324 2.17832 -5.30304 0
M  V30 3938 H 359.721 1.55871 -5.79503 0
M  V30 3939 H 360.791 0.535956 -4.81929 0
M  V30 3940 N 362.134 1.5431 0.320358 0
M  V30 3941 C 363.359 1.76954 1.08175 0
M  V30 3942 C 363.784 0.518193 1.80821 0
M  V30 3943 O 363.142 -0.530411 1.73368 0
M  V30 3944 C 363.19 2.96451 2.05303 0
M  V30 3945 O 362.294 2.68221 3.13259 0
M  V30 3946 H 361.635 0.586275 0.311733 0
M  V30 3947 H 364.165 2.01342 0.363676 0
M  V30 3948 H 364.175 3.23887 2.48116 0
M  V30 3949 H 362.85 3.87196 1.51829 0
M  V30 3950 H 361.427 2.51744 2.75099 0
M  V30 3951 N 363.613 -0.582584 1.46437 0
M  V30 3952 C 364.859 -1.34064 1.52965 0
M  V30 3953 C 365.214 -1.91566 0.178968 0
M  V30 3954 O 364.507 -1.73526 -0.812365 0
M  V30 3955 C 364.701 -2.48964 2.56421 0
M  V30 3956 C 364.53 -2.02717 4.01417 0
M  V30 3957 C 363.3 -1.87728 4.69134 0
M  V30 3958 C 365.498 -1.58675 4.8921 0
M  V30 3959 N 363.48 -1.35554 5.98747 0
M  V30 3960 C 364.851 -1.18093 6.08649 0
M  V30 3961 C 366.906 -1.46494 4.75861 0
M  V30 3962 C 365.609 -0.665427 7.16215 0
M  V30 3963 C 367.635 -0.96347 5.83499 0
M  V30 3964 C 366.997 -0.567432 7.02111 0
M  V30 3965 H 363.096 -0.483551 0.614575 0
M  V30 3966 H 365.68 -0.663309 1.83053 0
M  V30 3967 H 363.851 -3.1426 2.28244 0
M  V30 3968 H 365.583 -3.15913 2.52944 0
M  V30 3969 H 362.338 -2.09678 4.24655 0
M  V30 3970 H 362.762 -1.11628 6.67734 0
M  V30 3971 H 367.404 -1.75731 3.8455 0
M  V30 3972 H 365.122 -0.360639 8.07295 0
M  V30 3973 H 368.708 -0.873129 5.75211 0
M  V30 3974 H 367.588 -0.185389 7.83981 0
M  V30 3975 N 365.091 -1.34144 -0.827227 0
M  V30 3976 C 366.021 -1.28005 -1.95287 0
M  V30 3977 C 367.002 -0.158321 -1.69362 0
M  V30 3978 O 368.187 -0.349987 -1.9102 0
M  V30 3979 C 365.317 -1.03036 -3.31664 0
M  V30 3980 C 364.271 -2.11628 -3.72019 0
M  V30 3981 C 363.597 -1.71854 -5.0633 0
M  V30 3982 C 364.897 -3.53417 -3.8457 0
M  V30 3983 H 366.591 -2.22187 -2.00682 0
M  V30 3984 H 364.137 -1.0696 -0.964135 0
M  V30 3985 H 366.09 -0.973863 -4.09993 0
M  V30 3986 H 364.814 -0.0529391 -3.26557 0
M  V30 3987 H 363.473 -2.16339 -2.95961 0
M  V30 3988 H 363.121 -0.727841 -4.97706 0
M  V30 3989 H 362.821 -2.44531 -5.34302 0
M  V30 3990 H 364.345 -1.67692 -5.87122 0
M  V30 3991 H 365.759 -3.51142 -4.5318 0
M  V30 3992 H 364.156 -4.24679 -4.2399 0
M  V30 3993 H 365.226 -3.91072 -2.86689 0
M  V30 3994 N 366.569 1.04691 -1.17803 0
M  V30 3995 C 367.98 1.59238 -0.974689 0
M  V30 3996 C 368.331 1.90306 0.477292 0
M  V30 3997 O 367.456 1.68846 1.35352 0
M  V30 3998 C 368.051 2.89318 -1.76296 0
M  V30 3999 C 366.61 3.40506 -1.60414 0
M  V30 4000 C 365.757 2.14172 -1.76141 0
M  V30 4001 H 368.708 0.874395 -1.32439 0
M  V30 4002 H 368.729 3.5944 -1.24833 0
M  V30 4003 H 368.241 2.66675 -2.81968 0
M  V30 4004 H 366.342 3.68175 -0.572519 0
M  V30 4005 H 366.455 4.14753 -2.39827 0
M  V30 4006 H 364.819 2.25176 -1.19028 0
M  V30 4007 H 365.602 1.93992 -2.83235 0
M  V30 4008 N 368.047 0.979072 1.23499 0
M  V30 4009 C 368.977 0.537606 2.27227 0
M  V30 4010 C 369.958 -0.428539 1.64613 0
M  V30 4011 O 371.143 -0.322191 1.91509 0
M  V30 4012 C 368.273 -0.162052 3.46922 0
M  V30 4013 C 367.227 0.721242 4.21879 0
M  V30 4014 C 366.553 -0.110555 5.34586 0
M  V30 4015 C 367.853 2.01141 4.82016 0
M  V30 4016 H 369.547 1.40462 2.64406 0
M  V30 4017 H 367.093 0.67684 1.27102 0
M  V30 4018 H 369.046 -0.482192 4.18632 0
M  V30 4019 H 367.77 -1.06351 3.08799 0
M  V30 4020 H 366.429 1.02482 3.51984 0
M  V30 4021 H 366.077 -1.0125 4.92704 0
M  V30 4022 H 365.777 0.477325 5.85658 0
M  V30 4023 H 367.301 -0.425107 6.09118 0
M  V30 4024 H 368.715 1.75612 5.45741 0
M  V30 4025 H 367.112 2.54695 5.43369 0
M  V30 4026 H 368.182 2.69909 4.02836 0
M  V30 4027 N 369.525 -1.3858 0.750561 0
M  V30 4028 C 370.475 -2.27795 0.0965949 0
M  V30 4029 C 371.459 -1.45048 -0.696411 0
M  V30 4030 O 372.651 -1.67812 -0.562863 0
M  V30 4031 C 369.78 -3.33894 -0.798085 0
M  V30 4032 C 368.866 -4.241 0.0016067 0
M  V30 4033 N 369.257 -4.95067 1.03647 0
M  V30 4034 C 367.555 -4.45429 -0.225674 0
M  V30 4035 C 368.256 -5.61489 1.52004 0
M  V30 4036 N 367.232 -5.37135 0.835874 0
M  V30 4037 H 371.034 -2.80125 0.889228 0
M  V30 4038 H 368.548 -1.51446 0.586323 0
M  V30 4039 H 370.545 -3.96693 -1.28219 0
M  V30 4040 H 369.205 -2.83123 -1.5897 0
M  V30 4041 H 370.216 -4.98104 1.41819 0
M  V30 4042 H 366.893 -4.05571 -0.990872 0
M  V30 4043 H 368.283 -6.28264 2.38188 0
M  V30 4044 N 371.003 -0.499398 -1.49478 0
M  V30 4045 C 372.252 0.0475259 -2.01644 0
M  V30 4046 C 372.565 1.38195 -1.38425 0
M  V30 4047 O 373.771 2.01547 -1.8191 0
M  V30 4048 C 372.227 0.135164 -3.59646 0
M  V30 4049 C 371.835 -1.19252 -4.31837 0
M  V30 4050 C 373.579 0.632538 -4.19761 0
M  V30 4051 C 371.486 -1.06713 -5.81693 0
M  V30 4052 H 370.416 0.0215349 -0.753692 0
M  V30 4053 H 373.067 -0.638577 -1.7203 0
M  V30 4054 H 371.449 0.885681 -3.85969 0
M  V30 4055 H 372.623 -1.9562 -4.17216 0
M  V30 4056 H 370.938 -1.62321 -3.83459 0
M  V30 4057 H 373.535 0.743833 -5.29501 0
M  V30 4058 H 373.878 1.63098 -3.83021 0
M  V30 4059 H 374.411 -0.0613987 -3.97753 0
M  V30 4060 H 371.15 -2.03979 -6.22955 0
M  V30 4061 H 370.67 -0.344307 -5.98811 0
M  V30 4062 H 372.349 -0.745208 -6.42694 0
M  V30 4063 N 372.481 1.55866 -0.233164 0
M  V30 4064 C 373.411 2.23783 0.666599 0
M  V30 4065 C 374.392 1.21343 1.19205 0
M  V30 4066 O 375.577 1.4996 1.23392 0
M  V30 4067 C 372.707 2.92671 1.86978 0
M  V30 4068 C 371.661 4.01682 1.47768 0
M  V30 4069 C 370.987 4.57926 2.76058 0
M  V30 4070 C 372.287 5.18126 0.658993 0
M  V30 4071 H 373.981 2.99232 0.100306 0
M  V30 4072 H 371.527 1.43924 0.046804 0
M  V30 4073 H 373.48 3.3888 2.50476 0
M  V30 4074 H 372.204 2.14688 2.46123 0
M  V30 4075 H 370.863 3.56222 0.866106 0
M  V30 4076 H 370.511 3.76659 3.33372 0
M  V30 4077 H 370.211 5.31505 2.50552 0
M  V30 4078 H 371.735 5.06859 3.40479 0
M  V30 4079 H 373.149 5.60644 1.19795 0
M  V30 4080 H 371.546 5.98009 0.500552 0
M  V30 4081 H 372.616 4.83763 -0.331856 0
M  V30 4082 N 373.959 -0.0401083 1.57549 0
M  V30 4083 C 374.907 -1.06264 2.06908 0
M  V30 4084 C 375.901 -1.38132 0.980608 0
M  V30 4085 O 377.107 -1.37167 1.16556 0
M  V30 4086 H 373.482 -0.360166 0.660139 0
M  V30 4087 H 375.453 -0.620445 2.91878 0
M  V30 4088 C 374.202 -2.35846 2.55483 0
M  V30 4089 H 373.525 -2.12183 3.38849 0
M  V30 4090 H 374.965 -3.05765 2.93741 0
M  V30 4091 C 373.424 -3.0404 1.45126 0
M  V30 4092 O 373.954 -3.93424 0.811216 0
M  V30 4093 N 372.16 -2.65184 1.18852 0
M  V30 4094 H 371.707 -1.92584 1.71083 0
M  V30 4095 H 371.665 -3.1113 0.452244 0
M  V30 4096 N 375.437 -1.54477 -0.31217 0
M  V30 4097 C 376.677 -1.74958 -1.05684 0
M  V30 4098 C 377.041 -0.518414 -1.84869 0
M  V30 4099 O 378.242 -0.600759 -2.62001 0
M  V30 4100 C 376.513 -2.99656 -1.94785 0
M  V30 4101 S 378.072 -3.4109 -2.76049 0
M  V30 4102 H 374.89 -0.615104 -0.356606 0
M  V30 4103 H 377.492 -1.92669 -0.331514 0
M  V30 4104 H 376.196 -3.87397 -1.35468 0
M  V30 4105 H 375.727 -2.845 -2.71704 0
M  V30 4106 H 377.742 -2.97283 -3.97287 0
M  V30 4107 N 376.915 0.57481 -1.46744 0
M  V30 4108 C 378.164 1.32898 -1.51727 0
M  V30 4109 C 378.477 1.948 -0.176692 0
M  V30 4110 O 379.683 2.71299 -0.104385 0
M  V30 4111 C 378.139 2.40901 -2.67385 0
M  V30 4112 C 377.747 1.85266 -4.07898 0
M  V30 4113 C 379.491 3.17609 -2.81646 0
M  V30 4114 C 377.398 2.90945 -5.14883 0
M  V30 4115 H 376.328 0.499631 -0.564699 0
M  V30 4116 H 378.979 0.612536 -1.72975 0
M  V30 4117 H 377.361 3.15379 -2.39483 0
M  V30 4118 H 378.535 1.17278 -4.45626 0
M  V30 4119 H 376.85 1.21199 -3.98371 0
M  V30 4120 H 379.447 3.96493 -3.58744 0
M  V30 4121 H 379.79 3.70696 -1.89448 0
M  V30 4122 H 380.323 2.50239 -3.09233 0
M  V30 4123 H 377.062 2.42736 -6.089 0
M  V30 4124 H 376.582 3.57398 -4.81691 0
M  V30 4125 H 378.261 3.54755 -5.41071 0
M  V30 4126 N 378.394 1.34581 0.820102 0
M  V30 4127 C 379.622 1.3018 1.60813 0
M  V30 4128 C 380.037 -0.123551 1.88395 0
M  V30 4129 O 379.394 -1.07148 1.47735 0
M  V30 4130 C 379.445 2.09312 2.94739 0
M  V30 4131 O 379.166 3.46288 2.68358 0
M  V30 4132 C 380.667 2.1234 3.89136 0
M  V30 4133 H 377.887 0.447726 0.499782 0
M  V30 4134 H 380.431 1.77237 1.02017 0
M  V30 4135 H 378.586 1.65889 3.50085 0
M  V30 4136 H 379 3.87227 3.53774 0
M  V30 4137 H 380.474 2.72126 4.80262 0
M  V30 4138 H 380.951 1.11854 4.24718 0
M  V30 4139 H 381.557 2.55864 3.39726 0
M  V30 4140 N 379.872 -1.04064 1.18357 0
M  V30 4141 C 380.802 -2.14001 0.934113 0
M  V30 4142 C 381.783 -1.69616 -0.128186 0
M  V30 4143 O 382.968 -1.94185 0.0244093 0
M  V30 4144 C 380.098 -3.44253 0.459066 0
M  V30 4145 C 379.052 -4.02261 1.46185 0
M  V30 4146 C 378.378 -5.27992 0.844322 0
M  V30 4147 C 379.678 -4.38432 2.83856 0
M  V30 4148 H 381.372 -2.35127 1.85352 0
M  V30 4149 H 378.918 -1.12998 0.892604 0
M  V30 4150 H 380.871 -4.20522 0.271907 0
M  V30 4151 H 379.595 -3.22813 -0.495912 0
M  V30 4152 H 378.254 -3.28074 1.63595 0
M  V30 4153 H 377.902 -5.02862 -0.117845 0
M  V30 4154 H 377.602 -5.67765 1.51384 0
M  V30 4155 H 379.126 -6.06938 0.667693 0
M  V30 4156 H 380.54 -5.05688 2.70098 0
M  V30 4157 H 378.937 -4.89254 3.47491 0
M  V30 4158 H 380.007 -3.4826 3.37406 0
M  V30 4159 N 381.35 -0.985608 -1.22978 0
M  V30 4160 C 382.597 -0.657386 -1.91532 0
M  V30 4161 C 382.925 0.809707 -1.76845 0
M  V30 4162 O 382.18 1.60021 -1.12658 0
M  V30 4163 C 382.479 -1.00014 -3.43121 0
M  V30 4164 C 382.145 -2.4583 -3.77993 0
M  V30 4165 C 380.807 -2.85679 -3.87222 0
M  V30 4166 C 383.159 -3.40378 -3.94705 0
M  V30 4167 C 380.487 -4.19081 -4.10595 0
M  V30 4168 C 382.839 -4.73429 -4.1958 0
M  V30 4169 C 381.503 -5.1303 -4.27032 0
M  V30 4170 H 380.773 -0.240555 -0.700867 0
M  V30 4171 H 383.42 -1.24044 -1.45895 0
M  V30 4172 H 381.725 -0.335072 -3.90365 0
M  V30 4173 H 383.422 -0.724322 -3.94404 0
M  V30 4174 H 380.012 -2.13939 -3.71387 0
M  V30 4175 H 384.196 -3.10766 -3.8696 0
M  V30 4176 H 379.452 -4.49362 -4.14589 0
M  V30 4177 H 383.626 -5.46644 -4.31455 0
M  V30 4178 H 381.253 -6.16418 -4.44896 0
M  V30 4179 N 382.828 1.3818 -0.7579 0
M  V30 4180 C 384.068 2.01864 -0.320968 0
M  V30 4181 C 384.432 1.58863 1.07827 0
M  V30 4182 O 385.633 2.14908 1.61456 0
M  V30 4183 C 383.904 3.54626 -0.44446 0
M  V30 4184 S 385.463 4.38706 -0.0907467 0
M  V30 4185 H 382.281 0.700056 -0.124268 0
M  V30 4186 H 384.883 1.68611 -0.989468 0
M  V30 4187 H 383.587 3.83411 -1.4637 0
M  V30 4188 H 383.118 3.92661 0.241073 0
M  V30 4189 H 385.133 4.83435 1.11826 0
M  V30 4190 N 384.306 0.507319 1.49211 0
M  V30 4191 C 385.717 0.0611118 1.866 0
M  V30 4192 C 386.068 -1.35488 1.41907 0
M  V30 4193 O 385.193 -2.0108 0.799726 0
M  V30 4194 C 385.788 0.104125 3.3864 0
M  V30 4195 C 384.347 -0.28677 3.75306 0
M  V30 4196 C 383.494 0.473893 2.73221 0
M  V30 4197 H 386.445 0.719775 1.41439 0
M  V30 4198 H 386.466 -0.689672 3.74198 0
M  V30 4199 H 385.978 1.13482 3.71138 0
M  V30 4200 H 384.079 -1.32046 3.48417 0
M  V30 4201 H 384.192 0.0370745 4.79086 0
M  V30 4202 H 382.556 -0.0770644 2.54583 0
M  V30 4203 H 383.339 1.50478 3.08563 0
M  V30 4204 N 385.784 -1.5574 0.241426 0
M  V30 4205 C 387.009 -2.0366 -0.392111 0
M  V30 4206 C 387.434 -1.11969 -1.51144 0
M  V30 4207 O 386.792 -0.111594 -1.80956 0
M  V30 4208 C 386.84 -3.49638 -0.882371 0
M  V30 4209 O 385.944 -3.6108 -1.99235 0
M  V30 4210 H 385.285 -0.658379 -0.0862122 0
M  V30 4211 H 387.815 -2.01302 0.365881 0
M  V30 4212 H 387.825 -3.90351 -1.18702 0
M  V30 4213 H 386.5 -4.15852 -0.0632361 0
M  V30 4214 H 385.077 -3.32262 -1.69282 0
M  V30 4215 N 387.262 0.0317525 -1.57568 0
M  V30 4216 C 388.502 0.727979 -1.90997 0
M  V30 4217 C 388.866 1.72664 -0.839708 0
M  V30 4218 O 390.067 2.47092 -1.05825 0
M  V30 4219 C 388.338 1.38239 -3.29583 0
M  V30 4220 S 389.897 2.10814 -3.84841 0
M  V30 4221 H 386.715 0.241226 -0.668828 0
M  V30 4222 H 389.317 -0.0173037 -1.95492 0
M  V30 4223 H 388.021 0.642288 -4.05343 0
M  V30 4224 H 387.552 2.16628 -3.28384 0
M  V30 4225 H 389.567 3.3792 -3.63352 0
M  V30 4226 N 388.74 1.54641 0.303973 0
M  V30 4227 C 389.69 1.8177 1.37636 0
M  V30 4228 C 390.674 0.674697 1.46071 0
M  V30 4229 O 391.866 0.935251 1.50273 0
M  V30 4230 C 388.995 2.06584 2.74186 0
M  V30 4231 C 388.081 3.2706 2.69986 0
M  V30 4232 N 388.472 4.47682 2.35402 0
M  V30 4233 C 386.77 3.29028 3.01092 0
M  V30 4234 C 387.471 5.29689 2.40426 0
M  V30 4235 N 386.447 4.67339 2.7766 0
M  V30 4236 H 390.249 2.72596 1.09857 0
M  V30 4237 H 387.763 1.541 0.51254 0
M  V30 4238 H 389.76 2.24166 3.51504 0
M  V30 4239 H 388.42 1.17024 3.02879 0
M  V30 4240 H 389.431 4.74336 2.07908 0
M  V30 4241 H 386.108 2.49565 3.34699 0
M  V30 4242 H 387.498 6.3606 2.16512 0
M  V30 4243 N 390.218 -0.567019 1.47046 0
M  V30 4244 C 391.165 -1.67489 1.58796 0
M  V30 4245 C 392.135 -1.60399 0.43144 0
M  V30 4246 O 393.32 -1.79378 0.650233 0
M  V30 4247 C 390.46 -3.05821 1.59899 0
M  V30 4248 C 389.573 -3.2342 2.86397 0
M  V30 4249 C 388.708 -4.52093 2.789 0
M  V30 4250 C 387.747 -4.6309 4.00267 0
M  V30 4251 N 386.884 -5.83106 3.91064 0
M  V30 4252 H 391.724 -1.56785 2.53422 0
M  V30 4253 H 389.261 -0.763896 1.2571 0
M  V30 4254 H 391.219 -3.8591 1.58522 0
M  V30 4255 H 389.849 -3.15384 0.687929 0
M  V30 4256 H 388.901 -2.3683 2.97684 0
M  V30 4257 H 390.213 -3.27412 3.76301 0
M  V30 4258 H 389.367 -5.4043 2.75718 0
M  V30 4259 H 388.106 -4.50565 1.86662 0
M  V30 4260 H 387.111 -3.73168 4.03765 0
M  V30 4261 H 388.336 -4.66386 4.93621 0
M  V30 4262 H 386.282 -5.82546 3.01623 0
M  V30 4263 H 386.199 -5.88434 4.74638 0
M  V30 4264 H 387.467 -6.73831 3.91882 0
M  V30 4265 N 391.696 -1.35014 -0.812953 0
M  V30 4266 C 393.107 -1.25035 -1.38648 0
M  V30 4267 C 393.458 0.119967 -1.95833 0
M  V30 4268 O 392.583 1.02069 -1.90816 0
M  V30 4269 C 393.178 -2.26394 -2.52054 0
M  V30 4270 C 391.737 -2.20175 -3.05287 0
M  V30 4271 C 390.884 -2.12451 -1.78213 0
M  V30 4272 H 393.835 -1.46235 -0.616516 0
M  V30 4273 H 393.856 -1.88672 -3.30429 0
M  V30 4274 H 393.368 -3.26116 -2.10404 0
M  V30 4275 H 391.469 -1.23841 -3.51417 0
M  V30 4276 H 391.582 -3.11863 -3.63701 0
M  V30 4277 H 389.946 -1.58328 -1.9951 0
M  V30 4278 H 390.729 -3.14024 -1.38723 0
M  V30 4279 N 393.175 1.03435 -1.18907 0
M  V30 4280 C 394.4 1.80919 -1.01406 0
M  V30 4281 C 394.825 1.83055 0.432721 0
M  V30 4282 O 394.183 1.25252 1.31079 0
M  V30 4283 C 394.231 3.24091 -1.58105 0
M  V30 4284 O 393.335 4.04434 -0.806669 0
M  V30 4285 H 392.676 0.558709 -0.358803 0
M  V30 4286 H 395.206 1.30223 -1.57807 0
M  V30 4287 H 395.216 3.74853 -1.61087 0
M  V30 4288 H 393.891 3.21851 -2.6341 0
M  V30 4289 H 392.468 3.63091 -0.849666 0
M  V30 4290 N 394.653 0.992116 1.22453 0
M  V30 4291 C 395.902 0.662992 1.90492 0
M  V30 4292 C 396.215 -0.808407 1.78113 0
M  V30 4293 O 397.421 -1.24908 2.41061 0
M  V30 4294 C 395.877 1.1353 3.41524 0
M  V30 4295 C 395.485 2.63187 3.62542 0
M  V30 4296 C 397.229 0.880465 4.15269 0
M  V30 4297 C 395.136 3.04024 5.0727 0
M  V30 4298 H 394.066 0.244278 0.713333 0
M  V30 4299 H 396.717 1.20157 1.38688 0
M  V30 4300 H 395.099 0.52485 3.92506 0
M  V30 4301 H 396.273 3.2957 3.22056 0
M  V30 4302 H 394.588 2.86543 3.02129 0
M  V30 4303 H 397.185 1.16128 5.21937 0
M  V30 4304 H 397.528 -0.183408 4.15896 0
M  V30 4305 H 398.061 1.45307 3.70312 0
M  V30 4306 H 394.8 4.09584 5.11782 0
M  V30 4307 H 394.32 2.42343 5.48662 0
M  V30 4308 H 395.999 2.95282 5.75689 0
M  V30 4309 N 396.131 -1.37776 0.765217 0
M  V30 4310 C 397.061 -2.32945 0.160953 0
M  V30 4311 C 398.042 -1.55454 -0.690516 0
M  V30 4312 O 399.227 -1.83721 -0.629318 0
M  V30 4313 C 396.357 -3.39669 -0.724031 0
M  V30 4314 C 395.311 -4.27992 0.0256173 0
M  V30 4315 C 394.637 -5.25673 -0.978383 0
M  V30 4316 C 395.937 -5.08309 1.20082 0
M  V30 4317 H 397.631 -2.83728 0.955969 0
M  V30 4318 H 395.177 -1.36416 0.461149 0
M  V30 4319 H 397.13 -4.05219 -1.15652 0
M  V30 4320 H 395.854 -2.87396 -1.5515 0
M  V30 4321 H 394.513 -3.63964 0.438812 0
M  V30 4322 H 394.161 -4.69682 -1.80022 0
M  V30 4323 H 393.861 -5.85625 -0.481378 0
M  V30 4324 H 395.385 -5.94098 -1.40995 0
M  V30 4325 H 396.799 -5.67034 0.845307 0
M  V30 4326 H 395.196 -5.77554 1.62947 0
M  V30 4327 H 396.266 -4.41365 2.00811 0
M  V30 4328 N 397.609 -0.515225 -1.4894 0
M  V30 4329 C 398.837 0.0206034 -2.0689 0
M  V30 4330 C 399.252 1.29514 -1.37374 0
M  V30 4331 O 398.609 1.76698 -0.456529 0
M  V30 4332 C 398.66 0.26351 -3.60538 0
M  V30 4333 O 398.381 -0.960517 -4.27441 0
M  V30 4334 C 399.882 0.841383 -4.35242 0
M  V30 4335 H 397.102 -0.0268608 -0.670462 0
M  V30 4336 H 399.646 -0.716651 -1.91532 0
M  V30 4337 H 397.801 0.950777 -3.75552 0
M  V30 4338 H 398.215 -0.73212 -5.19365 0
M  V30 4339 H 399.689 0.96085 -5.43573 0
M  V30 4340 H 400.166 1.8427 -3.98674 0
M  V30 4341 H 400.772 0.191143 -4.2487 0
M  V30 4342 N 399.087 1.5561 -0.249682 0
M  V30 4343 C 400.317 2.03116 0.377803 0
M  V30 4344 C 400.725 1.12822 1.51881 0
M  V30 4345 O 400.068 0.13562 1.83199 0
M  V30 4346 C 400.13 3.46866 0.944693 0
M  V30 4347 C 399.794 4.56955 -0.0644259 0
M  V30 4348 C 400.791 5.12485 -0.874957 0
M  V30 4349 C 398.476 5.01936 -0.19132 0
M  V30 4350 C 400.47 6.11491 -1.79881 0
M  V30 4351 C 398.157 6.00773 -1.11868 0
M  V30 4352 C 399.155 6.5543 -1.92095 0
M  V30 4353 O 398.843 7.5234 -2.83267 0
M  V30 4354 H 398.575 0.669489 0.0935961 0
M  V30 4355 H 401.129 2.02004 -0.371966 0
M  V30 4356 H 399.359 3.45136 1.74407 0
M  V30 4357 H 401.048 3.77856 1.48255 0
M  V30 4358 H 401.814 4.78564 -0.787523 0
M  V30 4359 H 397.693 4.59055 0.423072 0
M  V30 4360 H 401.237 6.54078 -2.42543 0
M  V30 4361 H 397.134 6.34114 -1.20703 0
M  V30 4362 H 397.902 7.69966 -2.7766 0
M  V30 4363 N 400.565 -0.0233959 1.57583 0
M  V30 4364 C 401.814 -0.712133 1.8871 0
M  V30 4365 C 402.127 -1.76217 0.848944 0
M  V30 4366 O 403.333 -2.50389 1.04964 0
M  V30 4367 C 401.789 -1.3177 3.3491 0
M  V30 4368 C 401.397 -0.303715 4.46969 0
M  V30 4369 C 403.141 -1.98598 3.75179 0
M  V30 4370 C 401.048 -0.917945 5.84233 0
M  V30 4371 H 399.978 -0.269735 0.704101 0
M  V30 4372 H 402.629 0.0333114 1.8347 0
M  V30 4373 H 401.011 -2.11304 3.34913 0
M  V30 4374 H 402.185 0.465325 4.58445 0
M  V30 4375 H 400.5 0.2628 4.1557 0
M  V30 4376 H 403.097 -2.45416 4.75053 0
M  V30 4377 H 403.44 -2.80659 3.07468 0
M  V30 4378 H 403.973 -1.25831 3.77374 0
M  V30 4379 H 400.712 -0.136633 6.55358 0
M  V30 4380 H 400.232 -1.65669 5.76467 0
M  V30 4381 H 401.911 -1.4236 6.31144 0
M  V30 4382 N 402.043 -1.548 -0.295768 0
M  V30 4383 C 403.006 -1.85363 -1.34808 0
M  V30 4384 C 404.006 -0.726817 -1.43436 0
M  V30 4385 O 405.196 -0.995088 -1.42981 0
M  V30 4386 C 402.328 -2.03859 -2.73229 0
M  V30 4387 H 403.521 -2.7941 -1.08949 0
M  V30 4388 H 401.074 -1.46942 -0.532702 0
M  V30 4389 H 401.809 -1.12117 -3.04303 0
M  V30 4390 H 401.594 -2.8588 -2.68356 0
M  V30 4391 H 403.084 -2.28857 -3.49305 0
M  V30 4392 N 403.521 0.559213 -1.47345 0
M  V30 4393 C 404.77 1.31281 -1.53128 0
M  V30 4394 C 405.083 1.94602 -0.197344 0
M  V30 4395 O 406.289 2.71173 -0.133154 0
M  V30 4396 C 404.745 2.38051 -2.69925 0
M  V30 4397 C 404.353 1.8093 -4.0984 0
M  V30 4398 C 406.097 3.14604 -2.84999 0
M  V30 4399 C 404.004 2.85468 -5.1794 0
M  V30 4400 H 402.934 0.493614 -0.569966 0
M  V30 4401 H 405.585 0.594155 -1.73615 0
M  V30 4402 H 403.967 3.12822 -2.42814 0
M  V30 4403 H 405.141 1.12544 -4.46845 0
M  V30 4404 H 403.456 1.16967 -3.99634 0
M  V30 4405 H 406.053 3.92666 -3.62929 0
M  V30 4406 H 406.396 3.68665 -1.93369 0
M  V30 4407 H 406.929 2.46945 -3.1187 0
M  V30 4408 H 403.668 2.36264 -6.1144 0
M  V30 4409 H 403.188 3.52269 -4.85455 0
M  V30 4410 H 404.867 3.48996 -5.44803 0
M  V30 4411 N 404.999 1.35443 0.805782 0
M  V30 4412 C 406.246 1.28761 1.56291 0
M  V30 4413 C 406.574 -0.137747 1.94012 0
M  V30 4414 O 405.829 -1.1032 1.61642 0
M  V30 4415 C 406.128 2.14045 2.86216 0
M  V30 4416 C 405.794 3.62826 2.67709 0
M  V30 4417 C 404.456 4.0338 2.6237 0
M  V30 4418 C 406.808 4.57227 2.50186 0
M  V30 4419 C 404.136 5.36501 2.37451 0
M  V30 4420 C 406.488 5.90547 2.26797 0
M  V30 4421 C 405.152 6.30245 2.1988 0
M  V30 4422 H 404.422 0.471171 0.571908 0
M  V30 4423 H 407.069 1.67347 0.930974 0
M  V30 4424 H 405.374 1.68342 3.53791 0
M  V30 4425 H 407.071 2.0621 3.43917 0
M  V30 4426 H 403.661 3.30644 2.72713 0
M  V30 4427 H 407.845 4.2678 2.53323 0
M  V30 4428 H 403.101 5.66259 2.30567 0
M  V30 4429 H 407.275 6.63274 2.12228 0
M  V30 4430 H 404.902 7.33328 2.00333 0
M  V30 4431 N 406.477 -1.02803 1.19454 0
M  V30 4432 C 407.407 -2.12999 0.956758 0
M  V30 4433 C 408.388 -1.69743 -0.110188 0
M  V30 4434 O 409.573 -1.94148 0.0450038 0
M  V30 4435 C 406.703 -3.43746 0.495553 0
M  V30 4436 C 405.657 -4.00688 1.50443 0
M  V30 4437 C 404.983 -5.27067 0.900275 0
M  V30 4438 C 406.283 -4.35397 2.8849 0
M  V30 4439 H 407.977 -2.33148 1.87836 0
M  V30 4440 H 405.523 -1.12045 0.904539 0
M  V30 4441 H 407.476 -4.2021 0.316493 0
M  V30 4442 H 406.2 -3.23321 -0.461646 0
M  V30 4443 H 404.859 -3.2632 1.67065 0
M  V30 4444 H 404.507 -5.02959 -0.064503 0
M  V30 4445 H 404.207 -5.66127 1.57397 0
M  V30 4446 H 405.731 -6.06196 0.73203 0
M  V30 4447 H 407.145 -5.02795 2.75446 0
M  V30 4448 H 405.542 -4.85541 3.52661 0
M  V30 4449 H 406.612 -3.44662 3.41081 0
M  V30 4450 N 407.956 -0.998596 -1.21925 0
M  V30 4451 C 409.184 -0.696286 -1.94832 0
M  V30 4452 C 409.599 0.740032 -1.73692 0
M  V30 4453 O 408.956 1.5 -1.03953 0
M  V30 4454 C 409.007 -0.999833 -3.47398 0
M  V30 4455 O 408.728 -2.37972 -3.67833 0
M  V30 4456 C 410.229 -0.716025 -4.37479 0
M  V30 4457 H 407.449 -0.257111 -0.619786 0
M  V30 4458 H 409.993 -1.33491 -1.54921 0
M  V30 4459 H 408.148 -0.406918 -3.85257 0
M  V30 4460 H 408.562 -2.48338 -4.61983 0
M  V30 4461 H 410.036 -0.978642 -5.43256 0
M  V30 4462 H 410.513 0.349968 -4.37803 0
M  V30 4463 H 411.119 -1.29025 -4.05256 0
M  V30 4464 N 409.434 1.37368 -0.772513 0
M  V30 4465 C 410.384 2.27613 -0.132823 0
M  V30 4466 C 411.368 1.46138 0.673247 0
M  V30 4467 O 412.56 1.68686 0.536095 0
M  V30 4468 C 409.689 3.35122 0.744864 0
M  V30 4469 C 408.775 4.24044 -0.0690771 0
M  V30 4470 N 409.166 4.93355 -1.1151 0
M  V30 4471 C 407.464 4.45731 0.154782 0
M  V30 4472 C 408.165 5.59 -1.60917 0
M  V30 4473 N 407.141 5.35737 -0.921222 0
M  V30 4474 H 410.943 2.78675 -0.933681 0
M  V30 4475 H 408.457 1.50494 -0.610342 0
M  V30 4476 H 410.454 3.98683 1.21892 0
M  V30 4477 H 409.114 2.85616 1.54446 0
M  V30 4478 H 410.125 4.95785 -1.49726 0
M  V30 4479 H 406.802 4.07096 0.926224 0
M  V30 4480 H 408.192 6.24395 -2.48153 0
M  V30 4481 N 410.912 0.523116 1.48665 0
M  V30 4482 C 412.16 -0.0134497 2.02096 0
M  V30 4483 C 412.481 -1.35418 1.40311 0
M  V30 4484 O 411.751 -1.87543 0.566074 0
M  V30 4485 H 410.331 -0.00795915 0.746958 0
M  V30 4486 H 412.993 0.685388 1.82451 0
M  V30 4487 H 412.089 -0.126849 3.11842 0
M  V30 4488 N 412.39 -1.55475 0.257931 0
M  V30 4489 C 413.338 -2.23244 -0.653076 0
M  V30 4490 C 414.332 -1.22366 -1.17144 0
M  V30 4491 O 415.538 -1.40347 -1.12706 0
M  V30 4492 H 411.913 -0.716247 -0.229117 0
M  V30 4493 H 413.884 -2.98343 -0.0584788 0
M  V30 4494 C 412.633 -2.95401 -1.83395 0
M  V30 4495 H 411.956 -3.72802 -1.44424 0
M  V30 4496 H 413.396 -3.46165 -2.44838 0
M  V30 4497 C 411.855 -1.99895 -2.71189 0
M  V30 4498 O 412.385 -1.53909 -3.71046 0
M  V30 4499 N 410.591 -1.6676 -2.3799 0
M  V30 4500 H 410.138 -2.04352 -1.56837 0
M  V30 4501 H 410.096 -1.03127 -2.97005 0
M  V30 4502 N 413.868 0.0150385 -1.57593 0
M  V30 4503 C 415.093 0.718067 -1.94573 0
M  V30 4504 C 415.518 1.6734 -0.859005 0
M  V30 4505 O 414.876 1.80362 0.184147 0
M  V30 4506 C 414.924 1.43918 -3.30636 0
M  V30 4507 O 414.028 2.55299 -3.23876 0
M  V30 4508 H 413.369 0.192125 -0.635597 0
M  V30 4509 H 415.899 -0.0336708 -2.04572 0
M  V30 4510 H 415.909 1.80598 -3.65853 0
M  V30 4511 H 414.584 0.738619 -4.09289 0
M  V30 4512 H 413.161 2.21058 -3.00312 0
M  V30 4513 N 415.346 1.54954 0.287554 0
M  V30 4514 C 416.309 1.86076 1.33823 0
M  V30 4515 C 417.309 0.734414 1.43049 0
M  V30 4516 O 418.499 1.00266 1.42452 0
M  V30 4517 C 415.631 2.05305 2.72144 0
M  V30 4518 H 416.824 2.79984 1.07465 0
M  V30 4519 H 414.377 1.47223 0.524902 0
M  V30 4520 H 415.112 1.1373 3.03704 0
M  V30 4521 H 414.897 2.873 2.66836 0
M  V30 4522 H 416.387 2.30706 3.48087 0
M  V30 4523 N 416.824 -0.551391 1.4764 0
M  V30 4524 C 417.757 -1.6738 1.5511 0
M  V30 4525 C 418.735 -1.5753 0.402856 0
M  V30 4526 O 419.919 -1.78307 0.611475 0
M  V30 4527 C 417.046 -3.05661 1.45908 0
M  V30 4528 C 416.092 -3.33938 2.65307 0
M  V30 4529 S 416.925 -3.22553 4.27457 0
M  V30 4530 C 418.081 -4.63317 4.20818 0
M  V30 4531 H 418.314 -1.6079 2.50068 0
M  V30 4532 H 415.847 -0.732674 1.35909 0
M  V30 4533 H 417.805 -3.8542 1.41286 0
M  V30 4534 H 416.466 -3.09711 0.523248 0
M  V30 4535 H 415.659 -4.34761 2.54948 0
M  V30 4536 H 415.261 -2.61809 2.67081 0
M  V30 4537 H 417.553 -5.54391 3.89431 0
M  V30 4538 H 418.496 -4.78732 5.21748 0
M  V30 4539 H 418.904 -4.41636 3.51593 0
M  V30 4540 N 418.302 -1.35869 -0.798587 0
M  V30 4541 C 419.25 -1.29491 -1.93222 0
M  V30 4542 C 420.244 -0.18836 -1.6835 0
M  V30 4543 O 421.45 -0.354822 -1.76468 0
M  V30 4544 H 417.825 -0.402901 -0.63496 0
M  V30 4545 H 419.796 -2.25247 -1.9572 0
M  V30 4546 C 418.545 -1.09184 -3.30112 0
M  V30 4547 H 417.868 -1.93574 -3.49813 0
M  V30 4548 H 419.308 -1.08766 -4.09812 0
M  V30 4549 C 417.767 0.203959 -3.36282 0
M  V30 4550 O 418.297 1.19699 -3.83451 0
M  V30 4551 N 416.503 0.245488 -2.89561 0
M  V30 4552 H 416.05 -0.563223 -2.51367 0
M  V30 4553 H 416.008 1.11219 -2.94071 0
M  V30 4554 N 419.78 1.02168 -1.19998 0
M  V30 4555 C 421.191 1.57135 -1.00825 0
M  V30 4556 C 421.542 1.91276 0.436818 0
M  V30 4557 O 420.667 1.71679 1.3174 0
M  V30 4558 C 421.262 2.85514 -1.82393 0
M  V30 4559 C 419.821 3.37027 -1.67601 0
M  V30 4560 C 418.968 2.10388 -1.80644 0
M  V30 4561 H 421.919 0.846106 -1.34264 0
M  V30 4562 H 421.94 3.56711 -1.32429 0
M  V30 4563 H 421.452 2.60634 -2.87561 0
M  V30 4564 H 419.553 3.66878 -0.650485 0
M  V30 4565 H 419.666 4.09572 -2.4857 0
M  V30 4566 H 418.03 2.22601 -1.23778 0
M  V30 4567 H 418.813 1.8794 -2.87286 0
M  V30 4568 N 421.258 1.00505 1.21394 0
M  V30 4569 C 422.507 0.683159 1.89778 0
M  V30 4570 C 422.82 -0.789471 1.7896 0
M  V30 4571 O 424.026 -1.22344 2.42372 0
M  V30 4572 C 422.482 1.17146 3.40301 0
M  V30 4573 C 422.09 2.67017 3.5973 0
M  V30 4574 C 423.834 0.924461 4.14311 0
M  V30 4575 C 421.741 3.09387 5.04017 0
M  V30 4576 H 420.671 0.25183 0.710702 0
M  V30 4577 H 423.322 1.21622 1.37406 0
M  V30 4578 H 421.704 0.566451 3.91928 0
M  V30 4579 H 422.878 3.32968 3.18542 0
M  V30 4580 H 421.193 2.89732 2.99073 0
M  V30 4581 H 423.79 1.21658 5.20676 0
M  V30 4582 H 424.133 -0.139286 4.16067 0
M  V30 4583 H 424.666 1.49226 3.6875 0
M  V30 4584 H 421.405 4.14989 5.07409 0
M  V30 4585 H 420.925 2.48149 5.46061 0
M  V30 4586 H 422.604 3.01371 5.72525 0
M  V30 4587 N 422.737 -1.36956 0.779787 0
M  V30 4588 C 423.983 -1.99787 0.348281 0
M  V30 4589 C 424.316 -1.61756 -1.07465 0
M  V30 4590 O 423.591 -0.867639 -1.74075 0
M  V30 4591 C 423.874 -3.56597 0.50104 0
M  V30 4592 C 423.727 -4.04513 1.96697 0
M  V30 4593 C 425.046 -4.40008 -0.0898097 0
M  V30 4594 H 422.165 -0.725796 0.128022 0
M  V30 4595 H 424.807 -1.62514 0.984331 0
M  V30 4596 H 422.957 -3.88479 -0.0404347 0
M  V30 4597 H 424.629 -3.83161 2.56876 0
M  V30 4598 H 422.872 -3.56408 2.47297 0
M  V30 4599 H 423.543 -5.1352 2.02486 0
M  V30 4600 H 426.019 -4.14431 0.372293 0
M  V30 4601 H 424.895 -5.4888 0.0471605 0
M  V30 4602 H 425.156 -4.26035 -1.18096 0
M  V30 4603 N 424.215 -0.530993 -1.48385 0
M  V30 4604 C 425.445 -0.00133928 -2.066 0
M  V30 4605 C 425.853 1.28599 -1.38777 0
M  V30 4606 O 425.196 1.77599 -0.469495 0
M  V30 4607 C 425.258 0.292137 -3.58311 0
M  V30 4608 C 424.922 -0.901864 -4.48013 0
M  V30 4609 C 425.919 -1.80053 -4.87726 0
M  V30 4610 C 423.604 -1.10915 -4.89901 0
M  V30 4611 C 425.598 -2.89038 -5.68098 0
M  V30 4612 C 423.285 -2.20213 -5.70043 0
M  V30 4613 C 424.283 -3.09107 -6.0905 0
M  V30 4614 O 423.971 -4.16514 -6.87583 0
M  V30 4615 H 423.703 -0.0308475 -0.675296 0
M  V30 4616 H 426.257 -0.736335 -1.91748 0
M  V30 4617 H 424.487 1.08112 -3.7128 0
M  V30 4618 H 426.176 0.763994 -3.98645 0
M  V30 4619 H 426.942 -1.65234 -4.55986 0
M  V30 4620 H 422.821 -0.426498 -4.59023 0
M  V30 4621 H 426.365 -3.58451 -5.98464 0
M  V30 4622 H 422.262 -2.35016 -6.01197 0
M  V30 4623 H 423.03 -4.14237 -7.05939 0
M  V30 4624 N 425.693 1.55336 -0.266172 0
M  V30 4625 C 426.656 2.20878 0.612001 0
M  V30 4626 C 427.656 1.18388 1.08816 0
M  V30 4627 O 428.846 1.4335 0.989774 0
M  V30 4628 C 425.978 2.86765 1.84332 0
M  V30 4629 H 427.171 2.99873 0.0398718 0
M  V30 4630 H 424.724 1.56291 -0.0167309 0
M  V30 4631 H 425.459 2.11759 2.45619 0
M  V30 4632 H 425.244 3.61862 1.5099 0
M  V30 4633 H 426.734 3.36867 2.46801 0
M  V30 4634 N 427.171 -0.0066808 1.57599 0
M  V30 4635 C 428.418 -0.69292 1.90276 0
M  V30 4636 C 428.746 -1.74148 0.866192 0
M  V30 4637 O 428.001 -1.95268 -0.129933 0
M  V30 4638 C 428.3 -1.37939 3.29708 0
M  V30 4639 C 427.966 -0.464679 4.48499 0
M  V30 4640 C 426.628 -0.212809 4.80729 0
M  V30 4641 C 428.98 0.16551 5.20937 0
M  V30 4642 C 426.308 0.677653 5.82773 0
M  V30 4643 C 428.66 1.04381 6.23929 0
M  V30 4644 C 427.324 1.30492 6.54621 0
M  V30 4645 H 426.594 -0.253558 0.696268 0
M  V30 4646 H 429.241 0.0474123 1.91441 0
M  V30 4647 H 427.546 -2.1936 3.24636 0
M  V30 4648 H 429.243 -1.9163 3.52249 0
M  V30 4649 H 425.833 -0.671153 4.23313 0
M  V30 4650 H 430.017 -0.0160756 4.96297 0
M  V30 4651 H 425.273 0.88803 6.04917 0
M  V30 4652 H 429.447 1.53851 6.79193 0
M  V30 4653 H 427.074 1.99662 7.33512 0
M  V30 4654 N 428.649 -1.55105 -0.279332 0
M  V30 4655 C 430.065 -1.46803 -0.626187 0
M  V30 4656 C 430.265 -0.676939 -1.89789 0
M  V30 4657 O 429.321 -0.19326 -2.51759 0
M  V30 4658 C 430.634 -2.90962 -0.759034 0
M  V30 4659 C 432.182 -3.01138 -0.853504 0
M  V30 4660 C 432.657 -4.46539 -1.01818 0
M  V30 4661 N 434.148 -4.50341 -1.08386 0
M  V30 4662 C 434.883 -5.60053 -1.22996 0
M  V30 4663 N 434.379 -6.79645 -1.34366 0
M  V30 4664 N 436.172 -5.47783 -1.26056 0
M  V30 4665 H 428.323 -2.04996 0.555921 0
M  V30 4666 H 430.586 -0.929325 0.187239 0
M  V30 4667 H 430.292 -3.51544 0.104852 0
M  V30 4668 H 430.166 -3.39619 -1.64131 0
M  V30 4669 H 432.553 -2.40658 -1.70786 0
M  V30 4670 H 432.634 -2.55745 0.0532466 0
M  V30 4671 H 432.278 -5.0762 -0.168504 0
M  V30 4672 H 432.208 -4.89583 -1.93948 0
M  V30 4673 H 434.699 -3.64191 -1.00864 0
M  V30 4674 H 435.012 -7.59012 -1.4533 0
M  V30 4675 H 433.357 -6.82469 -1.31382 0
M  V30 4676 H 436.548 -4.53294 -1.168 0
M  V30 4677 H 436.721 -6.33331 -1.37098 0
M  V30 4678 N 430.127 0.543554 -1.4793 0
M  V30 4679 C 431.376 1.29649 -1.54512 0
M  V30 4680 C 431.689 1.94382 -0.217973 0
M  V30 4681 O 432.895 2.71017 -0.161908 0
M  V30 4682 C 431.351 2.35175 -2.72435 0
M  V30 4683 C 430.959 1.76572 -4.11736 0
M  V30 4684 C 432.703 3.11564 -2.8832 0
M  V30 4685 C 430.61 2.79958 -5.20939 0
M  V30 4686 H 429.54 0.487541 -0.57517 0
M  V30 4687 H 432.191 0.575708 -1.74235 0
M  V30 4688 H 430.573 3.10229 -2.46118 0
M  V30 4689 H 431.747 1.07799 -4.48013 0
M  V30 4690 H 430.062 1.12722 -4.00852 0
M  V30 4691 H 432.659 3.88794 -3.67074 0
M  V30 4692 H 433.002 3.66594 -1.97268 0
M  V30 4693 H 433.535 2.43623 -3.14472 0
M  V30 4694 H 430.274 2.29766 -6.13912 0
M  V30 4695 H 429.794 3.47101 -4.89164 0
M  V30 4696 H 431.473 3.43198 -5.48474 0
M  V30 4697 N 431.605 1.3629 0.791371 0
M  V30 4698 C 432.537 1.26321 1.91248 0
M  V30 4699 C 433.55 0.18313 1.61767 0
M  V30 4700 O 434.739 0.437682 1.73051 0
M  V30 4701 C 431.839 0.925901 3.26007 0
M  V30 4702 C 431.012 2.10746 3.83281 0
M  V30 4703 C 430.071 1.74352 4.96475 0
M  V30 4704 O 429.097 2.46416 5.13096 0
M  V30 4705 N 430.299 0.676058 5.7655 0
M  V30 4706 H 433.064 2.22915 2.00323 0
M  V30 4707 H 430.625 1.29659 0.969546 0
M  V30 4708 H 432.617 0.663636 3.99222 0
M  V30 4709 H 431.187 0.0491581 3.12561 0
M  V30 4710 H 430.407 2.53264 3.02077 0
M  V30 4711 H 431.695 2.8969 4.18279 0
M  V30 4712 H 431.093 0.0776467 5.65647 0
M  V30 4713 H 429.65 0.473612 6.50077 0
M  V30 4714 N 433.083 -1.0153 1.20538 0
M  V30 4715 C 434.03 -2.10098 0.955383 0
M  V30 4716 C 435 -1.65702 -0.114878 0
M  V30 4717 O 436.185 -1.90776 0.0301118 0
M  V30 4718 C 433.325 -3.41236 0.514969 0
M  V30 4719 C 432.438 -3.99102 1.65353 0
M  V30 4720 C 431.573 -5.18306 1.16329 0
M  V30 4721 C 430.612 -5.68258 2.27485 0
M  V30 4722 N 429.749 -6.78722 1.7967 0
M  V30 4723 H 434.589 -2.30818 1.88486 0
M  V30 4724 H 432.126 -1.13189 0.939499 0
M  V30 4725 H 434.084 -4.16504 0.240935 0
M  V30 4726 H 432.714 -3.20585 -0.377512 0
M  V30 4727 H 431.766 -3.20918 2.04245 0
M  V30 4728 H 433.078 -4.32177 2.49047 0
M  V30 4729 H 432.232 -6.00782 0.845302 0
M  V30 4730 H 430.971 -4.86799 0.296254 0
M  V30 4731 H 429.976 -4.84385 2.60099 0
M  V30 4732 H 431.201 -6.01798 3.14667 0
M  V30 4733 H 429.147 -6.49042 0.95295 0
M  V30 4734 H 429.064 -7.10996 2.56944 0
M  V30 4735 H 430.332 -7.64759 1.50875 0
M  V30 4736 N 434.561 -1.01147 -1.20859 0
M  V30 4737 C 435.808 -0.697865 -1.90095 0
M  V30 4738 C 436.136 0.772014 -1.78522 0
M  V30 4739 O 435.391 1.57595 -1.16027 0
M  V30 4740 C 435.69 -1.0727 -3.40922 0
M  V30 4741 C 435.356 -2.53792 -3.72693 0
M  V30 4742 C 434.018 -2.93829 -3.81075 0
M  V30 4743 C 436.37 -3.48674 -3.87397 0
M  V30 4744 C 433.698 -4.27696 -4.01613 0
M  V30 4745 C 436.05 -4.82223 -4.09444 0
M  V30 4746 C 434.714 -5.21973 -4.16054 0
M  V30 4747 H 433.984 -0.255367 -0.695607 0
M  V30 4748 H 436.631 -1.27111 -1.43231 0
M  V30 4749 H 434.936 -0.417799 -3.89566 0
M  V30 4750 H 436.633 -0.807818 -3.92779 0
M  V30 4751 H 433.223 -2.21768 -3.66765 0
M  V30 4752 H 437.407 -3.18904 -3.80281 0
M  V30 4753 H 432.663 -4.58055 -4.04964 0
M  V30 4754 H 436.837 -5.55672 -4.19763 0
M  V30 4755 H 434.464 -6.25717 -4.31721 0
M  V30 4756 N 436.039 1.36541 -0.78704 0
M  V30 4757 C 437.455 1.52571 -0.46844 0
M  V30 4758 C 437.655 1.7415 1.01361 0
M  V30 4759 O 436.711 1.77163 1.79915 0
M  V30 4760 C 438.024 2.71299 -1.29682 0
M  V30 4761 C 439.572 2.85169 -1.29027 0
M  V30 4762 C 440.047 4.06898 -2.10233 0
M  V30 4763 N 441.538 4.1404 -2.07666 0
M  V30 4764 C 442.273 5.07301 -2.67271 0
M  V30 4765 N 441.769 6.06021 -3.35724 0
M  V30 4766 N 443.562 4.99898 -2.57018 0
M  V30 4767 H 435.713 1.20788 -1.74711 0
M  V30 4768 H 437.976 0.589364 -0.742532 0
M  V30 4769 H 437.682 2.61868 -2.34773 0
M  V30 4770 H 437.556 3.6539 -0.936479 0
M  V30 4771 H 439.943 2.94062 -0.247284 0
M  V30 4772 H 440.024 1.91992 -1.69035 0
M  V30 4773 H 439.668 3.98766 -3.1456 0
M  V30 4774 H 439.598 4.99218 -1.67597 0
M  V30 4775 H 442.089 3.43357 -1.57843 0
M  V30 4776 H 442.402 6.73741 -3.78541 0
M  V30 4777 H 440.747 6.06253 -3.39826 0
M  V30 4778 H 443.938 4.21724 -2.03142 0
M  V30 4779 H 444.111 5.72392 -3.03761 0
M  V30 4780 N 437.518 0.538854 1.48102 0
M  V30 4781 C 438.764 0.00801365 2.02798 0
M  V30 4782 C 439.097 -1.3309 1.41424 0
M  V30 4783 O 438.372 -1.86169 0.563158 0
M  V30 4784 C 438.655 -0.104589 3.59948 0
M  V30 4785 C 438.508 1.26012 4.31788 0
M  V30 4786 C 439.827 -0.827055 4.32259 0
M  V30 4787 H 436.946 0.00438624 0.736987 0
M  V30 4788 H 439.588 0.6976 1.7673 0
M  V30 4789 H 437.738 -0.691893 3.82289 0
M  V30 4790 H 439.41 1.88922 4.2084 0
M  V30 4791 H 437.653 1.83968 3.92859 0
M  V30 4792 H 438.324 1.13424 5.40221 0
M  V30 4793 H 440.8 -0.328578 4.14801 0
M  V30 4794 H 439.676 -0.87476 5.41885 0
M  V30 4795 H 439.937 -1.87927 4.0017 0
M  V30 4796 N 438.996 -1.55193 0.274407 0
M  V30 4797 C 440.224 -2.03987 -0.345943 0
M  V30 4798 C 440.639 -1.15279 -1.4952 0
M  V30 4799 O 439.996 -0.172759 -1.8168 0
M  V30 4800 C 440.047 -3.51898 -0.827631 0
M  V30 4801 O 439.768 -4.37231 0.275855 0
M  V30 4802 C 441.269 -4.16577 -1.51587 0
M  V30 4803 H 438.489 -0.666335 -0.0789892 0
M  V30 4804 H 441.033 -2.00423 0.406294 0
M  V30 4805 H 439.188 -3.55909 -1.52996 0
M  V30 4806 H 439.602 -5.24415 -0.0943638 0
M  V30 4807 H 441.076 -5.21678 -1.80433 0
M  V30 4808 H 441.553 -3.64707 -2.44716 0
M  V30 4809 H 442.159 -4.16568 -0.857409 0
M  V30 4810 N 440.474 -0.00167713 -1.576 0
M  V30 4811 C 441.721 0.68282 -1.90641 0
M  V30 4812 C 442.049 1.73686 -0.875415 0
M  V30 4813 O 441.304 1.95334 0.119575 0
M  V30 4814 C 441.603 1.36189 -3.30435 0
M  V30 4815 C 441.269 0.440887 -4.48739 0
M  V30 4816 C 439.931 0.187312 -4.80835 0
M  V30 4817 C 442.283 -0.193134 -5.20842 0
M  V30 4818 C 439.611 -0.70855 -5.82406 0
M  V30 4819 C 441.963 -1.07688 -6.23367 0
M  V30 4820 C 440.627 -1.33962 -6.53919 0
M  V30 4821 H 439.897 0.249862 -0.697603 0
M  V30 4822 H 442.544 -0.0575642 -1.91413 0
M  V30 4823 H 440.849 2.17636 -3.25794 0
M  V30 4824 H 442.546 1.89759 -3.5326 0
M  V30 4825 H 439.136 0.648694 -4.23663 0
M  V30 4826 H 443.32 -0.0102445 -4.96299 0
M  V30 4827 H 438.576 -0.920097 -6.04437 0
M  V30 4828 H 442.75 -1.57451 -6.78367 0
M  V30 4829 H 440.377 -2.03549 -7.32442 0
M  V30 4830 N 441.952 1.55251 0.271103 0
M  V30 4831 C 442.882 1.9127 1.33933 0
M  V30 4832 C 443.863 0.77478 1.5143 0
M  V30 4833 O 445.048 1.03307 1.64442 0
M  V30 4834 C 442.178 2.18627 2.69851 0
M  V30 4835 C 441.132 3.34442 2.67081 0
M  V30 4836 C 440.458 3.47284 4.06569 0
M  V30 4837 C 441.758 4.70784 2.26185 0
M  V30 4838 H 443.452 2.80744 1.04035 0
M  V30 4839 H 440.998 1.35077 0.499017 0
M  V30 4840 H 442.951 2.42413 3.44694 0
M  V30 4841 H 441.675 1.25955 3.01335 0
M  V30 4842 H 440.334 3.10627 1.94695 0
M  V30 4843 H 439.982 2.52074 4.35279 0
M  V30 4844 H 439.682 4.25152 4.0561 0
M  V30 4845 H 441.206 3.73363 4.83148 0
M  V30 4846 H 442.62 4.94102 2.90751 0
M  V30 4847 H 441.017 5.51582 2.36384 0
M  V30 4848 H 442.087 4.69478 1.21319 0
M  V30 4849 N 443.43 -0.535701 1.48216 0
M  V30 4850 C 444.377 -1.64083 1.62312 0
M  V30 4851 C 445.347 -1.59448 0.465365 0
M  V30 4852 O 446.532 -1.77959 0.688135 0
M  V30 4853 C 443.672 -3.0236 1.66349 0
M  V30 4854 C 442.785 -3.17273 2.93193 0
M  V30 4855 C 441.92 -4.46075 2.88427 0
M  V30 4856 C 440.959 -4.54496 4.1 0
M  V30 4857 N 440.096 -5.7468 4.03345 0
M  V30 4858 H 444.936 -1.51374 2.5669 0
M  V30 4859 H 442.473 -0.737059 1.27302 0
M  V30 4860 H 444.431 -3.82461 1.66672 0
M  V30 4861 H 443.061 -3.13854 0.754672 0
M  V30 4862 H 442.113 -2.30462 3.02641 0
M  V30 4863 H 443.425 -3.19357 3.83162 0
M  V30 4864 H 442.579 -5.3446 2.87119 0
M  V30 4865 H 441.318 -4.46504 1.96177 0
M  V30 4866 H 440.323 -3.64519 4.11589 0
M  V30 4867 H 441.548 -4.5581 5.03402 0
M  V30 4868 H 439.494 -5.76017 3.13912 0
M  V30 4869 H 439.411 -5.78234 4.87013 0
M  V30 4870 H 440.679 -6.65367 4.06087 0
M  V30 4871 N 444.908 -1.36708 -0.784132 0
M  V30 4872 C 446.157 -1.30559 -1.53744 0
M  V30 4873 C 446.47 0.111374 -1.95283 0
M  V30 4874 O 447.676 0.29527 -2.6989 0
M  V30 4875 C 446.132 -2.29098 -2.77565 0
M  V30 4876 C 445.74 -3.76258 -2.43174 0
M  V30 4877 C 447.484 -2.31936 -3.55536 0
M  V30 4878 C 445.391 -4.6656 -3.63422 0
M  V30 4879 H 444.321 -0.48518 -0.577162 0
M  V30 4880 H 446.972 -1.62101 -0.859981 0
M  V30 4881 H 445.354 -1.90557 -3.47137 0
M  V30 4882 H 446.528 -4.23565 -1.81465 0
M  V30 4883 H 444.843 -3.76246 -1.78403 0
M  V30 4884 H 447.44 -2.9661 -4.44889 0
M  V30 4885 H 447.783 -1.3294 -3.94503 0
M  V30 4886 H 448.316 -2.6912 -2.92949 0
M  V30 4887 H 445.055 -5.66638 -3.29547 0
M  V30 4888 H 444.575 -4.23966 -4.24279 0
M  V30 4889 H 446.254 -4.8309 -4.30387 0
M  V30 4890 N 446.386 1.0089 -1.21074 0
M  V30 4891 C 447.632 1.7497 -1.03717 0
M  V30 4892 C 447.987 1.8764 0.425344 0
M  V30 4893 O 447.28 1.39679 1.3115 0
M  V30 4894 C 447.474 3.16335 -1.66334 0
M  V30 4895 C 447.303 3.17449 -3.18522 0
M  V30 4896 C 446.073 3.2425 -3.87543 0
M  V30 4897 C 448.271 3.02877 -4.15656 0
M  V30 4898 N 446.253 3.14949 -5.26954 0
M  V30 4899 C 447.624 3.0143 -5.41793 0
M  V30 4900 C 449.679 2.8715 -4.06755 0
M  V30 4901 C 448.382 2.85869 -6.60054 0
M  V30 4902 C 450.408 2.72944 -5.24648 0
M  V30 4903 C 449.77 2.72171 -6.49694 0
M  V30 4904 H 445.869 0.650627 -0.43383 0
M  V30 4905 H 448.453 1.19944 -1.53367 0
M  V30 4906 H 446.624 3.69638 -1.19256 0
M  V30 4907 H 448.356 3.78888 -1.42219 0
M  V30 4908 H 445.111 3.31288 -3.38446 0
M  V30 4909 H 445.535 3.13651 -5.9996 0
M  V30 4910 H 450.177 2.86557 -3.10878 0
M  V30 4911 H 447.895 2.8521 -7.56096 0
M  V30 4912 H 451.481 2.61782 -5.19578 0
M  V30 4913 H 450.361 2.61307 -7.39384 0
M  V30 4914 N 447.864 1.01787 1.20321 0
M  V30 4915 C 448.812 0.58254 2.25187 0
M  V30 4916 C 449.806 -0.379359 1.65098 0
M  V30 4917 O 451.012 -0.249142 1.78267 0
M  V30 4918 H 447.387 0.170078 0.732514 0
M  V30 4919 H 449.358 1.47788 2.59232 0
M  V30 4920 C 448.107 -0.0620885 3.47645 0
M  V30 4921 H 447.43 0.669069 3.94162 0
M  V30 4922 H 448.87 -0.329784 4.22716 0
M  V30 4923 C 447.329 -1.3053 3.10586 0
M  V30 4924 O 447.859 -2.39848 3.22236 0
M  V30 4925 N 446.065 -1.18988 2.65123 0
M  V30 4926 H 445.612 -0.300341 2.55843 0
M  V30 4927 H 445.57 -2.02267 2.40698 0
M  V30 4928 N 449.342 -1.36122 0.79427 0
M  V30 4929 C 450.619 -1.93398 0.292685 0
M  V30 4930 C 450.999 -1.72567 -1.21589 0
M  V30 4931 O 450.347 -1.08745 -2.00965 0
M  V30 4932 C 450.557 -3.42099 0.690614 0
M  V30 4933 C 451.905 -4.19231 0.673105 0
M  V30 4934 O 452.929 -3.50559 0.631389 0
M  V30 4935 O 451.788 -5.41732 0.720362 0
M  V30 4936 H 448.882 -0.823712 0.0736693 0
M  V30 4937 H 451.428 -1.45273 0.87714 0
M  V30 4938 H 450.2 -3.50938 1.73085 0
M  V30 4939 H 449.823 -3.97519 0.0803036 0
M  V30 4940 N 450.82 -0.546701 -1.47814 0
M  V30 4941 C 451.77 0.227042 -2.26867 0
M  V30 4942 C 452.754 0.894844 -1.33721 0
M  V30 4943 O 453.946 0.794887 -1.58147 0
M  V30 4944 C 451.075 1.26299 -3.19223 0
M  V30 4945 C 450.161 0.59913 -4.19847 0
M  V30 4946 N 450.552 -0.324777 -5.04756 0
M  V30 4947 C 448.85 0.854331 -4.37741 0
M  V30 4948 C 449.551 -0.709386 -5.77358 0
M  V30 4949 N 448.527 -0.0666153 -5.43559 0
M  V30 4950 H 452.329 -0.483476 -2.89896 0
M  V30 4951 H 449.843 -0.365893 -1.58224 0
M  V30 4952 H 451.84 1.83116 -3.74532 0
M  V30 4953 H 450.5 1.97471 -2.57751 0
M  V30 4954 H 451.511 -0.698351 -5.1317 0
M  V30 4955 H 448.188 1.55536 -3.87447 0
M  V30 4956 H 449.578 -1.46796 -6.55668 0
M  V30 4957 N 452.299 1.55045 -0.282633 0
M  V30 4958 C 453.546 1.9976 0.33199 0
M  V30 4959 C 453.874 1.17105 1.55295 0
M  V30 4960 O 453.129 0.230599 1.94337 0
M  V30 4961 C 453.428 3.49422 0.750938 0
M  V30 4962 C 453.094 4.4941 -0.366228 0
M  V30 4963 C 451.756 4.76471 -0.672964 0
M  V30 4964 C 454.108 5.09054 -1.11864 0
M  V30 4965 C 451.436 5.60442 -1.73556 0
M  V30 4966 C 453.788 5.9418 -2.17102 0
M  V30 4967 C 452.452 6.19558 -2.48402 0
M  V30 4968 H 451.722 0.730974 0.121484 0
M  V30 4969 H 454.369 1.8732 -0.39791 0
M  V30 4970 H 452.674 3.59377 1.56063 0
M  V30 4971 H 454.371 3.81432 1.23736 0
M  V30 4972 H 450.961 4.2844 -0.117041 0
M  V30 4973 H 455.145 4.88165 -0.894925 0
M  V30 4974 H 450.401 5.78349 -1.983 0
M  V30 4975 H 454.575 6.39427 -2.75873 0
M  V30 4976 H 452.202 6.84417 -3.30874 0
M  V30 4977 N 453.777 0.010035 1.57597 0
M  V30 4978 C 455.193 -0.346164 1.55801 0
M  V30 4979 C 455.393 -1.74144 1.01371 0
M  V30 4980 O 454.449 -2.43938 0.651968 0
M  V30 4981 C 455.762 -0.212216 2.9995 0
M  V30 4982 C 457.31 -0.286409 3.11687 0
M  V30 4983 C 457.785 -0.18147 4.5764 0
M  V30 4984 N 459.276 -0.239056 4.62583 0
M  V30 4985 C 460.011 -0.181351 5.73113 0
M  V30 4986 N 459.507 -0.073661 6.92761 0
M  V30 4987 N 461.3 -0.233949 5.61613 0
M  V30 4988 H 453.451 0.922657 1.91313 0
M  V30 4989 H 455.714 0.354595 0.879185 0
M  V30 4990 H 455.42 0.748169 3.4365 0
M  V30 4991 H 455.294 -0.990224 3.6397 0
M  V30 4992 H 457.681 -1.23724 2.67911 0
M  V30 4993 H 457.762 0.521645 2.50425 0
M  V30 4994 H 457.406 0.765863 5.02093 0
M  V30 4995 H 457.336 -1.00814 5.1686 0
M  V30 4996 H 459.827 -0.32321 3.76515 0
M  V30 4997 H 460.14 -0.0358003 7.72792 0
M  V30 4998 H 458.485 -0.0391461 6.94989 0
M  V30 4999 H 461.676 -0.316347 4.6703 0
M  V30 5000 H 461.849 -0.185514 6.47734 0
M  V30 5001 N 455.255 -1.55392 -0.262866 0
M  V30 5002 C 456.495 -1.78231 -1.00064 0
M  V30 5003 C 456.859 -0.576966 -1.83126 0
M  V30 5004 O 458.06 -0.683809 -2.59957 0
M  V30 5005 C 456.331 -3.05701 -1.85153 0
M  V30 5006 S 457.89 -3.49699 -2.65058 0
M  V30 5007 H 454.708 -0.626138 -0.336856 0
M  V30 5008 H 457.31 -1.93626 -0.27005 0
M  V30 5009 H 456.014 -3.91511 -1.23074 0
M  V30 5010 H 455.545 -2.93 -2.62515 0
M  V30 5011 H 457.56 -3.09772 -3.87629 0
M  V30 5012 N 456.733 0.527833 -1.48498 0
M  V30 5013 C 457.665 1.6482 -1.5927 0
M  V30 5014 C 458.678 1.55659 -0.476869 0
M  V30 5015 O 459.867 1.62081 -0.747806 0
M  V30 5016 C 456.967 3.0348 -1.50842 0
M  V30 5017 C 456.14 3.381 -2.77502 0
M  V30 5018 C 455.199 4.5605 -2.62497 0
M  V30 5019 O 454.225 4.59165 -3.36387 0
M  V30 5020 N 455.427 5.54353 -1.72257 0
M  V30 5021 H 458.192 1.56015 -2.55889 0
M  V30 5022 H 455.753 0.715152 -1.45249 0
M  V30 5023 H 457.745 3.80264 -1.38496 0
M  V30 5024 H 456.315 3.06352 -0.621887 0
M  V30 5025 H 455.535 2.50473 -3.04396 0
M  V30 5026 H 456.823 3.58017 -3.61527 0
M  V30 5027 H 456.221 5.54617 -1.11431 0
M  V30 5028 H 454.778 6.30347 -1.65849 0
M  V30 5029 N 458.211 1.37122 0.776871 0
M  V30 5030 C 459.622 1.28667 1.35284 0
M  V30 5031 C 459.973 -0.0680035 1.96082 0
M  V30 5032 O 459.098 -0.969743 1.93455 0
M  V30 5033 C 459.693 2.32997 2.45963 0
M  V30 5034 C 458.252 2.28191 2.99342 0
M  V30 5035 C 457.399 2.17101 1.72517 0
M  V30 5036 H 460.35 1.47819 0.577527 0
M  V30 5037 H 460.371 1.97366 3.2531 0
M  V30 5038 H 459.883 3.3158 2.01684 0
M  V30 5039 H 457.984 1.33115 3.4801 0
M  V30 5040 H 458.097 3.21397 3.55304 0
M  V30 5041 H 456.461 1.63562 1.95242 0
M  V30 5042 H 457.244 3.17591 1.30348 0
M  V30 5043 N 459.689 -1.00246 1.21608 0
M  V30 5044 C 460.652 -2.07233 0.979133 0
M  V30 5045 C 461.652 -1.6072 -0.0508219 0
M  V30 5046 O 462.842 -1.73196 0.186712 0
M  V30 5047 C 459.974 -3.37546 0.477016 0
M  V30 5048 H 461.167 -2.29687 1.92831 0
M  V30 5049 H 458.72 -1.17261 1.03342 0
M  V30 5050 H 459.455 -3.20773 -0.476966 0
M  V30 5051 H 459.24 -3.72638 1.21997 0
M  V30 5052 H 460.73 -4.16285 0.331181 0
M  V30 5053 N 461.167 -1.02423 -1.1978 0
M  V30 5054 C 462.578 -0.748389 -1.71044 0
M  V30 5055 C 462.929 0.732398 -1.82017 0
M  V30 5056 O 462.054 1.57116 -1.48807 0
M  V30 5057 C 462.649 -1.35187 -3.1066 0
M  V30 5058 C 461.208 -1.12472 -3.59203 0
M  V30 5059 C 460.355 -1.45283 -2.36195 0
M  V30 5060 H 463.306 -1.19275 -1.04686 0
M  V30 5061 H 463.327 -0.746408 -3.73107 0
M  V30 5062 H 462.839 -2.4296 -3.02642 0
M  V30 5063 H 460.94 -0.0649983 -3.72543 0
M  V30 5064 H 461.053 -1.81016 -4.43588 0
M  V30 5065 H 459.417 -0.872034 -2.39307 0
M  V30 5066 H 460.2 -2.54129 -2.30811 0
M  V30 5067 N 462.645 1.35699 -0.801477 0
M  V30 5068 C 464.056 1.81415 -0.441073 0
M  V30 5069 C 464.407 1.66595 1.03636 0
M  V30 5070 O 463.532 1.19369 1.80499 0
M  V30 5071 C 464.127 3.29369 -0.793819 0
M  V30 5072 C 462.686 3.73248 -0.486083 0
M  V30 5073 C 461.833 2.57775 -1.02213 0
M  V30 5074 H 464.784 1.23749 -0.993572 0
M  V30 5075 H 464.805 3.80395 -0.0894158 0
M  V30 5076 H 464.317 3.40123 -1.86917 0
M  V30 5077 H 462.418 3.68046 0.580735 0
M  V30 5078 H 462.531 4.68222 -1.01513 0
M  V30 5079 H 460.895 2.50788 -0.444712 0
M  V30 5080 H 461.678 2.71309 -2.10348 0
M  V30 5081 N 464.123 0.554532 1.47522 0
M  V30 5082 C 465.372 0.0273458 2.01681 0
M  V30 5083 C 465.685 -1.32962 1.43459 0
M  V30 5084 O 466.891 -1.94657 1.89265 0
M  V30 5085 C 465.347 -0.00159057 3.599 0
M  V30 5086 C 464.955 1.35197 4.27113 0
M  V30 5087 C 466.699 -0.476311 4.21819 0
M  V30 5088 C 464.606 1.28229 5.77331 0
M  V30 5089 H 463.536 0.00645269 0.753972 0
M  V30 5090 H 466.187 0.701985 1.69542 0
M  V30 5091 H 464.569 -0.741821 3.8899 0
M  V30 5092 H 465.743 2.1097 4.09668 0
M  V30 5093 H 464.058 1.76441 3.77171 0
M  V30 5094 H 466.655 -0.5468 5.31897 0
M  V30 5095 H 466.998 -1.4877 3.8881 0
M  V30 5096 H 467.531 0.20898 3.97251 0
M  V30 5097 H 464.27 2.26959 6.14955 0
M  V30 5098 H 463.79 0.566314 5.97121 0
M  V30 5099 H 465.469 0.983226 6.39485 0
M  V30 5100 N 465.601 -1.54893 0.290851 0
M  V30 5101 C 466.878 -1.91991 -0.373989 0
M  V30 5102 C 467.258 -1.21694 -1.72493 0
M  V30 5103 O 466.606 -0.34917 -2.25816 0
M  V30 5104 C 466.816 -3.45419 -0.498703 0
M  V30 5105 C 468.164 -4.1748 -0.774298 0
M  V30 5106 O 469.188 -3.51398 -0.582908 0
M  V30 5107 O 468.047 -5.3445 -1.14129 0
M  V30 5108 H 465.141 -0.800593 -0.207315 0
M  V30 5109 H 467.687 -1.66297 0.338164 0
M  V30 5110 H 466.459 -3.88688 0.451392 0
M  V30 5111 H 466.082 -3.77117 -1.25972 0
M  V30 5112 N 467.08 -0.0183926 -1.57589 0
M  V30 5113 C 467.99 0.982943 -2.13015 0
M  V30 5114 C 469.006 1.36443 -1.07979 0
M  V30 5115 O 470.182 1.44802 -1.3998 0
M  V30 5116 C 467.247 2.25024 -2.63752 0
M  V30 5117 C 466.308 1.93018 -3.83461 0
M  V30 5118 C 465.541 3.13706 -4.31769 0
M  V30 5119 O 465.764 4.2601 -3.79305 0
M  V30 5120 O 464.698 2.96629 -5.23732 0
M  V30 5121 H 468.524 0.541709 -2.9883 0
M  V30 5122 H 466.109 0.201565 -1.48034 0
M  V30 5123 H 467.991 2.99441 -2.96502 0
M  V30 5124 H 466.666 2.68349 -1.81026 0
M  V30 5125 H 465.573 1.16019 -3.55655 0
M  V30 5126 H 466.906 1.54516 -4.67317 0
M  V30 5127 N 468.558 1.5553 0.254621 0
M  V30 5128 C 469.835 1.6774 1.00611 0
M  V30 5129 C 470.215 0.555993 2.03647 0
M  V30 5130 O 469.563 -0.441583 2.24193 0
M  V30 5131 C 469.773 3.07725 1.6464 0
M  V30 5132 C 471.121 3.66074 2.15116 0
M  V30 5133 O 472.145 3.10476 1.74595 0
M  V30 5134 O 471.004 4.63526 2.89493 0
M  V30 5135 H 468.098 0.681958 0.467828 0
M  V30 5136 H 470.644 1.67863 0.24902 0
M  V30 5137 H 469.416 3.80792 0.900734 0
M  V30 5138 H 469.039 3.1158 2.46989 0
M  V30 5139 N 470.036 -0.519951 1.48776 0
M  V30 5140 C 470.966 -1.63253 1.66945 0
M  V30 5141 C 471.947 -1.62014 0.518224 0
M  V30 5142 O 473.132 -1.79053 0.751919 0
M  V30 5143 C 470.262 -3.0181 1.71836 0
M  V30 5144 C 469.216 -3.17911 2.8656 0
M  V30 5145 C 468.542 -4.5763 2.76548 0
M  V30 5146 C 469.842 -2.99729 4.27738 0
M  V30 5147 H 471.536 -1.48302 2.6009 0
M  V30 5148 H 469.082 -0.712026 1.25165 0
M  V30 5149 H 471.035 -3.79525 1.83135 0
M  V30 5150 H 469.759 -3.17806 0.752775 0
M  V30 5151 H 468.418 -2.42616 2.74833 0
M  V30 5152 H 468.066 -4.70476 1.77937 0
M  V30 5153 H 467.766 -4.69346 3.53536 0
M  V30 5154 H 469.29 -5.37431 2.89828 0
M  V30 5155 H 470.704 -3.67228 4.40246 0
M  V30 5156 H 469.101 -3.22932 5.05801 0
M  V30 5157 H 470.171 -1.96047 4.43502 0
M  V30 5158 N 471.514 -1.37532 -0.769588 0
M  V30 5159 C 472.925 -1.29382 -1.346 0
M  V30 5160 C 473.276 0.0576039 -1.96115 0
M  V30 5161 O 472.401 0.95947 -1.93967 0
M  V30 5162 C 472.996 -2.34298 -2.44724 0
M  V30 5163 C 471.555 -2.29776 -2.98128 0
M  V30 5164 C 470.702 -2.18013 -1.71364 0
M  V30 5165 H 473.653 -1.48123 -0.56968 0
M  V30 5166 H 473.674 -1.99089 -3.24259 0
M  V30 5167 H 473.186 -3.32645 -1.99922 0
M  V30 5168 H 471.287 -1.34959 -3.47299 0
M  V30 5169 H 471.4 -3.23276 -3.53595 0
M  V30 5170 H 469.764 -1.64595 -1.94372 0
M  V30 5171 H 470.547 -3.18278 -1.28662 0
M  V30 5172 N 472.992 0.995999 -1.22138 0
M  V30 5173 C 473.902 2.11985 -1.00496 0
M  V30 5174 C 474.918 1.7394 0.0457701 0
M  V30 5175 O 476.094 2.00868 -0.146273 0
M  V30 5176 C 473.159 3.41779 -0.582086 0
M  V30 5177 C 472.22 3.93943 -1.70608 0
M  V30 5178 C 471.453 5.17542 -1.30328 0
M  V30 5179 O 471.676 5.70114 -0.180743 0
M  V30 5180 O 470.61 5.63382 -2.11861 0
M  V30 5181 H 474.436 2.33123 -1.94647 0
M  V30 5182 H 472.021 1.10358 -1.00705 0
M  V30 5183 H 473.903 4.1989 -0.356467 0
M  V30 5184 H 472.578 3.22007 0.330592 0
M  V30 5185 H 471.485 3.17019 -1.98619 0
M  V30 5186 H 472.818 4.18141 -2.59651 0
M  V30 5187 N 474.47 1.03057 1.19235 0
M  V30 5188 C 475.38 0.622922 2.26179 0
M  V30 5189 C 476.396 -0.346113 1.70523 0
M  V30 5190 O 477.572 -0.203572 2.00369 0
M  V30 5191 C 474.637 -0.0182063 3.46695 0
M  V30 5192 C 473.698 0.998546 4.17526 0
M  V30 5193 C 472.931 0.387917 5.32288 0
M  V30 5194 O 473.154 -0.808668 5.64639 0
M  V30 5195 O 472.088 1.1116 5.91546 0
M  V30 5196 H 475.914 1.51363 2.63292 0
M  V30 5197 H 473.499 0.800856 1.26122 0
M  V30 5198 H 475.381 -0.375606 4.19723 0
M  V30 5199 H 474.056 -0.882895 3.11427 0
M  V30 5200 H 472.963 1.40756 3.4661 0
M  V30 5201 H 474.296 1.83366 4.56769 0
M  V30 5202 N 475.948 -1.35272 0.808662 0
M  V30 5203 C 477.364 -1.51806 0.492653 0
M  V30 5204 C 477.564 -1.7574 -0.985778 0
M  V30 5205 O 476.62 -1.80003 -1.77074 0
M  V30 5206 C 477.933 -2.69202 1.33981 0
M  V30 5207 C 479.481 -2.8308 1.33547 0
M  V30 5208 C 479.956 -4.03502 2.16679 0
M  V30 5209 N 481.447 -4.10684 2.14227 0
M  V30 5210 C 482.182 -5.02984 2.75308 0
M  V30 5211 N 481.678 -6.00603 3.45323 0
M  V30 5212 N 483.471 -4.95746 2.64938 0
M  V30 5213 H 475.622 -1.17993 1.76611 0
M  V30 5214 H 477.885 -0.577476 0.751814 0
M  V30 5215 H 477.591 -2.581 2.38909 0
M  V30 5216 H 477.465 -3.63854 0.994491 0
M  V30 5217 H 479.852 -2.93631 0.294036 0
M  V30 5218 H 479.933 -1.89278 1.72068 0
M  V30 5219 H 479.577 -3.93711 3.20864 0
M  V30 5220 H 479.507 -4.96489 1.75517 0
M  V30 5221 H 481.998 -3.40802 1.63285 0
M  V30 5222 H 482.311 -6.67633 3.89212 0
M  V30 5223 H 480.656 -6.0077 3.49428 0
M  V30 5224 H 483.847 -4.18439 2.09825 0
M  V30 5225 H 484.02 -5.67487 3.12829 0
M  V30 5226 N 477.426 -0.562348 -1.47226 0
M  V30 5227 C 478.837 -0.130325 -1.86245 0
M  V30 5228 C 479.188 1.30128 -1.46838 0
M  V30 5229 O 478.313 1.97974 -0.873805 0
M  V30 5230 C 478.908 -0.229738 -3.3802 0
M  V30 5231 C 477.467 0.14728 -3.76112 0
M  V30 5232 C 476.614 -0.574971 -2.71274 0
M  V30 5233 H 479.565 -0.771773 -1.3867 0
M  V30 5234 H 479.586 0.550316 -3.76499 0
M  V30 5235 H 479.098 -1.27178 -3.66671 0
M  V30 5236 H 477.199 1.19023 -3.53078 0
M  V30 5237 H 477.312 -0.214858 -4.78618 0
M  V30 5238 H 475.676 -0.0174756 -2.54694 0
M  V30 5239 H 476.459 -1.61827 -3.02766 0
M  V30 5240 N 478.904 1.54736 -0.299062 0
M  V30 5241 C 480.181 1.92187 0.363802 0
M  V30 5242 C 480.561 1.22607 1.71845 0
M  V30 5243 O 479.909 0.361141 2.25628 0
M  V30 5244 C 480.119 3.45678 0.480377 0
M  V30 5245 C 481.467 4.17885 0.752147 0
M  V30 5246 O 482.491 3.51702 0.564264 0
M  V30 5247 O 481.35 5.35048 1.11294 0
M  V30 5248 H 478.444 0.801681 0.203066 0
M  V30 5249 H 480.99 1.66115 -0.346978 0
M  V30 5250 H 479.762 3.88443 -0.471999 0
M  V30 5251 H 479.385 3.77779 1.2397 0
M  V30 5252 N 480.382 0.0267497 1.57577 0
M  V30 5253 C 481.659 -0.690926 1.82991 0
M  V30 5254 C 482.039 -1.90471 0.910164 0
M  V30 5255 O 481.387 -2.28474 -0.0347985 0
M  V30 5256 C 481.597 -1.07139 3.32148 0
M  V30 5257 C 482.945 -1.46402 3.98562 0
M  V30 5258 O 483.969 -1.16443 3.36629 0
M  V30 5259 O 482.828 -2.02214 5.07712 0
M  V30 5260 H 479.922 -0.338747 0.75444 0
M  V30 5261 H 482.468 0.0542506 1.69613 0
M  V30 5262 H 481.24 -0.207394 3.9075 0
M  V30 5263 H 480.863 -1.87481 3.50623 0
M  V30 5264 O 481.899 -1.6109 -0.114939 0
M  V30 5265 H 482.59 -1.78767 -0.745784 0
M  V30 END ATOM
M  V30 BEGIN BOND
M  V30 END BOND
M  V30 END CTAB
M  END
$$$$
