drugbank_target|P30626 Sorcin (DB11093; DB11348; DB14481)
 OpenBabel12092121043D

  0  0  0     0  0            999 V3000
M  V30 BEGIN CTAB
M  V30 COUNTS 2972 3010 0 0 0
M  V30 BEGIN ATOM
M  V30 1 H -0.908 1.98254 -0.117106 0
M  V30 2 N 0 1.576 0 0
M  V30 3 C 0.933 2.03868 1.02534 0
M  V30 4 C 1.911 0.928543 1.3348 0
M  V30 5 O 3.095 1.19667 1.45644 0
M  V30 6 C 0.222 2.43627 2.35294 0
M  V30 7 C -0.732 3.65373 2.2001 0
M  V30 8 S 0.101 5.13292 1.52614 0
M  V30 9 C 1.257 5.56322 2.86805 0
M  V30 10 H 1.49 2.90518 0.631377 0
M  V30 11 H -0.977 1.52953 0.210867 0
M  V30 12 H 0.981 2.67203 3.11629 0
M  V30 13 H -0.358 1.57376 2.7183 0
M  V30 14 H -1.165 3.90944 3.18086 0
M  V30 15 H -1.563 3.418 1.51819 0
M  V30 16 H 0.729 5.58782 3.83104 0
M  V30 17 H 1.672 6.56266 2.65933 0
M  V30 18 H 2.08 4.83886 2.90714 0
M  V30 19 N 1.4781 -0.272755 1.55222 0
M  V30 20 C 2.4411 -1.32041 1.87344 0
M  V30 21 C 3.4411 -1.42342 0.74803 0
M  V30 22 O 4.6311 -1.41488 1.0162 0
M  V30 23 C 1.7631 -2.70173 2.07893 0
M  V30 24 H 2.9561 -1.04789 2.80997 0
M  V30 25 H 0.5091 -0.51083 1.47717 0
M  V30 26 H 1.2441 -3.02605 1.16622 0
M  V30 27 H 1.0291 -2.64082 2.89833 0
M  V30 28 H 2.5191 -3.45869 2.34017 0
M  V30 29 N 2.9562 -1.48159 -0.537278 0
M  V30 30 C 4.1862 -1.59223 -1.3165 0
M  V30 31 C 4.5942 -0.248849 -1.87556 0
M  V30 32 O 3.9372 0.770949 -1.6674 0
M  V30 33 C 3.9992 -2.57365 -2.51005 0
M  V30 34 C 3.6632 -4.02603 -2.16239 0
M  V30 35 C 4.6602 -4.90503 -1.72344 0
M  V30 36 C 2.3452 -4.48088 -2.26986 0
M  V30 37 C 4.3392 -6.21913 -1.39651 0
M  V30 38 C 2.0262 -5.7952 -1.93906 0
M  V30 39 C 3.0242 -6.66255 -1.50309 0
M  V30 40 O 2.7122 -7.95243 -1.17659 0
M  V30 41 H 2.4442 -0.539831 -0.406889 0
M  V30 42 H 4.9982 -1.94655 -0.655641 0
M  V30 43 H 3.2282 -2.1704 -3.20048 0
M  V30 44 H 4.9172 -2.58342 -3.13072 0
M  V30 45 H 5.6832 -4.56604 -1.63517 0
M  V30 46 H 1.5622 -3.80769 -2.59877 0
M  V30 47 H 5.1062 -6.89569 -1.0555 0
M  V30 48 H 1.0032 -6.12957 -2.02371 0
M  V30 49 H 1.7712 -8.0793 -1.31119 0
M  V30 50 N 4.4343 0.785586 -1.36625 0
M  V30 51 C 5.8453 1.36101 -1.27803 0
M  V30 52 C 6.1963 1.96035 0.0804875 0
M  V30 53 O 5.3213 1.92834 0.982042 0
M  V30 54 C 5.9163 2.47442 -2.31426 0
M  V30 55 C 4.4753 3.00789 -2.26281 0
M  V30 56 C 3.6223 1.73896 -2.15999 0
M  V30 57 H 6.5733 0.586928 -1.47448 0
M  V30 58 H 6.5943 3.2656 -1.95291 0
M  V30 59 H 6.1063 2.03791 -3.30289 0
M  V30 60 H 4.2073 3.48851 -1.30896 0
M  V30 61 H 4.3203 3.57343 -3.19128 0
M  V30 62 H 2.6843 1.9628 -1.62316 0
M  V30 63 H 3.4673 1.32368 -3.16755 0
M  V30 64 N 5.9124 1.20967 1.01018 0
M  V30 65 C 7.1604 1.02172 1.74371 0
M  V30 66 C 7.4814 -0.446414 1.89821 0
M  V30 67 O 6.7514 -1.32234 1.44537 0
M  V30 68 H 5.3314 0.375066 0.646014 0
M  V30 69 H 7.9934 1.52187 1.21758 0
M  V30 70 H 7.0894 1.48538 2.74487 0
M  V30 71 N 7.3905 -1.2043 1.01659 0
M  V30 72 C 8.3405 -2.21076 0.557623 0
M  V30 73 C 9.3245 -1.56176 -0.387029 0
M  V30 74 O 10.5165 -1.7575 -0.209996 0
M  V30 75 C 7.6455 -3.43146 -0.102707 0
M  V30 76 C 6.7315 -4.15213 0.863652 0
M  V30 77 N 7.1225 -4.63662 2.02117 0
M  V30 78 C 5.4205 -4.40716 0.684472 0
M  V30 79 C 6.1215 -5.18868 2.62966 0
M  V30 80 N 5.0975 -5.0893 1.91027 0
M  V30 81 H 8.8995 -2.56201 1.44008 0
M  V30 82 H 6.4135 -1.36366 0.881931 0
M  V30 83 H 8.4105 -4.14475 -0.449054 0
M  V30 84 H 7.0705 -3.09526 -0.981003 0
M  V30 85 H 8.0815 -4.58877 2.40109 0
M  V30 86 H 4.7585 -4.17245 -0.14577 0
M  V30 87 H 6.1485 -5.6673 3.60924 0
M  V30 88 N 8.8686 -0.792821 -1.36206 0
M  V30 89 C 10.2796 -0.429513 -1.81692 0
M  V30 90 C 10.6306 1.04695 -1.65932 0
M  V30 91 O 9.7556 1.81256 -1.18218 0
M  V30 92 C 10.3506 -0.772831 -3.29868 0
M  V30 93 C 8.9096 -0.462307 -3.7355 0
M  V30 94 C 8.0566 -1.00569 -2.5842 0
M  V30 95 H 11.0076 -0.985672 -1.24379 0
M  V30 96 H 11.0286 -0.0651928 -3.80444 0
M  V30 97 H 10.5406 -1.84747 -3.41307 0
M  V30 98 H 8.6416 0.604158 -3.67669 0
M  V30 99 H 8.7546 -0.985299 -4.68859 0
M  V30 100 H 7.1186 -0.428734 -2.51066 0
M  V30 101 H 7.9016 -2.08616 -2.72643 0
M  V30 102 N 10.3467 1.47872 -0.545128 0
M  V30 103 C 11.5947 2.02093 -0.016553 0
M  V30 104 C 11.9157 1.42305 1.3332 0
M  V30 105 O 11.1857 0.593853 1.86682 0
M  V30 106 H 9.7657 0.746993 -0.00313038 0
M  V30 107 H 12.4277 1.81414 -0.712397 0
M  V30 108 H 11.5237 3.11996 0.0805422 0
M  V30 109 N 11.8248 0.280983 1.55075 0
M  V30 110 C 12.7878 -0.590896 2.21452 0
M  V30 111 C 13.7878 -1.07682 1.19421 0
M  V30 112 O 14.9778 -0.97605 1.44288 0
M  V30 113 C 12.1098 -1.81587 2.88511 0
M  V30 114 H 13.3028 -0.0112554 2.99898 0
M  V30 115 H 10.8558 0.0316438 1.56268 0
M  V30 116 H 11.5908 -2.43587 2.14093 0
M  V30 117 H 11.3758 -1.4753 3.63287 0
M  V30 118 H 12.8658 -2.43575 3.39206 0
M  V30 119 N 13.3029 -1.57598 0.00835791 0
M  V30 120 C 14.5509 -1.90551 -0.6734 0
M  V30 121 C 14.8719 -0.883301 -1.73847 0
M  V30 122 O 14.1419 0.0781442 -1.95744 0
M  V30 123 H 12.7219 -0.703312 -0.251717 0
M  V30 124 H 15.3839 -1.94833 0.0512592 0
M  V30 125 H 14.4799 -2.9056 -1.13935 0
M  V30 126 N 14.781 0.264519 -1.55364 0
M  V30 127 C 16.029 0.993021 -1.76021 0
M  V30 128 C 16.35 1.86511 -0.569099 0
M  V30 129 O 15.62 1.91438 0.415735 0
M  V30 130 H 14.2 0.369639 -0.649135 0
M  V30 131 H 16.862 0.286707 -1.9278 0
M  V30 132 H 15.958 1.62502 -2.66457 0
M  V30 133 N 16.2591 1.48442 0.529413 0
M  V30 134 C 17.5071 1.56179 1.28267 0
M  V30 135 C 17.8281 0.237721 1.93546 0
M  V30 136 O 17.0981 -0.740779 1.81354 0
M  V30 137 H 15.6781 0.575367 0.476405 0
M  V30 138 H 18.3401 1.84909 0.61602 0
M  V30 139 H 17.4361 2.34312 2.06165 0
M  V30 140 N 17.7372 -0.778329 1.37039 0
M  V30 141 C 18.9672 -1.56507 1.34868 0
M  V30 142 C 19.3752 -1.89072 -0.0694802 0
M  V30 143 O 18.7182 -1.51434 -1.03987 0
M  V30 144 C 18.7802 -2.90641 2.11585 0
M  V30 145 C 18.4442 -2.80746 3.60598 0
M  V30 146 C 19.4412 -2.52226 4.54618 0
M  V30 147 C 17.1262 -2.98974 4.03633 0
M  V30 148 C 19.1202 -2.42054 5.89651 0
M  V30 149 C 16.8072 -2.88423 5.38754 0
M  V30 150 C 17.8052 -2.60002 6.31576 0
M  V30 151 O 17.4932 -2.49465 7.64214 0
M  V30 152 H 17.2252 -0.491723 0.463879 0
M  V30 153 H 19.7792 -0.973053 1.80889 0
M  V30 154 H 18.0092 -3.51936 1.60243 0
M  V30 155 H 19.6982 -3.51992 2.0213 0
M  V30 156 H 20.4642 -2.37835 4.22681 0
M  V30 157 H 16.3432 -3.20099 3.31749 0
M  V30 158 H 19.8872 -2.19791 6.62071 0
M  V30 159 H 15.7842 -3.0238 5.70295 0
M  V30 160 H 16.5522 -2.64864 7.74461 0
M  V30 161 N 19.2153 -1.21501 -1.00376 0
M  V30 162 C 20.4453 -1.05746 -1.77486 0
M  V30 163 C 20.8533 0.395655 -1.85017 0
M  V30 164 O 20.1963 1.28626 -1.31152 0
M  V30 165 C 20.2583 -1.58092 -3.22873 0
M  V30 166 C 19.9223 -3.06568 -3.38917 0
M  V30 167 C 20.9193 -4.04106 -3.271 0
M  V30 168 C 18.6043 -3.45799 -3.64319 0
M  V30 169 C 20.5983 -5.38862 -3.40451 0
M  V30 170 C 18.2853 -4.80707 -3.77311 0
M  V30 171 C 19.2833 -5.77047 -3.65384 0
M  V30 172 O 18.9713 -7.09507 -3.77961 0
M  V30 173 H 18.7033 -0.371778 -0.564586 0
M  V30 174 H 21.2573 -1.61319 -1.27143 0
M  V30 175 H 19.4873 -0.969163 -3.74358 0
M  V30 176 H 21.1763 -1.38162 -3.81662 0
M  V30 177 H 21.9423 -3.75141 -3.07399 0
M  V30 178 H 17.8213 -2.71344 -3.72684 0
M  V30 179 H 21.3653 -6.14041 -3.31058 0
M  V30 180 H 17.2623 -5.09357 -3.96517 0
M  V30 181 H 18.0303 -7.16935 -3.94901 0
M  V30 182 N 20.6934 1.19889 -1.02296 0
M  V30 183 C 22.1044 1.71124 -0.746568 0
M  V30 184 C 22.4554 1.81939 0.734335 0
M  V30 185 O 21.5804 1.48639 1.57275 0
M  V30 186 C 22.1754 3.10804 -1.34857 0
M  V30 187 C 20.7344 3.59323 -1.1209 0
M  V30 188 C 19.8814 2.3635 -1.45031 0
M  V30 189 H 22.8324 1.04813 -1.19163 0
M  V30 190 H 22.8534 3.73186 -0.742437 0
M  V30 191 H 22.3654 3.029 -2.42638 0
M  V30 192 H 20.4664 3.7255 -0.0610337 0
M  V30 193 H 20.5794 4.4378 -1.80544 0
M  V30 194 H 18.9434 2.39399 -0.869487 0
M  V30 195 H 19.7264 2.31081 -2.53883 0
M  V30 196 N 22.1715 0.800033 1.35784 0
M  V30 197 C 23.4195 0.376597 1.9856 0
M  V30 198 C 23.7405 -1.05812 1.63795 0
M  V30 199 O 23.0105 -1.73103 0.917171 0
M  V30 200 H 21.5905 0.136261 0.734467 0
M  V30 201 H 24.2525 1.02442 1.65806 0
M  V30 202 H 23.3485 0.477002 3.08433 0
M  V30 203 N 23.6496 -1.47581 0.552962 0
M  V30 204 C 24.8976 -2.02082 0.0272703 0
M  V30 205 C 25.2186 -1.4301 -1.32563 0
M  V30 206 O 24.4886 -0.603745 -1.86365 0
M  V30 207 H 23.0686 -0.746966 0.00709182 0
M  V30 208 H 25.7306 -1.81033 0.722008 0
M  V30 209 H 24.8266 -3.12034 -0.0639951 0
M  V30 210 N 25.1277 -0.289203 -1.54924 0
M  V30 211 C 26.3577 0.325989 -2.04012 0
M  V30 212 C 26.7657 1.48961 -1.1665 0
M  V30 213 O 26.1087 1.82794 -0.1822 0
M  V30 214 C 26.1707 0.856112 -3.49158 0
M  V30 215 C 25.8347 -0.180697 -4.56643 0
M  V30 216 C 26.8317 -1.0051 -5.10092 0
M  V30 217 C 24.5167 -0.318998 -5.01286 0
M  V30 218 C 26.5107 -1.95385 -6.06715 0
M  V30 219 C 24.1977 -1.27121 -5.97732 0
M  V30 220 C 25.1957 -2.08713 -6.50329 0
M  V30 221 O 24.8837 -3.02322 -7.44887 0
M  V30 222 H 24.6157 0.0765276 -0.671654 0
M  V30 223 H 27.1697 -0.423254 -2.00992 0
M  V30 224 H 25.3997 1.65567 -3.49463 0
M  V30 225 H 27.0887 1.38591 -3.81507 0
M  V30 226 H 27.8547 -0.90906 -4.76404 0
M  V30 227 H 23.7337 0.306108 -4.59983 0
M  V30 228 H 27.2777 -2.59111 -6.47694 0
M  V30 229 H 23.1747 -1.36801 -6.30837 0
M  V30 230 H 23.9427 -2.97165 -7.6265 0
M  V30 231 N 26.6058 1.57591 -0.0167156 0
M  V30 232 C 27.8538 1.90906 0.663285 0
M  V30 233 C 28.1748 0.892509 1.73376 0
M  V30 234 O 27.4448 -0.0677623 1.95783 0
M  V30 235 H 26.0248 0.704637 0.247983 0
M  V30 236 H 28.6868 1.94803 -0.0615909 0
M  V30 237 H 27.7828 2.9116 1.12393 0
M  V30 238 N 28.0839 -0.256276 1.55502 0
M  V30 239 C 29.3319 -0.983672 1.76545 0
M  V30 240 C 29.6529 -1.86206 0.578982 0
M  V30 241 O 28.9229 -1.91656 -0.405577 0
M  V30 242 H 27.5029 -0.366191 0.651086 0
M  V30 243 H 30.1649 -0.276479 1.92929 0
M  V30 244 H 29.2609 -1.61087 2.67315 0
M  V30 245 N 29.562 -1.4872 -0.521534 0
M  V30 246 C 30.525 -1.63379 -1.60748 0
M  V30 247 C 31.525 -0.50661 -1.52611 0
M  V30 248 O 32.715 -0.772601 -1.5613 0
M  V30 249 C 29.847 -1.61192 -3.00383 0
M  V30 250 H 31.04 -2.60217 -1.49087 0
M  V30 251 H 28.593 -1.37444 -0.744235 0
M  V30 252 H 29.328 -0.65863 -3.17541 0
M  V30 253 H 29.113 -2.43032 -3.07698 0
M  V30 254 H 30.603 -1.7466 -3.7932 0
M  V30 255 N 31.0401 0.771051 -1.3745 0
M  V30 256 C 32.4511 1.34737 -1.29239 0
M  V30 257 C 32.8021 1.96109 0.0596908 0
M  V30 258 O 31.9271 1.93865 0.961534 0
M  V30 259 C 32.5221 2.44973 -2.34037 0
M  V30 260 C 31.0811 2.98372 -2.29458 0
M  V30 261 C 30.2281 1.71595 -2.17831 0
M  V30 262 H 33.1791 0.571256 -1.48062 0
M  V30 263 H 33.2001 3.24471 -1.98744 0
M  V30 264 H 32.7121 2.00276 -3.32432 0
M  V30 265 H 30.8131 3.47443 -1.34589 0
M  V30 266 H 30.9261 3.53939 -3.229 0
M  V30 267 H 29.2901 1.94547 -1.64388 0
M  V30 268 H 30.0731 1.29001 -3.18141 0
M  V30 269 N 32.5182 1.22032 0.997298 0
M  V30 270 C 33.7662 1.04016 1.73278 0
M  V30 271 C 34.0872 -0.426255 1.90284 0
M  V30 272 O 33.3572 -1.30694 1.45931 0
M  V30 273 H 31.9372 0.381897 0.642 0
M  V30 274 H 34.5992 1.5347 1.20137 0
M  V30 275 H 33.6952 1.51441 2.72896 0
M  V30 276 N 33.9963 -1.19345 1.0293 0
M  V30 277 C 35.2443 -1.88665 0.724574 0
M  V30 278 C 35.5653 -1.80036 -0.749144 0
M  V30 279 O 34.8353 -1.2111 -1.53978 0
M  V30 280 H 33.4153 -0.698406 0.265025 0
M  V30 281 H 36.0773 -1.44885 1.30362 0
M  V30 282 H 35.1733 -2.94987 1.01926 0
M  V30 283 N 35.4744 -0.807222 -1.35358 0
M  V30 284 C 36.8854 -0.44876 -1.81226 0
M  V30 285 C 37.2364 1.02929 -1.67033 0
M  V30 286 O 36.3614 1.79991 -1.20133 0
M  V30 287 C 36.9564 -0.807774 -3.2903 0
M  V30 288 C 35.5154 -0.501901 -3.73039 0
M  V30 289 C 34.6624 -1.03304 -2.57339 0
M  V30 290 H 37.6134 -0.998808 -1.23327 0
M  V30 291 H 37.6344 -0.10554 -3.80354 0
M  V30 292 H 37.1464 -1.88357 -3.39328 0
M  V30 293 H 35.2474 0.565128 -3.68289 0
M  V30 294 H 35.3604 -1.03497 -4.67787 0
M  V30 295 H 33.7244 -0.455339 -2.50597 0
M  V30 296 H 34.5074 -2.11496 -2.70415 0
M  V30 297 N 36.9525 1.47285 -0.560781 0
M  V30 298 C 37.9155 2.28535 0.174488 0
M  V30 299 C 38.9155 1.37153 0.839388 0
M  V30 300 O 40.1055 1.59748 0.694702 0
M  V30 301 C 37.2375 3.16934 1.25561 0
M  V30 302 H 38.4305 2.95012 -0.539262 0
M  V30 303 H 35.9835 1.53034 -0.317865 0
M  V30 304 H 36.7185 2.55157 2.00164 0
M  V30 305 H 36.5035 3.8419 0.783604 0
M  V30 306 H 37.9935 3.78143 1.77193 0
M  V30 307 N 38.4306 0.297415 1.54768 0
M  V30 308 C 39.6776 -0.312913 2.00068 0
M  V30 309 C 40.0056 -1.54171 1.18582 0
M  V30 310 O 39.2606 -1.94108 0.249133 0
M  V30 311 C 39.5596 -0.717561 3.50123 0
M  V30 312 C 39.2256 0.409095 4.4904 0
M  V30 313 C 37.8876 0.718399 4.75807 0
M  V30 314 C 40.2396 1.16717 5.07963 0
M  V30 315 C 37.5676 1.78896 5.5876 0
M  V30 316 C 39.9196 2.22762 5.92081 0
M  V30 317 C 38.5836 2.54303 6.1716 0
M  V30 318 H 37.8536 -0.114503 0.7321 0
M  V30 319 H 40.5006 0.415767 1.86932 0
M  V30 320 H 38.8056 -1.52627 3.60849 0
M  V30 321 H 40.5026 -1.20091 3.82595 0
M  V30 322 H 37.0926 0.157918 4.28309 0
M  V30 323 H 41.2766 0.941466 4.87289 0
M  V30 324 H 36.5326 2.0381 5.7643 0
M  V30 325 H 40.7066 2.81962 6.36765 0
M  V30 326 H 38.3336 3.3739 6.81229 0
M  V30 327 N 39.9087 -1.5758 0.0250728 0
M  V30 328 C 41.3197 -1.79476 -0.514323 0
M  V30 329 C 41.6707 -0.934956 -1.72491 0
M  V30 330 O 40.7957 -0.144245 -2.15919 0
M  V30 331 C 41.3907 -3.25503 -0.939842 0
M  V30 332 C 39.9497 -3.48408 -1.42438 0
M  V30 333 C 39.0967 -2.74583 -0.387201 0
M  V30 334 H 42.0477 -1.567 0.25113 0
M  V30 335 H 42.0687 -3.34992 -1.80445 0
M  V30 336 H 41.5807 -3.88056 -0.0585628 0
M  V30 337 H 39.6817 -2.91103 -2.32572 0
M  V30 338 H 39.7947 -4.57119 -1.43455 0
M  V30 339 H 38.1587 -2.39942 -0.854409 0
M  V30 340 H 38.9417 -3.39849 0.485543 0
M  V30 341 N 41.3868 0.248026 -1.55636 0
M  V30 342 C 42.6348 0.974295 -1.77065 0
M  V30 343 C 42.9558 1.85897 -0.588849 0
M  V30 344 O 42.2258 1.91868 0.395407 0
M  V30 345 H 40.8058 0.362733 -0.653019 0
M  V30 346 H 43.4678 0.266244 -1.93073 0
M  V30 347 H 42.5638 1.59667 -2.68166 0
M  V30 348 N 42.8649 1.48995 0.513639 0
M  V30 349 C 43.7969 1.60836 1.63293 0
M  V30 350 C 44.8099 0.491701 1.55197 0
M  V30 351 O 45.9989 0.763238 1.6136 0
M  V30 352 C 43.0989 1.53731 3.02027 0
M  V30 353 C 42.2719 2.80715 3.35437 0
M  V30 354 C 41.3309 2.66837 4.53525 0
M  V30 355 O 40.3569 3.40753 4.55934 0
M  V30 356 N 41.5589 1.77539 5.52684 0
M  V30 357 H 44.3239 2.57366 1.53566 0
M  V30 358 H 41.8849 1.45925 0.701259 0
M  V30 359 H 43.8769 1.42118 3.78926 0
M  V30 360 H 42.4469 0.651092 3.05744 0
M  V30 361 H 41.6669 3.06772 2.47557 0
M  V30 362 H 42.9549 3.64927 3.54551 0
M  V30 363 H 42.3529 1.16719 5.53528 0
M  V30 364 H 40.9099 1.71856 6.28736 0
M  V30 365 N 44.343 -0.763751 1.37857 0
M  V30 366 C 45.571 -1.55293 1.36718 0
M  V30 367 C 45.986 -1.88745 -0.0455434 0
M  V30 368 O 45.343 -1.52039 -1.00947 0
M  V30 369 C 45.394 -2.85831 2.2132 0
M  V30 370 O 45.115 -2.5381 3.57089 0
M  V30 371 C 46.616 -3.80023 2.28249 0
M  V30 372 H 43.836 -0.480841 0.468009 0
M  V30 373 H 46.38 -0.946009 1.81303 0
M  V30 374 H 44.535 -3.42926 1.80223 0
M  V30 375 H 44.949 -3.37459 4.01524 0
M  V30 376 H 46.423 -4.68599 2.91752 0
M  V30 377 H 46.9 -4.1973 1.2932 0
M  V30 378 H 47.506 -3.28855 2.69693 0
M  V30 379 N 45.8211 -1.22559 -0.990812 0
M  V30 380 C 46.7531 -0.955325 -2.08342 0
M  V30 381 C 47.7661 0.0668408 -1.62663 0
M  V30 382 O 48.9551 -0.167421 -1.77713 0
M  V30 383 C 46.0551 -0.415566 -3.36342 0
M  V30 384 C 45.2281 -1.49544 -4.11042 0
M  V30 385 C 44.2871 -0.962399 -5.17324 0
M  V30 386 O 43.3131 -1.64907 -5.44788 0
M  V30 387 N 44.5151 0.215134 -5.80101 0
M  V30 388 H 47.2801 -1.89596 -2.32106 0
M  V30 389 H 44.8411 -1.13276 -1.15673 0
M  V30 390 H 46.8331 -0.0442386 -4.04676 0
M  V30 391 H 45.4031 0.430232 -3.09625 0
M  V30 392 H 44.6231 -2.04 -3.37309 0
M  V30 393 H 45.9111 -2.22195 -4.57719 0
M  V30 394 H 45.3091 0.789779 -5.6016 0
M  V30 395 H 43.8661 0.527826 -6.49659 0
M  V30 396 N 47.2992 1.18797 -1.03562 0
M  V30 397 C 48.5762 1.84469 -0.650434 0
M  V30 398 C 48.9562 1.92319 0.870433 0
M  V30 399 O 48.3042 1.44528 1.76986 0
M  V30 400 C 48.5142 3.2306 -1.32036 0
M  V30 401 C 49.8622 3.9915 -1.44792 0
M  V30 402 O 50.8862 3.32481 -1.27806 0
M  V30 403 O 49.7452 5.18587 -1.72423 0
M  V30 404 H 46.8392 0.795251 -0.226946 0
M  V30 405 H 49.3852 1.26231 -1.13419 0
M  V30 406 H 48.1572 3.1222 -2.3587 0
M  V30 407 H 47.7802 3.88949 -0.8249 0
M  V30 408 N 48.7773 0.814389 1.34928 0
M  V30 409 C 50.1883 0.458364 1.80986 0
M  V30 410 C 50.5393 -1.02042 1.67577 0
M  V30 411 O 49.6643 -1.79352 1.21086 0
M  V30 412 C 50.2593 0.825212 3.28597 0
M  V30 413 C 48.8183 0.521677 3.72767 0
M  V30 414 C 47.9653 1.04668 2.56788 0
M  V30 415 H 50.9163 1.00533 1.22795 0
M  V30 416 H 50.9373 0.12571 3.80292 0
M  V30 417 H 50.4493 1.90154 3.38324 0
M  V30 418 H 48.5503 -0.545589 3.68584 0
M  V30 419 H 48.6633 1.05977 4.67232 0
M  V30 420 H 47.0273 0.468622 2.50352 0
M  V30 421 H 47.8103 2.12927 2.6929 0
M  V30 422 N 50.2554 -1.46986 0.568584 0
M  V30 423 C 51.1854 -2.32946 -0.160753 0
M  V30 424 C 52.1664 -1.44487 -0.897631 0
M  V30 425 O 53.3514 -1.73327 -0.875867 0
M  V30 426 C 50.4814 -3.26494 -1.18403 0
M  V30 427 C 49.4354 -4.24282 -0.562895 0
M  V30 428 C 48.7614 -5.07236 -1.69163 0
M  V30 429 C 50.0614 -5.19989 0.490761 0
M  V30 430 H 51.7554 -2.94175 0.556916 0
M  V30 431 H 49.3014 -1.4146 0.26927 0
M  V30 432 H 51.2544 -3.85477 -1.70251 0
M  V30 433 H 49.9784 -2.63343 -1.93179 0
M  V30 434 H 48.6374 -3.66541 -0.0656164 0
M  V30 435 H 48.2854 -4.4048 -2.42871 0
M  V30 436 H 47.9854 -5.7345 -1.28174 0
M  V30 437 H 49.5094 -5.6908 -2.21314 0
M  V30 438 H 50.9234 -5.73271 0.0579047 0
M  V30 439 H 49.3204 -5.94469 0.820165 0
M  V30 440 H 50.3904 -4.64777 1.3824 0
M  V30 441 N 51.7335 -0.305618 -1.54608 0
M  V30 442 C 52.9635 0.304333 -2.04346 0
M  V30 443 C 53.3715 1.47715 -1.18224 0
M  V30 444 O 52.7145 1.82591 -0.201577 0
M  V30 445 C 52.7765 0.819031 -3.50046 0
M  V30 446 C 52.4405 -0.22912 -4.56425 0
M  V30 447 C 53.4375 -1.05914 -5.08997 0
M  V30 448 C 51.1225 -0.372148 -5.0092 0
M  V30 449 C 53.1165 -2.01809 -6.04609 0
M  V30 450 C 50.8035 -1.33454 -5.9635 0
M  V30 451 C 51.8015 -2.15599 -6.48079 0
M  V30 452 O 51.4895 -3.10205 -7.41639 0
M  V30 453 H 51.2215 0.0693996 -0.672428 0
M  V30 454 H 53.7755 -0.444548 -2.00532 0
M  V30 455 H 52.0055 1.61852 -3.51199 0
M  V30 456 H 53.6945 1.34537 -3.82955 0
M  V30 457 H 54.4605 -0.959538 -4.75413 0
M  V30 458 H 50.3395 0.257304 -4.60281 0
M  V30 459 H 53.8835 -2.65966 -6.44909 0
M  V30 460 H 49.7805 -1.43485 -6.29351 0
M  V30 461 H 50.5485 -3.05237 -7.59455 0
M  V30 462 N 53.2116 1.57565 -0.0334293 0
M  V30 463 C 54.4596 1.91598 0.642999 0
M  V30 464 C 54.7806 0.910847 1.7242 0
M  V30 465 O 54.0506 -0.0469931 1.95844 0
M  V30 466 H 52.6306 0.707228 0.240496 0
M  V30 467 H 55.2926 1.94726 -0.0822488 0
M  V30 468 H 54.3886 2.92336 1.09298 0
M  V30 469 N 54.6897 -0.239769 1.55765 0
M  V30 470 C 55.9197 -0.982743 1.8173 0
M  V30 471 C 56.3277 -1.7917 0.607835 0
M  V30 472 O 55.6707 -1.78525 -0.432973 0
M  V30 473 C 55.7327 -1.96332 3.01155 0
M  V30 474 C 55.3967 -1.34062 4.36894 0
M  V30 475 C 56.3937 -0.739539 5.14613 0
M  V30 476 C 54.0787 -1.35784 4.83599 0
M  V30 477 C 56.0727 -0.163989 6.37189 0
M  V30 478 C 53.7597 -0.778441 6.06122 0
M  V30 479 C 54.7577 -0.182548 6.82756 0
M  V30 480 O 54.4457 0.387887 8.02964 0
M  V30 481 H 54.1777 -0.294481 0.608487 0
M  V30 482 H 56.7317 -0.26572 2.03674 0
M  V30 483 H 54.9617 -2.71884 2.74984 0
M  V30 484 H 56.6507 -2.57032 3.14149 0
M  V30 485 H 57.4167 -0.718687 4.79646 0
M  V30 486 H 53.2957 -1.81105 4.23936 0
M  V30 487 H 56.8397 0.301753 6.96947 0
M  V30 488 H 52.7367 -0.796645 6.40565 0
M  V30 489 H 53.5047 0.28044 8.18019 0
M  V30 490 N 56.1678 -1.49265 -0.50573 0
M  V30 491 C 57.4148 -1.58513 -1.26015 0
M  V30 492 C 57.7428 -0.26972 -1.92621 0
M  V30 493 O 56.9978 0.741997 -1.81088 0
M  V30 494 C 57.2968 -2.69008 -2.35308 0
M  V30 495 C 56.9628 -4.10662 -1.86192 0
M  V30 496 C 55.6248 -4.49212 -1.72516 0
M  V30 497 C 57.9768 -4.99336 -1.49375 0
M  V30 498 C 55.3048 -5.74214 -1.20394 0
M  V30 499 C 57.6568 -6.24852 -0.987072 0
M  V30 500 C 56.3208 -6.62236 -0.836669 0
M  V30 501 H 55.5908 -0.580041 -0.461122 0
M  V30 502 H 58.2378 -1.83078 -0.561665 0
M  V30 503 H 56.5428 -2.38396 -3.10926 0
M  V30 504 H 58.2398 -2.73373 -2.93374 0
M  V30 505 H 54.8298 -3.8023 -1.97795 0
M  V30 506 H 59.0138 -4.70212 -1.5879 0
M  V30 507 H 54.2698 -6.01883 -1.07458 0
M  V30 508 H 58.4438 -6.92944 -0.692983 0
M  V30 509 H 56.0708 -7.58979 -0.430607 0
M  V30 510 N 57.6459 0.756429 -1.3826 0
M  V30 511 C 58.6089 1.85176 -1.35065 0
M  V30 512 C 59.6089 1.58818 -0.251703 0
M  V30 513 O 60.7989 1.66615 -0.508433 0
M  V30 514 C 57.9309 3.22596 -1.10201 0
M  V30 515 H 59.1239 1.89417 -2.3251 0
M  V30 516 H 56.6769 0.95783 -1.23512 0
M  V30 517 H 57.4119 3.24025 -0.133504 0
M  V30 518 H 57.1969 3.43122 -1.89762 0
M  V30 519 H 58.6869 4.02673 -1.10654 0
M  V30 520 N 59.124 1.23083 0.984299 0
M  V30 521 C 60.087 1.00979 2.05757 0
M  V30 522 C 61.087 -0.0269573 1.60777 0
M  V30 523 O 62.277 0.212403 1.729 0
M  V30 524 C 59.409 0.527072 3.36801 0
M  V30 525 H 60.602 1.9622 2.26799 0
M  V30 526 H 58.155 1.05072 1.15714 0
M  V30 527 H 58.89 -0.429294 3.21446 0
M  V30 528 H 58.675 1.27515 3.70786 0
M  V30 529 H 60.165 0.392942 4.15747 0
M  V30 530 N 60.6021 -1.18246 1.0419 0
M  V30 531 C 61.8481 -1.88536 0.747122 0
M  V30 532 C 62.1811 -1.80223 -0.723409 0
M  V30 533 O 61.4561 -1.20337 -1.52804 0
M  V30 534 C 61.7391 -3.38968 1.21544 0
M  V30 535 C 61.5921 -3.56084 2.74816 0
M  V30 536 C 62.9111 -4.32648 0.806482 0
M  V30 537 H 60.0301 -0.684619 0.272883 0
M  V30 538 H 62.6721 -1.39113 1.29413 0
M  V30 539 H 60.8221 -3.8119 0.750081 0
M  V30 540 H 62.4941 -3.22946 3.29399 0
M  V30 541 H 60.7371 -2.98699 3.14582 0
M  V30 542 H 61.4081 -4.61639 3.02644 0
M  V30 543 H 63.8841 -3.98211 1.20695 0
M  V30 544 H 62.7601 -5.36462 1.1619 0
M  V30 545 H 63.0211 -4.41146 -0.29029 0
M  V30 546 N 62.0802 -0.821533 -1.34494 0
M  V30 547 C 63.0432 -0.247847 -2.27856 0
M  V30 548 C 64.0432 0.573453 -1.50227 0
M  V30 549 O 65.2332 0.389759 -1.69784 0
M  V30 550 C 62.3652 0.652698 -3.34593 0
M  V30 551 H 63.5582 -1.07146 -2.80107 0
M  V30 552 H 61.1112 -0.593291 -1.44602 0
M  V30 553 H 61.8462 1.49943 -2.87555 0
M  V30 554 H 61.6312 0.065292 -3.92046 0
M  V30 555 H 63.1212 1.04793 -4.04238 0
M  V30 556 N 63.5583 1.46682 -0.576371 0
M  V30 557 C 64.8063 2.02013 -0.0594163 0
M  V30 558 C 65.1273 1.45101 1.30271 0
M  V30 559 O 64.3973 0.633317 1.8538 0
M  V30 560 H 62.9773 0.746759 -0.0189745 0
M  V30 561 H 65.6393 1.79862 -0.750717 0
M  V30 562 H 64.7353 3.12097 0.014345 0
M  V30 563 N 65.0364 0.313813 1.54444 0
M  V30 564 C 65.9684 -0.590425 2.21465 0
M  V30 565 C 66.9814 -1.08753 1.21147 0
M  V30 566 O 68.1704 -1.00278 1.4767 0
M  V30 567 C 65.2704 -1.82179 2.85769 0
M  V30 568 C 64.4434 -1.46502 4.12136 0
M  V30 569 C 63.5024 -2.55288 4.60124 0
M  V30 570 O 62.5284 -2.19842 5.25032 0
M  V30 571 N 63.7304 -3.86053 4.33525 0
M  V30 572 H 66.4954 -0.0166033 2.99695 0
M  V30 573 H 64.0564 0.136578 1.61323 0
M  V30 574 H 66.0484 -2.54328 3.14801 0
M  V30 575 H 64.6184 -2.30369 2.11303 0
M  V30 576 H 63.8384 -0.575595 3.89975 0
M  V30 577 H 65.1264 -1.20221 4.94393 0
M  V30 578 H 64.5244 -4.17654 3.81552 0
M  V30 579 H 63.0814 -4.54461 4.67235 0
M  V30 580 N 66.5145 -1.57545 0.0417849 0
M  V30 581 C 67.7915 -1.83642 -0.673433 0
M  V30 582 C 68.1715 -0.928298 -1.89594 0
M  V30 583 O 67.5195 0.0129955 -2.28496 0
M  V30 584 C 67.7295 -3.33155 -1.03964 0
M  V30 585 C 69.0775 -3.99941 -1.42592 0
M  V30 586 O 70.1015 -3.37725 -1.13226 0
M  V30 587 O 68.9605 -5.09619 -1.9736 0
M  V30 588 H 66.0545 -0.757638 -0.331533 0
M  V30 589 H 68.6005 -1.69554 0.070433 0
M  V30 590 H 67.3725 -3.9093 -0.170098 0
M  V30 591 H 66.9955 -3.52396 -1.84126 0
M  V30 592 N 67.9926 0.231505 -1.5589 0
M  V30 593 C 69.2406 0.955461 -1.78088 0
M  V30 594 C 69.5616 1.85262 -0.608533 0
M  V30 595 O 68.8316 1.92277 0.375035 0
M  V30 596 H 67.4116 0.355787 -0.656829 0
M  V30 597 H 70.0736 0.245751 -1.93344 0
M  V30 598 H 69.1696 1.56814 -2.69844 0
M  V30 599 N 69.4707 1.49531 0.497807 0
M  V30 600 C 70.4027 1.62559 1.61578 0
M  V30 601 C 71.4157 0.508134 1.54667 0
M  V30 602 O 72.6047 0.780309 1.60541 0
M  V30 603 C 69.7047 1.56925 3.00379 0
M  V30 604 C 68.8777 2.84257 3.3244 0
M  V30 605 C 67.9367 2.71632 4.50669 0
M  V30 606 O 66.9627 3.4557 4.52294 0
M  V30 607 N 68.1647 1.83391 5.5077 0
M  V30 608 H 70.9297 2.58981 1.50828 0
M  V30 609 H 68.4907 1.4666 0.685743 0
M  V30 610 H 70.4827 1.46129 3.77397 0
M  V30 611 H 69.0527 0.683483 3.05037 0
M  V30 612 H 68.2727 3.09381 2.44289 0
M  V30 613 H 69.5607 3.68666 3.5066 0
M  V30 614 H 68.9587 1.22583 5.52259 0
M  V30 615 H 67.5157 1.78515 6.26878 0
M  V30 616 N 70.9488 -0.749086 1.3866 0
M  V30 617 C 72.1978 -1.50371 1.3443 0
M  V30 618 C 72.5108 -1.95503 -0.0616397 0
M  V30 619 O 73.7168 -2.70554 -0.226489 0
M  V30 620 C 72.1728 -2.71644 2.36088 0
M  V30 621 C 71.7808 -2.3352 3.82325 0
M  V30 622 C 73.5248 -3.49518 2.40909 0
M  V30 623 C 71.4318 -3.51431 4.75658 0
M  V30 624 H 70.3618 -0.564628 0.499712 0
M  V30 625 H 73.0128 -0.818449 1.64237 0
M  V30 626 H 71.3948 -3.42175 1.9933 0
M  V30 627 H 72.5688 -1.70627 4.28046 0
M  V30 628 H 70.8838 -1.6877 3.80665 0
M  V30 629 H 73.4808 -4.37197 3.07836 0
M  V30 630 H 73.8238 -3.90992 1.42937 0
M  V30 631 H 74.3568 -2.86005 2.76489 0
M  V30 632 H 71.0958 -3.15019 5.74842 0
M  V30 633 H 70.6158 -4.13352 4.34627 0
M  V30 634 H 72.2948 -4.17953 4.93887 0
M  V30 635 N 72.4269 -1.23603 -0.977757 0
M  V30 636 C 73.7039 -0.977897 -1.69401 0
M  V30 637 C 74.0839 0.502738 -2.05026 0
M  V30 638 O 73.4319 1.47459 -1.74551 0
M  V30 639 C 73.6419 -1.89077 -2.93345 0
M  V30 640 C 74.9899 -2.15579 -3.65802 0
M  V30 641 O 76.0139 -1.86648 -3.03383 0
M  V30 642 O 74.8729 -2.64658 -4.78141 0
M  V30 643 H 71.9669 -0.369025 -0.740101 0
M  V30 644 H 74.5129 -1.34657 -1.03274 0
M  V30 645 H 73.2849 -2.89158 -2.63634 0
M  V30 646 H 72.9079 -1.52463 -3.67207 0
M  V30 647 N 73.905 1.17692 -1.04816 0
M  V30 648 C 74.868 2.19787 -0.650117 0
M  V30 649 C 75.868 1.58044 0.296427 0
M  V30 650 O 77.058 1.74012 0.0808097 0
M  V30 651 C 74.19 3.40869 0.0456987 0
M  V30 652 H 75.383 2.56516 -1.5537 0
M  V30 653 H 72.936 1.31708 -0.841594 0
M  V30 654 H 73.671 3.09681 0.962726 0
M  V30 655 H 73.456 3.86928 -0.634727 0
M  V30 656 H 74.946 4.16445 0.310432 0
M  V30 657 N 75.3831 0.828654 1.34056 0
M  V30 658 C 76.6601 0.341809 1.9259 0
M  V30 659 C 77.0401 -1.17158 1.75605 0
M  V30 660 O 76.3881 -1.98132 1.13824 0
M  V30 661 C 76.5981 0.777453 3.4023 0
M  V30 662 C 77.9461 0.779579 4.17382 0
M  V30 663 O 78.9701 0.7204 3.48839 0
M  V30 664 O 77.8291 0.857996 5.39723 0
M  V30 665 H 74.9231 0.0946085 0.821571 0
M  V30 666 H 77.4691 0.913827 1.42994 0
M  V30 667 H 76.2411 1.8196 3.46419 0
M  V30 668 H 75.8641 0.181444 3.97186 0
M  V30 669 N 76.8612 -1.46375 0.584142 0
M  V30 670 C 77.7712 -2.34115 -0.150728 0
M  V30 671 C 78.7872 -1.49838 -0.884567 0
M  V30 672 O 79.9632 -1.82704 -0.847429 0
M  V30 673 C 77.0282 -3.2705 -1.15062 0
M  V30 674 C 76.0892 -4.27228 -0.421293 0
M  V30 675 C 75.3222 -5.15722 -1.37355 0
M  V30 676 O 75.5452 -5.07176 -2.61014 0
M  V30 677 O 74.4792 -5.95383 -0.883355 0
M  V30 678 H 78.3052 -2.98309 0.569708 0
M  V30 679 H 75.8902 -1.45373 0.344535 0
M  V30 680 H 77.7722 -3.84381 -1.72712 0
M  V30 681 H 76.4472 -2.65451 -1.8525 0
M  V30 682 H 75.3542 -3.7358 0.197085 0
M  V30 683 H 76.6872 -4.91616 0.239641 0
M  V30 684 N 78.3393 -0.321999 -1.54275 0
M  V30 685 C 79.2693 0.537411 -2.27231 0
M  V30 686 C 80.2503 1.12064 -1.27968 0
M  V30 687 O 81.4353 1.14606 -1.56777 0
M  V30 688 C 78.5653 1.69919 -3.02894 0
M  V30 689 C 77.5193 1.24534 -4.09482 0
M  V30 690 C 76.8453 2.49394 -4.72977 0
M  V30 691 C 78.1453 0.361335 -5.21049 0
M  V30 692 H 79.8393 -0.0711406 -2.99315 0
M  V30 693 H 77.3853 -0.0356555 -1.43956 0
M  V30 694 H 79.3383 2.30668 -3.52662 0
M  V30 695 H 78.0623 2.33431 -2.28424 0
M  V30 696 H 76.7213 0.660782 -3.60596 0
M  V30 697 H 76.3693 3.11265 -3.95124 0
M  V30 698 H 76.0693 2.19718 -5.44975 0
M  V30 699 H 77.5933 3.10908 -5.25517 0
M  V30 700 H 79.0073 0.875072 -5.66582 0
M  V30 701 H 77.4043 0.157428 -5.99893 0
M  V30 702 H 78.4743 -0.60822 -4.8107 0
M  V30 703 N 79.8174 1.5752 -0.0501392 0
M  V30 704 C 80.7494 2.08413 0.95376 0
M  V30 705 C 81.7624 1.01175 1.27544 0
M  V30 706 O 82.9514 1.28744 1.23641 0
M  V30 707 C 80.0514 2.51138 2.27559 0
M  V30 708 C 79.2244 3.817 2.13598 0
M  V30 709 C 78.2834 4.10749 3.28895 0
M  V30 710 O 77.3094 4.80685 3.04845 0
M  V30 711 N 78.5114 3.62579 4.5334 0
M  V30 712 H 81.2764 2.95165 0.519383 0
M  V30 713 H 78.8374 1.61327 0.136127 0
M  V30 714 H 80.8294 2.67648 3.03557 0
M  V30 715 H 79.3994 1.6964 2.62567 0
M  V30 716 H 78.6194 3.74782 1.22197 0
M  V30 717 H 79.9074 4.67201 2.01496 0
M  V30 718 H 79.3054 3.06039 4.75769 0
M  V30 719 H 77.8624 3.84329 5.26436 0
M  V30 720 N 81.2955 -0.223234 1.56011 0
M  V30 721 C 82.7115 -0.572856 1.48965 0
M  V30 722 C 82.9115 -1.87225 0.74492 0
M  V30 723 O 81.9675 -2.50899 0.283896 0
M  V30 724 C 83.2805 -0.653646 2.9351 0
M  V30 725 C 84.8285 -0.744386 3.0402 0
M  V30 726 C 85.3035 -0.856535 4.49919 0
M  V30 727 N 86.7945 -0.9208 4.53955 0
M  V30 728 C 87.5295 -1.02726 5.64123 0
M  V30 729 N 87.0255 -1.09777 6.84047 0
M  V30 730 N 88.8185 -1.06226 5.51971 0
M  V30 731 H 80.9695 0.629462 2.02858 0
M  V30 732 H 83.2325 0.220621 0.921971 0
M  V30 733 H 82.9385 0.231518 3.50937 0
M  V30 734 H 82.8125 -1.51781 3.45315 0
M  V30 735 H 85.1995 -1.61999 2.46658 0
M  V30 736 H 85.2805 0.14541 2.55386 0
M  V30 737 H 84.9245 0.0146069 5.07898 0
M  V30 738 H 84.8545 -1.76172 4.96257 0
M  V30 739 H 87.3455 -0.876694 3.6759 0
M  V30 740 H 87.6585 -1.17872 7.63758 0
M  V30 741 H 86.0035 -1.06693 6.86762 0
M  V30 742 H 89.1945 -1.00382 4.5721 0
M  V30 743 H 89.3675 -1.14177 6.37862 0
M  V30 744 N 82.7736 -1.49793 -0.48987 0
M  V30 745 C 84.0136 -1.61466 -1.25332 0
M  V30 746 C 84.3776 -0.299688 -1.89647 0
M  V30 747 O 85.5786 -0.291687 -2.67213 0
M  V30 748 C 83.8496 -2.74944 -2.28343 0
M  V30 749 S 85.4086 -3.06637 -3.13878 0
M  V30 750 H 82.2266 -0.569411 -0.425784 0
M  V30 751 H 84.8286 -1.875 -0.553541 0
M  V30 752 H 83.5326 -3.68994 -1.79643 0
M  V30 753 H 83.0636 -2.50938 -3.02975 0
M  V30 754 H 85.0786 -2.49015 -4.29192 0
M  V30 755 N 84.2517 0.741722 -1.39055 0
M  V30 756 C 85.1817 1.869 -1.39966 0
M  V30 757 C 86.1627 1.6804 -0.26392 0
M  V30 758 O 87.3477 1.88458 -0.468755 0
M  V30 759 C 84.4777 3.24572 -1.23574 0
M  V30 760 C 83.4317 3.58056 -2.34477 0
M  V30 761 C 82.7577 4.94593 -2.0318 0
M  V30 762 C 84.0577 3.61716 -3.76774 0
M  V30 763 H 85.7517 1.86395 -2.34302 0
M  V30 764 H 83.2977 0.895361 -1.1278 0
M  V30 765 H 85.2507 4.031 -1.22834 0
M  V30 766 H 83.9747 3.25587 -0.257045 0
M  V30 767 H 82.6337 2.81854 -2.34423 0
M  V30 768 H 82.2817 4.92181 -1.03765 0
M  V30 769 H 81.9817 5.17964 -2.77465 0
M  V30 770 H 83.5057 5.75486 -2.04079 0
M  V30 771 H 84.9197 4.30335 -3.78794 0
M  V30 772 H 83.3167 3.96603 -4.50362 0
M  V30 773 H 84.3867 2.61672 -4.08235 0
M  V30 774 N 85.7298 1.2412 0.971189 0
M  V30 775 C 86.9578 1.10575 1.74874 0
M  V30 776 C 87.3728 -0.342017 1.85676 0
M  V30 777 O 86.7298 -1.23617 1.34258 0
M  V30 778 C 86.7808 1.73579 3.171 0
M  V30 779 O 86.5018 3.12695 3.06844 0
M  V30 780 C 88.0028 1.65598 4.11208 0
M  V30 781 H 85.2228 0.386504 0.548503 0
M  V30 782 H 87.7668 1.64156 1.21955 0
M  V30 783 H 85.9218 1.24009 3.67016 0
M  V30 784 H 86.3358 3.43412 3.96445 0
M  V30 785 H 87.8098 2.1437 5.08674 0
M  V30 786 H 88.2868 0.616532 4.34851 0
M  V30 787 H 88.8928 2.14578 3.67201 0
M  V30 788 N 87.2079 -1.17134 1.05439 0
M  V30 789 C 88.1399 -2.2078 0.615539 0
M  V30 790 C 89.1529 -1.59584 -0.322001 0
M  V30 791 O 90.3419 -1.78133 -0.114344 0
M  V30 792 C 87.4419 -3.38691 -0.118938 0
M  V30 793 C 86.6149 -4.29454 0.829924 0
M  V30 794 C 85.6739 -5.26024 0.136258 0
M  V30 795 O 84.6999 -5.63952 0.77115 0
M  V30 796 N 85.9019 -5.69487 -1.1254 0
M  V30 797 H 88.6669 -2.59052 1.50705 0
M  V30 798 H 86.2279 -1.32058 0.936603 0
M  V30 799 H 88.2199 -4.00329 -0.593179 0
M  V30 800 H 86.7899 -2.98996 -0.91215 0
M  V30 801 H 86.0099 -3.65211 1.48373 0
M  V30 802 H 87.2979 -4.86984 1.47392 0
M  V30 803 H 86.6959 -5.4075 -1.6615 0
M  V30 804 H 85.2529 -6.33257 -1.54366 0
M  V30 805 N 88.686 -0.835752 -1.33615 0
M  V30 806 C 89.911 -0.442389 -2.02627 0
M  V30 807 C 90.336 0.947735 -1.62479 0
M  V30 808 O 89.694 1.61907 -0.815826 0
M  V30 809 C 89.742 -0.567216 -3.56111 0
M  V30 810 O 88.846 0.407799 -4.10379 0
M  V30 811 H 88.187 -0.180278 -0.639059 0
M  V30 812 H 90.717 -1.12972 -1.70583 0
M  V30 813 H 90.727 -0.447708 -4.05536 0
M  V30 814 H 89.402 -1.58103 -3.84677 0
M  V30 815 H 87.979 0.246107 -3.72087 0
M  V30 816 N 90.1641 1.46063 -0.591896 0
M  V30 817 C 91.4121 2.01938 -0.0808391 0
M  V30 818 C 91.7331 1.46475 1.28725 0
M  V30 819 O 91.0031 0.652944 1.84698 0
M  V30 820 H 89.5831 0.746516 -0.0268938 0
M  V30 821 H 92.2451 1.79055 -0.769752 0
M  V30 822 H 91.3411 3.12094 -0.0187578 0
M  V30 823 N 91.6422 0.330177 1.54103 0
M  V30 824 C 92.8912 -0.271336 1.99867 0
M  V30 825 C 93.2042 -1.52723 1.22209 0
M  V30 826 O 94.4102 -2.20515 1.58383 0
M  V30 827 C 92.8662 -0.534032 3.55916 0
M  V30 828 C 92.4742 0.705193 4.42415 0
M  V30 829 C 94.2182 -1.09514 4.1013 0
M  V30 830 C 92.1252 0.414035 5.89949 0
M  V30 831 H 91.0552 -0.105166 0.74663 0
M  V30 832 H 93.7062 0.443429 1.78062 0
M  V30 833 H 92.0882 -1.30915 3.73734 0
M  V30 834 H 93.2622 1.4804 4.36372 0
M  V30 835 H 91.5772 1.18698 3.99124 0
M  V30 836 H 94.1742 -1.3277 5.17954 0
M  V30 837 H 94.5172 -2.04656 3.62521 0
M  V30 838 H 95.0502 -0.381038 3.95971 0
M  V30 839 H 91.7892 1.33481 6.41766 0
M  V30 840 H 91.3092 -0.323336 5.98928 0
M  V30 841 H 92.9882 0.0263105 6.46995 0
M  V30 842 N 93.1203 -1.57491 0.0584922 0
M  V30 843 C 94.0833 -2.1085 -0.898617 0
M  V30 844 C 95.0833 -1.02964 -1.23511 0
M  V30 845 O 96.2733 -1.29007 -1.17059 0
M  V30 846 C 93.4053 -2.59881 -2.20623 0
M  V30 847 H 94.5983 -2.96715 -0.435936 0
M  V30 848 H 92.1513 -1.55141 -0.190023 0
M  V30 849 H 92.8863 -1.77431 -2.71457 0
M  V30 850 H 92.6713 -3.38727 -1.97501 0
M  V30 851 H 94.1613 -3.01285 -2.89166 0
M  V30 852 N 94.5984 0.214957 -1.56127 0
M  V30 853 C 95.8464 0.936518 -1.79091 0
M  V30 854 C 96.1674 1.84606 -0.628148 0
M  V30 855 O 95.4374 1.92664 0.35462 0
M  V30 856 H 94.0174 0.3488 -0.660566 0
M  V30 857 H 96.6794 0.22523 -1.93594 0
M  V30 858 H 95.7754 1.53943 -2.71492 0
M  V30 859 N 96.0765 1.50051 0.48192 0
M  V30 860 C 97.3245 1.60181 1.23234 0
M  V30 861 C 97.6455 0.299176 1.92691 0
M  V30 862 O 96.9155 -0.682708 1.83619 0
M  V30 863 H 95.4955 0.590232 0.457859 0
M  V30 864 H 98.1575 1.86775 0.556881 0
M  V30 865 H 97.2535 2.40753 1.98607 0
M  V30 866 N 97.5546 -0.734337 1.39446 0
M  V30 867 C 98.7846 -1.52137 1.39778 0
M  V30 868 C 99.1926 -1.89198 -0.00929312 0
M  V30 869 O 98.5356 -1.54666 -0.991168 0
M  V30 870 C 98.5976 -2.83762 2.20724 0
M  V30 871 C 98.2616 -2.69131 3.69347 0
M  V30 872 C 99.2586 -2.37635 4.62413 0
M  V30 873 C 96.9436 -2.85982 4.1294 0
M  V30 874 C 98.9376 -2.23172 5.97054 0
M  V30 875 C 96.6246 -2.71137 5.47657 0
M  V30 876 C 97.6226 -2.39777 6.39528 0
M  V30 877 O 97.3106 -2.25026 7.71763 0
M  V30 878 H 97.0426 -0.476717 0.479288 0
M  V30 879 H 99.5966 -0.915012 1.83893 0
M  V30 880 H 97.8266 -3.4666 1.71359 0
M  V30 881 H 99.5156 -3.45383 2.13226 0
M  V30 882 H 100.282 -2.24267 4.30034 0
M  V30 883 H 96.1606 -3.09383 3.41765 0
M  V30 884 H 99.7046 -1.98617 6.68728 0
M  V30 885 H 95.6016 -2.84083 5.79626 0
M  V30 886 H 96.3696 -2.40091 7.82495 0
M  V30 887 N 99.0327 -1.24633 -0.964593 0
M  V30 888 C 99.9797 -1.04144 -2.05968 0
M  V30 889 C 100.95 0.046262 -1.66036 0
M  V30 890 O 102.135 -0.108972 -1.90489 0
M  V30 891 C 99.2747 -0.65563 -3.38815 0
M  V30 892 C 98.3877 -1.81714 -3.91923 0
M  V30 893 C 97.5227 -1.37662 -5.13052 0
M  V30 894 C 96.5617 -2.50788 -5.58365 0
M  V30 895 N 95.6987 -2.07582 -6.70712 0
M  V30 896 H 100.539 -1.9787 -2.22827 0
M  V30 897 H 98.0757 -0.9855 -1.09208 0
M  V30 898 H 100.034 -0.412954 -4.15151 0
M  V30 899 H 98.6637 0.244627 -3.21872 0
M  V30 900 H 97.7157 -2.1734 -3.12198 0
M  V30 901 H 99.0277 -2.66705 -4.21509 0
M  V30 902 H 98.1817 -1.093 -5.96773 0
M  V30 903 H 96.9207 -0.497293 -4.85158 0
M  V30 904 H 95.9257 -2.79906 -4.73215 0
M  V30 905 H 97.1507 -3.39283 -5.88272 0
M  V30 906 H 95.0967 -1.22051 -6.44546 0
M  V30 907 H 95.0137 -2.86125 -6.99763 0
M  V30 908 H 96.2817 -1.82369 -7.57867 0
M  V30 909 N 100.511 1.16574 -1.06058 0
M  V30 910 C 101.922 1.68662 -0.800632 0
M  V30 911 C 102.273 1.84184 0.67608 0
M  V30 912 O 101.398 1.53568 1.52466 0
M  V30 913 C 101.993 3.06356 -1.44676 0
M  V30 914 C 100.552 3.55575 -1.23465 0
M  V30 915 C 99.6988 2.31616 -1.52477 0
M  V30 916 H 102.65 1.00969 -1.22438 0
M  V30 917 H 102.671 3.70636 -0.860788 0
M  V30 918 H 102.183 2.95027 -2.52152 0
M  V30 919 H 100.284 3.72167 -0.179527 0
M  V30 920 H 100.397 4.37812 -1.94571 0
M  V30 921 H 98.7608 2.36512 -0.945209 0
M  V30 922 H 99.5438 2.22887 -2.61106 0
M  V30 923 N 101.989 0.842826 1.3317 0
M  V30 924 C 103.236 0.440447 1.97652 0
M  V30 925 C 103.564 -1.00123 1.6675 0
M  V30 926 O 102.819 -1.7155 0.941761 0
M  V30 927 C 103.118 0.612607 3.52111 0
M  V30 928 C 102.784 2.02297 4.02972 0
M  V30 929 C 101.446 2.40874 4.16573 0
M  V30 930 C 103.798 2.94402 4.30089 0
M  V30 931 C 101.126 3.70852 4.54627 0
M  V30 932 C 103.478 4.23865 4.69597 0
M  V30 933 C 102.142 4.62392 4.81404 0
M  V30 934 H 101.412 0.161171 0.72326 0
M  V30 935 H 104.059 1.07061 1.58777 0
M  V30 936 H 102.364 -0.100849 3.9167 0
M  V30 937 H 104.061 0.2815 4.00011 0
M  V30 938 H 100.651 1.71338 3.92863 0
M  V30 939 H 104.835 2.65835 4.19101 0
M  V30 940 H 100.091 4.00501 4.61962 0
M  V30 941 H 104.265 4.95306 4.89536 0
M  V30 942 H 101.892 5.63154 5.10648 0
M  V30 943 N 103.467 -1.45747 0.599634 0
M  V30 944 C 104.415 -2.322 -0.136426 0
M  V30 945 C 105.409 -1.45497 -0.867583 0
M  V30 946 O 106.615 -1.62027 -0.78405 0
M  V30 947 H 102.99 -0.749368 -0.0628588 0
M  V30 948 H 104.961 -2.92072 0.611281 0
M  V30 949 C 103.71 -3.28974 -1.12567 0
M  V30 950 H 103.033 -3.9568 -0.572484 0
M  V30 951 H 104.473 -3.92212 -1.61077 0
M  V30 952 C 102.932 -2.55561 -2.19523 0
M  V30 953 O 103.462 -2.33111 -3.27143 0
M  V30 954 N 101.668 -2.15832 -1.94589 0
M  V30 955 H 101.215 -2.3429 -1.07078 0
M  V30 956 H 101.173 -1.67034 -2.66359 0
M  V30 957 N 104.945 -0.338344 -1.53925 0
M  V30 958 C 105.875 0.51328 -2.27789 0
M  V30 959 C 106.856 1.107 -1.29149 0
M  V30 960 O 108.041 1.12937 -1.57984 0
M  V30 961 C 105.171 1.66697 -3.04679 0
M  V30 962 C 104.125 1.20183 -4.1078 0
M  V30 963 C 103.451 2.44363 -4.75595 0
M  V30 964 C 104.751 0.30605 -5.21403 0
M  V30 965 H 106.445 -0.102883 -2.99223 0
M  V30 966 H 103.991 -0.0509219 -1.4391 0
M  V30 967 H 105.944 2.26915 -3.55088 0
M  V30 968 H 104.668 2.30995 -2.30887 0
M  V30 969 H 103.327 0.622499 -3.61276 0
M  V30 970 H 102.975 3.07057 -3.98403 0
M  V30 971 H 102.675 2.13925 -5.47275 0
M  V30 972 H 104.199 3.05317 -5.28786 0
M  V30 973 H 105.613 0.814929 -5.67478 0
M  V30 974 H 104.01 0.0937929 -6.00027 0
M  V30 975 H 105.08 -0.65921 -4.80398 0
M  V30 976 N 106.423 1.57458 -0.0668435 0
M  V30 977 C 107.333 2.15937 0.916975 0
M  V30 978 C 108.349 1.12123 1.33058 0
M  V30 979 O 109.525 1.44366 1.40429 0
M  V30 980 C 106.59 2.70547 2.16807 0
M  V30 981 C 105.651 3.89215 1.81135 0
M  V30 982 C 104.884 4.41211 3.0028 0
M  V30 983 O 105.107 3.92225 4.14144 0
M  V30 984 O 104.041 5.32605 2.80384 0
M  V30 985 H 107.867 3.00354 0.449561 0
M  V30 986 H 105.452 1.48584 0.155949 0
M  V30 987 H 107.334 3.0557 2.90181 0
M  V30 988 H 106.009 1.89192 2.62656 0
M  V30 989 H 104.916 3.59054 1.05028 0
M  V30 990 H 106.249 4.71848 1.40073 0
M  V30 991 N 107.901 -0.206675 1.56239 0
M  V30 992 C 109.129 -0.945345 1.8404 0
M  V30 993 C 109.544 -1.77336 0.647885 0
M  V30 994 O 108.901 -1.78425 -0.383511 0
M  V30 995 C 108.952 -1.8509 3.10522 0
M  V30 996 O 108.673 -1.05634 4.25174 0
M  V30 997 C 110.174 -2.70222 3.51418 0
M  V30 998 H 107.394 -0.276372 0.61144 0
M  V30 999 H 109.938 -0.217417 2.03341 0
M  V30 1000 H 108.093 -2.53259 2.93153 0
M  V30 1001 H 108.507 -1.67238 4.97124 0
M  V30 1002 H 109.981 -3.29438 4.42916 0
M  V30 1003 H 110.458 -3.43358 2.73864 0
M  V30 1004 H 111.064 -2.07443 3.71278 0
M  V30 1005 N 109.379 -1.50304 -0.473955 0
M  V30 1006 C 110.619 -1.62786 -1.23612 0
M  V30 1007 C 110.983 -0.319786 -1.89318 0
M  V30 1008 O 112.184 -0.320012 -2.66888 0
M  V30 1009 C 110.455 -2.77351 -2.25414 0
M  V30 1010 S 112.014 -3.09948 -3.10608 0
M  V30 1011 H 108.832 -0.573895 -0.419721 0
M  V30 1012 H 111.434 -1.88076 -0.533623 0
M  V30 1013 H 110.138 -3.70879 -1.75719 0
M  V30 1014 H 109.669 -2.54137 -3.00296 0
M  V30 1015 H 111.684 -2.53553 -4.26527 0
M  V30 1016 N 110.857 0.726932 -1.39834 0
M  V30 1017 C 112.273 1.03354 -1.21615 0
M  V30 1018 C 112.473 2.01327 -0.08338 0
M  V30 1019 O 111.529 2.46158 0.56238 0
M  V30 1020 C 112.842 1.58811 -2.55342 0
M  V30 1021 C 114.39 1.70851 -2.62257 0
M  V30 1022 C 114.865 2.29716 -3.96225 0
M  V30 1023 N 116.356 2.37116 -3.97907 0
M  V30 1024 C 117.091 2.83619 -4.98345 0
M  V30 1025 N 116.587 3.29958 -6.09179 0
M  V30 1026 N 118.38 2.82901 -4.8572 0
M  V30 1027 H 110.531 0.0773069 -2.12259 0
M  V30 1028 H 112.794 0.0969102 -0.943034 0
M  V30 1029 H 112.5 0.942855 -3.38826 0
M  V30 1030 H 112.374 2.57502 -2.75632 0
M  V30 1031 H 114.761 2.34497 -1.79152 0
M  V30 1032 H 114.842 0.707913 -2.45809 0
M  V30 1033 H 114.486 1.66696 -4.79765 0
M  V30 1034 H 114.416 3.30469 -4.09997 0
M  V30 1035 H 116.907 2.04374 -3.17868 0
M  V30 1036 H 117.22 3.63976 -6.8172 0
M  V30 1037 H 115.565 3.27946 -6.12761 0
M  V30 1038 H 118.756 2.46027 -3.98231 0
M  V30 1039 H 118.929 3.18827 -5.6414 0
M  V30 1040 N 112.336 1.25143 0.95797 0
M  V30 1041 C 113.266 1.07711 2.07173 0
M  V30 1042 C 114.247 -0.0128462 1.70095 0
M  V30 1043 O 115.432 0.156061 1.93572 0
M  V30 1044 C 112.562 0.691503 3.40346 0
M  V30 1045 C 111.516 1.73132 3.9142 0
M  V30 1046 C 110.842 1.20049 5.21049 0
M  V30 1047 C 112.142 3.1294 4.1817 0
M  V30 1048 H 113.836 2.00873 2.22014 0
M  V30 1049 H 111.382 0.967191 1.06684 0
M  V30 1050 H 113.335 0.556505 4.17709 0
M  V30 1051 H 112.059 -0.275819 3.25433 0
M  V30 1052 H 110.718 1.8547 3.16222 0
M  V30 1053 H 110.366 0.223499 5.02503 0
M  V30 1054 H 110.066 1.89545 5.56189 0
M  V30 1055 H 111.59 1.07782 6.01012 0
M  V30 1056 H 113.004 3.03775 4.86203 0
M  V30 1057 H 111.401 3.79875 4.64559 0
M  V30 1058 H 112.471 3.6025 3.24573 0
M  V30 1059 N 113.814 -1.1601 1.06675 0
M  V30 1060 C 114.747 -2.1947 0.625168 0
M  V30 1061 C 115.725 -1.58699 -0.354041 0
M  V30 1062 O 116.909 -1.86669 -0.262098 0
M  V30 1063 C 114.036 -3.38598 -0.0829593 0
M  V30 1064 C 113.082 -4.1787 0.853611 0
M  V30 1065 S 113.915 -4.81135 2.35094 0
M  V30 1066 C 115.071 -6.03639 1.65441 0
M  V30 1067 H 115.304 -2.56587 1.50168 0
M  V30 1068 H 112.837 -1.26862 0.880078 0
M  V30 1069 H 114.795 -4.07621 -0.485288 0
M  V30 1070 H 113.456 -2.99839 -0.935716 0
M  V30 1071 H 112.649 -5.03078 0.304755 0
M  V30 1072 H 112.251 -3.54361 1.196 0
M  V30 1073 H 114.543 -6.70632 0.962201 0
M  V30 1074 H 115.486 -6.63081 2.48454 0
M  V30 1075 H 115.894 -5.52965 1.13534 0
M  V30 1076 N 115.292 -0.849877 -1.32721 0
M  V30 1077 C 116.538 -0.451591 -1.97708 0
M  V30 1078 C 116.871 0.989175 -1.6712 0
M  V30 1079 O 116.146 1.69334 -0.956891 0
M  V30 1080 C 116.429 -0.685598 -3.53513 0
M  V30 1081 C 116.282 -2.17444 -3.93749 0
M  V30 1082 C 117.601 -0.138874 -4.39881 0
M  V30 1083 H 114.72 -0.16555 -0.718166 0
M  V30 1084 H 117.362 -1.06742 -1.57182 0
M  V30 1085 H 115.512 -0.161416 -3.88165 0
M  V30 1086 H 117.184 -2.76433 -3.693 0
M  V30 1087 H 115.427 -2.65476 -3.43081 0
M  V30 1088 H 116.098 -2.28888 -5.02309 0
M  V30 1089 H 118.574 -0.587068 -4.11938 0
M  V30 1090 H 117.45 -0.332213 -5.47894 0
M  V30 1091 H 117.711 0.95806 -4.31594 0
M  V30 1092 N 116.77 1.45427 -0.607355 0
M  V30 1093 C 117.995 2.07124 -0.107006 0
M  V30 1094 C 118.42 1.44906 1.19933 0
M  V30 1095 O 117.778 0.541687 1.73019 0
M  V30 1096 C 117.826 3.60595 0.0194119 0
M  V30 1097 O 116.93 3.98285 1.0697 0
M  V30 1098 H 116.271 0.659868 -0.0739597 0
M  V30 1099 H 118.801 1.86683 -0.837297 0
M  V30 1100 H 118.811 4.07419 0.2177 0
M  V30 1101 H 117.486 4.05266 -0.934453 0
M  V30 1102 H 116.063 3.63133 0.847889 0
M  V30 1103 N 118.248 0.346503 1.53744 0
M  V30 1104 C 119.181 -0.552023 2.21423 0
M  V30 1105 C 120.159 -1.09798 1.19929 0
M  V30 1106 O 121.343 -1.1577 1.4876 0
M  V30 1107 C 118.47 -1.75972 2.89398 0
M  V30 1108 C 117.516 -1.34295 4.04805 0
M  V30 1109 S 118.349 -0.360263 5.34287 0
M  V30 1110 C 119.505 -1.57473 6.05767 0
M  V30 1111 H 119.738 0.0228119 2.97291 0
M  V30 1112 H 117.271 0.130579 1.53847 0
M  V30 1113 H 119.229 -2.45256 3.2918 0
M  V30 1114 H 117.89 -2.30578 2.1329 0
M  V30 1115 H 117.083 -2.24349 4.51313 0
M  V30 1116 H 116.685 -0.729555 3.66815 0
M  V30 1117 H 118.977 -2.50875 6.29339 0
M  V30 1118 H 119.92 -1.15138 6.98676 0
M  V30 1119 H 120.328 -1.77212 5.35963 0
M  V30 1120 N 119.726 -1.57421 0.075193 0
M  V30 1121 C 120.656 -2.15942 -0.888324 0
M  V30 1122 C 121.637 -1.08737 -1.30806 0
M  V30 1123 O 122.822 -1.36787 -1.37851 0
M  V30 1124 C 119.952 -2.72379 -2.1547 0
M  V30 1125 C 118.906 -3.8478 -1.87425 0
M  V30 1126 C 118.232 -4.27834 -3.20721 0
M  V30 1127 C 119.532 -5.08869 -1.17684 0
M  V30 1128 H 121.226 -2.96705 -0.400799 0
M  V30 1129 H 118.772 -1.42723 -0.191342 0
M  V30 1130 H 120.725 -3.11965 -2.83295 0
M  V30 1131 H 119.449 -1.88841 -2.6647 0
M  V30 1132 H 118.108 -3.45703 -1.22004 0
M  V30 1133 H 117.756 -3.41214 -3.6957 0
M  V30 1134 H 117.456 -5.03605 -3.02746 0
M  V30 1135 H 118.98 -4.70039 -3.89738 0
M  V30 1136 H 120.394 -5.4575 -1.75584 0
M  V30 1137 H 118.791 -5.8994 -1.09956 0
M  V30 1138 H 119.861 -4.84648 -0.156453 0
M  V30 1139 N 121.204 0.198386 -1.56346 0
M  V30 1140 C 122.481 0.944982 -1.71258 0
M  V30 1141 C 122.861 2.0151 -0.629048 0
M  V30 1142 O 122.209 2.25639 0.360473 0
M  V30 1143 C 122.419 1.5344 -3.1346 0
M  V30 1144 C 123.767 2.01778 -3.73591 0
M  V30 1145 O 124.791 1.63288 -3.16568 0
M  V30 1146 O 123.65 2.72594 -4.73661 0
M  V30 1147 H 120.744 0.442939 -0.69838 0
M  V30 1148 H 123.29 0.188342 -1.68652 0
M  V30 1149 H 122.062 0.762869 -3.83792 0
M  V30 1150 H 121.685 2.35596 -3.20282 0
M  V30 1151 N 122.682 1.50554 0.465978 0
M  V30 1152 C 124.098 1.38093 0.800154 0
M  V30 1153 C 124.298 0.440988 1.96615 0
M  V30 1154 O 123.354 -0.114499 2.5224 0
M  V30 1155 C 124.667 2.79565 1.10742 0
M  V30 1156 C 126.215 2.88516 1.21357 0
M  V30 1157 C 126.69 4.30833 1.55393 0
M  V30 1158 N 128.181 4.33807 1.62375 0
M  V30 1159 C 128.916 5.40927 1.90225 0
M  V30 1160 N 128.412 6.58247 2.16062 0
M  V30 1161 N 130.205 5.28376 1.9177 0
M  V30 1162 H 122.356 2.10237 -0.302366 0
M  V30 1163 H 124.619 0.945203 -0.0727746 0
M  V30 1164 H 124.325 3.50208 0.323661 0
M  V30 1165 H 124.199 3.17125 2.04234 0
M  V30 1166 H 126.586 2.1809 1.98799 0
M  V30 1167 H 126.667 2.54492 0.258321 0
M  V30 1168 H 126.311 5.01799 0.784889 0
M  V30 1169 H 126.241 4.62347 2.52076 0
M  V30 1170 H 128.732 3.49212 1.44427 0
M  V30 1171 H 129.045 7.3569 2.36601 0
M  V30 1172 H 127.39 6.61413 2.13444 0
M  V30 1173 H 130.581 4.35715 1.71085 0
M  V30 1174 H 130.754 6.11944 2.13139 0
M  V30 1175 N 124.16 -0.719506 1.40217 0
M  V30 1176 C 125.437 -1.47221 1.28784 0
M  V30 1177 C 125.817 -2.10883 -0.0956067 0
M  V30 1178 O 125.165 -1.99833 -1.10811 0
M  V30 1179 C 125.375 -2.5111 2.42373 0
M  V30 1180 C 126.723 -3.17053 2.82423 0
M  V30 1181 O 127.747 -2.61429 2.41937 0
M  V30 1182 O 126.606 -4.17742 3.52355 0
M  V30 1183 H 123.7 -0.654491 0.50554 0
M  V30 1184 H 126.246 -0.752014 1.52128 0
M  V30 1185 H 125.018 -2.02556 3.34793 0
M  V30 1186 H 124.641 -3.3067 2.20778 0
M  V30 1187 N 125.638 -1.25649 -0.95132 0
M  V30 1188 C 126.571 -1.00644 -2.04807 0
M  V30 1189 C 127.549 0.0654271 -1.62468 0
M  V30 1190 O 128.733 -0.074911 -1.88351 0
M  V30 1191 C 125.86 -0.522052 -3.34653 0
M  V30 1192 C 124.906 -1.58495 -3.95957 0
M  V30 1193 S 125.739 -3.17108 -4.31512 0
M  V30 1194 C 126.895 -2.70412 -5.64471 0
M  V30 1195 H 127.128 -1.93508 -2.25703 0
M  V30 1196 H 124.661 -1.09216 -1.09139 0
M  V30 1197 H 126.619 -0.24923 -4.09743 0
M  V30 1198 H 125.28 0.386146 -3.11717 0
M  V30 1199 H 124.473 -1.1968 -4.89584 0
M  V30 1200 H 124.075 -1.80862 -3.2736 0
M  V30 1201 H 126.367 -2.14245 -6.42733 0
M  V30 1202 H 127.31 -3.62693 -6.08161 0
M  V30 1203 H 127.718 -2.10302 -5.23864 0
M  V30 1204 N 127.117 1.15442 -1.07289 0
M  V30 1205 C 128.342 1.90638 -0.816828 0
M  V30 1206 C 128.767 1.77445 0.624083 0
M  V30 1207 O 128.125 1.10671 1.43602 0
M  V30 1208 C 128.173 3.39008 -1.22906 0
M  V30 1209 O 127.277 4.10701 -0.373975 0
M  V30 1210 H 126.618 0.593555 -0.297638 0
M  V30 1211 H 129.148 1.46198 -1.43134 0
M  V30 1212 H 129.158 3.89801 -1.20497 0
M  V30 1213 H 127.833 3.47929 -2.27856 0
M  V30 1214 H 126.41 3.70046 -0.460499 0
M  V30 1215 N 128.595 0.856903 1.32268 0
M  V30 1216 C 129.843 0.460474 1.96784 0
M  V30 1217 C 130.164 -0.987701 1.68135 0
M  V30 1218 O 129.434 -1.69058 0.989765 0
M  V30 1219 H 128.014 0.167289 0.728027 0
M  V30 1220 H 130.676 1.09383 1.61312 0
M  V30 1221 H 129.772 0.60739 3.06133 0
M  V30 1222 N 130.073 -1.45103 0.615059 0
M  V30 1223 C 131.301 -2.06553 0.11977 0
M  V30 1224 C 131.716 -1.45842 -1.19898 0
M  V30 1225 O 131.073 -0.575325 -1.73194 0
M  V30 1226 C 131.124 -3.61495 -0.018364 0
M  V30 1227 O 130.845 -4.19942 1.24822 0
M  V30 1228 C 132.346 -4.39947 -0.544237 0
M  V30 1229 H 129.566 -0.667096 0.0722739 0
M  V30 1230 H 132.11 -1.8623 0.84491 0
M  V30 1231 H 130.265 -3.81135 -0.693865 0
M  V30 1232 H 130.679 -5.13204 1.0827 0
M  V30 1233 H 132.153 -5.48838 -0.589953 0
M  V30 1234 H 132.63 -4.10255 -1.56805 0
M  V30 1235 H 133.236 -4.25188 0.0974703 0
M  V30 1236 N 131.551 -0.354651 -1.53558 0
M  V30 1237 C 132.484 0.540273 -2.21712 0
M  V30 1238 C 133.462 1.09161 -1.2051 0
M  V30 1239 O 134.646 1.14979 -1.49372 0
M  V30 1240 C 131.773 1.74435 -2.90328 0
M  V30 1241 C 130.819 1.32146 -4.05512 0
M  V30 1242 S 131.652 0.331924 -5.3447 0
M  V30 1243 C 132.808 1.54258 -6.06593 0
M  V30 1244 H 133.041 -0.0385776 -2.97275 0
M  V30 1245 H 130.574 -0.138736 -1.53775 0
M  V30 1246 H 132.532 2.43507 -3.30476 0
M  V30 1247 H 131.193 2.29444 -2.1451 0
M  V30 1248 H 130.386 2.21952 -4.52497 0
M  V30 1249 H 129.988 0.710091 -3.67197 0
M  V30 1250 H 132.28 2.47534 -6.30661 0
M  V30 1251 H 133.223 1.11431 -6.99277 0
M  V30 1252 H 133.631 1.74367 -5.36895 0
M  V30 1253 N 133.029 1.57378 -0.0835403 0
M  V30 1254 C 134.277 1.93547 0.581718 0
M  V30 1255 C 134.598 0.96524 1.69435 0
M  V30 1256 O 133.868 0.0153369 1.95894 0
M  V30 1257 H 132.448 0.714521 0.217874 0
M  V30 1258 H 135.11 1.94366 -0.144158 0
M  V30 1259 H 134.206 2.95665 0.999423 0
M  V30 1260 N 134.507 -0.190092 1.56449 0
M  V30 1261 C 135.754 -0.909705 1.80916 0
M  V30 1262 C 136.082 -1.83047 0.657583 0
M  V30 1263 O 135.337 -1.92428 -0.356356 0
M  V30 1264 C 135.636 -1.75382 3.1141 0
M  V30 1265 C 135.302 -0.983606 4.40041 0
M  V30 1266 C 133.964 -0.770967 4.74984 0
M  V30 1267 C 136.316 -0.442024 5.19322 0
M  V30 1268 C 133.644 -0.0053448 5.867 0
M  V30 1269 C 135.996 0.310412 6.31838 0
M  V30 1270 C 134.66 0.534023 6.6536 0
M  V30 1271 H 133.93 -0.332885 0.662019 0
M  V30 1272 H 136.577 -0.175762 1.90692 0
M  V30 1273 H 134.882 -2.55659 2.96893 0
M  V30 1274 H 136.579 -2.31331 3.27547 0
M  V30 1275 H 133.169 -1.15936 4.12622 0
M  V30 1276 H 137.353 -0.593693 4.92736 0
M  V30 1277 H 132.609 0.177825 6.11141 0
M  V30 1278 H 136.783 0.737419 6.92485 0
M  V30 1279 H 134.41 1.12918 7.51767 0
M  V30 1280 N 135.985 -1.50799 -0.457987 0
M  V30 1281 C 136.933 -1.71162 -1.575 0
M  V30 1282 C 137.927 -0.577592 -1.59249 0
M  V30 1283 O 139.133 -0.758443 -1.63241 0
M  V30 1284 H 135.508 -0.540468 -0.522875 0
M  V30 1285 H 137.479 -2.64837 -1.37492 0
M  V30 1286 C 136.228 -1.83496 -2.95338 0
M  V30 1287 H 135.551 -2.70153 -2.94716 0
M  V30 1288 H 136.991 -2.01765 -3.72917 0
M  V30 1289 C 135.45 -0.589694 -3.31699 0
M  V30 1290 O 135.98 0.265163 -4.00824 0
M  V30 1291 N 134.186 -0.439845 -2.87252 0
M  V30 1292 H 133.733 -1.13655 -2.31172 0
M  V30 1293 H 133.691 0.392159 -3.11945 0
M  V30 1294 N 137.463 0.71206 -1.40597 0
M  V30 1295 C 138.373 1.8562 -1.43466 0
M  V30 1296 C 139.389 1.70902 -0.326902 0
M  V30 1297 O 140.565 1.93105 -0.572043 0
M  V30 1298 C 137.63 3.21451 -1.29884 0
M  V30 1299 C 136.691 3.48398 -2.50833 0
M  V30 1300 C 135.924 4.77749 -2.3789 0
M  V30 1301 O 136.147 5.53089 -1.39459 0
M  V30 1302 O 135.081 5.05111 -3.27333 0
M  V30 1303 H 138.907 1.86155 -2.39958 0
M  V30 1304 H 136.492 0.86295 -1.21957 0
M  V30 1305 H 138.374 4.02579 -1.24531 0
M  V30 1306 H 137.049 3.21636 -0.364997 0
M  V30 1307 H 135.956 2.67265 -2.61763 0
M  V30 1308 H 137.289 3.53014 -3.4299 0
M  V30 1309 N 138.941 1.26152 0.944643 0
M  V30 1310 C 140.188 1.11492 1.69044 0
M  V30 1311 C 140.516 -0.342366 1.91463 0
M  V30 1312 O 139.771 -1.26812 1.49054 0
M  V30 1313 C 140.07 1.82541 3.07268 0
M  V30 1314 C 139.736 3.32445 3.04616 0
M  V30 1315 C 138.398 3.73337 3.036 0
M  V30 1316 C 140.75 4.28171 2.97185 0
M  V30 1317 C 138.078 5.08348 2.92915 0
M  V30 1318 C 140.43 5.63218 2.88041 0
M  V30 1319 C 139.094 6.03426 2.85366 0
M  V30 1320 H 138.364 0.407977 0.618576 0
M  V30 1321 H 141.011 1.56551 1.10291 0
M  V30 1322 H 139.316 1.29941 3.69625 0
M  V30 1323 H 141.013 1.68642 3.63815 0
M  V30 1324 H 137.603 2.99915 3.06185 0
M  V30 1325 H 141.787 3.97563 2.97081 0
M  V30 1326 H 137.043 5.38667 2.89219 0
M  V30 1327 H 141.217 6.37078 2.81254 0
M  V30 1328 H 138.844 7.07999 2.76842 0
M  V30 1329 N 140.419 -1.14872 1.07899 0
M  V30 1330 C 141.366 -2.19791 0.704319 0
M  V30 1331 C 142.336 -1.63238 -0.306987 0
M  V30 1332 O 143.521 -1.8983 -0.192171 0
M  V30 1333 C 140.661 -3.44911 0.114244 0
M  V30 1334 C 139.774 -4.15637 1.1777 0
M  V30 1335 C 138.909 -5.28324 0.552037 0
M  V30 1336 C 137.948 -5.90875 1.59789 0
M  V30 1337 N 137.085 -6.95022 0.994404 0
M  V30 1338 H 141.925 -2.5119 1.60336 0
M  V30 1339 H 139.462 -1.23356 0.801352 0
M  V30 1340 H 141.42 -4.16477 -0.245544 0
M  V30 1341 H 140.05 -3.14011 -0.74813 0
M  V30 1342 H 139.102 -3.42512 1.65499 0
M  V30 1343 H 140.414 -4.5823 1.97046 0
M  V30 1344 H 139.568 -6.06538 0.1402 0
M  V30 1345 H 138.307 -4.86939 -0.272431 0
M  V30 1346 H 137.312 -5.11369 2.01945 0
M  V30 1347 H 138.537 -6.34337 2.42474 0
M  V30 1348 H 136.483 -6.55722 0.190939 0
M  V30 1349 H 136.4 -7.36073 1.72432 0
M  V30 1350 H 137.668 -7.77123 0.608253 0
M  V30 1351 N 141.898 -0.863906 -1.31812 0
M  V30 1352 C 142.808 -0.318461 -2.32428 0
M  V30 1353 C 143.824 0.568496 -1.64451 0
M  V30 1354 O 145 0.46666 -1.95919 0
M  V30 1355 C 142.065 0.476355 -3.43412 0
M  V30 1356 C 141.126 -0.43784 -4.27061 0
M  V30 1357 C 140.359 0.319138 -5.32745 0
M  V30 1358 O 140.582 1.54799 -5.48993 0
M  V30 1359 O 139.516 -0.319861 -6.01049 0
M  V30 1360 H 143.342 -1.15229 -2.80991 0
M  V30 1361 H 140.927 -0.627103 -1.35602 0
M  V30 1362 H 142.809 0.927156 -4.11074 0
M  V30 1363 H 141.484 1.28683 -2.97022 0
M  V30 1364 H 140.391 -0.937013 -3.62175 0
M  V30 1365 H 141.724 -1.21375 -4.77 0
M  V30 1366 N 143.376 1.44774 -0.622745 0
M  V30 1367 C 144.306 2.33382 0.0741861 0
M  V30 1368 C 145.287 1.47719 0.843387 0
M  V30 1369 O 146.472 1.76458 0.810934 0
M  V30 1370 C 143.602 3.30663 1.06204 0
M  V30 1371 C 142.556 4.26079 0.405037 0
M  V30 1372 C 141.882 5.13165 1.5022 0
M  V30 1373 C 143.182 5.1781 -0.683414 0
M  V30 1374 H 144.876 2.91905 -0.665713 0
M  V30 1375 H 142.422 1.40363 -0.321587 0
M  V30 1376 H 144.375 3.9153 1.55827 0
M  V30 1377 H 143.099 2.70331 1.83272 0
M  V30 1378 H 141.758 3.66532 -0.0704683 0
M  V30 1379 H 141.406 4.49191 2.26355 0
M  V30 1380 H 141.106 5.77812 1.06803 0
M  V30 1381 H 142.63 5.76902 2.00041 0
M  V30 1382 H 144.044 5.72661 -0.270631 0
M  V30 1383 H 142.441 5.91015 -1.04023 0
M  V30 1384 H 143.511 4.59326 -1.55395 0
M  V30 1385 N 144.854 0.36279 1.53368 0
M  V30 1386 C 146.1 -0.220702 2.02199 0
M  V30 1387 C 146.455 -1.46649 1.24546 0
M  V30 1388 O 145.748 -1.88737 0.32996 0
M  V30 1389 C 145.942 -0.568417 3.52851 0
M  V30 1390 C 145.771 0.642126 4.45092 0
M  V30 1391 C 144.541 1.15335 4.91961 0
M  V30 1392 C 146.739 1.50649 4.91741 0
M  V30 1393 N 144.721 2.3242 5.68202 0
M  V30 1394 C 146.092 2.52404 5.66297 0
M  V30 1395 C 148.147 1.52969 4.73819 0
M  V30 1396 C 146.85 3.56331 6.24836 0
M  V30 1397 C 148.876 2.55789 5.33222 0
M  V30 1398 C 148.238 3.56268 6.07662 0
M  V30 1399 H 144.337 -0.0435508 0.780786 0
M  V30 1400 H 146.921 0.506704 1.87991 0
M  V30 1401 H 145.092 -1.2649 3.67226 0
M  V30 1402 H 146.824 -1.13676 3.88407 0
M  V30 1403 H 143.579 0.718412 4.68119 0
M  V30 1404 H 144.003 2.91591 6.10986 0
M  V30 1405 H 148.645 0.766418 4.15795 0
M  V30 1406 H 146.363 4.33543 6.81958 0
M  V30 1407 H 149.949 2.58435 5.21251 0
M  V30 1408 H 148.829 4.34524 6.52808 0
M  V30 1409 N 146.332 -1.57332 0.0918853 0
M  V30 1410 C 147.295 -2.12708 -0.85369 0
M  V30 1411 C 148.295 -1.05561 -1.213 0
M  V30 1412 O 149.485 -1.31461 -1.14296 0
M  V30 1413 C 146.617 -2.64503 -2.15061 0
M  V30 1414 H 147.81 -2.97573 -0.3729 0
M  V30 1415 H 145.363 -1.55509 -0.157072 0
M  V30 1416 H 146.098 -1.83149 -2.67632 0
M  V30 1417 H 145.883 -3.4284 -1.90272 0
M  V30 1418 H 147.373 -3.07351 -2.82711 0
M  V30 1419 N 147.81 0.181792 -1.56548 0
M  V30 1420 C 149.056 0.901431 -1.81665 0
M  V30 1421 C 149.389 1.82347 -0.668075 0
M  V30 1422 O 148.664 1.91669 0.330615 0
M  V30 1423 C 148.947 1.70618 -3.17115 0
M  V30 1424 C 148.8 0.807964 -4.42484 0
M  V30 1425 C 150.119 2.67605 -3.49393 0
M  V30 1426 H 147.238 0.32627 -0.660846 0
M  V30 1427 H 149.88 0.168134 -1.89255 0
M  V30 1428 H 148.03 2.33133 -3.10775 0
M  V30 1429 H 149.702 0.19649 -4.60881 0
M  V30 1430 H 147.945 0.115411 -4.33646 0
M  V30 1431 H 148.616 1.40632 -5.33785 0
M  V30 1432 H 151.092 2.15218 -3.56118 0
M  V30 1433 H 149.968 3.20985 -4.45264 0
M  V30 1434 H 150.229 3.47298 -2.73563 0
M  V30 1435 N 149.288 1.51039 0.449983 0
M  V30 1436 C 150.218 1.74379 1.55288 0
M  V30 1437 C 151.199 0.593236 1.5942 0
M  V30 1438 O 152.384 0.834625 1.7535 0
M  V30 1439 C 149.514 1.85728 2.93466 0
M  V30 1440 C 148.468 3.01078 3.04197 0
M  V30 1441 C 147.794 2.97595 4.44231 0
M  V30 1442 C 149.094 4.41254 2.7945 0
M  V30 1443 H 150.788 2.66725 1.36008 0
M  V30 1444 H 148.334 1.2835 0.652864 0
M  V30 1445 H 150.287 2.0064 3.70569 0
M  V30 1446 H 149.011 0.900207 3.13949 0
M  V30 1447 H 147.67 2.85851 2.29531 0
M  V30 1448 H 147.318 1.99691 4.61663 0
M  V30 1449 H 147.018 3.75046 4.52343 0
M  V30 1450 H 148.542 3.14583 5.23326 0
M  V30 1451 H 149.956 4.56897 3.46292 0
M  V30 1452 H 148.353 5.20315 2.98985 0
M  V30 1453 H 149.423 4.52164 1.75144 0
M  V30 1454 N 150.766 -0.704594 1.40972 0
M  V30 1455 C 151.714 -1.83994 1.42299 0
M  V30 1456 C 152.708 -1.66684 0.302111 0
M  V30 1457 O 153.914 -1.73655 0.473697 0
M  V30 1458 H 150.289 -0.606171 0.44504 0
M  V30 1459 H 152.26 -1.79992 2.38003 0
M  V30 1460 C 151.009 -3.21946 1.31323 0
M  V30 1461 H 150.332 -3.35878 2.16855 0
M  V30 1462 H 151.772 -4.01491 1.36311 0
M  V30 1463 C 150.231 -3.36891 0.0245977 0
M  V30 1464 O 150.761 -3.90687 -0.934153 0
M  V30 1465 N 148.967 -2.90559 -0.0485243 0
M  V30 1466 H 148.514 -2.46968 0.732419 0
M  V30 1467 H 148.472 -3.00937 -0.910171 0
M  V30 1468 N 152.244 -1.26651 -0.937939 0
M  V30 1469 C 153.492 -1.12165 -1.68118 0
M  V30 1470 C 153.813 0.334983 -1.92101 0
M  V30 1471 O 153.083 1.23583 -1.52 0
M  V30 1472 H 151.663 -0.412093 -0.623048 0
M  V30 1473 H 154.325 -1.59027 -1.12678 0
M  V30 1474 H 153.421 -1.64289 -2.6536 0
M  V30 1475 N 153.722 1.14298 -1.08507 0
M  V30 1476 C 154.968 1.85854 -0.826438 0
M  V30 1477 C 155.323 1.81413 0.640878 0
M  V30 1478 O 154.616 1.23463 1.46518 0
M  V30 1479 C 154.81 3.33547 -1.28379 0
M  V30 1480 C 154.639 3.52369 -2.79403 0
M  V30 1481 C 153.409 3.67159 -3.47164 0
M  V30 1482 C 155.607 3.49203 -3.77573 0
M  V30 1483 N 153.589 3.74149 -4.86709 0
M  V30 1484 C 154.96 3.6245 -5.03021 0
M  V30 1485 C 157.015 3.32547 -3.70563 0
M  V30 1486 C 155.718 3.60761 -6.2229 0
M  V30 1487 C 157.744 3.32162 -4.89308 0
M  V30 1488 C 157.106 3.45949 -6.13595 0
M  V30 1489 H 153.205 0.696705 -0.355143 0
M  V30 1490 H 155.789 1.36981 -1.38362 0
M  V30 1491 H 153.96 3.81008 -0.754166 0
M  V30 1492 H 155.692 3.92867 -0.971469 0
M  V30 1493 H 152.447 3.68433 -2.9758 0
M  V30 1494 H 152.871 3.81359 -5.5937 0
M  V30 1495 H 157.513 3.20797 -2.75407 0
M  V30 1496 H 155.231 3.71286 -7.17755 0
M  V30 1497 H 158.817 3.20485 -4.85573 0
M  V30 1498 H 157.697 3.456 -7.03939 0
M  V30 1499 N 155.201 0.870884 1.31352 0
M  V30 1500 C 156.617 0.562932 1.49343 0
M  V30 1501 C 156.817 -0.902725 1.80148 0
M  V30 1502 O 155.873 -1.68484 1.88067 0
M  V30 1503 C 157.186 1.46393 2.62659 0
M  V30 1504 C 158.734 1.46607 2.76542 0
M  V30 1505 C 159.209 2.35266 3.92955 0
M  V30 1506 N 160.7 2.33151 4.00243 0
M  V30 1507 C 161.435 2.98471 4.89594 0
M  V30 1508 N 160.931 3.72964 5.8384 0
M  V30 1509 N 162.724 2.87775 4.82848 0
M  V30 1510 H 154.875 1.81923 1.09626 0
M  V30 1511 H 157.138 0.777934 0.541777 0
M  V30 1512 H 156.844 2.50689 2.46674 0
M  V30 1513 H 156.718 1.16314 3.58819 0
M  V30 1514 H 159.105 0.43069 2.9194 0
M  V30 1515 H 159.186 1.8071 1.81046 0
M  V30 1516 H 158.83 3.38881 3.78315 0
M  V30 1517 H 158.76 1.98487 4.87761 0
M  V30 1518 H 161.251 1.79006 3.32814 0
M  V30 1519 H 161.564 4.19932 6.4875 0
M  V30 1520 H 159.909 3.77073 5.83816 0
M  V30 1521 H 163.1 2.29116 4.08195 0
M  V30 1522 H 163.273 3.38961 5.52277 0
M  V30 1523 N 156.679 -1.44442 0.630414 0
M  V30 1524 C 157.611 -2.2892 -0.113347 0
M  V30 1525 C 158.624 -1.41243 -0.80959 0
M  V30 1526 O 159.813 -1.65402 -0.671156 0
M  V30 1527 C 156.913 -3.17594 -1.18266 0
M  V30 1528 C 156.086 -4.33682 -0.569073 0
M  V30 1529 C 155.145 -5.03397 -1.53226 0
M  V30 1530 O 154.171 -5.59438 -1.04967 0
M  V30 1531 N 155.373 -5.04783 -2.86661 0
M  V30 1532 H 158.138 -2.93392 0.611636 0
M  V30 1533 H 155.699 -1.54881 0.471523 0
M  V30 1534 H 157.691 -3.61097 -1.82732 0
M  V30 1535 H 156.261 -2.54876 -1.80988 0
M  V30 1536 H 155.481 -3.9338 0.254187 0
M  V30 1537 H 156.769 -5.08608 -0.139767 0
M  V30 1538 H 156.167 -4.60584 -3.28449 0
M  V30 1539 H 154.724 -5.52077 -3.46489 0
M  V30 1540 N 158.157 -0.370918 -1.53173 0
M  V30 1541 C 159.107 0.489588 -2.22681 0
M  V30 1542 C 160.091 1.04442 -1.22395 0
M  V30 1543 O 161.283 0.973578 -1.47819 0
M  V30 1544 C 158.412 1.626 -3.02351 0
M  V30 1545 C 157.498 1.08379 -4.10018 0
M  V30 1546 N 157.889 0.265004 -5.05105 0
M  V30 1547 C 156.187 1.35809 -4.2482 0
M  V30 1548 C 156.888 -0.0324755 -5.81691 0
M  V30 1549 N 155.864 0.566581 -5.40639 0
M  V30 1550 H 159.666 -0.142729 -2.93553 0
M  V30 1551 H 157.18 -0.179221 -1.61408 0
M  V30 1552 H 159.177 2.2547 -3.50669 0
M  V30 1553 H 157.837 2.26132 -2.33011 0
M  V30 1554 H 158.848 -0.0962352 -5.17811 0
M  V30 1555 H 155.525 1.9958 -3.66707 0
M  V30 1556 H 156.915 -0.69473 -6.68299 0
M  V30 1557 N 159.635 1.57281 -0.100228 0
M  V30 1558 C 160.882 1.94537 0.562268 0
M  V30 1559 C 161.21 0.982315 1.67871 0
M  V30 1560 O 160.465 0.00280936 1.957 0
M  V30 1561 C 160.764 3.38305 1.15259 0
M  V30 1562 C 160.43 4.50618 0.159409 0
M  V30 1563 C 159.092 4.81066 -0.113741 0
M  V30 1564 C 161.444 5.18615 -0.518461 0
M  V30 1565 C 158.772 5.76835 -1.07137 0
M  V30 1566 C 161.124 6.15412 -1.46459 0
M  V30 1567 C 159.788 6.44262 -1.74592 0
M  V30 1568 H 159.058 0.711863 0.205748 0
M  V30 1569 H 161.705 1.90679 -0.17715 0
M  V30 1570 H 160.01 3.38766 1.96836 0
M  V30 1571 H 161.707 3.64435 1.67297 0
M  V30 1572 H 158.297 4.2689 0.382491 0
M  V30 1573 H 162.481 4.95264 -0.320581 0
M  V30 1574 H 157.737 5.975 -1.29628 0
M  V30 1575 H 161.911 6.67194 -1.99564 0
M  V30 1576 H 159.538 7.1828 -2.48953 0
M  V30 1577 N 161.113 -0.173488 1.56642 0
M  V30 1578 C 162.362 -0.888758 1.81063 0
M  V30 1579 C 162.675 -1.83506 0.67712 0
M  V30 1580 O 163.881 -2.59254 0.806206 0
M  V30 1581 C 162.337 -1.63091 3.20826 0
M  V30 1582 C 161.945 -0.728357 4.4204 0
M  V30 1583 C 163.689 -2.33454 3.54541 0
M  V30 1584 C 161.596 -1.47062 5.72823 0
M  V30 1585 H 160.526 -0.335618 0.675186 0
M  V30 1586 H 163.177 -0.141712 1.82952 0
M  V30 1587 H 161.559 -2.42263 3.13248 0
M  V30 1588 H 162.733 0.0262449 4.60793 0
M  V30 1589 H 161.048 -0.134492 4.16183 0
M  V30 1590 H 163.645 -2.89578 4.49498 0
M  V30 1591 H 163.988 -3.08687 2.79317 0
M  V30 1592 H 164.521 -1.61227 3.63663 0
M  V30 1593 H 161.26 -0.760658 6.51072 0
M  V30 1594 H 160.78 -2.1986 5.58052 0
M  V30 1595 H 162.459 -2.01868 6.14702 0
M  V30 1596 N 162.591 -1.51276 -0.441967 0
M  V30 1597 C 163.816 -1.67799 -1.21895 0
M  V30 1598 C 164.241 -0.372864 -1.84367 0
M  V30 1599 O 163.599 0.666501 -1.68604 0
M  V30 1600 C 163.647 -2.79199 -2.28211 0
M  V30 1601 O 162.751 -2.42479 -3.33583 0
M  V30 1602 H 162.092 -0.559649 -0.357336 0
M  V30 1603 H 164.622 -1.97815 -0.522522 0
M  V30 1604 H 164.632 -3.03146 -2.73069 0
M  V30 1605 H 163.307 -3.73906 -1.82118 0
M  V30 1606 H 161.884 -2.29087 -2.94234 0
M  V30 1607 N 164.069 0.697108 -1.41344 0
M  V30 1608 C 165.316 1.45714 -1.40619 0
M  V30 1609 C 165.644 1.94494 -0.0147907 0
M  V30 1610 O 164.899 1.69794 0.973066 0
M  V30 1611 C 165.198 2.68553 -2.35826 0
M  V30 1612 C 164.864 2.38438 -3.82698 0
M  V30 1613 C 163.526 2.29936 -4.22709 0
M  V30 1614 C 165.878 2.13567 -4.75435 0
M  V30 1615 C 163.206 1.94656 -5.53467 0
M  V30 1616 C 165.558 1.79797 -6.06511 0
M  V30 1617 C 164.222 1.69789 -6.45545 0
M  V30 1618 H 163.492 0.533206 -0.51456 0
M  V30 1619 H 166.139 0.796901 -1.74131 0
M  V30 1620 H 164.444 3.39503 -1.95563 0
M  V30 1621 H 166.141 3.2669 -2.32539 0
M  V30 1622 H 162.731 2.4595 -3.51008 0
M  V30 1623 H 166.915 2.19082 -4.45328 0
M  V30 1624 H 162.171 1.8546 -5.82593 0
M  V30 1625 H 166.345 1.59572 -6.77872 0
M  V30 1626 H 163.972 1.4222 -7.46778 0
M  V30 1627 N 165.547 1.27147 0.931209 0
M  V30 1628 C 166.824 1.0401 1.65654 0
M  V30 1629 C 167.204 -0.426297 2.06751 0
M  V30 1630 O 166.552 -1.40879 1.79904 0
M  V30 1631 C 166.762 1.99834 2.86125 0
M  V30 1632 C 168.11 2.29007 3.57549 0
M  V30 1633 O 169.134 1.97779 2.96246 0
M  V30 1634 O 167.993 2.82222 4.67989 0
M  V30 1635 H 165.087 0.396239 0.725895 0
M  V30 1636 H 167.633 1.38397 0.982056 0
M  V30 1637 H 166.405 2.98744 2.52721 0
M  V30 1638 H 166.028 1.65987 3.61295 0
M  V30 1639 N 167.025 -1.13721 1.09112 0
M  V30 1640 C 168.253 -1.88773 0.846899 0
M  V30 1641 C 168.668 -1.7896 -0.601572 0
M  V30 1642 O 168.025 -1.15394 -1.41388 0
M  V30 1643 C 168.076 -3.3849 1.26913 0
M  V30 1644 O 167.797 -3.48043 2.66079 0
M  V30 1645 C 169.298 -4.30518 1.05682 0
M  V30 1646 H 166.518 -0.59772 0.304914 0
M  V30 1647 H 169.062 -1.43977 1.45227 0
M  V30 1648 H 167.217 -3.80881 0.707723 0
M  V30 1649 H 167.631 -4.4109 2.83795 0
M  V30 1650 H 169.105 -5.3391 1.40156 0
M  V30 1651 H 169.582 -4.392 -0.00563416 0
M  V30 1652 H 170.188 -3.93893 1.60402 0
M  V30 1653 N 168.503 -0.877838 -1.30888 0
M  V30 1654 C 169.78 -0.413052 -1.91189 0
M  V30 1655 C 170.16 1.1056 -1.79832 0
M  V30 1656 O 169.508 1.93771 -1.21099 0
M  V30 1657 C 169.718 -0.903191 -3.3711 0
M  V30 1658 C 171.066 -0.93395 -4.14201 0
M  V30 1659 O 172.09 -0.849373 -3.45925 0
M  V30 1660 O 170.949 -1.05772 -5.36167 0
M  V30 1661 H 168.043 -0.125035 -0.817493 0
M  V30 1662 H 170.589 -0.966269 -1.39504 0
M  V30 1663 H 169.361 -1.94692 -3.39427 0
M  V30 1664 H 168.984 -0.328732 -3.96239 0
M  V30 1665 N 169.982 1.44106 -0.638065 0
M  V30 1666 C 171.398 1.56672 -0.304286 0
M  V30 1667 C 171.598 1.6244 1.19228 0
M  V30 1668 O 170.654 1.57121 1.9766 0
M  V30 1669 C 171.967 2.83503 -1.00231 0
M  V30 1670 C 173.515 2.97226 -0.981116 0
M  V30 1671 C 173.99 4.26868 -1.65974 0
M  V30 1672 N 175.481 4.33698 -1.62666 0
M  V30 1673 C 176.216 5.32745 -2.12063 0
M  V30 1674 N 175.712 6.38157 -2.6968 0
M  V30 1675 N 177.505 5.24299 -2.02651 0
M  V30 1676 H 169.656 1.38605 -1.60942 0
M  V30 1677 H 171.919 0.664661 -0.675965 0
M  V30 1678 H 171.625 2.85251 -2.0573 0
M  V30 1679 H 171.499 3.73251 -0.54439 0
M  V30 1680 H 173.886 2.95027 0.0654188 0
M  V30 1681 H 173.967 2.08808 -1.47759 0
M  V30 1682 H 173.611 4.29826 -2.70576 0
M  V30 1683 H 173.541 5.14156 -1.13804 0
M  V30 1684 H 176.032 3.58138 -1.20606 0
M  V30 1685 H 176.345 7.10029 -3.05087 0
M  V30 1686 H 174.69 6.38823 -2.73734 0
M  V30 1687 H 177.881 4.4086 -1.57353 0
M  V30 1688 H 178.054 6.01334 -2.41457 0
M  V30 1689 N 171.46 0.379036 1.52974 0
M  V30 1690 C 172.685 -0.209353 2.06341 0
M  V30 1691 C 173.11 -1.40583 1.24972 0
M  V30 1692 O 172.468 -1.79246 0.272155 0
M  V30 1693 C 172.516 -0.567786 3.56102 0
M  V30 1694 O 171.62 -1.66318 3.77375 0
M  V30 1695 H 170.961 -0.0272919 0.663439 0
M  V30 1696 H 173.491 0.543536 1.97248 0
M  V30 1697 H 173.501 -0.835003 3.99364 0
M  V30 1698 H 172.176 0.307013 4.14765 0
M  V30 1699 H 170.753 -1.39048 3.46006 0
M  V30 1700 N 172.938 -1.57226 0.108567 0
M  V30 1701 C 174.186 -1.94448 -0.550853 0
M  V30 1702 C 174.507 -0.992074 -1.67878 0
M  V30 1703 O 173.777 -0.0465 -1.95845 0
M  V30 1704 H 172.357 -0.717897 -0.206479 0
M  V30 1705 H 175.019 -1.94112 0.175062 0
M  V30 1706 H 174.115 -2.97218 -0.952259 0
M  V30 1707 N 174.416 0.165178 -1.56732 0
M  V30 1708 C 175.644 0.896218 -1.86482 0
M  V30 1709 C 176.059 1.75555 -0.694675 0
M  V30 1710 O 175.416 1.79379 0.33607 0
M  V30 1711 C 175.467 1.76792 -3.1532 0
M  V30 1712 O 175.188 0.943239 -4.27825 0
M  V30 1713 C 176.689 2.6081 -3.58459 0
M  V30 1714 H 173.909 0.260064 -0.618553 0
M  V30 1715 H 176.453 0.163428 -2.03846 0
M  V30 1716 H 174.608 2.45398 -2.99764 0
M  V30 1717 H 175.022 1.53998 -5.01383 0
M  V30 1718 H 176.496 3.17579 -4.51495 0
M  V30 1719 H 176.973 3.35977 -2.82872 0
M  V30 1720 H 177.579 1.97526 -3.76648 0
M  V30 1721 N 175.894 1.51508 0.433938 0
M  V30 1722 C 177.14 1.64588 1.18484 0
M  V30 1723 C 177.473 0.362666 1.90784 0
M  V30 1724 O 176.748 -0.637892 1.83742 0
M  V30 1725 C 177.031 2.85149 2.19913 0
M  V30 1726 C 176.884 4.23456 1.51674 0
M  V30 1727 C 178.203 3.01227 3.20858 0
M  V30 1728 H 175.322 0.598994 0.429389 0
M  V30 1729 H 177.964 1.84002 0.473647 0
M  V30 1730 H 176.114 2.68729 2.80566 0
M  V30 1731 H 177.786 4.51552 0.943322 0
M  V30 1732 H 176.029 4.25998 0.819035 0
M  V30 1733 H 176.7 5.03812 2.2556 0
M  V30 1734 H 179.176 3.16382 2.70263 0
M  V30 1735 H 178.052 3.87141 3.89118 0
M  V30 1736 H 178.313 2.13447 3.8716 0
M  V30 1737 N 177.372 -0.689602 1.41712 0
M  V30 1738 C 178.649 -1.44457 1.31877 0
M  V30 1739 C 179.029 -2.11039 -0.0508537 0
M  V30 1740 O 178.377 -2.02138 -1.06547 0
M  V30 1741 C 178.587 -2.45913 2.47645 0
M  V30 1742 C 179.935 -3.10991 2.89084 0
M  V30 1743 O 180.959 -2.56238 2.47428 0
M  V30 1744 O 179.818 -4.10174 3.61137 0
M  V30 1745 H 176.912 -0.64362 0.519309 0
M  V30 1746 H 179.458 -0.719576 1.53689 0
M  V30 1747 H 178.23 -1.95409 3.39015 0
M  V30 1748 H 177.853 -3.25913 2.27742 0
M  V30 1749 N 178.85 -1.27639 -0.924453 0
M  V30 1750 C 180.261 -1.12834 -1.48746 0
M  V30 1751 C 180.612 0.285505 -1.94112 0
M  V30 1752 O 179.737 1.17874 -1.81479 0
M  V30 1753 C 180.332 -2.04217 -2.70334 0
M  V30 1754 C 178.891 -1.93509 -3.22848 0
M  V30 1755 C 178.038 -1.96583 -1.95577 0
M  V30 1756 H 180.989 -1.40484 -0.738233 0
M  V30 1757 H 181.01 -1.59989 -3.4523 0
M  V30 1758 H 180.522 -3.07111 -2.37285 0
M  V30 1759 H 178.623 -0.936131 -3.60649 0
M  V30 1760 H 178.736 -2.79917 -3.88823 0
M  V30 1761 H 177.1 -1.4085 -2.12211 0
M  V30 1762 H 177.883 -3.01137 -1.64837 0
M  V30 1763 N 180.328 1.1314 -1.09713 0
M  V30 1764 C 181.26 2.18343 -0.697056 0
M  V30 1765 C 182.273 1.60669 0.262551 0
M  V30 1766 O 183.462 1.78435 0.0481527 0
M  V30 1767 C 180.562 3.38899 -0.00684728 0
M  V30 1768 C 179.735 4.26078 -0.988741 0
M  V30 1769 C 178.794 5.25155 -0.331394 0
M  V30 1770 O 177.82 5.60701 -0.979926 0
M  V30 1771 N 179.022 5.73271 0.913261 0
M  V30 1772 H 181.787 2.5328 -1.60216 0
M  V30 1773 H 179.348 1.28491 -0.984971 0
M  V30 1774 H 181.34 4.02255 0.444191 0
M  V30 1775 H 179.91 3.02175 0.800551 0
M  V30 1776 H 179.13 3.59453 -1.61826 0
M  V30 1777 H 180.418 4.81178 -1.65364 0
M  V30 1778 H 179.816 5.46544 1.45966 0
M  V30 1779 H 178.373 6.3855 1.30757 0
M  V30 1780 N 181.806 0.884767 1.30421 0
M  V30 1781 C 182.716 0.355398 2.31892 0
M  V30 1782 C 183.732 -0.542261 1.65335 0
M  V30 1783 O 184.908 -0.435432 1.96637 0
M  V30 1784 C 181.973 -0.421661 3.44126 0
M  V30 1785 C 181.034 0.505727 4.26311 0
M  V30 1786 C 180.267 -0.234343 5.33185 0
M  V30 1787 O 180.49 -1.46045 5.51386 0
M  V30 1788 O 179.424 0.415443 6.00465 0
M  V30 1789 H 183.25 1.19685 2.79122 0
M  V30 1790 H 180.835 0.648596 1.34587 0
M  V30 1791 H 182.717 -0.861641 4.12497 0
M  V30 1792 H 181.392 -1.23942 2.99032 0
M  V30 1793 H 180.299 0.994513 3.60639 0
M  V30 1794 H 181.632 1.28948 4.75009 0
M  V30 1795 N 183.284 -1.43765 0.645699 0
M  V30 1796 C 184.214 -2.33471 -0.0370477 0
M  V30 1797 C 185.195 -1.49042 -0.819779 0
M  V30 1798 O 186.38 -1.77726 -0.782758 0
M  V30 1799 C 183.51 -3.32311 -1.0093 0
M  V30 1800 C 182.464 -4.2667 -0.337201 0
M  V30 1801 C 181.79 -5.1549 -1.42037 0
M  V30 1802 C 183.09 -5.16657 0.765706 0
M  V30 1803 H 184.784 -2.90809 0.712069 0
M  V30 1804 H 182.33 -1.39834 0.343876 0
M  V30 1805 H 184.283 -3.9396 -1.49578 0
M  V30 1806 H 183.007 -2.73213 -1.78948 0
M  V30 1807 H 181.666 -3.66374 0.128771 0
M  V30 1808 H 181.314 -4.52735 -2.1918 0
M  V30 1809 H 181.014 -5.79438 -0.975966 0
M  V30 1810 H 182.538 -5.80012 -1.90838 0
M  V30 1811 H 183.952 -5.72158 0.361702 0
M  V30 1812 H 182.349 -5.89286 1.13413 0
M  V30 1813 H 183.419 -4.56796 1.62683 0
M  V30 1814 N 184.763 -0.387143 -1.52771 0
M  V30 1815 C 185.695 0.484089 -2.2403 0
M  V30 1816 C 186.708 1.02849 -1.26198 0
M  V30 1817 O 187.897 0.931186 -1.52286 0
M  V30 1818 C 184.997 1.68337 -2.94136 0
M  V30 1819 C 184.17 1.26672 -4.18656 0
M  V30 1820 C 183.229 2.33045 -4.7178 0
M  V30 1821 O 182.255 1.94541 -5.34923 0
M  V30 1822 N 183.457 3.64929 -4.5145 0
M  V30 1823 H 186.222 -0.126404 -2.99433 0
M  V30 1824 H 183.783 -0.213392 -1.60488 0
M  V30 1825 H 185.775 2.39019 -3.26577 0
M  V30 1826 H 184.345 2.20025 -2.22053 0
M  V30 1827 H 183.565 0.388878 -3.92277 0
M  V30 1828 H 184.853 0.964964 -4.99566 0
M  V30 1829 H 184.251 3.98974 -4.01044 0
M  V30 1830 H 182.808 4.31651 -4.88386 0
M  V30 1831 N 186.241 1.57166 -0.116904 0
M  V30 1832 C 187.188 2.15202 0.83408 0
M  V30 1833 C 188.158 1.07644 1.26499 0
M  V30 1834 O 189.343 1.35541 1.34288 0
M  V30 1835 C 186.483 2.75405 2.07957 0
M  V30 1836 C 185.596 3.97264 1.69721 0
M  V30 1837 C 184.731 4.45561 2.89221 0
M  V30 1838 C 183.77 5.59956 2.47215 0
M  V30 1839 N 182.907 6.03006 3.59622 0
M  V30 1840 H 187.747 2.96141 0.332335 0
M  V30 1841 H 185.284 1.46309 0.152349 0
M  V30 1842 H 187.242 3.08439 2.80929 0
M  V30 1843 H 185.872 1.97159 2.55594 0
M  V30 1844 H 184.924 3.70404 0.866316 0
M  V30 1845 H 186.236 4.80226 1.34849 0
M  V30 1846 H 185.39 4.80493 3.7042 0
M  V30 1847 H 184.129 3.61544 3.27318 0
M  V30 1848 H 183.134 5.2463 1.64448 0
M  V30 1849 H 184.359 6.45738 2.10238 0
M  V30 1850 H 182.305 5.21931 3.97396 0
M  V30 1851 H 182.222 6.80819 3.28667 0
M  V30 1852 H 183.49 6.42576 4.41267 0
M  V30 1853 N 187.719 -0.156864 1.56817 0
M  V30 1854 C 188.682 -1.17781 1.96622 0
M  V30 1855 C 189.682 -1.36401 0.851555 0
M  V30 1856 O 190.872 -1.33561 1.11836 0
M  V30 1857 C 188.004 -2.54008 2.27361 0
M  V30 1858 H 189.197 -0.836564 2.87996 0
M  V30 1859 H 186.75 -0.39985 1.51099 0
M  V30 1860 H 187.485 -2.9312 1.38748 0
M  V30 1861 H 187.27 -2.41856 3.08623 0
M  V30 1862 H 188.76 -3.27558 2.59029 0
M  V30 1863 N 189.197 -1.51736 -0.425897 0
M  V30 1864 C 190.127 -1.76827 -1.52494 0
M  V30 1865 C 191.108 -0.618524 -1.58456 0
M  V30 1866 O 192.293 -0.862416 -1.74 0
M  V30 1867 C 189.423 -1.90374 -2.90474 0
M  V30 1868 C 188.377 -3.0588 -2.99369 0
M  V30 1869 C 187.703 -3.04625 -4.3944 0
M  V30 1870 C 189.003 -4.45644 -2.72394 0
M  V30 1871 H 190.697 -2.68855 -1.31748 0
M  V30 1872 H 188.243 -1.29372 -0.632362 0
M  V30 1873 H 190.196 -2.0651 -3.6733 0
M  V30 1874 H 188.92 -0.95004 -3.12477 0
M  V30 1875 H 187.579 -2.89467 -2.24954 0
M  V30 1876 H 187.227 -2.0701 -4.58428 0
M  V30 1877 H 186.927 -3.82195 -4.46319 0
M  V30 1878 H 188.451 -3.22869 -5.18255 0
M  V30 1879 H 189.865 -4.62348 -3.38979 0
M  V30 1880 H 188.262 -5.25006 -2.9067 0
M  V30 1881 H 189.332 -4.54893 -1.67929 0
M  V30 1882 N 190.675 0.682077 -1.42076 0
M  V30 1883 C 191.903 1.47057 -1.4554 0
M  V30 1884 C 192.318 1.8869 -0.0645779 0
M  V30 1885 O 191.675 1.57666 0.919115 0
M  V30 1886 C 191.726 2.72442 -2.37609 0
M  V30 1887 O 191.447 2.32559 -3.71279 0
M  V30 1888 C 192.948 3.66069 -2.50017 0
M  V30 1889 H 190.168 0.452737 -0.495248 0
M  V30 1890 H 192.712 0.838695 -1.8651 0
M  V30 1891 H 190.867 3.31835 -1.9991 0
M  V30 1892 H 191.281 3.13475 -4.20516 0
M  V30 1893 H 192.755 4.50792 -3.18576 0
M  V30 1894 H 193.232 4.11476 -1.53572 0
M  V30 1895 H 193.838 3.12572 -2.88407 0
M  V30 1896 N 192.153 1.28127 0.917671 0
M  V30 1897 C 193.381 1.17892 1.70026 0
M  V30 1898 C 193.796 -0.262958 1.8696 0
M  V30 1899 O 193.153 -1.17811 1.3938 0
M  V30 1900 C 193.204 1.86872 3.09453 0
M  V30 1901 O 192.925 3.25428 2.93306 0
M  V30 1902 C 194.426 1.8289 4.03815 0
M  V30 1903 H 191.646 0.40942 0.531617 0
M  V30 1904 H 194.19 1.69181 1.14883 0
M  V30 1905 H 192.345 1.39464 3.61426 0
M  V30 1906 H 192.759 3.59918 3.81523 0
M  V30 1907 H 194.233 2.35751 4.99125 0
M  V30 1908 H 194.71 0.800412 4.31845 0
M  V30 1909 H 195.316 2.29959 3.57769 0
M  V30 1910 N 193.631 -1.12557 1.10312 0
M  V30 1911 C 194.564 -2.1737 0.694674 0
M  V30 1912 C 195.542 -1.59745 -0.303373 0
M  V30 1913 O 196.726 -1.87408 -0.202578 0
M  V30 1914 C 193.853 -3.38691 0.0248052 0
M  V30 1915 C 192.899 -4.14943 0.986121 0
M  V30 1916 S 193.732 -4.73413 2.50281 0
M  V30 1917 C 194.888 -5.9807 1.84562 0
M  V30 1918 H 195.121 -2.5168 1.58255 0
M  V30 1919 H 192.654 -1.23998 0.919992 0
M  V30 1920 H 194.612 -4.08959 -0.355361 0
M  V30 1921 H 193.273 -3.02664 -0.839851 0
M  V30 1922 H 192.466 -5.01854 0.464651 0
M  V30 1923 H 192.068 -3.50377 1.30813 0
M  V30 1924 H 194.36 -6.67232 1.17507 0
M  V30 1925 H 195.303 -6.54841 2.69423 0
M  V30 1926 H 195.711 -5.49073 1.31069 0
M  V30 1927 N 195.109 -0.891671 -1.2995 0
M  V30 1928 C 196.357 -0.512486 -1.95494 0
M  V30 1929 C 196.678 0.942776 -1.70695 0
M  V30 1930 O 195.948 1.66374 -1.03424 0
M  V30 1931 H 194.528 -0.186533 -0.723336 0
M  V30 1932 H 197.19 -1.13621 -1.58355 0
M  V30 1933 H 196.286 -0.688342 -3.04415 0
M  V30 1934 N 196.587 1.43421 -0.653314 0
M  V30 1935 C 197.834 2.01812 -0.166745 0
M  V30 1936 C 198.162 1.51535 1.21931 0
M  V30 1937 O 197.417 0.698975 1.82792 0
M  V30 1938 C 197.716 3.57176 -0.126623 0
M  V30 1939 C 197.382 4.26798 -1.45444 0
M  V30 1940 C 196.044 4.45534 -1.81805 0
M  V30 1941 C 198.396 4.66225 -2.32989 0
M  V30 1942 C 195.724 5.00961 -3.05377 0
M  V30 1943 C 198.076 5.23021 -3.55853 0
M  V30 1944 C 196.74 5.39973 -3.9241 0
M  V30 1945 H 196.01 0.738484 -0.0610162 0
M  V30 1946 H 198.657 1.71896 -0.84404 0
M  V30 1947 H 196.962 3.86634 0.634123 0
M  V30 1948 H 198.659 4.00112 0.266723 0
M  V30 1949 H 195.249 4.12561 -1.16153 0
M  V30 1950 H 199.433 4.51443 -2.06187 0
M  V30 1951 H 194.689 5.12271 -3.3375 0
M  V30 1952 H 198.863 5.52518 -4.23907 0
M  V30 1953 H 196.49 5.82687 -4.88242 0
M  V30 1954 N 198.065 0.39524 1.52563 0
M  V30 1955 C 199.481 0.0454682 1.59535 0
M  V30 1956 C 199.681 -1.44056 1.4089 0
M  V30 1957 O 198.737 -2.20579 1.22888 0
M  V30 1958 C 200.05 0.527963 2.96029 0
M  V30 1959 C 201.598 0.484733 3.09224 0
M  V30 1960 C 202.073 0.943512 4.48176 0
M  V30 1961 N 203.564 0.899765 4.54377 0
M  V30 1962 C 204.299 1.22609 5.60138 0
M  V30 1963 N 203.795 1.62319 6.73516 0
M  V30 1964 N 205.588 1.14696 5.50274 0
M  V30 1965 H 197.739 1.36261 1.62931 0
M  V30 1966 H 200.002 0.558887 0.765735 0
M  V30 1967 H 199.708 1.56607 3.14908 0
M  V30 1968 H 199.582 -0.0698056 3.77135 0
M  V30 1969 H 201.969 -0.544298 2.90037 0
M  V30 1970 H 202.05 1.11838 2.30056 0
M  V30 1971 H 201.694 1.9708 4.68104 0
M  V30 1972 H 201.624 0.286817 5.25818 0
M  V30 1973 H 204.115 0.607632 3.72983 0
M  V30 1974 H 204.428 1.85567 7.5019 0
M  V30 1975 H 202.773 1.66211 6.74833 0
M  V30 1976 H 205.964 0.835701 4.6058 0
M  V30 1977 H 206.137 1.40459 6.32594 0
M  V30 1978 N 199.544 -1.57102 0.125237 0
M  V30 1979 C 200.474 -2.18659 -0.819174 0
M  V30 1980 C 201.455 -1.12843 -1.27281 0
M  V30 1981 O 202.64 -1.41104 -1.33429 0
M  V30 1982 C 199.77 -2.79096 -2.06695 0
M  V30 1983 C 198.724 -3.90548 -1.75088 0
M  V30 1984 C 198.05 -4.37821 -3.06948 0
M  V30 1985 C 199.35 -5.12356 -1.01435 0
M  V30 1986 H 201.044 -2.9783 -0.306202 0
M  V30 1987 H 198.59 -1.4326 -0.145839 0
M  V30 1988 H 200.543 -3.2082 -2.73226 0
M  V30 1989 H 199.267 -1.97223 -2.60328 0
M  V30 1990 H 197.926 -3.49409 -1.10944 0
M  V30 1991 H 197.574 -3.52799 -3.58527 0
M  V30 1992 H 197.274 -5.12982 -2.86571 0
M  V30 1993 H 198.798 -4.822 -3.74587 0
M  V30 1994 H 200.212 -5.5106 -1.58132 0
M  V30 1995 H 198.609 -5.9314 -0.911319 0
M  V30 1996 H 199.679 -4.849 -0.00218681 0
M  V30 1997 N 201.022 0.148545 -1.56898 0
M  V30 1998 C 202.247 0.880385 -1.87787 0
M  V30 1999 C 202.672 1.74018 -0.714093 0
M  V30 2000 O 202.03 1.78153 0.336343 0
M  V30 2001 C 202.078 1.71422 -3.17249 0
M  V30 2002 O 201.182 2.8183 -3.01074 0
M  V30 2003 H 200.523 0.245301 -0.617028 0
M  V30 2004 H 203.053 0.139826 -2.04122 0
M  V30 2005 H 203.063 2.10954 -3.49231 0
M  V30 2006 H 201.738 1.08284 -4.01556 0
M  V30 2007 H 200.315 2.45715 -2.80497 0
M  V30 2008 N 202.5 1.5196 0.417844 0
M  V30 2009 C 203.911 1.57851 0.997 0
M  V30 2010 C 204.262 0.413714 1.91789 0
M  V30 2011 O 203.387 -0.467057 2.113 0
M  V30 2012 C 203.982 2.86085 1.81496 0
M  V30 2013 C 202.541 2.94483 2.34428 0
M  V30 2014 C 201.688 2.52707 1.14169 0
M  V30 2015 H 204.639 1.57455 0.198392 0
M  V30 2016 H 204.66 2.70947 2.67148 0
M  V30 2017 H 204.172 3.70842 1.14446 0
M  V30 2018 H 202.273 2.142 3.04875 0
M  V30 2019 H 202.386 3.98546 2.65891 0
M  V30 2020 H 200.75 2.06353 1.49301 0
M  V30 2021 H 201.533 3.39828 0.486999 0
M  V30 2022 N 203.978 -0.674533 1.42435 0
M  V30 2023 C 204.91 -1.80005 1.41883 0
M  V30 2024 C 205.923 -1.59667 0.31787 0
M  V30 2025 O 207.112 -1.68781 0.580973 0
M  V30 2026 C 204.212 -3.17114 1.19549 0
M  V30 2027 C 203.385 -3.64299 2.42084 0
M  V30 2028 C 202.444 -4.80142 2.15291 0
M  V30 2029 O 201.47 -4.90673 2.88493 0
M  V30 2030 N 202.672 -5.68869 1.1562 0
M  V30 2031 H 205.437 -1.80964 2.38898 0
M  V30 2032 H 202.998 -0.857633 1.37318 0
M  V30 2033 H 204.99 -3.92267 0.995417 0
M  V30 2034 H 203.56 -3.11053 0.310569 0
M  V30 2035 H 202.78 -2.79822 2.77657 0
M  V30 2036 H 204.068 -3.92567 3.23679 0
M  V30 2037 H 203.466 -5.63012 0.550765 0
M  V30 2038 H 202.023 -6.43833 1.016 0
M  V30 2039 N 205.456 -1.28612 -0.910864 0
M  V30 2040 C 206.419 -1.12803 -1.9952 0
M  V30 2041 C 207.419 -0.0668264 -1.60661 0
M  V30 2042 O 208.609 -0.312847 -1.71368 0
M  V30 2043 C 205.741 -0.72254 -3.33155 0
M  V30 2044 H 206.934 -2.09109 -2.14973 0
M  V30 2045 H 204.487 -1.11639 -1.09391 0
M  V30 2046 H 205.222 0.241152 -3.23402 0
M  V30 2047 H 205.007 -1.48916 -3.62721 0
M  V30 2048 H 206.497 -0.634666 -4.12749 0
M  V30 2049 N 206.934 1.1197 -1.10907 0
M  V30 2050 C 208.18 1.8386 -0.855773 0
M  V30 2051 C 208.513 1.84134 0.617103 0
M  V30 2052 O 207.788 1.29041 1.45529 0
M  V30 2053 C 208.071 3.31305 -1.411 0
M  V30 2054 C 207.924 3.39456 -2.9511 0
M  V30 2055 C 209.243 4.2721 -1.05736 0
M  V30 2056 H 206.362 0.667545 -0.312334 0
M  V30 2057 H 209.004 1.31331 -1.37303 0
M  V30 2058 H 207.154 3.76169 -0.97105 0
M  V30 2059 H 208.826 3.03191 -3.47668 0
M  V30 2060 H 207.069 2.79849 -3.31462 0
M  V30 2061 H 207.74 4.43209 -3.29044 0
M  V30 2062 H 210.216 3.90497 -1.43706 0
M  V30 2063 H 209.092 5.28775 -1.47269 0
M  V30 2064 H 209.353 4.42088 0.0325958 0
M  V30 2065 N 208.412 0.89855 1.29475 0
M  V30 2066 C 209.36 0.365253 2.29714 0
M  V30 2067 C 210.354 -0.534993 1.6073 0
M  V30 2068 O 211.56 -0.417921 1.75081 0
M  V30 2069 H 207.935 0.0994853 0.74539 0
M  V30 2070 H 209.906 1.22406 2.72138 0
M  V30 2071 C 208.655 -0.393159 3.4547 0
M  V30 2072 H 207.978 0.290332 3.98744 0
M  V30 2073 H 209.418 -0.731189 4.17648 0
M  V30 2074 C 207.877 -1.59539 2.9673 0
M  V30 2075 O 208.407 -2.69469 2.97908 0
M  V30 2076 N 206.613 -1.43716 2.52575 0
M  V30 2077 H 206.16 -0.542828 2.51816 0
M  V30 2078 H 206.118 -2.24288 2.20323 0
M  V30 2079 N 209.89 -1.43072 0.660911 0
M  V30 2080 C 211.115 -2.06584 0.183805 0
M  V30 2081 C 211.54 -1.49257 -1.14472 0
M  V30 2082 O 210.898 -0.605528 -1.70889 0
M  V30 2083 C 210.946 -3.60418 0.114434 0
M  V30 2084 O 210.05 -4.01981 -0.921137 0
M  V30 2085 H 209.391 -0.656669 0.0983994 0
M  V30 2086 H 211.921 -1.83447 0.906006 0
M  V30 2087 H 211.931 -4.07946 -0.0663394 0
M  V30 2088 H 210.606 -4.01519 1.08422 0
M  V30 2089 H 209.183 -3.66029 -0.71253 0
M  V30 2090 N 211.368 -0.403325 -1.52352 0
M  V30 2091 C 212.617 0.175668 -2.00934 0
M  V30 2092 C 212.93 1.46718 -1.29356 0
M  V30 2093 O 214.136 2.12708 -1.68724 0
M  V30 2094 C 212.592 0.363612 -3.58058 0
M  V30 2095 C 212.2 -0.915472 -4.38547 0
M  V30 2096 C 213.944 0.89821 -4.14888 0
M  V30 2097 C 211.851 -0.695035 -5.87302 0
M  V30 2098 H 210.781 0.0694234 -0.750797 0
M  V30 2099 H 213.432 -0.527879 -1.75743 0
M  V30 2100 H 211.814 1.12935 -3.79555 0
M  V30 2101 H 212.988 -1.68691 -4.28812 0
M  V30 2102 H 211.303 -1.37606 -3.93006 0
M  V30 2103 H 213.9 1.07907 -5.23699 0
M  V30 2104 H 214.243 1.87126 -3.71873 0
M  V30 2105 H 214.776 0.191681 -3.97338 0
M  V30 2106 H 211.515 -1.63948 -6.34666 0
M  V30 2107 H 211.035 0.0372116 -5.99788 0
M  V30 2108 H 212.714 -0.33497 -6.46132 0
M  V30 2109 N 212.846 1.57033 -0.133567 0
M  V30 2110 C 213.809 2.14897 0.796995 0
M  V30 2111 C 214.809 1.0874 1.18458 0
M  V30 2112 O 215.999 1.34446 1.1077 0
M  V30 2113 C 213.131 2.70112 2.07973 0
M  V30 2114 H 214.324 2.98457 0.293873 0
M  V30 2115 H 211.877 1.55871 0.115787 0
M  V30 2116 H 212.612 1.9018 2.62682 0
M  V30 2117 H 212.397 3.47764 1.81115 0
M  V30 2118 H 213.887 3.14738 2.74462 0
M  V30 2119 N 214.325 -0.140222 1.56975 0
M  V30 2120 C 215.272 -1.17292 1.98774 0
M  V30 2121 C 216.242 -1.4232 0.856408 0
M  V30 2122 O 217.427 -1.54541 1.119 0
M  V30 2123 C 214.567 -2.49973 2.37923 0
M  V30 2124 C 213.68 -2.32062 3.64378 0
M  V30 2125 C 212.815 -3.57825 3.926 0
M  V30 2126 C 211.854 -3.3498 5.12303 0
M  V30 2127 N 210.991 -4.52891 5.36502 0
M  V30 2128 H 215.831 -0.809472 2.86795 0
M  V30 2129 H 213.368 -0.388237 1.41884 0
M  V30 2130 H 215.326 -3.27346 2.58652 0
M  V30 2131 H 213.956 -2.84252 1.52972 0
M  V30 2132 H 213.008 -1.45711 3.51387 0
M  V30 2133 H 214.32 -2.11145 4.51906 0
M  V30 2134 H 213.474 -4.43624 4.13863 0
M  V30 2135 H 212.213 -3.81753 3.03506 0
M  V30 2136 H 211.218 -2.4757 4.90906 0
M  V30 2137 H 212.443 -3.12444 6.02956 0
M  V30 2138 H 210.389 -4.76979 4.50363 0
M  V30 2139 H 210.306 -4.35001 6.18312 0
M  V30 2140 H 211.574 -5.39884 5.62268 0
M  V30 2141 N 215.803 -1.52179 -0.40978 0
M  V30 2142 C 217.219 -1.40968 -0.74835 0
M  V30 2143 C 217.419 -0.513657 -1.94843 0
M  V30 2144 O 216.475 0.0208026 -2.52491 0
M  V30 2145 C 217.788 -2.83483 -1.0029 0
M  V30 2146 C 219.336 -2.92821 -1.10565 0
M  V30 2147 C 219.811 -4.36303 -1.39296 0
M  V30 2148 N 221.302 -4.39535 -1.46162 0
M  V30 2149 C 222.037 -5.47614 -1.70018 0
M  V30 2150 N 221.533 -6.65812 -1.91483 0
M  V30 2151 N 223.326 -5.35129 -1.72027 0
M  V30 2152 H 215.477 -2.0897 0.380186 0
M  V30 2153 H 217.74 -0.94185 0.107805 0
M  V30 2154 H 217.446 -3.51168 -0.193461 0
M  V30 2155 H 217.32 -3.24487 -1.92323 0
M  V30 2156 H 219.707 -2.25318 -1.90568 0
M  V30 2157 H 219.788 -2.55276 -0.16369 0
M  V30 2158 H 219.432 -5.04366 -0.598109 0
M  V30 2159 H 219.362 -4.71385 -2.34743 0
M  V30 2160 H 221.853 -3.54332 -1.31367 0
M  V30 2161 H 222.166 -7.43964 -2.09134 0
M  V30 2162 H 220.511 -6.68879 -1.88749 0
M  V30 2163 H 223.702 -4.41764 -1.54796 0
M  V30 2164 H 223.875 -6.19433 -1.9028 0
M  V30 2165 N 217.281 0.66697 -1.42791 0
M  V30 2166 C 218.511 1.45294 -1.46878 0
M  V30 2167 C 218.919 1.89027 -0.0809861 0
M  V30 2168 O 218.262 1.59219 0.916246 0
M  V30 2169 C 218.324 2.72908 -2.34012 0
M  V30 2170 C 217.988 2.51203 -3.81767 0
M  V30 2171 C 218.985 2.15302 -4.73224 0
M  V30 2172 C 216.67 2.65954 -4.26115 0
M  V30 2173 C 218.664 1.94431 -6.07022 0
M  V30 2174 C 216.351 2.44699 -5.59969 0
M  V30 2175 C 217.349 2.08992 -6.5024 0
M  V30 2176 O 217.037 1.87948 -7.81621 0
M  V30 2177 H 216.769 0.453306 -0.501487 0
M  V30 2178 H 219.323 0.826232 -1.88049 0
M  V30 2179 H 217.553 3.38089 -1.87703 0
M  V30 2180 H 219.242 3.34816 -2.29462 0
M  V30 2181 H 220.008 2.03495 -4.40244 0
M  V30 2182 H 215.887 2.92724 -3.56137 0
M  V30 2183 H 219.431 1.66484 -6.77443 0
M  V30 2184 H 215.328 2.56105 -5.9252 0
M  V30 2185 H 216.096 2.02483 -7.93059 0
M  V30 2186 N 218.759 1.29093 0.90403 0
M  V30 2187 C 219.984 1.19809 1.69294 0
M  V30 2188 C 220.409 -0.238481 1.86582 0
M  V30 2189 O 219.767 -1.1723 1.383 0
M  V30 2190 C 219.815 1.91202 3.05736 0
M  V30 2191 O 218.919 1.22611 3.93752 0
M  V30 2192 H 218.26 0.415385 0.518027 0
M  V30 2193 H 220.79 1.70586 1.12967 0
M  V30 2194 H 220.8 1.99487 3.55906 0
M  V30 2195 H 219.475 2.95692 2.92471 0
M  V30 2196 H 218.052 1.22554 3.52186 0
M  V30 2197 N 220.237 -1.11381 1.11499 0
M  V30 2198 C 221.465 -1.86934 0.88675 0
M  V30 2199 C 221.88 -1.80195 -0.563476 0
M  V30 2200 O 221.237 -1.18367 -1.38908 0
M  V30 2201 C 221.288 -3.35722 1.34064 0
M  V30 2202 O 221.009 -3.4232 2.73401 0
M  V30 2203 C 222.51 -4.2818 1.14791 0
M  V30 2204 H 219.73 -0.591117 0.317523 0
M  V30 2205 H 222.274 -1.40865 1.48248 0
M  V30 2206 H 220.429 -3.79294 0.788355 0
M  V30 2207 H 220.843 -4.34971 2.93087 0
M  V30 2208 H 222.317 -5.30817 1.5145 0
M  V30 2209 H 222.794 -4.39113 0.0875279 0
M  V30 2210 H 223.4 -3.90402 1.68721 0
M  V30 2211 N 221.715 -0.905404 -1.28997 0
M  V30 2212 C 222.663 -0.377431 -2.29517 0
M  V30 2213 C 223.657 0.526461 -1.61012 0
M  V30 2214 O 224.863 0.40863 -1.753 0
M  V30 2215 H 221.238 -0.103437 -0.744852 0
M  V30 2216 H 223.209 -1.23848 -2.71485 0
M  V30 2217 C 221.958 0.374833 -3.45674 0
M  V30 2218 H 221.281 -0.311474 -3.98585 0
M  V30 2219 H 222.721 0.70903 -4.1803 0
M  V30 2220 C 221.18 1.57963 -2.97572 0
M  V30 2221 O 221.71 2.67886 -2.99333 0
M  V30 2222 N 219.916 1.42375 -2.53333 0
M  V30 2223 H 219.463 0.529466 -2.521 0
M  V30 2224 H 219.421 2.23117 -2.21509 0
M  V30 2225 N 223.193 1.4272 -0.668489 0
M  V30 2226 C 224.441 2.01226 -0.187769 0
M  V30 2227 C 224.762 1.53092 1.2078 0
M  V30 2228 O 224.032 0.74993 1.80977 0
M  V30 2229 H 222.612 0.744041 -0.0664272 0
M  V30 2230 H 225.274 1.74723 -0.863583 0
M  V30 2231 H 224.37 3.11556 -0.184166 0
M  V30 2232 N 224.671 0.411399 1.52136 0
M  V30 2233 C 225.618 -0.412975 2.27075 0
M  V30 2234 C 226.588 -1.03912 1.29582 0
M  V30 2235 O 227.773 -1.06296 1.58448 0
M  V30 2236 C 224.913 -1.52247 3.09701 0
M  V30 2237 C 224.026 -0.917021 4.22155 0
M  V30 2238 C 223.161 -1.9994 4.92135 0
M  V30 2239 C 222.2 -1.37101 5.96548 0
M  V30 2240 N 221.337 -2.39364 6.60038 0
M  V30 2241 H 226.177 0.232499 2.97092 0
M  V30 2242 H 223.714 0.126496 1.46555 0
M  V30 2243 H 225.672 -2.17674 3.55913 0
M  V30 2244 H 224.302 -2.13794 2.41851 0
M  V30 2245 H 223.354 -0.151742 3.80097 0
M  V30 2246 H 224.666 -0.418006 4.97045 0
M  V30 2247 H 223.82 -2.73088 5.41763 0
M  V30 2248 H 222.559 -2.53208 4.16818 0
M  V30 2249 H 221.564 -0.624873 5.46237 0
M  V30 2250 H 222.789 -0.845998 6.7381 0
M  V30 2251 H 220.735 -2.91759 5.87548 0
M  V30 2252 H 220.652 -1.9428 7.3061 0
M  V30 2253 H 221.92 -3.12074 7.14304 0
M  V30 2254 N 226.149 -1.5696 0.141893 0
M  V30 2255 C 227.398 -1.95135 -0.510427 0
M  V30 2256 C 227.711 -1.02896 -1.66348 0
M  V30 2257 O 228.917 -1.30629 -2.38009 0
M  V30 2258 C 227.373 -3.46876 -0.959427 0
M  V30 2259 C 226.981 -4.47691 0.166419 0
M  V30 2260 C 228.725 -3.93927 -1.58183 0
M  V30 2261 C 226.632 -5.90636 -0.300565 0
M  V30 2262 H 225.562 -0.728494 -0.194454 0
M  V30 2263 H 228.213 -1.8211 0.22542 0
M  V30 2264 H 226.595 -3.55215 -1.75038 0
M  V30 2265 H 227.769 -4.51043 0.94325 0
M  V30 2266 H 226.084 -4.10527 0.696905 0
M  V30 2267 H 228.681 -4.98158 -1.94275 0
M  V30 2268 H 229.024 -3.3519 -2.46888 0
M  V30 2269 H 229.557 -3.88484 -0.855863 0
M  V30 2270 H 226.296 -6.5318 0.550989 0
M  V30 2271 H 225.816 -5.90655 -1.04338 0
M  V30 2272 H 227.495 -6.42588 -0.754265 0
M  V30 2273 N 227.627 0.131896 -1.57047 0
M  V30 2274 C 228.855 0.856461 -1.88341 0
M  V30 2275 C 229.27 1.74042 -0.731757 0
M  V30 2276 O 228.627 1.80051 0.297945 0
M  V30 2277 C 228.678 1.70064 -3.18999 0
M  V30 2278 O 228.399 0.852278 -4.2973 0
M  V30 2279 C 229.9 2.53148 -3.63911 0
M  V30 2280 H 227.12 0.246885 -0.62393 0
M  V30 2281 H 229.664 0.120152 -2.04147 0
M  V30 2282 H 227.819 2.38984 -3.04902 0
M  V30 2283 H 228.233 1.43329 -5.04537 0
M  V30 2284 H 229.707 3.07931 -4.58129 0
M  V30 2285 H 230.184 3.29901 -2.89935 0
M  V30 2286 H 230.79 1.89492 -3.80753 0
M  V30 2287 N 229.106 1.52395 0.401703 0
M  V30 2288 C 230.353 1.66817 1.14796 0
M  V30 2289 C 230.681 0.401772 1.90305 0
M  V30 2290 O 229.936 -0.615487 1.85769 0
M  V30 2291 C 230.235 2.84578 2.16217 0
M  V30 2292 C 229.901 4.22513 1.5746 0
M  V30 2293 C 228.563 4.60029 1.41161 0
M  V30 2294 C 230.915 5.0844 1.14622 0
M  V30 2295 C 228.243 5.81144 0.80552 0
M  V30 2296 C 230.595 6.30167 0.55428 0
M  V30 2297 C 229.259 6.66426 0.378482 0
M  V30 2298 H 228.529 0.610428 0.420069 0
M  V30 2299 H 231.176 1.86512 0.434212 0
M  V30 2300 H 229.481 2.59248 2.93764 0
M  V30 2301 H 231.178 2.92933 2.73845 0
M  V30 2302 H 227.768 3.92953 1.71132 0
M  V30 2303 H 231.952 4.80034 1.26021 0
M  V30 2304 H 227.208 6.07855 0.657399 0
M  V30 2305 H 231.382 6.96071 0.213983 0
M  V30 2306 H 229.009 7.60143 -0.0932606 0
M  V30 2307 N 230.584 -0.659388 1.43143 0
M  V30 2308 C 231.861 -1.41627 1.34912 0
M  V30 2309 C 232.241 -2.11099 -0.00607785 0
M  V30 2310 O 231.589 -2.04353 -1.02236 0
M  V30 2311 C 231.799 -2.40604 2.52805 0
M  V30 2312 C 233.147 -3.04789 2.95616 0
M  V30 2313 O 234.171 -2.50932 2.52807 0
M  V30 2314 O 233.03 -4.02421 3.69756 0
M  V30 2315 H 230.124 -0.63246 0.532844 0
M  V30 2316 H 232.67 -0.686814 1.5518 0
M  V30 2317 H 231.442 -1.88174 3.43083 0
M  V30 2318 H 231.065 -3.21009 2.34604 0
M  V30 2319 N 232.062 -1.29571 -0.897171 0
M  V30 2320 C 233.339 -1.08365 -1.62839 0
M  V30 2321 C 233.719 0.371331 -2.07808 0
M  V30 2322 O 233.067 1.3606 -1.83576 0
M  V30 2323 C 233.277 -2.0735 -2.80726 0
M  V30 2324 C 234.625 -2.38406 -3.51351 0
M  V30 2325 O 235.649 -2.05564 -2.90898 0
M  V30 2326 O 234.508 -2.9453 -4.60341 0
M  V30 2327 H 231.602 -0.415345 -0.715134 0
M  V30 2328 H 234.148 -1.40952 -0.945018 0
M  V30 2329 H 232.92 -3.05339 -2.44711 0
M  V30 2330 H 232.543 -1.75507 -3.56767 0
M  V30 2331 N 233.54 1.10788 -1.12088 0
M  V30 2332 C 234.77 1.86191 -0.895351 0
M  V30 2333 C 235.178 1.80763 0.558702 0
M  V30 2334 O 234.521 1.19188 1.39785 0
M  V30 2335 C 234.583 3.35659 -1.28737 0
M  V30 2336 C 234.247 3.64849 -2.75198 0
M  V30 2337 C 235.244 3.61757 -3.734 0
M  V30 2338 C 232.929 3.93641 -3.12013 0
M  V30 2339 C 234.923 3.87045 -5.06434 0
M  V30 2340 C 232.61 4.18585 -4.4523 0
M  V30 2341 C 233.608 4.15277 -5.42249 0
M  V30 2342 O 233.296 4.3959 -6.73065 0
M  V30 2343 H 233.028 0.595425 -0.32007 0
M  V30 2344 H 235.582 1.40992 -1.49367 0
M  V30 2345 H 233.812 3.81497 -0.63224 0
M  V30 2346 H 235.501 3.92441 -1.03656 0
M  V30 2347 H 236.267 3.39557 -3.46303 0
M  V30 2348 H 232.146 3.95348 -2.37109 0
M  V30 2349 H 235.69 3.84378 -5.82151 0
M  V30 2350 H 231.587 4.40264 -4.72057 0
M  V30 2351 H 232.355 4.57123 -6.78956 0
M  V30 2352 N 235.018 0.912232 1.28515 0
M  V30 2353 C 236.267 0.540504 1.94323 0
M  V30 2354 C 236.58 -0.920044 1.72611 0
M  V30 2355 O 237.786 -1.39986 2.32629 0
M  V30 2356 C 236.242 0.915803 3.48053 0
M  V30 2357 C 235.85 2.39598 3.78546 0
M  V30 2358 C 237.594 0.614588 4.20027 0
M  V30 2359 C 235.501 2.71148 5.25578 0
M  V30 2360 H 234.431 0.198418 0.727424 0
M  V30 2361 H 237.082 1.11094 1.46049 0
M  V30 2362 H 235.464 0.274168 3.9505 0
M  V30 2363 H 236.638 3.08422 3.42364 0
M  V30 2364 H 234.953 2.66749 3.1974 0
M  V30 2365 H 237.55 0.827002 5.28266 0
M  V30 2366 H 237.893 -0.447531 4.13887 0
M  V30 2367 H 238.426 1.21462 3.78803 0
M  V30 2368 H 235.165 3.76207 5.36794 0
M  V30 2369 H 234.685 2.0696 5.62963 0
M  V30 2370 H 236.364 2.58072 5.93302 0
M  V30 2371 N 236.496 -1.42363 0.676048 0
M  V30 2372 C 237.459 -2.29199 0.00766941 0
M  V30 2373 C 238.459 -1.43389 -0.727745 0
M  V30 2374 O 239.649 -1.64764 -0.56556 0
M  V30 2375 C 236.781 -3.2591 -0.999785 0
M  V30 2376 H 237.974 -2.89794 0.771988 0
M  V30 2377 H 235.527 -1.50024 0.438468 0
M  V30 2378 H 236.262 -2.70256 -1.79255 0
M  V30 2379 H 236.047 -3.89202 -0.475829 0
M  V30 2380 H 237.537 -3.91028 -1.46583 0
M  V30 2381 N 237.974 -0.419461 -1.51915 0
M  V30 2382 C 239.214 0.152336 -2.03832 0
M  V30 2383 C 239.578 1.41501 -1.29775 0
M  V30 2384 O 240.779 2.06591 -1.7197 0
M  V30 2385 C 239.05 0.383812 -3.55333 0
M  V30 2386 S 240.609 0.921577 -4.29013 0
M  V30 2387 H 237.427 0.0402193 -0.709862 0
M  V30 2388 H 240.029 -0.574758 -1.8686 0
M  V30 2389 H 238.733 -0.541794 -4.06808 0
M  V30 2390 H 238.264 1.13849 -3.76566 0
M  V30 2391 H 240.279 2.20108 -4.4471 0
M  V30 2392 N 239.452 1.56882 -0.150215 0
M  V30 2393 C 240.692 1.98119 0.502804 0
M  V30 2394 C 241.056 1.03327 1.61826 0
M  V30 2395 O 242.257 1.33621 2.33236 0
M  V30 2396 C 240.528 3.43329 0.992988 0
M  V30 2397 S 242.087 4.0659 1.65015 0
M  V30 2398 H 238.905 0.692189 0.162467 0
M  V30 2399 H 241.507 1.93988 -0.242689 0
M  V30 2400 H 240.211 4.10046 0.170436 0
M  V30 2401 H 239.742 3.5118 1.77303 0
M  V30 2402 H 241.757 3.99906 2.93752 0
M  V30 2403 N 240.93 -0.123565 1.57115 0
M  V30 2404 C 242.176 -0.833386 1.84885 0
M  V30 2405 C 242.509 -1.79742 0.735292 0
M  V30 2406 O 241.784 -1.92764 -0.25925 0
M  V30 2407 C 242.067 -1.5873 3.23228 0
M  V30 2408 C 241.92 -0.643183 4.45178 0
M  V30 2409 C 243.239 -2.54453 3.59085 0
M  V30 2410 H 240.358 -0.301518 0.6725 0
M  V30 2411 H 243 -0.097778 1.89748 0
M  V30 2412 H 241.15 -2.21438 3.19214 0
M  V30 2413 H 242.822 -0.0253015 4.61293 0
M  V30 2414 H 241.065 0.0456139 4.33776 0
M  V30 2415 H 241.736 -1.20724 5.38637 0
M  V30 2416 H 244.212 -2.01853 3.63861 0
M  V30 2417 H 243.088 -3.04238 4.5687 0
M  V30 2418 H 243.349 -3.36906 2.86264 0
M  V30 2419 N 242.408 -1.52605 -0.393616 0
M  V30 2420 C 243.355 -1.77055 -1.48054 0
M  V30 2421 C 244.325 -0.61358 -1.54352 0
M  V30 2422 O 245.51 -0.852806 -1.70681 0
M  V30 2423 C 242.65 -1.94108 -2.85335 0
M  V30 2424 C 241.763 -3.21792 -2.88226 0
M  V30 2425 C 240.898 -3.29188 -4.16904 0
M  V30 2426 C 239.937 -4.51013 -4.13828 0
M  V30 2427 N 239.074 -4.55716 -5.34105 0
M  V30 2428 H 243.914 -2.69815 -1.26506 0
M  V30 2429 H 241.451 -1.33683 -0.61379 0
M  V30 2430 H 243.409 -2.01979 -3.65049 0
M  V30 2431 H 242.039 -1.04713 -3.05344 0
M  V30 2432 H 241.091 -3.23015 -2.00911 0
M  V30 2433 H 242.403 -4.11557 -2.8182 0
M  V30 2434 H 241.557 -3.36216 -5.05018 0
M  V30 2435 H 240.296 -2.37389 -4.26026 0
M  V30 2436 H 239.301 -4.44115 -3.24102 0
M  V30 2437 H 240.526 -5.44123 -4.06333 0
M  V30 2438 H 238.472 -3.66807 -5.43865 0
M  V30 2439 H 238.389 -5.39346 -5.29756 0
M  V30 2440 H 239.657 -4.66993 -6.2413 0
M  V30 2441 N 243.887 0.651787 -1.4349 0
M  V30 2442 C 244.817 1.77621 -1.51569 0
M  V30 2443 C 245.798 1.66022 -0.370253 0
M  V30 2444 O 246.983 1.85095 -0.587658 0
M  V30 2445 C 244.113 3.16056 -1.43966 0
M  V30 2446 C 243.067 3.4242 -2.56774 0
M  V30 2447 C 242.393 4.8067 -2.34223 0
M  V30 2448 C 243.693 3.37023 -3.99015 0
M  V30 2449 H 245.387 1.71117 -2.45681 0
M  V30 2450 H 242.933 0.821825 -1.18246 0
M  V30 2451 H 244.886 3.94472 -1.48221 0
M  V30 2452 H 243.61 3.23293 -0.463586 0
M  V30 2453 H 242.269 2.66375 -2.51873 0
M  V30 2454 H 241.917 4.84585 -1.34856 0
M  V30 2455 H 241.617 4.9927 -3.09844 0
M  V30 2456 H 243.141 5.61342 -2.40265 0
M  V30 2457 H 244.555 4.05374 -4.05395 0
M  V30 2458 H 242.952 3.67159 -4.74673 0
M  V30 2459 H 244.022 2.3518 -4.2405 0
M  V30 2460 N 245.365 1.30045 0.890287 0
M  V30 2461 C 246.781 1.08261 1.17268 0
M  V30 2462 C 246.981 -0.160063 2.00863 0
M  V30 2463 O 246.037 -0.855181 2.37577 0
M  V30 2464 C 247.35 2.34323 1.8845 0
M  V30 2465 C 248.898 2.39735 2.01237 0
M  V30 2466 C 249.373 3.65625 2.7583 0
M  V30 2467 N 250.864 3.66402 2.83379 0
M  V30 2468 C 251.599 4.60498 3.41657 0
M  V30 2469 N 251.095 5.64933 4.01026 0
M  V30 2470 N 252.888 4.48051 3.39421 0
M  V30 2471 H 245.039 2.09777 0.332762 0
M  V30 2472 H 247.302 0.92446 0.209948 0
M  V30 2473 H 247.008 3.2498 1.34465 0
M  V30 2474 H 246.882 2.4256 2.88867 0
M  V30 2475 H 249.269 1.4956 2.54393 0
M  V30 2476 H 249.35 2.35476 0.999232 0
M  V30 2477 H 248.994 4.56156 2.23347 0
M  V30 2478 H 248.924 3.67144 3.77509 0
M  V30 2479 H 251.415 2.90896 2.41222 0
M  V30 2480 H 251.728 6.32841 4.43545 0
M  V30 2481 H 250.073 5.68732 3.99461 0
M  V30 2482 H 253.264 3.65649 2.92264 0
M  V30 2483 H 253.437 5.21565 3.84544 0
M  V30 2484 N 246.843 -1.10192 1.12674 0
M  V30 2485 C 247.806 -2.14786 0.799979 0
M  V30 2486 C 248.806 -1.59711 -0.18685 0
M  V30 2487 O 249.996 -1.74156 0.0392558 0
M  V30 2488 C 247.128 -3.40374 0.189228 0
M  V30 2489 H 248.321 -2.45203 1.72671 0
M  V30 2490 H 245.874 -1.25597 0.930326 0
M  V30 2491 H 246.609 -3.15577 -0.747107 0
M  V30 2492 H 246.394 -3.81637 0.899766 0
M  V30 2493 H 247.884 -4.17594 -0.0228143 0
M  V30 2494 N 248.321 -0.919034 -1.28029 0
M  V30 2495 C 249.251 -0.428581 -2.29533 0
M  V30 2496 C 250.232 0.50659 -1.62381 0
M  V30 2497 O 251.417 0.413195 -1.89753 0
M  V30 2498 C 248.547 0.327388 -3.45753 0
M  V30 2499 C 247.501 -0.519137 -4.2484 0
M  V30 2500 C 246.827 0.365486 -5.33449 0
M  V30 2501 C 248.127 -1.77914 -4.91064 0
M  V30 2502 H 249.821 -1.27687 -2.70807 0
M  V30 2503 H 247.367 -0.615428 -1.30186 0
M  V30 2504 H 249.32 0.681378 -4.15855 0
M  V30 2505 H 248.044 1.20963 -3.03374 0
M  V30 2506 H 246.703 -0.855717 -3.56473 0
M  V30 2507 H 246.351 1.24642 -4.87312 0
M  V30 2508 H 246.051 -0.197356 -5.87268 0
M  V30 2509 H 247.575 0.715241 -6.06396 0
M  V30 2510 H 248.989 -1.49374 -5.53498 0
M  V30 2511 H 247.386 -2.2848 -5.54903 0
M  V30 2512 H 248.456 -2.50382 -4.15255 0
M  V30 2513 N 249.799 1.42003 -0.683588 0
M  V30 2514 C 251.027 2.05746 -0.218182 0
M  V30 2515 C 251.442 1.51396 1.12804 0
M  V30 2516 O 250.799 0.657303 1.70252 0
M  V30 2517 C 250.85 3.61171 -0.154131 0
M  V30 2518 O 250.571 4.13508 -1.44716 0
M  V30 2519 C 252.072 4.42042 0.333713 0
M  V30 2520 H 249.292 0.662888 -0.10402 0
M  V30 2521 H 251.836 1.81987 -0.9328 0
M  V30 2522 H 249.991 3.84012 0.511231 0
M  V30 2523 H 250.405 5.07453 -1.32632 0
M  V30 2524 H 251.879 5.51028 0.327423 0
M  V30 2525 H 252.356 4.17269 1.37053 0
M  V30 2526 H 252.962 4.24239 -0.300222 0
M  V30 2527 N 251.277 0.427512 1.51691 0
M  V30 2528 C 252.554 -0.201684 1.94557 0
M  V30 2529 C 252.934 -1.60981 1.36559 0
M  V30 2530 O 252.282 -2.21814 0.548702 0
M  V30 2531 C 252.492 -0.189394 3.48486 0
M  V30 2532 C 253.84 -0.39978 4.22714 0
M  V30 2533 O 254.864 -0.267945 3.55191 0
M  V30 2534 O 253.723 -0.661249 5.42485 0
M  V30 2535 H 250.817 -0.135261 0.815864 0
M  V30 2536 H 253.363 0.484782 1.62628 0
M  V30 2537 H 252.135 0.795431 3.8313 0
M  V30 2538 H 251.758 -0.919187 3.86829 0
M  V30 2539 N 252.755 -1.56801 0.158532 0
M  V30 2540 C 253.98 -2.01295 -0.499516 0
M  V30 2541 C 254.405 -1.03799 -1.56867 0
M  V30 2542 O 253.763 -0.0155162 -1.81293 0
M  V30 2543 C 253.811 -3.44469 -1.06647 0
M  V30 2544 O 252.915 -3.50012 -2.18095 0
M  V30 2545 H 252.256 -0.652884 -0.12099 0
M  V30 2546 H 254.786 -2.02958 0.258661 0
M  V30 2547 H 254.796 -3.8351 -1.39227 0
M  V30 2548 H 253.471 -4.14932 -0.283581 0
M  V30 2549 H 252.048 -3.22822 -1.86656 0
M  V30 2550 N 254.233 0.115231 -1.57178 0
M  V30 2551 C 255.48 0.822351 -1.8505 0
M  V30 2552 C 255.808 1.79701 -0.744168 0
M  V30 2553 O 255.063 1.93909 0.26414 0
M  V30 2554 C 255.362 1.60324 -3.19423 0
M  V30 2555 C 255.028 0.772536 -4.44233 0
M  V30 2556 C 253.69 0.543468 -4.78121 0
M  V30 2557 C 256.042 0.193746 -5.2084 0
M  V30 2558 C 253.37 -0.274583 -5.86057 0
M  V30 2559 C 255.722 -0.611517 -6.29637 0
M  V30 2560 C 254.386 -0.850867 -6.62055 0
M  V30 2561 H 253.656 0.30092 -0.677147 0
M  V30 2562 H 256.303 0.0845802 -1.91313 0
M  V30 2563 H 254.608 2.41203 -3.08753 0
M  V30 2564 H 256.305 2.1544 -3.38211 0
M  V30 2565 H 252.895 0.96117 -4.17683 0
M  V30 2566 H 257.079 0.357926 -4.95008 0
M  V30 2567 H 252.335 -0.469206 -6.09597 0
M  V30 2568 H 256.509 -1.06697 -6.88178 0
M  V30 2569 H 254.136 -1.48657 -7.45523 0
M  V30 2570 N 255.711 1.52812 0.385517 0
M  V30 2571 C 257.127 1.4214 0.725829 0
M  V30 2572 C 257.327 0.544589 1.94001 0
M  V30 2573 O 256.383 0.0193693 2.52493 0
M  V30 2574 C 257.696 2.85042 0.957668 0
M  V30 2575 C 259.244 2.94543 1.05892 0
M  V30 2576 C 259.719 4.38464 1.32337 0
M  V30 2577 N 261.21 4.41804 1.39151 0
M  V30 2578 C 261.945 5.5025 1.61285 0
M  V30 2579 N 261.441 6.68775 1.80866 0
M  V30 2580 N 263.234 5.37798 1.63492 0
M  V30 2581 H 255.385 2.08338 -0.413383 0
M  V30 2582 H 257.648 0.940016 -0.122775 0
M  V30 2583 H 257.354 3.51431 0.137568 0
M  V30 2584 H 257.228 3.27505 1.87137 0
M  V30 2585 H 259.615 2.28321 1.86959 0
M  V30 2586 H 259.696 2.55504 0.123057 0
M  V30 2587 H 259.34 5.05254 0.517793 0
M  V30 2588 H 259.27 4.75059 2.27214 0
M  V30 2589 H 261.761 3.56377 1.25713 0
M  V30 2590 H 262.074 7.47197 1.97271 0
M  V30 2591 H 260.419 6.71797 1.78083 0
M  V30 2592 H 263.61 4.44171 1.47749 0
M  V30 2593 H 263.783 6.22382 1.80402 0
M  V30 2594 N 257.189 -0.644168 1.43834 0
M  V30 2595 C 258.605 -0.960875 1.27434 0
M  V30 2596 C 258.805 -2.00499 0.200618 0
M  V30 2597 O 257.861 -2.49018 -0.417906 0
M  V30 2598 C 259.174 -1.43653 2.64167 0
M  V30 2599 C 260.722 -1.55271 2.71772 0
M  V30 2600 C 261.197 -2.06224 4.08944 0
M  V30 2601 N 262.688 -2.13513 4.11055 0
M  V30 2602 C 263.423 -2.54081 5.14033 0
M  V30 2603 N 262.919 -2.9388 6.27381 0
M  V30 2604 N 264.712 -2.54101 5.01387 0
M  V30 2605 H 256.863 0.0465779 2.12349 0
M  V30 2606 H 259.126 -0.0417638 0.94708 0
M  V30 2607 H 258.832 -0.743706 3.43747 0
M  V30 2608 H 258.706 -2.40993 2.90176 0
M  V30 2609 H 261.093 -2.23653 1.92519 0
M  V30 2610 H 261.174 -0.563395 2.49519 0
M  V30 2611 H 260.818 -1.38441 4.88668 0
M  V30 2612 H 260.748 -3.06003 4.28567 0
M  V30 2613 H 263.239 -1.85493 3.29242 0
M  V30 2614 H 263.552 -3.2361 7.01781 0
M  V30 2615 H 261.897 -2.91663 6.30839 0
M  V30 2616 H 265.088 -2.22391 4.11898 0
M  V30 2617 H 265.261 -2.85394 5.81768 0
M  V30 2618 N 258.668 -1.30515 -0.883378 0
M  V30 2619 C 260.084 -1.08881 -1.16692 0
M  V30 2620 C 260.284 0.149409 -2.00945 0
M  V30 2621 O 259.34 0.84257 -2.38027 0
M  V30 2622 C 260.653 -2.35319 -1.87204 0
M  V30 2623 C 262.201 -2.40799 -1.99962 0
M  V30 2624 C 262.676 -3.67083 -2.73887 0
M  V30 2625 N 264.167 -3.679 -2.81432 0
M  V30 2626 C 264.902 -4.62303 -3.3921 0
M  V30 2627 N 264.398 -5.67052 -3.98025 0
M  V30 2628 N 266.191 -4.49845 -3.3704 0
M  V30 2629 H 258.342 -2.09951 -0.321633 0
M  V30 2630 H 260.605 -0.92556 -0.205043 0
M  V30 2631 H 260.311 -3.25689 -1.3274 0
M  V30 2632 H 260.185 -2.44089 -2.87577 0
M  V30 2633 H 262.572 -1.50907 -2.53597 0
M  V30 2634 H 262.653 -2.36003 -0.98673 0
M  V30 2635 H 262.297 -4.57334 -2.20925 0
M  V30 2636 H 262.227 -3.69141 -3.75556 0
M  V30 2637 H 264.718 -2.92171 -2.39676 0
M  V30 2638 H 265.031 -6.35184 -4.40183 0
M  V30 2639 H 263.376 -5.70842 -3.96439 0
M  V30 2640 H 266.567 -3.67194 -2.90321 0
M  V30 2641 H 266.74 -5.23597 -3.81772 0
M  V30 2642 N 260.146 1.09593 -1.13257 0
M  V30 2643 C 261.423 1.78293 -0.804432 0
M  V30 2644 C 261.803 1.99004 0.70431 0
M  V30 2645 O 261.151 1.59007 1.641 0
M  V30 2646 C 261.361 3.10707 -1.5894 0
M  V30 2647 C 262.709 3.85443 -1.78099 0
M  V30 2648 O 263.733 3.20454 -1.55525 0
M  V30 2649 O 262.592 5.02108 -2.15753 0
M  V30 2650 H 259.686 0.773156 -0.293528 0
M  V30 2651 H 262.232 1.16164 -1.23709 0
M  V30 2652 H 261.004 2.91106 -2.61482 0
M  V30 2653 H 260.627 3.80558 -1.15157 0
M  V30 2654 N 261.624 0.925811 1.2754 0
M  V30 2655 C 262.852 0.581509 1.9856 0
M  V30 2656 C 263.267 -0.840041 1.69082 0
M  V30 2657 O 262.624 -1.55805 0.950312 0
M  V30 2658 C 262.675 0.795589 3.52637 0
M  V30 2659 O 262.396 2.16121 3.81082 0
M  V30 2660 C 263.897 0.459744 4.4091 0
M  V30 2661 H 261.117 0.220538 0.633722 0
M  V30 2662 H 263.661 1.24232 1.6244 0
M  V30 2663 H 261.816 0.18161 3.86974 0
M  V30 2664 H 262.23 2.2098 4.75676 0
M  V30 2665 H 263.704 0.660244 5.48037 0
M  V30 2666 H 264.181 -0.604625 4.35018 0
M  V30 2667 H 264.787 1.05178 4.12089 0
M  V30 2668 N 263.102 -1.41638 0.69111 0
M  V30 2669 C 264.065 -2.29178 0.0319786 0
M  V30 2670 C 265.065 -1.44153 -0.712496 0
M  V30 2671 O 266.255 -1.65354 -0.548053 0
M  V30 2672 C 263.387 -3.26952 -0.965161 0
M  V30 2673 H 264.58 -2.88959 0.802681 0
M  V30 2674 H 262.133 -1.4955 0.454356 0
M  V30 2675 H 262.868 -2.72142 -1.76378 0
M  V30 2676 H 262.653 -3.89685 -0.434522 0
M  V30 2677 H 264.143 -3.92561 -1.42428 0
M  V30 2678 N 264.58 -0.43555 -1.51462 0
M  V30 2679 C 265.512 0.41257 -2.25456 0
M  V30 2680 C 266.525 0.987822 -1.29406 0
M  V30 2681 O 267.714 0.882266 -1.55172 0
M  V30 2682 C 264.814 1.58894 -2.99342 0
M  V30 2683 C 263.987 1.13288 -4.22474 0
M  V30 2684 C 263.046 2.17917 -4.78956 0
M  V30 2685 O 262.072 1.77425 -5.40841 0
M  V30 2686 N 263.274 3.50382 -4.62832 0
M  V30 2687 H 266.039 -0.221603 -2.9888 0
M  V30 2688 H 263.6 -0.264342 -1.59727 0
M  V30 2689 H 265.592 2.28508 -3.34015 0
M  V30 2690 H 264.162 2.12849 -2.28941 0
M  V30 2691 H 263.382 0.263881 -3.93316 0
M  V30 2692 H 264.67 0.805542 -5.02383 0
M  V30 2693 H 264.068 3.86013 -4.13534 0
M  V30 2694 H 262.625 4.15895 -5.01871 0
M  V30 2695 N 266.058 1.56714 -0.166846 0
M  V30 2696 C 266.99 2.14914 0.796537 0
M  V30 2697 C 268.003 1.10357 1.19688 0
M  V30 2698 O 269.192 1.37561 1.13751 0
M  V30 2699 C 266.292 2.67326 2.08303 0
M  V30 2700 C 265.465 3.96493 1.84696 0
M  V30 2701 C 264.524 4.34014 2.97521 0
M  V30 2702 O 263.55 5.01973 2.6835 0
M  V30 2703 N 264.752 3.95208 4.25196 0
M  V30 2704 H 267.517 2.98205 0.299006 0
M  V30 2705 H 265.078 1.61892 0.0160839 0
M  V30 2706 H 267.07 2.89428 2.82867 0
M  V30 2707 H 265.64 1.88649 2.4926 0
M  V30 2708 H 264.86 3.82814 0.940602 0
M  V30 2709 H 266.148 4.8086 1.66285 0
M  V30 2710 H 265.546 3.40487 4.51758 0
M  V30 2711 H 264.103 4.2232 4.96477 0
M  V30 2712 N 267.536 -0.106894 1.57237 0
M  V30 2713 C 268.784 -0.810921 1.85117 0
M  V30 2714 C 269.105 -1.7984 0.753827 0
M  V30 2715 O 268.375 -1.94649 -0.221056 0
M  V30 2716 H 266.955 -0.302466 0.683025 0
M  V30 2717 H 269.617 -0.0913324 1.94686 0
M  V30 2718 H 268.713 -1.34875 2.81452 0
M  V30 2719 N 269.014 -1.53014 -0.377408 0
M  V30 2720 C 270.26 -1.68872 -1.12294 0
M  V30 2721 C 270.593 -0.433224 -1.89306 0
M  V30 2722 O 269.868 0.569258 -1.85983 0
M  V30 2723 C 270.151 -2.93115 -2.09179 0
M  V30 2724 C 270.004 -4.28794 -1.35853 0
M  V30 2725 C 271.323 -3.12928 -3.09458 0
M  V30 2726 H 268.442 -0.614518 -0.406862 0
M  V30 2727 H 271.084 -1.85633 -0.40503 0
M  V30 2728 H 269.234 -2.78956 -2.70399 0
M  V30 2729 H 270.906 -4.54742 -0.775082 0
M  V30 2730 H 269.149 -4.28744 -0.660364 0
M  V30 2731 H 269.82 -5.11837 -2.06706 0
M  V30 2732 H 272.296 -3.26194 -2.58334 0
M  V30 2733 H 271.172 -4.01316 -3.74482 0
M  V30 2734 H 271.433 -2.27669 -3.78971 0
M  V30 2735 N 270.492 0.636531 -1.44174 0
M  V30 2736 C 271.738 1.39826 -1.4689 0
M  V30 2737 C 272.071 1.93947 -0.0990585 0
M  V30 2738 O 271.346 1.73325 0.882544 0
M  V30 2739 C 271.629 2.56751 -2.5249 0
M  V30 2740 C 271.482 2.08014 -3.98811 0
M  V30 2741 C 272.801 3.58946 -2.54649 0
M  V30 2742 H 269.92 0.507075 -0.53483 0
M  V30 2743 H 272.562 0.720188 -1.75822 0
M  V30 2744 H 270.712 3.14597 -2.2795 0
M  V30 2745 H 272.384 1.5504 -4.34466 0
M  V30 2746 H 270.627 1.39242 -4.10846 0
M  V30 2747 H 271.298 2.92169 -4.68339 0
M  V30 2748 H 273.774 3.1089 -2.76563 0
M  V30 2749 H 272.65 4.38286 -3.3045 0
M  V30 2750 H 272.911 4.12655 -1.58646 0
M  V30 2751 N 271.97 1.30982 0.876444 0
M  V30 2752 C 272.918 1.18006 2.00443 0
M  V30 2753 C 273.912 0.0898871 1.69161 0
M  V30 2754 O 275.118 0.251333 1.78237 0
M  V30 2755 H 271.493 0.365196 0.65737 0
M  V30 2756 H 273.464 2.13453 2.0852 0
M  V30 2757 C 272.213 0.897521 3.35916 0
M  V30 2758 H 271.536 1.7285 3.60504 0
M  V30 2759 H 272.976 0.846874 4.15456 0
M  V30 2760 C 271.435 -0.399674 3.34521 0
M  V30 2761 O 271.965 -1.41852 3.7582 0
M  V30 2762 N 270.171 -0.413893 2.87637 0
M  V30 2763 H 269.718 0.41571 2.54224 0
M  V30 2764 H 269.676 -1.28175 2.87086 0
M  V30 2765 N 273.449 -1.08991 1.13837 0
M  V30 2766 C 274.696 -1.81258 0.902882 0
M  V30 2767 C 275.024 -1.85936 -0.570803 0
M  V30 2768 O 274.279 -1.3267 -1.43865 0
M  V30 2769 C 274.578 -3.27042 1.44147 0
M  V30 2770 C 274.244 -3.4249 2.93276 0
M  V30 2771 C 272.906 -3.46414 3.33992 0
M  V30 2772 C 275.258 -3.4666 3.892 0
M  V30 2773 C 272.586 -3.52091 4.69307 0
M  V30 2774 C 274.938 -3.53872 5.24364 0
M  V30 2775 C 273.602 -3.56066 5.646 0
M  V30 2776 H 272.872 -0.663268 0.330388 0
M  V30 2777 H 275.519 -1.28368 1.42105 0
M  V30 2778 H 273.824 -3.82599 0.844097 0
M  V30 2779 H 275.521 -3.81499 1.23528 0
M  V30 2780 H 272.111 -3.40124 2.60794 0
M  V30 2781 H 276.295 -3.42865 3.58828 0
M  V30 2782 H 271.551 -3.52079 4.9985 0
M  V30 2783 H 275.725 -3.56043 5.98503 0
M  V30 2784 H 273.352 -3.60218 6.69438 0
M  V30 2785 N 274.927 -0.932562 -1.27047 0
M  V30 2786 C 276.338 -0.619451 -1.76124 0
M  V30 2787 C 276.689 0.865397 -1.76083 0
M  V30 2788 O 275.814 1.67722 -1.36742 0
M  V30 2789 C 276.409 -1.11771 -3.19832 0
M  V30 2790 C 274.968 -0.855174 -3.66557 0
M  V30 2791 C 274.115 -1.27362 -2.46321 0
M  V30 2792 H 277.066 -1.11181 -1.13245 0
M  V30 2793 H 277.087 -0.46759 -3.77616 0
M  V30 2794 H 276.599 -2.19842 -3.1983 0
M  V30 2795 H 274.7 0.211524 -3.71999 0
M  V30 2796 H 274.813 -1.47613 -4.55793 0
M  V30 2797 H 273.177 -0.692119 -2.45116 0
M  V30 2798 H 273.96 -2.36307 -2.49025 0
M  V30 2799 N 276.405 1.4127 -0.698611 0
M  V30 2800 C 277.635 2.05205 -0.239644 0
M  V30 2801 C 278.043 1.52684 1.11733 0
M  V30 2802 O 277.386 0.671222 1.70998 0
M  V30 2803 C 277.448 3.59289 -0.123126 0
M  V30 2804 C 277.112 4.34619 -1.41263 0
M  V30 2805 C 278.109 4.63701 -2.35111 0
M  V30 2806 C 275.794 4.73837 -1.66684 0
M  V30 2807 C 277.788 5.30966 -3.52639 0
M  V30 2808 C 275.475 5.40837 -2.84498 0
M  V30 2809 C 276.473 5.69329 -3.77298 0
M  V30 2810 O 276.161 6.34949 -4.93047 0
M  V30 2811 H 275.893 0.66723 -0.108537 0
M  V30 2812 H 278.447 1.81974 -0.952602 0
M  V30 2813 H 276.677 3.81272 0.645628 0
M  V30 2814 H 278.366 4.04797 0.299056 0
M  V30 2815 H 279.132 4.33882 -2.16729 0
M  V30 2816 H 275.011 4.51039 -0.953135 0
M  V30 2817 H 278.555 5.53121 -4.25091 0
M  V30 2818 H 274.452 5.70075 -3.02795 0
M  V30 2819 H 275.22 6.53445 -4.92902 0
M  V30 2820 N 277.883 0.443576 1.51229 0
M  V30 2821 C 279.16 -0.181038 1.9476 0
M  V30 2822 C 279.54 -1.59523 1.38259 0
M  V30 2823 O 278.888 -2.2122 0.572198 0
M  V30 2824 C 279.098 -0.152422 3.48667 0
M  V30 2825 C 280.446 -0.354923 4.23114 0
M  V30 2826 O 281.47 -0.230257 3.55455 0
M  V30 2827 O 280.329 -0.603674 5.43156 0
M  V30 2828 H 277.423 -0.1266 0.817252 0
M  V30 2829 H 279.969 0.502004 1.62105 0
M  V30 2830 H 278.741 0.836022 3.82265 0
M  V30 2831 H 278.364 -0.878107 3.87782 0
M  V30 2832 N 279.361 -1.56624 0.175154 0
M  V30 2833 C 280.638 -1.88688 -0.515373 0
M  V30 2834 C 281.018 -1.08564 -1.81044 0
M  V30 2835 O 280.366 -0.180703 -2.27784 0
M  V30 2836 C 280.576 -3.40768 -0.753552 0
M  V30 2837 C 281.924 -4.10587 -1.08184 0
M  V30 2838 O 282.948 -3.46106 -0.841961 0
M  V30 2839 O 281.807 -5.24512 -1.53459 0
M  V30 2840 H 278.901 -0.78301 -0.26613 0
M  V30 2841 H 281.447 -1.68347 0.213877 0
M  V30 2842 H 280.219 -3.90965 0.161829 0
M  V30 2843 H 279.842 -3.66733 -1.53598 0
M  V30 2844 N 280.839 0.0985539 -1.57292 0
M  V30 2845 C 282.086 0.802678 -1.85912 0
M  V30 2846 C 282.414 1.78901 -0.763186 0
M  V30 2847 O 281.669 1.94178 0.243559 0
M  V30 2848 C 281.968 1.56927 -3.21105 0
M  V30 2849 C 281.634 0.725376 -4.45027 0
M  V30 2850 C 280.296 0.492726 -4.78671 0
M  V30 2851 C 282.648 0.138493 -5.21016 0
M  V30 2852 C 279.976 -0.336727 -5.85733 0
M  V30 2853 C 282.328 -0.678264 -6.28953 0
M  V30 2854 C 280.992 -0.921039 -6.61115 0
M  V30 2855 H 280.262 0.293721 -0.680301 0
M  V30 2856 H 282.909 0.0642841 -1.91392 0
M  V30 2857 H 281.214 2.37914 -3.11294 0
M  V30 2858 H 282.911 2.11841 -3.40477 0
M  V30 2859 H 279.501 0.916815 -4.18679 0
M  V30 2860 H 283.685 0.305404 -4.95359 0
M  V30 2861 H 278.941 -0.533836 -6.09065 0
M  V30 2862 H 283.115 -1.1399 -6.87007 0
M  V30 2863 H 280.742 -1.56556 -7.43905 0
M  V30 2864 N 282.317 1.53212 0.369288 0
M  V30 2865 C 283.566 1.68436 1.10961 0
M  V30 2866 C 283.879 0.440738 1.9057 0
M  V30 2867 O 285.085 0.473446 2.6734 0
M  V30 2868 C 283.541 2.97744 2.0218 0
M  V30 2869 C 283.149 4.29355 1.279 0
M  V30 2870 C 284.893 3.22334 2.76226 0
M  V30 2871 C 282.8 5.49755 2.17999 0
M  V30 2872 H 281.73 0.627568 0.41794 0
M  V30 2873 H 284.381 1.79713 0.370884 0
M  V30 2874 H 282.763 2.8026 2.79768 0
M  V30 2875 H 283.937 4.57458 0.554007 0
M  V30 2876 H 282.252 4.11179 0.657311 0
M  V30 2877 H 284.849 4.09471 3.43857 0
M  V30 2878 H 285.192 2.38238 3.41392 0
M  V30 2879 H 285.725 3.40475 2.05723 0
M  V30 2880 H 282.464 6.36318 1.57417 0
M  V30 2881 H 281.984 5.25937 2.88359 0
M  V30 2882 H 283.663 5.84401 2.77641 0
M  V30 2883 N 283.795 -0.628877 1.44509 0
M  V30 2884 C 284.727 -1.754 1.47538 0
M  V30 2885 C 285.74 -1.58575 0.368506 0
M  V30 2886 O 286.929 -1.66847 0.634376 0
M  V30 2887 C 284.029 -3.1315 1.29577 0
M  V30 2888 C 283.202 -3.56413 2.53551 0
M  V30 2889 C 282.261 -4.7305 2.30457 0
M  V30 2890 O 281.287 -4.81247 3.03957 0
M  V30 2891 N 282.489 -5.64903 1.3366 0
M  V30 2892 H 285.254 -1.73272 2.44534 0
M  V30 2893 H 282.815 -0.813512 1.39977 0
M  V30 2894 H 284.807 -3.88902 1.11971 0
M  V30 2895 H 283.377 -3.09908 0.409371 0
M  V30 2896 H 282.597 -2.70847 2.86419 0
M  V30 2897 H 283.885 -3.82071 3.36005 0
M  V30 2898 H 283.283 -5.60975 0.729604 0
M  V30 2899 H 281.84 -6.40275 1.22032 0
M  V30 2900 N 285.273 -1.31445 -0.869486 0
M  V30 2901 C 286.513 -1.22458 -1.63656 0
M  V30 2902 C 286.877 0.213846 -1.90805 0
M  V30 2903 O 288.078 0.427212 -2.65383 0
M  V30 2904 C 286.349 -2.04564 -2.93067 0
M  V30 2905 S 287.908 -2.12445 -3.83944 0
M  V30 2906 H 284.726 -0.436145 -0.561514 0
M  V30 2907 H 287.328 -1.66114 -1.03085 0
M  V30 2908 H 286.032 -3.0816 -2.71045 0
M  V30 2909 H 285.563 -1.6163 -3.58663 0
M  V30 2910 H 287.578 -1.26312 -4.79854 0
M  V30 2911 N 286.751 1.08385 -1.14413 0
M  V30 2912 C 287.997 1.81044 -0.913834 0
M  V30 2913 C 288.33 1.86004 0.558209 0
M  V30 2914 O 287.605 1.33606 1.4135 0
M  V30 2915 C 287.888 3.26648 -1.51569 0
M  V30 2916 C 287.741 3.29895 -3.0576 0
M  V30 2917 C 289.06 4.23629 -1.19273 0
M  V30 2918 H 286.179 0.65727 -0.333414 0
M  V30 2919 H 288.821 1.26896 -1.41412 0
M  V30 2920 H 286.971 3.72889 -1.09023 0
M  V30 2921 H 288.643 2.91977 -3.57137 0
M  V30 2922 H 286.886 2.69163 -3.40197 0
M  V30 2923 H 287.557 4.32516 -3.42977 0
M  V30 2924 H 290.033 3.85727 -1.56057 0
M  V30 2925 H 288.909 5.23822 -1.64017 0
M  V30 2926 H 289.17 4.41968 -0.108068 0
M  V30 2927 N 288.23 0.939286 1.26551 0
M  V30 2928 C 289.163 0.391702 2.24813 0
M  V30 2929 C 290.141 -0.518421 1.54114 0
M  V30 2930 O 291.325 -0.456299 1.82894 0
M  V30 2931 C 288.452 -0.437382 3.35864 0
M  V30 2932 C 287.498 0.410946 4.24516 0
M  V30 2933 S 288.331 1.83372 5.03125 0
M  V30 2934 C 289.487 1.01264 6.17654 0
M  V30 2935 H 289.72 1.22448 2.70913 0
M  V30 2936 H 287.253 0.742269 1.35387 0
M  V30 2937 H 289.211 -0.909837 4.0029 0
M  V30 2938 H 287.872 -1.24482 2.8838 0
M  V30 2939 H 287.065 -0.224191 5.03501 0
M  V30 2940 H 286.667 0.818014 3.64945 0
M  V30 2941 H 288.959 0.254023 6.77024 0
M  V30 2942 H 289.902 1.77589 6.85469 0
M  V30 2943 H 290.31 0.549532 5.61819 0
M  V30 2944 N 289.708 -1.40897 0.706093 0
M  V30 2945 C 290.933 -2.05895 0.249435 0
M  V30 2946 C 291.358 -1.52823 -1.09666 0
M  V30 2947 O 290.716 -0.659589 -1.68876 0
M  V30 2948 C 290.764 -3.59872 0.22904 0
M  V30 2949 O 289.868 -4.04708 -0.792784 0
M  V30 2950 H 289.209 -0.653206 0.119241 0
M  V30 2951 H 291.739 -1.80471 0.96391 0
M  V30 2952 H 291.749 -4.07951 0.0634791 0
M  V30 2953 H 290.424 -3.97866 1.21141 0
M  V30 2954 H 289.001 -3.68111 -0.59572 0
M  V30 2955 N 291.186 -0.45159 -1.50991 0
M  V30 2956 C 292.432 0.110237 -2.025 0
M  V30 2957 C 292.765 1.41109 -1.33424 0
M  V30 2958 O 292.04 1.89135 -0.453659 0
M  V30 2959 C 292.323 0.314271 -3.58726 0
M  V30 2960 C 292.176 -1.00623 -4.38401 0
M  V30 2961 C 293.495 1.07767 -4.26702 0
M  V30 2962 H 290.614 0.0385897 -0.735989 0
M  V30 2963 H 293.256 -0.593374 -1.80497 0
M  V30 2964 H 291.406 0.913601 -3.77605 0
M  V30 2965 H 293.078 -1.64064 -4.31139 0
M  V30 2966 H 291.321 -1.6075 -4.02917 0
M  V30 2967 H 291.992 -0.817341 -5.45915 0
M  V30 2968 H 294.468 0.56986 -4.12179 0
M  V30 2969 H 293.344 1.18921 -5.35863 0
M  V30 2970 H 293.605 2.10939 -3.88532 0
M  V30 2971 O 292.703 1.58203 -0.324668 0
M  V30 2972 H 293.394 1.9227 0.234936 0
M  V30 END ATOM
M  V30 BEGIN BOND
M  V30 END BOND
M  V30 END CTAB
M  END
$$$$
