drugbank_target|P30613 Pyruvate kinase PKLR (DB00119; DB02726; DB04551)
 OpenBabel12092119233D

  0  0  0     0  0            999 V3000
M  V30 BEGIN CTAB
M  V30 COUNTS 8782 8853 0 0 0
M  V30 BEGIN ATOM
M  V30 1 H -0.908 1.98254 -0.117106 0
M  V30 2 N 0 1.576 0 0
M  V30 3 C 0.933 2.03868 1.02534 0
M  V30 4 C 1.911 0.928543 1.3348 0
M  V30 5 O 3.095 1.19667 1.45644 0
M  V30 6 C 0.222 2.43627 2.35294 0
M  V30 7 C -0.732 3.65373 2.2001 0
M  V30 8 S 0.101 5.13292 1.52614 0
M  V30 9 C 1.257 5.56322 2.86805 0
M  V30 10 H 1.49 2.90518 0.631377 0
M  V30 11 H -0.977 1.52953 0.210867 0
M  V30 12 H 0.981 2.67203 3.11629 0
M  V30 13 H -0.358 1.57376 2.7183 0
M  V30 14 H -1.165 3.90944 3.18086 0
M  V30 15 H -1.563 3.418 1.51819 0
M  V30 16 H 0.729 5.58782 3.83104 0
M  V30 17 H 1.672 6.56266 2.65933 0
M  V30 18 H 2.08 4.83886 2.90714 0
M  V30 19 N 1.4781 -0.272755 1.55222 0
M  V30 20 C 2.7031 -1.02683 1.80197 0
M  V30 21 C 3.1281 -1.79142 0.573551 0
M  V30 22 O 2.4861 -1.74917 -0.476849 0
M  V30 23 C 2.5341 -1.9609 3.02624 0
M  V30 24 O 1.6381 -3.04863 2.77727 0
M  V30 25 H 0.9791 -0.293557 0.595584 0
M  V30 26 H 3.5091 -0.30159 2.02365 0
M  V30 27 H 3.5191 -2.38039 3.31363 0
M  V30 28 H 2.1941 -1.39851 3.91682 0
M  V30 29 H 0.7711 -2.67228 2.60084 0
M  V30 30 N 2.9562 -1.48159 -0.537278 0
M  V30 31 C 4.2052 -1.5506 -1.28993 0
M  V30 32 C 4.5182 -0.226211 -1.94288 0
M  V30 33 O 5.7242 -0.173395 -2.70946 0
M  V30 34 C 4.1802 -2.73429 -2.34018 0
M  V30 35 C 3.7882 -4.1248 -1.74825 0
M  V30 36 C 5.5322 -2.89638 -3.10339 0
M  V30 37 C 3.4392 -5.22121 -2.77747 0
M  V30 38 H 2.3692 -0.577231 -0.485098 0
M  V30 39 H 5.0202 -1.74478 -0.568317 0
M  V30 40 H 3.4022 -2.47431 -3.09182 0
M  V30 41 H 4.5762 -4.48466 -1.05899 0
M  V30 42 H 2.8912 -4.01327 -1.11022 0
M  V30 43 H 5.4882 -3.68718 -3.87235 0
M  V30 44 H 5.8312 -1.9882 -3.65754 0
M  V30 45 H 6.3642 -3.15502 -2.42288 0
M  V30 46 H 3.1032 -6.1488 -2.27161 0
M  V30 47 H 2.6232 -4.90631 -3.45024 0
M  V30 48 H 4.3022 -5.49924 -3.4087 0
M  V30 49 N 4.4343 0.785586 -1.36625 0
M  V30 50 C 5.3663 1.90711 -1.2713 0
M  V30 51 C 6.3793 1.61688 -0.189986 0
M  V30 52 O 7.5683 1.72864 -0.445014 0
M  V30 53 C 4.6683 3.25611 -0.939713 0
M  V30 54 C 3.8413 3.82385 -2.12369 0
M  V30 55 C 2.9003 4.95732 -1.76456 0
M  V30 56 O 1.9263 5.12047 -2.48589 0
M  V30 57 N 3.1283 5.76258 -0.700492 0
M  V30 58 H 5.8933 1.99376 -2.23762 0
M  V30 59 H 3.4543 0.964041 -1.30069 0
M  V30 60 H 5.4463 3.98937 -0.680554 0
M  V30 61 H 4.0163 3.12538 -0.0624074 0
M  V30 62 H 3.2363 3.01001 -2.54543 0
M  V30 63 H 4.5243 4.17047 -2.9146 0
M  V30 64 H 3.9223 5.65609 -0.101624 0
M  V30 65 H 2.4793 6.4987 -0.501165 0
M  V30 66 N 5.9124 1.20967 1.01018 0
M  V30 67 C 6.8224 0.980157 2.13143 0
M  V30 68 C 7.8384 -0.0660665 1.73875 0
M  V30 69 O 9.0144 0.122821 2.01025 0
M  V30 70 C 6.0794 0.54216 3.42435 0
M  V30 71 C 5.1404 1.65999 3.95908 0
M  V30 72 C 4.3734 1.2428 5.19028 0
M  V30 73 O 4.5964 0.114196 5.70286 0
M  V30 74 O 3.5304 2.05271 5.65816 0
M  V30 75 H 7.3564 1.91913 2.35379 0
M  V30 76 H 4.9414 0.994099 1.11526 0
M  V30 77 H 6.8234 0.30744 4.20277 0
M  V30 78 H 5.4984 -0.36815 3.216 0
M  V30 79 H 4.4054 1.94906 3.19316 0
M  V30 80 H 5.7384 2.54753 4.21143 0
M  V30 81 N 7.3905 -1.2043 1.01659 0
M  V30 82 C 8.3385 -2.25249 0.580143 0
M  V30 83 C 9.3325 -1.65057 -0.381115 0
M  V30 84 O 10.5385 -1.78241 -0.251039 0
M  V30 85 H 6.9135 -0.732695 0.169299 0
M  V30 86 H 8.8845 -2.59389 1.47512 0
M  V30 87 C 7.6335 -3.47638 -0.065788 0
M  V30 88 H 6.9565 -3.94233 0.664874 0
M  V30 89 H 8.3965 -4.2268 -0.334282 0
M  V30 90 C 6.8555 -3.10447 -1.3086 0
M  V30 91 O 7.3855 -3.21981 -2.4019 0
M  V30 92 N 5.5915 -2.64996 -1.1927 0
M  V30 93 H 5.1385 -2.55811 -0.303064 0
M  V30 94 H 5.0965 -2.40482 -2.02523 0
M  V30 95 N 8.8686 -0.792821 -1.36206 0
M  V30 96 C 10.1176 -0.363353 -1.984 0
M  V30 97 C 10.4306 1.07172 -1.63626 0
M  V30 98 O 11.6366 1.60362 -2.19081 0
M  V30 99 C 10.0926 -0.59872 -3.54885 0
M  V30 100 C 9.7006 -2.04543 -3.9858 0
M  V30 101 C 11.4446 -0.233926 -4.23855 0
M  V30 102 C 9.3516 -2.22727 -5.47856 0
M  V30 103 H 8.2816 -0.13212 -0.742334 0
M  V30 104 H 10.9326 -0.974935 -1.55458 0
M  V30 105 H 9.3146 0.0826222 -3.95914 0
M  V30 106 H 10.4886 -2.76345 -3.68741 0
M  V30 107 H 8.8036 -2.36879 -3.42458 0
M  V30 108 H 11.4006 -0.348027 -5.33566 0
M  V30 109 H 11.7436 0.818351 -4.08177 0
M  V30 110 H 12.2766 -0.868639 -3.882 0
M  V30 111 H 9.0156 -3.2635 -5.68486 0
M  V30 112 H 8.5356 -1.55434 -5.7931 0
M  V30 113 H 10.2146 -2.03607 -6.14128 0
M  V30 114 N 10.3467 1.47872 -0.545128 0
M  V30 115 C 11.5717 2.07391 -0.0190611 0
M  V30 116 C 11.9967 1.39688 1.25971 0
M  V30 117 O 11.3547 0.467816 1.7516 0
M  V30 118 C 11.4027 3.60188 0.172335 0
M  V30 119 O 10.5067 3.9339 1.23766 0
M  V30 120 H 9.8477 0.662411 -0.0459059 0
M  V30 121 H 12.3777 1.90066 -0.757365 0
M  V30 122 H 12.3877 4.06129 0.390305 0
M  V30 123 H 11.0627 4.08865 -0.761725 0
M  V30 124 H 9.6397 3.5921 1.00114 0
M  V30 125 N 11.8248 0.280983 1.55075 0
M  V30 126 C 13.0498 -0.340154 2.04592 0
M  V30 127 C 13.4748 -1.48246 1.15779 0
M  V30 128 O 12.8328 -1.80614 0.15761 0
M  V30 129 C 12.8808 -0.793104 3.5177 0
M  V30 130 O 11.9848 -1.89981 3.66034 0
M  V30 131 H 11.3258 -0.0694289 0.66036 0
M  V30 132 H 13.8558 0.416993 2.00306 0
M  V30 133 H 13.8658 -1.08729 3.93245 0
M  V30 134 H 12.5408 0.0426163 4.15878 0
M  V30 135 H 11.1178 -1.60771 3.36463 0
M  V30 136 N 13.3029 -1.57598 0.00835791 0
M  V30 137 C 14.2329 -2.1198 -0.979113 0
M  V30 138 C 15.2139 -1.03091 -1.35301 0
M  V30 139 O 16.3989 -1.30818 -1.43528 0
M  V30 140 C 13.5289 -2.62995 -2.26828 0
M  V30 141 C 12.4829 -3.76485 -2.03576 0
M  V30 142 C 11.8089 -4.13846 -3.38579 0
M  V30 143 C 13.1089 -5.0342 -1.39161 0
M  V30 144 H 14.8029 -2.94738 -0.526281 0
M  V30 145 H 12.3489 -1.41783 -0.251704 0
M  V30 146 H 14.3019 -2.99669 -2.96271 0
M  V30 147 H 13.0259 -1.7737 -2.7424 0
M  V30 148 H 11.6849 -3.40217 -1.36557 0
M  V30 149 H 11.3329 -3.25232 -3.83709 0
M  V30 150 H 11.0329 -4.90312 -3.23834 0
M  V30 151 H 12.5569 -4.53086 -4.09323 0
M  V30 152 H 13.9709 -5.37812 -1.98573 0
M  V30 153 H 12.3679 -5.84746 -1.34878 0
M  V30 154 H 13.4379 -4.83548 -0.361868 0
M  V30 155 N 14.781 0.264519 -1.55364 0
M  V30 156 C 15.713 1.34965 -1.85248 0
M  V30 157 C 16.726 1.45136 -0.737525 0
M  V30 158 O 17.915 1.46801 -1.01547 0
M  V30 159 C 15.015 2.73008 -2.00797 0
M  V30 160 C 14.188 2.85324 -3.31525 0
M  V30 161 C 13.247 4.04097 -3.37034 0
M  V30 162 O 12.273 3.94455 -4.10358 0
M  V30 163 N 13.475 5.16458 -2.65049 0
M  V30 164 H 16.24 1.09672 -2.78913 0
M  V30 165 H 13.801 0.454635 -1.55386 0
M  V30 166 H 15.793 3.50772 -2.01844 0
M  V30 167 H 14.363 2.91087 -1.1396 0
M  V30 168 H 13.583 1.94377 -3.42945 0
M  V30 169 H 14.871 2.9049 -4.17724 0
M  V30 170 H 14.269 5.27181 -2.05175 0
M  V30 171 H 12.826 5.92422 -2.71809 0
M  V30 172 N 16.2591 1.48442 0.529413 0
M  V30 173 C 17.1891 1.65902 1.64313 0
M  V30 174 C 18.1701 0.507897 1.6234 0
M  V30 175 O 19.3551 0.740503 1.79528 0
M  V30 176 C 16.4851 1.69911 3.02898 0
M  V30 177 C 15.4391 2.8453 3.19729 0
M  V30 178 C 14.7651 2.73629 4.59381 0
M  V30 179 C 16.0651 4.25821 3.02447 0
M  V30 180 H 17.7591 2.5914 1.49955 0
M  V30 181 H 15.3051 1.24709 0.719982 0
M  V30 182 H 17.2581 1.80715 3.80684 0
M  V30 183 H 15.9821 0.732524 3.18279 0
M  V30 184 H 14.6411 2.73283 2.44361 0
M  V30 185 H 14.2891 1.74938 4.71599 0
M  V30 186 H 13.9891 3.50541 4.71588 0
M  V30 187 H 15.5131 2.86401 5.39265 0
M  V30 188 H 16.9271 4.37898 3.70024 0
M  V30 189 H 15.3241 5.03735 3.26146 0
M  V30 190 H 16.3941 4.42244 1.98867 0
M  V30 191 N 17.7372 -0.778329 1.37039 0
M  V30 192 C 19.1532 -1.07796 1.17695 0
M  V30 193 C 19.3532 -2.01498 0.00860115 0
M  V30 194 O 18.4092 -2.43901 -0.653352 0
M  V30 195 C 19.7222 -1.68178 2.49272 0
M  V30 196 C 21.2702 -1.80467 2.55735 0
M  V30 197 C 21.7452 -2.44263 3.87427 0
M  V30 198 N 23.2362 -2.51721 3.88833 0
M  V30 199 C 23.9712 -3.01919 4.87476 0
M  V30 200 N 23.4672 -3.5234 5.96513 0
M  V30 201 N 25.2602 -3.00733 4.74885 0
M  V30 202 H 17.4112 -0.156032 2.11826 0
M  V30 203 H 19.6742 -0.131844 0.938787 0
M  V30 204 H 19.3802 -1.06796 3.35093 0
M  V30 205 H 19.2542 -2.67554 2.65885 0
M  V30 206 H 21.6412 -2.40984 1.70325 0
M  V30 207 H 21.7222 -0.798656 2.43013 0
M  V30 208 H 21.3662 -1.84388 4.73248 0
M  V30 209 H 21.2962 -3.45458 3.9745 0
M  V30 210 H 23.7872 -2.1603 3.10063 0
M  V30 211 H 24.1002 -3.89027 6.67741 0
M  V30 212 H 22.4452 -3.50462 6.00168 0
M  V30 213 H 25.6362 -2.60638 3.88826 0
M  V30 214 H 25.8092 -3.39545 5.51918 0
M  V30 215 N 19.2153 -1.21501 -1.00376 0
M  V30 216 C 20.4403 -1.05977 -1.78279 0
M  V30 217 C 20.8653 0.385994 -1.84097 0
M  V30 218 O 20.2233 1.27849 -1.28547 0
M  V30 219 C 20.2713 -1.66302 -3.19963 0
M  V30 220 O 19.3753 -0.909333 -4.0225 0
M  V30 221 H 18.7163 -0.372906 -0.549397 0
M  V30 222 H 21.2463 -1.6107 -1.26165 0
M  V30 223 H 21.2563 -1.70574 -3.70632 0
M  V30 224 H 19.9313 -2.71515 -3.15043 0
M  V30 225 H 18.5083 -0.941795 -3.60811 0
M  V30 226 N 20.6934 1.19889 -1.02296 0
M  V30 227 C 21.9394 1.89973 -0.726759 0
M  V30 228 C 22.2944 1.7776 0.73614 0
M  V30 229 O 21.5874 1.15523 1.52856 0
M  V30 230 C 21.7814 3.39883 -1.10518 0
M  V30 231 C 21.6104 3.66684 -2.60332 0
M  V30 232 C 20.3804 3.85045 -3.27213 0
M  V30 233 C 22.5784 3.68727 -3.58532 0
M  V30 234 N 20.5604 3.99422 -4.66192 0
M  V30 235 C 21.9314 3.88604 -4.83101 0
M  V30 236 C 23.9864 3.51722 -3.52414 0
M  V30 237 C 22.6894 3.9324 -6.02292 0
M  V30 238 C 24.7154 3.57632 -4.71013 0
M  V30 239 C 24.0774 3.77988 -5.94394 0
M  V30 240 H 20.1764 0.714551 -0.317712 0
M  V30 241 H 22.7604 1.44123 -1.30907 0
M  V30 242 H 20.9314 3.8447 -0.551142 0
M  V30 243 H 22.6634 3.97464 -0.761853 0
M  V30 244 H 19.4184 3.83689 -2.77632 0
M  V30 245 H 19.8424 4.10473 -5.38368 0
M  V30 246 H 24.4844 3.34945 -2.58015 0
M  V30 247 H 22.2024 4.08811 -6.97065 0
M  V30 248 H 25.7884 3.45773 -4.67902 0
M  V30 249 H 24.6684 3.82428 -6.8463 0
M  V30 250 N 22.1715 0.800033 1.35784 0
M  V30 251 C 23.4175 0.377901 1.99248 0
M  V30 252 C 23.7505 -1.05052 1.63333 0
M  V30 253 O 23.0255 -1.72768 0.893385 0
M  V30 254 C 23.3085 0.553922 3.55814 0
M  V30 255 C 23.1615 2.0268 4.01548 0
M  V30 256 C 24.4805 -0.0244802 4.40093 0
M  V30 257 H 21.5995 0.138782 0.723815 0
M  V30 258 H 24.2415 1.00835 1.61035 0
M  V30 259 H 22.3915 0.0172398 3.88496 0
M  V30 260 H 24.0635 2.62536 3.79305 0
M  V30 261 H 22.3065 2.5256 3.52698 0
M  V30 262 H 22.9775 2.10087 5.10458 0
M  V30 263 H 25.4535 0.433775 4.13833 0
M  V30 264 H 24.3295 0.128637 5.48749 0
M  V30 265 H 24.5905 -1.11758 4.27741 0
M  V30 266 N 23.6496 -1.47581 0.552962 0
M  V30 267 C 24.8746 -2.07378 0.0300593 0
M  V30 268 C 25.2996 -1.40355 -1.25229 0
M  V30 269 O 24.6576 -0.477099 -1.7491 0
M  V30 270 C 24.7056 -3.60274 -0.153231 0
M  V30 271 O 23.8096 -3.94041 -1.21678 0
M  V30 272 H 23.1506 -0.662158 0.0494182 0
M  V30 273 H 25.6806 -1.89662 0.767434 0
M  V30 274 H 25.6906 -4.0633 -0.368761 0
M  V30 275 H 24.3656 -4.08455 0.783397 0
M  V30 276 H 22.9426 -3.59735 -0.982079 0
M  V30 277 N 25.1277 -0.289203 -1.54924 0
M  V30 278 C 26.0747 0.592115 -2.23075 0
M  V30 279 C 27.0447 1.13881 -1.20915 0
M  V30 280 O 28.2297 1.18551 -1.495 0
M  V30 281 C 25.3697 1.76376 -2.96623 0
M  V30 282 C 24.4827 1.24959 -4.13533 0
M  V30 283 C 23.6177 2.38416 -4.74691 0
M  V30 284 C 22.6567 1.84072 -5.83767 0
M  V30 285 N 21.7937 2.91057 -6.38929 0
M  V30 286 H 26.6337 0.00432038 -2.98 0
M  V30 287 H 24.1707 -0.00963529 -1.47097 0
M  V30 288 H 26.1287 2.45268 -3.3749 0
M  V30 289 H 24.7587 2.32337 -2.24097 0
M  V30 290 H 23.8107 0.453307 -3.77689 0
M  V30 291 H 25.1227 0.811662 -4.92152 0
M  V30 292 H 24.2767 3.15276 -5.18349 0
M  V30 293 H 23.0157 2.8553 -3.95378 0
M  V30 294 H 22.0207 1.05697 -5.39545 0
M  V30 295 H 23.2457 1.37877 -6.64956 0
M  V30 296 H 21.1917 3.37526 -5.62505 0
M  V30 297 H 21.1087 2.51724 -7.12861 0
M  V30 298 H 22.3767 3.6785 -6.87246 0
M  V30 299 N 26.6058 1.57591 -0.0167156 0
M  V30 300 C 27.8308 1.9598 0.67872 0
M  V30 301 C 28.2558 0.892546 1.65575 0
M  V30 302 O 27.6138 -0.147772 1.80697 0
M  V30 303 C 27.6618 3.33468 1.37227 0
M  V30 304 O 26.7658 3.28954 2.48722 0
M  V30 305 H 26.1068 0.639339 0.17928 0
M  V30 306 H 28.6368 2.04463 -0.0748802 0
M  V30 307 H 28.6468 3.69417 1.7319 0
M  V30 308 H 27.3218 4.10694 0.656007 0
M  V30 309 H 25.8988 3.04705 2.14963 0
M  V30 310 N 28.0839 -0.256276 1.55502 0
M  V30 311 C 29.0159 -1.33981 1.85962 0
M  V30 312 C 30.0289 -1.44743 0.745212 0
M  V30 313 O 31.2179 -1.4626 1.02324 0
M  V30 314 C 28.3179 -2.7194 2.02242 0
M  V30 315 C 27.4909 -2.83562 3.33033 0
M  V30 316 C 26.5499 -4.02304 3.39172 0
M  V30 317 O 25.5759 -3.92273 4.12444 0
M  V30 318 N 26.7779 -5.15045 2.67784 0
M  V30 319 H 29.5429 -1.08191 2.7949 0
M  V30 320 H 27.1039 -0.446388 1.55624 0
M  V30 321 H 29.0959 -3.49697 2.03701 0
M  V30 322 H 27.6659 -2.90479 1.15502 0
M  V30 323 H 26.8859 -1.92555 3.43971 0
M  V30 324 H 28.1739 -2.88271 4.19258 0
M  V30 325 H 27.5719 -5.26085 2.07968 0
M  V30 326 H 26.1289 -5.90972 2.74947 0
M  V30 327 N 29.562 -1.4872 -0.521534 0
M  V30 328 C 30.978 -1.35028 -0.850855 0
M  V30 329 C 31.178 -0.367712 -1.98116 0
M  V30 330 O 30.234 0.208037 -2.51642 0
M  V30 331 C 31.547 -2.75263 -1.21041 0
M  V30 332 C 33.095 -2.83813 -1.31981 0
M  V30 333 C 33.57 -4.24769 -1.71276 0
M  V30 334 N 35.061 -4.27482 -1.78363 0
M  V30 335 C 35.796 -5.33494 -2.1017 0
M  V30 336 N 35.292 -6.49775 -2.40343 0
M  V30 337 N 37.085 -5.20894 -2.11248 0
M  V30 338 H 29.236 -2.11214 0.22413 0
M  V30 339 H 31.499 -0.947252 0.0376439 0
M  V30 340 H 31.205 -3.48765 -0.453415 0
M  V30 341 H 31.079 -3.09327 -2.15863 0
M  V30 342 H 33.466 -2.10561 -2.06756 0
M  V30 343 H 33.547 -2.53358 -0.352596 0
M  V30 344 H 33.191 -4.9854 -0.970588 0
M  V30 345 H 33.121 -4.52673 -2.69062 0
M  V30 346 H 35.612 -3.43611 -1.57288 0
M  V30 347 H 35.925 -7.26402 -2.63743 0
M  V30 348 H 34.27 -6.53035 -2.37844 0
M  V30 349 H 37.461 -4.29065 -1.87139 0
M  V30 350 H 37.634 -6.03612 -2.35704 0
M  V30 351 N 31.0401 0.771051 -1.3745 0
M  V30 352 C 32.3171 1.519 -1.23231 0
M  V30 353 C 32.6971 2.10383 0.173809 0
M  V30 354 O 32.0451 1.95583 1.18151 0
M  V30 355 C 32.2551 2.59933 -2.32886 0
M  V30 356 C 33.6031 3.27316 -2.70461 0
M  V30 357 O 34.6271 2.70228 -2.32068 0
M  V30 358 O 33.4861 4.30531 -3.36608 0
M  V30 359 H 30.5801 0.672803 -0.480901 0
M  V30 360 H 33.1261 0.807957 -1.49232 0
M  V30 361 H 31.8981 2.14842 -3.27045 0
M  V30 362 H 31.5211 3.38637 -2.08353 0
M  V30 363 N 32.5182 1.22032 0.997298 0
M  V30 364 C 33.4482 1.01065 2.10495 0
M  V30 365 C 34.4292 -0.0669542 1.69968 0
M  V30 366 O 35.6142 0.0943987 1.9397 0
M  V30 367 C 32.7442 0.582874 3.42374 0
M  V30 368 C 31.6982 1.60592 3.96729 0
M  V30 369 C 31.0242 1.03412 5.24605 0
M  V30 370 C 32.3242 2.99478 4.27914 0
M  V30 371 H 34.0182 1.93708 2.28292 0
M  V30 372 H 31.5642 0.932761 1.09707 0
M  V30 373 H 33.5172 0.423332 4.19268 0
M  V30 374 H 32.2412 -0.379213 3.24391 0
M  V30 375 H 30.9002 1.75316 3.21963 0
M  V30 376 H 30.5482 0.063518 5.0296 0
M  V30 377 H 30.2482 1.71754 5.61938 0
M  V30 378 H 31.7722 0.886066 6.04137 0
M  V30 379 H 33.1862 2.88153 4.95622 0
M  V30 380 H 31.5832 3.64903 4.76409 0
M  V30 381 H 32.6532 3.49742 3.3587 0
M  V30 382 N 33.9963 -1.19345 1.0293 0
M  V30 383 C 34.9593 -2.20793 0.615069 0
M  V30 384 C 35.9593 -1.57553 -0.321533 0
M  V30 385 O 37.1493 -1.73862 -0.108483 0
M  V30 386 C 34.2813 -3.40754 -0.0999222 0
M  V30 387 H 35.4743 -2.58955 1.51269 0
M  V30 388 H 33.0273 -1.3303 0.820534 0
M  V30 389 H 33.7623 -3.0811 -1.01187 0
M  V30 390 H 33.5473 -3.87889 0.57309 0
M  V30 391 H 35.0373 -4.15898 -0.376645 0
M  V30 392 N 35.4744 -0.807222 -1.35358 0
M  V30 393 C 36.4214 -0.216037 -2.29787 0
M  V30 394 C 37.3914 0.650278 -1.52842 0
M  V30 395 O 38.5764 0.595227 -1.81278 0
M  V30 396 C 35.7164 0.628893 -3.39321 0
M  V30 397 C 34.8294 -0.257927 -4.31229 0
M  V30 398 C 33.9644 0.595069 -5.27856 0
M  V30 399 C 33.0034 -0.292111 -6.11403 0
M  V30 400 N 32.1404 0.520895 -7.00165 0
M  V30 401 H 36.9804 -1.02671 -2.79755 0
M  V30 402 H 34.5174 -0.517839 -1.37684 0
M  V30 403 H 36.4754 1.13393 -4.01494 0
M  V30 404 H 35.1054 1.40482 -2.90628 0
M  V30 405 H 34.1574 -0.881076 -3.70056 0
M  V30 406 H 35.4694 -0.940759 -4.89848 0
M  V30 407 H 34.6234 1.16522 -5.95405 0
M  V30 408 H 33.3624 1.31146 -4.69736 0
M  V30 409 H 32.3674 -0.874525 -5.428 0
M  V30 410 H 33.5924 -1.00638 -6.71602 0
M  V30 411 H 31.5384 1.22125 -6.44532 0
M  V30 412 H 31.4554 -0.103877 -7.55929 0
M  V30 413 H 32.7234 1.0743 -7.72062 0
M  V30 414 N 36.9525 1.47285 -0.560781 0
M  V30 415 C 38.1775 2.07359 -0.0410566 0
M  V30 416 C 38.6025 1.41017 1.24483 0
M  V30 417 O 37.9605 0.486368 1.74654 0
M  V30 418 C 38.0085 3.6035 0.134123 0
M  V30 419 O 37.1125 3.94681 1.19587 0
M  V30 420 H 36.4535 0.661887 -0.0529291 0
M  V30 421 H 38.9835 1.89252 -0.777482 0
M  V30 422 H 38.9935 4.0652 0.347207 0
M  V30 423 H 37.6685 4.08034 -0.805047 0
M  V30 424 H 36.2455 3.60251 0.962987 0
M  V30 425 N 38.4306 0.297415 1.54768 0
M  V30 426 C 39.6796 -0.313669 1.99246 0
M  V30 427 C 39.9926 -1.55281 1.18942 0
M  V30 428 O 41.1986 -2.23825 1.5367 0
M  V30 429 C 39.6546 -0.609407 3.54703 0
M  V30 430 C 39.2626 0.611192 4.43811 0
M  V30 431 C 41.0066 -1.18188 4.07715 0
M  V30 432 C 38.9136 0.288805 5.90694 0
M  V30 433 H 37.8436 -0.120979 0.744231 0
M  V30 434 H 40.4946 0.40556 1.78962 0
M  V30 435 H 38.8766 -1.38813 3.70873 0
M  V30 436 H 40.0506 1.3875 4.39414 0
M  V30 437 H 38.3656 1.10205 4.01552 0
M  V30 438 H 40.9626 -1.43727 5.15021 0
M  V30 439 H 41.3056 -2.12299 3.58099 0
M  V30 440 H 41.8386 -0.464944 3.95074 0
M  V30 441 H 38.5776 1.19838 6.44453 0
M  V30 442 H 38.0976 -0.450305 5.98107 0
M  V30 443 H 39.7766 -0.110933 6.46905 0
M  V30 444 N 39.9087 -1.5758 0.0250728 0
M  V30 445 C 40.8387 -2.13007 -0.956575 0
M  V30 446 C 41.8197 -1.0452 -1.342 0
M  V30 447 O 43.0047 -1.32332 -1.42133 0
M  V30 448 C 40.1347 -2.65386 -2.24026 0
M  V30 449 C 39.0887 -3.78623 -1.99571 0
M  V30 450 C 38.4147 -4.17414 -3.3417 0
M  V30 451 C 39.7147 -5.04867 -1.33814 0
M  V30 452 H 41.4087 -2.9528 -0.494991 0
M  V30 453 H 38.9547 -1.42042 -0.236651 0
M  V30 454 H 40.9077 -3.02794 -2.93076 0
M  V30 455 H 39.6317 -1.80268 -2.72343 0
M  V30 456 H 38.2907 -3.41646 -1.32941 0
M  V30 457 H 37.9387 -3.29284 -3.80238 0
M  V30 458 H 37.6387 -4.93719 -3.18615 0
M  V30 459 H 39.1627 -4.57402 -4.04495 0
M  V30 460 H 40.5767 -5.39888 -1.92857 0
M  V30 461 H 38.9737 -5.86144 -1.28669 0
M  V30 462 H 40.0437 -4.83904 -0.310561 0
M  V30 463 N 41.3868 0.248026 -1.55636 0
M  V30 464 C 42.6358 0.974134 -1.76617 0
M  V30 465 C 42.9488 1.86528 -0.588796 0
M  V30 466 O 44.1548 2.62805 -0.681594 0
M  V30 467 C 42.6108 1.78213 -3.12679 0
M  V30 468 C 42.2188 0.93843 -4.38061 0
M  V30 469 C 43.9628 2.50104 -3.42999 0
M  V30 470 C 41.8698 1.74225 -5.65155 0
M  V30 471 H 40.7998 0.36745 -0.658405 0
M  V30 472 H 43.4508 0.22884 -1.82067 0
M  V30 473 H 41.8328 2.56933 -3.01333 0
M  V30 474 H 43.0068 0.193635 -4.60393 0
M  V30 475 H 41.3218 0.332905 -4.15067 0
M  V30 476 H 43.9188 3.10694 -4.3517 0
M  V30 477 H 44.2618 3.21662 -2.64271 0
M  V30 478 H 44.7948 1.78395 -3.55556 0
M  V30 479 H 41.5338 1.07043 -6.46701 0
M  V30 480 H 41.0538 2.46235 -5.46926 0
M  V30 481 H 42.7328 2.30967 -6.0437 0
M  V30 482 N 42.8649 1.48995 0.513639 0
M  V30 483 C 44.1129 1.57531 1.26604 0
M  V30 484 C 44.4339 0.258236 1.93283 0
M  V30 485 O 43.7039 -0.721502 1.8213 0
M  V30 486 H 42.2839 0.580387 0.470276 0
M  V30 487 H 44.9459 1.85552 0.596373 0
M  V30 488 H 44.0419 2.36486 2.03669 0
M  V30 489 N 44.343 -0.763751 1.37857 0
M  V30 490 C 45.306 -1.85889 1.34081 0
M  V30 491 C 46.306 -1.58949 0.243277 0
M  V30 492 O 47.496 -1.66882 0.499589 0
M  V30 493 C 44.628 -3.23176 1.08489 0
M  V30 494 H 45.821 -1.90648 2.31502 0
M  V30 495 H 43.374 -0.964367 1.23003 0
M  V30 496 H 44.109 -3.24091 0.116318 0
M  V30 497 H 43.894 -3.44124 1.8794 0
M  V30 498 H 45.384 -4.03254 1.08517 0
M  V30 499 N 45.8211 -1.22559 -0.990812 0
M  V30 500 C 47.2321 -1.04791 -1.54518 0
M  V30 501 C 47.5831 0.387998 -1.92325 0
M  V30 502 O 46.7081 1.27328 -1.74976 0
M  V30 503 C 47.3031 -1.896 -2.80779 0
M  V30 504 C 45.8621 -1.76124 -3.32652 0
M  V30 505 C 45.0091 -1.8594 -2.05722 0
M  V30 506 H 47.9601 -1.36374 -0.811662 0
M  V30 507 H 47.9811 -1.41464 -3.53225 0
M  V30 508 H 47.4931 -2.94101 -2.53231 0
M  V30 509 H 45.5941 -0.743643 -3.65104 0
M  V30 510 H 45.7071 -2.58913 -4.03114 0
M  V30 511 H 44.0711 -1.29403 -2.19379 0
M  V30 512 H 44.8541 -2.91976 -1.80568 0
M  V30 513 N 47.2992 1.18797 -1.03562 0
M  V30 514 C 48.5472 1.88278 -0.734569 0
M  V30 515 C 48.8682 1.8043 0.739586 0
M  V30 516 O 48.1382 1.21925 1.53333 0
M  V30 517 H 46.7182 0.696991 -0.268725 0
M  V30 518 H 49.3802 1.44192 -1.31129 0
M  V30 519 H 48.4762 2.94443 -1.03489 0
M  V30 520 N 48.7773 0.814389 1.34928 0
M  V30 521 C 50.0253 0.397636 1.9815 0
M  V30 522 C 50.3463 -1.04069 1.64908 0
M  V30 523 O 49.6163 -1.72121 0.93548 0
M  V30 524 H 48.1963 0.144043 0.732981 0
M  V30 525 H 50.8583 1.04195 1.6471 0
M  V30 526 H 49.9543 0.509688 3.0791 0
M  V30 527 N 50.2554 -1.46986 0.568584 0
M  V30 528 C 51.6664 -1.86188 0.138219 0
M  V30 529 C 52.0174 -1.47388 -1.29504 0
M  V30 530 O 51.1424 -0.88219 -1.97602 0
M  V30 531 C 51.7374 -3.3792 0.244065 0
M  V30 532 C 50.2964 -3.76171 -0.131335 0
M  V30 533 C 49.4434 -2.71027 0.586465 0
M  V30 534 H 52.3944 -1.38342 0.777645 0
M  V30 535 H 52.4154 -3.76729 -0.534351 0
M  V30 536 H 51.9274 -3.66128 1.28731 0
M  V30 537 H 50.0284 -3.5358 -1.17526 0
M  V30 538 H 50.1414 -4.78523 0.235146 0
M  V30 539 H 48.5054 -2.54684 0.0282722 0
M  V30 540 H 49.2884 -3.02077 1.63109 0
M  V30 541 N 51.7335 -0.305618 -1.54608 0
M  V30 542 C 52.6965 0.555591 -2.22364 0
M  V30 543 C 53.6965 1.05768 -1.21119 0
M  V30 544 O 54.8865 0.952972 -1.45822 0
M  V30 545 C 52.0185 1.76974 -2.91364 0
M  V30 546 H 53.2115 -0.0364572 -2.99878 0
M  V30 547 H 50.7645 -0.0565007 -1.56198 0
M  V30 548 H 51.4995 2.40151 -2.17941 0
M  V30 549 H 51.2845 1.41732 -3.65588 0
M  V30 550 H 52.7745 2.38148 -3.43038 0
M  V30 551 N 53.2116 1.57565 -0.0334293 0
M  V30 552 C 54.4596 1.91598 0.642999 0
M  V30 553 C 54.7806 0.910847 1.7242 0
M  V30 554 O 54.0506 -0.0469931 1.95844 0
M  V30 555 H 52.6306 0.707228 0.240496 0
M  V30 556 H 55.2926 1.94726 -0.0822488 0
M  V30 557 H 54.3886 2.92336 1.09298 0
M  V30 558 N 54.6897 -0.239769 1.55765 0
M  V30 559 C 55.9197 -0.982743 1.8173 0
M  V30 560 C 56.3277 -1.7917 0.607835 0
M  V30 561 O 55.6707 -1.78525 -0.432973 0
M  V30 562 C 55.7327 -1.96332 3.01155 0
M  V30 563 C 55.3967 -1.34062 4.36894 0
M  V30 564 C 56.3937 -0.739539 5.14613 0
M  V30 565 C 54.0787 -1.35784 4.83599 0
M  V30 566 C 56.0727 -0.163989 6.37189 0
M  V30 567 C 53.7597 -0.778441 6.06122 0
M  V30 568 C 54.7577 -0.182548 6.82756 0
M  V30 569 O 54.4457 0.387887 8.02964 0
M  V30 570 H 54.1777 -0.294481 0.608487 0
M  V30 571 H 56.7317 -0.26572 2.03674 0
M  V30 572 H 54.9617 -2.71884 2.74984 0
M  V30 573 H 56.6507 -2.57032 3.14149 0
M  V30 574 H 57.4167 -0.718687 4.79646 0
M  V30 575 H 53.2957 -1.81105 4.23936 0
M  V30 576 H 56.8397 0.301753 6.96947 0
M  V30 577 H 52.7367 -0.796645 6.40565 0
M  V30 578 H 53.5047 0.28044 8.18019 0
M  V30 579 N 56.1678 -1.49265 -0.50573 0
M  V30 580 C 57.0978 -1.68495 -1.61653 0
M  V30 581 C 58.0788 -0.53366 -1.61512 0
M  V30 582 O 59.2638 -0.76897 -1.78327 0
M  V30 583 C 56.3938 -1.74709 -3.00157 0
M  V30 584 C 55.3478 -2.89581 -3.15162 0
M  V30 585 C 54.6738 -2.80903 -4.5497 0
M  V30 586 C 55.9738 -4.30578 -2.95634 0
M  V30 587 H 57.6678 -2.61493 -1.45814 0
M  V30 588 H 55.2138 -1.25838 -0.70005 0
M  V30 589 H 57.1668 -1.86748 -3.77761 0
M  V30 590 H 55.8908 -0.783067 -3.17074 0
M  V30 591 H 54.5498 -2.77136 -2.39982 0
M  V30 592 H 54.1978 -1.82419 -4.68756 0
M  V30 593 H 53.8978 -3.57999 -4.65951 0
M  V30 594 H 55.4218 -2.94944 -5.34641 0
M  V30 595 H 56.8358 -4.4373 -3.63011 0
M  V30 596 H 55.2328 -5.0886 -3.18091 0
M  V30 597 H 56.3028 -4.45352 -1.91806 0
M  V30 598 N 57.6459 0.756429 -1.3826 0
M  V30 599 C 59.0619 1.0591 -1.19395 0
M  V30 600 C 59.2619 2.01459 -0.0406567 0
M  V30 601 O 58.3179 2.44909 0.614467 0
M  V30 602 C 59.6309 1.64191 -2.51916 0
M  V30 603 C 61.1789 1.76376 -2.58574 0
M  V30 604 C 61.6539 2.38069 -3.91264 0
M  V30 605 N 63.1449 2.45503 -3.92788 0
M  V30 606 C 63.8799 2.94126 -4.92217 0
M  V30 607 N 63.3759 3.42805 -6.02043 0
M  V30 608 N 65.1689 2.9314 -4.7961 0
M  V30 609 H 57.3199 0.122313 -2.12048 0
M  V30 610 H 59.5829 0.116892 -0.940766 0
M  V30 611 H 59.2889 1.01451 -3.3675 0
M  V30 612 H 59.1629 2.6329 -2.70108 0
M  V30 613 H 61.5499 2.38244 -1.74137 0
M  V30 614 H 61.6309 0.759894 -2.44252 0
M  V30 615 H 61.2749 1.76835 -4.76121 0
M  V30 616 H 61.2049 3.39091 -4.02895 0
M  V30 617 H 63.6959 2.1107 -3.13461 0
M  V30 618 H 64.0089 3.78354 -6.73846 0
M  V30 619 H 62.3539 3.4087 -6.05667 0
M  V30 620 H 65.5449 2.54419 -3.92923 0
M  V30 621 H 65.7179 3.30721 -5.5725 0
M  V30 622 N 59.124 1.23083 0.984299 0
M  V30 623 C 60.54 0.992637 1.24975 0
M  V30 624 C 60.74 -0.308618 1.99123 0
M  V30 625 O 59.796 -1.02905 2.30579 0
M  V30 626 C 61.109 2.19698 2.05312 0
M  V30 627 C 62.657 2.24147 2.18465 0
M  V30 628 C 63.132 3.44157 3.02192 0
M  V30 629 N 64.623 3.44372 3.09777 0
M  V30 630 C 65.358 4.33886 3.74874 0
M  V30 631 N 64.854 5.3363 4.41827 0
M  V30 632 N 66.647 4.21639 3.71721 0
M  V30 633 H 58.798 2.06731 0.487453 0
M  V30 634 H 61.061 0.906339 0.277944 0
M  V30 635 H 60.767 3.1411 1.58201 0
M  V30 636 H 60.641 2.20465 3.06064 0
M  V30 637 H 63.028 1.30277 2.64786 0
M  V30 638 H 63.109 2.27415 1.17115 0
M  V30 639 H 62.753 4.38332 2.56568 0
M  V30 640 H 62.683 3.3813 4.03702 0
M  V30 641 H 65.174 2.72201 2.62135 0
M  V30 642 H 65.487 5.98196 4.89266 0
M  V30 643 H 63.832 5.37534 4.40548 0
M  V30 644 H 67.023 3.42962 3.18582 0
M  V30 645 H 67.196 4.91604 4.22173 0
M  V30 646 N 60.6021 -1.18246 1.0419 0
M  V30 647 C 61.5651 -2.20128 0.638452 0
M  V30 648 C 62.5651 -1.57885 -0.304805 0
M  V30 649 O 63.7551 -1.73967 -0.0900369 0
M  V30 650 C 60.8871 -3.4084 -0.0637751 0
M  V30 651 H 62.0801 -2.57336 1.54007 0
M  V30 652 H 59.6331 -1.32152 0.834598 0
M  V30 653 H 60.3681 -3.09166 -0.979136 0
M  V30 654 H 60.1531 -3.8726 0.614198 0
M  V30 655 H 61.6431 -4.16274 -0.332512 0
M  V30 656 N 62.0802 -0.821533 -1.34494 0
M  V30 657 C 63.3052 -0.420873 -2.03085 0
M  V30 658 C 63.7302 0.964915 -1.61465 0
M  V30 659 O 63.0882 1.62763 -0.798607 0
M  V30 660 C 63.1362 -0.529414 -3.56693 0
M  V30 661 O 62.2402 0.451302 -4.09923 0
M  V30 662 H 61.5812 -0.173489 -0.640935 0
M  V30 663 H 64.1112 -1.11157 -1.71771 0
M  V30 664 H 64.1212 -0.404671 -4.05988 0
M  V30 665 H 62.7962 -1.54014 -3.86332 0
M  V30 666 H 61.3732 0.285558 -3.71805 0
M  V30 667 N 63.5583 1.46682 -0.576371 0
M  V30 668 C 64.8043 2.02712 -0.0596221 0
M  V30 669 C 65.1373 1.44765 1.29448 0
M  V30 670 O 64.4123 0.610355 1.84675 0
M  V30 671 C 64.6953 3.60098 0.0129503 0
M  V30 672 C 64.5483 4.28441 -1.3696 0
M  V30 673 C 65.8673 4.34224 0.71678 0
M  V30 674 H 62.9863 0.736637 -0.0231407 0
M  V30 675 H 65.6283 1.74898 -0.742351 0
M  V30 676 H 63.7783 3.83926 0.594378 0
M  V30 677 H 65.4503 4.15896 -1.9957 0
M  V30 678 H 63.6933 3.8805 -1.93907 0
M  V30 679 H 64.3643 5.3716 -1.27135 0
M  V30 680 H 66.8403 4.15503 0.222908 0
M  V30 681 H 65.7163 5.43936 0.73657 0
M  V30 682 H 65.9773 4.04823 1.77682 0
M  V30 683 N 65.0364 0.313813 1.54444 0
M  V30 684 C 65.9994 -0.54379 2.22656 0
M  V30 685 C 66.9994 -1.05124 1.21678 0
M  V30 686 O 68.1894 -0.945225 1.46325 0
M  V30 687 C 65.3214 -1.75427 2.92298 0
M  V30 688 H 66.5144 0.0523599 2.99854 0
M  V30 689 H 64.0674 0.0647834 1.56166 0
M  V30 690 H 64.8024 -2.38991 2.19211 0
M  V30 691 H 64.5874 -1.39791 3.66334 0
M  V30 692 H 66.0774 -2.36325 3.44297 0
M  V30 693 N 66.5145 -1.57545 0.0417849 0
M  V30 694 C 67.4465 -2.07904 -0.964799 0
M  V30 695 C 68.4595 -1.00497 -1.28079 0
M  V30 696 O 69.6485 -1.28087 -1.24322 0
M  V30 697 C 66.7485 -2.49928 -2.28887 0
M  V30 698 C 65.9215 -3.80562 -2.15619 0
M  V30 699 C 64.9805 -4.08999 -3.31069 0
M  V30 700 O 64.0065 -4.79061 -3.0739 0
M  V30 701 N 65.2085 -3.6017 -4.55256 0
M  V30 702 H 67.9735 -2.94886 -0.535029 0
M  V30 703 H 65.5345 -1.61252 -0.144681 0
M  V30 704 H 67.5265 -2.66034 -3.04972 0
M  V30 705 H 66.0965 -1.68245 -2.63463 0
M  V30 706 H 65.3165 -3.74129 -1.24183 0
M  V30 707 H 66.6045 -4.66126 -2.03971 0
M  V30 708 H 66.0025 -3.03512 -4.77386 0
M  V30 709 H 64.5595 -3.81532 -5.28466 0
M  V30 710 N 67.9926 0.231505 -1.5589 0
M  V30 711 C 68.9226 1.29022 -1.94617 0
M  V30 712 C 69.9036 1.4941 -0.813067 0
M  V30 713 O 71.0886 1.6176 -1.07459 0
M  V30 714 C 68.2186 2.64199 -2.25424 0
M  V30 715 C 67.1726 2.58484 -3.41131 0
M  V30 716 C 66.4986 3.97599 -3.57518 0
M  V30 717 C 67.7986 2.1413 -4.76388 0
M  V30 718 H 69.4926 0.968563 -2.83301 0
M  V30 719 H 67.0386 0.464479 -1.36303 0
M  V30 720 H 68.9916 3.38413 -2.51107 0
M  V30 721 H 67.7156 2.98032 -1.33583 0
M  V30 722 H 66.3746 1.86727 -3.15481 0
M  V30 723 H 66.0226 4.28723 -2.6307 0
M  V30 724 H 65.7226 3.94659 -4.35337 0
M  V30 725 H 67.2466 4.7349 -3.85538 0
M  V30 726 H 68.6606 2.78083 -5.01341 0
M  V30 727 H 67.0576 2.2227 -5.57419 0
M  V30 728 H 68.1276 1.09331 -4.72414 0
M  V30 729 N 69.4707 1.49531 0.497807 0
M  V30 730 C 70.6987 1.62893 1.27567 0
M  V30 731 C 71.1137 0.301585 1.86376 0
M  V30 732 O 70.4707 -0.713335 1.67982 0
M  V30 733 C 70.5217 2.70013 2.40364 0
M  V30 734 O 70.2427 3.976 1.83972 0
M  V30 735 C 71.7437 2.94109 3.31685 0
M  V30 736 H 68.9637 0.548298 0.386794 0
M  V30 737 H 71.5077 1.95584 0.597245 0
M  V30 738 H 69.6627 2.40092 3.04031 0
M  V30 739 H 70.0767 4.56631 2.58047 0
M  V30 740 H 71.5507 3.72788 4.07104 0
M  V30 741 H 72.0277 2.04147 3.88871 0
M  V30 742 H 72.6337 3.2546 2.73781 0
M  V30 743 N 70.9488 -0.749086 1.3866 0
M  V30 744 C 71.8808 -1.87273 1.32142 0
M  V30 745 C 72.8938 -1.61127 0.232787 0
M  V30 746 O 74.0828 -1.71623 0.49069 0
M  V30 747 C 71.1828 -3.23005 1.02571 0
M  V30 748 C 70.3558 -3.7662 2.22433 0
M  V30 749 C 69.4148 -4.90879 1.89537 0
M  V30 750 O 68.4408 -5.05276 2.62078 0
M  V30 751 N 69.6428 -5.74198 0.853031 0
M  V30 752 H 72.4078 -1.93373 2.28969 0
M  V30 753 H 69.9688 -0.929216 1.32579 0
M  V30 754 H 71.9608 -3.96992 0.786085 0
M  V30 755 H 70.5308 -3.12262 0.145249 0
M  V30 756 H 69.7508 -2.94147 2.62434 0
M  V30 757 H 71.0388 -4.09173 3.02415 0
M  V30 758 H 70.4368 -5.6514 0.25155 0
M  V30 759 H 68.9938 -6.48313 0.67329 0
M  V30 760 N 72.4269 -1.23603 -0.977757 0
M  V30 761 C 73.3369 -1.03632 -2.1047 0
M  V30 762 C 74.3529 0.0199435 -1.73989 0
M  V30 763 O 75.5289 -0.176076 -2.00629 0
M  V30 764 C 72.5939 -0.63276 -3.40877 0
M  V30 765 C 71.6549 -1.76437 -3.91367 0
M  V30 766 C 70.8879 -1.37997 -5.15551 0
M  V30 767 O 71.1109 -0.265357 -5.69782 0
M  V30 768 O 70.0449 -2.20201 -5.60174 0
M  V30 769 H 73.8709 -1.98086 -2.30208 0
M  V30 770 H 71.4559 -1.02332 -1.08851 0
M  V30 771 H 73.3379 -0.418761 -4.19314 0
M  V30 772 H 72.0129 0.282754 -3.22463 0
M  V30 773 H 70.9199 -2.03304 -3.14036 0
M  V30 774 H 72.2529 -2.6583 -4.14241 0
M  V30 775 N 73.905 1.17692 -1.04816 0
M  V30 776 C 74.835 2.23777 -0.666791 0
M  V30 777 C 75.816 1.66796 0.33361 0
M  V30 778 O 77.001 1.93039 0.212042 0
M  V30 779 C 74.131 3.47281 -0.0367933 0
M  V30 780 C 73.085 4.17059 -0.961546 0
M  V30 781 C 72.411 5.34342 -0.195626 0
M  V30 782 C 73.711 4.69713 -2.28402 0
M  V30 783 H 75.405 2.55933 -1.55367 0
M  V30 784 H 72.951 1.23019 -0.748484 0
M  V30 785 H 74.904 4.20706 0.241775 0
M  V30 786 H 73.628 3.14381 0.885004 0
M  V30 787 H 72.287 3.45541 -1.22462 0
M  V30 788 H 71.935 4.97692 0.728816 0
M  V30 789 H 71.635 5.81966 -0.811775 0
M  V30 790 H 73.159 6.10553 0.0757473 0
M  V30 791 H 74.573 5.34794 -2.06563 0
M  V30 792 H 72.97 5.279 -2.8538 0
M  V30 793 H 74.04 3.86726 -2.92525 0
M  V30 794 N 75.3831 0.828654 1.34056 0
M  V30 795 C 76.6311 0.41863 1.97717 0
M  V30 796 C 76.9521 -1.02314 1.66002 0
M  V30 797 O 76.2221 -1.71119 0.953683 0
M  V30 798 H 74.8021 0.151809 0.731412 0
M  V30 799 H 77.4641 1.05936 1.63596 0
M  V30 800 H 76.5601 0.542318 3.07352 0
M  V30 801 N 76.8612 -1.46375 0.584142 0
M  V30 802 C 78.0892 -2.06761 0.0759296 0
M  V30 803 C 78.5042 -1.43266 -1.22965 0
M  V30 804 O 77.8612 -0.538458 -1.74376 0
M  V30 805 C 77.9122 -3.61375 -0.0950384 0
M  V30 806 O 77.6332 -4.22495 1.15887 0
M  V30 807 C 79.1342 -4.38693 -0.637434 0
M  V30 808 H 76.3542 -0.668479 0.0581075 0
M  V30 809 H 78.8982 -1.8798 0.805218 0
M  V30 810 H 77.0532 -3.79578 -0.774554 0
M  V30 811 H 77.4672 -5.15385 0.973598 0
M  V30 812 H 78.9412 -5.47464 -0.706237 0
M  V30 813 H 79.4182 -4.06836 -1.65472 0
M  V30 814 H 80.0242 -4.25299 0.00725967 0
M  V30 815 N 78.3393 -0.321999 -1.54275 0
M  V30 816 C 79.3023 0.531975 -2.22941 0
M  V30 817 C 80.3023 1.04478 -1.22234 0
M  V30 818 O 81.4923 0.937452 -1.46825 0
M  V30 819 C 78.6243 1.73874 -2.93224 0
M  V30 820 H 79.8173 -0.0682612 -2.99822 0
M  V30 821 H 77.3703 -0.0730644 -1.56129 0
M  V30 822 H 78.1053 2.37825 -2.20476 0
M  V30 823 H 77.8903 1.37847 -3.6707 0
M  V30 824 H 79.3803 2.34496 -3.45545 0
M  V30 825 N 79.8174 1.5752 -0.0501392 0
M  V30 826 C 81.0644 1.9265 0.623874 0
M  V30 827 C 81.3924 0.928411 1.70912 0
M  V30 828 O 80.6474 -0.0594525 1.9561 0
M  V30 829 C 80.9464 3.34467 1.25963 0
M  V30 830 C 80.6124 4.49883 0.302689 0
M  V30 831 C 79.2744 4.81184 0.0393636 0
M  V30 832 C 81.6264 5.20002 -0.353205 0
M  V30 833 C 78.9544 5.79951 -0.887308 0
M  V30 834 C 81.3064 6.1976 -1.26806 0
M  V30 835 C 79.9704 6.49491 -1.54007 0
M  V30 836 H 79.2404 0.704957 0.228292 0
M  V30 837 H 81.8874 1.91146 -0.116398 0
M  V30 838 H 80.1924 3.32333 2.07514 0
M  V30 839 H 81.8894 3.58928 1.78806 0
M  V30 840 H 78.4794 4.25457 0.518109 0
M  V30 841 H 82.6634 4.96033 -0.162854 0
M  V30 842 H 77.9194 6.01322 -1.10553 0
M  V30 843 H 82.0934 6.73205 -1.78236 0
M  V30 844 H 79.7204 7.25837 -2.25976 0
M  V30 845 N 81.2955 -0.223234 1.56011 0
M  V30 846 C 82.5425 -0.947875 1.78946 0
M  V30 847 C 82.8705 -1.844 0.618608 0
M  V30 848 O 82.1255 -1.91629 -0.397093 0
M  V30 849 C 82.4245 -1.81948 3.0762 0
M  V30 850 C 82.0905 -1.07672 4.37856 0
M  V30 851 C 80.7525 -0.871544 4.73242 0
M  V30 852 C 83.1045 -0.552081 5.18268 0
M  V30 853 C 80.4325 -0.129791 5.86556 0
M  V30 854 C 82.7845 0.17632 6.32354 0
M  V30 855 C 81.4485 0.39277 6.66343 0
M  V30 856 H 80.7185 -0.346852 0.654809 0
M  V30 857 H 83.3655 -0.216171 1.90276 0
M  V30 858 H 81.6705 -2.61899 2.91404 0
M  V30 859 H 83.3675 -2.38227 3.22566 0
M  V30 860 H 79.9575 -1.24662 4.1007 0
M  V30 861 H 84.1415 -0.698076 4.91366 0
M  V30 862 H 79.3975 0.048153 6.11381 0
M  V30 863 H 83.5715 0.590367 6.93893 0
M  V30 864 H 81.1985 0.969466 7.53993 0
M  V30 865 N 82.7736 -1.49793 -0.48987 0
M  V30 866 C 83.7056 -1.63413 -1.60713 0
M  V30 867 C 84.7186 -0.516329 -1.54395 0
M  V30 868 O 85.9076 -0.788812 -1.60125 0
M  V30 869 C 83.0076 -1.58516 -2.99543 0
M  V30 870 C 82.1806 -2.86016 -3.30928 0
M  V30 871 C 81.2396 -2.74018 -4.49222 0
M  V30 872 O 80.2656 -3.47964 -4.50455 0
M  V30 873 N 81.4676 -1.86309 -5.4979 0
M  V30 874 H 84.2326 -2.59777 -1.49452 0
M  V30 875 H 81.7936 -1.47022 -0.677955 0
M  V30 876 H 83.7856 -1.48128 -3.76617 0
M  V30 877 H 82.3556 -0.69965 -3.0467 0
M  V30 878 H 81.5756 -3.10672 -2.42645 0
M  V30 879 H 82.8636 -3.70521 -3.487 0
M  V30 880 H 82.2616 -1.2551 -5.51601 0
M  V30 881 H 80.8186 -1.81837 -6.25922 0
M  V30 882 N 84.2517 0.741722 -1.39055 0
M  V30 883 C 85.1837 1.8657 -1.33133 0
M  V30 884 C 86.1967 1.61001 -0.241329 0
M  V30 885 O 87.3857 1.7136 -0.499784 0
M  V30 886 C 84.4857 3.22457 -1.04283 0
M  V30 887 C 83.6587 3.75435 -2.24427 0
M  V30 888 C 82.7177 4.89867 -1.92138 0
M  V30 889 O 81.7437 5.03879 -2.64754 0
M  V30 890 N 82.9457 5.73738 -0.88347 0
M  V30 891 H 85.7107 1.92156 -2.29991 0
M  V30 892 H 83.2717 0.922172 -1.3307 0
M  V30 893 H 85.2637 3.9657 -0.807128 0
M  V30 894 H 83.8337 3.12181 -0.161807 0
M  V30 895 H 83.0537 2.92751 -2.6399 0
M  V30 896 H 84.3417 4.07563 -3.04581 0
M  V30 897 H 83.7397 5.64999 -0.281517 0
M  V30 898 H 82.2967 6.47947 -0.707662 0
M  V30 899 N 85.7298 1.2412 0.971189 0
M  V30 900 C 86.6618 0.988349 2.06795 0
M  V30 901 C 87.6748 -0.0409541 1.62748 0
M  V30 902 O 88.8638 0.195673 1.77424 0
M  V30 903 C 85.9638 0.469023 3.35639 0
M  V30 904 C 85.1368 1.56065 4.08611 0
M  V30 905 C 84.1958 1.04458 5.15728 0
M  V30 906 O 83.2218 1.73553 5.42096 0
M  V30 907 N 84.4238 -0.122817 5.8037 0
M  V30 908 H 87.1888 1.93265 2.29061 0
M  V30 909 H 84.7498 1.15102 1.13856 0
M  V30 910 H 86.7418 0.108613 4.04554 0
M  V30 911 H 85.3118 -0.380919 3.1027 0
M  V30 912 H 84.5318 2.09341 3.34021 0
M  V30 913 H 85.8198 2.29449 4.54126 0
M  V30 914 H 85.2178 -0.700563 5.61345 0
M  V30 915 H 83.7748 -0.424404 6.50417 0
M  V30 916 N 87.2079 -1.17134 1.05439 0
M  V30 917 C 88.1399 -2.2078 0.615539 0
M  V30 918 C 89.1529 -1.59584 -0.322001 0
M  V30 919 O 90.3419 -1.78133 -0.114344 0
M  V30 920 C 87.4419 -3.38691 -0.118938 0
M  V30 921 C 86.6149 -4.29454 0.829924 0
M  V30 922 C 85.6739 -5.26024 0.136258 0
M  V30 923 O 84.6999 -5.63952 0.77115 0
M  V30 924 N 85.9019 -5.69487 -1.1254 0
M  V30 925 H 88.6669 -2.59052 1.50705 0
M  V30 926 H 86.2279 -1.32058 0.936603 0
M  V30 927 H 88.2199 -4.00329 -0.593179 0
M  V30 928 H 86.7899 -2.98996 -0.91215 0
M  V30 929 H 86.0099 -3.65211 1.48373 0
M  V30 930 H 87.2979 -4.86984 1.47392 0
M  V30 931 H 86.6959 -5.4075 -1.6615 0
M  V30 932 H 85.2529 -6.33257 -1.54366 0
M  V30 933 N 88.686 -0.835752 -1.33615 0
M  V30 934 C 89.616 -0.281739 -2.31794 0
M  V30 935 C 90.597 0.608833 -1.58831 0
M  V30 936 O 91.782 0.533035 -1.86741 0
M  V30 937 C 88.912 0.546612 -3.42971 0
M  V30 938 C 87.866 -0.247904 -4.27281 0
M  V30 939 C 87.192 0.704001 -5.30045 0
M  V30 940 C 88.492 -1.46324 -5.01385 0
M  V30 941 H 90.186 -1.10206 -2.78379 0
M  V30 942 H 87.732 -0.531388 -1.33837 0
M  V30 943 H 89.685 0.944467 -4.1068 0
M  V30 944 H 88.409 1.40011 -2.95067 0
M  V30 945 H 87.068 -0.627281 -3.61194 0
M  V30 946 H 86.716 1.55381 -4.78399 0
M  V30 947 H 86.416 0.176524 -5.87335 0
M  V30 948 H 87.94 1.09944 -6.0062 0
M  V30 949 H 89.354 -1.13871 -5.61877 0
M  V30 950 H 87.751 -1.92728 -5.6831 0
M  V30 951 H 88.821 -2.23467 -4.30338 0
M  V30 952 N 90.1641 1.46063 -0.591896 0
M  V30 953 C 91.5751 1.85944 -0.167822 0
M  V30 954 C 91.9261 1.49429 1.27143 0
M  V30 955 O 91.0511 0.913515 1.96173 0
M  V30 956 C 91.6461 3.37489 -0.297794 0
M  V30 957 C 90.2051 3.76332 0.0714732 0
M  V30 958 C 89.3521 2.7006 -0.629509 0
M  V30 959 H 92.3031 1.37087 -0.799555 0
M  V30 960 H 92.3241 3.77532 0.474349 0
M  V30 961 H 91.8361 3.64034 -1.3454 0
M  V30 962 H 89.9371 3.55405 1.11886 0
M  V30 963 H 90.0501 4.78088 -0.311245 0
M  V30 964 H 88.4141 2.54607 -0.0687867 0
M  V30 965 H 89.1971 2.99444 -1.67894 0
M  V30 966 N 91.6422 0.330177 1.54103 0
M  V30 967 C 92.6052 -0.520144 2.2322 0
M  V30 968 C 93.6052 -1.03828 1.22786 0
M  V30 969 O 94.7952 -0.929652 1.4732 0
M  V30 970 C 91.9272 -1.72317 2.94142 0
M  V30 971 H 93.1202 0.0841605 2.99782 0
M  V30 972 H 90.6732 0.0813433 1.56088 0
M  V30 973 H 91.4082 -2.36653 2.21734 0
M  V30 974 H 91.1932 -1.35898 3.67796 0
M  V30 975 H 92.6832 -2.3266 3.46784 0
M  V30 976 N 93.1203 -1.57491 0.0584922 0
M  V30 977 C 94.0833 -2.1085 -0.898617 0
M  V30 978 C 95.0833 -1.02964 -1.23511 0
M  V30 979 O 96.2733 -1.29007 -1.17059 0
M  V30 980 C 93.4053 -2.59881 -2.20623 0
M  V30 981 H 94.5983 -2.96715 -0.435936 0
M  V30 982 H 92.1513 -1.55141 -0.190023 0
M  V30 983 H 92.8863 -1.77431 -2.71457 0
M  V30 984 H 92.6713 -3.38727 -1.97501 0
M  V30 985 H 94.1613 -3.01285 -2.89166 0
M  V30 986 N 94.5984 0.214957 -1.56127 0
M  V30 987 C 95.5314 1.29382 -1.87977 0
M  V30 988 C 96.5094 1.44897 -0.737807 0
M  V30 989 O 97.6934 1.60605 -0.986833 0
M  V30 990 C 94.8204 2.66325 -2.09258 0
M  V30 991 C 93.8664 2.67789 -3.31951 0
M  V30 992 S 94.6994 2.21198 -4.8768 0
M  V30 993 C 95.8554 3.60003 -5.12004 0
M  V30 994 H 96.0884 1.02173 -2.79192 0
M  V30 995 H 93.6214 0.417516 -1.48648 0
M  V30 996 H 95.5794 3.45162 -2.22201 0
M  V30 997 H 94.2404 2.90755 -1.18829 0
M  V30 998 H 93.4334 3.68436 -3.43906 0
M  V30 999 H 93.0354 1.9702 -3.17898 0
M  V30 1000 H 95.3274 4.55739 -5.01307 0
M  V30 1001 H 96.2704 3.52959 -6.13861 0
M  V30 1002 H 96.6784 3.53996 -4.39712 0
M  V30 1003 N 96.0765 1.50051 0.48192 0
M  V30 1004 C 97.0395 1.67584 1.5636 0
M  V30 1005 C 98.0395 0.546894 1.51214 0
M  V30 1006 O 99.2295 0.813725 1.54026 0
M  V30 1007 C 96.3615 1.691 2.96003 0
M  V30 1008 H 97.5545 2.64078 1.42136 0
M  V30 1009 H 95.1075 1.39369 0.707533 0
M  V30 1010 H 95.8425 0.742589 3.15684 0
M  V30 1011 H 95.6275 2.51105 3.01146 0
M  V30 1012 H 97.1175 1.84656 3.74556 0
M  V30 1013 N 97.5546 -0.734337 1.39446 0
M  V30 1014 C 98.8316 -1.48579 1.27215 0
M  V30 1015 C 99.2116 -2.1077 -0.117968 0
M  V30 1016 O 98.5596 -1.98646 -1.12924 0
M  V30 1017 C 98.7696 -2.53667 2.39696 0
M  V30 1018 C 100.118 -3.20031 2.79044 0
M  V30 1019 O 101.142 -2.6398 2.39151 0
M  V30 1020 O 100.001 -4.21455 3.47905 0
M  V30 1021 H 97.0946 -0.659816 0.49857 0
M  V30 1022 H 99.6406 -0.768106 1.51322 0
M  V30 1023 H 98.4126 -2.06096 3.32626 0
M  V30 1024 H 98.0356 -3.32994 2.17258 0
M  V30 1025 N 99.0327 -1.24633 -0.964593 0
M  V30 1026 C 100.261 -1.11501 -1.74285 0
M  V30 1027 C 100.676 0.332165 -1.85855 0
M  V30 1028 O 100.033 1.22903 -1.34911 0
M  V30 1029 C 100.084 -1.75258 -3.16175 0
M  V30 1030 O 99.8047 -3.14318 -3.05182 0
M  V30 1031 C 101.306 -1.67776 -4.10324 0
M  V30 1032 H 98.5257 -0.389407 -0.546446 0
M  V30 1033 H 101.07 -1.64801 -1.21083 0
M  V30 1034 H 99.2247 -1.25954 -3.66353 0
M  V30 1035 H 99.6387 -3.4551 -3.94618 0
M  V30 1036 H 101.113 -2.17064 -5.0753 0
M  V30 1037 H 101.59 -0.639584 -4.34518 0
M  V30 1038 H 102.196 -2.16522 -3.66058 0
M  V30 1039 N 100.511 1.16574 -1.06058 0
M  V30 1040 C 101.758 1.87047 -0.775873 0
M  V30 1041 C 102.086 1.81562 0.697534 0
M  V30 1042 O 101.341 1.22445 1.52662 0
M  V30 1043 C 101.64 3.36195 -1.21275 0
M  V30 1044 C 101.306 3.6188 -2.68986 0
M  V30 1045 C 99.9678 3.68599 -3.09335 0
M  V30 1046 C 102.32 3.72648 -3.64394 0
M  V30 1047 C 99.6478 3.83584 -4.43937 0
M  V30 1048 C 102 3.89154 -4.98741 0
M  V30 1049 C 100.664 3.94114 -5.3873 0
M  V30 1050 H 99.9338 0.684452 -0.283912 0
M  V30 1051 H 102.581 1.37853 -1.32925 0
M  V30 1052 H 100.886 3.87505 -0.578528 0
M  V30 1053 H 102.583 3.89103 -0.969542 0
M  V30 1054 H 99.1728 3.57281 -2.36744 0
M  V30 1055 H 103.357 3.66769 -3.34356 0
M  V30 1056 H 98.6128 3.85677 -4.74409 0
M  V30 1057 H 102.787 3.96427 -5.72554 0
M  V30 1058 H 100.414 4.05478 -6.43033 0
M  V30 1059 N 101.989 0.842826 1.3317 0
M  V30 1060 C 102.919 0.294028 2.31641 0
M  V30 1061 C 103.9 -0.600401 1.59151 0
M  V30 1062 O 105.085 -0.523124 1.87022 0
M  V30 1063 C 102.215 -0.528416 3.43257 0
M  V30 1064 C 101.169 0.27056 4.27144 0
M  V30 1065 C 100.495 -0.675881 5.30411 0
M  V30 1066 C 101.795 1.48981 5.00602 0
M  V30 1067 H 103.489 1.11681 2.77791 0
M  V30 1068 H 101.035 0.538478 1.33553 0
M  V30 1069 H 102.988 -0.922674 4.11175 0
M  V30 1070 H 101.712 -1.38445 2.95805 0
M  V30 1071 H 100.371 0.646427 3.60856 0
M  V30 1072 H 100.019 -1.52842 4.79216 0
M  V30 1073 H 99.7189 -0.145374 5.8742 0
M  V30 1074 H 101.243 -1.06757 6.01195 0
M  V30 1075 H 102.657 1.16849 5.61266 0
M  V30 1076 H 101.054 1.95739 5.6728 0
M  V30 1077 H 102.124 2.25746 4.29147 0
M  V30 1078 N 103.467 -1.45747 0.599634 0
M  V30 1079 C 104.377 -2.34262 -0.125888 0
M  V30 1080 C 105.393 -1.50768 -0.868625 0
M  V30 1081 O 106.569 -1.83592 -0.828003 0
M  V30 1082 C 103.634 -3.28252 -1.11587 0
M  V30 1083 C 102.695 -4.27651 -0.375956 0
M  V30 1084 C 101.928 -5.1715 -1.31877 0
M  V30 1085 O 102.151 -5.09916 -2.55621 0
M  V30 1086 O 101.085 -5.96286 -0.820157 0
M  V30 1087 H 104.911 -2.97688 0.601315 0
M  V30 1088 H 102.496 -1.44999 0.359934 0
M  V30 1089 H 104.378 -3.86191 -1.68626 0
M  V30 1090 H 103.053 -2.67401 -1.82424 0
M  V30 1091 H 101.96 -3.7335 0.236698 0
M  V30 1092 H 103.293 -4.91334 0.29177 0
M  V30 1093 N 104.945 -0.338344 -1.53925 0
M  V30 1094 C 105.895 0.536712 -2.21593 0
M  V30 1095 C 106.879 1.07015 -1.20153 0
M  V30 1096 O 108.071 1.00471 -1.45721 0
M  V30 1097 C 105.2 1.68977 -2.98834 0
M  V30 1098 C 104.286 1.17052 -4.07627 0
M  V30 1099 N 104.677 0.372085 -5.0443 0
M  V30 1100 C 102.975 1.44789 -4.21844 0
M  V30 1101 C 103.676 0.0909171 -5.81629 0
M  V30 1102 N 102.652 0.681131 -5.39316 0
M  V30 1103 H 106.454 -0.0804298 -2.9379 0
M  V30 1104 H 103.968 -0.144943 -1.61752 0
M  V30 1105 H 105.965 2.32857 -3.45808 0
M  V30 1106 H 104.625 2.31024 -2.28162 0
M  V30 1107 H 105.636 0.0136217 -5.17898 0
M  V30 1108 H 102.313 2.07313 -3.62391 0
M  V30 1109 H 103.703 -0.552817 -6.69622 0
M  V30 1110 N 106.423 1.57458 -0.0668435 0
M  V30 1111 C 107.353 2.15468 0.899764 0
M  V30 1112 C 108.334 1.08042 1.31381 0
M  V30 1113 O 109.519 1.36054 1.38574 0
M  V30 1114 C 106.649 2.71232 2.16911 0
M  V30 1115 C 105.603 3.83781 1.89463 0
M  V30 1116 C 104.929 4.26127 3.22986 0
M  V30 1117 C 106.229 5.08238 1.20381 0
M  V30 1118 H 107.923 2.96488 0.416529 0
M  V30 1119 H 105.469 1.4262 0.198908 0
M  V30 1120 H 107.422 3.10458 2.84945 0
M  V30 1121 H 106.146 1.87426 2.67468 0
M  V30 1122 H 104.805 3.45051 1.23836 0
M  V30 1123 H 104.453 3.39249 3.71374 0
M  V30 1124 H 104.153 5.01993 3.05413 0
M  V30 1125 H 105.677 4.67966 3.92225 0
M  V30 1126 H 107.091 5.44811 1.78475 0
M  V30 1127 H 105.488 5.89349 1.13083 0
M  V30 1128 H 106.558 4.84558 0.182153 0
M  V30 1129 N 107.901 -0.206675 1.56239 0
M  V30 1130 C 109.141 -0.93574 1.81723 0
M  V30 1131 C 109.505 -1.80927 0.642609 0
M  V30 1132 O 110.706 -2.57323 0.777081 0
M  V30 1133 C 108.977 -1.74012 3.12177 0
M  V30 1134 S 110.536 -2.52279 3.59028 0
M  V30 1135 H 107.354 -0.314065 0.637875 0
M  V30 1136 H 109.956 -0.200071 1.94474 0
M  V30 1137 H 108.66 -1.0888 3.95693 0
M  V30 1138 H 108.191 -2.51782 3.02274 0
M  V30 1139 H 110.206 -3.76209 3.23545 0
M  V30 1140 N 109.379 -1.50304 -0.473955 0
M  V30 1141 C 110.309 -1.71886 -1.58042 0
M  V30 1142 C 111.29 -0.567799 -1.60344 0
M  V30 1143 O 112.475 -0.806623 -1.76656 0
M  V30 1144 C 109.605 -1.81036 -2.96384 0
M  V30 1145 C 108.559 -2.962 -3.08949 0
M  V30 1146 C 107.885 -2.9049 -4.48909 0
M  V30 1147 C 109.185 -4.36752 -2.86434 0
M  V30 1148 H 110.879 -2.64527 -1.40234 0
M  V30 1149 H 108.425 -1.27295 -0.673201 0
M  V30 1150 H 110.378 -1.94719 -3.73714 0
M  V30 1151 H 109.102 -0.850147 -3.15341 0
M  V30 1152 H 107.761 -2.82164 -2.3405 0
M  V30 1153 H 107.409 -1.92321 -4.64781 0
M  V30 1154 H 107.109 -3.67802 -4.58253 0
M  V30 1155 H 108.633 -3.06218 -5.28264 0
M  V30 1156 H 110.047 -4.5133 -3.53517 0
M  V30 1157 H 108.444 -5.15493 -3.07225 0
M  V30 1158 H 109.514 -4.49321 -1.82316 0
M  V30 1159 N 110.857 0.726932 -1.39834 0
M  V30 1160 C 111.787 1.85405 -1.41941 0
M  V30 1161 C 112.768 1.67751 -0.281728 0
M  V30 1162 O 113.953 1.8795 -0.488717 0
M  V30 1163 C 111.083 3.23243 -1.2701 0
M  V30 1164 C 110.037 3.55549 -2.38262 0
M  V30 1165 C 109.363 4.9241 -2.08415 0
M  V30 1166 C 110.663 3.577 -3.80589 0
M  V30 1167 H 112.357 1.83899 -2.36266 0
M  V30 1168 H 109.903 0.883349 -1.13723 0
M  V30 1169 H 111.856 4.01775 -1.27103 0
M  V30 1170 H 110.58 3.25296 -0.291564 0
M  V30 1171 H 109.239 2.79351 -2.37399 0
M  V30 1172 H 108.887 4.91052 -1.0898 0
M  V30 1173 H 108.587 5.14992 -2.82943 0
M  V30 1174 H 110.111 5.73289 -2.10171 0
M  V30 1175 H 111.525 4.26293 -3.83337 0
M  V30 1176 H 109.922 3.91804 -4.54543 0
M  V30 1177 H 110.992 2.57328 -4.10987 0
M  V30 1178 N 112.336 1.25143 0.95797 0
M  V30 1179 C 113.613 1.00472 1.67823 0
M  V30 1180 C 113.993 -0.470056 2.058 0
M  V30 1181 O 113.341 -1.44663 1.76875 0
M  V30 1182 C 113.551 1.9372 2.90299 0
M  V30 1183 C 114.899 2.21371 3.62326 0
M  V30 1184 O 115.923 1.91451 3.00375 0
M  V30 1185 O 114.782 2.72231 4.7387 0
M  V30 1186 H 111.876 0.380752 0.734137 0
M  V30 1187 H 114.422 1.36283 1.01119 0
M  V30 1188 H 113.194 2.93316 2.59001 0
M  V30 1189 H 112.817 1.58286 3.64735 0
M  V30 1190 N 113.814 -1.1601 1.06675 0
M  V30 1191 C 115.063 -1.85973 0.780818 0
M  V30 1192 C 115.376 -1.82819 -0.695444 0
M  V30 1193 O 116.582 -2.484 -1.09589 0
M  V30 1194 C 115.038 -3.33757 1.34665 0
M  V30 1195 C 114.646 -3.45374 2.85343 0
M  V30 1196 C 116.39 -4.0895 1.13843 0
M  V30 1197 C 114.297 -4.87266 3.35151 0
M  V30 1198 H 113.227 -0.696661 0.288407 0
M  V30 1199 H 115.878 -1.30903 1.28595 0
M  V30 1200 H 114.26 -3.88456 0.769274 0
M  V30 1201 H 115.434 -3.00816 3.49065 0
M  V30 1202 H 113.749 -2.83619 3.04876 0
M  V30 1203 H 116.346 -5.13654 1.4854 0
M  V30 1204 H 116.689 -4.16229 0.0770282 0
M  V30 1205 H 117.222 -3.605 1.68179 0
M  V30 1206 H 113.961 -4.85168 4.40786 0
M  V30 1207 H 113.481 -5.32433 2.76179 0
M  V30 1208 H 115.16 -5.56097 3.30704 0
M  V30 1209 N 115.292 -0.849877 -1.32721 0
M  V30 1210 C 116.569 -0.372405 -1.92022 0
M  V30 1211 C 116.949 1.1435 -1.77447 0
M  V30 1212 O 116.297 1.96296 -1.16962 0
M  V30 1213 C 116.507 -0.831482 -3.3895 0
M  V30 1214 C 117.855 -0.845882 -4.16089 0
M  V30 1215 O 118.879 -0.775806 -3.47649 0
M  V30 1216 O 117.738 -0.943753 -5.38289 0
M  V30 1217 H 114.832 -0.107667 -0.819961 0
M  V30 1218 H 117.378 -0.93646 -1.41522 0
M  V30 1219 H 116.15 -1.87448 -3.4348 0
M  V30 1220 H 115.773 -0.24461 -3.96847 0
M  V30 1221 N 116.77 1.45427 -0.607355 0
M  V30 1222 C 117.995 2.07124 -0.107006 0
M  V30 1223 C 118.42 1.44906 1.19933 0
M  V30 1224 O 117.778 0.541687 1.73019 0
M  V30 1225 C 117.826 3.60595 0.0194119 0
M  V30 1226 O 116.93 3.98285 1.0697 0
M  V30 1227 H 116.271 0.659868 -0.0739597 0
M  V30 1228 H 118.801 1.86683 -0.837297 0
M  V30 1229 H 118.811 4.07419 0.2177 0
M  V30 1230 H 117.486 4.05266 -0.934453 0
M  V30 1231 H 116.063 3.63133 0.847889 0
M  V30 1232 N 118.248 0.346503 1.53744 0
M  V30 1233 C 119.158 -0.517293 2.28826 0
M  V30 1234 C 120.174 -1.10935 1.3405 0
M  V30 1235 O 121.35 -1.1244 1.6709 0
M  V30 1236 C 118.415 -1.65098 3.04866 0
M  V30 1237 C 117.476 -1.0884 4.15274 0
M  V30 1238 C 116.709 -2.16806 4.87679 0
M  V30 1239 O 116.932 -3.3758 4.59778 0
M  V30 1240 O 115.866 -1.80934 5.74061 0
M  V30 1241 H 119.692 0.0931396 3.03557 0
M  V30 1242 H 117.277 0.111458 1.48984 0
M  V30 1243 H 119.159 -2.31053 3.5241 0
M  V30 1244 H 117.834 -2.24717 2.32989 0
M  V30 1245 H 116.741 -0.3933 3.72027 0
M  V30 1246 H 118.074 -0.537036 4.89261 0
M  V30 1247 N 119.726 -1.57421 0.075193 0
M  V30 1248 C 121.137 -1.81021 -0.456964 0
M  V30 1249 C 121.488 -0.98936 -1.69429 0
M  V30 1250 O 120.613 -0.212865 -2.15351 0
M  V30 1251 C 121.208 -3.28329 -0.83581 0
M  V30 1252 C 119.767 -3.52764 -1.31281 0
M  V30 1253 C 118.914 -2.75676 -0.299648 0
M  V30 1254 H 121.865 -1.55822 0.300856 0
M  V30 1255 H 121.886 -3.40564 -1.69696 0
M  V30 1256 H 121.398 -3.88046 0.0649238 0
M  V30 1257 H 119.499 -2.98355 -2.23193 0
M  V30 1258 H 119.612 -4.61451 -1.28839 0
M  V30 1259 H 117.976 -2.42538 -0.777641 0
M  V30 1260 H 118.759 -3.38132 0.593417 0
M  V30 1261 N 121.204 0.198386 -1.56346 0
M  V30 1262 C 122.45 0.920648 -1.80698 0
M  V30 1263 C 122.783 1.83045 -0.648697 0
M  V30 1264 O 122.058 1.91308 0.350925 0
M  V30 1265 C 122.341 1.73971 -3.15287 0
M  V30 1266 C 122.194 0.85485 -4.41602 0
M  V30 1267 C 123.513 2.71296 -3.46535 0
M  V30 1268 H 120.632 0.333261 -0.657348 0
M  V30 1269 H 123.274 0.188198 -1.89066 0
M  V30 1270 H 121.424 2.36416 -3.08285 0
M  V30 1271 H 123.096 0.245362 -4.60647 0
M  V30 1272 H 121.339 0.161398 -4.335 0
M  V30 1273 H 122.01 1.46286 -5.32264 0
M  V30 1274 H 124.486 2.18983 -3.53816 0
M  V30 1275 H 123.362 3.2569 -4.41834 0
M  V30 1276 H 123.623 3.5018 -2.69864 0
M  V30 1277 N 122.682 1.50554 0.465978 0
M  V30 1278 C 123.645 1.69233 1.54574 0
M  V30 1279 C 124.645 0.562901 1.50626 0
M  V30 1280 O 125.835 0.830016 1.53155 0
M  V30 1281 C 122.967 1.7223 2.94193 0
M  V30 1282 H 124.16 2.65571 1.39327 0
M  V30 1283 H 121.713 1.40111 0.692711 0
M  V30 1284 H 122.448 0.77603 3.14878 0
M  V30 1285 H 122.233 2.54285 2.98466 0
M  V30 1286 H 123.723 1.88618 3.72576 0
M  V30 1287 N 124.16 -0.719506 1.40217 0
M  V30 1288 C 125.123 -1.8153 1.39927 0
M  V30 1289 C 126.123 -1.58095 0.293723 0
M  V30 1290 O 127.313 -1.65209 0.552429 0
M  V30 1291 C 124.445 -3.19561 1.18716 0
M  V30 1292 H 125.638 -1.83186 2.37451 0
M  V30 1293 H 123.191 -0.924746 1.26008 0
M  V30 1294 H 123.926 -3.23557 0.219366 0
M  V30 1295 H 123.711 -3.3797 1.98793 0
M  V30 1296 H 125.201 -3.99598 1.21291 0
M  V30 1297 N 125.638 -1.25649 -0.95132 0
M  V30 1298 C 127.054 -1.02542 -1.223 0
M  V30 1299 C 127.254 0.255715 -1.99871 0
M  V30 1300 O 126.31 0.967558 -2.33226 0
M  V30 1301 C 127.623 -2.25065 -1.99415 0
M  V30 1302 C 129.171 -2.29861 -2.12446 0
M  V30 1303 C 129.646 -3.52048 -2.92961 0
M  V30 1304 N 131.137 -3.52465 -3.00538 0
M  V30 1305 C 131.872 -4.43672 -3.63239 0
M  V30 1306 N 131.368 -5.45157 -4.27523 0
M  V30 1307 N 133.161 -4.31346 -3.60412 0
M  V30 1308 H 125.312 -2.07951 -0.432471 0
M  V30 1309 H 127.575 -0.91339 -0.253816 0
M  V30 1310 H 127.281 -3.18194 -1.49817 0
M  V30 1311 H 127.155 -2.28502 -3.00111 0
M  V30 1312 H 129.542 -1.37252 -2.61239 0
M  V30 1313 H 129.623 -2.3044 -1.11044 0
M  V30 1314 H 129.267 -4.44981 -2.44856 0
M  V30 1315 H 129.197 -3.48715 -3.94596 0
M  V30 1316 H 131.688 -2.79056 -2.54826 0
M  V30 1317 H 132.001 -6.10958 -4.73234 0
M  V30 1318 H 130.346 -5.49025 -4.26141 0
M  V30 1319 H 133.537 -3.51288 -3.09377 0
M  V30 1320 H 133.71 -5.02624 -4.0899 0
M  V30 1321 N 127.117 1.15442 -1.07289 0
M  V30 1322 C 128.342 1.90638 -0.816828 0
M  V30 1323 C 128.767 1.77445 0.624083 0
M  V30 1324 O 128.125 1.10671 1.43602 0
M  V30 1325 C 128.173 3.39008 -1.22906 0
M  V30 1326 O 127.277 4.10701 -0.373975 0
M  V30 1327 H 126.618 0.593555 -0.297638 0
M  V30 1328 H 129.148 1.46198 -1.43134 0
M  V30 1329 H 129.158 3.89801 -1.20497 0
M  V30 1330 H 127.833 3.47929 -2.27856 0
M  V30 1331 H 126.41 3.70046 -0.460499 0
M  V30 1332 N 128.595 0.856903 1.32268 0
M  V30 1333 C 129.823 0.475439 2.01363 0
M  V30 1334 C 130.238 -0.928486 1.64392 0
M  V30 1335 O 129.595 -1.60624 0.866387 0
M  V30 1336 C 129.646 0.607545 3.56358 0
M  V30 1337 O 129.367 1.95617 3.92002 0
M  V30 1338 C 130.868 0.225382 4.42727 0
M  V30 1339 H 128.088 0.186636 0.644521 0
M  V30 1340 H 130.632 1.15446 1.68797 0
M  V30 1341 H 128.787 -0.0237719 3.87393 0
M  V30 1342 H 129.201 1.95455 4.86721 0
M  V30 1343 H 130.675 0.368813 5.50767 0
M  V30 1344 H 131.152 -0.834369 4.31202 0
M  V30 1345 H 131.758 0.831864 4.17085 0
M  V30 1346 N 130.073 -1.45103 0.615059 0
M  V30 1347 C 131.298 -2.07064 0.117988 0
M  V30 1348 C 131.723 -1.4554 -1.19163 0
M  V30 1349 O 131.081 -0.550855 -1.72729 0
M  V30 1350 C 131.129 -3.606 -0.000288387 0
M  V30 1351 O 130.233 -3.98847 -1.04856 0
M  V30 1352 H 129.574 -0.659467 0.0774581 0
M  V30 1353 H 132.104 -1.86236 0.847186 0
M  V30 1354 H 132.114 -4.07529 -0.196091 0
M  V30 1355 H 130.789 -4.04765 0.955932 0
M  V30 1356 H 129.366 -3.63577 -0.828619 0
M  V30 1357 N 131.551 -0.354651 -1.53558 0
M  V30 1358 C 132.8 0.239504 -2.00273 0
M  V30 1359 C 133.113 1.50759 -1.24623 0
M  V30 1360 O 134.319 2.17968 -1.61871 0
M  V30 1361 C 132.775 0.477341 -3.5672 0
M  V30 1362 C 132.383 -0.775488 -4.41237 0
M  V30 1363 C 134.127 1.02975 -4.11821 0
M  V30 1364 C 132.034 -0.507838 -5.89216 0
M  V30 1365 H 130.964 0.0932743 -0.748208 0
M  V30 1366 H 133.615 -0.471701 -1.77334 0
M  V30 1367 H 131.997 1.24953 -3.7577 0
M  V30 1368 H 133.171 -1.54963 -4.33962 0
M  V30 1369 H 131.486 -1.25033 -3.97185 0
M  V30 1370 H 134.083 1.24513 -5.2 0
M  V30 1371 H 134.426 1.98862 -3.65731 0
M  V30 1372 H 134.959 0.317994 -3.96527 0
M  V30 1373 H 131.698 -1.43674 -6.39561 0
M  V30 1374 H 131.218 0.228011 -5.99366 0
M  V30 1375 H 132.897 -0.129238 -6.46871 0
M  V30 1376 N 133.029 1.57378 -0.0835403 0
M  V30 1377 C 134.278 1.93106 0.582498 0
M  V30 1378 C 134.591 0.96651 1.70053 0
M  V30 1379 O 135.797 1.21705 2.42693 0
M  V30 1380 C 134.253 3.43076 1.08751 0
M  V30 1381 C 133.861 4.48 -0.000146404 0
M  V30 1382 C 135.605 3.87785 1.72694 0
M  V30 1383 C 133.512 5.89113 0.519568 0
M  V30 1384 H 132.442 0.720775 0.221358 0
M  V30 1385 H 135.093 1.82821 -0.157675 0
M  V30 1386 H 133.475 3.48474 1.88101 0
M  V30 1387 H 134.649 4.54233 -0.775199 0
M  V30 1388 H 132.964 4.1283 -0.54406 0
M  V30 1389 H 135.561 4.90604 2.1263 0
M  V30 1390 H 135.904 3.25796 2.59158 0
M  V30 1391 H 136.437 3.8504 0.999457 0
M  V30 1392 H 133.176 6.54775 -0.308186 0
M  V30 1393 H 132.696 5.86376 1.26188 0
M  V30 1394 H 134.375 6.39346 0.992237 0
M  V30 1395 N 134.507 -0.190092 1.56449 0
M  V30 1396 C 135.47 -1.21925 1.9408 0
M  V30 1397 C 136.47 -1.38176 0.822431 0
M  V30 1398 O 137.66 -1.35903 1.08977 0
M  V30 1399 C 134.792 -2.58773 2.21922 0
M  V30 1400 H 135.985 -0.897464 2.86157 0
M  V30 1401 H 133.538 -0.43181 1.50217 0
M  V30 1402 H 134.273 -2.95998 1.32499 0
M  V30 1403 H 134.058 -2.48348 3.03424 0
M  V30 1404 H 135.548 -3.32978 2.52022 0
M  V30 1405 N 135.985 -1.50799 -0.457987 0
M  V30 1406 C 137.213 -1.66218 -1.23203 0
M  V30 1407 C 137.628 -0.350894 -1.85511 0
M  V30 1408 O 136.985 0.668546 -1.69814 0
M  V30 1409 C 137.036 -2.76291 -2.33121 0
M  V30 1410 O 136.757 -4.02338 -1.73366 0
M  V30 1411 C 138.258 -3.028 -3.2377 0
M  V30 1412 H 135.478 -0.558361 -0.372121 0
M  V30 1413 H 138.022 -1.97099 -0.545179 0
M  V30 1414 H 136.177 -2.48068 -2.97558 0
M  V30 1415 H 136.591 -4.63312 -2.4585 0
M  V30 1416 H 138.065 -3.8345 -3.97077 0
M  V30 1417 H 138.542 -2.14385 -3.83322 0
M  V30 1418 H 139.148 -3.32604 -2.65056 0
M  V30 1419 N 137.463 0.71206 -1.40597 0
M  V30 1420 C 138.712 1.46754 -1.38369 0
M  V30 1421 C 139.025 1.95598 0.0097839 0
M  V30 1422 O 140.231 2.71059 0.154677 0
M  V30 1423 C 138.687 2.65289 -2.43207 0
M  V30 1424 C 138.295 2.23301 -3.88382 0
M  V30 1425 C 140.039 3.43008 -2.50091 0
M  V30 1426 C 137.946 3.38696 -4.84808 0
M  V30 1427 H 136.876 0.55118 -0.514506 0
M  V30 1428 H 139.527 0.774616 -1.66349 0
M  V30 1429 H 137.909 3.36769 -2.08332 0
M  V30 1430 H 139.083 1.59218 -4.32419 0
M  V30 1431 H 137.398 1.58618 -3.85006 0
M  V30 1432 H 139.995 4.28881 -3.1932 0
M  V30 1433 H 140.338 3.87065 -1.53253 0
M  V30 1434 H 140.871 2.78574 -2.83974 0
M  V30 1435 H 137.61 2.99668 -5.82992 0
M  V30 1436 H 137.13 4.01683 -4.45433 0
M  V30 1437 H 138.809 4.04712 -5.04794 0
M  V30 1438 N 138.941 1.26152 0.944643 0
M  V30 1439 C 140.189 1.11271 1.6871 0
M  V30 1440 C 140.51 -0.345166 1.91921 0
M  V30 1441 O 139.78 -1.24387 1.51343 0
M  V30 1442 H 138.36 0.408783 0.625224 0
M  V30 1443 H 141.022 1.58427 1.1352 0
M  V30 1444 H 140.118 1.62879 2.66227 0
M  V30 1445 N 140.419 -1.14872 1.07899 0
M  V30 1446 C 141.83 -1.67367 0.827363 0
M  V30 1447 C 142.181 -1.85236 -0.646693 0
M  V30 1448 O 141.306 -1.55974 -1.50004 0
M  V30 1449 C 141.901 -3.04016 1.49532 0
M  V30 1450 C 140.46 -3.53566 1.29106 0
M  V30 1451 C 139.607 -2.29161 1.56143 0
M  V30 1452 H 142.558 -0.990083 1.24028 0
M  V30 1453 H 142.579 -3.69219 0.919643 0
M  V30 1454 H 142.091 -2.90978 2.56814 0
M  V30 1455 H 140.192 -3.71835 0.238713 0
M  V30 1456 H 140.305 -4.34661 2.01511 0
M  V30 1457 H 138.669 -2.34978 0.982717 0
M  V30 1458 H 139.452 -2.18705 2.64619 0
M  V30 1459 N 141.898 -0.863906 -1.31812 0
M  V30 1460 C 142.861 -0.320212 -2.26952 0
M  V30 1461 C 143.861 0.525369 -1.51975 0
M  V30 1462 O 145.051 0.335547 -1.70938 0
M  V30 1463 C 142.183 0.545919 -3.365 0
M  V30 1464 H 143.376 -1.16004 -2.76556 0
M  V30 1465 H 140.929 -0.638995 -1.42641 0
M  V30 1466 H 141.664 1.40718 -2.92179 0
M  V30 1467 H 141.449 -0.0594674 -3.92055 0
M  V30 1468 H 142.939 0.918796 -4.07367 0
M  V30 1469 N 143.376 1.44774 -0.622745 0
M  V30 1470 C 144.601 2.06999 -0.128968 0
M  V30 1471 C 145.026 1.4617 1.1839 0
M  V30 1472 O 144.384 0.560007 1.72434 0
M  V30 1473 C 144.432 3.60595 -0.0188351 0
M  V30 1474 O 143.536 3.99398 1.02739 0
M  V30 1475 H 142.877 0.659047 -0.0809544 0
M  V30 1476 H 145.407 1.85784 -0.85705 0
M  V30 1477 H 145.417 4.07627 0.174476 0
M  V30 1478 H 144.092 4.04252 -0.977384 0
M  V30 1479 H 142.669 3.64011 0.809326 0
M  V30 1480 N 144.854 0.36279 1.53368 0
M  V30 1481 C 146.27 0.0116182 1.59596 0
M  V30 1482 C 146.47 -1.47012 1.37803 0
M  V30 1483 O 145.526 -2.23136 1.18181 0
M  V30 1484 C 146.839 0.465052 2.97082 0
M  V30 1485 C 148.387 0.419033 3.10182 0
M  V30 1486 C 148.862 0.848235 4.50077 0
M  V30 1487 N 150.353 0.803183 4.56183 0
M  V30 1488 C 151.088 1.107 5.62613 0
M  V30 1489 N 150.584 1.47996 6.76808 0
M  V30 1490 N 152.377 1.02998 5.52583 0
M  V30 1491 H 144.528 1.32775 1.65785 0
M  V30 1492 H 146.791 0.542518 0.777417 0
M  V30 1493 H 146.497 1.49892 3.18159 0
M  V30 1494 H 146.371 -0.149786 3.76902 0
M  V30 1495 H 148.758 -0.605696 2.88817 0
M  V30 1496 H 148.839 1.06933 2.32377 0
M  V30 1497 H 148.483 1.87107 4.7218 0
M  V30 1498 H 148.413 0.175218 5.26308 0
M  V30 1499 H 150.904 0.52838 3.74188 0
M  V30 1500 H 151.217 1.69613 7.53957 0
M  V30 1501 H 149.562 1.51859 6.78206 0
M  V30 1502 H 152.753 0.737817 4.62249 0
M  V30 1503 H 152.926 1.2701 6.35431 0
M  V30 1504 N 146.332 -1.57332 0.0918853 0
M  V30 1505 C 147.557 -1.98995 -0.584442 0
M  V30 1506 C 147.982 -0.970528 -1.61128 0
M  V30 1507 O 147.34 0.0613904 -1.81196 0
M  V30 1508 C 147.388 -3.39636 -1.21161 0
M  V30 1509 O 146.492 -3.40447 -2.32744 0
M  V30 1510 H 145.833 -0.647165 -0.148572 0
M  V30 1511 H 148.363 -2.03873 0.172347 0
M  V30 1512 H 148.373 -3.7726 -1.55367 0
M  V30 1513 H 147.048 -4.13356 -0.459313 0
M  V30 1514 H 145.625 -3.14614 -2.0018 0
M  V30 1515 N 147.81 0.181792 -1.56548 0
M  V30 1516 C 149.056 0.901431 -1.81665 0
M  V30 1517 C 149.389 1.82347 -0.668075 0
M  V30 1518 O 148.664 1.91669 0.330615 0
M  V30 1519 C 148.947 1.70618 -3.17115 0
M  V30 1520 C 148.8 0.807964 -4.42484 0
M  V30 1521 C 150.119 2.67605 -3.49393 0
M  V30 1522 H 147.238 0.32627 -0.660846 0
M  V30 1523 H 149.88 0.168134 -1.89255 0
M  V30 1524 H 148.03 2.33133 -3.10775 0
M  V30 1525 H 149.702 0.19649 -4.60881 0
M  V30 1526 H 147.945 0.115411 -4.33646 0
M  V30 1527 H 148.616 1.40632 -5.33785 0
M  V30 1528 H 151.092 2.15218 -3.56118 0
M  V30 1529 H 149.968 3.20985 -4.45264 0
M  V30 1530 H 150.229 3.47298 -2.73563 0
M  V30 1531 N 149.288 1.51039 0.449983 0
M  V30 1532 C 150.198 1.74261 1.57067 0
M  V30 1533 C 151.214 0.626363 1.62335 0
M  V30 1534 O 152.39 0.907162 1.79812 0
M  V30 1535 C 149.455 1.85114 2.93144 0
M  V30 1536 C 148.516 3.0893 2.98095 0
M  V30 1537 C 147.749 3.19256 4.27681 0
M  V30 1538 O 147.972 2.35835 5.19363 0
M  V30 1539 O 146.906 4.12144 4.38658 0
M  V30 1540 H 150.732 2.69303 1.40391 0
M  V30 1541 H 148.317 1.35389 0.631688 0
M  V30 1542 H 150.199 1.94311 3.73926 0
M  V30 1543 H 148.874 0.932588 3.09975 0
M  V30 1544 H 147.781 3.0522 2.16314 0
M  V30 1545 H 149.114 4.00433 2.86206 0
M  V30 1546 N 150.766 -0.704594 1.40972 0
M  V30 1547 C 152.182 -1.01406 1.23244 0
M  V30 1548 C 152.382 -2.01169 0.115399 0
M  V30 1549 O 151.438 -2.47021 -0.523147 0
M  V30 1550 C 152.751 -1.54728 2.57836 0
M  V30 1551 C 154.299 -1.66658 2.64942 0
M  V30 1552 C 154.774 -2.23383 3.9983 0
M  V30 1553 N 156.265 -2.30756 4.01629 0
M  V30 1554 C 157 -2.75655 5.02794 0
M  V30 1555 N 156.496 -3.20225 6.14352 0
M  V30 1556 N 158.289 -2.75138 4.90159 0
M  V30 1557 H 150.44 -0.0435285 2.12355 0
M  V30 1558 H 152.703 -0.0818951 0.944456 0
M  V30 1559 H 152.409 -0.888832 3.40283 0
M  V30 1560 H 152.283 -2.53084 2.79693 0
M  V30 1561 H 154.67 -2.31617 1.8286 0
M  V30 1562 H 154.751 -0.668717 2.46904 0
M  V30 1563 H 154.395 -1.59043 4.82357 0
M  V30 1564 H 154.325 -3.23904 4.15203 0
M  V30 1565 H 156.816 -1.99291 3.21079 0
M  V30 1566 H 157.129 -3.53084 6.87424 0
M  V30 1567 H 155.474 -3.18156 6.17901 0
M  V30 1568 H 158.665 -2.39661 4.02095 0
M  V30 1569 H 158.838 -3.09812 5.6914 0
M  V30 1570 N 152.244 -1.26651 -0.937939 0
M  V30 1571 C 153.174 -1.10993 -2.05433 0
M  V30 1572 C 154.155 -0.0142161 -1.70094 0
M  V30 1573 O 155.34 -0.186837 -1.93299 0
M  V30 1574 C 152.47 -0.745561 -3.39203 0
M  V30 1575 C 151.424 -1.79337 -3.88616 0
M  V30 1576 C 150.75 -1.28324 -5.19073 0
M  V30 1577 C 152.05 -3.19553 -4.13138 0
M  V30 1578 H 153.744 -2.0438 -2.1879 0
M  V30 1579 H 151.29 -0.984041 -1.05131 0
M  V30 1580 H 153.243 -0.622888 -4.16771 0
M  V30 1581 H 151.967 0.22401 -3.25831 0
M  V30 1582 H 150.626 -1.90477 -3.13231 0
M  V30 1583 H 150.274 -0.303414 -5.02084 0
M  V30 1584 H 149.974 -1.98369 -5.53103 0
M  V30 1585 H 151.498 -1.1733 -5.99221 0
M  V30 1586 H 152.912 -3.11471 -4.81309 0
M  V30 1587 H 151.309 -3.87218 -4.58457 0
M  V30 1588 H 152.379 -3.65368 -3.18801 0
M  V30 1589 N 153.722 1.14298 -1.08507 0
M  V30 1590 C 154.669 2.19414 -0.715965 0
M  V30 1591 C 155.639 1.63399 0.298326 0
M  V30 1592 O 156.824 1.89929 0.182101 0
M  V30 1593 C 153.964 3.44845 -0.132534 0
M  V30 1594 C 153.077 4.15007 -1.19973 0
M  V30 1595 C 152.212 5.28024 -0.580048 0
M  V30 1596 C 151.251 5.9002 -1.62921 0
M  V30 1597 N 150.388 6.94485 -1.03125 0
M  V30 1598 H 155.228 2.50336 -1.61666 0
M  V30 1599 H 152.765 1.2293 -0.807882 0
M  V30 1600 H 154.723 4.16601 0.223454 0
M  V30 1601 H 153.353 3.14403 0.731467 0
M  V30 1602 H 152.405 3.41629 -1.67313 0
M  V30 1603 H 153.717 4.57178 -1.99473 0
M  V30 1604 H 152.871 6.06455 -0.172364 0
M  V30 1605 H 151.61 4.87076 0.246603 0
M  V30 1606 H 150.615 5.10291 -2.04654 0
M  V30 1607 H 151.84 6.33042 -2.45835 0
M  V30 1608 H 149.786 6.55612 -0.225711 0
M  V30 1609 H 149.703 7.35148 -1.76334 0
M  V30 1610 H 150.971 7.7679 -0.649458 0
M  V30 1611 N 155.201 0.870884 1.31352 0
M  V30 1612 C 156.111 0.330783 2.32256 0
M  V30 1613 C 157.127 -0.559767 1.6475 0
M  V30 1614 O 158.303 -0.456263 1.96164 0
M  V30 1615 C 155.368 -0.458137 3.4366 0
M  V30 1616 C 154.429 0.460482 4.26823 0
M  V30 1617 C 153.662 -0.290881 5.32907 0
M  V30 1618 O 153.885 -1.51885 5.49806 0
M  V30 1619 O 152.819 0.351732 6.00871 0
M  V30 1620 H 156.645 1.16718 2.80376 0
M  V30 1621 H 154.23 0.634285 1.35267 0
M  V30 1622 H 156.112 -0.905343 4.1156 0
M  V30 1623 H 154.787 -1.27106 2.97701 0
M  V30 1624 H 153.694 0.956207 3.61673 0
M  V30 1625 H 155.027 1.23903 4.7635 0
M  V30 1626 N 156.679 -1.44442 0.630414 0
M  V30 1627 C 157.612 -2.27862 -0.124247 0
M  V30 1628 C 158.59 -1.38495 -0.851931 0
M  V30 1629 O 159.774 -1.67935 -0.856166 0
M  V30 1630 C 156.901 -3.17407 -1.18197 0
M  V30 1631 C 155.947 -4.22875 -0.554892 0
M  V30 1632 S 156.78 -5.31485 0.654489 0
M  V30 1633 C 157.936 -6.246 -0.40326 0
M  V30 1634 H 158.169 -2.91519 0.583435 0
M  V30 1635 H 155.702 -1.48618 0.418565 0
M  V30 1636 H 157.66 -3.69549 -1.78728 0
M  V30 1637 H 156.321 -2.52971 -1.86184 0
M  V30 1638 H 155.514 -4.85542 -1.35148 0
M  V30 1639 H 155.116 -3.73992 -0.0242105 0
M  V30 1640 H 157.408 -6.65375 -1.27602 0
M  V30 1641 H 158.351 -7.07851 0.187813 0
M  V30 1642 H 158.759 -5.59775 -0.728837 0
M  V30 1643 N 158.157 -0.370918 -1.53173 0
M  V30 1644 C 159.406 0.218249 -2.00516 0
M  V30 1645 C 159.719 1.49429 -1.26215 0
M  V30 1646 O 160.925 2.16239 -1.64174 0
M  V30 1647 C 159.381 0.43948 -3.57207 0
M  V30 1648 C 158.989 -0.822244 -4.4039 0
M  V30 1649 C 160.733 0.986012 -4.1289 0
M  V30 1650 C 158.64 -0.570304 -5.88644 0
M  V30 1651 H 157.57 0.0853333 -0.749156 0
M  V30 1652 H 160.221 -0.490483 -1.76823 0
M  V30 1653 H 158.603 1.20961 -3.77074 0
M  V30 1654 H 159.777 -1.59557 -4.32294 0
M  V30 1655 H 158.092 -1.29238 -3.95836 0
M  V30 1656 H 160.689 1.18991 -5.21292 0
M  V30 1657 H 161.032 1.94972 -3.6782 0
M  V30 1658 H 161.565 0.27592 -3.96842 0
M  V30 1659 H 158.304 -1.50449 -6.38001 0
M  V30 1660 H 157.824 0.164427 -5.99575 0
M  V30 1661 H 159.503 -0.19784 -6.46697 0
M  V30 1662 N 159.635 1.57281 -0.100228 0
M  V30 1663 C 160.582 2.14305 0.856858 0
M  V30 1664 C 161.552 1.06296 1.27634 0
M  V30 1665 O 162.737 1.34109 1.35718 0
M  V30 1666 C 159.877 2.73184 2.10866 0
M  V30 1667 C 158.99 3.95442 1.73925 0
M  V30 1668 C 158.125 4.42468 2.93931 0
M  V30 1669 C 157.164 5.57303 2.5314 0
M  V30 1670 N 156.301 5.99158 3.65997 0
M  V30 1671 H 161.141 2.95772 0.363726 0
M  V30 1672 H 158.678 1.46139 0.167858 0
M  V30 1673 H 160.636 3.05442 2.84185 0
M  V30 1674 H 159.266 1.94437 2.57671 0
M  V30 1675 H 158.318 3.69464 0.905554 0
M  V30 1676 H 159.63 4.78769 1.39935 0
M  V30 1677 H 158.784 4.76537 3.75496 0
M  V30 1678 H 157.523 3.58052 3.31134 0
M  V30 1679 H 156.528 5.22857 1.70003 0
M  V30 1680 H 157.753 6.43471 2.17075 0
M  V30 1681 H 155.699 5.17687 4.02909 0
M  V30 1682 H 155.616 6.77295 3.35869 0
M  V30 1683 H 156.884 6.3786 4.48057 0
M  V30 1684 N 161.113 -0.173488 1.56642 0
M  V30 1685 C 162.076 -1.19859 1.95362 0
M  V30 1686 C 163.076 -1.37296 0.83704 0
M  V30 1687 O 164.266 -1.34739 1.10413 0
M  V30 1688 C 161.398 -2.56405 2.24654 0
M  V30 1689 H 162.591 -0.867062 2.87092 0
M  V30 1690 H 160.144 -0.415853 1.50666 0
M  V30 1691 H 160.879 -2.94576 1.35631 0
M  V30 1692 H 160.664 -2.45115 3.06041 0
M  V30 1693 H 162.154 -3.30287 2.5554 0
M  V30 1694 N 162.591 -1.51276 -0.441967 0
M  V30 1695 C 163.839 -1.63392 -1.18943 0
M  V30 1696 C 164.16 -0.350159 -1.9183 0
M  V30 1697 O 163.43 0.633784 -1.85364 0
M  V30 1698 H 162.01 -0.602164 -0.442049 0
M  V30 1699 H 164.672 -1.88186 -0.507165 0
M  V30 1700 H 163.768 -2.45934 -1.92154 0
M  V30 1701 N 164.069 0.697108 -1.41344 0
M  V30 1702 C 165.002 1.82134 -1.37486 0
M  V30 1703 C 165.98 1.60784 -0.242351 0
M  V30 1704 O 167.164 1.83553 -0.429012 0
M  V30 1705 C 164.291 3.18788 -1.14421 0
M  V30 1706 C 163.337 3.58932 -2.3037 0
M  V30 1707 S 164.17 3.63916 -3.92843 0
M  V30 1708 C 165.326 5.03298 -3.72078 0
M  V30 1709 H 165.559 1.85129 -2.32625 0
M  V30 1710 H 163.092 0.865671 -1.2785 0
M  V30 1711 H 165.05 3.97677 -1.018 0
M  V30 1712 H 163.711 3.13404 -0.20905 0
M  V30 1713 H 162.904 4.58202 -2.09922 0
M  V30 1714 H 162.506 2.87347 -2.39391 0
M  V30 1715 H 164.798 5.90753 -3.31688 0
M  V30 1716 H 165.741 5.28788 -4.70945 0
M  V30 1717 H 166.149 4.74764 -3.05384 0
M  V30 1718 N 165.547 1.27147 0.931209 0
M  V30 1719 C 166.495 1.09398 2.05268 0
M  V30 1720 C 167.489 0.0180591 1.6939 0
M  V30 1721 O 168.695 0.17551 1.79142 0
M  V30 1722 H 165.07 0.336986 0.672268 0
M  V30 1723 H 167.041 2.04416 2.17386 0
M  V30 1724 C 165.79 0.75424 3.39421 0
M  V30 1725 H 165.113 1.57404 3.67511 0
M  V30 1726 H 166.553 0.669903 4.18674 0
M  V30 1727 C 165.012 -0.541197 3.32525 0
M  V30 1728 O 165.542 -1.57664 3.69466 0
M  V30 1729 N 163.748 -0.535517 2.85623 0
M  V30 1730 H 163.295 0.307511 2.55758 0
M  V30 1731 H 163.253 -1.40236 2.81392 0
M  V30 1732 N 167.025 -1.13721 1.09112 0
M  V30 1733 C 168.274 -1.84275 0.82009 0
M  V30 1734 C 168.587 -1.84253 -0.656509 0
M  V30 1735 O 169.793 -2.50668 -1.04296 0
M  V30 1736 C 168.249 -3.30825 1.41714 0
M  V30 1737 C 167.857 -3.39244 2.92605 0
M  V30 1738 C 169.601 -4.06443 1.22492 0
M  V30 1739 C 167.508 -4.80047 3.45411 0
M  V30 1740 H 166.438 -0.690387 0.30312 0
M  V30 1741 H 169.089 -1.28146 1.31343 0
M  V30 1742 H 167.471 -3.86737 0.851498 0
M  V30 1743 H 168.645 -2.93344 3.55367 0
M  V30 1744 H 166.96 -2.77088 3.10823 0
M  V30 1745 H 169.557 -5.10387 1.59402 0
M  V30 1746 H 169.9 -4.15972 0.165299 0
M  V30 1747 H 170.433 -3.56852 1.75788 0
M  V30 1748 H 167.172 -4.75709 4.50978 0
M  V30 1749 H 166.692 -5.26455 2.87411 0
M  V30 1750 H 168.371 -5.48957 3.42425 0
M  V30 1751 N 168.503 -0.877838 -1.30888 0
M  V30 1752 C 169.466 -0.344265 -2.266 0
M  V30 1753 C 170.466 0.50922 -1.52524 0
M  V30 1754 O 171.656 0.317398 -1.71284 0
M  V30 1755 C 168.788 0.510198 -3.37061 0
M  V30 1756 H 169.981 -1.1893 -2.7531 0
M  V30 1757 H 167.534 -0.654088 -1.41956 0
M  V30 1758 H 168.269 1.37612 -2.93655 0
M  V30 1759 H 168.054 -0.101047 -3.9197 0
M  V30 1760 H 169.544 0.875537 -4.08319 0
M  V30 1761 N 169.982 1.44106 -0.638065 0
M  V30 1762 C 171.398 1.56672 -0.304286 0
M  V30 1763 C 171.598 1.6244 1.19228 0
M  V30 1764 O 170.654 1.57121 1.9766 0
M  V30 1765 C 171.967 2.83503 -1.00231 0
M  V30 1766 C 173.515 2.97226 -0.981116 0
M  V30 1767 C 173.99 4.26868 -1.65974 0
M  V30 1768 N 175.481 4.33698 -1.62666 0
M  V30 1769 C 176.216 5.32745 -2.12063 0
M  V30 1770 N 175.712 6.38157 -2.6968 0
M  V30 1771 N 177.505 5.24299 -2.02651 0
M  V30 1772 H 169.656 1.38605 -1.60942 0
M  V30 1773 H 171.919 0.664661 -0.675965 0
M  V30 1774 H 171.625 2.85251 -2.0573 0
M  V30 1775 H 171.499 3.73251 -0.54439 0
M  V30 1776 H 173.886 2.95027 0.0654188 0
M  V30 1777 H 173.967 2.08808 -1.47759 0
M  V30 1778 H 173.611 4.29826 -2.70576 0
M  V30 1779 H 173.541 5.14156 -1.13804 0
M  V30 1780 H 176.032 3.58138 -1.20606 0
M  V30 1781 H 176.345 7.10029 -3.05087 0
M  V30 1782 H 174.69 6.38823 -2.73734 0
M  V30 1783 H 177.881 4.4086 -1.57353 0
M  V30 1784 H 178.054 6.01334 -2.41457 0
M  V30 1785 N 171.46 0.379036 1.52974 0
M  V30 1786 C 172.39 -0.452706 2.29069 0
M  V30 1787 C 173.371 -1.07237 1.32039 0
M  V30 1788 O 174.556 -1.08708 1.60923 0
M  V30 1789 C 171.686 -1.5856 3.08992 0
M  V30 1790 C 170.64 -1.0925 4.13822 0
M  V30 1791 C 169.966 -2.31668 4.81907 0
M  V30 1792 C 171.266 -0.167702 5.22031 0
M  V30 1793 H 172.96 0.182181 2.98845 0
M  V30 1794 H 170.506 0.0890592 1.43724 0
M  V30 1795 H 172.459 -2.1742 3.6098 0
M  V30 1796 H 171.183 -2.24792 2.36931 0
M  V30 1797 H 169.842 -0.526494 3.628 0
M  V30 1798 H 169.49 -2.96386 4.06404 0
M  V30 1799 H 169.19 -1.9934 5.52754 0
M  V30 1800 H 170.714 -2.91189 5.36695 0
M  V30 1801 H 172.128 -0.664186 5.6944 0
M  V30 1802 H 170.525 0.0653265 6.00064 0
M  V30 1803 H 171.595 0.786347 4.78482 0
M  V30 1804 N 172.938 -1.57226 0.108567 0
M  V30 1805 C 173.886 -2.16002 -0.862885 0
M  V30 1806 C 174.88 -1.10644 -1.28274 0
M  V30 1807 O 176.086 -1.28966 -1.2557 0
M  V30 1808 H 172.461 -0.691148 -0.296342 0
M  V30 1809 H 174.432 -2.96427 -0.342575 0
M  V30 1810 C 173.181 -2.76576 -2.10716 0
M  V30 1811 H 172.504 -3.5734 -1.793 0
M  V30 1812 H 173.944 -3.21253 -2.76717 0
M  V30 1813 C 172.403 -1.73137 -2.89007 0
M  V30 1814 O 172.933 -1.17842 -3.84026 0
M  V30 1815 N 171.139 -1.43317 -2.52801 0
M  V30 1816 H 170.686 -1.88473 -1.75601 0
M  V30 1817 H 170.644 -0.743485 -3.05483 0
M  V30 1818 N 174.416 0.165178 -1.56732 0
M  V30 1819 C 175.663 0.880807 -1.8234 0
M  V30 1820 C 175.991 1.81977 -0.686621 0
M  V30 1821 O 175.246 1.92971 0.325697 0
M  V30 1822 C 175.545 1.70405 -3.1416 0
M  V30 1823 C 175.211 0.913475 -4.4155 0
M  V30 1824 C 173.873 0.695303 -4.7615 0
M  V30 1825 C 176.225 0.359349 -5.1996 0
M  V30 1826 C 173.553 -0.0879947 -5.86634 0
M  V30 1827 C 175.905 -0.410893 -6.31264 0
M  V30 1828 C 174.569 -0.639808 -6.64427 0
M  V30 1829 H 173.839 0.32231 -0.667231 0
M  V30 1830 H 176.486 0.145402 -1.90947 0
M  V30 1831 H 174.791 2.50903 -3.00923 0
M  V30 1832 H 176.488 2.26091 -3.31186 0
M  V30 1833 H 173.078 1.09357 -4.14414 0
M  V30 1834 H 177.262 0.515228 -4.93618 0
M  V30 1835 H 172.518 -0.27503 -6.10781 0
M  V30 1836 H 176.692 -0.847494 -6.91224 0
M  V30 1837 H 174.319 -1.24864 -7.49875 0
M  V30 1838 N 175.894 1.51508 0.433938 0
M  V30 1839 C 177.119 1.68443 1.21003 0
M  V30 1840 C 177.544 0.382636 1.84167 0
M  V30 1841 O 176.902 -0.65755 1.68956 0
M  V30 1842 C 176.95 2.80405 2.26727 0
M  V30 1843 O 176.054 2.44245 3.32292 0
M  V30 1844 H 175.395 0.561536 0.354363 0
M  V30 1845 H 177.925 1.9809 0.512024 0
M  V30 1846 H 177.935 3.0459 2.71457 0
M  V30 1847 H 176.61 3.74867 1.80132 0
M  V30 1848 H 175.187 2.30644 2.93015 0
M  V30 1849 N 177.372 -0.689602 1.41712 0
M  V30 1850 C 178.322 -1.79571 1.40493 0
M  V30 1851 C 179.306 -1.58473 0.278409 0
M  V30 1852 O 180.498 -1.69204 0.519532 0
M  V30 1853 C 177.627 -3.17923 1.29536 0
M  V30 1854 C 176.713 -3.44695 2.47075 0
M  V30 1855 N 177.104 -3.42132 3.72531 0
M  V30 1856 C 175.402 -3.75269 2.41017 0
M  V30 1857 C 176.103 -3.67976 4.50521 0
M  V30 1858 N 175.079 -3.88014 3.80718 0
M  V30 1859 H 178.881 -1.75961 2.35404 0
M  V30 1860 H 176.395 -0.889839 1.35851 0
M  V30 1861 H 178.392 -3.97167 1.26745 0
M  V30 1862 H 177.052 -3.22741 0.356153 0
M  V30 1863 H 178.063 -3.22375 4.05333 0
M  V30 1864 H 174.74 -3.87421 1.55599 0
M  V30 1865 H 176.13 -3.7208 5.59469 0
M  V30 1866 N 178.85 -1.27639 -0.924453 0
M  V30 1867 C 180.098 -1.13941 -1.66918 0
M  V30 1868 C 180.419 0.314589 -1.92446 0
M  V30 1869 O 179.689 1.21964 -1.53303 0
M  V30 1870 H 178.269 -0.418678 -0.618642 0
M  V30 1871 H 180.931 -1.60213 -1.10985 0
M  V30 1872 H 180.027 -1.67094 -2.63602 0
M  V30 1873 N 180.328 1.1314 -1.09713 0
M  V30 1874 C 181.553 1.88862 -0.857081 0
M  V30 1875 C 181.978 1.78729 0.586304 0
M  V30 1876 O 181.336 1.13692 1.41222 0
M  V30 1877 C 181.384 3.36325 -1.30069 0
M  V30 1878 O 180.488 4.09815 -0.461007 0
M  V30 1879 H 179.829 0.587108 -0.310162 0
M  V30 1880 H 182.359 1.43129 -1.46203 0
M  V30 1881 H 182.369 3.87157 -1.28738 0
M  V30 1882 H 181.044 3.43017 -2.35185 0
M  V30 1883 H 179.621 3.68986 -0.538888 0
M  V30 1884 N 181.806 0.884767 1.30421 0
M  V30 1885 C 182.756 0.322846 2.25703 0
M  V30 1886 C 183.74 -0.548582 1.51259 0
M  V30 1887 O 184.932 -0.39304 1.72581 0
M  V30 1888 C 182.061 -0.461787 3.4018 0
M  V30 1889 C 181.147 0.423717 4.21978 0
M  V30 1890 N 181.538 1.52408 4.82292 0
M  V30 1891 C 179.836 0.218795 4.45463 0
M  V30 1892 C 180.537 2.07136 5.43571 0
M  V30 1893 N 179.513 1.36635 5.26148 0
M  V30 1894 H 183.315 1.16363 2.69883 0
M  V30 1895 H 180.829 0.73415 1.44859 0
M  V30 1896 H 182.826 -0.880985 4.07485 0
M  V30 1897 H 181.486 -1.30001 2.9754 0
M  V30 1898 H 182.497 1.90693 4.81515 0
M  V30 1899 H 179.174 -0.582275 4.1342 0
M  V30 1900 H 180.564 2.99538 6.01437 0
M  V30 1901 N 183.284 -1.43765 0.645699 0
M  V30 1902 C 184.194 -2.34544 -0.0512957 0
M  V30 1903 C 185.21 -1.53455 -0.82022 0
M  V30 1904 O 186.386 -1.86133 -0.769176 0
M  V30 1905 C 183.451 -3.31636 -1.01087 0
M  V30 1906 C 182.512 -4.2863 -0.239712 0
M  V30 1907 C 181.745 -5.21084 -1.15358 0
M  V30 1908 O 181.968 -5.1779 -2.39269 0
M  V30 1909 O 180.902 -5.98593 -0.630038 0
M  V30 1910 H 184.728 -2.95624 0.695718 0
M  V30 1911 H 182.313 -1.43781 0.405882 0
M  V30 1912 H 184.195 -3.9136 -1.56254 0
M  V30 1913 H 182.87 -2.73069 -1.73824 0
M  V30 1914 H 181.777 -3.72408 0.355356 0
M  V30 1915 H 183.11 -4.90157 0.447936 0
M  V30 1916 N 184.763 -0.387143 -1.52771 0
M  V30 1917 C 185.993 0.195585 -2.05672 0
M  V30 1918 C 186.401 1.41241 -1.25887 0
M  V30 1919 O 185.744 1.81265 -0.298081 0
M  V30 1920 C 185.806 0.632327 -3.53895 0
M  V30 1921 C 185.47 -0.470739 -4.54569 0
M  V30 1922 C 186.467 -1.32746 -5.02667 0
M  V30 1923 C 184.152 -0.637151 -4.98243 0
M  V30 1924 C 186.146 -2.33574 -5.93061 0
M  V30 1925 C 183.833 -1.64877 -5.88438 0
M  V30 1926 C 184.831 -2.49649 -6.35739 0
M  V30 1927 O 184.519 -3.49082 -7.24153 0
M  V30 1928 H 184.251 0.033658 -0.675162 0
M  V30 1929 H 186.805 -0.550221 -1.97893 0
M  V30 1930 H 185.035 1.43008 -3.59285 0
M  V30 1931 H 186.724 1.14048 -3.89548 0
M  V30 1932 H 187.49 -1.21019 -4.69659 0
M  V30 1933 H 183.369 0.0129567 -4.60998 0
M  V30 1934 H 186.913 -2.99777 -6.29904 0
M  V30 1935 H 182.81 -1.76643 -6.2086 0
M  V30 1936 H 183.578 -3.45065 -7.42208 0
M  V30 1937 N 186.241 1.57166 -0.116904 0
M  V30 1938 C 187.191 2.11756 0.845178 0
M  V30 1939 C 188.175 1.03783 1.22955 0
M  V30 1940 O 189.367 1.3002 1.20099 0
M  V30 1941 C 186.496 2.71886 2.09602 0
M  V30 1942 C 185.582 3.86937 1.7361 0
M  V30 1943 N 185.973 4.94073 1.08284 0
M  V30 1944 C 184.271 3.97082 2.03082 0
M  V30 1945 C 184.972 5.74477 0.913855 0
M  V30 1946 N 183.948 5.2423 1.43818 0
M  V30 1947 H 187.75 2.91967 0.336523 0
M  V30 1948 H 185.264 1.62174 0.0856332 0
M  V30 1949 H 187.261 3.09338 2.79492 0
M  V30 1950 H 185.921 1.93138 2.61013 0
M  V30 1951 H 186.932 5.12483 0.747067 0
M  V30 1952 H 183.609 3.29372 2.56554 0
M  V30 1953 H 184.999 6.70701 0.40125 0
M  V30 1954 N 187.719 -0.156864 1.56817 0
M  V30 1955 C 188.682 -1.17781 1.96622 0
M  V30 1956 C 189.682 -1.36401 0.851555 0
M  V30 1957 O 190.872 -1.33561 1.11836 0
M  V30 1958 C 188.004 -2.54008 2.27361 0
M  V30 1959 H 189.197 -0.836564 2.87996 0
M  V30 1960 H 186.75 -0.39985 1.51099 0
M  V30 1961 H 187.485 -2.9312 1.38748 0
M  V30 1962 H 187.27 -2.41856 3.08623 0
M  V30 1963 H 188.76 -3.27558 2.59029 0
M  V30 1964 N 189.197 -1.51736 -0.425897 0
M  V30 1965 C 190.107 -1.76738 -1.54275 0
M  V30 1966 C 191.123 -0.65211 -1.61318 0
M  V30 1967 O 192.299 -0.935654 -1.78346 0
M  V30 1968 C 189.364 -1.89755 -2.90162 0
M  V30 1969 C 188.425 -3.13633 -2.93143 0
M  V30 1970 C 187.658 -3.2602 -4.22548 0
M  V30 1971 O 187.881 -2.44067 -5.15546 0
M  V30 1972 O 186.815 -4.19071 -4.32046 0
M  V30 1973 H 190.641 -2.71502 -1.36089 0
M  V30 1974 H 188.226 -1.36376 -0.610069 0
M  V30 1975 H 190.108 -2.00236 -3.70788 0
M  V30 1976 H 188.783 -0.981785 -3.08452 0
M  V30 1977 H 187.69 -3.08622 -2.11431 0
M  V30 1978 H 189.023 -4.04936 -2.798 0
M  V30 1979 N 190.675 0.682077 -1.42076 0
M  V30 1980 C 191.9 1.47558 -1.45744 0
M  V30 1981 C 192.325 1.87977 -0.0680981 0
M  V30 1982 O 191.683 1.55522 0.9318 0
M  V30 1983 C 191.731 2.70575 -2.38373 0
M  V30 1984 O 190.835 3.68573 -1.85007 0
M  V30 1985 H 190.176 0.443585 -0.494093 0
M  V30 1986 H 192.706 0.837238 -1.86686 0
M  V30 1987 H 192.716 3.18729 -2.54707 0
M  V30 1988 H 191.391 2.40495 -3.39315 0
M  V30 1989 H 189.968 3.2757 -1.78192 0
M  V30 1990 N 192.153 1.28127 0.917671 0
M  V30 1991 C 193.402 1.14432 1.66097 0
M  V30 1992 C 193.715 -0.307247 1.93172 0
M  V30 1993 O 194.921 -0.565259 2.65551 0
M  V30 1994 C 193.377 2.00015 2.99202 0
M  V30 1995 C 192.985 3.49889 2.79789 0
M  V30 1996 C 194.729 1.94996 3.77064 0
M  V30 1997 C 192.636 4.27636 4.08511 0
M  V30 1998 H 191.566 0.424662 0.62304 0
M  V30 1999 H 194.217 1.52628 1.01868 0
M  V30 2000 H 192.599 1.54672 3.64544 0
M  V30 2001 H 193.773 4.03162 2.23152 0
M  V30 2002 H 192.088 3.56392 2.15345 0
M  V30 2003 H 194.685 2.50354 4.72469 0
M  V30 2004 H 195.028 0.925819 4.05875 0
M  V30 2005 H 195.561 2.38287 3.18534 0
M  V30 2006 H 192.3 5.30615 3.84874 0
M  V30 2007 H 191.82 3.79137 4.64774 0
M  V30 2008 H 193.499 4.37346 4.76799 0
M  V30 2009 N 193.631 -1.12557 1.10312 0
M  V30 2010 C 194.594 -2.16434 0.75424 0
M  V30 2011 C 195.594 -1.59278 -0.220685 0
M  V30 2012 O 196.784 -1.742 0.00230591 0
M  V30 2013 C 193.916 -3.40699 0.116987 0
M  V30 2014 H 195.109 -2.48811 1.67431 0
M  V30 2015 H 192.662 -1.27542 0.903475 0
M  V30 2016 H 193.397 -3.13921 -0.813877 0
M  V30 2017 H 193.182 -3.83459 0.818613 0
M  V30 2018 H 194.672 -4.17451 -0.111387 0
M  V30 2019 N 195.109 -0.891671 -1.2995 0
M  V30 2020 C 196.057 -0.353066 -2.29905 0
M  V30 2021 C 197.051 0.543509 -1.60444 0
M  V30 2022 O 198.257 0.4272 -1.74857 0
M  V30 2023 H 194.632 -0.095531 -0.745907 0
M  V30 2024 H 196.603 -1.20961 -2.72784 0
M  V30 2025 C 195.352 0.411475 -3.45257 0
M  V30 2026 H 194.675 -0.269182 -3.98893 0
M  V30 2027 H 196.115 0.753328 -4.17254 0
M  V30 2028 C 194.574 1.6111 -2.9588 0
M  V30 2029 O 195.104 2.71045 -2.96475 0
M  V30 2030 N 193.31 1.45054 -2.51809 0
M  V30 2031 H 192.857 0.556175 -2.51524 0
M  V30 2032 H 192.815 2.25453 -2.1913 0
M  V30 2033 N 196.587 1.43421 -0.653314 0
M  V30 2034 C 197.833 2.02111 -0.166992 0
M  V30 2035 C 198.166 1.51423 1.21592 0
M  V30 2036 O 197.441 0.707389 1.8118 0
M  V30 2037 C 197.724 3.5966 -0.177948 0
M  V30 2038 C 197.577 4.20579 -1.59478 0
M  V30 2039 C 198.896 4.37413 0.4856 0
M  V30 2040 H 196.015 0.734374 -0.0621557 0
M  V30 2041 H 198.657 1.70717 -0.834016 0
M  V30 2042 H 196.807 3.86537 0.390032 0
M  V30 2043 H 198.479 4.04732 -2.21336 0
M  V30 2044 H 196.722 3.77226 -2.14204 0
M  V30 2045 H 197.393 5.29665 -1.5543 0
M  V30 2046 H 199.869 4.161 0.00234528 0
M  V30 2047 H 198.745 5.47075 0.447207 0
M  V30 2048 H 199.006 4.13672 1.55974 0
M  V30 2049 N 198.065 0.39524 1.52563 0
M  V30 2050 C 199.481 0.0454682 1.59535 0
M  V30 2051 C 199.681 -1.44056 1.4089 0
M  V30 2052 O 198.737 -2.20579 1.22888 0
M  V30 2053 C 200.05 0.527963 2.96029 0
M  V30 2054 C 201.598 0.484733 3.09224 0
M  V30 2055 C 202.073 0.943512 4.48176 0
M  V30 2056 N 203.564 0.899765 4.54377 0
M  V30 2057 C 204.299 1.22609 5.60138 0
M  V30 2058 N 203.795 1.62319 6.73516 0
M  V30 2059 N 205.588 1.14696 5.50274 0
M  V30 2060 H 197.739 1.36261 1.62931 0
M  V30 2061 H 200.002 0.558887 0.765735 0
M  V30 2062 H 199.708 1.56607 3.14908 0
M  V30 2063 H 199.582 -0.0698056 3.77135 0
M  V30 2064 H 201.969 -0.544298 2.90037 0
M  V30 2065 H 202.05 1.11838 2.30056 0
M  V30 2066 H 201.694 1.9708 4.68104 0
M  V30 2067 H 201.624 0.286817 5.25818 0
M  V30 2068 H 204.115 0.607632 3.72983 0
M  V30 2069 H 204.428 1.85567 7.5019 0
M  V30 2070 H 202.773 1.66211 6.74833 0
M  V30 2071 H 205.964 0.835701 4.6058 0
M  V30 2072 H 206.137 1.40459 6.32594 0
M  V30 2073 N 199.544 -1.57102 0.125237 0
M  V30 2074 C 200.454 -2.19191 -0.8362 0
M  V30 2075 C 201.47 -1.16985 -1.28805 0
M  V30 2076 O 202.646 -1.49479 -1.34974 0
M  V30 2077 C 199.711 -2.78407 -2.06617 0
M  V30 2078 C 198.772 -3.9567 -1.66565 0
M  V30 2079 C 198.005 -4.52052 -2.83698 0
M  V30 2080 O 198.228 -4.07326 -3.99302 0
M  V30 2081 O 197.162 -5.42645 -2.60423 0
M  V30 2082 H 200.988 -3.01816 -0.337776 0
M  V30 2083 H 198.573 -1.4906 -0.100695 0
M  V30 2084 H 200.455 -3.16129 -2.7864 0
M  V30 2085 H 199.13 -1.9881 -2.55453 0
M  V30 2086 H 198.037 -3.62705 -0.916296 0
M  V30 2087 H 199.37 -4.76722 -1.22464 0
M  V30 2088 N 201.022 0.148545 -1.56898 0
M  V30 2089 C 201.985 1.16736 -1.97244 0
M  V30 2090 C 202.985 1.35947 -0.858777 0
M  V30 2091 O 204.175 1.32966 -1.12542 0
M  V30 2092 C 201.307 2.52798 -2.28705 0
M  V30 2093 H 202.5 0.821279 -2.88435 0
M  V30 2094 H 200.053 0.391831 -1.51309 0
M  V30 2095 H 200.788 2.92381 -1.403 0
M  V30 2096 H 200.573 2.40216 -3.09901 0
M  V30 2097 H 202.063 3.26179 -2.60762 0
M  V30 2098 N 202.5 1.5196 0.417844 0
M  V30 2099 C 203.746 1.65836 1.16732 0
M  V30 2100 C 204.079 0.382881 1.90388 0
M  V30 2101 O 203.354 -0.618368 1.84408 0
M  V30 2102 C 203.637 2.87466 2.16876 0
M  V30 2103 C 203.49 4.25041 1.47174 0
M  V30 2104 C 204.809 3.04613 3.17646 0
M  V30 2105 H 201.928 0.603515 0.423011 0
M  V30 2106 H 204.57 1.84494 0.454105 0
M  V30 2107 H 202.72 2.71689 2.777 0
M  V30 2108 H 204.392 4.52527 0.895376 0
M  V30 2109 H 202.635 4.26843 0.773806 0
M  V30 2110 H 203.306 5.06176 2.20204 0
M  V30 2111 H 205.782 3.1923 2.66892 0
M  V30 2112 H 204.658 3.91247 3.8499 0
M  V30 2113 H 204.919 2.17541 3.84874 0
M  V30 2114 N 203.978 -0.674533 1.42435 0
M  V30 2115 C 204.888 -1.81751 1.48337 0
M  V30 2116 C 205.904 -1.69975 0.372099 0
M  V30 2117 O 207.08 -1.91521 0.62304 0
M  V30 2118 C 204.145 -3.17895 1.38361 0
M  V30 2119 C 203.206 -3.41625 2.59982 0
M  V30 2120 C 202.439 -4.71274 2.50473 0
M  V30 2121 O 202.662 -5.49197 1.54075 0
M  V30 2122 O 201.596 -4.96254 3.4061 0
M  V30 2123 H 205.422 -1.79728 2.44809 0
M  V30 2124 H 203.007 -0.830312 1.24202 0
M  V30 2125 H 204.889 -3.99136 1.35161 0
M  V30 2126 H 203.564 -3.20555 0.450144 0
M  V30 2127 H 202.471 -2.60231 2.68757 0
M  V30 2128 H 203.804 -3.43796 3.52229 0
M  V30 2129 N 205.456 -1.28612 -0.910864 0
M  V30 2130 C 206.681 -1.1891 -1.69927 0
M  V30 2131 C 207.106 0.248372 -1.86453 0
M  V30 2132 O 206.464 1.17961 -1.37676 0
M  V30 2133 C 206.512 -1.89578 -3.06745 0
M  V30 2134 O 205.616 -1.20521 -3.94396 0
M  V30 2135 H 204.957 -0.412632 -0.520222 0
M  V30 2136 H 207.487 -1.69985 -1.1387 0
M  V30 2137 H 207.497 -1.97597 -3.56958 0
M  V30 2138 H 206.172 -2.94136 -2.94035 0
M  V30 2139 H 204.749 -1.20684 -3.52831 0
M  V30 2140 N 206.934 1.1197 -1.10907 0
M  V30 2141 C 208.181 1.83588 -0.854507 0
M  V30 2142 C 208.509 1.84357 0.6199 0
M  V30 2143 O 207.764 1.28809 1.47332 0
M  V30 2144 C 208.063 3.30749 -1.35425 0
M  V30 2145 C 207.729 3.50146 -2.84093 0
M  V30 2146 C 206.391 3.55148 -3.2469 0
M  V30 2147 C 208.743 3.56857 -3.79872 0
M  V30 2148 C 206.071 3.6441 -4.59806 0
M  V30 2149 C 208.423 3.6765 -5.14797 0
M  V30 2150 C 207.087 3.7091 -5.54961 0
M  V30 2151 H 206.357 0.671795 -0.312686 0
M  V30 2152 H 209.004 1.32091 -1.38652 0
M  V30 2153 H 207.309 3.84703 -0.742361 0
M  V30 2154 H 209.006 3.8464 -1.1337 0
M  V30 2155 H 205.596 3.46919 -2.51685 0
M  V30 2156 H 209.78 3.52258 -3.49611 0
M  V30 2157 H 205.036 3.65208 -4.9034 0
M  V30 2158 H 209.21 3.71786 -5.88853 0
M  V30 2159 H 206.837 3.7784 -6.59652 0
M  V30 2160 N 208.412 0.89855 1.29475 0
M  V30 2161 C 209.375 0.380272 2.26023 0
M  V30 2162 C 210.375 -0.484891 1.53315 0
M  V30 2163 O 211.565 -0.290108 1.71767 0
M  V30 2164 C 208.697 -0.45651 3.3783 0
M  V30 2165 H 209.89 1.23295 2.73383 0
M  V30 2166 H 207.443 0.676589 1.40897 0
M  V30 2167 H 208.178 -1.32922 2.95808 0
M  V30 2168 H 207.963 0.163393 3.91759 0
M  V30 2169 H 209.453 -0.810466 4.0966 0
M  V30 2170 N 209.89 -1.43072 0.660911 0
M  V30 2171 C 211.138 -2.01323 0.177094 0
M  V30 2172 C 211.459 -1.5245 -1.2159 0
M  V30 2173 O 210.729 -0.740322 -1.81373 0
M  V30 2174 H 209.309 -0.744382 0.0624804 0
M  V30 2175 H 211.971 -1.75179 0.854305 0
M  V30 2176 H 211.067 -3.11649 0.167641 0
M  V30 2177 N 211.368 -0.403325 -1.52352 0
M  V30 2178 C 212.593 0.176499 -2.06648 0
M  V30 2179 C 213.018 1.38577 -1.27193 0
M  V30 2180 O 212.376 1.7879 -0.300637 0
M  V30 2181 C 212.424 0.511061 -3.5696 0
M  V30 2182 O 211.528 1.60294 -3.79973 0
M  V30 2183 H 210.869 0.0167337 -0.663789 0
M  V30 2184 H 213.399 -0.574848 -1.96359 0
M  V30 2185 H 213.409 0.771362 -4.00642 0
M  V30 2186 H 212.084 -0.37296 -4.14224 0
M  V30 2187 H 210.661 1.33526 -3.48174 0
M  V30 2188 N 212.846 1.57033 -0.133567 0
M  V30 2189 C 214.257 1.82593 0.389464 0
M  V30 2190 C 214.608 1.05156 1.6564 0
M  V30 2191 O 213.733 0.292644 2.14412 0
M  V30 2192 C 214.328 3.31204 0.713377 0
M  V30 2193 C 212.887 3.57393 1.18098 0
M  V30 2194 C 212.034 2.76598 0.197126 0
M  V30 2195 H 214.985 1.54598 -0.358481 0
M  V30 2196 H 215.006 3.46627 1.56939 0
M  V30 2197 H 214.518 3.87537 -0.2089 0
M  V30 2198 H 212.619 3.06433 2.11966 0
M  V30 2199 H 212.732 4.65915 1.11624 0
M  V30 2200 H 211.096 2.45257 0.687088 0
M  V30 2201 H 211.879 3.35697 -0.718504 0
M  V30 2202 N 214.325 -0.140222 1.56975 0
M  V30 2203 C 215.255 -1.17456 2.01808 0
M  V30 2204 C 216.236 -1.44415 0.898794 0
M  V30 2205 O 217.421 -1.5522 1.16707 0
M  V30 2206 C 214.551 -2.50607 2.40444 0
M  V30 2207 C 213.505 -2.38155 3.55621 0
M  V30 2208 C 212.831 -3.76078 3.80091 0
M  V30 2209 C 214.131 -1.85991 4.88062 0
M  V30 2210 H 215.825 -0.801743 2.88466 0
M  V30 2211 H 213.371 -0.38422 1.38779 0
M  V30 2212 H 215.324 -3.23197 2.7041 0
M  V30 2213 H 214.048 -2.89737 1.50732 0
M  V30 2214 H 212.707 -1.68016 3.25832 0
M  V30 2215 H 212.355 -4.12656 2.87618 0
M  V30 2216 H 212.055 -3.68606 4.57606 0
M  V30 2217 H 213.579 -4.50206 4.12488 0
M  V30 2218 H 214.993 -2.4838 5.16701 0
M  V30 2219 H 213.39 -1.89393 5.6943 0
M  V30 2220 H 214.46 -0.816023 4.77984 0
M  V30 2221 N 215.803 -1.52179 -0.40978 0
M  V30 2222 C 217.028 -1.70347 -1.18308 0
M  V30 2223 C 217.453 -0.411887 -1.83535 0
M  V30 2224 O 216.811 0.630587 -1.6998 0
M  V30 2225 C 216.859 -2.83977 -2.22238 0
M  V30 2226 O 215.963 -2.495 -3.28365 0
M  V30 2227 H 215.304 -0.567103 -0.345384 0
M  V30 2228 H 217.834 -1.98879 -0.480445 0
M  V30 2229 H 217.844 -3.0887 -2.66577 0
M  V30 2230 H 216.519 -3.77685 -1.74146 0
M  V30 2231 H 215.096 -2.35277 -2.89308 0
M  V30 2232 N 217.281 0.66697 -1.42791 0
M  V30 2233 C 218.511 1.45294 -1.46878 0
M  V30 2234 C 218.919 1.89027 -0.0809861 0
M  V30 2235 O 218.262 1.59219 0.916246 0
M  V30 2236 C 218.324 2.72908 -2.34012 0
M  V30 2237 C 217.988 2.51203 -3.81767 0
M  V30 2238 C 218.985 2.15302 -4.73224 0
M  V30 2239 C 216.67 2.65954 -4.26115 0
M  V30 2240 C 218.664 1.94431 -6.07022 0
M  V30 2241 C 216.351 2.44699 -5.59969 0
M  V30 2242 C 217.349 2.08992 -6.5024 0
M  V30 2243 O 217.037 1.87948 -7.81621 0
M  V30 2244 H 216.769 0.453306 -0.501487 0
M  V30 2245 H 219.323 0.826232 -1.88049 0
M  V30 2246 H 217.553 3.38089 -1.87703 0
M  V30 2247 H 219.242 3.34816 -2.29462 0
M  V30 2248 H 220.008 2.03495 -4.40244 0
M  V30 2249 H 215.887 2.92724 -3.56137 0
M  V30 2250 H 219.431 1.66484 -6.77443 0
M  V30 2251 H 215.328 2.56105 -5.9252 0
M  V30 2252 H 216.096 2.02483 -7.93059 0
M  V30 2253 N 218.759 1.29093 0.90403 0
M  V30 2254 C 220.175 1.07011 1.1841 0
M  V30 2255 C 220.375 -0.181358 2.00682 0
M  V30 2256 O 219.431 -0.880331 2.36657 0
M  V30 2257 C 220.744 2.32311 1.90924 0
M  V30 2258 C 222.292 2.37587 2.03768 0
M  V30 2259 C 222.767 3.62679 2.79693 0
M  V30 2260 N 224.258 3.63376 2.87249 0
M  V30 2261 C 224.993 4.56848 3.46522 0
M  V30 2262 N 224.489 5.60648 4.06996 0
M  V30 2263 N 226.282 4.44426 3.44154 0
M  V30 2264 H 218.433 2.09412 0.354993 0
M  V30 2265 H 220.696 0.922181 0.219742 0
M  V30 2266 H 220.402 3.23536 1.37905 0
M  V30 2267 H 220.276 2.39483 2.91424 0
M  V30 2268 H 222.663 1.46853 2.55965 0
M  V30 2269 H 222.744 2.34403 1.02415 0
M  V30 2270 H 222.388 4.53762 2.28173 0
M  V30 2271 H 222.318 3.63119 3.81381 0
M  V30 2272 H 224.809 2.88321 2.44293 0
M  V30 2273 H 225.122 6.28101 4.50232 0
M  V30 2274 H 223.467 5.64463 4.05471 0
M  V30 2275 H 226.658 3.62529 2.96126 0
M  V30 2276 H 226.831 5.17457 3.90054 0
M  V30 2277 N 220.237 -1.11381 1.11499 0
M  V30 2278 C 221.648 -1.6465 0.880191 0
M  V30 2279 C 221.999 -1.87199 -0.587434 0
M  V30 2280 O 221.124 -1.60667 -1.44966 0
M  V30 2281 C 221.719 -2.99105 1.59128 0
M  V30 2282 C 220.278 -3.49279 1.40289 0
M  V30 2283 C 219.425 -2.24077 1.63354 0
M  V30 2284 H 222.376 -0.950123 1.27116 0
M  V30 2285 H 222.397 -3.66107 1.03664 0
M  V30 2286 H 221.909 -2.82661 2.65941 0
M  V30 2287 H 220.01 -3.70887 0.356888 0
M  V30 2288 H 220.123 -4.2803 2.15238 0
M  V30 2289 H 218.487 -2.31733 1.05698 0
M  V30 2290 H 219.27 -2.10175 2.71443 0
M  V30 2291 N 221.715 -0.905404 -1.28997 0
M  V30 2292 C 222.961 -0.535039 -1.95615 0
M  V30 2293 C 223.294 0.917404 -1.71165 0
M  V30 2294 O 222.569 1.65123 -1.02785 0
M  V30 2295 C 222.852 -0.834918 -3.50287 0
M  V30 2296 C 222.705 -2.33948 -3.84172 0
M  V30 2297 C 224.024 -0.325318 -4.38896 0
M  V30 2298 H 221.143 -0.195861 -0.710498 0
M  V30 2299 H 223.785 -1.13313 -1.52513 0
M  V30 2300 H 221.935 -0.325904 -3.87131 0
M  V30 2301 H 223.607 -2.91847 -3.57243 0
M  V30 2302 H 221.85 -2.79789 -3.31513 0
M  V30 2303 H 222.521 -2.49987 -4.92149 0
M  V30 2304 H 224.997 -0.761256 -4.09077 0
M  V30 2305 H 223.873 -0.564295 -5.45992 0
M  V30 2306 H 224.134 0.774144 -4.35269 0
M  V30 2307 N 223.193 1.4272 -0.668489 0
M  V30 2308 C 224.156 2.292 0.00448567 0
M  V30 2309 C 225.156 1.43001 0.735339 0
M  V30 2310 O 226.346 1.64461 0.57429 0
M  V30 2311 C 223.478 3.25375 1.01705 0
M  V30 2312 H 224.671 2.90199 -0.756608 0
M  V30 2313 H 222.224 1.50254 -0.430506 0
M  V30 2314 H 222.959 2.69301 1.80686 0
M  V30 2315 H 222.744 3.88944 0.496463 0
M  V30 2316 H 224.234 3.90245 1.48655 0
M  V30 2317 N 224.671 0.411399 1.52136 0
M  V30 2318 C 225.92 -0.165009 2.01024 0
M  V30 2319 C 226.233 -1.4603 1.30133 0
M  V30 2320 O 227.439 -2.1181 1.69849 0
M  V30 2321 C 225.895 -0.344618 3.58246 0
M  V30 2322 C 225.503 0.938716 4.38055 0
M  V30 2323 C 227.247 -0.876195 4.15359 0
M  V30 2324 C 225.154 0.726172 5.86925 0
M  V30 2325 H 224.084 -0.0654407 0.751155 0
M  V30 2326 H 226.735 0.537192 1.75461 0
M  V30 2327 H 225.117 -1.10921 3.80148 0
M  V30 2328 H 226.291 1.70963 4.27912 0
M  V30 2329 H 224.606 1.39688 3.92271 0
M  V30 2330 H 227.203 -1.05128 5.24263 0
M  V30 2331 H 227.546 -1.85152 3.7286 0
M  V30 2332 H 228.079 -0.170607 3.97434 0
M  V30 2333 H 224.818 1.67312 6.33788 0
M  V30 2334 H 224.338 -0.00540283 5.998 0
M  V30 2335 H 226.017 0.369231 6.45946 0
M  V30 2336 N 226.149 -1.5696 0.141893 0
M  V30 2337 C 227.112 -2.15316 -0.785587 0
M  V30 2338 C 228.112 -1.09366 -1.1788 0
M  V30 2339 O 229.302 -1.35031 -1.10056 0
M  V30 2340 C 226.434 -2.71211 -2.06537 0
M  V30 2341 H 227.627 -2.98608 -0.278041 0
M  V30 2342 H 225.18 -1.5593 -0.107519 0
M  V30 2343 H 225.915 -1.91571 -2.6167 0
M  V30 2344 H 225.7 -3.4872 -1.79268 0
M  V30 2345 H 227.19 -3.16189 -2.72789 0
M  V30 2346 N 227.627 0.131896 -1.57047 0
M  V30 2347 C 228.557 1.16384 -2.02428 0
M  V30 2348 C 229.538 1.43936 -0.90644 0
M  V30 2349 O 230.723 1.54599 -1.17528 0
M  V30 2350 C 227.853 2.49328 -2.4177 0
M  V30 2351 C 226.807 2.36266 -3.56879 0
M  V30 2352 C 226.133 3.74057 -3.8208 0
M  V30 2353 C 227.433 1.834 -4.89042 0
M  V30 2354 H 229.127 0.786433 -2.88887 0
M  V30 2355 H 226.673 0.376855 -1.38981 0
M  V30 2356 H 228.626 3.21759 -2.7212 0
M  V30 2357 H 227.35 2.88934 -1.52266 0
M  V30 2358 H 226.009 1.66286 -3.26718 0
M  V30 2359 H 225.657 4.11125 -2.89803 0
M  V30 2360 H 225.357 3.66174 -4.59554 0
M  V30 2361 H 226.881 4.48012 -4.1487 0
M  V30 2362 H 228.295 2.45636 -5.18011 0
M  V30 2363 H 226.692 1.8637 -5.70426 0
M  V30 2364 H 227.762 0.790662 -4.7841 0
M  V30 2365 N 229.106 1.52395 0.401703 0
M  V30 2366 C 230.383 1.57387 1.16141 0
M  V30 2367 C 230.763 0.359359 2.08019 0
M  V30 2368 O 230.111 -0.65326 2.18963 0
M  V30 2369 C 230.321 2.90631 1.93221 0
M  V30 2370 C 231.669 3.43904 2.49028 0
M  V30 2371 O 232.693 2.92421 2.03393 0
M  V30 2372 O 231.552 4.33823 3.32356 0
M  V30 2373 H 228.646 0.634262 0.530698 0
M  V30 2374 H 231.192 1.64725 0.407883 0
M  V30 2375 H 229.964 3.70473 1.25958 0
M  V30 2376 H 229.587 2.8662 2.75563 0
M  V30 2377 N 230.584 -0.659388 1.43143 0
M  V30 2378 C 231.812 -1.44723 1.47861 0
M  V30 2379 C 232.227 -1.88563 0.0945886 0
M  V30 2380 O 231.584 -1.59108 -0.893915 0
M  V30 2381 C 231.635 -2.68627 2.41913 0
M  V30 2382 O 231.356 -2.26623 3.74932 0
M  V30 2383 C 232.857 -3.62045 2.55809 0
M  V30 2384 H 230.077 -0.444801 0.502387 0
M  V30 2385 H 232.621 -0.808916 1.87821 0
M  V30 2386 H 230.776 -3.28613 2.05164 0
M  V30 2387 H 231.19 -3.06745 4.2545 0
M  V30 2388 H 232.664 -4.45666 3.25708 0
M  V30 2389 H 233.141 -4.08981 1.60099 0
M  V30 2390 H 233.747 -3.07944 2.93344 0
M  V30 2391 N 232.062 -1.29571 -0.897171 0
M  V30 2392 C 233.009 -1.14916 -2.00158 0
M  V30 2393 C 233.979 -0.0418149 -1.66047 0
M  V30 2394 O 235.164 -0.209793 -1.89643 0
M  V30 2395 C 232.304 -0.834307 -3.34863 0
M  V30 2396 C 231.417 -2.02234 -3.8174 0
M  V30 2397 C 230.552 -1.64664 -5.05034 0
M  V30 2398 C 229.591 -2.80033 -5.44286 0
M  V30 2399 N 228.728 -2.42843 -6.58765 0
M  V30 2400 H 233.568 -2.09403 -2.12025 0
M  V30 2401 H 231.105 -1.042 -1.0383 0
M  V30 2402 H 233.063 -0.632436 -4.12379 0
M  V30 2403 H 231.693 0.0736656 -3.22716 0
M  V30 2404 H 230.745 -2.33583 -3.00238 0
M  V30 2405 H 232.057 -2.88673 -4.06779 0
M  V30 2406 H 231.211 -1.4078 -5.9014 0
M  V30 2407 H 229.95 -0.753766 -4.8184 0
M  V30 2408 H 228.955 -3.04596 -4.57713 0
M  V30 2409 H 230.18 -3.69989 -5.6946 0
M  V30 2410 H 228.126 -1.56046 -6.3717 0
M  V30 2411 H 228.043 -3.22815 -6.83613 0
M  V30 2412 H 229.311 -2.22285 -7.47134 0
M  V30 2413 N 233.54 1.10788 -1.12088 0
M  V30 2414 C 234.788 1.8231 -0.872205 0
M  V30 2415 C 235.109 1.85419 0.603709 0
M  V30 2416 O 234.379 1.32963 1.43867 0
M  V30 2417 H 232.959 0.675137 -0.319686 0
M  V30 2418 H 235.621 1.34068 -1.41463 0
M  V30 2419 H 234.717 2.85955 -1.25045 0
M  V30 2420 N 235.018 0.912232 1.28515 0
M  V30 2421 C 236.429 0.591352 1.77087 0
M  V30 2422 C 236.78 -0.8933 1.74684 0
M  V30 2423 O 235.905 -1.69876 1.34056 0
M  V30 2424 C 236.5 1.06668 3.2157 0
M  V30 2425 C 235.059 0.79675 3.67871 0
M  V30 2426 C 234.206 1.23427 2.48316 0
M  V30 2427 H 237.157 1.09365 1.15 0
M  V30 2428 H 237.178 0.407455 3.78312 0
M  V30 2429 H 236.69 2.14726 3.23287 0
M  V30 2430 H 234.791 -0.270679 3.71616 0
M  V30 2431 H 234.904 1.40343 4.58084 0
M  V30 2432 H 233.268 0.653036 2.46186 0
M  V30 2433 H 234.051 2.32316 2.52753 0
M  V30 2434 N 236.496 -1.42363 0.676048 0
M  V30 2435 C 237.406 -2.346 -0.00153389 0
M  V30 2436 C 238.422 -1.5516 -0.787485 0
M  V30 2437 O 239.598 -1.87723 -0.729521 0
M  V30 2438 C 236.663 -3.33705 -0.940298 0
M  V30 2439 C 235.724 -4.29042 -0.148739 0
M  V30 2440 C 234.957 -5.23413 -1.04279 0
M  V30 2441 O 235.18 -5.22749 -2.28232 0
M  V30 2442 O 234.114 -5.99795 -0.502925 0
M  V30 2443 H 237.94 -2.94082 0.758268 0
M  V30 2444 H 235.525 -1.42888 0.436289 0
M  V30 2445 H 237.407 -3.94586 -1.47917 0
M  V30 2446 H 236.082 -2.76695 -1.67993 0
M  V30 2447 H 234.989 -3.71571 0.43427 0
M  V30 2448 H 236.322 -4.89097 0.551805 0
M  V30 2449 N 237.974 -0.419461 -1.51915 0
M  V30 2450 C 239.223 0.154346 -2.01109 0
M  V30 2451 C 239.536 1.45338 -1.30905 0
M  V30 2452 O 240.742 2.10906 -1.7097 0
M  V30 2453 C 239.198 0.325615 -3.58424 0
M  V30 2454 C 238.806 -0.961934 -4.37551 0
M  V30 2455 C 240.55 0.854155 -4.15818 0
M  V30 2456 C 238.457 -0.757287 -5.86531 0
M  V30 2457 H 237.387 0.0614563 -0.751491 0
M  V30 2458 H 240.038 -0.54649 -1.75173 0
M  V30 2459 H 238.42 1.08903 -3.80731 0
M  V30 2460 H 239.594 -1.7323 -4.26999 0
M  V30 2461 H 237.909 -1.41766 -3.91524 0
M  V30 2462 H 240.506 1.02346 -5.24814 0
M  V30 2463 H 240.849 1.83172 -3.73837 0
M  V30 2464 H 241.382 0.149528 -3.97519 0
M  V30 2465 H 238.121 -1.70671 -6.32892 0
M  V30 2466 H 237.641 -0.0264061 -5.99794 0
M  V30 2467 H 239.32 -0.403482 -6.45741 0
M  V30 2468 N 239.452 1.56882 -0.150215 0
M  V30 2469 C 240.868 1.58263 0.20617 0
M  V30 2470 C 241.068 1.16464 1.64434 0
M  V30 2471 O 240.124 0.866422 2.3717 0
M  V30 2472 C 241.437 3.00649 -0.0555025 0
M  V30 2473 C 242.985 3.12999 0.00795388 0
M  V30 2474 C 243.46 4.5744 -0.226429 0
M  V30 2475 N 244.951 4.62875 -0.173469 0
M  V30 2476 C 245.686 5.72454 -0.329288 0
M  V30 2477 N 245.182 6.90669 -0.543005 0
M  V30 2478 N 246.975 5.61467 -0.266666 0
M  V30 2479 H 239.126 1.82345 -1.08922 0
M  V30 2480 H 241.389 0.844149 -0.431413 0
M  V30 2481 H 241.095 3.3563 -1.05096 0
M  V30 2482 H 240.969 3.71337 0.66246 0
M  V30 2483 H 243.356 2.77857 0.993966 0
M  V30 2484 H 243.437 2.4479 -0.742388 0
M  V30 2485 H 243.081 4.93287 -1.20956 0
M  V30 2486 H 243.011 5.2378 0.544274 0
M  V30 2487 H 245.502 3.77898 -0.0130709 0
M  V30 2488 H 245.815 7.70045 -0.651922 0
M  V30 2489 H 244.16 6.92581 -0.579366 0
M  V30 2490 H 247.351 4.67992 -0.100441 0
M  V30 2491 H 247.524 6.46816 -0.391535 0
M  V30 2492 N 240.93 -0.123565 1.57115 0
M  V30 2493 C 242.158 -0.846461 1.88793 0
M  V30 2494 C 242.573 -1.73652 0.740976 0
M  V30 2495 O 241.93 -1.80207 -0.288393 0
M  V30 2496 C 241.981 -1.6837 3.19897 0
M  V30 2497 O 241.702 -0.829477 4.30176 0
M  V30 2498 C 243.203 -2.51214 3.65248 0
M  V30 2499 H 240.423 -0.243573 0.625231 0
M  V30 2500 H 242.967 -0.109324 2.04208 0
M  V30 2501 H 241.122 -2.37364 3.06165 0
M  V30 2502 H 241.536 -1.40651 5.0529 0
M  V30 2503 H 243.01 -3.05497 4.59756 0
M  V30 2504 H 243.487 -3.28359 2.9168 0
M  V30 2505 H 244.093 -1.8747 3.81752 0
M  V30 2506 N 242.408 -1.52605 -0.393616 0
M  V30 2507 C 243.656 -1.67093 -1.13685 0
M  V30 2508 C 243.977 -0.411011 -1.90619 0
M  V30 2509 O 243.247 0.574491 -1.87287 0
M  V30 2510 H 241.827 -0.615923 -0.422668 0
M  V30 2511 H 244.489 -1.89704 -0.447039 0
M  V30 2512 H 243.585 -2.51922 -1.84232 0
M  V30 2513 N 243.887 0.651787 -1.4349 0
M  V30 2514 C 245.136 1.40754 -1.44469 0
M  V30 2515 C 245.449 1.95463 -0.0731845 0
M  V30 2516 O 246.655 2.71471 0.0395721 0
M  V30 2517 C 245.111 2.54735 -2.5424 0
M  V30 2518 C 244.719 2.06628 -3.97504 0
M  V30 2519 C 246.463 3.32092 -2.64414 0
M  V30 2520 C 244.37 3.17829 -4.98737 0
M  V30 2521 H 243.3 0.528862 -0.53742 0
M  V30 2522 H 245.951 0.703365 -1.69485 0
M  V30 2523 H 244.333 3.2763 -2.22428 0
M  V30 2524 H 245.507 1.40734 -4.38783 0
M  V30 2525 H 243.822 1.42146 -3.91387 0
M  V30 2526 H 246.419 4.14952 -3.37223 0
M  V30 2527 H 246.762 3.80217 -1.69532 0
M  V30 2528 H 247.295 2.66279 -2.95534 0
M  V30 2529 H 244.034 2.74671 -5.95177 0
M  V30 2530 H 243.554 3.82429 -4.62069 0
M  V30 2531 H 245.233 3.82937 -5.21505 0
M  V30 2532 N 245.365 1.30045 0.890287 0
M  V30 2533 C 246.295 1.18541 2.01172 0
M  V30 2534 C 247.276 0.0773356 1.69924 0
M  V30 2535 O 248.461 0.25845 1.92473 0
M  V30 2536 C 245.591 0.870941 3.36202 0
M  V30 2537 C 244.545 1.93637 3.81692 0
M  V30 2538 C 243.871 1.475 5.13953 0
M  V30 2539 C 245.171 3.34666 4.00994 0
M  V30 2540 H 246.865 2.12359 2.11054 0
M  V30 2541 H 244.411 1.02238 1.01407 0
M  V30 2542 H 246.364 0.777141 4.14172 0
M  V30 2543 H 245.088 -0.102926 3.26438 0
M  V30 2544 H 243.747 2.01972 3.05946 0
M  V30 2545 H 243.395 0.489551 5.00612 0
M  V30 2546 H 243.095 2.1876 5.4536 0
M  V30 2547 H 244.619 1.39489 5.94454 0
M  V30 2548 H 246.033 3.2912 4.69417 0
M  V30 2549 H 244.43 4.03966 4.43769 0
M  V30 2550 H 245.5 3.76949 3.05021 0
M  V30 2551 N 246.843 -1.10192 1.12674 0
M  V30 2552 C 247.775 -2.16418 0.754701 0
M  V30 2553 C 248.788 -1.61309 -0.21986 0
M  V30 2554 O 249.977 -1.785 -0.000826841 0
M  V30 2555 C 247.077 -3.38762 0.096698 0
M  V30 2556 C 246.25 -4.23307 1.10136 0
M  V30 2557 C 245.309 -5.24092 0.470513 0
M  V30 2558 O 244.335 -5.57906 1.12824 0
M  V30 2559 N 245.537 -5.75491 -0.760948 0
M  V30 2560 H 248.302 -2.48943 1.66875 0
M  V30 2561 H 245.863 -1.25834 1.01869 0
M  V30 2562 H 247.855 -4.03291 -0.337384 0
M  V30 2563 H 246.425 -3.04192 -0.720153 0
M  V30 2564 H 245.645 -3.55036 1.71299 0
M  V30 2565 H 246.933 -4.76624 1.78064 0
M  V30 2566 H 246.331 -5.50222 -1.31424 0
M  V30 2567 H 244.888 -6.41792 -1.13781 0
M  V30 2568 N 248.321 -0.919034 -1.28029 0
M  V30 2569 C 249.569 -0.553838 -1.94363 0
M  V30 2570 C 249.89 0.906357 -1.72656 0
M  V30 2571 O 249.16 1.64143 -1.0693 0
M  V30 2572 H 247.74 -0.201834 -0.719216 0
M  V30 2573 H 250.402 -1.16954 -1.55909 0
M  V30 2574 H 249.498 -0.752758 -3.02886 0
M  V30 2575 N 249.799 1.42003 -0.683588 0
M  V30 2576 C 251.047 2.01015 -0.209101 0
M  V30 2577 C 251.368 1.54365 1.19149 0
M  V30 2578 O 250.638 0.769083 1.80172 0
M  V30 2579 H 249.218 0.743294 -0.074315 0
M  V30 2580 H 251.88 1.73798 -0.882066 0
M  V30 2581 H 250.976 3.11343 -0.2172 0
M  V30 2582 N 251.277 0.427512 1.51691 0
M  V30 2583 C 252.688 -0.0378867 1.86662 0
M  V30 2584 C 253.039 -1.42819 1.34525 0
M  V30 2585 O 252.164 -2.05037 0.692014 0
M  V30 2586 C 252.759 -0.0755266 3.38716 0
M  V30 2587 C 251.318 -0.485309 3.73258 0
M  V30 2588 C 250.465 0.328399 2.75349 0
M  V30 2589 H 253.416 0.64379 1.45055 0
M  V30 2590 H 253.437 -0.887056 3.70016 0
M  V30 2591 H 252.949 0.936487 3.76632 0
M  V30 2592 H 251.05 -1.50329 3.40928 0
M  V30 2593 H 251.163 -0.21693 4.78609 0
M  V30 2594 H 249.527 -0.211905 2.53817 0
M  V30 2595 H 250.31 1.3391 3.16106 0
M  V30 2596 N 252.755 -1.56801 0.158532 0
M  V30 2597 C 253.665 -2.20916 -0.789518 0
M  V30 2598 C 254.681 -1.1969 -1.26294 0
M  V30 2599 O 255.857 -1.52308 -1.31773 0
M  V30 2600 C 252.922 -2.82727 -2.00665 0
M  V30 2601 C 251.983 -3.99114 -1.58134 0
M  V30 2602 C 251.216 -4.57968 -2.74045 0
M  V30 2603 O 251.439 -4.15704 -3.90572 0
M  V30 2604 O 250.373 -5.48047 -2.48855 0
M  V30 2605 H 254.199 -3.02464 -0.273681 0
M  V30 2606 H 251.784 -1.4924 -0.0690548 0
M  V30 2607 H 253.666 -3.21968 -2.71872 0
M  V30 2608 H 252.341 -2.04184 -2.51179 0
M  V30 2609 H 251.248 -3.64567 -0.839155 0
M  V30 2610 H 252.581 -4.79212 -1.12325 0
M  V30 2611 N 254.233 0.115231 -1.57178 0
M  V30 2612 C 255.458 0.840354 -1.89612 0
M  V30 2613 C 255.883 1.72464 -0.750845 0
M  V30 2614 O 255.241 1.78826 0.298478 0
M  V30 2615 C 255.289 1.64654 -3.20814 0
M  V30 2616 O 254.393 2.7538 -3.06985 0
M  V30 2617 H 253.734 0.232158 -0.622092 0
M  V30 2618 H 256.264 0.0964977 -2.04372 0
M  V30 2619 H 256.274 2.03499 -3.53627 0
M  V30 2620 H 254.949 0.997416 -4.03763 0
M  V30 2621 H 253.526 2.3971 -2.85646 0
M  V30 2622 N 255.711 1.52812 0.385517 0
M  V30 2623 C 256.621 1.80766 1.49535 0
M  V30 2624 C 257.637 0.694651 1.59532 0
M  V30 2625 O 258.813 0.982611 1.75803 0
M  V30 2626 C 255.878 1.97381 2.85029 0
M  V30 2627 C 254.939 3.21295 2.84724 0
M  V30 2628 C 254.172 3.37108 4.13756 0
M  V30 2629 O 254.395 2.5765 5.08893 0
M  V30 2630 O 253.329 4.30378 4.20783 0
M  V30 2631 H 257.155 2.75015 1.28842 0
M  V30 2632 H 254.74 1.37946 0.573697 0
M  V30 2633 H 256.622 2.09996 3.65349 0
M  V30 2634 H 255.297 1.06322 3.05741 0
M  V30 2635 H 254.204 3.1412 2.03174 0
M  V30 2636 H 255.537 4.12212 2.68965 0
M  V30 2637 N 257.189 -0.644168 1.43834 0
M  V30 2638 C 258.435 -1.40603 1.46146 0
M  V30 2639 C 258.768 -1.93997 0.0887717 0
M  V30 2640 O 258.043 -1.72854 -0.891724 0
M  V30 2641 C 258.326 -2.58086 2.51124 0
M  V30 2642 C 258.179 -2.10126 3.97702 0
M  V30 2643 C 259.498 -3.60291 2.52742 0
M  V30 2644 H 256.617 -0.509905 0.532134 0
M  V30 2645 H 259.259 -0.729502 1.75437 0
M  V30 2646 H 257.409 -3.15801 2.26278 0
M  V30 2647 H 259.081 -1.57342 4.33637 0
M  V30 2648 H 257.324 -1.41419 4.10101 0
M  V30 2649 H 257.995 -2.94649 4.66783 0
M  V30 2650 H 260.471 -3.12352 2.7491 0
M  V30 2651 H 259.347 -4.40032 3.28121 0
M  V30 2652 H 259.608 -4.1349 1.56455 0
M  V30 2653 N 258.668 -1.30515 -0.883378 0
M  V30 2654 C 259.578 -1.18959 -2.02203 0
M  V30 2655 C 260.594 -0.109172 -1.73657 0
M  V30 2656 O 261.77 -0.324413 -1.9877 0
M  V30 2657 C 258.835 -0.883871 -3.35244 0
M  V30 2658 C 257.896 -2.04982 -3.77201 0
M  V30 2659 C 257.129 -1.75859 -5.03894 0
M  V30 2660 O 257.352 -0.687276 -5.66244 0
M  V30 2661 O 256.286 -2.61146 -5.42297 0
M  V30 2662 H 260.112 -2.14616 -2.1488 0
M  V30 2663 H 257.697 -1.10124 -1.0096 0
M  V30 2664 H 259.579 -0.728644 -4.15053 0
M  V30 2665 H 258.254 0.0427798 -3.23672 0
M  V30 2666 H 257.161 -2.26038 -2.9809 0
M  V30 2667 H 258.494 -2.95825 -3.93381 0
M  V30 2668 N 260.146 1.09593 -1.13257 0
M  V30 2669 C 261.076 2.18214 -0.830946 0
M  V30 2670 C 262.057 1.68812 0.208966 0
M  V30 2671 O 263.242 1.9408 0.0682666 0
M  V30 2672 C 260.372 3.46051 -0.294296 0
M  V30 2673 C 259.326 4.08778 -1.26826 0
M  V30 2674 C 258.652 5.31419 -0.591449 0
M  V30 2675 C 259.952 4.51476 -2.62615 0
M  V30 2676 H 261.646 2.43703 -1.73923 0
M  V30 2677 H 259.192 1.17128 -0.837675 0
M  V30 2678 H 261.145 4.2134 -0.0709606 0
M  V30 2679 H 259.869 3.20079 0.649366 0
M  V30 2680 H 258.528 3.35505 -1.47756 0
M  V30 2681 H 258.176 5.01727 0.357633 0
M  V30 2682 H 257.876 5.74341 -1.24123 0
M  V30 2683 H 259.4 6.09433 -0.377355 0
M  V30 2684 H 260.814 5.17999 -2.45663 0
M  V30 2685 H 259.211 5.05277 -3.23752 0
M  V30 2686 H 260.281 3.63962 -3.20406 0
M  V30 2687 N 261.624 0.925811 1.2754 0
M  V30 2688 C 262.87 0.566092 1.94739 0
M  V30 2689 C 263.203 -0.890057 1.72603 0
M  V30 2690 O 262.478 -1.63467 1.05399 0
M  V30 2691 C 262.761 0.89054 3.48915 0
M  V30 2692 C 262.614 2.4003 3.80402 0
M  V30 2693 C 263.933 0.395101 4.38323 0
M  V30 2694 H 261.052 0.20714 0.707292 0
M  V30 2695 H 263.694 1.15725 1.50691 0
M  V30 2696 H 261.844 0.387452 3.86563 0
M  V30 2697 H 263.516 2.97494 3.52555 0
M  V30 2698 H 261.759 2.85028 3.2702 0
M  V30 2699 H 262.43 2.57785 4.8811 0
M  V30 2700 H 264.906 0.826241 4.07814 0
M  V30 2701 H 263.782 0.651086 5.45025 0
M  V30 2702 H 264.043 -0.704798 4.36446 0
M  V30 2703 N 263.102 -1.41638 0.69111 0
M  V30 2704 C 264.049 -2.30789 0.0229705 0
M  V30 2705 C 265.019 -1.46863 -0.775911 0
M  V30 2706 O 266.204 -1.75661 -0.74485 0
M  V30 2707 C 263.344 -3.32868 -0.910666 0
M  V30 2708 C 262.457 -4.31875 -0.103874 0
M  V30 2709 C 261.592 -5.21024 -1.03475 0
M  V30 2710 C 260.631 -6.11702 -0.220598 0
M  V30 2711 N 259.768 -6.93349 -1.10504 0
M  V30 2712 H 264.608 -2.87366 0.788978 0
M  V30 2713 H 262.145 -1.41535 0.400794 0
M  V30 2714 H 264.103 -3.90596 -1.46597 0
M  V30 2715 H 262.733 -2.77851 -1.64312 0
M  V30 2716 H 261.785 -3.76131 0.568285 0
M  V30 2717 H 263.097 -4.96003 0.527504 0
M  V30 2718 H 262.251 -5.83565 -1.65943 0
M  V30 2719 H 260.99 -4.57112 -1.69999 0
M  V30 2720 H 259.995 -5.48215 0.417187 0
M  V30 2721 H 261.22 -6.77668 0.440784 0
M  V30 2722 H 259.166 -6.3205 -1.75638 0
M  V30 2723 H 259.083 -7.54146 -0.529125 0
M  V30 2724 H 260.351 -7.60362 -1.71667 0
M  V30 2725 N 264.58 -0.43555 -1.51462 0
M  V30 2726 C 265.828 0.131254 -2.01673 0
M  V30 2727 C 266.149 1.43368 -1.32177 0
M  V30 2728 O 265.419 1.90524 -0.455769 0
M  V30 2729 H 263.999 0.0514954 -0.745223 0
M  V30 2730 H 266.661 -0.577847 -1.86137 0
M  V30 2731 H 265.757 0.308446 -3.10572 0
M  V30 2732 N 266.058 1.56714 -0.166846 0
M  V30 2733 C 267.283 2.01557 0.488833 0
M  V30 2734 C 267.708 1.0463 1.56314 0
M  V30 2735 O 267.066 0.0251304 1.81283 0
M  V30 2736 C 267.114 3.4503 1.04818 0
M  V30 2737 O 266.218 3.51163 2.16236 0
M  V30 2738 H 265.559 0.653516 0.117526 0
M  V30 2739 H 268.089 2.02818 -0.269421 0
M  V30 2740 H 268.099 3.84243 1.37191 0
M  V30 2741 H 266.774 4.15077 0.261572 0
M  V30 2742 H 265.351 3.23807 1.84942 0
M  V30 2743 N 267.536 -0.106894 1.57237 0
M  V30 2744 C 268.468 -1.15646 1.97885 0
M  V30 2745 C 269.481 -1.36981 0.879779 0
M  V30 2746 O 270.67 -1.35841 1.15799 0
M  V30 2747 C 267.77 -2.51425 2.27241 0
M  V30 2748 C 266.943 -2.50529 3.58545 0
M  V30 2749 C 266.002 -3.68145 3.75973 0
M  V30 2750 O 265.028 -3.51176 4.47956 0
M  V30 2751 N 266.23 -4.87177 3.15656 0
M  V30 2752 H 268.995 -0.81059 2.8853 0
M  V30 2753 H 266.556 -0.296024 1.59171 0
M  V30 2754 H 268.548 -3.28689 2.36105 0
M  V30 2755 H 267.118 -2.78147 1.42663 0
M  V30 2756 H 266.338 -1.58894 3.60758 0
M  V30 2757 H 267.626 -2.46997 4.44826 0
M  V30 2758 H 267.024 -5.03868 2.57165 0
M  V30 2759 H 265.581 -5.62075 3.30023 0
M  V30 2760 N 269.014 -1.53014 -0.377408 0
M  V30 2761 C 270.26 -1.68872 -1.12294 0
M  V30 2762 C 270.593 -0.433224 -1.89306 0
M  V30 2763 O 269.868 0.569258 -1.85983 0
M  V30 2764 C 270.151 -2.93115 -2.09179 0
M  V30 2765 C 270.004 -4.28794 -1.35853 0
M  V30 2766 C 271.323 -3.12928 -3.09458 0
M  V30 2767 H 268.442 -0.614518 -0.406862 0
M  V30 2768 H 271.084 -1.85633 -0.40503 0
M  V30 2769 H 269.234 -2.78956 -2.70399 0
M  V30 2770 H 270.906 -4.54742 -0.775082 0
M  V30 2771 H 269.149 -4.28744 -0.660364 0
M  V30 2772 H 269.82 -5.11837 -2.06706 0
M  V30 2773 H 272.296 -3.26194 -2.58334 0
M  V30 2774 H 271.172 -4.01316 -3.74482 0
M  V30 2775 H 271.433 -2.27669 -3.78971 0
M  V30 2776 N 270.492 0.636531 -1.44174 0
M  V30 2777 C 271.422 1.76003 -1.53444 0
M  V30 2778 C 272.403 1.65619 -0.387841 0
M  V30 2779 O 273.588 1.84461 -0.607257 0
M  V30 2780 C 270.718 3.14511 -1.4731 0
M  V30 2781 C 269.672 3.39677 -2.60391 0
M  V30 2782 C 268.998 4.78159 -2.39308 0
M  V30 2783 C 270.298 3.32772 -4.02567 0
M  V30 2784 H 271.992 1.68501 -2.47483 0
M  V30 2785 H 269.538 0.809237 -1.19111 0
M  V30 2786 H 271.491 3.92878 -1.52397 0
M  V30 2787 H 270.215 3.22783 -0.49785 0
M  V30 2788 H 268.874 2.63688 -2.54684 0
M  V30 2789 H 268.522 4.83128 -1.39988 0
M  V30 2790 H 268.222 4.95956 -3.15122 0
M  V30 2791 H 269.746 5.58762 -2.46205 0
M  V30 2792 H 271.16 4.01051 -4.09672 0
M  V30 2793 H 269.557 3.62104 -4.7854 0
M  V30 2794 H 270.627 2.30669 -4.2652 0
M  V30 2795 N 271.97 1.30982 0.876444 0
M  V30 2796 C 273.216 1.20474 1.63138 0
M  V30 2797 C 273.549 -0.238096 1.92735 0
M  V30 2798 O 272.824 -1.1692 1.55435 0
M  V30 2799 C 273.107 2.04244 2.96574 0
M  V30 2800 C 272.96 3.56793 2.73896 0
M  V30 2801 C 274.279 1.88684 3.97601 0
M  V30 2802 H 271.398 0.439001 0.591985 0
M  V30 2803 H 274.04 1.60704 1.01361 0
M  V30 2804 H 272.19 1.70063 3.493 0
M  V30 2805 H 273.862 4.01077 2.27892 0
M  V30 2806 H 272.105 3.80548 2.08245 0
M  V30 2807 H 272.776 4.10706 3.68815 0
M  V30 2808 H 275.252 2.18584 3.54062 0
M  V30 2809 H 274.128 2.4961 4.88862 0
M  V30 2810 H 274.389 0.848343 4.33884 0
M  V30 2811 N 273.449 -1.08991 1.13837 0
M  V30 2812 C 274.677 -1.85011 0.926202 0
M  V30 2813 C 275.092 -1.8135 -0.525127 0
M  V30 2814 O 274.449 -1.21287 -1.36366 0
M  V30 2815 C 274.5 -3.32802 1.41155 0
M  V30 2816 O 274.221 -3.36444 2.80601 0
M  V30 2817 C 275.722 -4.25649 1.23847 0
M  V30 2818 H 272.942 -0.584249 0.32999 0
M  V30 2819 H 275.486 -1.37688 1.51202 0
M  V30 2820 H 273.641 -3.77536 0.868631 0
M  V30 2821 H 274.055 -4.28657 3.02248 0
M  V30 2822 H 275.529 -5.27485 1.62675 0
M  V30 2823 H 276.006 -4.38828 0.18065 0
M  V30 2824 H 276.612 -3.86735 1.76964 0
M  V30 2825 N 274.927 -0.932562 -1.27047 0
M  V30 2826 C 276.173 -0.576412 -1.94436 0
M  V30 2827 C 276.506 0.880891 -1.73072 0
M  V30 2828 O 275.781 1.62905 -1.06264 0
M  V30 2829 C 276.064 -0.909031 -3.48437 0
M  V30 2830 C 275.917 -2.42044 -3.79123 0
M  V30 2831 C 277.236 -0.418341 -4.38107 0
M  V30 2832 H 274.355 -0.210888 -0.706184 0
M  V30 2833 H 276.997 -1.16522 -1.50075 0
M  V30 2834 H 275.147 -0.407947 -3.86352 0
M  V30 2835 H 276.819 -2.99359 -3.50973 0
M  V30 2836 H 275.062 -2.86758 -3.25503 0
M  V30 2837 H 275.733 -2.6037 -4.86736 0
M  V30 2838 H 278.209 -0.847856 -4.0737 0
M  V30 2839 H 277.085 -0.679981 -5.44672 0
M  V30 2840 H 277.346 0.681642 -4.36814 0
M  V30 2841 N 276.405 1.4127 -0.698611 0
M  V30 2842 C 277.682 1.94955 -0.158762 0
M  V30 2843 C 278.062 1.63781 1.33188 0
M  V30 2844 O 277.41 0.946423 2.07979 0
M  V30 2845 C 277.62 3.46044 -0.453309 0
M  V30 2846 C 278.968 4.22872 -0.382707 0
M  V30 2847 O 279.992 3.54076 -0.388396 0
M  V30 2848 O 278.851 5.45407 -0.345463 0
M  V30 2849 H 275.945 0.82683 -0.0167505 0
M  V30 2850 H 278.491 1.50971 -0.77498 0
M  V30 2851 H 277.263 3.62028 -1.48498 0
M  V30 2852 H 276.886 3.97128 0.19373 0
M  V30 2853 N 277.883 0.443576 1.51229 0
M  V30 2854 C 279.294 -0.0180867 1.86691 0
M  V30 2855 C 279.645 -1.41384 1.36033 0
M  V30 2856 O 278.77 -2.04291 0.713722 0
M  V30 2857 C 279.365 -0.039597 3.38777 0
M  V30 2858 C 277.924 -0.445692 3.73752 0
M  V30 2859 C 277.071 0.357584 2.74985 0
M  V30 2860 H 280.022 0.659138 1.44364 0
M  V30 2861 H 280.043 -0.847761 3.70936 0
M  V30 2862 H 279.555 0.976382 3.75617 0
M  V30 2863 H 277.656 -1.46704 3.42503 0
M  V30 2864 H 277.769 -0.166155 4.78812 0
M  V30 2865 H 276.133 -0.184973 2.54027 0
M  V30 2866 H 276.916 1.37256 3.14668 0
M  V30 2867 N 279.361 -1.56624 0.175154 0
M  V30 2868 C 280.324 -2.16934 -0.739738 0
M  V30 2869 C 281.324 -1.11842 -1.15533 0
M  V30 2870 O 282.514 -1.37335 -1.07167 0
M  V30 2871 C 279.646 -2.75531 -2.00738 0
M  V30 2872 H 280.839 -2.99131 -0.214639 0
M  V30 2873 H 278.392 -1.56123 -0.0744197 0
M  V30 2874 H 279.127 -1.97078 -2.57548 0
M  V30 2875 H 278.912 -3.52444 -1.71831 0
M  V30 2876 H 280.402 -3.21904 -2.66021 0
M  V30 2877 N 280.839 0.0985539 -1.57292 0
M  V30 2878 C 282.086 0.802678 -1.85912 0
M  V30 2879 C 282.414 1.78901 -0.763186 0
M  V30 2880 O 281.669 1.94178 0.243559 0
M  V30 2881 C 281.968 1.56927 -3.21105 0
M  V30 2882 C 281.634 0.725376 -4.45027 0
M  V30 2883 C 280.296 0.492726 -4.78671 0
M  V30 2884 C 282.648 0.138493 -5.21016 0
M  V30 2885 C 279.976 -0.336727 -5.85733 0
M  V30 2886 C 282.328 -0.678264 -6.28953 0
M  V30 2887 C 280.992 -0.921039 -6.61115 0
M  V30 2888 H 280.262 0.293721 -0.680301 0
M  V30 2889 H 282.909 0.0642841 -1.91392 0
M  V30 2890 H 281.214 2.37914 -3.11294 0
M  V30 2891 H 282.911 2.11841 -3.40477 0
M  V30 2892 H 279.501 0.916815 -4.18679 0
M  V30 2893 H 283.685 0.305404 -4.95359 0
M  V30 2894 H 278.941 -0.533836 -6.09065 0
M  V30 2895 H 283.115 -1.1399 -6.87007 0
M  V30 2896 H 280.742 -1.56556 -7.43905 0
M  V30 2897 N 282.317 1.53212 0.369288 0
M  V30 2898 C 283.733 1.42902 0.710712 0
M  V30 2899 C 283.933 0.565135 1.93413 0
M  V30 2900 O 282.989 0.0461484 2.52458 0
M  V30 2901 C 284.302 2.86042 0.927382 0
M  V30 2902 C 285.85 2.9565 1.02762 0
M  V30 2903 C 286.325 4.39843 1.27679 0
M  V30 2904 N 287.816 4.43256 1.34457 0
M  V30 2905 C 288.551 5.51929 1.55439 0
M  V30 2906 N 288.047 6.70655 1.73762 0
M  V30 2907 N 289.84 5.39502 1.57779 0
M  V30 2908 H 281.991 2.07888 -0.435457 0
M  V30 2909 H 284.254 0.938661 -0.132739 0
M  V30 2910 H 283.96 3.51557 0.100287 0
M  V30 2911 H 283.834 3.29472 1.83653 0
M  V30 2912 H 286.221 2.30291 1.84527 0
M  V30 2913 H 286.302 2.5562 0.0959504 0
M  V30 2914 H 285.946 5.05774 0.464175 0
M  V30 2915 H 285.876 4.77443 2.22162 0
M  V30 2916 H 288.367 3.5769 1.21926 0
M  V30 2917 H 288.68 7.49248 1.89335 0
M  V30 2918 H 287.025 6.73648 1.70948 0
M  V30 2919 H 290.216 4.45713 1.43029 0
M  V30 2920 H 290.389 6.2426 1.7379 0
M  V30 2921 N 283.795 -0.628877 1.44509 0
M  V30 2922 C 285.023 -1.41554 1.50897 0
M  V30 2923 C 285.438 -1.8832 0.134564 0
M  V30 2924 O 284.795 -1.60969 -0.859965 0
M  V30 2925 C 284.846 -2.63435 2.47556 0
M  V30 2926 O 284.567 -2.18619 3.79654 0
M  V30 2927 C 286.068 -3.56537 2.63431 0
M  V30 2928 H 283.288 -0.434044 0.511709 0
M  V30 2929 H 285.832 -0.768895 1.89495 0
M  V30 2930 H 283.987 -3.24187 2.12089 0
M  V30 2931 H 284.401 -2.97652 4.31861 0
M  V30 2932 H 285.875 -4.38657 3.35088 0
M  V30 2933 H 286.352 -4.05493 1.68738 0
M  V30 2934 H 286.958 -3.01653 2.9981 0
M  V30 2935 N 285.273 -1.31445 -0.869486 0
M  V30 2936 C 286.689 -1.10113 -1.15531 0
M  V30 2937 C 286.889 0.128087 -2.01092 0
M  V30 2938 O 285.945 0.817276 -2.38908 0
M  V30 2939 C 287.258 -2.37291 -1.84698 0
M  V30 2940 C 288.806 -2.42906 -1.97397 0
M  V30 2941 C 289.281 -3.69967 -2.69979 0
M  V30 2942 N 290.772 -3.70864 -2.77514 0
M  V30 2943 C 291.507 -4.65875 -3.34287 0
M  V30 2944 N 291.003 -5.71242 -3.91988 0
M  V30 2945 N 292.796 -4.53394 -3.3225 0
M  V30 2946 H 284.947 -2.1028 -0.299347 0
M  V30 2947 H 287.21 -0.927683 -0.195214 0
M  V30 2948 H 286.916 -3.27078 -1.29278 0
M  V30 2949 H 286.79 -2.47125 -2.84972 0
M  V30 2950 H 289.177 -1.53588 -2.51982 0
M  V30 2951 H 289.258 -2.37036 -0.961643 0
M  V30 2952 H 288.902 -4.59652 -2.16062 0
M  V30 2953 H 288.832 -3.73103 -3.7162 0
M  V30 2954 H 291.323 -2.94697 -2.36563 0
M  V30 2955 H 291.636 -6.39817 -4.33421 0
M  V30 2956 H 289.981 -5.75015 -3.90362 0
M  V30 2957 H 293.172 -3.70252 -2.8641 0
M  V30 2958 H 293.345 -5.27617 -3.76197 0
M  V30 2959 N 286.751 1.08385 -1.14413 0
M  V30 2960 C 287.999 1.80419 -0.910679 0
M  V30 2961 C 288.32 1.86658 0.564243 0
M  V30 2962 O 287.59 1.35985 1.41014 0
M  V30 2963 H 286.17 0.668204 -0.333934 0
M  V30 2964 H 288.832 1.31037 -1.44275 0
M  V30 2965 H 287.928 2.83238 -1.31082 0
M  V30 2966 N 288.23 0.939286 1.26551 0
M  V30 2967 C 289.178 0.43815 2.28436 0
M  V30 2968 C 290.172 -0.483587 1.62351 0
M  V30 2969 O 291.378 -0.362009 1.76322 0
M  V30 2970 H 287.753 0.123149 0.741848 0
M  V30 2971 H 289.724 1.31002 2.68106 0
M  V30 2972 C 288.473 -0.283052 3.46546 0
M  V30 2973 H 287.796 0.417043 3.97619 0
M  V30 2974 H 289.236 -0.597948 4.19763 0
M  V30 2975 C 287.695 -1.50018 3.01656 0
M  V30 2976 O 288.225 -2.59855 3.0633 0
M  V30 2977 N 286.431 -1.35608 2.57019 0
M  V30 2978 H 285.978 -0.46244 2.53415 0
M  V30 2979 H 285.936 -2.17165 2.27347 0
M  V30 2980 N 289.708 -1.40897 0.706093 0
M  V30 2981 C 290.671 -2.29131 0.0562841 0
M  V30 2982 C 291.671 -1.44901 -0.697166 0
M  V30 2983 O 292.861 -1.65926 -0.530484 0
M  V30 2984 C 289.993 -3.27957 -0.93043 0
M  V30 2985 H 291.186 -2.88091 0.833284 0
M  V30 2986 H 288.739 -1.4906 0.470192 0
M  V30 2987 H 289.474 -2.73997 -1.73482 0
M  V30 2988 H 289.259 -3.90124 -0.393166 0
M  V30 2989 H 290.749 -3.94049 -1.38256 0
M  V30 2990 N 291.186 -0.45159 -1.50991 0
M  V30 2991 C 292.134 0.366864 -2.29689 0
M  V30 2992 C 293.128 1.00809 -1.36139 0
M  V30 2993 O 294.334 0.941427 -1.53418 0
M  V30 2994 H 290.709 0.137133 -0.739391 0
M  V30 2995 H 292.68 -0.317538 -2.96706 0
M  V30 2996 C 291.429 1.44751 -3.16137 0
M  V30 2997 H 290.752 0.963473 -3.88017 0
M  V30 2998 H 292.192 1.99315 -3.74232 0
M  V30 2999 C 290.651 2.43869 -2.32442 0
M  V30 3000 O 291.181 3.4872 -1.99392 0
M  V30 3001 N 289.387 2.15105 -1.95392 0
M  V30 3002 H 288.934 1.29866 -2.22469 0
M  V30 3003 H 288.892 2.81661 -1.39693 0
M  V30 3004 N 292.664 1.56529 -0.183458 0
M  V30 3005 C 293.892 2.01623 0.464285 0
M  V30 3006 C 294.307 1.06366 1.55986 0
M  V30 3007 O 293.664 0.0665398 1.82379 0
M  V30 3008 C 293.715 3.46475 1.03139 0
M  V30 3009 O 293.436 4.38095 -0.0204675 0
M  V30 3010 C 294.937 4.0703 1.75617 0
M  V30 3011 H 292.157 0.660596 0.117704 0
M  V30 3012 H 294.701 2.02451 -0.288751 0
M  V30 3013 H 292.856 3.46383 1.73486 0
M  V30 3014 H 293.27 5.22973 0.399952 0
M  V30 3015 H 294.744 5.10271 2.10542 0
M  V30 3016 H 295.221 3.49819 2.65563 0
M  V30 3017 H 295.827 4.1086 1.09882 0
M  V30 3018 N 294.142 -0.090211 1.57342 0
M  V30 3019 C 295.388 -0.793982 1.86611 0
M  V30 3020 C 295.721 -1.78142 0.773252 0
M  V30 3021 O 294.996 -1.93271 -0.218304 0
M  V30 3022 C 295.279 -1.51839 3.26523 0
M  V30 3023 C 295.132 -0.548609 4.46442 0
M  V30 3024 C 296.451 -2.46779 3.64401 0
M  V30 3025 H 293.57 -0.287186 0.678744 0
M  V30 3026 H 296.212 -0.0575076 1.89913 0
M  V30 3027 H 294.362 -2.14617 3.23839 0
M  V30 3028 H 296.034 0.0725513 4.61243 0
M  V30 3029 H 294.277 0.137614 4.33582 0
M  V30 3030 H 294.948 -1.09271 5.41076 0
M  V30 3031 H 297.424 -1.94089 3.68061 0
M  V30 3032 H 296.3 -2.94479 4.63221 0
M  V30 3033 H 296.561 -3.30758 2.93346 0
M  V30 3034 N 295.62 -1.53406 -0.361157 0
M  V30 3035 C 296.866 -1.70999 -1.1014 0
M  V30 3036 C 297.221 -0.458425 -1.86859 0
M  V30 3037 O 296.514 0.548654 -1.83577 0
M  V30 3038 C 296.708 -2.90211 -2.08596 0
M  V30 3039 C 296.537 -4.26841 -1.41553 0
M  V30 3040 C 295.307 -4.91621 -1.16778 0
M  V30 3041 C 297.505 -5.07212 -0.850915 0
M  V30 3042 N 295.487 -6.12164 -0.461312 0
M  V30 3043 C 296.858 -6.19394 -0.274046 0
M  V30 3044 C 298.913 -4.92218 -0.750036 0
M  V30 3045 C 297.616 -7.18221 0.393868 0
M  V30 3046 C 299.642 -5.91322 -0.095894 0
M  V30 3047 C 299.004 -7.0283 0.470081 0
M  V30 3048 H 295.103 -0.678939 -0.388028 0
M  V30 3049 H 297.687 -1.90811 -0.38722 0
M  V30 3050 H 295.858 -2.71931 -2.77323 0
M  V30 3051 H 297.59 -2.96606 -2.7533 0
M  V30 3052 H 294.345 -4.50849 -1.45024 0
M  V30 3053 H 294.769 -6.76888 -0.123312 0
M  V30 3054 H 299.411 -4.06192 -1.17337 0
M  V30 3055 H 297.129 -8.03835 0.82914 0
M  V30 3056 H 300.715 -5.81797 -0.0187075 0
M  V30 3057 H 299.595 -7.782 0.968241 0
M  V30 3058 N 297.098 0.621204 -1.44841 0
M  V30 3059 C 298.344 1.3826 -1.48365 0
M  V30 3060 C 298.677 1.93831 -0.119624 0
M  V30 3061 O 297.952 1.74251 0.864111 0
M  V30 3062 C 298.235 2.54058 -2.55199 0
M  V30 3063 C 298.088 2.03772 -4.00995 0
M  V30 3064 C 299.407 3.56225 -2.58442 0
M  V30 3065 H 296.526 0.501374 -0.540179 0
M  V30 3066 H 299.168 0.7015 -1.76576 0
M  V30 3067 H 297.318 3.12162 -2.31274 0
M  V30 3068 H 298.99 1.50423 -4.36086 0
M  V30 3069 H 297.233 1.34876 -4.12299 0
M  V30 3070 H 297.904 2.87185 -4.71411 0
M  V30 3071 H 300.38 3.07939 -2.79844 0
M  V30 3072 H 299.256 4.34756 -3.3508 0
M  V30 3073 H 299.517 4.10949 -1.63013 0
M  V30 3074 N 298.576 1.31904 0.862503 0
M  V30 3075 C 299.853 1.12644 1.59908 0
M  V30 3076 C 300.233 -0.316104 2.0872 0
M  V30 3077 O 299.581 -1.31145 1.87118 0
M  V30 3078 C 299.791 2.1472 2.7513 0
M  V30 3079 C 301.139 2.47637 3.44907 0
M  V30 3080 O 302.163 2.13205 2.85346 0
M  V30 3081 O 301.022 3.06632 4.52371 0
M  V30 3082 H 298.116 0.43416 0.703871 0
M  V30 3083 H 300.662 1.43408 0.907314 0
M  V30 3084 H 299.434 3.1172 2.3653 0
M  V30 3085 H 299.057 1.84905 3.51989 0
M  V30 3086 N 300.054 -1.07777 1.14986 0
M  V30 3087 C 301.284 -1.83752 0.944402 0
M  V30 3088 C 301.692 -1.8218 -0.51058 0
M  V30 3089 O 301.035 -1.22852 -1.36576 0
M  V30 3090 C 301.097 -3.32128 1.37592 0
M  V30 3091 C 300.761 -3.57425 2.84775 0
M  V30 3092 C 301.758 -3.5173 3.8286 0
M  V30 3093 C 299.443 -3.8523 3.2234 0
M  V30 3094 C 301.437 -3.73482 5.16517 0
M  V30 3095 C 299.124 -4.06634 4.56171 0
M  V30 3096 C 300.122 -4.00754 5.53069 0
M  V30 3097 O 299.81 -4.2159 6.84483 0
M  V30 3098 H 299.542 -0.58673 0.335744 0
M  V30 3099 H 302.096 -1.36982 1.53052 0
M  V30 3100 H 300.326 -3.79686 0.733165 0
M  V30 3101 H 302.015 -3.89555 1.14024 0
M  V30 3102 H 302.781 -3.30256 3.55184 0
M  V30 3103 H 298.66 -3.88923 2.47508 0
M  V30 3104 H 302.204 -3.68808 5.92137 0
M  V30 3105 H 298.101 -4.27593 4.83564 0
M  V30 3106 H 298.869 -4.38961 6.90837 0
M  V30 3107 N 301.532 -0.945985 -1.26051 0
M  V30 3108 C 302.943 -0.638096 -1.75457 0
M  V30 3109 C 303.294 0.846672 -1.76991 0
M  V30 3110 O 302.419 1.66262 -1.38513 0
M  V30 3111 C 303.014 -1.15157 -3.18629 0
M  V30 3112 C 301.573 -0.894004 -3.65629 0
M  V30 3113 C 300.72 -1.29967 -2.44957 0
M  V30 3114 H 303.671 -1.12376 -1.1206 0
M  V30 3115 H 303.692 -0.507615 -3.77099 0
M  V30 3116 H 303.204 -2.23222 -3.1748 0
M  V30 3117 H 301.305 0.172057 -3.72203 0
M  V30 3118 H 301.418 -1.52439 -4.54202 0
M  V30 3119 H 299.782 -0.718078 -2.44368 0
M  V30 3120 H 300.565 -2.38935 -2.46505 0
M  V30 3121 N 303.011 1.40521 -0.713556 0
M  V30 3122 C 303.959 2.32549 -0.0485227 0
M  V30 3123 C 304.953 1.51931 0.74922 0
M  V30 3124 O 306.159 1.67745 0.652816 0
M  V30 3125 H 302.534 0.751994 0.00311138 0
M  V30 3126 H 304.505 2.86291 -0.841443 0
M  V30 3127 C 303.254 3.36879 0.860687 0
M  V30 3128 H 302.577 3.98978 0.256246 0
M  V30 3129 H 304.017 4.03772 1.294 0
M  V30 3130 C 302.476 2.72197 1.9852 0
M  V30 3131 O 303.006 2.5837 3.07584 0
M  V30 3132 N 301.212 2.30612 1.76823 0
M  V30 3133 H 300.759 2.42059 0.881217 0
M  V30 3134 H 300.717 1.87672 2.52243 0
M  V30 3135 N 304.489 0.459591 1.5075 0
M  V30 3136 C 305.738 -0.100971 2.01447 0
M  V30 3137 C 306.051 -1.41816 1.34713 0
M  V30 3138 O 307.257 -2.06299 1.76502 0
M  V30 3139 C 305.713 -0.23047 3.59161 0
M  V30 3140 C 305.321 1.0776 4.34847 0
M  V30 3141 C 307.065 -0.743608 4.17936 0
M  V30 3142 C 304.972 0.91253 5.84317 0
M  V30 3143 H 303.902 -0.0415102 0.752856 0
M  V30 3144 H 306.553 0.592742 1.73663 0
M  V30 3145 H 304.935 -0.987703 3.83485 0
M  V30 3146 H 306.109 1.8449 4.22256 0
M  V30 3147 H 304.424 1.52097 3.87628 0
M  V30 3148 H 307.021 -0.883959 5.27343 0
M  V30 3149 H 307.364 -1.73196 3.78562 0
M  V30 3150 H 307.897 -0.04408 3.97776 0
M  V30 3151 H 304.636 1.87391 6.28144 0
M  V30 3152 H 304.156 0.185422 5.99513 0
M  V30 3153 H 305.835 0.574547 6.44444 0
M  V30 3154 N 305.967 -1.56429 0.191757 0
M  V30 3155 C 307.213 -1.97777 -0.448554 0
M  V30 3156 C 307.546 -1.07847 -1.61501 0
M  V30 3157 O 306.821 -0.129774 -1.94067 0
M  V30 3158 C 307.104 -3.48362 -0.911906 0
M  V30 3159 C 306.957 -4.4907 0.256136 0
M  V30 3160 C 308.276 -4.02561 -1.77857 0
M  V30 3161 H 305.395 -0.719071 -0.161572 0
M  V30 3162 H 308.037 -1.87896 0.282007 0
M  V30 3163 H 306.187 -3.56914 -1.53442 0
M  V30 3164 H 307.859 -4.5256 0.893733 0
M  V30 3165 H 306.102 -4.24181 0.908436 0
M  V30 3166 H 306.773 -5.51889 -0.11053 0
M  V30 3167 H 309.249 -3.96767 -1.25359 0
M  V30 3168 H 308.125 -5.08301 -2.07174 0
M  V30 3169 H 308.386 -3.47616 -2.73158 0
M  V30 3170 N 307.445 0.0818655 -1.57387 0
M  V30 3171 C 308.861 0.436412 -1.53517 0
M  V30 3172 C 309.061 1.79758 -0.910459 0
M  V30 3173 O 308.117 2.47324 -0.508636 0
M  V30 3174 C 309.43 0.386734 -2.98203 0
M  V30 3175 C 310.978 0.467644 -3.09487 0
M  V30 3176 C 311.453 0.447978 -4.55804 0
M  V30 3177 N 312.944 0.508348 -4.60402 0
M  V30 3178 C 313.679 0.515184 -5.71081 0
M  V30 3179 N 313.175 0.477435 -6.91153 0
M  V30 3180 N 314.968 0.560988 -5.59294 0
M  V30 3181 H 307.119 -0.809546 -1.96367 0
M  V30 3182 H 309.382 -0.302733 -0.898363 0
M  V30 3183 H 309.088 -0.546539 -3.47427 0
M  V30 3184 H 308.962 1.20075 -3.57578 0
M  V30 3185 H 311.349 1.39134 -2.60242 0
M  V30 3186 H 311.43 -0.374753 -2.5304 0
M  V30 3187 H 311.074 -0.471826 -5.05704 0
M  V30 3188 H 311.004 1.30777 -5.10103 0
M  V30 3189 H 313.495 0.54218 -3.7399 0
M  V30 3190 H 313.808 0.486299 -7.71268 0
M  V30 3191 H 312.153 0.444278 -6.93579 0
M  V30 3192 H 315.344 0.5881 -4.64391 0
M  V30 3193 H 315.517 0.562846 -6.45551 0
M  V30 3194 N 308.923 1.53595 0.353017 0
M  V30 3195 C 310.169 1.70638 1.09593 0
M  V30 3196 C 310.502 0.463286 1.88593 0
M  V30 3197 O 309.777 -0.539597 1.86865 0
M  V30 3198 C 310.06 2.96406 2.04489 0
M  V30 3199 C 309.913 4.30901 1.29014 0
M  V30 3200 C 311.232 3.17812 3.0444 0
M  V30 3201 H 308.351 0.620913 0.397034 0
M  V30 3202 H 310.993 1.86254 0.375446 0
M  V30 3203 H 309.143 2.83223 2.65927 0
M  V30 3204 H 310.815 4.55917 0.702638 0
M  V30 3205 H 309.058 4.29741 0.592071 0
M  V30 3206 H 309.729 5.1506 1.98537 0
M  V30 3207 H 312.205 3.30263 2.53112 0
M  V30 3208 H 311.081 4.07223 3.6805 0
M  V30 3209 H 311.342 2.33669 3.75301 0
M  V30 3210 N 310.401 -0.613514 1.45168 0
M  V30 3211 C 311.647 -1.37471 1.49096 0
M  V30 3212 C 311.98 -1.93765 0.129901 0
M  V30 3213 O 311.255 -1.74707 -0.854858 0
M  V30 3214 C 311.538 -2.52701 2.56542 0
M  V30 3215 C 311.391 -2.01643 4.0207 0
M  V30 3216 C 312.71 -3.54849 2.60327 0
M  V30 3217 H 309.829 -0.498502 0.54283 0
M  V30 3218 H 312.471 -0.692125 1.76945 0
M  V30 3219 H 310.621 -3.10931 2.32926 0
M  V30 3220 H 312.293 -1.48108 4.36877 0
M  V30 3221 H 310.536 -1.32688 4.13009 0
M  V30 3222 H 311.207 -2.84681 4.72928 0
M  V30 3223 H 313.683 -3.0645 2.81474 0
M  V30 3224 H 312.559 -4.32973 3.37381 0
M  V30 3225 H 312.82 -4.10079 1.6519 0
M  V30 3226 N 311.879 -1.3236 -0.855495 0
M  V30 3227 C 313.29 -1.2056 -1.42556 0
M  V30 3228 C 313.641 0.182209 -1.95352 0
M  V30 3229 O 312.766 1.08088 -1.87472 0
M  V30 3230 C 313.361 -2.1826 -2.59129 0
M  V30 3231 C 311.92 -2.10351 -3.12137 0
M  V30 3232 C 311.067 -2.06674 -1.84882 0
M  V30 3233 H 314.018 -1.442 -0.662727 0
M  V30 3234 H 314.039 -1.78064 -3.36264 0
M  V30 3235 H 313.551 -3.19257 -2.20673 0
M  V30 3236 H 311.652 -1.12599 -3.55179 0
M  V30 3237 H 311.765 -3.00135 -3.73438 0
M  V30 3238 H 310.129 -1.51901 -2.04446 0
M  V30 3239 H 310.912 -3.09451 -1.48643 0
M  V30 3240 N 313.357 1.07166 -1.15556 0
M  V30 3241 C 314.603 1.80065 -0.932984 0
M  V30 3242 C 314.936 1.86586 0.53845 0
M  V30 3243 O 314.211 1.35098 1.39924 0
M  V30 3244 C 314.494 3.25022 -1.55025 0
M  V30 3245 C 314.347 3.26634 -3.09242 0
M  V30 3246 C 315.666 4.22341 -1.2376 0
M  V30 3247 H 312.785 0.653697 -0.340366 0
M  V30 3248 H 315.427 1.25389 -1.4275 0
M  V30 3249 H 313.577 3.71712 -1.12972 0
M  V30 3250 H 315.249 2.88173 -3.60214 0
M  V30 3251 H 313.492 2.65539 -3.43033 0
M  V30 3252 H 314.163 4.28854 -3.47546 0
M  V30 3253 H 316.639 3.8405 -1.60139 0
M  V30 3254 H 315.515 5.22053 -1.69564 0
M  V30 3255 H 315.776 4.41828 -0.154938 0
M  V30 3256 N 314.835 0.952656 1.25548 0
M  V30 3257 C 316.083 0.605176 1.92826 0
M  V30 3258 C 316.404 -0.860261 1.74999 0
M  V30 3259 O 315.674 -1.6125 1.11244 0
M  V30 3260 H 314.254 0.220832 0.713612 0
M  V30 3261 H 316.916 1.21047 1.52754 0
M  V30 3262 H 316.012 0.832798 3.00784 0
M  V30 3263 N 316.313 -1.40141 0.720998 0
M  V30 3264 C 317.561 -2.0039 0.262323 0
M  V30 3265 C 317.882 -1.57469 -1.15015 0
M  V30 3266 O 317.152 -0.816582 -1.78069 0
M  V30 3267 H 315.732 -0.741063 0.093996 0
M  V30 3268 H 318.394 -1.71398 0.927835 0
M  V30 3269 H 317.49 -3.10658 0.299671 0
M  V30 3270 N 317.792 -0.46758 -1.50504 0
M  V30 3271 C 319.208 -0.121533 -1.59137 0
M  V30 3272 C 319.408 1.3717 -1.47603 0
M  V30 3273 O 318.464 2.14464 -1.33272 0
M  V30 3274 C 319.777 -0.6686 -2.93173 0
M  V30 3275 C 321.325 -0.631716 -3.06559 0
M  V30 3276 C 321.8 -1.15627 -4.43164 0
M  V30 3277 N 323.291 -1.11553 -4.49567 0
M  V30 3278 C 324.026 -1.49195 -5.5365 0
M  V30 3279 N 323.522 -1.94269 -6.65005 0
M  V30 3280 N 325.315 -1.4082 -5.44175 0
M  V30 3281 H 317.466 -1.4388 -1.56245 0
M  V30 3282 H 319.729 -0.594784 -0.738198 0
M  V30 3283 H 319.435 -1.71453 -3.07078 0
M  V30 3284 H 319.309 -0.11021 -3.77039 0
M  V30 3285 H 321.696 0.405297 -2.92304 0
M  V30 3286 H 321.777 -1.22687 -2.24458 0
M  V30 3287 H 321.421 -2.1919 -4.58168 0
M  V30 3288 H 321.351 -0.537365 -5.23851 0
M  V30 3289 H 323.842 -0.784895 -3.69659 0
M  V30 3290 H 324.155 -2.21148 -7.40482 0
M  V30 3291 H 322.5 -1.98219 -6.66134 0
M  V30 3292 H 325.691 -1.0545 -4.56068 0
M  V30 3293 H 325.864 -1.70481 -6.25172 0
M  V30 3294 N 319.27 1.56325 -0.20005 0
M  V30 3295 C 320.519 1.96895 0.437652 0
M  V30 3296 C 320.832 1.08999 1.62415 0
M  V30 3297 O 322.038 1.39372 2.32997 0
M  V30 3298 C 320.494 3.50198 0.830025 0
M  V30 3299 C 320.102 4.46765 -0.332461 0
M  V30 3300 C 321.846 3.99526 1.43453 0
M  V30 3301 C 319.753 5.91344 0.0811468 0
M  V30 3302 H 318.683 0.735209 0.167282 0
M  V30 3303 H 321.334 1.81148 -0.292853 0
M  V30 3304 H 319.716 3.61467 1.61734 0
M  V30 3305 H 320.89 4.47231 -1.11 0
M  V30 3306 H 319.205 4.07657 -0.848789 0
M  V30 3307 H 321.802 5.05025 1.75652 0
M  V30 3308 H 322.145 3.44122 2.34277 0
M  V30 3309 H 322.678 3.91393 0.71109 0
M  V30 3310 H 319.417 6.50685 -0.793033 0
M  V30 3311 H 318.937 5.94121 0.823445 0
M  V30 3312 H 320.616 6.44945 0.515252 0
M  V30 3313 N 320.748 -0.0735177 1.57428 0
M  V30 3314 C 321.978 -0.78483 1.91112 0
M  V30 3315 C 322.386 -1.71729 0.7941 0
M  V30 3316 O 321.729 -1.82105 -0.241542 0
M  V30 3317 C 321.791 -1.63346 3.20247 0
M  V30 3318 C 321.455 -0.870557 4.48632 0
M  V30 3319 C 322.452 -0.19058 5.19551 0
M  V30 3320 C 320.137 -0.838242 4.95256 0
M  V30 3321 C 322.131 0.511503 6.35344 0
M  V30 3322 C 319.818 -0.132386 6.10957 0
M  V30 3323 C 320.816 0.541288 6.80852 0
M  V30 3324 O 320.504 1.23578 7.94345 0
M  V30 3325 H 320.236 -0.228408 0.636244 0
M  V30 3326 H 322.79 -0.0486039 2.05342 0
M  V30 3327 H 321.02 -2.41245 3.02222 0
M  V30 3328 H 322.709 -2.22329 3.39595 0
M  V30 3329 H 323.475 -0.206864 4.84559 0
M  V30 3330 H 319.354 -1.35206 4.40727 0
M  V30 3331 H 322.898 1.03789 6.89836 0
M  V30 3332 H 318.795 -0.114023 6.45399 0
M  V30 3333 H 319.563 1.14487 8.10454 0
M  V30 3334 N 322.226 -1.5378 -0.344866 0
M  V30 3335 C 323.475 -1.7018 -1.08267 0
M  V30 3336 C 323.788 -0.471 -1.89845 0
M  V30 3337 O 324.994 -0.515917 -2.66553 0
M  V30 3338 C 323.45 -3.00923 -1.97417 0
M  V30 3339 C 323.058 -4.31335 -1.21053 0
M  V30 3340 C 324.802 -3.26688 -2.71063 0
M  V30 3341 C 322.709 -5.53153 -2.09225 0
M  V30 3342 H 321.639 -0.634138 -0.407903 0
M  V30 3343 H 324.29 -1.8028 -0.342246 0
M  V30 3344 H 322.672 -2.84676 -2.75274 0
M  V30 3345 H 323.846 -4.58281 -0.481159 0
M  V30 3346 H 322.161 -4.12173 -0.591813 0
M  V30 3347 H 324.758 -4.1489 -3.37299 0
M  V30 3348 H 325.101 -2.43639 -3.37558 0
M  V30 3349 H 325.634 -3.43705 -2.0028 0
M  V30 3350 H 322.373 -6.38741 -1.47274 0
M  V30 3351 H 321.893 -5.30458 -2.79955 0
M  V30 3352 H 323.572 -5.88744 -2.68308 0
M  V30 3353 N 323.704 0.605807 -1.45491 0
M  V30 3354 C 324.981 1.36522 -1.40075 0
M  V30 3355 C 325.361 2.10976 -0.0722744 0
M  V30 3356 O 324.709 2.08007 0.945808 0
M  V30 3357 C 324.919 2.31056 -2.61561 0
M  V30 3358 C 326.267 2.93608 -3.06724 0
M  V30 3359 O 327.291 2.41376 -2.61946 0
M  V30 3360 O 326.15 3.88421 -3.84437 0
M  V30 3361 H 323.244 0.612248 -0.555951 0
M  V30 3362 H 325.79 0.628747 -1.57623 0
M  V30 3363 H 324.562 1.75311 -3.49831 0
M  V30 3364 H 324.185 3.12081 -2.46356 0
M  V30 3365 N 325.182 1.32811 0.848464 0
M  V30 3366 C 326.459 1.14334 1.58704 0
M  V30 3367 C 326.839 -0.293948 2.09043 0
M  V30 3368 O 326.187 -1.29153 1.88499 0
M  V30 3369 C 326.397 2.17626 2.72837 0
M  V30 3370 C 327.745 2.51282 3.42261 0
M  V30 3371 O 328.769 2.16219 2.83068 0
M  V30 3372 O 327.628 3.11413 4.49093 0
M  V30 3373 H 324.722 0.441601 0.699226 0
M  V30 3374 H 327.268 1.44362 0.892053 0
M  V30 3375 H 326.04 3.14211 2.3321 0
M  V30 3376 H 325.663 1.88628 3.50008 0
M  V30 3377 N 326.66 -1.06551 1.16123 0
M  V30 3378 C 327.908 -1.78947 0.939267 0
M  V30 3379 C 328.229 -1.87532 -0.534476 0
M  V30 3380 O 327.499 -1.38211 -1.38833 0
M  V30 3381 H 326.079 -0.662807 0.344523 0
M  V30 3382 H 328.741 -1.28725 1.46342 0
M  V30 3383 H 327.837 -2.81117 1.35572 0
M  V30 3384 N 328.138 -0.959301 -1.25041 0
M  V30 3385 C 329.068 -0.501388 -2.28053 0
M  V30 3386 C 330.049 0.454673 -1.63911 0
M  V30 3387 O 331.234 0.352618 -1.90972 0
M  V30 3388 C 328.364 0.217224 -3.4662 0
M  V30 3389 C 327.318 -0.654034 -4.22973 0
M  V30 3390 C 326.644 0.195589 -5.34342 0
M  V30 3391 C 327.944 -1.93447 -4.85155 0
M  V30 3392 H 329.638 -1.36238 -2.66608 0
M  V30 3393 H 327.184 -0.656534 -1.28163 0
M  V30 3394 H 329.137 0.548732 -4.17812 0
M  V30 3395 H 327.861 1.1125 -3.07068 0
M  V30 3396 H 326.52 -0.968693 -3.5357 0
M  V30 3397 H 326.168 1.09076 -4.91031 0
M  V30 3398 H 325.868 -0.384091 -5.86343 0
M  V30 3399 H 327.392 0.521958 -6.08365 0
M  V30 3400 H 328.806 -1.66908 -5.48466 0
M  V30 3401 H 327.203 -2.46018 -5.47353 0
M  V30 3402 H 328.273 -2.63466 -4.07079 0
M  V30 3403 N 329.616 1.39756 -0.72842 0
M  V30 3404 C 330.865 1.99879 -0.270407 0
M  V30 3405 C 331.178 1.58449 1.14688 0
M  V30 3406 O 332.384 2.11362 1.70407 0
M  V30 3407 C 330.84 3.57292 -0.43252 0
M  V30 3408 C 330.448 4.07688 -1.85727 0
M  V30 3409 C 332.192 4.24485 -0.0359507 0
M  V30 3410 C 330.099 5.5765 -1.96928 0
M  V30 3411 H 329.029 0.747689 -0.0973472 0
M  V30 3412 H 331.68 1.59837 -0.901355 0
M  V30 3413 H 330.062 3.95097 0.267219 0
M  V30 3414 H 331.236 3.81231 -2.58843 0
M  V30 3415 H 329.551 3.53135 -2.20646 0
M  V30 3416 H 332.148 5.34609 -0.0987484 0
M  V30 3417 H 332.491 4.03915 1.00787 0
M  V30 3418 H 333.024 3.9183 -0.686604 0
M  V30 3419 H 329.763 5.8309 -2.99476 0
M  V30 3420 H 329.283 5.8593 -1.28241 0
M  V30 3421 H 330.962 6.22957 -1.74737 0
M  V30 3422 N 331.094 0.475555 1.50254 0
M  V30 3423 C 332.319 -0.0777042 2.07254 0
M  V30 3424 C 332.744 -1.3235 1.3366 0
M  V30 3425 O 332.102 -1.77152 0.385597 0
M  V30 3426 C 332.15 -0.340169 3.58992 0
M  V30 3427 O 331.254 -1.41982 3.87188 0
M  V30 3428 H 330.595 0.0149556 0.663832 0
M  V30 3429 H 333.125 0.667878 1.93392 0
M  V30 3430 H 333.135 -0.579332 4.03866 0
M  V30 3431 H 331.81 0.570167 4.11973 0
M  V30 3432 H 330.387 -1.16762 3.54148 0
M  V30 3433 N 332.573 -1.56217 0.208337 0
M  V30 3434 C 333.503 -2.22694 -0.702116 0
M  V30 3435 C 334.484 -1.19432 -1.2112 0
M  V30 3436 O 335.669 -1.47978 -1.25762 0
M  V30 3437 C 332.799 -2.8966 -1.9161 0
M  V30 3438 C 331.753 -3.9928 -1.5414 0
M  V30 3439 C 331.079 -4.53476 -2.83308 0
M  V30 3440 C 332.379 -5.17012 -0.741339 0
M  V30 3441 H 334.073 -2.99034 -0.147898 0
M  V30 3442 H 331.619 -1.43831 -0.0696951 0
M  V30 3443 H 333.572 -3.34852 -2.55836 0
M  V30 3444 H 332.296 -2.10746 -2.49507 0
M  V30 3445 H 330.955 -3.54799 -0.922668 0
M  V30 3446 H 330.603 -3.71308 -3.39322 0
M  V30 3447 H 330.303 -5.27451 -2.58976 0
M  V30 3448 H 331.827 -5.01378 -3.485 0
M  V30 3449 H 333.241 -5.58667 -1.28699 0
M  V30 3450 H 331.638 -5.97137 -0.595627 0
M  V30 3451 H 332.708 -4.8423 0.254851 0
M  V30 3452 N 334.051 0.0651679 -1.57465 0
M  V30 3453 C 335.297 0.764193 -1.87851 0
M  V30 3454 C 335.63 1.76889 -0.801495 0
M  V30 3455 O 334.905 1.93594 0.187528 0
M  V30 3456 C 335.188 1.46625 -3.28897 0
M  V30 3457 C 335.041 0.477515 -4.47258 0
M  V30 3458 C 336.36 2.4095 -3.68281 0
M  V30 3459 H 333.479 0.276351 -0.683227 0
M  V30 3460 H 336.121 0.0272868 -1.8998 0
M  V30 3461 H 334.271 2.09438 -3.27212 0
M  V30 3462 H 335.943 -0.145922 -4.61069 0
M  V30 3463 H 334.186 -0.206576 -4.33308 0
M  V30 3464 H 334.857 1.0065 -5.42746 0
M  V30 3465 H 337.333 1.88209 -3.71102 0
M  V30 3466 H 336.209 2.87072 -4.67847 0
M  V30 3467 H 336.47 3.26049 -2.98571 0
M  V30 3468 N 335.529 1.53961 0.336706 0
M  V30 3469 C 336.775 1.7179 1.07777 0
M  V30 3470 C 337.108 0.483263 1.88091 0
M  V30 3471 O 336.383 -0.519747 1.87427 0
M  V30 3472 C 336.666 2.98558 2.01334 0
M  V30 3473 C 336.519 4.32245 1.24437 0
M  V30 3474 C 337.838 3.21023 3.01052 0
M  V30 3475 H 334.957 0.625089 0.390426 0
M  V30 3476 H 337.599 1.86641 0.35567 0
M  V30 3477 H 335.749 2.86028 2.62908 0
M  V30 3478 H 337.421 4.56637 0.654243 0
M  V30 3479 H 335.664 4.30344 0.546458 0
M  V30 3480 H 336.335 5.17137 1.93063 0
M  V30 3481 H 338.811 3.32929 2.49595 0
M  V30 3482 H 337.687 4.11104 3.6371 0
M  V30 3483 H 337.948 2.37637 3.72802 0
M  V30 3484 N 337.007 -0.598083 1.45811 0
M  V30 3485 C 337.939 -1.72231 1.51225 0
M  V30 3486 C 338.952 -1.57757 0.402059 0
M  V30 3487 O 340.141 -1.65464 0.669624 0
M  V30 3488 C 337.241 -3.10331 1.3619 0
M  V30 3489 C 336.414 -3.50955 2.61054 0
M  V30 3490 C 335.473 -4.68055 2.40439 0
M  V30 3491 O 334.499 -4.74691 3.14097 0
M  V30 3492 N 335.701 -5.61941 1.45612 0
M  V30 3493 H 338.466 -1.68046 2.48154 0
M  V30 3494 H 336.027 -0.783637 1.41671 0
M  V30 3495 H 338.019 -3.86439 1.20195 0
M  V30 3496 H 336.589 -3.0897 0.475015 0
M  V30 3497 H 335.809 -2.64711 2.92099 0
M  V30 3498 H 337.097 -3.74858 3.44034 0
M  V30 3499 H 336.495 -5.59301 0.848431 0
M  V30 3500 H 335.052 -6.37542 1.35585 0
M  V30 3501 N 338.485 -1.33259 -0.841409 0
M  V30 3502 C 339.432 -1.23302 -1.95103 0
M  V30 3503 C 340.402 -0.112204 -1.65721 0
M  V30 3504 O 341.587 -0.290038 -1.88583 0
M  V30 3505 C 338.727 -0.975583 -3.31023 0
M  V30 3506 C 337.84 -2.18243 -3.72819 0
M  V30 3507 C 336.975 -1.85936 -4.97595 0
M  V30 3508 C 336.014 -3.02866 -5.3192 0
M  V30 3509 N 335.151 -2.70565 -6.47873 0
M  V30 3510 H 339.991 -2.18207 -2.02952 0
M  V30 3511 H 337.528 -1.0851 -0.993173 0
M  V30 3512 H 339.486 -0.80677 -4.09325 0
M  V30 3513 H 338.116 -0.0632755 -3.22738 0
M  V30 3514 H 337.168 -2.46107 -2.90061 0
M  V30 3515 H 338.48 -3.05666 -3.94169 0
M  V30 3516 H 337.634 -1.65684 -5.83638 0
M  V30 3517 H 336.373 -0.957452 -4.78209 0
M  V30 3518 H 335.378 -3.23736 -4.44382 0
M  V30 3519 H 336.603 -3.93809 -5.53255 0
M  V30 3520 H 334.549 -1.8293 -6.29978 0
M  V30 3521 H 334.466 -3.51519 -6.69306 0
M  V30 3522 H 335.734 -2.53774 -7.37034 0
M  V30 3523 N 339.963 1.05934 -1.16686 0
M  V30 3524 C 341.212 1.78188 -0.945085 0
M  V30 3525 C 341.525 1.88338 0.528021 0
M  V30 3526 O 342.731 2.57258 0.867799 0
M  V30 3527 C 341.187 3.20277 -1.64167 0
M  V30 3528 C 340.795 3.18281 -3.15279 0
M  V30 3529 C 342.539 3.97039 -1.502 0
M  V30 3530 C 340.446 4.55112 -3.7766 0
M  V30 3531 H 339.376 0.667866 -0.349959 0
M  V30 3532 H 342.027 1.18794 -1.39858 0
M  V30 3533 H 340.409 3.79952 -1.11589 0
M  V30 3534 H 341.583 2.68167 -3.74731 0
M  V30 3535 H 339.898 2.55018 -3.29173 0
M  V30 3536 H 342.495 4.98194 -1.94183 0
M  V30 3537 H 342.838 4.13845 -0.451461 0
M  V30 3538 H 343.371 3.43894 -1.99954 0
M  V30 3539 H 340.11 4.43512 -4.82677 0
M  V30 3540 H 339.63 5.05406 -3.22994 0
M  V30 3541 H 341.309 5.24064 -3.79428 0
M  V30 3542 N 341.441 0.965919 1.2453 0
M  V30 3543 C 342.689 0.625593 1.92174 0
M  V30 3544 C 343.01 -0.841652 1.75901 0
M  V30 3545 O 342.28 -1.60061 1.12948 0
M  V30 3546 H 340.86 0.228388 0.71123 0
M  V30 3547 H 343.522 1.2266 1.51461 0
M  V30 3548 H 342.618 0.864653 2.99884 0
M  V30 3549 N 342.919 -1.39368 0.735821 0
M  V30 3550 C 344.33 -1.83313 0.354015 0
M  V30 3551 C 344.681 -1.61461 -1.11466 0
M  V30 3552 O 343.806 -1.10621 -1.85989 0
M  V30 3553 C 344.401 -3.32781 0.635769 0
M  V30 3554 C 342.96 -3.75142 0.307448 0
M  V30 3555 C 342.107 -2.62358 0.897974 0
M  V30 3556 H 345.058 -1.28349 0.933398 0
M  V30 3557 H 345.079 -3.80388 -0.0921773 0
M  V30 3558 H 344.591 -3.48654 1.70476 0
M  V30 3559 H 342.692 -3.64857 -0.755674 0
M  V30 3560 H 342.805 -4.72532 0.790583 0
M  V30 3561 H 341.169 -2.52624 0.324551 0
M  V30 3562 H 341.952 -2.81036 1.97164 0
M  V30 3563 N 344.397 -0.483516 -1.5 0
M  V30 3564 C 345.307 0.309172 -2.32554 0
M  V30 3565 C 346.323 0.984159 -1.43493 0
M  V30 3566 O 347.499 0.969399 -1.76535 0
M  V30 3567 C 344.564 1.36979 -3.18493 0
M  V30 3568 C 343.625 0.710095 -4.23387 0
M  V30 3569 C 342.858 1.72018 -5.05218 0
M  V30 3570 O 343.081 2.94813 -4.88305 0
M  V30 3571 O 342.015 1.28515 -5.8802 0
M  V30 3572 H 345.841 -0.366064 -3.01486 0
M  V30 3573 H 343.426 -0.24514 -1.47375 0
M  V30 3574 H 345.308 1.98385 -3.71781 0
M  V30 3575 H 343.983 2.02828 -2.52275 0
M  V30 3576 H 342.89 0.0567539 -3.74057 0
M  V30 3577 H 344.223 0.0943557 -4.9211 0
M  V30 3578 N 345.875 1.56104 -0.216619 0
M  V30 3579 C 347.123 1.97781 0.415593 0
M  V30 3580 C 347.444 1.10536 1.60645 0
M  V30 3581 O 346.714 0.181303 1.95059 0
M  V30 3582 H 345.294 0.730415 0.156534 0
M  V30 3583 H 347.956 1.92445 -0.308366 0
M  V30 3584 H 347.052 3.03072 0.74525 0
M  V30 3585 N 347.353 -0.0568162 1.57498 0
M  V30 3586 C 348.283 -1.06593 2.0775 0
M  V30 3587 C 349.264 -1.39448 0.974082 0
M  V30 3588 O 350.449 -1.48815 1.24771 0
M  V30 3589 C 347.579 -2.37509 2.5339 0
M  V30 3590 C 346.533 -2.1897 3.67745 0
M  V30 3591 C 345.859 -3.55402 3.99492 0
M  V30 3592 C 347.159 -1.59859 4.97235 0
M  V30 3593 H 348.853 -0.647706 2.9231 0
M  V30 3594 H 346.399 -0.310116 1.40621 0
M  V30 3595 H 348.352 -3.08409 2.87162 0
M  V30 3596 H 347.076 -2.8134 1.65878 0
M  V30 3597 H 345.735 -1.50508 3.3428 0
M  V30 3598 H 345.383 -3.9683 3.09088 0
M  V30 3599 H 345.083 -3.43831 4.76502 0
M  V30 3600 H 346.607 -4.27708 4.35773 0
M  V30 3601 H 348.021 -2.20642 5.29141 0
M  V30 3602 H 346.418 -1.58942 5.78669 0
M  V30 3603 H 347.488 -0.561506 4.81638 0
M  V30 3604 N 348.832 -1.54138 -0.328536 0
M  V30 3605 C 350.078 -1.7236 -1.06865 0
M  V30 3606 C 350.411 -0.493231 -1.87832 0
M  V30 3607 O 349.686 0.5098 -1.877 0
M  V30 3608 C 349.969 -2.99621 -1.99747 0
M  V30 3609 C 349.822 -4.32899 -1.22143 0
M  V30 3610 C 351.141 -3.22615 -2.99345 0
M  V30 3611 H 348.26 -0.627151 -0.387105 0
M  V30 3612 H 350.902 -1.86827 -0.345767 0
M  V30 3613 H 349.052 -2.87418 -2.61387 0
M  V30 3614 H 350.724 -4.56978 -0.630017 0
M  V30 3615 H 348.967 -4.30628 -0.523628 0
M  V30 3616 H 349.638 -5.18154 -1.90318 0
M  V30 3617 H 352.114 -3.34248 -2.47826 0
M  V30 3618 H 350.99 -4.13027 -3.61524 0
M  V30 3619 H 351.251 -2.3961 -3.71536 0
M  V30 3620 N 350.31 0.590341 -1.46126 0
M  V30 3621 C 351.538 1.37504 -1.54597 0
M  V30 3622 C 351.953 1.87897 -0.184447 0
M  V30 3623 O 351.31 1.63192 0.816984 0
M  V30 3624 C 351.361 2.56779 -2.54454 0
M  V30 3625 O 351.082 2.08476 -3.85317 0
M  V30 3626 C 352.583 3.49427 -2.72792 0
M  V30 3627 H 349.803 0.420325 -0.523037 0
M  V30 3628 H 352.347 0.718383 -1.91467 0
M  V30 3629 H 350.502 3.1845 -2.20609 0
M  V30 3630 H 350.916 2.86097 -4.396 0
M  V30 3631 H 352.39 4.29619 -3.466 0
M  V30 3632 H 352.867 4.00876 -1.79429 0
M  V30 3633 H 353.473 2.93598 -3.07702 0
M  V30 3634 N 351.788 1.33704 0.83433 0
M  V30 3635 C 352.72 1.20172 1.9517 0
M  V30 3636 C 353.733 0.131572 1.62267 0
M  V30 3637 O 354.922 0.382406 1.74356 0
M  V30 3638 C 352.022 0.821716 3.28787 0
M  V30 3639 C 351.195 1.98446 3.89792 0
M  V30 3640 C 350.254 1.58469 5.01771 0
M  V30 3641 O 349.28 2.29968 5.20676 0
M  V30 3642 N 350.482 0.492291 5.78409 0
M  V30 3643 H 353.247 2.16429 2.07313 0
M  V30 3644 H 350.808 1.26509 1.0103 0
M  V30 3645 H 352.8 0.536291 4.01131 0
M  V30 3646 H 351.37 -0.0503058 3.1256 0
M  V30 3647 H 350.59 2.43526 3.09982 0
M  V30 3648 H 351.878 2.76236 4.27283 0
M  V30 3649 H 351.276 -0.102349 5.65607 0
M  V30 3650 H 349.833 0.266555 6.51255 0
M  V30 3651 N 353.266 -1.05314 1.17247 0
M  V30 3652 C 354.512 -1.78557 0.961513 0
M  V30 3653 C 354.845 -1.87419 -0.508697 0
M  V30 3654 O 354.12 -1.37307 -1.37757 0
M  V30 3655 C 354.403 -3.22514 1.60176 0
M  V30 3656 C 354.256 -3.21673 3.14399 0
M  V30 3657 C 355.575 -4.20318 1.30463 0
M  V30 3658 H 352.694 -0.6482 0.350723 0
M  V30 3659 H 355.336 -1.23102 1.44727 0
M  V30 3660 H 353.486 -3.69867 1.18871 0
M  V30 3661 H 355.158 -2.82405 3.64753 0
M  V30 3662 H 353.401 -2.60048 3.47214 0
M  V30 3663 H 354.072 -4.23271 3.54324 0
M  V30 3664 H 356.548 -3.81454 1.66229 0
M  V30 3665 H 355.424 -5.19289 1.77848 0
M  V30 3666 H 355.685 -4.41526 0.22521 0
M  V30 3667 N 354.744 -0.972509 -1.24016 0
M  V30 3668 C 355.654 -0.5143 -2.28893 0
M  V30 3669 C 356.67 0.427078 -1.68677 0
M  V30 3670 O 357.846 0.298939 -1.99169 0
M  V30 3671 C 354.911 0.183598 -3.46214 0
M  V30 3672 C 353.972 -0.798202 -4.21814 0
M  V30 3673 C 353.205 -0.133514 -5.33533 0
M  V30 3674 O 353.428 1.07714 -5.60137 0
M  V30 3675 O 352.362 -0.828103 -5.96176 0
M  V30 3676 H 356.188 -1.38629 -2.70214 0
M  V30 3677 H 353.773 -0.739769 -1.29799 0
M  V30 3678 H 355.655 0.575433 -4.17453 0
M  V30 3679 H 354.33 1.03048 -3.0686 0
M  V30 3680 H 353.237 -1.24059 -3.52931 0
M  V30 3681 H 354.57 -1.61364 -4.64997 0
M  V30 3682 N 356.222 1.38976 -0.743202 0
M  V30 3683 C 357.17 2.32394 -0.0978389 0
M  V30 3684 C 358.164 1.53486 0.716824 0
M  V30 3685 O 359.37 1.69092 0.617088 0
M  V30 3686 H 355.745 0.75189 -0.0128402 0
M  V30 3687 H 357.716 2.84441 -0.901981 0
M  V30 3688 C 356.465 3.38629 0.789036 0
M  V30 3689 H 355.788 3.99432 0.171559 0
M  V30 3690 H 357.228 4.06426 1.20807 0
M  V30 3691 C 355.687 2.76347 1.92702 0
M  V30 3692 O 356.217 2.64836 3.02034 0
M  V30 3693 N 354.423 2.34311 1.71891 0
M  V30 3694 H 353.97 2.43873 0.829675 0
M  V30 3695 H 353.928 1.9298 2.48205 0
M  V30 3696 N 357.7 0.491464 1.49741 0
M  V30 3697 C 358.948 -0.0563141 2.02022 0
M  V30 3698 C 359.269 -1.38363 1.37407 0
M  V30 3699 O 358.539 -1.88702 0.526166 0
M  V30 3700 H 357.119 -0.0238014 0.746621 0
M  V30 3701 H 359.781 0.646533 1.83864 0
M  V30 3702 H 358.877 -0.192967 3.11503 0
M  V30 3703 N 359.178 -1.55987 0.224894 0
M  V30 3704 C 360.426 -1.97998 -0.405099 0
M  V30 3705 C 360.747 -1.11387 -1.60056 0
M  V30 3706 O 360.017 -0.191645 -1.9496 0
M  V30 3707 H 358.597 -0.731235 -0.152658 0
M  V30 3708 H 361.259 -1.92279 0.318567 0
M  V30 3709 H 360.355 -3.03463 -0.729167 0
M  V30 3710 N 360.656 0.0484629 -1.57525 0
M  V30 3711 C 361.902 0.744226 -1.88651 0
M  V30 3712 C 362.235 1.76029 -0.820212 0
M  V30 3713 O 361.51 1.93782 0.166985 0
M  V30 3714 C 361.793 1.43128 -3.30434 0
M  V30 3715 C 361.646 0.43005 -4.47739 0
M  V30 3716 C 362.965 2.37031 -3.70816 0
M  V30 3717 H 360.084 0.269089 -0.68612 0
M  V30 3718 H 362.726 0.00713532 -1.89999 0
M  V30 3719 H 360.876 2.05956 -3.29415 0
M  V30 3720 H 362.548 -0.194816 -4.60888 0
M  V30 3721 H 360.791 -0.252522 -4.33064 0
M  V30 3722 H 361.462 0.948874 -5.43783 0
M  V30 3723 H 363.938 1.84263 -3.73077 0
M  V30 3724 H 362.814 2.82094 -4.70865 0
M  V30 3725 H 363.075 3.22864 -3.02012 0
M  V30 3726 N 362.134 1.5431 0.320358 0
M  V30 3727 C 363.064 1.86912 1.3995 0
M  V30 3728 C 364.045 0.726211 1.53819 0
M  V30 3729 O 365.23 0.980233 1.67646 0
M  V30 3730 C 362.36 2.09932 2.7667 0
M  V30 3731 C 361.314 3.25776 2.77586 0
M  V30 3732 C 360.64 3.34173 4.17412 0
M  V30 3733 C 361.94 4.6335 2.41048 0
M  V30 3734 H 363.634 2.77292 1.12914 0
M  V30 3735 H 361.18 1.33421 0.541738 0
M  V30 3736 H 363.133 2.31324 3.52232 0
M  V30 3737 H 361.857 1.16304 3.0519 0
M  V30 3738 H 360.516 3.04276 2.04479 0
M  V30 3739 H 360.164 2.38098 4.43078 0
M  V30 3740 H 359.864 4.12033 4.18931 0
M  V30 3741 H 361.388 3.57803 4.94782 0
M  V30 3742 H 362.802 4.84602 3.06324 0
M  V30 3743 H 361.199 5.43782 2.53813 0
M  V30 3744 H 362.269 4.65381 1.36193 0
M  V30 3745 N 363.613 -0.582584 1.46437 0
M  V30 3746 C 364.861 -1.33814 1.51453 0
M  V30 3747 C 365.182 -1.94277 0.167792 0
M  V30 3748 O 364.452 -1.78566 -0.805677 0
M  V30 3749 H 363.032 -0.496838 0.557818 0
M  V30 3750 H 365.694 -0.682281 1.82568 0
M  V30 3751 H 364.79 -2.14479 2.26728 0
M  V30 3752 N 365.091 -1.34144 -0.827227 0
M  V30 3753 C 366.316 -1.29476 -1.62021 0
M  V30 3754 C 366.741 0.129292 -1.87655 0
M  V30 3755 O 366.099 1.08967 -1.449 0
M  V30 3756 C 366.147 -2.08702 -2.94068 0
M  V30 3757 O 365.251 -1.45359 -3.85933 0
M  V30 3758 H 364.592 -0.444881 -0.492927 0
M  V30 3759 H 367.122 -1.76882 -1.02829 0
M  V30 3760 H 367.132 -2.19898 -3.43669 0
M  V30 3761 H 365.807 -3.12241 -2.74734 0
M  V30 3762 H 364.384 -1.42879 -3.44442 0
M  V30 3763 N 366.569 1.04691 -1.17803 0
M  V30 3764 C 367.985 1.29963 -0.926379 0
M  V30 3765 C 368.185 1.97251 0.411635 0
M  V30 3766 O 367.241 2.24922 1.14744 0
M  V30 3767 C 368.554 2.16447 -2.08737 0
M  V30 3768 C 370.102 2.29814 -2.12496 0
M  V30 3769 C 370.577 3.19661 -3.27995 0
M  V30 3770 N 372.068 3.27247 -3.27816 0
M  V30 3771 C 372.803 3.96906 -4.13827 0
M  V30 3772 N 372.299 4.6895 -5.09959 0
M  V30 3773 N 374.092 3.93122 -4.01761 0
M  V30 3774 H 366.243 0.594182 -2.0392 0
M  V30 3775 H 368.506 0.324649 -0.890678 0
M  V30 3776 H 368.212 1.74304 -3.05469 0
M  V30 3777 H 368.086 3.17103 -2.04268 0
M  V30 3778 H 370.473 2.71196 -1.16347 0
M  V30 3779 H 370.554 1.2877 -2.21025 0
M  V30 3780 H 370.198 2.78991 -4.24413 0
M  V30 3781 H 370.128 4.20722 -3.16703 0
M  V30 3782 H 372.619 2.75921 -2.58217 0
M  V30 3783 H 372.932 5.19679 -5.71974 0
M  V30 3784 H 371.277 4.67875 -5.13924 0
M  V30 3785 H 374.468 3.35967 -3.2595 0
M  V30 3786 H 374.641 4.47139 -4.6901 0
M  V30 3787 N 368.047 0.979072 1.23499 0
M  V30 3788 C 368.994 0.517904 2.24914 0
M  V30 3789 C 369.964 -0.442525 1.60097 0
M  V30 3790 O 371.149 -0.350365 1.87556 0
M  V30 3791 C 368.289 -0.174813 3.44657 0
M  V30 3792 C 367.402 0.825721 4.24035 0
M  V30 3793 C 366.537 0.107946 5.3109 0
M  V30 3794 C 365.576 1.09778 6.02175 0
M  V30 3795 N 364.713 0.40925 7.00906 0
M  V30 3796 H 369.553 1.38751 2.63727 0
M  V30 3797 H 367.09 0.695303 1.2963 0
M  V30 3798 H 369.048 -0.593233 4.12961 0
M  V30 3799 H 367.678 -1.0083 3.06648 0
M  V30 3800 H 366.73 1.36253 3.55161 0
M  V30 3801 H 368.042 1.58005 4.73113 0
M  V30 3802 H 367.196 -0.367904 6.05583 0
M  V30 3803 H 365.935 -0.678994 4.8295 0
M  V30 3804 H 364.94 1.5844 5.26476 0
M  V30 3805 H 366.165 1.88536 6.52404 0
M  V30 3806 H 364.111 -0.358506 6.5502 0
M  V30 3807 H 364.028 1.10226 7.47921 0
M  V30 3808 H 365.296 -0.0442557 7.79487 0
M  V30 3809 N 369.525 -1.3858 0.750561 0
M  V30 3810 C 370.773 -1.99789 0.30477 0
M  V30 3811 C 371.094 -1.59874 -1.11649 0
M  V30 3812 O 370.364 -0.85417 -1.76297 0
M  V30 3813 H 368.944 -0.738902 0.109694 0
M  V30 3814 H 371.606 -1.69391 0.963983 0
M  V30 3815 H 370.702 -3.09952 0.365499 0
M  V30 3816 N 371.003 -0.499398 -1.49478 0
M  V30 3817 C 372.249 0.0457576 -2.02748 0
M  V30 3818 C 372.582 1.36793 -1.37846 0
M  V30 3819 O 371.857 1.87596 -0.513601 0
M  V30 3820 C 372.14 0.199986 -3.59544 0
M  V30 3821 C 371.993 -1.1452 -4.34977 0
M  V30 3822 C 373.312 0.94137 -4.29914 0
M  V30 3823 H 370.431 0.0151552 -0.736844 0
M  V30 3824 H 373.073 -0.650498 -1.78518 0
M  V30 3825 H 371.223 0.793007 -3.8032 0
M  V30 3826 H 372.895 -1.77697 -4.25701 0
M  V30 3827 H 371.138 -1.73488 -3.97598 0
M  V30 3828 H 371.809 -0.990607 -5.43039 0
M  V30 3829 H 374.285 0.43844 -4.13784 0
M  V30 3830 H 373.161 1.01812 -5.39375 0
M  V30 3831 H 373.422 1.98471 -3.95046 0
M  V30 3832 N 372.481 1.55866 -0.233164 0
M  V30 3833 C 373.429 2.22176 0.68851 0
M  V30 3834 C 374.423 1.20487 1.19076 0
M  V30 3835 O 375.629 1.38536 1.14925 0
M  V30 3836 H 372.004 0.712511 0.240483 0
M  V30 3837 H 373.975 2.98212 0.105935 0
M  V30 3838 C 372.724 2.92446 1.88071 0
M  V30 3839 H 372.047 3.70458 1.50337 0
M  V30 3840 H 373.487 3.42226 2.50314 0
M  V30 3841 C 371.946 1.95555 2.74335 0
M  V30 3842 O 372.476 1.47986 3.73447 0
M  V30 3843 N 370.682 1.62953 2.40613 0
M  V30 3844 H 370.229 2.01831 1.60069 0
M  V30 3845 H 370.187 0.983886 2.98609 0
M  V30 3846 N 373.959 -0.0401083 1.57549 0
M  V30 3847 C 374.889 -1.04384 2.08869 0
M  V30 3848 C 375.87 -1.38407 0.988817 0
M  V30 3849 O 377.055 -1.47483 1.26342 0
M  V30 3850 C 374.185 -2.34808 2.55895 0
M  V30 3851 C 373.139 -2.15057 3.70047 0
M  V30 3852 C 372.465 -3.51145 4.03239 0
M  V30 3853 C 373.765 -1.54576 4.98902 0
M  V30 3854 H 375.459 -0.616666 2.92981 0
M  V30 3855 H 373.005 -0.295184 1.40942 0
M  V30 3856 H 374.958 -3.05346 2.90417 0
M  V30 3857 H 373.682 -2.79565 1.68853 0
M  V30 3858 H 372.341 -1.46954 3.35857 0
M  V30 3859 H 371.989 -3.93529 3.13279 0
M  V30 3860 H 371.689 -3.38758 4.80122 0
M  V30 3861 H 373.213 -4.23062 4.40285 0
M  V30 3862 H 374.627 -2.15017 5.31451 0
M  V30 3863 H 373.024 -1.52796 5.80322 0
M  V30 3864 H 374.094 -0.51039 4.82206 0
M  V30 3865 N 375.437 -1.54477 -0.31217 0
M  V30 3866 C 376.848 -1.64344 -0.885891 0
M  V30 3867 C 377.199 -0.54485 -1.88483 0
M  V30 3868 O 376.324 0.320387 -2.14015 0
M  V30 3869 C 376.919 -2.97908 -1.61357 0
M  V30 3870 C 375.478 -3.09933 -2.13585 0
M  V30 3871 C 374.625 -2.59971 -0.964897 0
M  V30 3872 H 377.576 -1.58448 -0.0894528 0
M  V30 3873 H 377.597 -2.88706 -2.47848 0
M  V30 3874 H 377.109 -3.77845 -0.886277 0
M  V30 3875 H 375.21 -2.34694 -2.89395 0
M  V30 3876 H 375.323 -4.15916 -2.37804 0
M  V30 3877 H 373.687 -2.16147 -1.34731 0
M  V30 3878 H 374.47 -3.42376 -0.251742 0
M  V30 3879 N 376.915 0.57481 -1.46744 0
M  V30 3880 C 378.163 1.33009 -1.52161 0
M  V30 3881 C 378.484 1.94185 -0.178092 0
M  V30 3882 O 377.754 1.7899 0.796196 0
M  V30 3883 H 376.334 0.493873 -0.560445 0
M  V30 3884 H 378.996 0.672589 -1.82927 0
M  V30 3885 H 378.092 2.13273 -2.27862 0
M  V30 3886 N 378.394 1.34581 0.820102 0
M  V30 3887 C 379.357 1.2628 1.91275 0
M  V30 3888 C 380.357 0.177344 1.59819 0
M  V30 3889 O 381.547 0.430156 1.68806 0
M  V30 3890 C 378.679 0.950327 3.27386 0
M  V30 3891 H 379.872 2.23421 2.00057 0
M  V30 3892 H 377.425 1.1891 1.0144 0
M  V30 3893 H 378.16 -0.0177938 3.24295 0
M  V30 3894 H 377.945 1.73549 3.51601 0
M  V30 3895 H 379.435 0.917492 4.07396 0
M  V30 3896 N 379.872 -1.04064 1.18357 0
M  V30 3897 C 380.804 -2.12114 0.868358 0
M  V30 3898 C 381.817 -1.62247 -0.134045 0
M  V30 3899 O 383.006 -1.78253 0.0937933 0
M  V30 3900 C 380.106 -3.37773 0.276132 0
M  V30 3901 C 379.279 -4.16874 1.3242 0
M  V30 3902 C 378.338 -5.20861 0.747662 0
M  V30 3903 O 377.364 -5.51141 1.42239 0
M  V30 3904 N 378.566 -5.78715 -0.454823 0
M  V30 3905 H 381.331 -2.39748 1.79836 0
M  V30 3906 H 378.892 -1.20258 1.08396 0
M  V30 3907 H 380.884 -4.04513 -0.123133 0
M  V30 3908 H 379.454 -3.07581 -0.557895 0
M  V30 3909 H 378.674 -3.45456 1.89878 0
M  V30 3910 H 379.962 -4.66516 2.03078 0
M  V30 3911 H 379.36 -5.56415 -1.02073 0
M  V30 3912 H 377.917 -6.46921 -0.79601 0
M  V30 3913 N 381.35 -0.985608 -1.22978 0
M  V30 3914 C 382.596 -0.65836 -1.91816 0
M  V30 3915 C 382.929 0.806692 -1.76653 0
M  V30 3916 O 382.204 1.58252 -1.13078 0
M  V30 3917 C 382.487 -1.056 -3.44268 0
M  V30 3918 C 382.34 -2.57906 -3.68516 0
M  V30 3919 C 383.659 -0.603781 -4.35939 0
M  V30 3920 H 380.778 -0.24065 -0.696604 0
M  V30 3921 H 383.42 -1.22783 -1.44998 0
M  V30 3922 H 381.57 -0.571445 -3.84274 0
M  V30 3923 H 383.242 -3.13976 -3.3796 0
M  V30 3924 H 381.485 -3.00305 -3.13048 0
M  V30 3925 H 382.156 -2.80779 -4.75255 0
M  V30 3926 H 384.632 -1.01987 -4.03408 0
M  V30 3927 H 383.508 -0.910383 -5.41298 0
M  V30 3928 H 383.769 0.495761 -4.39312 0
M  V30 3929 N 382.828 1.3818 -0.7579 0
M  V30 3930 C 384.105 1.94106 -0.241306 0
M  V30 3931 C 384.485 1.69282 1.26122 0
M  V30 3932 O 383.833 1.03378 2.03777 0
M  V30 3933 C 384.043 3.43809 -0.59967 0
M  V30 3934 C 385.391 4.20868 -0.561717 0
M  V30 3935 O 386.415 3.5211 -0.538222 0
M  V30 3936 O 385.274 5.43451 -0.576478 0
M  V30 3937 H 382.368 0.825376 -0.0518042 0
M  V30 3938 H 384.914 1.47548 -0.838315 0
M  V30 3939 H 383.686 3.55403 -1.6372 0
M  V30 3940 H 383.309 3.97592 0.0251197 0
M  V30 3941 N 384.306 0.507319 1.49211 0
M  V30 3942 C 385.236 -0.256939 2.32082 0
M  V30 3943 C 386.217 -0.956609 1.40652 0
M  V30 3944 O 387.402 -0.946788 1.69557 0
M  V30 3945 C 384.532 -1.31802 3.21318 0
M  V30 3946 C 383.486 -0.737855 4.21592 0
M  V30 3947 C 382.812 -1.89992 4.99807 0
M  V30 3948 C 384.112 0.275325 5.21574 0
M  V30 3949 H 385.806 0.434798 2.96226 0
M  V30 3950 H 383.352 0.210546 1.42452 0
M  V30 3951 H 385.305 -1.86045 3.78107 0
M  V30 3952 H 384.029 -2.03903 2.5513 0
M  V30 3953 H 382.688 -0.217126 3.65956 0
M  V30 3954 H 382.336 -2.60877 4.30061 0
M  V30 3955 H 382.036 -1.51777 5.6766 0
M  V30 3956 H 383.56 -2.44657 5.59442 0
M  V30 3957 H 384.974 -0.179193 5.7302 0
M  V30 3958 H 383.371 0.573649 5.97352 0
M  V30 3959 H 384.441 1.18903 4.70096 0
M  V30 3960 N 385.784 -1.5574 0.241426 0
M  V30 3961 C 387.195 -1.84842 -0.262755 0
M  V30 3962 C 387.546 -1.16317 -1.58003 0
M  V30 3963 O 386.671 -0.439653 -2.11887 0
M  V30 3964 C 387.266 -3.35332 -0.483523 0
M  V30 3965 C 385.825 -3.6468 -0.931977 0
M  V30 3966 C 384.972 -2.77299 -0.0061151 0
M  V30 3967 H 387.923 -1.51761 0.464129 0
M  V30 3968 H 387.944 -3.56615 -1.32688 0
M  V30 3969 H 387.456 -3.85178 0.47537 0
M  V30 3970 H 385.557 -3.20307 -1.90353 0
M  V30 3971 H 385.67 -4.72498 -0.792628 0
M  V30 3972 H 384.034 -2.49408 -0.516503 0
M  V30 3973 H 384.817 -3.2995 0.948052 0
M  V30 3974 N 387.262 0.0317525 -1.57568 0
M  V30 3975 C 388.51 0.721676 -1.88776 0
M  V30 3976 C 388.831 1.76039 -0.838772 0
M  V30 3977 O 388.101 1.95482 0.127935 0
M  V30 3978 H 386.681 0.269534 -0.696678 0
M  V30 3979 H 389.343 -0.00165879 -1.949 0
M  V30 3980 H 388.439 1.21293 -2.87566 0
M  V30 3981 N 388.74 1.54641 0.303973 0
M  V30 3982 C 389.67 1.88386 1.3796 0
M  V30 3983 C 390.651 0.742485 1.5304 0
M  V30 3984 O 391.836 0.997959 1.66597 0
M  V30 3985 C 388.966 2.12854 2.74427 0
M  V30 3986 C 387.92 3.28702 2.74115 0
M  V30 3987 C 387.246 3.38582 4.13844 0
M  V30 3988 C 388.546 4.65881 2.3612 0
M  V30 3989 H 390.24 2.78474 1.09966 0
M  V30 3990 H 387.786 1.33988 0.527556 0
M  V30 3991 H 389.739 2.35047 3.49758 0
M  V30 3992 H 388.463 1.19535 3.03939 0
M  V30 3993 H 387.122 3.06428 2.0124 0
M  V30 3994 H 386.77 2.42784 4.40528 0
M  V30 3995 H 386.47 4.16453 4.14537 0
M  V30 3996 H 387.994 3.63031 4.90959 0
M  V30 3997 H 389.408 4.87823 3.01167 0
M  V30 3998 H 387.805 5.46444 2.48031 0
M  V30 3999 H 388.875 4.66799 1.3125 0
M  V30 4000 N 390.218 -0.567019 1.47046 0
M  V30 4001 C 391.443 -1.3551 1.57009 0
M  V30 4002 C 391.868 -1.86841 0.217259 0
M  V30 4003 O 391.226 -1.62435 -0.805268 0
M  V30 4004 C 391.274 -2.50777 2.5912 0
M  V30 4005 O 390.378 -3.52706 2.13711 0
M  V30 4006 H 389.719 -0.402919 0.52778 0
M  V30 4007 H 392.249 -0.686241 1.92748 0
M  V30 4008 H 392.259 -2.97481 2.79229 0
M  V30 4009 H 390.934 -2.12771 3.57353 0
M  V30 4010 H 389.511 -3.12374 2.03659 0
M  V30 4011 N 391.696 -1.35014 -0.812953 0
M  V30 4012 C 392.606 -1.2951 -1.95613 0
M  V30 4013 C 393.622 -0.20107 -1.72834 0
M  V30 4014 O 394.798 -0.42932 -1.96771 0
M  V30 4015 C 391.863 -1.06033 -3.30088 0
M  V30 4016 C 390.924 -2.24688 -3.65805 0
M  V30 4017 C 390.157 -2.02322 -4.93864 0
M  V30 4018 O 390.38 -0.986464 -5.61805 0
M  V30 4019 O 389.314 -2.89525 -5.27692 0
M  V30 4020 H 393.14 -2.25705 -2.03202 0
M  V30 4021 H 390.725 -1.15321 -0.949811 0
M  V30 4022 H 392.607 -0.94763 -4.10607 0
M  V30 4023 H 391.282 -0.128852 -3.23443 0
M  V30 4024 H 390.189 -2.41521 -2.85689 0
M  V30 4025 H 391.522 -3.16261 -3.77147 0
M  V30 4026 N 393.175 1.03435 -1.18907 0
M  V30 4027 C 394.107 2.1165 -0.879595 0
M  V30 4028 C 395.12 1.62316 0.125439 0
M  V30 4029 O 396.309 1.78201 -0.103245 0
M  V30 4030 C 393.409 3.37622 -0.294042 0
M  V30 4031 C 392.582 4.16166 -1.34629 0
M  V30 4032 C 391.641 5.20457 -0.775274 0
M  V30 4033 O 390.667 5.50379 -1.4516 0
M  V30 4034 N 391.869 5.78949 0.424126 0
M  V30 4035 H 394.634 2.38791 -1.81105 0
M  V30 4036 H 392.195 1.19681 -1.09032 0
M  V30 4037 H 394.187 4.04572 0.101679 0
M  V30 4038 H 392.757 3.07873 0.541575 0
M  V30 4039 H 391.977 3.44444 -1.91707 0
M  V30 4040 H 393.265 4.65432 -2.05549 0
M  V30 4041 H 392.663 5.56948 0.991209 0
M  V30 4042 H 391.22 6.47334 0.761691 0
M  V30 4043 N 394.653 0.992116 1.22453 0
M  V30 4044 C 395.93 0.583508 1.86694 0
M  V30 4045 C 396.31 -0.9392 1.89056 0
M  V30 4046 O 395.658 -1.82081 1.38053 0
M  V30 4047 C 395.868 1.20304 3.2761 0
M  V30 4048 C 397.216 1.30308 4.0411 0
M  V30 4049 O 398.24 1.15737 3.36873 0
M  V30 4050 O 397.099 1.53615 5.24466 0
M  V30 4051 H 394.193 0.198129 0.802916 0
M  V30 4052 H 396.739 1.08794 1.30238 0
M  V30 4053 H 395.511 2.24461 3.2052 0
M  V30 4054 H 395.134 0.684144 3.9167 0
M  V30 4055 N 396.131 -1.37776 0.765217 0
M  V30 4056 C 397.377 -2.00145 0.327072 0
M  V30 4057 C 397.71 -1.60607 -1.09175 0
M  V30 4058 O 396.985 -0.849127 -1.74986 0
M  V30 4059 C 397.268 -3.57109 0.46319 0
M  V30 4060 C 397.121 -4.06576 1.92395 0
M  V30 4061 C 398.44 -4.39888 -0.136473 0
M  V30 4062 H 395.559 -0.727113 0.120316 0
M  V30 4063 H 398.201 -1.63549 0.967039 0
M  V30 4064 H 396.351 -3.88414 -0.0816358 0
M  V30 4065 H 398.023 -3.85864 2.52798 0
M  V30 4066 H 396.266 -3.59011 2.43503 0
M  V30 4067 H 396.937 -5.15639 1.97028 0
M  V30 4068 H 399.413 -4.14803 0.328317 0
M  V30 4069 H 398.289 -5.48899 -0.0110582 0
M  V30 4070 H 398.55 -4.24758 -1.22608 0
M  V30 4071 N 397.609 -0.515225 -1.4894 0
M  V30 4072 C 399.025 -0.172099 -1.58669 0
M  V30 4073 C 399.225 1.32405 -1.51892 0
M  V30 4074 O 398.281 2.10116 -1.40027 0
M  V30 4075 C 399.594 -0.761533 -2.90897 0
M  V30 4076 C 401.142 -0.728926 -3.04394 0
M  V30 4077 C 401.617 -1.29667 -4.39261 0
M  V30 4078 N 403.108 -1.25799 -4.4579 0
M  V30 4079 C 403.843 -1.66733 -5.48623 0
M  V30 4080 N 403.339 -2.15327 -6.58488 0
M  V30 4081 N 405.132 -1.58061 -5.39419 0
M  V30 4082 H 397.283 -1.48778 -1.51588 0
M  V30 4083 H 399.546 -0.617968 -0.718901 0
M  V30 4084 H 399.252 -1.81136 -3.01468 0
M  V30 4085 H 399.126 -0.230106 -3.76497 0
M  V30 4086 H 401.513 0.312098 -2.93445 0
M  V30 4087 H 401.594 -1.29766 -2.20442 0
M  V30 4088 H 401.238 -2.33655 -4.50963 0
M  V30 4089 H 401.168 -0.703752 -5.21876 0
M  V30 4090 H 403.659 -0.902102 -3.66975 0
M  V30 4091 H 403.972 -2.44594 -7.33071 0
M  V30 4092 H 402.317 -2.19311 -6.59491 0
M  V30 4093 H 405.508 -1.19906 -4.52482 0
M  V30 4094 H 405.681 -1.90284 -6.19432 0
M  V30 4095 N 399.087 1.5561 -0.249682 0
M  V30 4096 C 400.364 1.90932 0.424761 0
M  V30 4097 C 400.744 1.17078 1.75658 0
M  V30 4098 O 400.092 0.289176 2.26663 0
M  V30 4099 C 400.302 3.43975 0.590109 0
M  V30 4100 C 401.65 4.15281 0.884714 0
M  V30 4101 O 402.674 3.49729 0.67587 0
M  V30 4102 O 401.533 5.31236 1.28259 0
M  V30 4103 H 398.627 0.794815 0.228468 0
M  V30 4104 H 401.173 1.67135 -0.293954 0
M  V30 4105 H 399.945 3.89748 -0.34818 0
M  V30 4106 H 399.568 3.73644 1.35926 0
M  V30 4107 N 400.565 -0.0233959 1.57583 0
M  V30 4108 C 401.495 -1.02162 2.09965 0
M  V30 4109 C 402.476 -1.3735 1.00344 0
M  V30 4110 O 403.661 -1.46135 1.27899 0
M  V30 4111 C 400.791 -2.32081 2.58371 0
M  V30 4112 C 399.745 -2.1112 3.72307 0
M  V30 4113 C 399.071 -3.46848 4.06941 0
M  V30 4114 C 400.371 -1.49276 5.00514 0
M  V30 4115 H 402.065 -0.585557 2.93618 0
M  V30 4116 H 399.611 -0.280218 1.41247 0
M  V30 4117 H 401.564 -3.02249 2.93639 0
M  V30 4118 H 400.288 -2.77758 1.71808 0
M  V30 4119 H 398.947 -1.43384 3.37397 0
M  V30 4120 H 398.595 -3.90184 3.17436 0
M  V30 4121 H 398.295 -3.33646 4.83688 0
M  V30 4122 H 399.819 -4.18369 4.44747 0
M  V30 4123 H 401.233 -2.09368 5.33702 0
M  V30 4124 H 399.63 -1.46632 5.8191 0
M  V30 4125 H 400.7 -0.459217 4.82721 0
M  V30 4126 N 402.043 -1.548 -0.295768 0
M  V30 4127 C 403.459 -1.4613 -0.641722 0
M  V30 4128 C 403.659 -0.656771 -1.90496 0
M  V30 4129 O 402.715 -0.166547 -2.5195 0
M  V30 4130 C 404.028 -2.90141 -0.789852 0
M  V30 4131 C 405.576 -3.00216 -0.885396 0
M  V30 4132 C 406.051 -4.45434 -1.06548 0
M  V30 4133 N 407.542 -4.49166 -1.13156 0
M  V30 4134 C 408.277 -5.58717 -1.28929 0
M  V30 4135 N 407.773 -6.78182 -1.41567 0
M  V30 4136 N 409.566 -5.46415 -1.31859 0
M  V30 4137 H 401.717 -2.05574 0.534147 0
M  V30 4138 H 403.98 -0.931259 0.177372 0
M  V30 4139 H 403.686 -3.51635 0.0675598 0
M  V30 4140 H 403.56 -3.37859 -1.67724 0
M  V30 4141 H 405.947 -2.38833 -1.73329 0
M  V30 4142 H 406.028 -2.55787 0.0261185 0
M  V30 4143 H 405.672 -5.07413 -0.222335 0
M  V30 4144 H 405.602 -4.87499 -1.9913 0
M  V30 4145 H 408.093 -3.631 -1.04721 0
M  V30 4146 H 408.406 -7.57428 -1.53372 0
M  V30 4147 H 406.751 -6.81037 -1.38613 0
M  V30 4148 H 409.942 -4.5203 -1.21601 0
M  V30 4149 H 410.115 -6.31841 -1.43808 0
M  V30 4150 N 403.521 0.559213 -1.47345 0
M  V30 4151 C 404.768 1.31648 -1.53867 0
M  V30 4152 C 405.096 1.93468 -0.200104 0
M  V30 4153 O 404.351 1.78295 0.806799 0
M  V30 4154 C 404.65 2.44853 -2.6035 0
M  V30 4155 C 404.316 2.00876 -4.03683 0
M  V30 4156 C 402.978 1.88599 -4.42701 0
M  V30 4157 C 405.33 1.67279 -4.93626 0
M  V30 4158 C 402.658 1.41017 -5.69501 0
M  V30 4159 C 405.01 1.21169 -6.20887 0
M  V30 4160 C 403.674 1.07487 -6.58789 0
M  V30 4161 H 402.944 0.481734 -0.56304 0
M  V30 4162 H 405.591 0.627301 -1.80934 0
M  V30 4163 H 403.896 3.19318 -2.27032 0
M  V30 4164 H 405.593 3.03039 -2.62619 0
M  V30 4165 H 402.183 2.11374 -3.72853 0
M  V30 4166 H 406.367 1.75638 -4.64182 0
M  V30 4167 H 401.623 1.29086 -5.97618 0
M  V30 4168 H 405.797 0.942345 -6.89995 0
M  V30 4169 H 403.424 0.703946 -7.56934 0
M  V30 4170 N 404.999 1.35443 0.805782 0
M  V30 4171 C 406.247 1.28507 1.55982 0
M  V30 4172 C 406.568 -0.140046 1.94496 0
M  V30 4173 O 405.838 -1.07666 1.63661 0
M  V30 4174 H 404.418 0.472676 0.578434 0
M  V30 4175 H 407.08 1.69555 0.961098 0
M  V30 4176 H 406.176 1.90148 2.47488 0
M  V30 4177 N 406.477 -1.02803 1.19454 0
M  V30 4178 C 407.723 -1.76478 0.999171 0
M  V30 4179 C 408.056 -1.88456 -0.468828 0
M  V30 4180 O 407.331 -1.40198 -1.34814 0
M  V30 4181 C 407.614 -3.19044 1.66981 0
M  V30 4182 C 407.467 -3.14932 3.21151 0
M  V30 4183 C 408.786 -4.17456 1.39349 0
M  V30 4184 H 405.905 -0.640614 0.364393 0
M  V30 4185 H 408.547 -1.20005 1.47305 0
M  V30 4186 H 406.697 -3.67263 1.2669 0
M  V30 4187 H 408.369 -2.74605 3.70661 0
M  V30 4188 H 406.612 -2.52625 3.52652 0
M  V30 4189 H 407.283 -4.1566 3.63223 0
M  V30 4190 H 409.759 -3.77842 1.74283 0
M  V30 4191 H 408.635 -5.154 1.88823 0
M  V30 4192 H 408.896 -4.40949 0.318813 0
M  V30 4193 N 407.956 -0.998596 -1.21925 0
M  V30 4194 C 408.866 -0.562736 -2.27751 0
M  V30 4195 C 409.882 0.391203 -1.69545 0
M  V30 4196 O 411.058 0.256625 -1.99758 0
M  V30 4197 C 408.123 0.11012 -3.46525 0
M  V30 4198 C 407.184 -0.887495 -4.20026 0
M  V30 4199 C 406.417 -0.246654 -5.3313 0
M  V30 4200 O 406.64 0.958088 -5.62296 0
M  V30 4201 O 405.574 -0.954374 -5.94286 0
M  V30 4202 H 409.4 -1.44329 -2.67213 0
M  V30 4203 H 406.985 -0.767135 -1.28201 0
M  V30 4204 H 408.867 0.486756 -4.18579 0
M  V30 4205 H 407.542 0.965154 -3.08976 0
M  V30 4206 H 406.449 -1.31517 -3.5022 0
M  V30 4207 H 407.782 -1.71191 -4.6147 0
M  V30 4208 N 409.434 1.37368 -0.772513 0
M  V30 4209 C 410.384 2.27613 -0.132823 0
M  V30 4210 C 411.368 1.46138 0.673247 0
M  V30 4211 O 412.56 1.68686 0.536095 0
M  V30 4212 C 409.689 3.35122 0.744864 0
M  V30 4213 C 408.775 4.24044 -0.0690771 0
M  V30 4214 N 409.166 4.93355 -1.1151 0
M  V30 4215 C 407.464 4.45731 0.154782 0
M  V30 4216 C 408.165 5.59 -1.60917 0
M  V30 4217 N 407.141 5.35737 -0.921222 0
M  V30 4218 H 410.943 2.78675 -0.933681 0
M  V30 4219 H 408.457 1.50494 -0.610342 0
M  V30 4220 H 410.454 3.98683 1.21892 0
M  V30 4221 H 409.114 2.85616 1.54446 0
M  V30 4222 H 410.125 4.95785 -1.49726 0
M  V30 4223 H 406.802 4.07096 0.926224 0
M  V30 4224 H 408.192 6.24395 -2.48153 0
M  V30 4225 N 410.912 0.523116 1.48665 0
M  V30 4226 C 412.16 -0.0134497 2.02096 0
M  V30 4227 C 412.481 -1.35418 1.40311 0
M  V30 4228 O 411.751 -1.87543 0.566074 0
M  V30 4229 H 410.331 -0.00795915 0.746958 0
M  V30 4230 H 412.993 0.685388 1.82451 0
M  V30 4231 H 412.089 -0.126849 3.11842 0
M  V30 4232 N 412.39 -1.55475 0.257931 0
M  V30 4233 C 413.636 -1.99502 -0.364266 0
M  V30 4234 C 413.969 -1.146 -1.56782 0
M  V30 4235 O 413.244 -0.211968 -1.93342 0
M  V30 4236 C 413.527 -3.51917 -0.763333 0
M  V30 4237 C 413.38 -4.4758 0.446371 0
M  V30 4238 C 414.699 -4.09742 -1.60623 0
M  V30 4239 H 411.818 -0.725277 -0.130929 0
M  V30 4240 H 414.46 -1.8653 0.361446 0
M  V30 4241 H 412.61 -3.63101 -1.38166 0
M  V30 4242 H 414.282 -4.48362 1.08487 0
M  V30 4243 H 412.525 -4.19947 1.08753 0
M  V30 4244 H 413.196 -5.51862 0.123645 0
M  V30 4245 H 415.672 -4.01727 -1.08418 0
M  V30 4246 H 414.548 -5.16631 -1.85429 0
M  V30 4247 H 414.809 -3.58889 -2.58169 0
M  V30 4248 N 413.868 0.0150385 -1.57593 0
M  V30 4249 C 415.145 0.7392 -1.81094 0
M  V30 4250 C 415.525 1.92817 -0.859344 0
M  V30 4251 O 414.873 2.28301 0.095362 0
M  V30 4252 C 415.083 1.15907 -3.29191 0
M  V30 4253 C 416.431 1.56918 -3.9454 0
M  V30 4254 O 417.455 1.25328 -3.33424 0
M  V30 4255 O 416.314 2.15604 -5.02173 0
M  V30 4256 H 413.408 0.358631 -0.745193 0
M  V30 4257 H 415.954 -0.00926156 -1.69697 0
M  V30 4258 H 414.726 0.310921 -3.90063 0
M  V30 4259 H 414.349 1.96711 -3.45529 0
M  V30 4260 N 415.346 1.54954 0.287554 0
M  V30 4261 C 416.595 1.74081 1.01877 0
M  V30 4262 C 416.908 0.541135 1.87966 0
M  V30 4263 O 418.114 0.614491 2.64455 0
M  V30 4264 C 416.57 3.08042 1.86113 0
M  V30 4265 C 416.178 4.35531 1.04961 0
M  V30 4266 C 417.922 3.36523 2.58752 0
M  V30 4267 C 415.829 5.60538 1.88551 0
M  V30 4268 H 414.759 0.64884 0.384087 0
M  V30 4269 H 417.41 1.81426 0.275101 0
M  V30 4270 H 415.792 2.94696 2.64519 0
M  V30 4271 H 416.966 4.59751 0.31074 0
M  V30 4272 H 415.281 4.14085 0.43843 0
M  V30 4273 H 417.878 4.27122 3.21668 0
M  V30 4274 H 418.221 2.56 3.28283 0
M  V30 4275 H 418.754 3.50901 1.87386 0
M  V30 4276 H 415.493 6.43767 1.23466 0
M  V30 4277 H 415.013 5.40483 2.60074 0
M  V30 4278 H 416.692 5.98297 2.46273 0
M  V30 4279 N 416.824 -0.551391 1.4764 0
M  V30 4280 C 418.07 -1.31024 1.54792 0
M  V30 4281 C 418.403 -1.9304 0.211967 0
M  V30 4282 O 417.678 -1.78175 -0.77999 0
M  V30 4283 C 417.961 -2.41593 2.67029 0
M  V30 4284 C 417.814 -1.84408 4.10261 0
M  V30 4285 C 419.133 -3.43488 2.75143 0
M  V30 4286 H 416.252 -0.475031 0.563485 0
M  V30 4287 H 418.894 -0.616454 1.79722 0
M  V30 4288 H 417.044 -3.00772 2.45904 0
M  V30 4289 H 418.716 -1.29445 4.42766 0
M  V30 4290 H 416.959 -1.15051 4.18265 0
M  V30 4291 H 417.63 -2.64367 4.84576 0
M  V30 4292 H 420.106 -2.94236 2.94218 0
M  V30 4293 H 418.982 -4.18274 3.55441 0
M  V30 4294 H 419.243 -4.02703 1.82435 0
M  V30 4295 N 418.302 -1.35869 -0.798587 0
M  V30 4296 C 419.549 -1.29588 -1.55606 0
M  V30 4297 C 419.877 0.127456 -1.94082 0
M  V30 4298 O 419.132 1.09461 -1.62225 0
M  V30 4299 C 419.431 -2.1556 -2.85077 0
M  V30 4300 C 419.097 -3.6424 -2.65781 0
M  V30 4301 C 417.759 -4.04766 -2.60227 0
M  V30 4302 C 420.111 -4.58547 -2.47758 0
M  V30 4303 C 417.439 -5.37753 -2.34603 0
M  V30 4304 C 419.791 -5.91742 -2.23662 0
M  V30 4305 C 418.455 -6.31402 -2.16534 0
M  V30 4306 H 417.725 -0.474197 -0.569402 0
M  V30 4307 H 420.372 -1.67839 -0.922086 0
M  V30 4308 H 418.677 -1.70216 -3.52893 0
M  V30 4309 H 420.374 -2.08031 -3.42818 0
M  V30 4310 H 416.964 -3.32086 -2.70956 0
M  V30 4311 H 421.148 -4.28117 -2.51056 0
M  V30 4312 H 416.404 -5.67474 -2.2756 0
M  V30 4313 H 420.578 -6.6439 -2.08708 0
M  V30 4314 H 418.205 -7.34381 -1.96441 0
M  V30 4315 N 419.78 1.02168 -1.19998 0
M  V30 4316 C 420.743 2.08765 -0.94604 0
M  V30 4317 C 421.743 1.60618 0.0763846 0
M  V30 4318 O 422.933 1.73472 -0.159135 0
M  V30 4319 C 420.065 3.38262 -0.423255 0
M  V30 4320 H 421.258 2.32726 -1.89153 0
M  V30 4321 H 418.811 1.1889 -1.01464 0
M  V30 4322 H 419.546 3.19974 0.527938 0
M  V30 4323 H 419.331 3.74532 -1.16053 0
M  V30 4324 H 420.821 4.16759 -0.264911 0
M  V30 4325 N 421.258 1.00505 1.21394 0
M  V30 4326 C 422.483 0.706367 1.95001 0
M  V30 4327 C 422.908 -0.72463 1.73582 0
M  V30 4328 O 422.266 -1.49702 1.0227 0
M  V30 4329 C 422.314 1.03299 3.45487 0
M  V30 4330 O 421.418 0.138275 4.12168 0
M  V30 4331 H 420.759 0.263175 0.609619 0
M  V30 4332 H 423.289 1.34531 1.54151 0
M  V30 4333 H 423.299 0.979872 3.96059 0
M  V30 4334 H 421.974 2.07567 3.60401 0
M  V30 4335 H 420.551 0.247928 3.72075 0
M  V30 4336 N 422.737 -1.36956 0.779787 0
M  V30 4337 C 423.984 -1.99491 0.347766 0
M  V30 4338 C 424.312 -1.61898 -1.07793 0
M  V30 4339 O 423.567 -0.86071 -1.75756 0
M  V30 4340 C 423.866 -3.54585 0.447686 0
M  V30 4341 C 423.532 -4.1197 1.83279 0
M  V30 4342 C 422.194 -4.27356 2.2118 0
M  V30 4343 C 424.546 -4.43354 2.74019 0
M  V30 4344 C 421.874 -4.71432 3.4924 0
M  V30 4345 C 424.226 -4.88858 4.01497 0
M  V30 4346 C 422.89 -5.0245 4.39432 0
M  V30 4347 H 422.16 -0.729991 0.127257 0
M  V30 4348 H 424.807 -1.63599 0.995376 0
M  V30 4349 H 423.112 -3.90773 -0.283447 0
M  V30 4350 H 424.809 -4.00888 0.0945948 0
M  V30 4351 H 421.399 -4.00428 1.52825 0
M  V30 4352 H 425.583 -4.31045 2.45995 0
M  V30 4353 H 420.839 -4.80141 3.78516 0
M  V30 4354 H 425.013 -5.12108 4.71931 0
M  V30 4355 H 422.64 -5.36362 5.38721 0
M  V30 4356 N 424.215 -0.530993 -1.48385 0
M  V30 4357 C 425.461 0.00274135 -2.028 0
M  V30 4358 C 425.794 1.33838 -1.40716 0
M  V30 4359 O 425.069 1.86465 -0.553277 0
M  V30 4360 C 425.352 0.123676 -3.59888 0
M  V30 4361 C 425.205 -1.2372 -4.3245 0
M  V30 4362 C 426.524 0.849967 -4.31814 0
M  V30 4363 H 423.643 -0.000477758 -0.737 0
M  V30 4364 H 426.285 -0.688217 -1.77098 0
M  V30 4365 H 424.435 0.712157 -3.81917 0
M  V30 4366 H 426.107 -1.86687 -4.21836 0
M  V30 4367 H 424.35 -1.81882 -3.93829 0
M  V30 4368 H 425.021 -1.10557 -5.40815 0
M  V30 4369 H 427.497 0.350572 -4.14621 0
M  V30 4370 H 426.373 0.903486 -5.41413 0
M  V30 4371 H 426.634 1.90047 -3.99167 0
M  V30 4372 N 425.693 1.55336 -0.266172 0
M  V30 4373 C 427.109 1.59356 0.0882065 0
M  V30 4374 C 427.309 1.2834 1.55342 0
M  V30 4375 O 426.365 1.03996 2.30089 0
M  V30 4376 C 427.678 2.99409 -0.278364 0
M  V30 4377 C 429.226 3.12196 -0.224243 0
M  V30 4378 C 429.701 4.545 -0.565123 0
M  V30 4379 N 431.192 4.60313 -0.51634 0
M  V30 4380 C 431.927 5.68434 -0.753013 0
M  V30 4381 N 431.423 6.84738 -1.05383 0
M  V30 4382 N 433.216 5.57942 -0.682414 0
M  V30 4383 H 425.367 1.73764 -1.22147 0
M  V30 4384 H 427.63 0.809822 -0.492841 0
M  V30 4385 H 427.336 3.2691 -1.29703 0
M  V30 4386 H 427.21 3.75228 0.385186 0
M  V30 4387 H 429.597 2.84464 0.78512 0
M  V30 4388 H 429.678 2.38609 -0.921922 0
M  V30 4389 H 429.322 4.82956 -1.57213 0
M  V30 4390 H 429.252 5.26374 0.154248 0
M  V30 4391 H 431.743 3.7676 -0.29335 0
M  V30 4392 H 432.056 7.63088 -1.22133 0
M  V30 4393 H 430.401 6.86375 -1.09151 0
M  V30 4394 H 433.592 4.65958 -0.44731 0
M  V30 4395 H 433.765 6.4213 -0.870248 0
M  V30 4396 N 427.171 -0.0066808 1.57599 0
M  V30 4397 C 428.118 -1.00024 2.08 0
M  V30 4398 C 429.088 -1.34549 0.973943 0
M  V30 4399 O 430.273 -1.44502 1.24595 0
M  V30 4400 C 427.413 -2.2891 2.58252 0
M  V30 4401 C 426.526 -2.00346 3.82734 0
M  V30 4402 C 425.661 -3.23265 4.21513 0
M  V30 4403 C 424.7 -2.90357 5.3885 0
M  V30 4404 N 423.837 -4.05793 5.72954 0
M  V30 4405 H 428.677 -0.563499 2.92624 0
M  V30 4406 H 426.214 -0.266592 1.44664 0
M  V30 4407 H 428.172 -3.04247 2.85464 0
M  V30 4408 H 426.802 -2.70265 1.76512 0
M  V30 4409 H 425.854 -1.15406 3.62471 0
M  V30 4410 H 427.166 -1.72086 4.68175 0
M  V30 4411 H 426.32 -4.06953 4.49971 0
M  V30 4412 H 425.059 -3.54657 3.34768 0
M  V30 4413 H 424.064 -2.05075 5.10122 0
M  V30 4414 H 425.289 -2.60219 6.27266 0
M  V30 4415 H 423.235 -4.37094 4.89167 0
M  V30 4416 H 423.152 -3.81034 6.52954 0
M  V30 4417 H 424.42 -4.90289 6.06001 0
M  V30 4418 N 428.649 -1.55105 -0.279332 0
M  V30 4419 C 429.612 -1.86783 -1.32834 0
M  V30 4420 C 430.612 -0.74199 -1.42657 0
M  V30 4421 O 431.802 -1.0102 -1.41918 0
M  V30 4422 C 428.934 -2.06746 -2.71052 0
M  V30 4423 H 430.127 -2.8055 -1.05979 0
M  V30 4424 H 427.68 -1.47499 -0.517087 0
M  V30 4425 H 428.415 -1.15339 -3.03097 0
M  V30 4426 H 428.2 -2.88711 -2.65309 0
M  V30 4427 H 429.69 -2.32549 -3.46858 0
M  V30 4428 N 430.127 0.543554 -1.4793 0
M  V30 4429 C 431.352 1.32995 -1.59145 0
M  V30 4430 C 431.777 1.86472 -0.246956 0
M  V30 4431 O 431.135 1.63696 0.779324 0
M  V30 4432 C 431.183 2.46623 -2.63077 0
M  V30 4433 O 430.287 3.49261 -2.19295 0
M  V30 4434 H 429.628 0.394472 -0.534124 0
M  V30 4435 H 432.158 0.655489 -1.93816 0
M  V30 4436 H 432.168 2.93001 -2.83926 0
M  V30 4437 H 430.843 2.07059 -3.60693 0
M  V30 4438 H 429.42 3.09094 -2.08603 0
M  V30 4439 N 431.605 1.3629 0.791371 0
M  V30 4440 C 432.882 1.20962 1.53712 0
M  V30 4441 C 433.262 -0.205021 2.10102 0
M  V30 4442 O 432.61 -1.21042 1.93807 0
M  V30 4443 C 432.82 2.29002 2.63361 0
M  V30 4444 C 434.168 2.65572 3.31295 0
M  V30 4445 O 435.192 2.2803 2.73643 0
M  V30 4446 O 434.051 3.3018 4.35481 0
M  V30 4447 H 431.145 0.47086 0.679867 0
M  V30 4448 H 433.691 1.48016 0.830021 0
M  V30 4449 H 432.463 3.2382 2.19674 0
M  V30 4450 H 432.086 2.03303 3.41692 0
M  V30 4451 N 433.083 -1.0153 1.20538 0
M  V30 4452 C 434.329 -1.75408 1.01783 0
M  V30 4453 C 434.662 -1.88943 -0.448814 0
M  V30 4454 O 433.937 -1.4162 -1.33319 0
M  V30 4455 C 434.22 -3.17255 1.70356 0
M  V30 4456 C 434.073 -3.11508 3.24473 0
M  V30 4457 C 435.392 -4.15955 1.43769 0
M  V30 4458 H 432.511 -0.636713 0.371167 0
M  V30 4459 H 435.153 -1.18436 1.4857 0
M  V30 4460 H 433.303 -3.65898 1.30578 0
M  V30 4461 H 434.975 -2.70658 3.73553 0
M  V30 4462 H 433.218 -2.4887 3.55311 0
M  V30 4463 H 433.889 -4.11784 3.67611 0
M  V30 4464 H 436.365 -3.75973 1.7828 0
M  V30 4465 H 435.241 -5.13368 1.94279 0
M  V30 4466 H 435.502 -4.40586 0.365564 0
M  V30 4467 N 434.561 -1.01147 -1.20859 0
M  V30 4468 C 435.524 -0.582224 -2.21682 0
M  V30 4469 C 436.524 0.344887 -1.57058 0
M  V30 4470 O 437.714 0.134281 -1.73682 0
M  V30 4471 C 434.846 0.150496 -3.40568 0
M  V30 4472 H 436.039 -1.47408 -2.61172 0
M  V30 4473 H 433.592 -0.800695 -1.34233 0
M  V30 4474 H 434.327 1.0575 -3.06574 0
M  V30 4475 H 434.112 -0.515444 -3.88697 0
M  V30 4476 H 435.602 0.438344 -4.15293 0
M  V30 4477 N 436.039 1.36541 -0.78704 0
M  V30 4478 C 437.002 2.28413 -0.189778 0
M  V30 4479 C 438.002 1.48719 0.611499 0
M  V30 4480 O 439.192 1.68737 0.432842 0
M  V30 4481 C 436.324 3.32824 0.737638 0
M  V30 4482 H 437.517 2.82743 -0.999831 0
M  V30 4483 H 435.07 1.46065 -0.556298 0
M  V30 4484 H 435.805 2.83646 1.57212 0
M  V30 4485 H 435.59 3.91752 0.165044 0
M  V30 4486 H 437.08 4.0144 1.15047 0
M  V30 4487 N 437.518 0.538854 1.48102 0
M  V30 4488 C 438.764 0.00801365 2.02798 0
M  V30 4489 C 439.097 -1.3309 1.41424 0
M  V30 4490 O 438.372 -1.86169 0.563158 0
M  V30 4491 C 438.655 -0.104589 3.59948 0
M  V30 4492 C 438.508 1.26012 4.31788 0
M  V30 4493 C 439.827 -0.827055 4.32259 0
M  V30 4494 H 436.946 0.00438624 0.736987 0
M  V30 4495 H 439.588 0.6976 1.7673 0
M  V30 4496 H 437.738 -0.691893 3.82289 0
M  V30 4497 H 439.41 1.88922 4.2084 0
M  V30 4498 H 437.653 1.83968 3.92859 0
M  V30 4499 H 438.324 1.13424 5.40221 0
M  V30 4500 H 440.8 -0.328578 4.14801 0
M  V30 4501 H 439.676 -0.87476 5.41885 0
M  V30 4502 H 439.937 -1.87927 4.0017 0
M  V30 4503 N 438.996 -1.55193 0.274407 0
M  V30 4504 C 440.412 -1.59401 -0.0797543 0
M  V30 4505 C 440.612 -1.29162 -1.54659 0
M  V30 4506 O 439.668 -1.05215 -2.29534 0
M  V30 4507 C 440.981 -2.99257 0.294238 0
M  V30 4508 C 442.529 -3.12072 0.240796 0
M  V30 4509 C 443.004 -4.54194 0.589218 0
M  V30 4510 N 444.495 -4.60033 0.540744 0
M  V30 4511 C 445.23 -5.68027 0.783147 0
M  V30 4512 N 444.726 -6.8417 1.09013 0
M  V30 4513 N 446.519 -5.57572 0.711993 0
M  V30 4514 H 438.67 -1.73113 1.23067 0
M  V30 4515 H 440.933 -0.807197 0.497129 0
M  V30 4516 H 440.639 -3.26217 1.31435 0
M  V30 4517 H 440.513 -3.75427 -0.365281 0
M  V30 4518 H 442.9 -2.84877 -0.770024 0
M  V30 4519 H 442.981 -2.38117 0.934563 0
M  V30 4520 H 442.625 -4.82115 1.59772 0
M  V30 4521 H 442.555 -5.26448 -0.126331 0
M  V30 4522 H 445.046 -3.76599 0.313327 0
M  V30 4523 H 445.359 -7.6243 1.26178 0
M  V30 4524 H 443.704 -6.85787 1.12789 0
M  V30 4525 H 446.895 -4.65714 0.472014 0
M  V30 4526 H 447.068 -6.41659 0.90429 0
M  V30 4527 N 440.474 -0.00167713 -1.576 0
M  V30 4528 C 441.437 0.974046 -2.07473 0
M  V30 4529 C 442.437 1.27143 -0.984444 0
M  V30 4530 O 443.627 1.21633 -1.24703 0
M  V30 4531 C 440.759 2.29849 -2.51759 0
M  V30 4532 H 441.952 0.54262 -2.9495 0
M  V30 4533 H 439.505 0.245829 -1.54355 0
M  V30 4534 H 440.24 2.77677 -1.67529 0
M  V30 4535 H 440.025 2.09584 -3.31386 0
M  V30 4536 H 441.515 2.9984 -2.90664 0
M  V30 4537 N 441.952 1.55251 0.271103 0
M  V30 4538 C 442.915 1.87484 1.31842 0
M  V30 4539 C 443.915 0.749545 1.42262 0
M  V30 4540 O 445.105 1.01771 1.4138 0
M  V30 4541 C 442.237 2.0818 2.69951 0
M  V30 4542 H 443.43 2.81108 1.0449 0
M  V30 4543 H 440.983 1.47771 0.509258 0
M  V30 4544 H 441.718 1.16944 3.02481 0
M  V30 4545 H 441.503 2.90114 2.63774 0
M  V30 4546 H 442.993 2.34385 3.4562 0
M  V30 4547 N 443.43 -0.535701 1.48216 0
M  V30 4548 C 444.36 -1.65014 1.65204 0
M  V30 4549 C 445.341 -1.62554 0.501011 0
M  V30 4550 O 446.526 -1.7984 0.732886 0
M  V30 4551 C 443.656 -3.03616 1.68626 0
M  V30 4552 C 442.61 -3.20932 2.83172 0
M  V30 4553 C 441.936 -4.60537 2.71679 0
M  V30 4554 C 443.236 -3.04249 4.24535 0
M  V30 4555 H 444.93 -1.51053 2.58502 0
M  V30 4556 H 442.476 -0.725262 1.24402 0
M  V30 4557 H 444.429 -3.81446 1.79099 0
M  V30 4558 H 443.153 -3.18587 0.719026 0
M  V30 4559 H 441.812 -2.45517 2.72244 0
M  V30 4560 H 441.46 -4.72336 1.72937 0
M  V30 4561 H 441.16 -4.73069 3.48538 0
M  V30 4562 H 442.684 -5.40475 2.84112 0
M  V30 4563 H 444.098 -3.71877 4.36326 0
M  V30 4564 H 442.495 -3.28278 5.02348 0
M  V30 4565 H 443.565 -2.00739 4.41397 0
M  V30 4566 N 444.908 -1.36708 -0.784132 0
M  V30 4567 C 446.156 -1.30972 -1.53918 0
M  V30 4568 C 446.477 0.109086 -1.94695 0
M  V30 4569 O 445.747 1.05048 -1.65353 0
M  V30 4570 H 444.327 -0.481819 -0.570841 0
M  V30 4571 H 446.989 -1.71063 -0.934002 0
M  V30 4572 H 446.085 -1.94061 -2.44431 0
M  V30 4573 N 446.386 1.0089 -1.21074 0
M  V30 4574 C 447.797 1.56056 -1.02486 0
M  V30 4575 C 448.148 1.91728 0.416506 0
M  V30 4576 O 447.273 1.73066 1.29912 0
M  V30 4577 C 447.868 2.83563 -1.85411 0
M  V30 4578 C 446.427 3.3523 -1.71166 0
M  V30 4579 C 445.574 2.0846 -1.82865 0
M  V30 4580 H 448.525 0.831818 -1.35154 0
M  V30 4581 H 448.546 3.55286 -1.36205 0
M  V30 4582 H 448.058 2.57569 -2.9031 0
M  V30 4583 H 446.159 3.66167 -0.689361 0
M  V30 4584 H 446.272 4.06913 -2.52901 0
M  V30 4585 H 444.636 2.21275 -1.26132 0
M  V30 4586 H 445.419 1.84883 -2.89263 0
M  V30 4587 N 447.864 1.01787 1.20321 0
M  V30 4588 C 448.774 0.598898 2.26827 0
M  V30 4589 C 449.79 -0.36418 1.70146 0
M  V30 4590 O 450.966 -0.224812 2.00141 0
M  V30 4591 C 448.031 -0.0549769 3.46656 0
M  V30 4592 C 447.092 0.954205 4.18561 0
M  V30 4593 C 446.325 0.331439 5.3267 0
M  V30 4594 O 446.548 -0.86851 5.63749 0
M  V30 4595 O 445.482 1.0488 5.92692 0
M  V30 4596 H 449.308 1.48562 2.64883 0
M  V30 4597 H 446.893 0.787434 1.26964 0
M  V30 4598 H 448.775 -0.420102 4.19301 0
M  V30 4599 H 447.45 -0.915876 3.10473 0
M  V30 4600 H 446.357 1.37072 3.48083 0
M  V30 4601 H 447.69 1.78511 4.58688 0
M  V30 4602 N 449.342 -1.36122 0.79427 0
M  V30 4603 C 450.59 -1.98718 0.368177 0
M  V30 4604 C 450.911 -1.63345 -1.06506 0
M  V30 4605 O 450.181 -0.909825 -1.73491 0
M  V30 4606 H 448.761 -0.735038 0.133146 0
M  V30 4607 H 451.423 -1.66239 1.01739 0
M  V30 4608 H 450.519 -3.08633 0.463923 0
M  V30 4609 N 450.82 -0.546701 -1.47814 0
M  V30 4610 C 451.77 0.227042 -2.26867 0
M  V30 4611 C 452.754 0.894844 -1.33721 0
M  V30 4612 O 453.946 0.794887 -1.58147 0
M  V30 4613 C 451.075 1.26299 -3.19223 0
M  V30 4614 C 450.161 0.59913 -4.19847 0
M  V30 4615 N 450.552 -0.324777 -5.04756 0
M  V30 4616 C 448.85 0.854331 -4.37741 0
M  V30 4617 C 449.551 -0.709386 -5.77358 0
M  V30 4618 N 448.527 -0.0666153 -5.43559 0
M  V30 4619 H 452.329 -0.483476 -2.89896 0
M  V30 4620 H 449.843 -0.365893 -1.58224 0
M  V30 4621 H 451.84 1.83116 -3.74532 0
M  V30 4622 H 450.5 1.97471 -2.57751 0
M  V30 4623 H 451.511 -0.698351 -5.1317 0
M  V30 4624 H 448.188 1.55536 -3.87447 0
M  V30 4625 H 449.578 -1.46796 -6.55668 0
M  V30 4626 N 452.299 1.55045 -0.282633 0
M  V30 4627 C 453.547 1.99365 0.331334 0
M  V30 4628 C 453.868 1.1725 1.55812 0
M  V30 4629 O 453.138 0.263871 1.94115 0
M  V30 4630 H 451.718 0.736397 0.125414 0
M  V30 4631 H 454.38 1.90964 -0.389711 0
M  V30 4632 H 453.476 3.0596 0.616036 0
M  V30 4633 N 453.777 0.010035 1.57597 0
M  V30 4634 C 455.026 -0.671945 1.90178 0
M  V30 4635 C 455.339 -1.74376 0.886131 0
M  V30 4636 O 456.545 -2.48107 1.10252 0
M  V30 4637 C 455.001 -1.24636 3.3763 0
M  V30 4638 C 454.609 -0.208838 4.47513 0
M  V30 4639 C 456.353 -1.90595 3.79307 0
M  V30 4640 C 454.26 -0.793814 5.86048 0
M  V30 4641 H 453.19 -0.25474 0.709665 0
M  V30 4642 H 455.841 0.0722206 1.83358 0
M  V30 4643 H 454.223 -2.04152 3.3932 0
M  V30 4644 H 455.397 0.562463 4.57354 0
M  V30 4645 H 453.712 0.350889 4.14919 0
M  V30 4646 H 456.309 -2.35284 4.80151 0
M  V30 4647 H 456.652 -2.74074 3.13352 0
M  V30 4648 H 457.185 -1.17798 3.79958 0
M  V30 4649 H 453.924 0.00240855 6.555 0
M  V30 4650 H 453.444 -1.53404 5.79851 0
M  V30 4651 H 455.123 -1.2894 6.34022 0
M  V30 4652 N 455.255 -1.55392 -0.262866 0
M  V30 4653 C 456.202 -1.88966 -1.32516 0
M  V30 4654 C 457.172 -0.742187 -1.48596 0
M  V30 4655 O 458.357 -0.99439 -1.62839 0
M  V30 4656 C 455.497 -2.17592 -2.67858 0
M  V30 4657 C 454.61 -3.45061 -2.59917 0
M  V30 4658 C 453.745 -3.63336 -3.87505 0
M  V30 4659 C 452.784 -4.84462 -3.74116 0
M  V30 4660 N 451.921 -4.99342 -4.93561 0
M  V30 4661 H 456.761 -2.79566 -1.03184 0
M  V30 4662 H 454.298 -1.38404 -0.498285 0
M  V30 4663 H 456.256 -2.3219 -3.46617 0
M  V30 4664 H 454.886 -1.30215 -2.95371 0
M  V30 4665 H 453.938 -3.38881 -1.72812 0
M  V30 4666 H 455.25 -4.3396 -2.45926 0
M  V30 4667 H 454.404 -3.77807 -4.74707 0
M  V30 4668 H 453.143 -2.72641 -4.04374 0
M  V30 4669 H 452.148 -4.69985 -2.85297 0
M  V30 4670 H 453.373 -5.76603 -3.58757 0
M  V30 4671 H 451.319 -4.1158 -5.10821 0
M  V30 4672 H 451.236 -5.82303 -4.82141 0
M  V30 4673 H 452.504 -5.18208 -5.82306 0
M  V30 4674 N 456.733 0.527833 -1.48498 0
M  V30 4675 C 457.982 1.28003 -1.55878 0
M  V30 4676 C 458.295 1.9414 -0.238577 0
M  V30 4677 O 459.501 2.7083 -0.190643 0
M  V30 4678 C 457.957 2.32272 -2.74914 0
M  V30 4679 C 457.565 1.72196 -4.13585 0
M  V30 4680 C 459.309 3.08488 -2.91608 0
M  V30 4681 C 457.216 2.74417 -5.23879 0
M  V30 4682 H 456.146 0.481413 -0.580308 0
M  V30 4683 H 458.797 0.557195 -1.74836 0
M  V30 4684 H 457.179 3.07601 -2.49395 0
M  V30 4685 H 458.353 1.03041 -4.49132 0
M  V30 4686 H 456.668 1.08464 -4.02025 0
M  V30 4687 H 459.265 3.84879 -3.71177 0
M  V30 4688 H 459.608 3.64481 -2.01145 0
M  V30 4689 H 460.141 2.40274 -3.17038 0
M  V30 4690 H 456.88 2.23242 -6.16314 0
M  V30 4691 H 456.4 3.41893 -4.92818 0
M  V30 4692 H 458.079 3.37362 -5.52083 0
M  V30 4693 N 458.211 1.37122 0.776871 0
M  V30 4694 C 459.46 1.31373 1.53049 0
M  V30 4695 C 459.773 -0.101016 1.95339 0
M  V30 4696 O 460.979 -0.280953 2.70042 0
M  V30 4697 C 459.435 2.30567 2.76346 0
M  V30 4698 C 459.043 3.77543 2.41175 0
M  V30 4699 C 460.787 2.33818 3.54301 0
M  V30 4700 C 458.694 4.68481 3.60943 0
M  V30 4701 H 457.624 0.488234 0.574581 0
M  V30 4702 H 460.275 1.62554 0.851372 0
M  V30 4703 H 458.657 1.92396 3.46121 0
M  V30 4704 H 459.831 4.24521 1.79216 0
M  V30 4705 H 458.146 3.77187 1.76405 0
M  V30 4706 H 460.743 2.98965 4.4331 0
M  V30 4707 H 461.086 1.3503 3.93793 0
M  V30 4708 H 461.619 2.7067 2.91518 0
M  V30 4709 H 458.358 5.68378 3.26537 0
M  V30 4710 H 457.878 4.2621 4.22025 0
M  V30 4711 H 459.557 4.85366 4.27819 0
M  V30 4712 N 459.689 -1.00246 1.21608 0
M  V30 4713 C 460.914 -1.78167 1.06167 0
M  V30 4714 C 461.339 -1.84138 -0.384035 0
M  V30 4715 O 460.697 -1.28683 -1.27712 0
M  V30 4716 C 460.745 -3.19786 1.66642 0
M  V30 4717 O 459.849 -4.02153 0.913613 0
M  V30 4718 H 459.19 -0.549 0.37349 0
M  V30 4719 H 461.72 -1.25994 1.61204 0
M  V30 4720 H 461.73 -3.70451 1.70969 0
M  V30 4721 H 460.405 -3.14754 2.7185 0
M  V30 4722 H 458.982 -3.60711 0.945635 0
M  V30 4723 N 461.167 -1.02423 -1.1978 0
M  V30 4724 C 462.114 -0.601023 -2.22837 0
M  V30 4725 C 463.084 0.382801 -1.61629 0
M  V30 4726 O 464.269 0.280514 -1.88727 0
M  V30 4727 C 461.409 0.0467755 -3.45068 0
M  V30 4728 C 460.522 -0.98253 -4.20678 0
M  V30 4729 C 459.657 -0.304982 -5.30324 0
M  V30 4730 C 458.696 -1.32052 -5.97686 0
M  V30 4731 N 457.833 -0.669105 -6.98904 0
M  V30 4732 H 462.673 -1.48444 -2.58396 0
M  V30 4733 H 460.21 -0.742936 -1.2696 0
M  V30 4734 H 462.168 0.439556 -4.14878 0
M  V30 4735 H 460.798 0.893796 -3.10179 0
M  V30 4736 H 459.85 -1.49341 -3.49859 0
M  V30 4737 H 461.162 -1.75455 -4.66923 0
M  V30 4738 H 460.316 0.142893 -6.06532 0
M  V30 4739 H 459.055 0.499283 -4.85138 0
M  V30 4740 H 458.06 -1.7787 -5.20233 0
M  V30 4741 H 459.285 -2.1262 -6.44957 0
M  V30 4742 H 457.231 0.115152 -6.55899 0
M  V30 4743 H 457.148 -1.37908 -7.43315 0
M  V30 4744 H 458.416 -0.245076 -7.79115 0
M  V30 4745 N 462.645 1.35699 -0.801477 0
M  V30 4746 C 463.894 1.98165 -0.375979 0
M  V30 4747 C 464.207 1.64306 1.06127 0
M  V30 4748 O 465.413 2.20097 1.58964 0
M  V30 4749 C 463.869 3.54497 -0.621305 0
M  V30 4750 C 463.477 3.9727 -2.07076 0
M  V30 4751 C 465.221 4.23697 -0.26091 0
M  V30 4752 C 463.128 5.46427 -2.26211 0
M  V30 4753 H 462.058 0.741478 -0.136844 0
M  V30 4754 H 464.709 1.54834 -0.984814 0
M  V30 4755 H 463.091 3.95958 0.0574112 0
M  V30 4756 H 464.265 3.66974 -2.78687 0
M  V30 4757 H 462.58 3.40943 -2.39054 0
M  V30 4758 H 465.177 5.33334 -0.381994 0
M  V30 4759 H 465.52 4.0869 0.792344 0
M  V30 4760 H 466.053 3.87639 -0.893339 0
M  V30 4761 H 462.792 5.66396 -3.29963 0
M  V30 4762 H 462.312 5.78309 -1.59119 0
M  V30 4763 H 463.991 6.12819 -2.07513 0
M  V30 4764 N 464.123 0.554532 1.47522 0
M  V30 4765 C 465.033 -0.197865 2.33764 0
M  V30 4766 C 466.049 -0.914576 1.48025 0
M  V30 4767 O 467.225 -0.884067 1.80959 0
M  V30 4768 C 464.29 -1.21628 3.24665 0
M  V30 4769 C 463.351 -0.507283 4.26292 0
M  V30 4770 C 462.584 -1.47718 5.1285 0
M  V30 4771 O 462.807 -2.7118 5.01814 0
M  V30 4772 O 461.741 -1.00313 5.93482 0
M  V30 4773 H 465.567 0.50949 2.99396 0
M  V30 4774 H 463.152 0.315176 1.46038 0
M  V30 4775 H 465.034 -1.80421 3.80823 0
M  V30 4776 H 463.709 -1.9056 2.61665 0
M  V30 4777 H 462.616 0.121778 3.73902 0
M  V30 4778 H 463.949 0.140544 4.91999 0
M  V30 4779 N 465.601 -1.54893 0.290851 0
M  V30 4780 C 466.549 -2.24579 -0.605576 0
M  V30 4781 C 467.543 -1.24824 -1.14522 0
M  V30 4782 O 468.749 -1.42706 -1.09704 0
M  V30 4783 H 465.124 -0.720946 -0.213872 0
M  V30 4784 H 467.095 -2.984 0.0048173 0
M  V30 4785 C 465.844 -2.99224 -1.77088 0
M  V30 4786 H 465.167 -3.75782 -1.36484 0
M  V30 4787 H 466.607 -3.51281 -2.3744 0
M  V30 4788 C 465.066 -2.05602 -2.66888 0
M  V30 4789 O 465.596 -1.61745 -3.67698 0
M  V30 4790 N 463.802 -1.71771 -2.34399 0
M  V30 4791 H 463.349 -2.07633 -1.52468 0
M  V30 4792 H 463.307 -1.09403 -2.94751 0
M  V30 4793 N 467.08 -0.0183926 -1.57589 0
M  V30 4794 C 468.03 0.975944 -2.06057 0
M  V30 4795 C 469.014 1.29204 -0.958908 0
M  V30 4796 O 470.206 1.27995 -1.22255 0
M  V30 4797 C 467.335 2.26194 -2.58247 0
M  V30 4798 C 466.421 1.97467 -3.75323 0
M  V30 4799 N 466.812 1.38968 -4.86335 0
M  V30 4800 C 465.11 2.27515 -3.83605 0
M  V30 4801 C 465.811 1.27131 -5.67638 0
M  V30 4802 N 464.787 1.76319 -5.14211 0
M  V30 4803 H 468.589 0.518444 -2.89291 0
M  V30 4804 H 466.103 0.18688 -1.61321 0
M  V30 4805 H 468.1 2.98289 -2.91255 0
M  V30 4806 H 466.76 2.7258 -1.76438 0
M  V30 4807 H 467.771 1.06608 -5.06809 0
M  V30 4808 H 464.448 2.76649 -3.12684 0
M  V30 4809 H 465.838 0.819882 -6.66879 0
M  V30 4810 N 468.558 1.5553 0.254621 0
M  V30 4811 C 469.468 1.92789 1.33677 0
M  V30 4812 C 470.484 0.827356 1.53071 0
M  V30 4813 O 471.66 1.12807 1.66843 0
M  V30 4814 C 468.725 2.20827 2.67275 0
M  V30 4815 C 467.786 3.4427 2.5647 0
M  V30 4816 C 467.019 3.70961 3.83697 0
M  V30 4817 O 467.242 2.99852 4.85227 0
M  V30 4818 O 466.176 4.64491 3.82794 0
M  V30 4819 H 470.002 2.84945 1.05071 0
M  V30 4820 H 467.587 1.42312 0.454723 0
M  V30 4821 H 469.469 2.40204 3.46237 0
M  V30 4822 H 468.144 1.31851 2.9563 0
M  V30 4823 H 467.051 3.30209 1.75821 0
M  V30 4824 H 468.384 4.33524 2.33062 0
M  V30 4825 N 470.036 -0.519951 1.48776 0
M  V30 4826 C 471.284 -1.2727 1.56993 0
M  V30 4827 C 471.605 -1.9339 0.25004 0
M  V30 4828 O 470.875 -1.81822 -0.729216 0
M  V30 4829 H 469.455 -0.472732 0.578389 0
M  V30 4830 H 472.117 -0.604234 1.85297 0
M  V30 4831 H 471.213 -2.04669 2.3562 0
M  V30 4832 N 471.514 -1.37532 -0.769588 0
M  V30 4833 C 472.76 -1.33057 -1.53048 0
M  V30 4834 C 473.093 0.0841865 -1.94017 0
M  V30 4835 O 472.368 1.04198 -1.64235 0
M  V30 4836 C 472.651 -2.27166 -2.79406 0
M  V30 4837 C 472.504 -3.77429 -2.44677 0
M  V30 4838 C 473.823 -2.19683 -3.81349 0
M  V30 4839 H 470.942 -0.484655 -0.555228 0
M  V30 4840 H 473.584 -1.68251 -0.882702 0
M  V30 4841 H 471.734 -1.97283 -3.34682 0
M  V30 4842 H 473.406 -4.17918 -1.953 0
M  V30 4843 H 471.649 -3.95892 -1.77346 0
M  V30 4844 H 472.32 -4.38716 -3.35011 0
M  V30 4845 H 474.796 -2.46029 -3.35573 0
M  V30 4846 H 473.672 -2.87668 -4.67481 0
M  V30 4847 H 473.933 -1.19045 -4.25771 0
M  V30 4848 N 472.992 0.995999 -1.22138 0
M  V30 4849 C 473.939 2.08551 -0.988687 0
M  V30 4850 C 474.909 1.65864 0.0885021 0
M  V30 4851 O 476.094 1.90704 -0.0604589 0
M  V30 4852 C 473.234 3.40374 -0.569191 0
M  V30 4853 C 472.347 3.96421 -1.71681 0
M  V30 4854 C 471.482 5.1639 -1.2456 0
M  V30 4855 C 470.521 5.64567 -2.36497 0
M  V30 4856 N 469.658 6.75777 -1.90445 0
M  V30 4857 H 474.498 2.2779 -1.92135 0
M  V30 4858 H 472.035 1.1168 -0.957388 0
M  V30 4859 H 473.993 4.16068 -0.307166 0
M  V30 4860 H 472.623 3.21145 0.326462 0
M  V30 4861 H 471.675 3.17628 -2.09324 0
M  V30 4862 H 472.987 4.2816 -2.55891 0
M  V30 4863 H 472.141 5.99362 -0.940774 0
M  V30 4864 H 470.88 4.86266 -0.373662 0
M  V30 4865 H 469.885 4.80185 -2.67772 0
M  V30 4866 H 471.11 5.96716 -3.24202 0
M  V30 4867 H 469.056 6.47443 -1.05609 0
M  V30 4868 H 468.973 7.06818 -2.68223 0
M  V30 4869 H 470.241 7.62262 -1.63022 0
M  V30 4870 N 474.47 1.03057 1.19235 0
M  V30 4871 C 475.886 0.747947 1.40989 0
M  V30 4872 C 476.086 -0.666752 1.90149 0
M  V30 4873 O 475.142 -1.43249 2.07933 0
M  V30 4874 C 476.455 1.7855 2.41951 0
M  V30 4875 C 478.003 1.80524 2.55695 0
M  V30 4876 C 478.478 2.83243 3.59913 0
M  V30 4877 N 479.969 2.8207 3.67411 0
M  V30 4878 C 480.704 3.58204 4.47747 0
M  V30 4879 N 480.2 4.44057 5.31775 0
M  V30 4880 N 481.993 3.46738 4.42413 0
M  V30 4881 H 474.144 1.94367 0.856468 0
M  V30 4882 H 476.407 0.840412 0.438647 0
M  V30 4883 H 476.113 2.79973 2.12857 0
M  V30 4884 H 475.987 1.6092 3.41152 0
M  V30 4885 H 478.374 0.79778 2.84112 0
M  V30 4886 H 478.455 2.02229 1.56643 0
M  V30 4887 H 478.099 3.84161 3.32239 0
M  V30 4888 H 478.029 2.58795 4.5862 0
M  V30 4889 H 480.52 2.19803 3.074 0
M  V30 4890 H 480.833 4.98884 5.90199 0
M  V30 4891 H 479.178 4.48129 5.3123 0
M  V30 4892 H 482.369 2.79077 3.75811 0
M  V30 4893 H 482.542 4.06322 5.04783 0
M  V30 4894 N 475.948 -1.35272 0.808662 0
M  V30 4895 C 477.195 -1.98709 0.390003 0
M  V30 4896 C 477.523 -1.64148 -1.04335 0
M  V30 4897 O 476.778 -0.897797 -1.73891 0
M  V30 4898 C 477.077 -3.53556 0.522798 0
M  V30 4899 C 476.743 -4.0799 1.91977 0
M  V30 4900 C 475.405 -4.22568 2.30195 0
M  V30 4901 C 477.757 -4.37442 2.83361 0
M  V30 4902 C 475.085 -4.63918 3.59162 0
M  V30 4903 C 477.437 -4.80232 4.11776 0
M  V30 4904 C 476.101 -4.93016 4.49991 0
M  V30 4905 H 475.371 -0.727127 0.142712 0
M  V30 4906 H 478.018 -1.6145 1.02985 0
M  V30 4907 H 476.323 -3.91287 -0.200494 0
M  V30 4908 H 478.02 -4.00598 0.179608 0
M  V30 4909 H 474.61 -3.97096 1.61284 0
M  V30 4910 H 478.794 -4.25731 2.55083 0
M  V30 4911 H 474.05 -4.72005 3.88615 0
M  V30 4912 H 478.224 -5.01982 4.82687 0
M  V30 4913 H 475.851 -5.24814 5.49976 0
M  V30 4914 N 477.426 -0.562348 -1.47226 0
M  V30 4915 C 478.703 0.0256985 -1.95583 0
M  V30 4916 C 479.083 1.48032 -1.50498 0
M  V30 4917 O 478.431 2.15973 -0.746181 0
M  V30 4918 C 478.641 -0.125129 -3.48776 0
M  V30 4919 C 479.989 0.0175728 -4.24596 0
M  V30 4920 O 481.013 -0.0529341 -3.56161 0
M  V30 4921 O 479.872 0.170145 -5.46235 0
M  V30 4922 H 476.966 0.0612565 -0.824728 0
M  V30 4923 H 479.512 -0.629233 -1.57603 0
M  V30 4924 H 478.284 -1.13715 -3.74412 0
M  V30 4925 H 477.907 0.567178 -3.93534 0
M  V30 4926 N 478.904 1.54736 -0.299062 0
M  V30 4927 C 479.814 2.27127 0.587413 0
M  V30 4928 C 480.83 1.30575 1.15005 0
M  V30 4929 O 482.006 1.63554 1.17525 0
M  V30 4930 C 479.071 2.99645 1.74395 0
M  V30 4931 C 478.132 4.11731 1.21559 0
M  V30 4932 C 477.365 4.80781 2.317 0
M  V30 4933 O 477.588 4.4918 3.51558 0
M  V30 4934 O 476.522 5.68226 1.98501 0
M  V30 4935 H 480.348 3.037 0.000250109 0
M  V30 4936 H 477.933 1.49256 -0.0655919 0
M  V30 4937 H 479.815 3.45138 2.4178 0
M  V30 4938 H 478.49 2.25969 2.31775 0
M  V30 4939 H 477.397 3.70641 0.507514 0
M  V30 4940 H 478.73 4.87379 0.687233 0
M  V30 4941 N 480.382 0.0267497 1.57577 0
M  V30 4942 C 481.631 -0.651736 1.9088 0
M  V30 4943 C 481.944 -1.73427 0.904576 0
M  V30 4944 O 483.15 -2.46923 1.12877 0
M  V30 4945 C 481.606 -1.21048 3.38933 0
M  V30 4946 C 481.214 -0.161362 4.47709 0
M  V30 4947 C 482.958 -1.86562 3.81307 0
M  V30 4948 C 480.865 -0.731611 5.86857 0
M  V30 4949 H 479.795 -0.247198 0.712326 0
M  V30 4950 H 482.446 0.0916641 1.83271 0
M  V30 4951 H 480.828 -2.00542 3.41466 0
M  V30 4952 H 482.002 0.61094 4.56732 0
M  V30 4953 H 480.317 0.394877 4.14523 0
M  V30 4954 H 482.914 -2.30178 4.8262 0
M  V30 4955 H 483.257 -2.70735 3.16241 0
M  V30 4956 H 483.79 -1.13762 3.81186 0
M  V30 4957 H 480.529 0.0719329 6.55461 0
M  V30 4958 H 480.049 -1.47245 5.81445 0
M  V30 4959 H 481.728 -1.22208 6.35354 0
M  V30 4960 N 481.861 -1.55662 -0.24637 0
M  V30 4961 C 482.791 -1.93377 -1.30873 0
M  V30 4962 C 483.772 -0.798773 -1.50179 0
M  V30 4963 O 484.957 -1.0591 -1.62778 0
M  V30 4964 C 482.087 -2.22893 -2.66338 0
M  V30 4965 C 481.041 -3.38649 -2.61727 0
M  V30 4966 C 480.367 -3.53708 -4.00992 0
M  V30 4967 C 481.667 -4.74323 -2.18666 0
M  V30 4968 H 483.361 -2.82363 -0.995552 0
M  V30 4969 H 480.907 -1.35854 -0.477464 0
M  V30 4970 H 482.86 -2.47866 -3.40794 0
M  V30 4971 H 481.584 -1.30733 -2.99293 0
M  V30 4972 H 480.243 -3.13685 -1.89729 0
M  V30 4973 H 479.891 -2.58967 -4.31214 0
M  V30 4974 H 479.591 -4.31551 -3.98795 0
M  V30 4975 H 481.115 -3.81003 -4.77147 0
M  V30 4976 H 482.529 -4.98665 -2.82854 0
M  V30 4977 H 480.926 -5.55273 -2.27579 0
M  V30 4978 H 481.996 -4.71349 -1.13834 0
M  V30 4979 N 483.339 0.512053 -1.4905 0
M  V30 4980 C 484.249 1.64139 -1.67617 0
M  V30 4981 C 485.265 1.64786 -0.558701 0
M  V30 4982 O 486.441 1.8341 -0.832034 0
M  V30 4983 C 483.506 3.00548 -1.72835 0
M  V30 4984 C 482.567 3.10615 -2.96339 0
M  V30 4985 C 481.8 4.40517 -3.01298 0
M  V30 4986 O 482.023 5.28671 -2.14157 0
M  V30 4987 O 480.957 4.55325 -3.93653 0
M  V30 4988 H 484.783 1.51407 -2.63267 0
M  V30 4989 H 482.368 0.687131 -1.32661 0
M  V30 4990 H 484.25 3.81641 -1.78683 0
M  V30 4991 H 482.925 3.13566 -0.803616 0
M  V30 4992 H 481.832 2.2875 -2.96014 0
M  V30 4993 H 483.165 3.0252 -3.88256 0
M  V30 4994 N 484.817 1.37938 0.762283 0
M  V30 4995 C 486.063 1.33866 1.52341 0
M  V30 4996 C 486.396 -0.0738961 1.94059 0
M  V30 4997 O 485.671 -1.03326 1.64785 0
M  V30 4998 C 485.954 2.28644 2.78197 0
M  V30 4999 C 485.807 3.78722 2.42672 0
M  V30 5000 C 487.126 2.21702 3.80179 0
M  V30 5001 H 484.245 0.487593 0.55265 0
M  V30 5002 H 486.887 1.68717 0.873767 0
M  V30 5003 H 485.037 1.99055 3.33631 0
M  V30 5004 H 486.709 4.18948 1.93081 0
M  V30 5005 H 484.952 3.96827 1.75244 0
M  V30 5006 H 485.623 4.40486 3.3268 0
M  V30 5007 H 488.099 2.47805 3.34263 0
M  V30 5008 H 486.975 2.90143 4.65949 0
M  V30 5009 H 487.236 1.21301 4.25133 0
M  V30 5010 N 486.295 -0.989507 1.22664 0
M  V30 5011 C 487.52 -1.77031 1.08051 0
M  V30 5012 C 487.945 -1.84535 -0.364483 0
M  V30 5013 O 487.303 -1.3003 -1.2634 0
M  V30 5014 C 487.351 -3.18 1.70024 0
M  V30 5015 O 486.455 -4.01161 0.956216 0
M  V30 5016 H 485.796 -0.545008 0.379292 0
M  V30 5017 H 488.326 -1.24277 1.62531 0
M  V30 5018 H 488.336 -3.68616 1.74888 0
M  V30 5019 H 487.011 -3.11853 2.75174 0
M  V30 5020 H 485.588 -3.59687 0.98384 0
M  V30 5021 N 487.773 -1.03688 -1.18687 0
M  V30 5022 C 489.05 -0.652397 -1.84399 0
M  V30 5023 C 489.43 0.868386 -1.92412 0
M  V30 5024 O 488.778 1.76832 -1.44716 0
M  V30 5025 C 488.988 -1.3238 -3.22919 0
M  V30 5026 C 490.336 -1.45216 -3.98996 0
M  V30 5027 O 491.36 -1.2816 -3.32345 0
M  V30 5028 O 490.219 -1.72975 -5.18403 0
M  V30 5029 H 487.313 -0.227793 -0.795009 0
M  V30 5030 H 489.859 -1.13553 -1.2611 0
M  V30 5031 H 488.631 -2.36202 -3.11968 0
M  V30 5032 H 488.254 -0.829039 -3.88861 0
M  V30 5033 N 489.251 1.34841 -0.815825 0
M  V30 5034 C 490.499 1.98107 -0.399744 0
M  V30 5035 C 490.82 1.65019 1.03894 0
M  V30 5036 O 490.09 0.937311 1.72021 0
M  V30 5037 H 488.67 0.732827 -0.144823 0
M  V30 5038 H 491.332 1.64599 -1.0437 0
M  V30 5039 H 490.428 3.07856 -0.512965 0
M  V30 5040 N 490.729 0.570148 1.46925 0
M  V30 5041 C 491.978 0.0487352 2.01641 0
M  V30 5042 C 492.291 -1.31433 1.44861 0
M  V30 5043 O 493.497 -1.92638 1.91318 0
M  V30 5044 C 491.953 0.0365817 3.59881 0
M  V30 5045 C 491.561 1.39719 4.25655 0
M  V30 5046 C 493.305 -0.431545 4.22301 0
M  V30 5047 C 491.212 1.34345 5.75939 0
M  V30 5048 H 490.142 0.0144492 0.753862 0
M  V30 5049 H 492.793 0.719928 1.68788 0
M  V30 5050 H 491.175 -0.700522 3.89755 0
M  V30 5051 H 492.349 2.15303 4.07408 0
M  V30 5052 H 490.664 1.80431 3.75278 0
M  V30 5053 H 493.261 -0.490354 5.32447 0
M  V30 5054 H 493.604 -1.44638 3.90366 0
M  V30 5055 H 494.137 0.251102 3.97007 0
M  V30 5056 H 490.876 2.33469 6.12513 0
M  V30 5057 H 490.396 0.629615 5.96486 0
M  V30 5058 H 492.075 1.051 6.38407 0
M  V30 5059 N 492.207 -1.54576 0.307264 0
M  V30 5060 C 493.14 -2.19946 -0.608195 0
M  V30 5061 C 494.118 -1.17096 -1.12815 0
M  V30 5062 O 495.302 -1.45766 -1.19518 0
M  V30 5063 C 492.429 -2.84826 -1.8328 0
M  V30 5064 C 491.475 -4.01256 -1.44554 0
M  V30 5065 S 492.308 -5.33197 -0.49612 0
M  V30 5066 C 493.464 -6.01563 -1.72838 0
M  V30 5067 H 493.697 -2.97253 -0.0528544 0
M  V30 5068 H 491.23 -1.54129 0.0913837 0
M  V30 5069 H 493.188 -3.22832 -2.53554 0
M  V30 5070 H 491.849 -2.07353 -2.35931 0
M  V30 5071 H 491.042 -4.45457 -2.35762 0
M  V30 5072 H 490.644 -3.6484 -0.822671 0
M  V30 5073 H 492.936 -6.22751 -2.6681 0
M  V30 5074 H 493.879 -6.9552 -1.32882 0
M  V30 5075 H 494.287 -5.31279 -1.90795 0
M  V30 5076 N 493.685 -0.035106 -1.57561 0
M  V30 5077 C 494.931 0.64318 -1.92331 0
M  V30 5078 C 495.264 1.71434 -0.912368 0
M  V30 5079 O 494.539 1.94395 0.0640303 0
M  V30 5080 C 494.822 1.25411 -3.37556 0
M  V30 5081 C 494.675 0.192109 -4.4939 0
M  V30 5082 C 495.994 2.17041 -3.82859 0
M  V30 5083 H 493.113 0.232341 -0.699419 0
M  V30 5084 H 495.755 -0.0935889 -1.89769 0
M  V30 5085 H 493.905 1.88205 -3.39869 0
M  V30 5086 H 495.577 -0.438849 -4.59208 0
M  V30 5087 H 493.82 -0.481725 -4.31117 0
M  V30 5088 H 494.491 0.659292 -5.48049 0
M  V30 5089 H 496.967 1.64228 -3.8232 0
M  V30 5090 H 495.843 2.56738 -4.85157 0
M  V30 5091 H 496.104 3.06401 -3.18702 0
M  V30 5092 N 495.163 1.55791 0.238111 0
M  V30 5093 C 496.126 1.90239 1.27835 0
M  V30 5094 C 497.126 0.779552 1.4064 0
M  V30 5095 O 498.316 1.04747 1.3919 0
M  V30 5096 C 495.448 2.13859 2.65475 0
M  V30 5097 H 496.641 2.83262 0.985034 0
M  V30 5098 H 494.194 1.48818 0.477799 0
M  V30 5099 H 494.929 1.23334 2.99932 0
M  V30 5100 H 494.714 2.95643 2.57561 0
M  V30 5101 H 496.204 2.41664 3.40571 0
M  V30 5102 N 496.642 -0.504142 1.49319 0
M  V30 5103 C 498.058 -0.835039 1.36012 0
M  V30 5104 C 498.258 -1.97674 0.390808 0
M  V30 5105 O 497.314 -2.51867 -0.178655 0
M  V30 5106 C 498.627 -1.17821 2.76656 0
M  V30 5107 C 500.175 -1.2866 2.85334 0
M  V30 5108 C 500.65 -1.66307 4.26739 0
M  V30 5109 N 502.141 -1.73362 4.29534 0
M  V30 5110 C 502.876 -2.0393 5.35911 0
M  V30 5111 N 502.372 -2.32744 6.52535 0
M  V30 5112 N 504.165 -2.05155 5.23324 0
M  V30 5113 H 496.316 0.248764 2.10938 0
M  V30 5114 H 498.579 0.0486962 0.946748 0
M  V30 5115 H 498.285 -0.412682 3.4927 0
M  V30 5116 H 498.159 -2.12239 3.11825 0
M  V30 5117 H 500.546 -2.04285 2.1296 0
M  V30 5118 H 500.627 -0.323004 2.53752 0
M  V30 5119 H 500.271 -0.91234 4.99639 0
M  V30 5120 H 500.201 -2.63761 4.55782 0
M  V30 5121 H 502.692 -1.53268 3.45424 0
M  V30 5122 H 503.005 -2.55248 7.2943 0
M  V30 5123 H 501.35 -2.30207 6.55767 0
M  V30 5124 H 504.541 -1.82119 4.3122 0
M  V30 5125 H 504.714 -2.28644 6.06322 0
M  V30 5126 N 498.12 -1.38341 -0.754957 0
M  V30 5127 C 499.368 -1.34208 -1.51105 0
M  V30 5128 C 499.689 0.0677634 -1.94882 0
M  V30 5129 O 498.959 1.01517 -1.67544 0
M  V30 5130 H 497.539 -0.493819 -0.560493 0
M  V30 5131 H 500.201 -1.73005 -0.897507 0
M  V30 5132 H 499.297 -1.99203 -2.4026 0
M  V30 5133 N 499.598 0.982988 -1.23187 0
M  V30 5134 C 500.875 1.69814 -0.970707 0
M  V30 5135 C 501.255 2.04811 0.511424 0
M  V30 5136 O 500.603 1.73924 1.48198 0
M  V30 5137 C 500.813 2.94143 -1.87831 0
M  V30 5138 C 502.161 3.66712 -2.14026 0
M  V30 5139 O 503.185 3.04171 -1.8536 0
M  V30 5140 O 502.044 4.79258 -2.62629 0
M  V30 5141 H 499.138 0.741659 -0.365884 0
M  V30 5142 H 501.684 1.03844 -1.34218 0
M  V30 5143 H 500.456 2.64858 -2.88038 0
M  V30 5144 H 500.079 3.6785 -1.50905 0
M  V30 5145 N 501.076 1.04316 1.18135 0
M  V30 5146 C 502.006 0.657299 2.24058 0
M  V30 5147 C 502.987 -0.340678 1.66654 0
M  V30 5148 O 504.172 -0.220223 1.92947 0
M  V30 5149 C 501.302 0.0220715 3.47293 0
M  V30 5150 C 500.256 0.943857 4.17463 0
M  V30 5151 C 499.582 0.172973 5.3442 0
M  V30 5152 C 500.882 2.26409 4.70677 0
M  V30 5153 H 502.576 1.5428 2.56589 0
M  V30 5154 H 500.122 0.743263 1.23335 0
M  V30 5155 H 502.075 -0.259607 4.206 0
M  V30 5156 H 500.799 -0.898323 3.14003 0
M  V30 5157 H 499.458 1.20996 3.46057 0
M  V30 5158 H 499.106 -0.749907 4.97379 0
M  V30 5159 H 498.806 0.787098 5.82304 0
M  V30 5160 H 500.33 -0.101628 6.10515 0
M  V30 5161 H 501.744 2.04294 5.35665 0
M  V30 5162 H 500.141 2.8314 5.29105 0
M  V30 5163 H 501.211 2.90883 3.87962 0
M  V30 5164 N 502.554 -1.34406 0.822964 0
M  V30 5165 C 503.802 -1.97892 0.410245 0
M  V30 5166 C 504.123 -1.65567 -1.03017 0
M  V30 5167 O 503.393 -0.94642 -1.71522 0
M  V30 5168 H 501.973 -0.732049 0.148707 0
M  V30 5169 H 504.635 -1.64043 1.05242 0
M  V30 5170 H 503.731 -3.07579 0.529284 0
M  V30 5171 N 504.032 -0.577932 -1.46621 0
M  V30 5172 C 505.281 -0.0594281 -2.01612 0
M  V30 5173 C 505.594 1.30663 -1.45556 0
M  V30 5174 O 506.8 1.91621 -1.92337 0
M  V30 5175 C 505.256 -0.0556666 -3.59857 0
M  V30 5176 C 504.864 -1.41975 -4.24908 0
M  V30 5177 C 506.608 0.409143 -4.22524 0
M  V30 5178 C 504.515 -1.37397 -5.75218 0
M  V30 5179 H 503.445 -0.0184469 -0.753774 0
M  V30 5180 H 506.096 -0.728869 -1.68404 0
M  V30 5181 H 504.478 0.679843 -3.90121 0
M  V30 5182 H 505.652 -2.17461 -4.0626 0
M  V30 5183 H 503.967 -1.82419 -3.74316 0
M  V30 5184 H 506.564 0.46211 -5.32699 0
M  V30 5185 H 506.907 1.42565 -3.91128 0
M  V30 5186 H 507.44 -0.272152 -3.96868 0
M  V30 5187 H 504.179 -2.36714 -6.11267 0
M  V30 5188 H 503.699 -0.661239 -5.96144 0
M  V30 5189 H 505.378 -1.08484 -6.3784 0
M  V30 5190 N 505.51 1.54411 -0.315457 0
M  V30 5191 C 506.42 2.27737 0.56329 0
M  V30 5192 C 507.436 1.31787 1.13614 0
M  V30 5193 O 508.612 1.64791 1.15784 0
M  V30 5194 C 505.677 3.01478 1.71207 0
M  V30 5195 C 504.738 4.12997 1.17185 0
M  V30 5196 C 503.971 4.83212 2.26588 0
M  V30 5197 O 504.194 4.52884 3.46775 0
M  V30 5198 O 503.128 5.70299 1.92463 0
M  V30 5199 H 506.954 3.03683 -0.0319614 0
M  V30 5200 H 504.539 1.49178 -0.0814188 0
M  V30 5201 H 506.421 3.47683 2.38106 0
M  V30 5202 H 505.096 2.28414 2.29366 0
M  V30 5203 H 504.003 3.71159 0.468174 0
M  V30 5204 H 505.336 4.8808 0.635501 0
M  V30 5205 N 506.988 0.0434614 1.5754 0
M  V30 5206 C 508.237 -0.631454 1.91561 0
M  V30 5207 C 508.55 -1.72457 0.92292 0
M  V30 5208 O 509.756 -2.45712 1.15489 0
M  V30 5209 C 508.212 -1.17447 3.40197 0
M  V30 5210 C 507.82 -0.113867 4.47855 0
M  V30 5211 C 509.564 -1.82507 3.83264 0
M  V30 5212 C 507.471 -0.669326 5.876 0
M  V30 5213 H 506.401 -0.239629 0.714908 0
M  V30 5214 H 509.052 0.111097 1.83163 0
M  V30 5215 H 507.434 -1.96909 3.43574 0
M  V30 5216 H 508.608 0.659348 4.56058 0
M  V30 5217 H 506.923 0.438821 4.14081 0
M  V30 5218 H 509.52 -2.25047 4.85034 0
M  V30 5219 H 509.863 -2.67365 3.19095 0
M  V30 5220 H 510.396 -1.09712 3.82372 0
M  V30 5221 H 507.135 0.141449 6.55347 0
M  V30 5222 H 506.655 -1.4107 5.82974 0
M  V30 5223 H 508.334 -1.15463 6.36614 0
M  V30 5224 N 508.466 -1.55915 -0.229846 0
M  V30 5225 C 509.877 -1.68809 -0.797531 0
M  V30 5226 C 510.228 -0.643995 -1.8533 0
M  V30 5227 O 509.353 0.206492 -2.15413 0
M  V30 5228 C 509.948 -3.06043 -1.45338 0
M  V30 5229 C 508.507 -3.20819 -1.96856 0
M  V30 5230 C 507.654 -2.6472 -0.825736 0
M  V30 5231 H 510.605 -1.58699 -0.00533733 0
M  V30 5232 H 510.626 -3.01438 -2.32196 0
M  V30 5233 H 510.138 -3.82012 -0.684743 0
M  V30 5234 H 508.239 -2.49704 -2.76548 0
M  V30 5235 H 508.352 -4.27937 -2.15423 0
M  V30 5236 H 506.716 -2.22985 -1.23084 0
M  V30 5237 H 507.499 -3.43229 -0.0699019 0
M  V30 5238 N 509.944 0.496216 -1.49584 0
M  V30 5239 C 510.907 1.57952 -1.66084 0
M  V30 5240 C 511.907 1.51729 -0.53244 0
M  V30 5241 O 513.097 1.54796 -0.79899 0
M  V30 5242 C 510.229 2.97604 -1.66268 0
M  V30 5243 H 511.422 1.44649 -2.6271 0
M  V30 5244 H 508.975 0.7208 -1.38687 0
M  V30 5245 H 509.71 3.16378 -0.712432 0
M  V30 5246 H 509.495 3.03528 -2.4822 0
M  V30 5247 H 510.985 3.76301 -1.81073 0
M  V30 5248 N 511.423 1.38739 0.74761 0
M  V30 5249 C 512.333 1.38696 1.89211 0
M  V30 5250 C 513.349 0.283303 1.71678 0
M  V30 5251 O 514.525 0.522713 1.94498 0
M  V30 5252 C 511.59 1.21662 3.24653 0
M  V30 5253 C 510.651 2.41886 3.54669 0
M  V30 5254 C 509.884 2.25655 4.83648 0
M  V30 5255 O 510.107 1.25339 5.56459 0
M  V30 5256 O 509.041 3.14372 5.13277 0
M  V30 5257 H 512.867 2.35143 1.92202 0
M  V30 5258 H 510.452 1.19721 0.893708 0
M  V30 5259 H 512.334 1.14246 4.05618 0
M  V30 5260 H 511.009 0.283024 3.2246 0
M  V30 5261 H 509.916 2.54877 2.73841 0
M  V30 5262 H 511.249 3.33895 3.61628 0
M  V30 5263 N 512.901 -0.976442 1.23707 0
M  V30 5264 C 513.848 -2.06952 1.02174 0
M  V30 5265 C 514.818 -1.65984 -0.0621034 0
M  V30 5266 O 516.003 -1.90584 0.0907906 0
M  V30 5267 C 513.143 -3.39425 0.62327 0
M  V30 5268 C 512.256 -3.9364 1.77966 0
M  V30 5269 C 511.391 -5.14343 1.3276 0
M  V30 5270 C 510.43 -5.60733 2.45449 0
M  V30 5271 N 509.567 -6.72662 2.01172 0
M  V30 5272 H 514.407 -2.24704 1.95734 0
M  V30 5273 H 511.944 -1.10143 0.975034 0
M  V30 5274 H 513.902 -4.15526 0.37332 0
M  V30 5275 H 512.532 -3.21624 -0.275329 0
M  V30 5276 H 511.584 -3.14258 2.14351 0
M  V30 5277 H 512.896 -4.24035 2.62671 0
M  V30 5278 H 512.05 -5.97789 1.03601 0
M  V30 5279 H 510.789 -4.8561 0.450975 0
M  V30 5280 H 509.794 -4.75865 2.75378 0
M  V30 5281 H 511.019 -5.91483 3.33654 0
M  V30 5282 H 508.965 -6.45681 1.15895 0
M  V30 5283 H 508.882 -7.02462 2.79434 0
M  V30 5284 H 510.15 -7.59572 1.75129 0
M  V30 5285 N 514.379 -1.04941 -1.1758 0
M  V30 5286 C 515.625 -0.759112 -1.88057 0
M  V30 5287 C 515.958 0.711918 -1.8068 0
M  V30 5288 O 515.233 1.52035 -1.21308 0
M  V30 5289 C 515.516 -1.237 -3.38187 0
M  V30 5290 C 515.369 -2.77078 -3.54327 0
M  V30 5291 C 516.688 -0.834014 -4.32125 0
M  V30 5292 H 513.807 -0.277237 -0.682868 0
M  V30 5293 H 516.449 -1.30296 -1.38286 0
M  V30 5294 H 514.599 -0.774337 -3.80705 0
M  V30 5295 H 516.271 -3.31449 -3.20842 0
M  V30 5296 H 514.514 -3.16477 -2.96689 0
M  V30 5297 H 515.185 -3.05577 -4.59703 0
M  V30 5298 H 517.661 -1.23228 -3.97434 0
M  V30 5299 H 516.537 -1.19603 -5.35711 0
M  V30 5300 H 516.798 0.262195 -4.41322 0
M  V30 5301 N 515.857 1.33968 -0.830081 0
M  V30 5302 C 517.104 1.98063 -0.421566 0
M  V30 5303 C 517.432 1.65787 1.0171 0
M  V30 5304 O 516.687 0.925348 1.72441 0
M  V30 5305 C 516.986 3.52679 -0.57898 0
M  V30 5306 C 516.652 4.04884 -1.98443 0
M  V30 5307 C 515.314 4.18852 -2.36888 0
M  V30 5308 C 517.666 4.32879 -2.90285 0
M  V30 5309 C 514.994 4.58145 -3.66497 0
M  V30 5310 C 517.346 4.7362 -4.19364 0
M  V30 5311 C 516.01 4.85794 -4.57778 0
M  V30 5312 H 515.28 0.724765 -0.154262 0
M  V30 5313 H 517.927 1.59792 -1.05541 0
M  V30 5314 H 516.232 3.91556 0.138219 0
M  V30 5315 H 517.929 4.00261 -0.243317 0
M  V30 5316 H 514.519 3.9448 -1.67581 0
M  V30 5317 H 518.703 4.21619 -2.61823 0
M  V30 5318 H 513.959 4.65762 -3.96075 0
M  V30 5319 H 518.133 4.9424 -4.90612 0
M  V30 5320 H 515.76 5.15998 -5.58256 0
M  V30 5321 N 517.335 0.585699 1.46312 0
M  V30 5322 C 518.265 -0.133556 2.33118 0
M  V30 5323 C 519.246 -0.880707 1.45525 0
M  V30 5324 O 520.431 -0.855579 1.74337 0
M  V30 5325 C 517.561 -1.14585 3.27853 0
M  V30 5326 C 516.515 -0.513341 4.2491 0
M  V30 5327 C 515.841 -1.63231 5.09175 0
M  V30 5328 C 517.141 0.551413 5.19381 0
M  V30 5329 H 518.835 0.59121 2.93505 0
M  V30 5330 H 516.381 0.285761 1.41136 0
M  V30 5331 H 518.334 -1.65741 3.87438 0
M  V30 5332 H 517.058 -1.90093 2.65579 0
M  V30 5333 H 515.717 -0.0228349 3.66593 0
M  V30 5334 H 515.365 -2.37713 4.43285 0
M  V30 5335 H 515.065 -1.21473 5.74907 0
M  V30 5336 H 516.589 -2.14658 5.71624 0
M  V30 5337 H 518.003 0.124804 5.73164 0
M  V30 5338 H 516.4 0.889486 5.93471 0
M  V30 5339 H 517.47 1.43655 4.63132 0
M  V30 5340 N 518.813 -1.54241 0.323641 0
M  V30 5341 C 519.776 -2.22997 -0.529602 0
M  V30 5342 C 520.776 -1.22345 -1.04347 0
M  V30 5343 O 521.966 -1.46924 -0.935889 0
M  V30 5344 C 519.098 -2.93409 -1.73562 0
M  V30 5345 H 520.291 -2.99815 0.0714518 0
M  V30 5346 H 517.844 -1.56121 0.0747258 0
M  V30 5347 H 518.579 -2.20729 -2.37591 0
M  V30 5348 H 518.364 -3.67217 -1.37456 0
M  V30 5349 H 519.854 -3.45794 -2.34128 0
M  V30 5350 N 520.291 -0.0518155 -1.57515 0
M  V30 5351 C 521.223 0.951542 -2.08515 0
M  V30 5352 C 522.236 1.27436 -1.01311 0
M  V30 5353 O 523.425 1.23504 -1.28876 0
M  V30 5354 C 520.525 2.27291 -2.5138 0
M  V30 5355 C 519.698 2.13191 -3.81927 0
M  V30 5356 C 518.757 3.28458 -4.11098 0
M  V30 5357 O 517.783 3.04334 -4.81009 0
M  V30 5358 N 518.985 4.52954 -3.63061 0
M  V30 5359 H 521.75 0.516242 -2.9522 0
M  V30 5360 H 519.311 0.13441 -1.61341 0
M  V30 5361 H 521.303 3.03272 -2.67971 0
M  V30 5362 H 519.873 2.62386 -1.69919 0
M  V30 5363 H 519.093 1.21798 -3.74912 0
M  V30 5364 H 520.381 2.00999 -4.67415 0
M  V30 5365 H 519.779 4.75444 -3.06545 0
M  V30 5366 H 518.336 5.26026 -3.84889 0
M  V30 5367 N 521.769 1.56035 0.221574 0
M  V30 5368 C 522.716 1.92413 1.27459 0
M  V30 5369 C 523.686 0.781323 1.46576 0
M  V30 5370 O 524.871 1.03721 1.60145 0
M  V30 5371 C 522.011 2.24617 2.61995 0
M  V30 5372 C 521.124 3.51831 2.50677 0
M  V30 5373 C 520.259 3.73482 3.77736 0
M  V30 5374 C 519.298 4.94211 3.6114 0
M  V30 5375 N 518.435 5.12252 4.80148 0
M  V30 5376 H 523.275 2.82203 0.957355 0
M  V30 5377 H 520.812 1.39676 0.461415 0
M  V30 5378 H 522.77 2.41298 3.40339 0
M  V30 5379 H 521.4 1.38 2.91815 0
M  V30 5380 H 520.452 3.43343 1.63767 0
M  V30 5381 H 521.764 4.40328 2.34334 0
M  V30 5382 H 520.918 3.9026 4.64523 0
M  V30 5383 H 519.657 2.83266 3.97003 0
M  V30 5384 H 518.662 4.77384 2.72736 0
M  V30 5385 H 519.887 5.85912 3.43343 0
M  V30 5386 H 517.833 4.24978 4.99729 0
M  V30 5387 H 517.75 5.94881 4.66532 0
M  V30 5388 H 519.018 5.33465 5.68362 0
M  V30 5389 N 523.247 -0.488276 1.49845 0
M  V30 5390 C 524.18 -1.60651 1.62069 0
M  V30 5391 C 525.158 -1.5568 0.469308 0
M  V30 5392 O 526.342 -1.75553 0.686551 0
M  V30 5393 C 523.469 -2.99197 1.58741 0
M  V30 5394 C 522.515 -3.22385 2.79232 0
M  V30 5395 S 523.348 -3.04133 4.40753 0
M  V30 5396 C 524.504 -4.45052 4.4009 0
M  V30 5397 H 524.737 -1.50039 2.56662 0
M  V30 5398 H 522.27 -0.674371 1.38894 0
M  V30 5399 H 524.228 -3.79081 1.57506 0
M  V30 5400 H 522.889 -3.07213 0.654136 0
M  V30 5401 H 522.082 -4.23557 2.73159 0
M  V30 5402 H 521.684 -2.50245 2.77945 0
M  V30 5403 H 523.976 -5.37375 4.12594 0
M  V30 5404 H 524.919 -4.56172 5.41583 0
M  V30 5405 H 525.327 -4.26327 3.70008 0
M  V30 5406 N 524.725 -1.39134 -0.740242 0
M  V30 5407 C 525.658 -1.3182 -1.86276 0
M  V30 5408 C 526.636 -0.192794 -1.61453 0
M  V30 5409 O 527.82 -0.372365 -1.84786 0
M  V30 5410 C 524.947 -1.04564 -3.22155 0
M  V30 5411 C 523.993 -2.19224 -3.65846 0
M  V30 5412 S 524.826 -3.81466 -3.75824 0
M  V30 5413 C 525.982 -3.56425 -5.14502 0
M  V30 5414 H 526.215 -2.26822 -1.92195 0
M  V30 5415 H 523.748 -1.25127 -0.904576 0
M  V30 5416 H 525.706 -0.895228 -4.00619 0
M  V30 5417 H 524.367 -0.112578 -3.13898 0
M  V30 5418 H 523.56 -1.95732 -4.6444 0
M  V30 5419 H 523.162 -2.30441 -2.94572 0
M  V30 5420 H 525.454 -3.13366 -6.00673 0
M  V30 5421 H 526.397 -4.54462 -5.43019 0
M  V30 5422 H 526.805 -2.90641 -4.8393 0
M  V30 5423 N 526.204 0.969867 -1.24223 0
M  V30 5424 C 527.453 1.70687 -1.07466 0
M  V30 5425 C 527.766 1.91736 0.386861 0
M  V30 5426 O 528.972 2.62986 0.674581 0
M  V30 5427 C 527.428 3.07217 -1.87472 0
M  V30 5428 C 527.036 2.94018 -3.3802 0
M  V30 5429 C 528.78 3.84804 -1.79237 0
M  V30 5430 C 526.687 4.25844 -4.10379 0
M  V30 5431 H 525.617 0.640067 -0.398536 0
M  V30 5432 H 528.268 1.08092 -1.48285 0
M  V30 5433 H 526.65 3.70628 -1.39466 0
M  V30 5434 H 527.824 2.39632 -3.9359 0
M  V30 5435 H 526.139 2.29898 -3.47183 0
M  V30 5436 H 528.736 4.82417 -2.30603 0
M  V30 5437 H 529.079 4.09356 -0.757197 0
M  V30 5438 H 529.612 3.28115 -2.24912 0
M  V30 5439 H 526.351 4.06486 -5.14246 0
M  V30 5440 H 525.871 4.80054 -3.59594 0
M  V30 5441 H 527.55 4.94475 -4.17257 0
M  V30 5442 N 527.682 1.05563 1.17022 0
M  V30 5443 C 528.93 0.76642 1.87004 0
M  V30 5444 C 529.251 -0.708854 1.8166 0
M  V30 5445 O 528.521 -1.51242 1.2451 0
M  V30 5446 H 527.101 0.280516 0.692329 0
M  V30 5447 H 529.763 1.33557 1.41945 0
M  V30 5448 H 528.859 1.08472 2.92644 0
M  V30 5449 N 529.16 -1.33526 0.837174 0
M  V30 5450 C 530.576 -1.50727 0.524743 0
M  V30 5451 C 530.776 -1.77792 -0.948279 0
M  V30 5452 O 529.832 -1.83719 -1.73216 0
M  V30 5453 C 531.145 -2.66299 1.39661 0
M  V30 5454 C 532.693 -2.80183 1.39521 0
M  V30 5455 C 533.168 -3.98815 2.25189 0
M  V30 5456 N 534.659 -4.06047 2.2289 0
M  V30 5457 C 535.394 -4.97032 2.85915 0
M  V30 5458 N 534.89 -5.93143 3.57985 0
M  V30 5459 N 536.683 -4.90015 2.75394 0
M  V30 5460 H 528.834 -1.1422 1.79074 0
M  V30 5461 H 531.097 -0.561399 0.763894 0
M  V30 5462 H 530.803 -2.52974 2.4433 0
M  V30 5463 H 530.677 -3.61663 1.07145 0
M  V30 5464 H 533.064 -2.92942 0.356253 0
M  V30 5465 H 533.145 -1.85586 1.76044 0
M  V30 5466 H 532.789 -3.86817 3.29143 0
M  V30 5467 H 532.719 -4.92654 1.86009 0
M  V30 5468 H 535.21 -3.37262 1.70478 0
M  V30 5469 H 535.523 -6.59227 4.03286 0
M  V30 5470 H 533.868 -5.93223 3.62093 0
M  V30 5471 H 537.059 -4.13894 2.18654 0
M  V30 5472 H 537.232 -5.60724 3.24796 0
M  V30 5473 N 530.638 -0.59345 -1.46 0
M  V30 5474 C 531.878 -0.0859747 -2.04219 0
M  V30 5475 C 532.242 1.25432 -1.45364 0
M  V30 5476 O 533.443 1.85168 -1.9485 0
M  V30 5477 C 531.714 -0.0324314 -3.57385 0
M  V30 5478 S 533.273 0.415908 -4.36824 0
M  V30 5479 H 530.091 -0.0426872 -0.709717 0
M  V30 5480 H 532.693 -0.788369 -1.78899 0
M  V30 5481 H 531.397 -1.01166 -3.97735 0
M  V30 5482 H 530.928 0.6924 -3.87259 0
M  V30 5483 H 532.943 1.66844 -4.67309 0
M  V30 5484 N 532.116 1.54067 -0.331816 0
M  V30 5485 C 533.064 2.26105 0.54582 0
M  V30 5486 C 534.058 1.27816 1.11173 0
M  V30 5487 O 535.264 1.45565 1.05882 0
M  V30 5488 H 531.639 0.726363 0.194683 0
M  V30 5489 H 533.61 2.98282 -0.083931 0
M  V30 5490 C 532.359 3.03814 1.69092 0
M  V30 5491 H 531.682 3.79269 1.26473 0
M  V30 5492 H 533.122 3.57453 2.28043 0
M  V30 5493 C 531.581 2.12606 2.61343 0
M  V30 5494 O 532.111 1.71437 3.6328 0
M  V30 5495 N 530.317 1.77925 2.29763 0
M  V30 5496 H 529.864 2.11602 1.46909 0
M  V30 5497 H 529.822 1.1718 2.91747 0
M  V30 5498 N 533.594 0.0601682 1.57485 0
M  V30 5499 C 534.524 -0.90889 2.15085 0
M  V30 5500 C 535.505 -1.31838 1.07484 0
M  V30 5501 O 536.69 -1.3915 1.35466 0
M  V30 5502 C 533.82 -2.18059 2.7031 0
M  V30 5503 C 532.774 -1.91088 3.82974 0
M  V30 5504 C 532.1 -3.24789 4.24754 0
M  V30 5505 C 533.4 -1.22535 5.07723 0
M  V30 5506 H 535.094 -0.429093 2.96309 0
M  V30 5507 H 532.64 -0.204952 1.42534 0
M  V30 5508 H 534.593 -2.86258 3.09248 0
M  V30 5509 H 533.317 -2.6826 1.8629 0
M  V30 5510 H 531.976 -1.25297 3.44523 0
M  V30 5511 H 531.624 -3.72809 3.37672 0
M  V30 5512 H 531.324 -3.07538 5.00694 0
M  V30 5513 H 532.848 -3.94205 4.66299 0
M  V30 5514 H 534.262 -1.80783 5.4405 0
M  V30 5515 H 532.659 -1.1558 5.88864 0
M  V30 5516 H 533.729 -0.202692 4.84476 0
M  V30 5517 N 535.072 -1.5615 -0.213296 0
M  V30 5518 C 536.035 -1.92249 -1.24792 0
M  V30 5519 C 537.035 -0.801828 -1.39382 0
M  V30 5520 O 538.225 -1.06948 -1.37506 0
M  V30 5521 C 535.357 -2.18056 -2.62039 0
M  V30 5522 H 536.55 -2.84793 -0.939845 0
M  V30 5523 H 534.103 -1.49559 -0.454062 0
M  V30 5524 H 534.838 -1.2809 -2.97932 0
M  V30 5525 H 534.623 -2.99703 -2.52825 0
M  V30 5526 H 536.113 -2.47051 -3.36683 0
M  V30 5527 N 536.55 0.480323 -1.50102 0
M  V30 5528 C 537.798 1.23063 -1.60312 0
M  V30 5529 C 538.119 1.92659 -0.301226 0
M  V30 5530 O 537.389 1.83691 0.680753 0
M  V30 5531 H 535.969 0.457231 -0.590719 0
M  V30 5532 H 538.631 0.554893 -1.86834 0
M  V30 5533 H 537.727 1.9835 -2.40964 0
M  V30 5534 N 538.028 1.39524 0.732853 0
M  V30 5535 C 538.975 1.38416 1.84688 0
M  V30 5536 C 539.945 0.243539 1.64305 0
M  V30 5537 O 541.13 0.438979 1.85681 0
M  V30 5538 C 538.27 1.23555 3.22224 0
M  V30 5539 C 537.383 2.47179 3.54298 0
M  V30 5540 C 536.518 2.2489 4.81246 0
M  V30 5541 C 535.557 3.44178 5.0617 0
M  V30 5542 N 534.694 3.21192 6.24323 0
M  V30 5543 H 539.534 2.33645 1.84971 0
M  V30 5544 H 537.071 1.16059 0.903804 0
M  V30 5545 H 539.029 1.12949 4.0162 0
M  V30 5546 H 537.659 0.31954 3.21215 0
M  V30 5547 H 536.711 2.68379 2.69587 0
M  V30 5548 H 538.023 3.36022 3.68633 0
M  V30 5549 H 537.177 2.11538 5.68627 0
M  V30 5550 H 535.916 1.33443 4.69089 0
M  V30 5551 H 534.921 3.58025 4.17251 0
M  V30 5552 H 536.146 4.36528 5.20212 0
M  V30 5553 H 534.092 2.32413 6.1345 0
M  V30 5554 H 534.009 4.03594 6.39256 0
M  V30 5555 H 535.277 3.1154 7.14537 0
M  V30 5556 N 539.506 -0.963266 1.24736 0
M  V30 5557 C 540.917 -1.52145 1.08207 0
M  V30 5558 C 541.268 -1.93142 -0.345061 0
M  V30 5559 O 540.393 -1.77769 -1.23399 0
M  V30 5560 C 540.988 -2.76486 1.95808 0
M  V30 5561 C 539.547 -3.28646 1.8349 0
M  V30 5562 C 538.694 -2.01529 1.90476 0
M  V30 5563 H 541.645 -0.781083 1.38148 0
M  V30 5564 H 541.666 -3.49986 1.49297 0
M  V30 5565 H 541.178 -2.46617 2.99669 0
M  V30 5566 H 539.279 -3.63357 0.824787 0
M  V30 5567 H 539.392 -3.97246 2.67829 0
M  V30 5568 H 537.756 -2.16442 1.34258 0
M  V30 5569 H 538.539 -1.7402 2.95926 0
M  V30 5570 N 540.985 -1.06182 -1.16461 0
M  V30 5571 C 542.231 -0.779015 -1.87241 0
M  V30 5572 C 542.564 0.692715 -1.81425 0
M  V30 5573 O 541.839 1.5074 -1.22913 0
M  V30 5574 C 542.122 -1.2728 -3.36856 0
M  V30 5575 C 541.975 -2.80821 -3.51368 0
M  V30 5576 C 543.294 -0.879799 -4.31216 0
M  V30 5577 H 540.413 -0.284464 -0.679889 0
M  V30 5578 H 543.055 -1.31755 -1.36896 0
M  V30 5579 H 541.205 -0.814673 -3.79862 0
M  V30 5580 H 542.877 -3.34833 -3.17308 0
M  V30 5581 H 541.12 -3.19606 -2.93316 0
M  V30 5582 H 541.791 -3.10435 -4.56436 0
M  V30 5583 H 544.267 -1.27436 -3.96105 0
M  V30 5584 H 543.143 -1.25278 -5.34412 0
M  V30 5585 H 543.404 0.215372 -4.41575 0
M  V30 5586 N 542.463 1.3308 -0.844243 0
M  V30 5587 C 543.709 1.97898 -0.443206 0
M  V30 5588 C 544.042 1.66699 0.99625 0
M  V30 5589 O 543.317 0.949704 1.69738 0
M  V30 5590 C 543.6 3.53801 -0.670606 0
M  V30 5591 C 543.453 3.94667 -2.15772 0
M  V30 5592 C 544.772 4.39936 -0.120226 0
M  V30 5593 H 541.891 0.718861 -0.162504 0
M  V30 5594 H 544.533 1.57633 -1.06075 0
M  V30 5595 H 542.683 3.88229 -0.14496 0
M  V30 5596 H 544.355 3.70469 -2.74865 0
M  V30 5597 H 542.598 3.44203 -2.6402 0
M  V30 5598 H 543.269 5.03275 -2.26757 0
M  V30 5599 H 545.745 4.12183 -0.5696 0
M  V30 5600 H 544.621 5.4803 -0.308984 0
M  V30 5601 H 544.882 4.31184 0.976347 0
M  V30 5602 N 543.941 0.601185 1.45683 0
M  V30 5603 C 545.181 0.0968037 2.04171 0
M  V30 5604 C 545.545 -1.2466 1.46027 0
M  V30 5605 O 546.746 -1.84132 1.95829 0
M  V30 5606 C 545.017 0.051384 3.57363 0
M  V30 5607 S 546.576 -0.392737 4.37039 0
M  V30 5608 H 543.394 0.0464504 0.709481 0
M  V30 5609 H 545.996 0.797846 1.78479 0
M  V30 5610 H 544.7 1.03274 3.97193 0
M  V30 5611 H 544.231 -0.671853 3.87621 0
M  V30 5612 H 546.246 -1.64364 4.68187 0
M  V30 5613 N 545.419 -1.53889 0.339982 0
M  V30 5614 C 546.382 -2.23547 -0.50592 0
M  V30 5615 C 547.382 -1.23445 -1.03044 0
M  V30 5616 O 548.572 -1.47909 -0.920253 0
M  V30 5617 C 545.704 -2.95234 -1.7044 0
M  V30 5618 H 546.897 -2.99722 0.103247 0
M  V30 5619 H 544.45 -1.56033 0.0912804 0
M  V30 5620 H 545.185 -2.23236 -2.35236 0
M  V30 5621 H 544.97 -3.68654 -1.33553 0
M  V30 5622 H 546.46 -3.48258 -2.30447 0
M  V30 5623 N 546.897 -0.0685191 -1.57451 0
M  V30 5624 C 548.125 0.610462 -1.97689 0
M  V30 5625 C 548.54 1.63346 -0.946758 0
M  V30 5626 O 547.897 1.82377 0.0669868 0
M  V30 5627 C 547.948 1.28196 -3.38006 0
M  V30 5628 O 547.669 0.299906 -4.37072 0
M  V30 5629 C 549.17 2.04907 -3.931 0
M  V30 5630 H 546.39 0.165689 -0.650222 0
M  V30 5631 H 548.934 -0.139953 -2.04021 0
M  V30 5632 H 547.089 1.98348 -3.32771 0
M  V30 5633 H 547.503 0.78126 -5.18649 0
M  V30 5634 H 548.977 2.47287 -4.93511 0
M  V30 5635 H 549.454 2.9043 -3.29465 0
M  V30 5636 H 550.06 1.39629 -4.01726 0
M  V30 5637 N 548.375 1.56261 0.205012 0
M  V30 5638 C 549.307 1.90266 1.27795 0
M  V30 5639 C 550.32 0.792397 1.42214 0
M  V30 5640 O 551.509 1.07077 1.42817 0
M  V30 5641 C 548.609 2.11074 2.65143 0
M  V30 5642 C 547.782 3.42176 2.7246 0
M  V30 5643 C 546.841 3.52216 3.90936 0
M  V30 5644 O 545.867 4.25119 3.78501 0
M  V30 5645 N 547.069 2.84573 5.05963 0
M  V30 5646 H 549.834 2.82896 0.989434 0
M  V30 5647 H 547.395 1.57008 0.394981 0
M  V30 5648 H 549.387 2.15089 3.4281 0
M  V30 5649 H 547.957 1.2499 2.86524 0
M  V30 5650 H 547.177 3.50116 1.81142 0
M  V30 5651 H 548.465 4.28509 2.74331 0
M  V30 5652 H 547.863 2.25152 5.18963 0
M  V30 5653 H 546.42 2.94228 5.81613 0
M  V30 5654 N 549.853 -0.472356 1.50355 0
M  V30 5655 C 550.786 -1.58923 1.63764 0
M  V30 5656 C 551.764 -1.55173 0.485793 0
M  V30 5657 O 552.948 -1.74815 0.705132 0
M  V30 5658 C 550.075 -2.97497 1.61905 0
M  V30 5659 C 549.121 -3.19405 2.82635 0
M  V30 5660 S 549.954 -2.99441 4.43954 0
M  V30 5661 C 551.11 -4.40359 4.44786 0
M  V30 5662 H 551.343 -1.47309 2.58239 0
M  V30 5663 H 548.876 -0.659601 1.39602 0
M  V30 5664 H 550.834 -3.77389 1.61518 0
M  V30 5665 H 549.495 -3.06502 0.686683 0
M  V30 5666 H 548.688 -4.20636 2.77636 0
M  V30 5667 H 548.29 -2.47283 2.80583 0
M  V30 5668 H 550.582 -5.32969 4.1827 0
M  V30 5669 H 551.525 -4.50403 5.46391 0
M  V30 5670 H 551.933 -4.22378 3.74509 0
M  V30 5671 N 551.331 -1.39911 -0.725443 0
M  V30 5672 C 552.261 -1.42138 -1.85254 0
M  V30 5673 C 553.242 -0.283513 -1.67721 0
M  V30 5674 O 554.427 -0.490717 -1.87898 0
M  V30 5675 C 551.557 -1.27354 -3.23107 0
M  V30 5676 C 550.511 -2.3864 -3.55296 0
M  V30 5677 C 549.837 -2.08939 -4.92188 0
M  V30 5678 C 551.137 -3.8097 -3.57295 0
M  V30 5679 H 552.831 -2.36461 -1.83648 0
M  V30 5680 H 550.377 -1.13817 -0.882138 0
M  V30 5681 H 552.33 -1.2753 -4.01639 0
M  V30 5682 H 551.054 -0.295025 -3.25265 0
M  V30 5683 H 549.713 -2.37696 -2.79099 0
M  V30 5684 H 549.361 -1.09502 -4.90936 0
M  V30 5685 H 549.061 -2.83491 -5.14691 0
M  V30 5686 H 550.585 -2.10781 -5.73065 0
M  V30 5687 H 551.999 -3.8379 -4.25885 0
M  V30 5688 H 550.396 -4.5496 -3.9132 0
M  V30 5689 H 551.466 -4.11261 -2.5689 0
M  V30 5690 N 552.809 0.956637 -1.25245 0
M  V30 5691 C 553.719 2.0868 -1.0719 0
M  V30 5692 C 554.735 1.73997 -0.00959074 0
M  V30 5693 O 555.911 2.00301 -0.210104 0
M  V30 5694 C 552.976 3.39754 -0.690526 0
M  V30 5695 C 552.037 3.88316 -1.83055 0
M  V30 5696 C 551.27 5.13134 -1.46728 0
M  V30 5697 O 551.493 5.6925 -0.362029 0
M  V30 5698 O 550.427 5.56356 -2.29677 0
M  V30 5699 H 554.253 2.26813 -2.01965 0
M  V30 5700 H 551.838 1.07098 -1.04165 0
M  V30 5701 H 553.72 4.18543 -0.489871 0
M  V30 5702 H 552.395 3.22896 0.227981 0
M  V30 5703 H 551.302 3.1054 -2.08604 0
M  V30 5704 H 552.635 4.09669 -2.72822 0
M  V30 5705 N 554.287 1.06798 1.15896 0
M  V30 5706 C 555.512 0.808739 1.90982 0
M  V30 5707 C 555.937 -0.6316 1.77179 0
M  V30 5708 O 555.295 -1.4407 1.10061 0
M  V30 5709 C 555.343 1.21468 3.39526 0
M  V30 5710 O 554.447 0.356562 4.10856 0
M  V30 5711 H 553.788 0.29512 0.594811 0
M  V30 5712 H 556.318 1.42513 1.46804 0
M  V30 5713 H 556.328 1.18844 3.90308 0
M  V30 5714 H 555.003 2.26379 3.48891 0
M  V30 5715 H 553.58 0.444808 3.70238 0
M  V30 5716 N 555.766 -1.3263 0.851289 0
M  V30 5717 C 556.699 -2.26952 0.238318 0
M  V30 5718 C 557.677 -1.50243 -0.621757 0
M  V30 5719 O 558.861 -1.79378 -0.579298 0
M  V30 5720 C 555.988 -3.32124 -0.664178 0
M  V30 5721 C 555.034 -4.26325 0.122067 0
M  V30 5722 S 555.867 -5.14404 1.48824 0
M  V30 5723 C 557.023 -6.231 0.591372 0
M  V30 5724 H 557.256 -2.78594 1.03791 0
M  V30 5725 H 554.789 -1.4011 0.648731 0
M  V30 5726 H 556.747 -3.93197 -1.17924 0
M  V30 5727 H 555.408 -2.79273 -1.43755 0
M  V30 5728 H 554.601 -5.00821 -0.565181 0
M  V30 5729 H 554.203 -3.69652 0.568602 0
M  V30 5730 H 556.495 -6.77187 -0.205762 0
M  V30 5731 H 557.438 -6.95936 1.30687 0
M  V30 5732 H 557.846 -5.64252 0.167206 0
M  V30 5733 N 557.244 -0.608902 -1.45362 0
M  V30 5734 C 558.493 -0.10218 -2.01441 0
M  V30 5735 C 558.806 1.27546 -1.48295 0
M  V30 5736 O 560.012 1.87498 -1.96359 0
M  V30 5737 C 558.468 -0.131985 -3.59658 0
M  V30 5738 C 558.076 -1.50956 -4.21801 0
M  V30 5739 C 559.82 0.319427 -4.23296 0
M  V30 5740 C 557.727 -1.49568 -5.72174 0
M  V30 5741 H 556.657 -0.0344314 -0.753213 0
M  V30 5742 H 559.308 -0.764426 -1.6682 0
M  V30 5743 H 557.69 0.596939 -3.91475 0
M  V30 5744 H 558.864 -2.26029 -4.01556 0
M  V30 5745 H 557.179 -1.90318 -3.70362 0
M  V30 5746 H 559.776 0.349013 -5.3356 0
M  V30 5747 H 560.119 1.34237 -3.94064 0
M  V30 5748 H 560.652 -0.356273 -3.96201 0
M  V30 5749 H 557.391 -2.49626 -6.06108 0
M  V30 5750 H 556.911 -0.787542 -5.94607 0
M  V30 5751 H 558.59 -1.21989 -6.35396 0
M  V30 5752 N 558.722 1.53707 -0.348139 0
M  V30 5753 C 559.95 2.05406 0.248224 0
M  V30 5754 C 560.365 1.22282 1.43849 0
M  V30 5755 O 559.722 0.259244 1.80649 0
M  V30 5756 C 559.773 3.55446 0.658793 0
M  V30 5757 O 559.494 4.35417 -0.484149 0
M  V30 5758 C 560.995 4.23335 1.31539 0
M  V30 5759 H 558.215 0.669344 0.0471075 0
M  V30 5760 H 560.759 1.98257 -0.501456 0
M  V30 5761 H 558.914 3.62803 1.35841 0
M  V30 5762 H 559.328 5.24268 -0.155949 0
M  V30 5763 H 560.802 5.29692 1.55338 0
M  V30 5764 H 561.279 3.75967 2.27036 0
M  V30 5765 H 561.885 4.20184 0.657683 0
M  V30 5766 N 560.2 0.0768682 1.57412 0
M  V30 5767 C 561.147 -0.888577 2.13009 0
M  V30 5768 C 562.117 -1.29198 1.0439 0
M  V30 5769 O 563.302 -1.37694 1.3208 0
M  V30 5770 C 560.442 -2.14899 2.70023 0
M  V30 5771 C 559.555 -1.79777 3.92816 0
M  V30 5772 C 558.69 -3.00467 4.38056 0
M  V30 5773 C 557.729 -2.61385 5.53484 0
M  V30 5774 N 556.866 -3.74851 5.93659 0
M  V30 5775 H 561.706 -0.407593 2.95199 0
M  V30 5776 H 559.243 -0.189534 1.45874 0
M  V30 5777 H 561.201 -2.88688 3.0119 0
M  V30 5778 H 559.831 -2.60529 1.9059 0
M  V30 5779 H 558.883 -0.960301 3.68079 0
M  V30 5780 H 560.195 -1.47027 4.76639 0
M  V30 5781 H 559.349 -3.82529 4.7091 0
M  V30 5782 H 558.088 -3.36413 3.53097 0
M  V30 5783 H 557.093 -1.77746 5.20275 0
M  V30 5784 H 558.318 -2.26603 6.40178 0
M  V30 5785 H 556.264 -4.1055 5.11649 0
M  V30 5786 H 556.181 -3.45887 6.72234 0
M  V30 5787 H 557.449 -4.57477 6.31138 0
M  V30 5788 N 561.678 -1.56367 -0.196722 0
M  V30 5789 C 563.089 -1.70462 -0.761545 0
M  V30 5790 C 563.44 -0.683161 -1.83922 0
M  V30 5791 O 562.565 0.160753 -2.15802 0
M  V30 5792 C 563.16 -3.09057 -1.38814 0
M  V30 5793 C 561.719 -3.24922 -1.90007 0
M  V30 5794 C 560.866 -2.66412 -0.769399 0
M  V30 5795 H 563.817 -1.58675 0.0283263 0
M  V30 5796 H 563.838 -3.06296 -2.2575 0
M  V30 5797 H 563.35 -3.83378 -0.603559 0
M  V30 5798 H 561.451 -2.55514 -2.71189 0
M  V30 5799 H 561.564 -4.3241 -2.06297 0
M  V30 5800 H 559.928 -2.25546 -1.18326 0
M  V30 5801 H 560.711 -3.433 0.00291773 0
M  V30 5802 N 563.156 0.464375 -1.50603 0
M  V30 5803 C 564.572 0.798684 -1.38178 0
M  V30 5804 C 564.772 1.96568 -0.44308 0
M  V30 5805 O 563.828 2.52252 0.111814 0
M  V30 5806 C 565.141 1.10444 -2.79683 0
M  V30 5807 C 566.689 1.2105 -2.88645 0
M  V30 5808 C 567.164 1.54934 -4.30998 0
M  V30 5809 N 568.655 1.61913 -4.3398 0
M  V30 5810 C 569.39 1.8965 -5.41129 0
M  V30 5811 N 568.886 2.15361 -6.58477 0
M  V30 5812 N 570.679 1.91207 -5.28579 0
M  V30 5813 H 562.83 -0.304603 -2.10204 0
M  V30 5814 H 565.093 -0.0737804 -0.945125 0
M  V30 5815 H 564.799 0.319934 -3.50242 0
M  V30 5816 H 564.673 2.03896 -3.17342 0
M  V30 5817 H 567.06 1.98567 -2.18301 0
M  V30 5818 H 567.141 0.255613 -2.5452 0
M  V30 5819 H 566.785 0.779549 -5.01882 0
M  V30 5820 H 566.715 2.51584 -4.62615 0
M  V30 5821 H 569.206 1.44055 -3.49366 0
M  V30 5822 H 569.519 2.35818 -7.35941 0
M  V30 5823 H 567.864 2.1274 -6.6164 0
M  V30 5824 H 571.055 1.70622 -4.35897 0
M  V30 5825 H 571.228 2.12488 -6.12171 0
M  V30 5826 N 564.634 1.40294 0.718013 0
M  V30 5827 C 566.045 1.34289 1.29705 0
M  V30 5828 C 566.396 0.0152228 1.96194 0
M  V30 5829 O 565.521 -0.88682 1.97394 0
M  V30 5830 C 566.116 2.43219 2.3586 0
M  V30 5831 C 564.675 2.40682 2.89394 0
M  V30 5832 C 563.822 2.24223 1.63154 0
M  V30 5833 H 566.773 1.50135 0.514312 0
M  V30 5834 H 566.794 2.10986 3.16647 0
M  V30 5835 H 566.306 3.39836 1.87439 0
M  V30 5836 H 564.407 1.47756 3.42051 0
M  V30 5837 H 564.52 3.36177 3.41353 0
M  V30 5838 H 562.884 1.71696 1.88129 0
M  V30 5839 H 563.667 3.22834 1.16761 0
M  V30 5840 N 566.112 -0.949982 1.2575 0
M  V30 5841 C 567.34 -1.72972 1.13527 0
M  V30 5842 C 567.755 -1.8623 -0.310453 0
M  V30 5843 O 567.112 -1.36336 -1.2132 0
M  V30 5844 C 567.163 -3.14108 1.78936 0
M  V30 5845 O 566.884 -3.01493 3.17858 0
M  V30 5846 C 568.385 -4.08338 1.72554 0
M  V30 5847 H 565.605 -0.541864 0.395758 0
M  V30 5848 H 568.149 -1.19151 1.66202 0
M  V30 5849 H 566.304 -3.64858 1.30221 0
M  V30 5850 H 566.718 -3.90559 3.50092 0
M  V30 5851 H 568.192 -5.04963 2.22973 0
M  V30 5852 H 568.669 -4.33742 0.690251 0
M  V30 5853 H 569.275 -3.63506 2.2078 0
M  V30 5854 N 567.59 -1.07411 -1.15328 0
M  V30 5855 C 569.006 -0.799759 -1.38116 0
M  V30 5856 C 569.206 0.59572 -1.92493 0
M  V30 5857 O 568.262 1.35433 -2.13106 0
M  V30 5858 C 569.575 -1.87407 -2.35158 0
M  V30 5859 C 571.123 -1.89889 -2.48819 0
M  V30 5860 C 571.598 -2.96406 -3.49153 0
M  V30 5861 N 573.089 -2.95512 -3.56689 0
M  V30 5862 C 573.824 -3.74575 -4.34144 0
M  V30 5863 N 573.32 -4.63488 -5.14928 0
M  V30 5864 N 575.113 -3.62919 -4.29239 0
M  V30 5865 H 567.264 -1.97411 -0.78374 0
M  V30 5866 H 569.527 -0.856113 -0.407154 0
M  V30 5867 H 569.233 -2.8768 -2.0232 0
M  V30 5868 H 569.107 -1.73471 -3.34944 0
M  V30 5869 H 571.494 -0.902677 -2.80955 0
M  V30 5870 H 571.575 -2.07904 -1.49029 0
M  V30 5871 H 571.219 -3.96227 -3.17752 0
M  V30 5872 H 571.149 -2.75638 -4.48699 0
M  V30 5873 H 573.64 -2.31061 -2.99031 0
M  V30 5874 H 573.953 -5.20445 -5.71276 0
M  V30 5875 H 572.298 -4.67537 -5.14232 0
M  V30 5876 H 575.489 -2.92833 -3.65194 0
M  V30 5877 H 575.662 -4.24777 -4.89355 0
M  V30 5878 N 569.068 1.32177 -0.85831 0
M  V30 5879 C 570.031 2.27086 -0.310588 0
M  V30 5880 C 571.031 1.51751 0.531806 0
M  V30 5881 O 572.221 1.70794 0.34279 0
M  V30 5882 C 569.353 3.36266 0.560179 0
M  V30 5883 H 570.546 2.77045 -1.1483 0
M  V30 5884 H 568.099 1.42911 -0.632942 0
M  V30 5885 H 568.834 2.9158 1.41956 0
M  V30 5886 H 568.619 3.92077 -0.0428473 0
M  V30 5887 H 570.109 4.06974 0.936056 0
M  V30 5888 N 570.547 0.616602 1.45037 0
M  V30 5889 C 571.457 -0.0985401 2.34393 0
M  V30 5890 C 572.473 -0.850971 1.51771 0
M  V30 5891 O 573.649 -0.806521 1.84546 0
M  V30 5892 C 570.714 -1.07748 3.29532 0
M  V30 5893 C 569.775 -0.326022 4.2806 0
M  V30 5894 C 569.008 -1.25833 5.18654 0
M  V30 5895 O 569.231 -2.49652 5.12864 0
M  V30 5896 O 568.165 -0.750512 5.97203 0
M  V30 5897 H 571.991 0.636016 2.96966 0
M  V30 5898 H 569.576 0.376832 1.44569 0
M  V30 5899 H 571.458 -1.64107 3.88133 0
M  V30 5900 H 570.133 -1.79291 2.69512 0
M  V30 5901 H 569.04 0.280253 3.73049 0
M  V30 5902 H 570.373 0.349091 4.9096 0
M  V30 5903 N 572.025 -1.5352 0.356285 0
M  V30 5904 C 573.253 -2.05534 -0.237328 0
M  V30 5905 C 573.668 -1.23043 -1.43199 0
M  V30 5906 O 573.025 -0.268821 -1.80509 0
M  V30 5907 C 573.076 -3.55791 -0.639933 0
M  V30 5908 O 572.797 -4.35154 0.507233 0
M  V30 5909 C 574.298 -4.24027 -1.29292 0
M  V30 5910 H 571.518 -0.669585 -0.0435572 0
M  V30 5911 H 574.062 -1.97988 0.511963 0
M  V30 5912 H 572.217 -3.63518 -1.33915 0
M  V30 5913 H 572.631 -5.24178 0.18375 0
M  V30 5914 H 574.105 -5.30509 -1.52527 0
M  V30 5915 H 574.582 -3.77166 -2.25039 0
M  V30 5916 H 575.188 -4.20527 -0.63539 0
M  V30 5917 N 573.503 -0.0852151 -1.57369 0
M  V30 5918 C 574.728 0.592872 -1.98746 0
M  V30 5919 C 575.153 1.61538 -0.963689 0
M  V30 5920 O 574.511 1.81168 0.069071 0
M  V30 5921 C 574.559 1.22599 -3.39119 0
M  V30 5922 O 573.663 2.34185 -3.39457 0
M  V30 5923 H 573.004 0.151314 -0.646529 0
M  V30 5924 H 575.534 -0.163703 -2.03944 0
M  V30 5925 H 575.544 1.56965 -3.76598 0
M  V30 5926 H 574.219 0.476831 -4.13158 0
M  V30 5927 H 572.796 2.01512 -3.13763 0
M  V30 5928 N 574.981 1.5647 0.188427 0
M  V30 5929 C 576.258 1.71857 0.934058 0
M  V30 5930 C 576.638 0.641867 2.01105 0
M  V30 5931 O 575.986 -0.346098 2.25864 0
M  V30 5932 C 576.196 3.14431 1.5144 0
M  V30 5933 C 577.544 3.74869 1.99396 0
M  V30 5934 O 578.568 3.17601 1.61269 0
M  V30 5935 O 577.427 4.75387 2.69573 0
M  V30 5936 H 574.521 0.701186 0.438483 0
M  V30 5937 H 577.067 1.68768 0.177599 0
M  V30 5938 H 575.839 3.8427 0.738416 0
M  V30 5939 H 575.462 3.21775 2.33552 0
M  V30 5940 N 576.459 -0.456382 1.50847 0
M  V30 5941 C 577.705 -1.20914 1.62811 0
M  V30 5942 C 578.038 -1.91301 0.334304 0
M  V30 5943 O 577.313 -1.82775 -0.665098 0
M  V30 5944 C 577.596 -2.24122 2.81853 0
M  V30 5945 C 577.449 -1.57944 4.21158 0
M  V30 5946 C 578.768 -3.25295 2.96431 0
M  V30 5947 H 575.887 -0.438233 0.592554 0
M  V30 5948 H 578.529 -0.50091 1.83278 0
M  V30 5949 H 576.679 -2.84524 2.64534 0
M  V30 5950 H 578.351 -1.01025 4.50102 0
M  V30 5951 H 576.594 -0.882185 4.24735 0
M  V30 5952 H 577.265 -2.33014 5.00408 0
M  V30 5953 H 579.741 -2.7493 3.12335 0
M  V30 5954 H 578.617 -3.94822 3.81322 0
M  V30 5955 H 578.878 -3.90286 2.07676 0
M  V30 5956 N 577.937 -1.40673 -0.710563 0
M  V30 5957 C 578.9 -1.4108 -1.80635 0
M  V30 5958 C 579.9 -0.303783 -1.57904 0
M  V30 5959 O 581.09 -0.562937 -1.64853 0
M  V30 5960 C 578.222 -1.20748 -3.18799 0
M  V30 5961 H 579.415 -2.38612 -1.81671 0
M  V30 5962 H 576.968 -1.26595 -0.916704 0
M  V30 5963 H 577.703 -0.239964 -3.23411 0
M  V30 5964 H 577.488 -2.00941 -3.36698 0
M  V30 5965 H 578.978 -1.23833 -3.98817 0
M  V30 5966 N 579.415 0.9433 -1.26252 0
M  V30 5967 C 580.363 2.06302 -1.07434 0
M  V30 5968 C 581.357 1.694 -0.00189471 0
M  V30 5969 O 582.563 1.79302 -0.158408 0
M  V30 5970 H 578.938 0.675453 -0.330556 0
M  V30 5971 H 580.909 2.19326 -2.02333 0
M  V30 5972 C 579.658 3.40125 -0.721817 0
M  V30 5973 H 578.981 3.68996 -1.5389 0
M  V30 5974 H 580.421 4.19295 -0.629922 0
M  V30 5975 C 578.88 3.31993 0.572902 0
M  V30 5976 O 579.41 3.67945 1.61182 0
M  V30 5977 N 577.616 2.85099 0.562748 0
M  V30 5978 H 577.163 2.5604 -0.283092 0
M  V30 5979 H 577.121 2.80041 1.42915 0
M  V30 5980 N 580.893 1.08022 1.14757 0
M  V30 5981 C 581.856 0.71048 2.1791 0
M  V30 5982 C 582.856 -0.252731 1.58801 0
M  V30 5983 O 584.046 -0.0327915 1.74169 0
M  V30 5984 C 581.178 0.0483203 3.40866 0
M  V30 5985 H 582.371 1.62384 2.52134 0
M  V30 5986 H 579.924 0.877595 1.29337 0
M  V30 5987 H 580.659 -0.876959 3.12218 0
M  V30 5988 H 580.444 0.741189 3.85031 0
M  V30 5989 H 581.934 -0.195471 4.17142 0
M  V30 5990 N 582.371 -1.3172 0.865308 0
M  V30 5991 C 583.617 -1.97168 0.474633 0
M  V30 5992 C 583.95 -1.68263 -0.969604 0
M  V30 5993 O 583.225 -0.976588 -1.68205 0
M  V30 5994 C 583.508 -3.52689 0.726808 0
M  V30 5995 C 583.361 -3.91185 2.22024 0
M  V30 5996 C 584.68 -4.39689 0.190201 0
M  V30 5997 H 581.799 -0.716185 0.17392 0
M  V30 5998 H 584.441 -1.55925 1.08569 0
M  V30 5999 H 582.591 -3.8795 0.206705 0
M  V30 6000 H 584.263 -3.66049 2.80724 0
M  V30 6001 H 582.506 -3.3996 2.69462 0
M  V30 6002 H 583.177 -4.99604 2.34735 0
M  V30 6003 H 585.653 -4.11225 0.635103 0
M  V30 6004 H 584.529 -5.47469 0.396132 0
M  V30 6005 H 584.79 -4.32683 -0.907625 0
M  V30 6006 N 583.85 -0.624285 -1.44708 0
M  V30 6007 C 584.779 0.0717025 -2.3339 0
M  V30 6008 C 585.76 0.841814 -1.47809 0
M  V30 6009 O 586.946 0.809056 -1.76544 0
M  V30 6010 C 584.076 1.05852 -3.30776 0
M  V30 6011 C 583.029 0.400503 -4.26122 0
M  V30 6012 C 582.356 1.49674 -5.13324 0
M  V30 6013 C 583.656 -0.688924 -5.17737 0
M  V30 6014 H 585.35 -0.668819 -2.91834 0
M  V30 6015 H 582.896 -0.32308 -1.40329 0
M  V30 6016 H 584.849 1.5541 -3.91696 0
M  V30 6017 H 583.572 1.82984 -2.70526 0
M  V30 6018 H 582.231 -0.0743687 -3.66525 0
M  V30 6019 H 581.88 2.25877 -4.49431 0
M  V30 6020 H 581.58 1.06188 -5.77926 0
M  V30 6021 H 583.104 1.99427 -5.77115 0
M  V30 6022 H 584.518 -0.276724 -5.72632 0
M  V30 6023 H 582.915 -1.04652 -5.90904 0
M  V30 6024 H 583.985 -1.55884 -4.5916 0
M  V30 6025 N 585.328 1.53329 -0.364422 0
M  V30 6026 C 586.605 1.93557 0.281962 0
M  V30 6027 C 586.985 1.29786 1.6649 0
M  V30 6028 O 586.333 0.456512 2.23893 0
M  V30 6029 C 586.543 3.47405 0.333331 0
M  V30 6030 C 587.891 4.20699 0.574231 0
M  V30 6031 O 588.915 3.53779 0.414588 0
M  V30 6032 O 587.774 5.39287 0.885002 0
M  V30 6033 H 584.868 0.809573 0.168881 0
M  V30 6034 H 587.414 1.64494 -0.417121 0
M  V30 6035 H 586.186 3.86091 -0.636326 0
M  V30 6036 H 585.809 3.82697 1.07836 0
M  V30 6037 N 586.806 0.0935595 1.57322 0
M  V30 6038 C 588.054 -0.569383 1.93913 0
M  V30 6039 C 588.375 -1.68817 0.976009 0
M  V30 6040 O 587.645 -1.9588 0.0278099 0
M  V30 6041 H 586.225 -0.21332 0.715894 0
M  V30 6042 H 588.887 0.156531 1.9427 0
M  V30 6043 H 587.983 -0.980577 2.96296 0
M  V30 6044 N 588.284 -1.56567 -0.180126 0
M  V30 6045 C 589.247 -1.94852 -1.20686 0
M  V30 6046 C 590.247 -0.831212 -1.3765 0
M  V30 6047 O 591.437 -1.09841 -1.35206 0
M  V30 6048 C 588.569 -2.23565 -2.57355 0
M  V30 6049 H 589.762 -2.86722 -0.879225 0
M  V30 6050 H 587.315 -1.50489 -0.422237 0
M  V30 6051 H 588.05 -1.34381 -2.95148 0
M  V30 6052 H 587.835 -3.04999 -2.46411 0
M  V30 6053 H 589.325 -2.54137 -3.31367 0
M  V30 6054 N 589.762 0.448376 -1.51087 0
M  V30 6055 C 591.039 1.20926 -1.53741 0
M  V30 6056 C 591.419 2.09025 -0.295222 0
M  V30 6057 O 590.767 2.16851 0.720283 0
M  V30 6058 C 590.977 2.02067 -2.84552 0
M  V30 6059 C 592.325 2.59486 -3.36084 0
M  V30 6060 O 593.349 2.12289 -2.86028 0
M  V30 6061 O 592.208 3.45539 -4.23397 0
M  V30 6062 H 589.302 0.549951 -0.617643 0
M  V30 6063 H 591.848 0.458344 -1.63393 0
M  V30 6064 H 590.62 1.37291 -3.66425 0
M  V30 6065 H 590.243 2.84246 -2.78011 0
M  V30 6066 N 591.24 1.41047 0.703093 0
M  V30 6067 C 592.48 1.41461 1.4754 0
M  V30 6068 C 592.844 0.0199013 1.9199 0
M  V30 6069 O 594.045 -0.101138 2.6861 0
M  V30 6070 C 592.316 2.38703 2.66 0
M  V30 6071 S 593.875 2.57582 3.55242 0
M  V30 6072 H 590.693 0.501226 0.504275 0
M  V30 6073 H 593.295 1.77422 0.821074 0
M  V30 6074 H 591.999 3.3885 2.31536 0
M  V30 6075 H 591.53 2.04069 3.36333 0
M  V30 6076 H 593.545 1.83758 4.6092 0
M  V30 6077 N 592.718 -0.936591 1.26751 0
M  V30 6078 C 593.967 -1.67778 1.11953 0
M  V30 6079 C 594.28 -1.92694 -0.33589 0
M  V30 6080 O 595.486 -2.64682 -0.604618 0
M  V30 6081 C 593.942 -3.02138 1.95551 0
M  V30 6082 C 593.55 -2.84953 3.45696 0
M  V30 6083 C 595.294 -3.79917 1.89377 0
M  V30 6084 C 593.201 -4.14814 4.21525 0
M  V30 6085 H 592.131 -0.629275 0.415366 0
M  V30 6086 H 594.782 -1.04122 1.51099 0
M  V30 6087 H 593.164 -3.668 1.49243 0
M  V30 6088 H 594.338 -2.29112 3.99805 0
M  V30 6089 H 592.653 -2.20612 3.53156 0
M  V30 6090 H 595.25 -4.76134 2.43312 0
M  V30 6091 H 595.593 -4.07204 0.865464 0
M  V30 6092 H 596.126 -3.22037 2.33532 0
M  V30 6093 H 592.865 -3.92709 5.24843 0
M  V30 6094 H 592.385 -4.70352 3.72195 0
M  V30 6095 H 594.064 -4.83239 4.3022 0
M  V30 6096 N 594.196 -1.08629 -1.14182 0
M  V30 6097 C 595.129 -0.662329 -2.18377 0
M  V30 6098 C 596.107 0.327054 -1.59277 0
M  V30 6099 O 597.291 0.230376 -1.87087 0
M  V30 6100 C 594.418 0.0254765 -3.3869 0
M  V30 6101 C 593.464 -0.924414 -4.16361 0
M  V30 6102 S 594.297 -2.43226 -4.77076 0
M  V30 6103 C 595.453 -1.75663 -6.00744 0
M  V30 6104 H 595.686 -1.54501 -2.54001 0
M  V30 6105 H 593.219 -0.901484 -1.2535 0
M  V30 6106 H 595.177 0.416032 -4.08386 0
M  V30 6107 H 593.838 0.884689 -3.01384 0
M  V30 6108 H 593.031 -0.390099 -5.02488 0
M  V30 6109 H 592.633 -1.25598 -3.5228 0
M  V30 6110 H 594.925 -1.07589 -6.68903 0
M  V30 6111 H 595.868 -2.59673 -6.58768 0
M  V30 6112 H 596.276 -1.22903 -5.50958 0
M  V30 6113 N 595.674 1.31259 -0.872281 0
M  V30 6114 C 596.604 2.30929 -0.345554 0
M  V30 6115 C 597.585 1.60449 0.5648 0
M  V30 6116 O 598.77 1.8814 0.481335 0
M  V30 6117 C 595.9 3.44348 0.451823 0
M  V30 6118 C 594.854 4.26435 -0.365641 0
M  V30 6119 C 594.18 5.31785 0.557562 0
M  V30 6120 C 595.48 4.97159 -1.60095 0
M  V30 6121 H 597.174 2.75234 -1.17841 0
M  V30 6122 H 594.72 1.3232 -0.568094 0
M  V30 6123 H 596.673 4.13128 0.830854 0
M  V30 6124 H 595.397 2.98816 1.31821 0
M  V30 6125 H 594.056 3.59326 -0.726649 0
M  V30 6126 H 593.704 4.82502 1.4213 0
M  V30 6127 H 593.404 5.87598 0.0144878 0
M  V30 6128 H 594.928 6.03424 0.933387 0
M  V30 6129 H 596.342 5.58523 -1.29323 0
M  V30 6130 H 594.739 5.62779 -2.08327 0
M  V30 6131 H 595.809 4.24012 -2.35249 0
M  V30 6132 N 597.152 0.631951 1.44375 0
M  V30 6133 C 598.377 0.142146 2.06912 0
M  V30 6134 C 598.802 -1.17456 1.4692 0
M  V30 6135 O 598.16 -1.72074 0.570975 0
M  V30 6136 C 598.208 0.0417952 3.60576 0
M  V30 6137 O 597.312 -1.00194 4.00044 0
M  V30 6138 H 596.653 0.0851491 0.658518 0
M  V30 6139 H 599.183 0.868863 1.85235 0
M  V30 6140 H 599.193 -0.148517 4.0773 0
M  V30 6141 H 597.868 1.0031 4.03622 0
M  V30 6142 H 596.445 -0.786131 3.64519 0
M  V30 6143 N 598.631 -1.53133 0.372548 0
M  V30 6144 C 599.879 -2.00958 -0.214534 0
M  V30 6145 C 600.2 -1.26135 -1.48711 0
M  V30 6146 O 599.47 -0.376597 -1.92246 0
M  V30 6147 H 598.05 -0.742456 -0.0822664 0
M  V30 6148 H 600.712 -1.88367 0.500385 0
M  V30 6149 H 599.808 -3.09031 -0.436605 0
M  V30 6150 N 600.109 -0.101901 -1.5727 0
M  V30 6151 C 601.019 0.868647 -2.17926 0
M  V30 6152 C 602.035 1.30527 -1.1506 0
M  V30 6153 O 603.211 1.37178 -1.47459 0
M  V30 6154 C 600.276 2.10727 -2.75309 0
M  V30 6155 C 599.337 1.7242 -3.93154 0
M  V30 6156 C 598.57 2.90377 -4.47791 0
M  V30 6157 O 598.793 4.05305 -4.01353 0
M  V30 6158 O 597.727 2.6845 -5.38719 0
M  V30 6159 H 601.553 0.382544 -3.01281 0
M  V30 6160 H 599.138 0.122812 -1.48894 0
M  V30 6161 H 601.02 2.83303 -3.11958 0
M  V30 6162 H 599.695 2.58376 -1.94996 0
M  V30 6163 H 598.602 0.970039 -3.61305 0
M  V30 6164 H 599.935 1.29528 -4.74851 0
M  V30 6165 N 601.587 1.56661 0.17182 0
M  V30 6166 C 602.815 1.861 0.904115 0
M  V30 6167 C 603.23 0.687227 1.75848 0
M  V30 6168 O 602.587 -0.343671 1.79235 0
M  V30 6169 C 602.638 3.14568 1.78127 0
M  V30 6170 O 602.359 4.27422 0.961366 0
M  V30 6171 C 603.86 3.5735 2.62327 0
M  V30 6172 H 601.08 0.617445 0.262684 0
M  V30 6173 H 603.624 2.03775 0.172068 0
M  V30 6174 H 601.779 2.98721 2.46666 0
M  V30 6175 H 602.193 5.00725 1.56123 0
M  V30 6176 H 603.667 4.50144 3.1949 0
M  V30 6177 H 604.144 2.81445 3.37173 0
M  V30 6178 H 604.75 3.75807 1.99121 0
M  V30 6179 N 603.065 -0.440357 1.51323 0
M  V30 6180 C 604.028 -1.51679 1.71832 0
M  V30 6181 C 605.028 -1.49648 0.588386 0
M  V30 6182 O 606.218 -1.51724 0.855891 0
M  V30 6183 C 603.35 -2.91228 1.77199 0
M  V30 6184 H 604.543 -1.34799 2.67898 0
M  V30 6185 H 602.096 -0.66883 1.41267 0
M  V30 6186 H 602.831 -3.13516 0.829363 0
M  V30 6187 H 602.616 -2.94107 2.59314 0
M  V30 6188 H 604.106 -3.69321 1.94915 0
M  V30 6189 N 604.543 -1.41418 -0.695603 0
M  V30 6190 C 605.49 -1.43264 -1.80954 0
M  V30 6191 C 606.46 -0.287016 -1.63601 0
M  V30 6192 O 607.645 -0.488054 -1.84452 0
M  V30 6193 C 604.785 -1.32054 -3.18835 0
M  V30 6194 C 603.898 -2.56485 -3.4762 0
M  V30 6195 C 603.033 -2.3757 -4.75115 0
M  V30 6196 C 602.072 -3.57477 -4.96867 0
M  V30 6197 N 601.209 -3.37632 -6.15588 0
M  V30 6198 H 606.049 -2.38467 -1.78711 0
M  V30 6199 H 603.586 -1.18415 -0.872715 0
M  V30 6200 H 605.544 -1.23558 -3.98484 0
M  V30 6201 H 604.174 -0.404592 -3.20254 0
M  V30 6202 H 603.226 -2.75432 -2.62376 0
M  V30 6203 H 604.538 -3.45678 -3.59594 0
M  V30 6204 H 603.692 -2.2654 -5.62818 0
M  V30 6205 H 602.431 -1.45834 -4.65386 0
M  V30 6206 H 601.436 -3.68961 -4.07612 0
M  V30 6207 H 602.661 -4.50167 -5.08455 0
M  V30 6208 H 600.607 -2.48596 -6.07072 0
M  V30 6209 H 600.524 -4.20401 -6.2833 0
M  V30 6210 H 601.792 -3.30375 -7.06026 0
M  V30 6211 N 606.021 0.929856 -1.27246 0
M  V30 6212 C 607.269 1.674 -1.13233 0
M  V30 6213 C 607.59 1.92311 0.322744 0
M  V30 6214 O 606.86 1.52784 1.22612 0
M  V30 6215 H 605.44 0.620411 -0.416052 0
M  V30 6216 H 608.102 1.11663 -1.59741 0
M  V30 6217 H 607.198 2.64308 -1.65975 0
M  V30 6218 N 607.499 1.09233 1.13605 0
M  V30 6219 C 608.447 0.724572 2.21027 0
M  V30 6220 C 609.441 -0.273595 1.67176 0
M  V30 6221 O 610.647 -0.135266 1.79491 0
M  V30 6222 H 607.022 0.216319 0.720215 0
M  V30 6223 H 608.993 1.63975 2.49309 0
M  V30 6224 C 607.742 0.159126 3.47336 0
M  V30 6225 H 607.065 0.918387 3.89109 0
M  V30 6226 H 608.505 -0.0602851 4.23957 0
M  V30 6227 C 606.964 -1.10514 3.18258 0
M  V30 6228 O 607.494 -2.18869 3.36837 0
M  V30 6229 N 605.7 -1.01886 2.72154 0
M  V30 6230 H 605.247 -0.137027 2.57235 0
M  V30 6231 H 605.205 -1.8655 2.53074 0
M  V30 6232 N 608.977 -1.30795 0.87923 0
M  V30 6233 C 610.224 -1.96362 0.494786 0
M  V30 6234 C 610.552 -1.69448 -0.954868 0
M  V30 6235 O 609.807 -0.988711 -1.68888 0
M  V30 6236 C 610.106 -3.50287 0.709476 0
M  V30 6237 C 609.772 -3.9724 2.13333 0
M  V30 6238 C 608.434 -4.09772 2.52271 0
M  V30 6239 C 610.786 -4.21807 3.06151 0
M  V30 6240 C 608.114 -4.44227 3.83248 0
M  V30 6241 C 610.466 -4.5773 4.36654 0
M  V30 6242 C 609.13 -4.68469 4.75492 0
M  V30 6243 H 608.4 -0.71854 0.181055 0
M  V30 6244 H 611.047 -1.55764 1.11399 0
M  V30 6245 H 609.352 -3.91799 0.0072 0
M  V30 6246 H 611.049 -3.99082 0.391703 0
M  V30 6247 H 607.639 -3.87988 1.82107 0
M  V30 6248 H 611.823 -4.11611 2.77291 0
M  V30 6249 H 607.079 -4.50741 4.13089 0
M  V30 6250 H 611.253 -4.7569 5.08617 0
M  V30 6251 H 608.88 -4.94923 5.77022 0
M  V30 6252 N 610.455 -0.639598 -1.44038 0
M  V30 6253 C 611.866 -0.228866 -1.85292 0
M  V30 6254 C 612.217 1.22161 -1.53529 0
M  V30 6255 O 611.342 1.93064 -0.977518 0
M  V30 6256 C 611.937 -0.408592 -3.36327 0
M  V30 6257 C 610.496 -0.0522953 -3.76364 0
M  V30 6258 C 609.643 -0.717959 -2.67844 0
M  V30 6259 H 612.594 -0.844194 -1.34384 0
M  V30 6260 H 612.615 0.349968 -3.78887 0
M  V30 6261 H 612.127 -1.46435 -3.59414 0
M  V30 6262 H 610.228 1.0014 -3.58891 0
M  V30 6263 H 610.341 -0.468261 -4.76806 0
M  V30 6264 H 608.705 -0.152459 -2.54243 0
M  V30 6265 H 609.488 -1.77648 -2.93762 0
M  V30 6266 N 611.933 1.52934 -0.380664 0
M  V30 6267 C 613.179 2.01765 0.20458 0
M  V30 6268 C 613.512 1.26696 1.47179 0
M  V30 6269 O 612.787 0.364936 1.91046 0
M  V30 6270 C 613.07 3.56869 0.481269 0
M  V30 6271 C 612.923 4.42617 -0.800629 0
M  V30 6272 C 614.242 4.2121 1.27554 0
M  V30 6273 H 611.361 0.733388 0.0728803 0
M  V30 6274 H 614.003 1.83068 -0.50853 0
M  V30 6275 H 612.153 3.72932 1.08875 0
M  V30 6276 H 613.825 4.38323 -1.43773 0
M  V30 6277 H 612.068 4.09977 -1.4178 0
M  V30 6278 H 612.739 5.49134 -0.561791 0
M  V30 6279 H 615.215 4.09072 0.761514 0
M  V30 6280 H 614.091 5.29732 1.43788 0
M  V30 6281 H 614.352 3.78269 2.28833 0
M  V30 6282 N 613.412 0.11024 1.57214 0
M  V30 6283 C 614.322 -0.857077 2.18383 0
M  V30 6284 C 615.338 -1.29915 1.1575 0
M  V30 6285 O 616.514 -1.36394 1.48184 0
M  V30 6286 C 613.579 -2.09264 2.76423 0
M  V30 6287 C 612.64 -1.70333 3.94063 0
M  V30 6288 C 611.873 -2.87999 4.49324 0
M  V30 6289 O 612.096 -4.0317 4.03497 0
M  V30 6290 O 611.03 -2.6559 5.40135 0
M  V30 6291 H 614.856 -0.366561 3.0148 0
M  V30 6292 H 612.441 -0.114914 1.48957 0
M  V30 6293 H 614.323 -2.81644 3.13456 0
M  V30 6294 H 612.998 -2.57339 1.96363 0
M  V30 6295 H 611.905 -0.950864 3.61814 0
M  V30 6296 H 613.238 -1.27007 4.75531 0
M  V30 6297 N 614.89 -1.56749 -0.16351 0
M  V30 6298 C 615.853 -1.96121 -1.18613 0
M  V30 6299 C 616.853 -0.845765 -1.36761 0
M  V30 6300 O 618.043 -1.11268 -1.34033 0
M  V30 6301 C 615.175 -2.26282 -2.54969 0
M  V30 6302 H 616.368 -2.87639 -0.848764 0
M  V30 6303 H 613.921 -1.50928 -0.406251 0
M  V30 6304 H 614.656 -1.37504 -2.93706 0
M  V30 6305 H 614.441 -3.07595 -2.43162 0
M  V30 6306 H 615.931 -2.57638 -3.28653 0
M  V30 6307 N 616.368 0.432326 -1.51554 0
M  V30 6308 C 617.614 1.18309 -1.64714 0
M  V30 6309 C 617.947 1.90745 -0.364696 0
M  V30 6310 O 617.222 1.8381 0.635936 0
M  V30 6311 C 617.505 2.1961 -2.85383 0
M  V30 6312 C 617.358 1.51223 -4.23617 0
M  V30 6313 C 618.677 3.20538 -3.01569 0
M  V30 6314 H 615.796 0.428751 -0.599451 0
M  V30 6315 H 618.438 0.471689 -1.84052 0
M  V30 6316 H 616.588 2.8028 -2.69027 0
M  V30 6317 H 618.26 0.938516 -4.51652 0
M  V30 6318 H 616.503 0.814501 -4.26085 0
M  V30 6319 H 617.174 2.25024 -5.04052 0
M  V30 6320 H 619.65 2.69926 -3.16669 0
M  V30 6321 H 618.526 3.88706 -3.87555 0
M  V30 6322 H 618.787 3.86933 -2.13859 0
M  V30 6323 N 617.846 1.41785 0.688094 0
M  V30 6324 C 618.793 1.44221 1.80191 0
M  V30 6325 C 619.763 0.295688 1.63447 0
M  V30 6326 O 620.948 0.49783 1.84191 0
M  V30 6327 C 618.088 1.33743 3.1813 0
M  V30 6328 C 617.201 2.58325 3.46254 0
M  V30 6329 C 616.336 2.40086 4.73848 0
M  V30 6330 C 615.375 3.60107 4.94964 0
M  V30 6331 N 614.512 3.40892 6.13789 0
M  V30 6332 H 619.352 2.39411 1.77444 0
M  V30 6333 H 616.889 1.18876 0.866423 0
M  V30 6334 H 618.847 1.25669 3.97823 0
M  V30 6335 H 617.477 0.42157 3.20035 0
M  V30 6336 H 616.529 2.7682 2.60912 0
M  V30 6337 H 617.841 3.4758 3.57756 0
M  V30 6338 H 616.995 2.29522 5.61609 0
M  V30 6339 H 615.734 1.483 4.64606 0
M  V30 6340 H 614.739 3.71118 4.05649 0
M  V30 6341 H 615.964 4.52857 5.06061 0
M  V30 6342 H 613.91 2.51812 6.05745 0
M  V30 6343 H 613.827 4.23727 6.26092 0
M  V30 6344 H 615.095 3.34114 7.04264 0
M  V30 6345 N 619.324 -0.923095 1.27737 0
M  V30 6346 C 620.257 -2.02515 1.05181 0
M  V30 6347 C 621.235 -1.62574 -0.0292204 0
M  V30 6348 O 622.419 -1.88137 0.116848 0
M  V30 6349 C 619.546 -3.33407 0.596468 0
M  V30 6350 C 618.592 -3.92328 1.67276 0
M  V30 6351 S 619.425 -4.24342 3.26641 0
M  V30 6352 C 620.581 -5.58308 2.82919 0
M  V30 6353 H 620.814 -2.21336 1.98488 0
M  V30 6354 H 618.347 -1.06679 1.1162 0
M  V30 6355 H 620.305 -4.09086 0.34044 0
M  V30 6356 H 618.966 -3.125 -0.316614 0
M  V30 6357 H 618.159 -4.86797 1.30556 0
M  V30 6358 H 617.761 -3.2325 1.8811 0
M  V30 6359 H 620.053 -6.37801 2.28509 0
M  V30 6360 H 620.996 -5.99931 3.7615 0
M  V30 6361 H 621.404 -5.19049 2.21919 0
M  V30 6362 N 620.802 -1.09834 -1.13024 0
M  V30 6363 C 621.734 -0.699379 -2.18269 0
M  V30 6364 C 622.747 0.260841 -1.60697 0
M  V30 6365 O 623.936 0.0462538 -1.7844 0
M  V30 6366 C 621.036 -0.0104537 -3.38898 0
M  V30 6367 C 620.209 -0.993275 -4.25973 0
M  V30 6368 C 619.268 -0.336982 -5.2512 0
M  V30 6369 O 618.294 -0.985892 -5.60597 0
M  V30 6370 N 619.496 0.90716 -5.73368 0
M  V30 6371 H 622.261 -1.60486 -2.5311 0
M  V30 6372 H 619.822 -0.986337 -1.28386 0
M  V30 6373 H 621.814 0.43991 -4.02302 0
M  V30 6374 H 620.384 0.797335 -3.0226 0
M  V30 6375 H 619.604 -1.62208 -3.5928 0
M  V30 6376 H 620.892 -1.65876 -4.81002 0
M  V30 6377 H 620.29 1.45384 -5.46699 0
M  V30 6378 H 618.847 1.30077 -6.38689 0
M  V30 6379 N 622.28 1.30327 -0.886154 0
M  V30 6380 C 623.23 2.25668 -0.325248 0
M  V30 6381 C 624.214 1.51318 0.546972 0
M  V30 6382 O 625.406 1.72623 0.391203 0
M  V30 6383 C 622.535 3.40229 0.458167 0
M  V30 6384 C 621.621 4.21933 -0.428208 0
M  V30 6385 N 622.012 4.82129 -1.52921 0
M  V30 6386 C 620.31 4.45439 -0.223535 0
M  V30 6387 C 621.011 5.43351 -2.07714 0
M  V30 6388 N 619.987 5.26002 -1.37195 0
M  V30 6389 H 623.789 2.69759 -1.1665 0
M  V30 6390 H 621.303 1.4478 -0.735691 0
M  V30 6391 H 623.3 4.07579 0.876648 0
M  V30 6392 H 621.96 2.97678 1.29684 0
M  V30 6393 H 622.971 4.81312 -1.91205 0
M  V30 6394 H 619.648 4.13481 0.577875 0
M  V30 6395 H 621.038 6.01118 -3.00178 0
M  V30 6396 N 623.758 0.647228 1.43697 0
M  V30 6397 C 624.721 -0.0385101 2.29168 0
M  V30 6398 C 625.721 -0.756487 1.41894 0
M  V30 6399 O 626.911 -0.598641 1.63591 0
M  V30 6400 C 624.043 -1.06524 3.23829 0
M  V30 6401 H 625.236 0.713445 2.9129 0
M  V30 6402 H 622.789 0.408153 1.50877 0
M  V30 6403 H 623.524 -1.84664 2.66589 0
M  V30 6404 H 623.309 -0.554147 3.88164 0
M  V30 6405 H 624.799 -1.54432 3.87996 0
M  V30 6406 N 625.236 -1.5273 0.388769 0
M  V30 6407 C 626.485 -2.00757 -0.194833 0
M  V30 6408 C 626.798 -1.27951 -1.47946 0
M  V30 6409 O 628.004 -1.66686 -2.14308 0
M  V30 6410 C 626.46 -3.57695 -0.397762 0
M  V30 6411 C 626.068 -4.394 0.873583 0
M  V30 6412 C 627.812 -4.14012 -0.937759 0
M  V30 6413 C 625.719 -5.87938 0.638962 0
M  V30 6414 H 624.649 -0.750101 -0.0765845 0
M  V30 6415 H 627.3 -1.76239 0.511086 0
M  V30 6416 H 625.682 -3.7846 -1.16552 0
M  V30 6417 H 626.856 -4.30403 1.64591 0
M  V30 6418 H 625.171 -3.94301 1.33849 0
M  V30 6419 H 627.768 -5.22645 -1.12899 0
M  V30 6420 H 628.111 -3.7007 -1.90666 0
M  V30 6421 H 628.644 -3.97137 -0.229588 0
M  V30 6422 H 625.383 -6.36202 1.57885 0
M  V30 6423 H 624.903 -5.99726 -0.094443 0
M  V30 6424 H 626.582 -6.46423 0.273299 0
M  V30 6425 N 626.714 -0.118576 -1.57153 0
M  V30 6426 C 627.677 0.817464 -2.14127 0
M  V30 6427 C 628.677 1.1949 -1.07604 0
M  V30 6428 O 629.867 1.12048 -1.33382 0
M  V30 6429 C 626.999 2.10541 -2.68115 0
M  V30 6430 H 628.192 0.322339 -2.98163 0
M  V30 6431 H 625.745 0.130655 -1.55753 0
M  V30 6432 H 626.48 2.64485 -1.87665 0
M  V30 6433 H 626.265 1.84425 -3.4602 0
M  V30 6434 H 627.755 2.77453 -3.12105 0
M  V30 6435 N 628.193 1.56834 0.155195 0
M  V30 6436 C 629.609 1.51315 0.50755 0
M  V30 6437 C 629.809 0.825614 1.83809 0
M  V30 6438 O 628.865 0.39271 2.49427 0
M  V30 6439 C 630.178 2.96074 0.52542 0
M  V30 6440 C 631.726 3.06968 0.611505 0
M  V30 6441 C 632.201 4.53218 0.660115 0
M  V30 6442 N 633.692 4.5753 0.722564 0
M  V30 6443 C 634.427 5.68056 0.781023 0
M  V30 6444 N 633.923 6.88173 0.799327 0
M  V30 6445 N 635.716 5.56068 0.821278 0
M  V30 6446 H 627.867 1.9993 -0.717063 0
M  V30 6447 H 630.13 0.911507 -0.260496 0
M  V30 6448 H 629.836 3.49599 -0.383875 0
M  V30 6449 H 629.71 3.51587 1.36624 0
M  V30 6450 H 632.097 2.53468 1.51122 0
M  V30 6451 H 632.178 2.54513 -0.256306 0
M  V30 6452 H 631.822 5.07354 -0.23541 0
M  V30 6453 H 631.752 5.03447 1.5443 0
M  V30 6454 H 634.243 3.71054 0.716049 0
M  V30 6455 H 634.556 7.6816 0.845553 0
M  V30 6456 H 632.901 6.90751 0.767337 0
M  V30 6457 H 636.092 4.61142 0.804091 0
M  V30 6458 H 636.265 6.42223 0.863372 0
M  V30 6459 N 629.671 -0.424282 1.51781 0
M  V30 6460 C 630.581 -1.54087 1.76902 0
M  V30 6461 C 631.597 -1.61249 0.653826 0
M  V30 6462 O 632.773 -1.78247 0.937552 0
M  V30 6463 C 629.838 -2.8996 1.90063 0
M  V30 6464 C 628.899 -2.92809 3.13945 0
M  V30 6465 C 628.132 -4.22201 3.26469 0
M  V30 6466 O 628.355 -5.15286 2.44616 0
M  V30 6467 O 627.289 -4.31599 4.1953 0
M  V30 6468 H 631.115 -1.358 2.71647 0
M  V30 6469 H 628.7 -0.608618 1.36441 0
M  V30 6470 H 630.582 -3.70575 2.0063 0
M  V30 6471 H 629.257 -3.08347 0.985067 0
M  V30 6472 H 628.164 -2.11102 3.08847 0
M  V30 6473 H 629.497 -2.79369 4.05233 0
M  V30 6474 N 631.149 -1.42148 -0.680565 0
M  V30 6475 C 632.112 -1.4488 -1.77602 0
M  V30 6476 C 633.112 -0.337209 -1.57224 0
M  V30 6477 O 634.302 -0.597778 -1.63622 0
M  V30 6478 C 631.434 -1.27483 -3.16166 0
M  V30 6479 H 632.627 -2.42412 -1.76568 0
M  V30 6480 H 630.18 -1.28511 -0.889645 0
M  V30 6481 H 630.915 -0.30851 -3.22829 0
M  V30 6482 H 630.7 -2.08037 -3.3236 0
M  V30 6483 H 632.19 -1.32265 -3.96101 0
M  V30 6484 N 632.627 0.916307 -1.28225 0
M  V30 6485 C 633.537 2.05165 -1.13775 0
M  V30 6486 C 634.553 1.73879 -0.0649418 0
M  V30 6487 O 635.729 1.99531 -0.273722 0
M  V30 6488 C 632.794 3.37385 -0.798267 0
M  V30 6489 C 631.855 3.82296 -1.95316 0
M  V30 6490 C 631.088 5.08206 -1.62978 0
M  V30 6491 O 631.311 5.6781 -0.542948 0
M  V30 6492 O 630.245 5.48768 -2.47261 0
M  V30 6493 H 634.071 2.20273 -2.09078 0
M  V30 6494 H 631.656 1.0373 -1.07519 0
M  V30 6495 H 633.538 4.16773 -0.62278 0
M  V30 6496 H 632.213 3.23458 0.125139 0
M  V30 6497 H 631.12 3.03746 -2.18378 0
M  V30 6498 H 632.453 4.00782 -2.85718 0
M  V30 6499 N 634.105 1.10431 1.1244 0
M  V30 6500 C 635.068 0.756542 2.16354 0
M  V30 6501 C 636.068 -0.21899 1.59302 0
M  V30 6502 O 637.258 0.00415969 1.742 0
M  V30 6503 C 634.39 0.120612 3.40687 0
M  V30 6504 H 635.583 1.67696 2.48632 0
M  V30 6505 H 633.136 0.904832 1.27446 0
M  V30 6506 H 633.871 -0.810536 3.14008 0
M  V30 6507 H 633.656 0.822693 3.83372 0
M  V30 6508 H 635.146 -0.106945 4.17463 0
M  V30 6509 N 635.583 -1.29855 0.893053 0
M  V30 6510 C 636.546 -2.26183 0.370687 0
M  V30 6511 C 637.546 -1.53108 -0.491385 0
M  V30 6512 O 638.736 -1.71643 -0.297386 0
M  V30 6513 C 635.868 -3.37633 -0.470827 0
M  V30 6514 H 637.061 -2.73903 1.22135 0
M  V30 6515 H 634.614 -1.41183 0.67061 0
M  V30 6516 H 635.349 -2.95241 -1.34175 0
M  V30 6517 H 635.134 -3.91825 0.146784 0
M  V30 6518 H 636.624 -4.09313 -0.827825 0
M  V30 6519 N 637.061 -0.65484 -1.43351 0
M  V30 6520 C 638.307 -0.169142 -2.02093 0
M  V30 6521 C 638.64 1.21431 -1.51553 0
M  V30 6522 O 637.915 1.81105 -0.709317 0
M  V30 6523 C 638.198 -0.181775 -3.59641 0
M  V30 6524 C 638.051 -1.59926 -4.20409 0
M  V30 6525 C 639.37 0.480945 -4.37464 0
M  V30 6526 H 636.489 -0.0629371 -0.734308 0
M  V30 6527 H 639.131 -0.835833 -1.70628 0
M  V30 6528 H 637.281 0.385918 -3.86578 0
M  V30 6529 H 638.953 -2.21766 -4.04497 0
M  V30 6530 H 637.196 -2.14605 -3.76998 0
M  V30 6531 H 637.867 -1.55994 -5.295 0
M  V30 6532 H 640.343 -0.00208273 -4.161 0
M  V30 6533 H 639.219 0.441384 -5.47122 0
M  V30 6534 H 639.48 1.55533 -4.13838 0
M  V30 6535 N 638.539 1.52521 -0.396863 0
M  V30 6536 C 639.769 2.05792 0.182485 0
M  V30 6537 C 640.177 1.26784 1.40436 0
M  V30 6538 O 639.52 0.309617 1.81072 0
M  V30 6539 C 639.582 3.54291 0.609781 0
M  V30 6540 C 639.246 4.5426 -0.499674 0
M  V30 6541 C 640.243 5.01812 -1.35944 0
M  V30 6542 C 637.928 4.97827 -0.668864 0
M  V30 6543 C 639.922 5.91562 -2.37346 0
M  V30 6544 C 637.609 5.87376 -1.68621 0
M  V30 6545 C 638.607 6.34137 -2.53692 0
M  V30 6546 O 638.295 7.21915 -3.53686 0
M  V30 6547 H 638.027 0.675362 0.0293583 0
M  V30 6548 H 640.581 1.97539 -0.56281 0
M  V30 6549 H 638.811 3.60188 1.40717 0
M  V30 6550 H 640.5 3.90267 1.11565 0
M  V30 6551 H 641.266 4.68879 -1.24008 0
M  V30 6552 H 637.145 4.60997 -0.0163971 0
M  V30 6553 H 640.689 6.27983 -3.03782 0
M  V30 6554 H 636.586 6.19723 -1.80593 0
M  V30 6555 H 637.354 7.39996 -3.49784 0
M  V30 6556 N 640.017 0.126909 1.57088 0
M  V30 6557 C 640.967 -0.831678 2.1229 0
M  V30 6558 C 641.951 -1.22292 1.04564 0
M  V30 6559 O 643.143 -1.19269 1.30782 0
M  V30 6560 C 640.272 -2.07866 2.73215 0
M  V30 6561 C 639.358 -1.71143 3.88035 0
M  V30 6562 N 639.749 -1.05136 4.94753 0
M  V30 6563 C 638.047 -2.00549 3.98367 0
M  V30 6564 C 638.748 -0.877257 5.75047 0
M  V30 6565 N 637.724 -1.40477 5.25135 0
M  V30 6566 H 641.526 -0.317926 2.92175 0
M  V30 6567 H 639.04 -0.0753052 1.62225 0
M  V30 6568 H 641.037 -2.77516 3.11111 0
M  V30 6569 H 639.697 -2.59778 1.94796 0
M  V30 6570 H 640.708 -0.71442 5.12949 0
M  V30 6571 H 637.385 -2.54452 3.30999 0
M  V30 6572 H 638.775 -0.358536 6.70943 0
M  V30 6573 N 641.495 -1.56914 -0.146875 0
M  V30 6574 C 642.911 -1.51582 -0.499518 0
M  V30 6575 C 643.111 -0.83535 -1.83369 0
M  V30 6576 O 642.167 -0.405932 -2.49216 0
M  V30 6577 C 643.48 -2.96349 -0.509711 0
M  V30 6578 C 645.028 -3.07288 -0.595217 0
M  V30 6579 C 645.503 -4.53562 -0.636071 0
M  V30 6580 N 646.994 -4.57906 -0.69829 0
M  V30 6581 C 647.729 -5.68462 -0.750886 0
M  V30 6582 N 647.225 -6.88588 -0.76282 0
M  V30 6583 N 649.018 -5.56496 -0.791777 0
M  V30 6584 H 641.169 -1.99547 0.727656 0
M  V30 6585 H 643.432 -0.910113 0.265327 0
M  V30 6586 H 643.138 -3.4939 0.402409 0
M  V30 6587 H 643.012 -3.52307 -1.34758 0
M  V30 6588 H 645.399 -2.54266 -1.49776 0
M  V30 6589 H 645.48 -2.54373 0.2698 0
M  V30 6590 H 645.124 -5.07222 0.262313 0
M  V30 6591 H 645.054 -5.04259 -1.51758 0
M  V30 6592 H 647.545 -3.71429 -0.696362 0
M  V30 6593 H 647.858 -7.68598 -0.804804 0
M  V30 6594 H 646.203 -6.91148 -0.730694 0
M  V30 6595 H 649.394 -4.61562 -0.779624 0
M  V30 6596 H 649.567 -6.42671 -0.829301 0
M  V30 6597 N 642.974 0.416227 -1.52004 0
M  V30 6598 C 643.906 1.52552 -1.71058 0
M  V30 6599 C 644.919 1.51693 -0.59102 0
M  V30 6600 O 646.108 1.56087 -0.865973 0
M  V30 6601 C 643.208 2.91455 -1.72937 0
M  V30 6602 C 642.381 3.16584 -3.01816 0
M  V30 6603 C 641.44 4.35322 -2.95603 0
M  V30 6604 O 640.466 4.32947 -3.6952 0
M  V30 6605 N 641.668 5.40049 -2.12903 0
M  V30 6606 H 644.433 1.36604 -2.66757 0
M  V30 6607 H 641.994 0.60544 -1.50153 0
M  V30 6608 H 643.986 3.68944 -1.66321 0
M  V30 6609 H 642.556 3.00895 -0.847418 0
M  V30 6610 H 641.776 2.27203 -3.22137 0
M  V30 6611 H 643.064 3.30213 -3.87088 0
M  V30 6612 H 642.462 5.44823 -1.52265 0
M  V30 6613 H 641.019 6.16308 -2.1215 0
M  V30 6614 N 644.452 1.42507 0.673017 0
M  V30 6615 C 645.382 1.48916 1.79851 0
M  V30 6616 C 646.363 0.345566 1.66553 0
M  V30 6617 O 647.548 0.560116 1.85947 0
M  V30 6618 C 644.678 1.39258 3.18158 0
M  V30 6619 C 643.632 2.51662 3.46194 0
M  V30 6620 C 642.958 2.27062 4.84094 0
M  V30 6621 C 644.258 3.93968 3.42909 0
M  V30 6622 H 645.952 2.43114 1.74745 0
M  V30 6623 H 643.498 1.17013 0.839288 0
M  V30 6624 H 645.451 1.42349 3.96629 0
M  V30 6625 H 644.175 0.415542 3.23946 0
M  V30 6626 H 642.834 2.47891 2.70084 0
M  V30 6627 H 642.482 1.27648 4.86534 0
M  V30 6628 H 642.182 3.02398 5.03815 0
M  V30 6629 H 643.706 2.31905 5.64847 0
M  V30 6630 H 645.12 3.99332 4.11347 0
M  V30 6631 H 643.517 4.6917 3.74165 0
M  V30 6632 H 644.587 4.20512 2.41449 0
M  V30 6633 N 645.93 -0.909495 1.28709 0
M  V30 6634 C 647.177 -1.65905 1.16111 0
M  V30 6635 C 647.505 -1.92334 -0.289436 0
M  V30 6636 O 646.76 -1.52495 -1.22653 0
M  V30 6637 C 647.059 -3.02117 1.90945 0
M  V30 6638 C 646.725 -2.95332 3.40719 0
M  V30 6639 C 645.387 -2.93189 3.81567 0
M  V30 6640 C 647.739 -2.85264 4.36204 0
M  V30 6641 C 645.067 -2.78784 5.16233 0
M  V30 6642 C 647.419 -2.724 5.70948 0
M  V30 6643 C 646.083 -2.68617 6.11066 0
M  V30 6644 H 645.353 -0.60709 0.42488 0
M  V30 6645 H 648 -1.05932 1.59533 0
M  V30 6646 H 646.305 -3.65901 1.40085 0
M  V30 6647 H 648.002 -3.59026 1.7861 0
M  V30 6648 H 644.592 -2.97797 3.08245 0
M  V30 6649 H 648.776 -2.86005 4.05605 0
M  V30 6650 H 644.032 -2.74254 5.46438 0
M  V30 6651 H 648.206 -2.63579 6.44592 0
M  V30 6652 H 645.833 -2.57213 7.15364 0
M  V30 6653 N 647.408 -1.11026 -1.11852 0
M  V30 6654 C 648.318 -0.777252 -2.2135 0
M  V30 6655 C 649.334 0.227821 -1.72502 0
M  V30 6656 O 650.51 0.0650587 -2.01295 0
M  V30 6657 C 647.575 -0.220668 -3.45997 0
M  V30 6658 C 646.636 -1.2838 -4.09655 0
M  V30 6659 C 645.869 -0.753678 -5.28352 0
M  V30 6660 O 646.092 0.417779 -5.68868 0
M  V30 6661 O 645.026 -1.51647 -5.82483 0
M  V30 6662 H 648.852 -1.69141 -2.5224 0
M  V30 6663 H 646.437 -0.885836 -1.20305 0
M  V30 6664 H 648.319 0.0855756 -4.21313 0
M  V30 6665 H 646.994 0.666262 -3.16769 0
M  V30 6666 H 645.901 -1.64299 -3.3609 0
M  V30 6667 H 647.234 -2.14396 -4.43052 0
M  V30 6668 N 648.886 1.2938 -0.899927 0
M  V30 6669 C 649.796 2.31462 -0.382437 0
M  V30 6670 C 650.812 1.65956 0.522929 0
M  V30 6671 O 651.988 1.97131 0.412454 0
M  V30 6672 C 649.053 3.44595 0.381472 0
M  V30 6673 C 648.114 4.25692 -0.555444 0
M  V30 6674 C 647.347 5.33422 0.172102 0
M  V30 6675 O 647.57 5.53053 1.396 0
M  V30 6676 O 646.504 5.99939 -0.485491 0
M  V30 6677 H 650.33 2.77706 -1.22934 0
M  V30 6678 H 647.915 1.33821 -0.664259 0
M  V30 6679 H 649.797 4.13474 0.813442 0
M  V30 6680 H 648.472 3.00458 1.20443 0
M  V30 6681 H 647.379 3.59453 -1.03653 0
M  V30 6682 H 648.712 4.73471 -1.34483 0
M  V30 6683 N 650.364 0.662433 1.43002 0
M  V30 6684 C 651.294 -0.00979809 2.33498 0
M  V30 6685 C 652.275 -0.802329 1.49989 0
M  V30 6686 O 653.46 -0.761964 1.78627 0
M  V30 6687 C 650.59 -0.970446 3.33466 0
M  V30 6688 C 649.544 -0.287383 4.27034 0
M  V30 6689 C 648.87 -1.36012 5.17112 0
M  V30 6690 C 650.17 0.82595 5.15728 0
M  V30 6691 H 651.864 0.745959 2.89958 0
M  V30 6692 H 649.41 0.360172 1.39423 0
M  V30 6693 H 651.363 -1.44971 3.95679 0
M  V30 6694 H 650.087 -1.75748 2.75282 0
M  V30 6695 H 648.746 0.17152 3.66199 0
M  V30 6696 H 648.394 -2.13882 4.55262 0
M  V30 6697 H 648.094 -0.908276 5.80538 0
M  V30 6698 H 649.618 -1.84056 5.82199 0
M  V30 6699 H 651.032 0.42845 5.71697 0
M  V30 6700 H 649.429 1.20282 5.87922 0
M  V30 6701 H 650.499 1.68003 4.54866 0
M  V30 6702 N 651.842 -1.52309 0.404946 0
M  V30 6703 C 653.258 -1.59503 0.0556255 0
M  V30 6704 C 653.458 -1.41805 -1.43156 0
M  V30 6705 O 652.514 -1.2429 -2.19792 0
M  V30 6706 C 653.827 -2.95687 0.546801 0
M  V30 6707 C 655.375 -3.08909 0.504413 0
M  V30 6708 C 655.85 -4.47566 0.97203 0
M  V30 6709 N 657.341 -4.53795 0.928679 0
M  V30 6710 C 658.076 -5.59346 1.26174 0
M  V30 6711 N 657.572 -6.72469 1.66604 0
M  V30 6712 N 659.365 -5.49532 1.18198 0
M  V30 6713 H 651.516 -1.6206 1.37296 0
M  V30 6714 H 653.779 -0.762161 0.563751 0
M  V30 6715 H 653.485 -3.13905 1.58609 0
M  V30 6716 H 653.359 -3.77172 -0.0457905 0
M  V30 6717 H 655.746 -2.90378 -0.525819 0
M  V30 6718 H 655.827 -2.2934 1.13301 0
M  V30 6719 H 655.471 -4.6684 2.00057 0
M  V30 6720 H 655.401 -5.25625 0.320292 0
M  V30 6721 H 657.892 -3.72588 0.631369 0
M  V30 6722 H 658.205 -7.48993 1.9034 0
M  V30 6723 H 656.55 -6.73761 1.70504 0
M  V30 6724 H 659.741 -4.60038 0.865011 0
M  V30 6725 H 659.914 -6.31687 1.44485 0
M  V30 6726 N 653.32 -0.135238 -1.57019 0
M  V30 6727 C 654.736 0.221262 -1.58059 0
M  V30 6728 C 654.936 1.65538 -1.14889 0
M  V30 6729 O 653.992 2.37985 -0.843751 0
M  V30 6730 C 655.305 -0.0268114 -3.00688 0
M  V30 6731 C 656.853 0.0378206 -3.12977 0
M  V30 6732 C 657.328 -0.182769 -4.57635 0
M  V30 6733 N 658.819 -0.129292 -4.6302 0
M  V30 6734 C 659.554 -0.274648 -5.72742 0
M  V30 6735 N 659.05 -0.477075 -6.91155 0
M  V30 6736 N 660.843 -0.213077 -5.61696 0
M  V30 6737 H 652.994 -1.07177 -1.83376 0
M  V30 6738 H 655.257 -0.423338 -0.848227 0
M  V30 6739 H 654.963 -1.01889 -3.36618 0
M  V30 6740 H 654.837 0.697863 -3.70688 0
M  V30 6741 H 657.224 1.02043 -2.76896 0
M  V30 6742 H 657.305 -0.718996 -2.45487 0
M  V30 6743 H 656.949 -1.16243 -4.94419 0
M  V30 6744 H 656.879 0.59423 -5.23237 0
M  V30 6745 H 659.37 0.0229896 -3.77893 0
M  V30 6746 H 659.683 -0.578413 -7.70632 0
M  V30 6747 H 658.028 -0.513252 -6.93102 0
M  V30 6748 H 661.219 -0.0557796 -4.68067 0
M  V30 6749 H 661.392 -0.329796 -6.4716 0
M  V30 6750 N 654.798 1.5699 0.138552 0
M  V30 6751 C 655.761 1.97984 1.15478 0
M  V30 6752 C 656.761 0.867416 1.35398 0
M  V30 6753 O 657.951 1.13387 1.32246 0
M  V30 6754 C 655.083 2.3031 2.51337 0
M  V30 6755 H 656.276 2.88953 0.802896 0
M  V30 6756 H 653.829 1.51555 0.382189 0
M  V30 6757 H 654.564 1.42159 2.91481 0
M  V30 6758 H 654.349 3.11425 2.38237 0
M  V30 6759 H 655.839 2.62834 3.24512 0
M  V30 6760 N 656.276 -0.40816 1.52223 0
M  V30 6761 C 657.239 -1.48 1.7501 0
M  V30 6762 C 658.239 -1.48367 0.619996 0
M  V30 6763 O 659.429 -1.49874 0.887881 0
M  V30 6764 C 656.561 -2.87403 1.83336 0
M  V30 6765 H 657.754 -1.29086 2.70697 0
M  V30 6766 H 655.307 -0.638715 1.42654 0
M  V30 6767 H 656.042 -3.11686 0.895677 0
M  V30 6768 H 655.827 -2.8854 2.65494 0
M  V30 6769 H 657.317 -3.65103 2.02705 0
M  V30 6770 N 657.755 -1.42862 -0.66545 0
M  V30 6771 C 659.166 -1.3901 -1.24632 0
M  V30 6772 C 659.517 -0.0880285 -1.96002 0
M  V30 6773 O 658.642 0.812947 -2.0055 0
M  V30 6774 C 659.237 -2.51806 -2.2667 0
M  V30 6775 C 657.796 -2.51257 -2.80262 0
M  V30 6776 C 656.943 -2.30124 -1.5472 0
M  V30 6777 H 659.894 -1.5194 -0.458237 0
M  V30 6778 H 659.915 -2.22593 -3.08598 0
M  V30 6779 H 659.427 -3.46558 -1.74697 0
M  V30 6780 H 657.528 -1.60349 -3.36332 0
M  V30 6781 H 657.641 -3.48614 -3.28641 0
M  V30 6782 H 656.005 -1.7856 -1.81627 0
M  V30 6783 H 656.788 -3.26945 -1.04699 0
M  V30 6784 N 659.233 0.902656 -1.29189 0
M  V30 6785 C 660.163 2.02294 -1.16616 0
M  V30 6786 C 661.144 1.6999 -0.0611175 0
M  V30 6787 O 662.329 1.9271 -0.240072 0
M  V30 6788 C 659.459 3.37018 -0.83882 0
M  V30 6789 C 658.413 3.83522 -1.89986 0
M  V30 6790 C 657.739 5.15337 -1.42589 0
M  V30 6791 C 659.039 4.04169 -3.30824 0
M  V30 6792 H 660.733 2.13071 -2.10336 0
M  V30 6793 H 658.279 1.02378 -1.01266 0
M  V30 6794 H 660.232 4.14895 -0.737584 0
M  V30 6795 H 658.956 3.26325 0.134071 0
M  V30 6796 H 657.615 3.07859 -1.99043 0
M  V30 6797 H 657.263 5.01056 -0.441759 0
M  V30 6798 H 656.963 5.47423 -2.13547 0
M  V30 6799 H 658.487 5.95758 -1.3381 0
M  V30 6800 H 659.901 4.72537 -3.24626 0
M  V30 6801 H 658.298 4.47604 -3.99713 0
M  V30 6802 H 659.368 3.08604 -3.74021 0
M  V30 6803 N 660.711 1.11618 1.11262 0
M  V30 6804 C 661.936 0.889013 1.8738 0
M  V30 6805 C 662.361 -0.555884 1.79698 0
M  V30 6806 O 661.719 -1.39272 1.16073 0
M  V30 6807 C 661.767 1.35759 3.34069 0
M  V30 6808 O 660.871 0.530499 4.08974 0
M  V30 6809 H 660.212 0.320082 0.581759 0
M  V30 6810 H 662.742 1.48611 1.40627 0
M  V30 6811 H 662.752 1.35291 3.84916 0
M  V30 6812 H 661.427 2.40973 3.38976 0
M  V30 6813 H 660.004 0.601439 3.68018 0
M  V30 6814 N 662.189 -1.289 0.906776 0
M  V30 6815 C 663.605 -1.47733 0.603902 0
M  V30 6816 C 663.805 -1.82568 -0.852702 0
M  V30 6817 O 662.861 -1.92642 -1.63234 0
M  V30 6818 C 664.174 -2.58522 1.53581 0
M  V30 6819 C 665.722 -2.72394 1.54177 0
M  V30 6820 C 666.197 -3.86318 2.46013 0
M  V30 6821 N 667.688 -3.93661 2.441 0
M  V30 6822 C 668.423 -4.81177 3.11859 0
M  V30 6823 N 667.919 -5.73333 3.88923 0
M  V30 6824 N 669.712 -4.74728 3.00981 0
M  V30 6825 H 661.863 -1.04567 1.84877 0
M  V30 6826 H 664.126 -0.520118 0.792579 0
M  V30 6827 H 663.832 -2.39667 2.57396 0
M  V30 6828 H 663.706 -3.55475 1.26165 0
M  V30 6829 H 666.093 -2.90641 0.511034 0
M  V30 6830 H 666.174 -1.75993 1.85634 0
M  V30 6831 H 665.818 -3.68826 3.49185 0
M  V30 6832 H 665.748 -4.82102 2.11862 0
M  V30 6833 H 668.239 -3.27751 1.88115 0
M  V30 6834 H 668.552 -6.36923 4.37663 0
M  V30 6835 H 666.897 -5.73196 3.93029 0
M  V30 6836 H 670.088 -4.01722 2.40286 0
M  V30 6837 H 670.261 -5.42719 3.54062 0
M  V30 6838 N 663.667 -0.670007 -1.42649 0
M  V30 6839 C 664.944 -0.119451 -1.95235 0
M  V30 6840 C 665.324 1.36461 -1.61064 0
M  V30 6841 O 664.672 2.09843 -0.904329 0
M  V30 6842 C 664.882 -0.383498 -3.46887 0
M  V30 6843 C 666.23 -0.297431 -4.23557 0
M  V30 6844 O 667.254 -0.31698 -3.54787 0
M  V30 6845 O 666.113 -0.235507 -5.45992 0
M  V30 6846 H 663.207 -8.85474e-05 -0.827 0
M  V30 6847 H 665.753 -0.744406 -1.52501 0
M  V30 6848 H 664.525 -1.41174 -3.64946 0
M  V30 6849 H 664.148 0.273702 -3.96657 0
M  V30 6850 N 665.145 1.52092 -0.413018 0
M  V30 6851 C 666.556 1.86617 0.0556967 0
M  V30 6852 C 666.907 1.33156 1.44097 0
M  V30 6853 O 666.032 0.672417 2.05688 0
M  V30 6854 C 666.627 3.38628 0.107844 0
M  V30 6855 C 665.186 3.72778 0.520904 0
M  V30 6856 C 664.333 2.75649 -0.302109 0
M  V30 6857 H 667.284 1.45663 -0.629919 0
M  V30 6858 H 667.305 3.69152 0.922324 0
M  V30 6859 H 666.817 3.77508 -0.900506 0
M  V30 6860 H 664.918 3.39478 1.53575 0
M  V30 6861 H 665.031 4.7838 0.262591 0
M  V30 6862 H 663.395 2.53603 0.236115 0
M  V30 6863 H 664.178 3.17369 -1.30888 0
M  V30 6864 N 666.623 0.143563 1.56945 0
M  V30 6865 C 667.851 -0.515447 2.00377 0
M  V30 6866 C 668.266 -1.58643 1.02361 0
M  V30 6867 O 667.623 -1.82489 0.0201039 0
M  V30 6868 C 667.674 -1.11923 3.43737 0
M  V30 6869 O 667.395 -0.0910318 4.38005 0
M  V30 6870 C 668.896 -1.85918 4.02429 0
M  V30 6871 H 666.116 -0.134478 0.657386 0
M  V30 6872 H 668.66 0.237135 2.0312 0
M  V30 6873 H 666.815 -1.82245 3.41856 0
M  V30 6874 H 667.229 -0.532916 5.21786 0
M  V30 6875 H 668.703 -2.2346 5.04747 0
M  V30 6876 H 669.18 -2.7438 3.42947 0
M  V30 6877 H 669.786 -1.20303 4.07931 0
M  V30 6878 N 668.101 -1.57061 -0.130224 0
M  V30 6879 C 669.011 -2.02802 -1.17934 0
M  V30 6880 C 670.027 -0.946378 -1.46013 0
M  V30 6881 O 671.203 -1.25708 -1.57351 0
M  V30 6882 C 668.268 -2.41368 -2.48882 0
M  V30 6883 C 667.329 -3.63561 -2.28301 0
M  V30 6884 C 666.562 -4.00279 -3.53005 0
M  V30 6885 O 666.785 -3.37463 -4.59864 0
M  V30 6886 O 665.719 -4.93441 -3.44673 0
M  V30 6887 H 669.545 -2.92394 -0.820958 0
M  V30 6888 H 667.13 -1.45475 -0.340197 0
M  V30 6889 H 669.012 -2.66958 -3.26054 0
M  V30 6890 H 667.687 -1.54926 -2.84217 0
M  V30 6891 H 666.594 -3.43136 -1.49025 0
M  V30 6892 H 667.927 -4.50673 -1.97875 0
M  V30 6893 N 669.579 0.400081 -1.52437 0
M  V30 6894 C 670.825 1.14788 -1.67187 0
M  V30 6895 C 671.158 1.89928 -0.405074 0
M  V30 6896 O 670.433 1.85118 0.596804 0
M  V30 6897 C 670.716 2.13507 -2.89977 0
M  V30 6898 C 670.569 1.42204 -4.2673 0
M  V30 6899 C 671.888 3.14069 -3.083 0
M  V30 6900 H 669.007 0.415939 -0.608411 0
M  V30 6901 H 671.649 0.432542 -1.85011 0
M  V30 6902 H 669.799 2.7451 -2.74912 0
M  V30 6903 H 671.471 0.842503 -4.53541 0
M  V30 6904 H 669.714 0.723939 -4.27717 0
M  V30 6905 H 670.385 2.14281 -5.08712 0
M  V30 6906 H 672.861 2.63148 -3.22323 0
M  V30 6907 H 671.737 3.80398 -3.95713 0
M  V30 6908 H 671.998 3.82309 -2.22018 0
M  V30 6909 N 671.057 1.43213 0.657864 0
M  V30 6910 C 672.285 1.48015 1.44566 0
M  V30 6911 C 672.7 0.0965951 1.88553 0
M  V30 6912 O 672.057 -0.892221 1.59203 0
M  V30 6913 C 672.108 2.42199 2.68369 0
M  V30 6914 O 671.829 3.75173 2.26223 0
M  V30 6915 C 673.33 2.56195 3.61772 0
M  V30 6916 H 670.55 0.502861 0.444266 0
M  V30 6917 H 673.094 1.87907 0.806917 0
M  V30 6918 H 671.249 2.05514 3.28394 0
M  V30 6919 H 671.663 4.25776 3.06293 0
M  V30 6920 H 673.137 3.26182 4.4532 0
M  V30 6921 H 673.614 1.60534 4.0881 0
M  V30 6922 H 674.22 2.93671 3.07632 0
M  V30 6923 N 672.536 -0.895792 1.29666 0
M  V30 6924 C 673.499 -1.98189 1.15124 0
M  V30 6925 C 674.499 -1.60572 0.0855717 0
M  V30 6926 O 675.689 -1.70991 0.332826 0
M  V30 6927 C 672.821 -3.32289 0.761372 0
M  V30 6928 H 674.014 -2.12518 2.11603 0
M  V30 6929 H 671.567 -1.0808 1.12908 0
M  V30 6930 H 672.302 -3.23662 -0.203393 0
M  V30 6931 H 672.087 -3.60958 1.53139 0
M  V30 6932 H 673.577 -4.1198 0.682792 0
M  V30 6933 N 674.014 -1.12206 -1.10668 0
M  V30 6934 C 675.263 -0.870595 -1.81944 0
M  V30 6935 C 675.576 0.605447 -1.85994 0
M  V30 6936 O 676.782 0.973433 -2.53449 0
M  V30 6937 C 675.238 -1.50783 -3.26791 0
M  V30 6938 C 674.846 -3.01849 -3.31046 0
M  V30 6939 C 676.59 -1.33653 -4.02911 0
M  V30 6940 C 674.497 -3.58518 -4.70339 0
M  V30 6941 H 673.427 -0.322043 -0.681765 0
M  V30 6942 H 676.078 -1.34827 -1.24475 0
M  V30 6943 H 674.46 -0.957825 -3.84242 0
M  V30 6944 H 675.634 -3.63321 -2.83433 0
M  V30 6945 H 673.949 -3.18346 -2.68411 0
M  V30 6946 H 676.546 -1.73416 -5.05797 0
M  V30 6947 H 676.889 -0.279949 -4.15358 0
M  V30 6948 H 677.422 -1.85562 -3.51868 0
M  V30 6949 H 674.161 -4.63925 -4.63091 0
M  V30 6950 H 673.681 -3.01819 -5.18329 0
M  V30 6951 H 675.36 -3.57434 -5.39305 0
M  V30 6952 N 675.492 1.28418 -0.913599 0
M  V30 6953 C 676.74 1.94596 -0.545594 0
M  V30 6954 C 677.061 1.7227 0.913668 0
M  V30 6955 O 676.331 1.06233 1.64595 0
M  V30 6956 H 674.911 0.720065 -0.198783 0
M  V30 6957 H 677.573 1.56404 -1.16292 0
M  V30 6958 H 676.669 3.03202 -0.739911 0
M  V30 6959 N 676.97 0.677563 1.42291 0
M  V30 6960 C 677.933 0.0101085 2.29198 0
M  V30 6961 C 678.933 -0.726219 1.43467 0
M  V30 6962 O 680.123 -0.563807 1.64824 0
M  V30 6963 C 677.255 -0.996316 3.26016 0
M  V30 6964 H 678.448 0.775071 2.89711 0
M  V30 6965 H 676.001 0.440065 1.49977 0
M  V30 6966 H 676.736 -1.78967 2.70446 0
M  V30 6967 H 676.521 -0.471687 3.89253 0
M  V30 6968 H 678.011 -1.46167 3.91184 0
M  V30 6969 N 678.448 -1.51871 0.421078 0
M  V30 6970 C 679.694 -2.02237 -0.151014 0
M  V30 6971 C 680.027 -1.30554 -1.43768 0
M  V30 6972 O 679.302 -0.41546 -1.90011 0
M  V30 6973 C 679.585 -3.5802 -0.386482 0
M  V30 6974 C 679.438 -4.40339 0.9177 0
M  V30 6975 C 680.757 -4.24444 -1.16342 0
M  V30 6976 H 677.876 -0.735062 -0.0534102 0
M  V30 6977 H 680.518 -1.81656 0.556888 0
M  V30 6978 H 678.668 -3.75688 -0.989494 0
M  V30 6979 H 680.34 -4.34357 1.55344 0
M  V30 6980 H 678.583 -4.06073 1.526 0
M  V30 6981 H 679.254 -5.47451 0.707187 0
M  V30 6982 H 681.73 -4.10948 -0.652788 0
M  V30 6983 H 680.606 -5.33358 -1.29693 0
M  V30 6984 H 680.867 -3.84204 -2.18724 0
M  V30 6985 N 679.926 -0.151884 -1.56866 0
M  V30 6986 C 680.836 0.798876 -2.20579 0
M  V30 6987 C 681.852 1.268 -1.19154 0
M  V30 6988 O 683.028 1.32418 -1.51748 0
M  V30 6989 C 680.093 2.01861 -2.81874 0
M  V30 6990 C 679.154 1.59825 -3.9844 0
M  V30 6991 C 678.387 2.75984 -4.56802 0
M  V30 6992 O 678.61 3.92331 -4.14044 0
M  V30 6993 O 677.544 2.51175 -5.46987 0
M  V30 6994 H 681.37 0.2865 -3.02346 0
M  V30 6995 H 678.955 0.0753806 -1.4921 0
M  V30 6996 H 680.837 2.73235 -3.20813 0
M  V30 6997 H 679.512 2.52042 -2.03117 0
M  V30 6998 H 678.419 0.854601 -3.64208 0
M  V30 6999 H 679.752 1.14355 -4.78731 0
M  V30 7000 N 681.404 1.57128 0.121893 0
M  V30 7001 C 682.367 1.99197 1.13372 0
M  V30 7002 C 683.367 0.881728 1.3447 0
M  V30 7003 O 684.557 1.14783 1.31036 0
M  V30 7004 C 681.689 2.32963 2.4888 0
M  V30 7005 H 682.882 2.89788 0.772204 0
M  V30 7006 H 680.435 1.51952 0.366093 0
M  V30 7007 H 681.17 1.45243 2.89957 0
M  V30 7008 H 680.955 3.13934 2.34921 0
M  V30 7009 H 682.445 2.66261 3.21706 0
M  V30 7010 N 682.882 -0.391992 1.52647 0
M  V30 7011 C 683.845 -1.46135 1.7657 0
M  V30 7012 C 684.845 -1.47701 0.635698 0
M  V30 7013 O 686.035 -1.48924 0.903728 0
M  V30 7014 C 683.167 -2.85443 1.86374 0
M  V30 7015 H 684.36 -1.26208 2.72051 0
M  V30 7016 H 681.913 -0.623549 1.43323 0
M  V30 7017 H 682.648 -3.10718 0.928685 0
M  V30 7018 H 682.433 -2.85708 2.68539 0
M  V30 7019 H 683.923 -3.62933 2.06566 0
M  V30 7020 N 684.36 -1.4356 -0.65026 0
M  V30 7021 C 685.607 -1.45333 -1.41012 0
M  V30 7022 C 685.935 -0.0787282 -1.94341 0
M  V30 7023 O 685.19 0.916715 -1.72901 0
M  V30 7024 C 685.489 -2.44528 -2.60654 0
M  V30 7025 C 685.155 -3.90331 -2.25727 0
M  V30 7026 C 683.817 -4.3004 -2.15914 0
M  V30 7027 C 686.169 -4.822 -1.97821 0
M  V30 7028 C 683.497 -5.59568 -1.76354 0
M  V30 7029 C 685.849 -6.12095 -1.59759 0
M  V30 7030 C 684.513 -6.50778 -1.48473 0
M  V30 7031 H 683.783 -0.531813 -0.516 0
M  V30 7032 H 686.43 -1.76657 -0.739219 0
M  V30 7033 H 684.735 -2.06619 -3.3289 0
M  V30 7034 H 686.432 -2.43155 -3.18868 0
M  V30 7035 H 683.022 -3.58905 -2.34276 0
M  V30 7036 H 687.206 -4.5229 -2.04322 0
M  V30 7037 H 682.462 -5.88376 -1.66205 0
M  V30 7038 H 686.636 -6.82751 -1.37198 0
M  V30 7039 H 684.263 -7.5105 -1.17591 0
M  V30 7040 N 685.838 0.888903 -1.30139 0
M  V30 7041 C 686.785 1.99422 -1.16188 0
M  V30 7042 C 687.755 1.66017 -0.0523869 0
M  V30 7043 O 688.94 1.89506 -0.221864 0
M  V30 7044 C 686.08 3.34325 -0.855612 0
M  V30 7045 C 685.193 3.80445 -2.0466 0
M  V30 7046 C 684.328 5.03975 -1.67876 0
M  V30 7047 C 683.367 5.42492 -2.83493 0
M  V30 7048 N 682.504 6.57206 -2.47032 0
M  V30 7049 H 687.344 2.10687 -2.10749 0
M  V30 7050 H 684.881 1.03165 -1.04859 0
M  V30 7051 H 686.839 4.11968 -0.658681 0
M  V30 7052 H 685.469 3.22756 0.0531155 0
M  V30 7053 H 684.521 2.98745 -2.3549 0
M  V30 7054 H 685.833 4.04933 -2.91257 0
M  V30 7055 H 684.987 5.89232 -1.44535 0
M  V30 7056 H 683.726 4.8135 -0.784431 0
M  V30 7057 H 682.731 4.55764 -3.07505 0
M  V30 7058 H 683.956 5.67093 -3.73607 0
M  V30 7059 H 681.902 6.36164 -1.601 0
M  V30 7060 H 681.819 6.81543 -3.27161 0
M  V30 7061 H 683.087 7.45704 -2.27038 0
M  V30 7062 N 687.317 1.12792 1.10072 0
M  V30 7063 C 688.557 0.895691 1.8373 0
M  V30 7064 C 688.921 -0.568131 1.83402 0
M  V30 7065 O 690.122 -0.917666 2.52651 0
M  V30 7066 C 688.393 1.4593 3.2625 0
M  V30 7067 S 689.952 1.36615 4.16991 0
M  V30 7068 H 686.77 0.323017 0.633389 0
M  V30 7069 H 689.372 1.43816 1.32428 0
M  V30 7070 H 688.076 2.51818 3.24062 0
M  V30 7071 H 687.607 0.914478 3.82624 0
M  V30 7072 H 689.622 0.340131 4.95033 0
M  V30 7073 N 688.795 -1.27931 0.920396 0
M  V30 7074 C 690.035 -1.96459 0.564198 0
M  V30 7075 C 690.399 -1.70802 -0.876967 0
M  V30 7076 O 691.6 -2.32956 -1.34107 0
M  V30 7077 C 689.871 -3.46583 0.872641 0
M  V30 7078 S 691.43 -4.34343 0.623859 0
M  V30 7079 H 688.248 -0.679735 0.208523 0
M  V30 7080 H 690.85 -1.55319 1.18727 0
M  V30 7081 H 689.554 -3.62753 1.91933 0
M  V30 7082 H 689.085 -3.92677 0.238479 0
M  V30 7083 H 691.1 -4.93449 -0.521744 0
M  V30 7084 N 690.273 -0.685099 -1.4193 0
M  V30 7085 C 691.236 -0.0222632 -2.29189 0
M  V30 7086 C 692.236 0.7186 -1.4385 0
M  V30 7087 O 693.426 0.555058 -1.6512 0
M  V30 7088 C 690.558 0.979013 -3.2654 0
M  V30 7089 H 691.751 -0.790424 -2.89296 0
M  V30 7090 H 689.304 -0.448012 -1.49742 0
M  V30 7091 H 690.039 1.77531 -2.71392 0
M  V30 7092 H 689.824 0.451037 -3.89497 0
M  V30 7093 H 691.314 1.44091 -3.91954 0
M  V30 7094 N 691.751 1.51645 -0.429126 0
M  V30 7095 C 692.714 2.26116 0.374726 0
M  V30 7096 C 693.714 1.29242 0.956714 0
M  V30 7097 O 694.904 1.53022 0.832452 0
M  V30 7098 C 692.036 3.04669 1.52937 0
M  V30 7099 H 693.229 2.9861 -0.277818 0
M  V30 7100 H 690.782 1.55236 -0.182097 0
M  V30 7101 H 691.517 2.36571 2.21821 0
M  V30 7102 H 691.302 3.75814 1.11833 0
M  V30 7103 H 692.792 3.61102 2.09751 0
M  V30 7104 N 693.229 0.160201 1.56784 0
M  V30 7105 C 694.192 -0.760405 2.16219 0
M  V30 7106 C 695.192 -1.16595 1.10735 0
M  V30 7107 O 696.382 -1.08472 1.36306 0
M  V30 7108 C 693.514 -2.03358 2.73603 0
M  V30 7109 H 694.707 -0.243173 2.98912 0
M  V30 7110 H 692.26 -0.0893139 1.56045 0
M  V30 7111 H 692.995 -2.59416 1.94612 0
M  V30 7112 H 692.78 -1.75186 3.50788 0
M  V30 7113 H 694.27 -2.69081 3.19351 0
M  V30 7114 N 694.707 -1.5719 -0.113559 0
M  V30 7115 C 695.956 -1.84325 -0.818984 0
M  V30 7116 C 696.269 -0.746685 -1.80787 0
M  V30 7117 O 697.475 -0.904596 -2.55987 0
M  V30 7118 C 695.931 -3.26818 -1.50724 0
M  V30 7119 C 695.539 -4.44498 -0.559065 0
M  V30 7120 C 697.283 -3.63196 -2.19748 0
M  V30 7121 C 695.19 -5.7802 -1.25086 0
M  V30 7122 H 694.12 -0.687507 -0.309596 0
M  V30 7123 H 696.771 -1.8336 -0.0717621 0
M  V30 7124 H 695.153 -3.22269 -2.30128 0
M  V30 7125 H 696.327 -4.60356 0.202146 0
M  V30 7126 H 694.642 -4.16393 0.024495 0
M  V30 7127 H 697.239 -4.60226 -2.72206 0
M  V30 7128 H 697.582 -2.90899 -2.97798 0
M  V30 7129 H 698.115 -3.69553 -1.47226 0
M  V30 7130 H 694.854 -6.53501 -0.511539 0
M  V30 7131 H 694.374 -5.66038 -1.98395 0
M  V30 7132 H 696.053 -6.2196 -1.78253 0
M  V30 7133 N 696.185 0.383891 -1.52853 0
M  V30 7134 C 697.434 1.12563 -1.67369 0
M  V30 7135 C 697.747 1.90982 -0.422533 0
M  V30 7136 O 698.953 2.6778 -0.447914 0
M  V30 7137 C 697.409 2.05011 -2.95801 0
M  V30 7138 C 697.017 1.31991 -4.28115 0
M  V30 7139 C 698.761 2.79289 -3.19684 0
M  V30 7140 C 696.668 2.23235 -5.4765 0
M  V30 7141 H 695.598 0.42391 -0.623552 0
M  V30 7142 H 698.249 0.388016 -1.79351 0
M  V30 7143 H 696.631 2.82429 -2.77578 0
M  V30 7144 H 697.805 0.597633 -4.56908 0
M  V30 7145 H 696.12 0.696517 -4.10533 0
M  V30 7146 H 698.717 3.47749 -4.06171 0
M  V30 7147 H 699.06 3.43649 -2.3497 0
M  V30 7148 H 699.593 2.08962 -3.38496 0
M  V30 7149 H 696.332 1.63482 -6.34786 0
M  V30 7150 H 695.852 2.93364 -5.23161 0
M  V30 7151 H 697.531 2.83205 -5.81725 0
M  V30 7152 N 697.663 1.43903 0.642637 0
M  V30 7153 C 698.909 1.46296 1.40447 0
M  V30 7154 C 699.242 0.0908361 1.93987 0
M  V30 7155 O 698.517 -0.889884 1.72949 0
M  V30 7156 C 698.8 2.51399 2.57819 0
M  V30 7157 C 698.653 3.97926 2.09702 0
M  V30 7158 C 699.972 2.53125 3.60022 0
M  V30 7159 H 697.091 0.532676 0.509338 0
M  V30 7160 H 699.733 1.75515 0.727635 0
M  V30 7161 H 697.883 2.26614 3.1556 0
M  V30 7162 H 699.555 4.33804 1.5688 0
M  V30 7163 H 697.798 4.10252 1.40982 0
M  V30 7164 H 698.469 4.67096 2.94152 0
M  V30 7165 H 700.945 2.75242 3.12059 0
M  V30 7166 H 699.821 3.28589 4.39682 0
M  V30 7167 H 700.082 1.56895 4.13324 0
M  V30 7168 N 699.141 -0.881989 1.30609 0
M  V30 7169 C 700.071 -2.00413 1.1982 0
M  V30 7170 C 701.052 -1.69871 0.0881538 0
M  V30 7171 O 702.237 -1.92304 0.2707 0
M  V30 7172 C 699.367 -3.35641 0.89233 0
M  V30 7173 C 698.321 -3.80451 1.96064 0
M  V30 7174 C 697.647 -5.13003 1.5077 0
M  V30 7175 C 698.947 -3.98855 3.37213 0
M  V30 7176 H 700.641 -2.09698 2.13699 0
M  V30 7177 H 698.187 -1.00754 1.02882 0
M  V30 7178 H 700.14 -4.13669 0.803497 0
M  V30 7179 H 698.864 -3.26497 -0.0821381 0
M  V30 7180 H 697.523 -3.04654 2.03916 0
M  V30 7181 H 697.171 -5.0029 0.521417 0
M  V30 7182 H 696.871 -5.43956 2.22229 0
M  V30 7183 H 698.395 -5.93554 1.43271 0
M  V30 7184 H 699.809 -4.67312 3.32103 0
M  V30 7185 H 698.206 -4.41188 4.06784 0
M  V30 7186 H 699.276 -3.02614 3.78883 0
M  V30 7187 N 700.619 -1.13374 -1.09472 0
M  V30 7188 C 701.847 -0.918351 -1.85402 0
M  V30 7189 C 702.262 0.53281 -1.81126 0
M  V30 7190 O 701.619 1.36879 -1.20708 0
M  V30 7191 C 701.67 -1.39743 -3.33398 0
M  V30 7192 O 701.391 -2.79172 -3.37631 0
M  V30 7193 C 702.892 -1.22042 -4.2617 0
M  V30 7194 H 700.112 -0.327511 -0.585643 0
M  V30 7195 H 702.656 -1.50617 -1.38328 0
M  V30 7196 H 700.811 -0.852619 -3.77901 0
M  V30 7197 H 701.225 -3.00428 -4.29934 0
M  V30 7198 H 702.699 -1.60438 -5.2817 0
M  V30 7199 H 703.176 -0.162047 -4.38901 0
M  V30 7200 H 703.782 -1.75323 -3.87482 0
M  V30 7201 N 702.098 1.27442 -0.927168 0
M  V30 7202 C 703.326 1.98498 -0.583622 0
M  V30 7203 C 703.741 1.69171 0.838241 0
M  V30 7204 O 703.098 0.951969 1.55704 0
M  V30 7205 C 703.149 3.52552 -0.799341 0
M  V30 7206 O 702.87 3.80851 -2.16527 0
M  V30 7207 C 704.371 4.4086 -0.464436 0
M  V30 7208 H 701.591 0.633487 -0.221213 0
M  V30 7209 H 704.135 1.62308 -1.24404 0
M  V30 7210 H 702.29 3.86955 -0.185728 0
M  V30 7211 H 702.704 4.75441 -2.21487 0
M  V30 7212 H 704.178 5.47967 -0.666075 0
M  V30 7213 H 704.655 4.35082 0.599995 0
M  V30 7214 H 705.261 4.11977 -1.05617 0
M  V30 7215 N 703.576 0.692616 1.41565 0
M  V30 7216 C 704.804 0.231279 2.05603 0
M  V30 7217 C 705.219 -1.11837 1.52111 0
M  V30 7218 O 704.576 -1.6983 0.66813 0
M  V30 7219 C 704.627 0.177125 3.61066 0
M  V30 7220 O 704.348 1.47346 4.12578 0
M  V30 7221 C 705.849 -0.30556 4.42246 0
M  V30 7222 H 703.069 0.108238 0.662213 0
M  V30 7223 H 705.613 0.944369 1.81389 0
M  V30 7224 H 703.768 -0.486769 3.8433 0
M  V30 7225 H 704.182 1.35861 5.06599 0
M  V30 7226 H 705.656 -0.29233 5.51225 0
M  V30 7227 H 706.133 -1.34393 4.18133 0
M  V30 7228 H 706.739 0.327229 4.24039 0
M  V30 7229 N 705.054 -1.51416 0.437162 0
M  V30 7230 C 706.302 -2.01687 -0.129108 0
M  V30 7231 C 706.623 -1.32329 -1.43227 0
M  V30 7232 O 705.893 -0.457796 -1.90476 0
M  V30 7233 H 704.473 -0.745277 -0.0507023 0
M  V30 7234 H 707.135 -1.86075 0.579828 0
M  V30 7235 H 706.231 -3.10605 -0.305141 0
M  V30 7236 N 706.532 -0.168513 -1.56696 0
M  V30 7237 C 707.948 0.187686 -1.58493 0
M  V30 7238 C 708.148 1.63063 -1.18375 0
M  V30 7239 O 707.204 2.36142 -0.894042 0
M  V30 7240 C 708.517 -0.0905858 -3.00564 0
M  V30 7241 C 710.065 -0.028575 -3.12987 0
M  V30 7242 C 710.54 -0.279799 -4.57145 0
M  V30 7243 N 712.031 -0.227476 -4.62641 0
M  V30 7244 C 712.766 -0.396073 -5.7203 0
M  V30 7245 N 712.262 -0.623572 -6.89988 0
M  V30 7246 N 714.055 -0.332173 -5.61118 0
M  V30 7247 H 706.206 -1.11042 -1.81062 0
M  V30 7248 H 708.469 -0.441235 -0.839056 0
M  V30 7249 H 708.175 -1.09006 -3.34381 0
M  V30 7250 H 708.049 0.619078 -3.72085 0
M  V30 7251 H 710.436 0.961471 -2.78998 0
M  V30 7252 H 710.517 -0.770905 -2.43907 0
M  V30 7253 H 710.161 -1.26704 -4.91842 0
M  V30 7254 H 710.091 0.48311 -5.24379 0
M  V30 7255 H 712.582 -0.0571723 -3.77857 0
M  V30 7256 H 712.895 -0.741745 -7.69232 0
M  V30 7257 H 711.24 -0.660153 -6.91858 0
M  V30 7258 H 714.431 -0.155051 -4.67843 0
M  V30 7259 H 714.604 -0.466994 -6.46315 0
M  V30 7260 N 708.01 1.57248 0.105221 0
M  V30 7261 C 709.235 1.90143 0.828264 0
M  V30 7262 C 709.66 0.761811 1.71983 0
M  V30 7263 O 709.018 -0.287086 1.79013 0
M  V30 7264 C 709.066 3.21856 1.62608 0
M  V30 7265 O 708.17 3.08732 2.7342 0
M  V30 7266 H 707.511 0.623558 0.228192 0
M  V30 7267 H 710.041 2.0443 0.0834826 0
M  V30 7268 H 710.051 3.54916 2.01243 0
M  V30 7269 H 708.726 4.0439 0.971687 0
M  V30 7270 H 707.303 2.87167 2.37886 0
M  V30 7271 N 709.488 -0.375779 1.53054 0
M  V30 7272 C 710.451 -1.44254 1.7811 0
M  V30 7273 C 711.451 -1.47018 0.651328 0
M  V30 7274 O 712.641 -1.47957 0.919472 0
M  V30 7275 C 709.773 -2.8345 1.89391 0
M  V30 7276 H 710.966 -1.23316 2.73374 0
M  V30 7277 H 708.519 -0.608312 1.43977 0
M  V30 7278 H 709.254 -3.09716 0.961589 0
M  V30 7279 H 709.039 -2.82844 2.71555 0
M  V30 7280 H 710.529 -3.60722 2.10404 0
M  V30 7281 N 710.966 -1.44241 -0.634997 0
M  V30 7282 C 711.898 -1.46793 -1.76024 0
M  V30 7283 C 712.911 -0.361781 -1.58729 0
M  V30 7284 O 714.1 -0.627297 -1.67114 0
M  V30 7285 C 711.2 -1.28248 -3.13697 0
M  V30 7286 C 710.373 -2.52038 -3.57485 0
M  V30 7287 C 709.432 -2.2845 -4.74022 0
M  V30 7288 O 708.458 -3.01915 -4.82531 0
M  V30 7289 N 709.66 -1.31264 -5.65464 0
M  V30 7290 H 712.425 -2.43797 -1.74307 0
M  V30 7291 H 709.986 -1.39631 -0.819438 0
M  V30 7292 H 711.978 -1.10321 -3.89373 0
M  V30 7293 H 710.548 -0.39623 -3.10079 0
M  V30 7294 H 709.768 -2.85268 -2.72059 0
M  V30 7295 H 711.056 -3.34382 -3.83492 0
M  V30 7296 H 710.454 -0.705817 -5.6128 0
M  V30 7297 H 709.011 -1.19316 -6.40786 0
M  V30 7298 N 712.444 0.87505 -1.31075 0
M  V30 7299 C 713.374 1.99775 -1.20881 0
M  V30 7300 C 714.355 1.69822 -0.0971612 0
M  V30 7301 O 715.54 1.92158 -0.280895 0
M  V30 7302 C 712.67 3.35163 -0.910118 0
M  V30 7303 C 711.624 3.79406 -1.98078 0
M  V30 7304 C 710.95 5.12197 -1.53488 0
M  V30 7305 C 712.25 3.97061 -3.39323 0
M  V30 7306 H 713.944 2.08562 -2.14808 0
M  V30 7307 H 711.49 1.00207 -1.03415 0
M  V30 7308 H 713.443 4.13237 -0.825423 0
M  V30 7309 H 712.167 3.26536 0.064822 0
M  V30 7310 H 710.826 3.03568 -2.05528 0
M  V30 7311 H 710.474 5.00007 -0.547941 0
M  V30 7312 H 710.174 5.4277 -2.2511 0
M  V30 7313 H 711.698 5.92785 -1.46417 0
M  V30 7314 H 713.112 4.65545 -3.34576 0
M  V30 7315 H 711.509 4.39025 -4.09118 0
M  V30 7316 H 712.579 3.00601 -3.80483 0
M  V30 7317 N 713.922 1.13953 1.08869 0
M  V30 7318 C 714.852 0.844824 2.17681 0
M  V30 7319 C 715.833 -0.198213 1.68941 0
M  V30 7320 O 717.018 -0.0559073 1.9412 0
M  V30 7321 C 714.148 0.316325 3.45856 0
M  V30 7322 C 713.102 1.29426 4.07962 0
M  V30 7323 C 712.428 0.625275 5.31031 0
M  V30 7324 C 713.728 2.65484 4.49795 0
M  V30 7325 H 715.422 1.75471 2.42591 0
M  V30 7326 H 712.968 0.845116 1.16592 0
M  V30 7327 H 714.921 0.0977876 4.21287 0
M  V30 7328 H 713.645 -0.628972 3.20486 0
M  V30 7329 H 712.304 1.49889 3.34558 0
M  V30 7330 H 711.952 -0.325678 5.01945 0
M  V30 7331 H 711.652 1.27777 5.73539 0
M  V30 7332 H 713.176 0.416152 6.0918 0
M  V30 7333 H 714.59 2.48957 5.16424 0
M  V30 7334 H 712.987 3.26963 5.03205 0
M  V30 7335 H 714.057 3.22717 3.61914 0
M  V30 7336 N 715.4 -1.26948 0.933913 0
M  V30 7337 C 716.625 -1.98724 0.593589 0
M  V30 7338 C 717.05 -1.6915 -0.822801 0
M  V30 7339 O 716.408 -0.93533 -1.5531 0
M  V30 7340 C 716.456 -3.50834 0.833542 0
M  V30 7341 O 715.56 -4.12284 -0.0978788 0
M  V30 7342 H 714.901 -0.623683 0.227849 0
M  V30 7343 H 717.431 -1.61599 1.25486 0
M  V30 7344 H 717.441 -4.01018 0.75156 0
M  V30 7345 H 716.116 -3.71691 1.86597 0
M  V30 7346 H 714.693 -3.72884 0.0345443 0
M  V30 7347 N 716.879 -0.700114 -1.41195 0
M  V30 7348 C 718.295 -0.372114 -1.55201 0
M  V30 7349 C 718.495 1.12053 -1.6747 0
M  V30 7350 O 717.551 1.90642 -1.65566 0
M  V30 7351 C 718.864 -1.12462 -2.78878 0
M  V30 7352 C 720.412 -1.10941 -2.92679 0
M  V30 7353 C 720.887 -1.84376 -4.19249 0
M  V30 7354 N 722.378 -1.81368 -4.26216 0
M  V30 7355 C 723.113 -2.35024 -5.23021 0
M  V30 7356 N 722.609 -2.9717 -6.25829 0
M  V30 7357 N 724.402 -2.25254 -5.14992 0
M  V30 7358 H 716.553 -1.66816 -1.31477 0
M  V30 7359 H 718.816 -0.704223 -0.634644 0
M  V30 7360 H 718.522 -2.17937 -2.76037 0
M  V30 7361 H 718.396 -0.706152 -3.70531 0
M  V30 7362 H 720.783 -0.062911 -2.95033 0
M  V30 7363 H 720.864 -1.56698 -2.02187 0
M  V30 7364 H 720.508 -2.89008 -4.17656 0
M  V30 7365 H 720.438 -1.3605 -5.08722 0
M  V30 7366 H 722.929 -1.36062 -3.52556 0
M  V30 7367 H 723.242 -3.35668 -6.96094 0
M  V30 7368 H 721.587 -3.01249 -6.26318 0
M  V30 7369 H 724.778 -1.76372 -4.33602 0
M  V30 7370 H 724.951 -2.67373 -5.90268 0
M  V30 7371 N 718.357 1.51182 -0.445186 0
M  V30 7372 C 719.587 2.06269 0.116922 0
M  V30 7373 C 719.995 1.31188 1.36332 0
M  V30 7374 O 719.338 0.367067 1.79995 0
M  V30 7375 C 719.4 3.56051 0.496757 0
M  V30 7376 C 719.064 4.52441 -0.64394 0
M  V30 7377 C 720.061 4.97233 -1.5184 0
M  V30 7378 C 717.746 4.95447 -0.826905 0
M  V30 7379 C 719.74 5.83712 -2.56046 0
M  V30 7380 C 717.427 5.81714 -1.87222 0
M  V30 7381 C 718.425 6.25745 -2.73738 0
M  V30 7382 O 718.113 7.10298 -3.76474 0
M  V30 7383 H 717.845 0.675954 0.00785733 0
M  V30 7384 H 720.399 1.95648 -0.625371 0
M  V30 7385 H 718.629 3.64483 1.29187 0
M  V30 7386 H 720.318 3.93618 0.990928 0
M  V30 7387 H 721.084 4.64696 -1.38862 0
M  V30 7388 H 716.963 4.60712 -0.163052 0
M  V30 7389 H 720.507 6.18 -3.23607 0
M  V30 7390 H 716.404 6.13664 -2.00218 0
M  V30 7391 H 717.172 7.28493 -3.73149 0
M  V30 7392 N 719.835 0.176821 1.56605 0
M  V30 7393 C 721.251 -0.179278 1.5859 0
M  V30 7394 C 721.451 -1.62433 1.19238 0
M  V30 7395 O 720.507 -2.35665 0.906552 0
M  V30 7396 C 721.82 0.106524 3.00511 0
M  V30 7397 C 723.368 0.0451731 3.12967 0
M  V30 7398 C 723.843 0.304038 4.5699 0
M  V30 7399 N 725.334 0.252008 4.62514 0
M  V30 7400 C 726.069 0.426404 5.71812 0
M  V30 7401 N 725.565 0.660155 6.89648 0
M  V30 7402 N 727.358 0.361926 5.60934 0
M  V30 7403 H 719.509 1.12001 1.8047 0
M  V30 7404 H 721.772 0.445679 0.836704 0
M  V30 7405 H 721.478 1.10778 3.33798 0
M  V30 7406 H 721.352 -0.599337 3.72408 0
M  V30 7407 H 723.739 -0.946662 2.79504 0
M  V30 7408 H 723.82 0.78383 2.43495 0
M  V30 7409 H 723.464 1.29311 4.91163 0
M  V30 7410 H 723.394 -0.455294 5.24628 0
M  V30 7411 H 725.885 0.0772102 3.77821 0
M  V30 7412 H 726.198 0.782529 7.68828 0
M  V30 7413 H 724.543 0.696835 6.91498 0
M  V30 7414 H 727.734 0.17986 4.67754 0
M  V30 7415 H 727.907 0.501263 6.46058 0
M  V30 7416 N 721.313 -1.57302 -0.09688 0
M  V30 7417 C 722.724 -1.7496 -0.651595 0
M  V30 7418 C 723.075 -0.798746 -1.79205 0
M  V30 7419 O 722.2 0.0231858 -2.16388 0
M  V30 7420 C 722.795 -3.17259 -1.18878 0
M  V30 7421 C 721.354 -3.36348 -1.68958 0
M  V30 7422 C 720.501 -2.70766 -0.598413 0
M  V30 7423 H 723.452 -1.58173 0.12918 0
M  V30 7424 H 723.473 -3.20033 -2.05814 0
M  V30 7425 H 722.985 -3.8644 -0.358523 0
M  V30 7426 H 721.086 -2.72243 -2.5439 0
M  V30 7427 H 721.199 -4.44654 -1.7838 0
M  V30 7428 H 719.563 -2.32615 -1.03743 0
M  V30 7429 H 720.346 -3.42586 0.221238 0
M  V30 7430 N 722.791 0.367657 -1.53252 0
M  V30 7431 C 724.207 0.709191 -1.42978 0
M  V30 7432 C 724.407 1.93352 -0.567193 0
M  V30 7433 O 723.463 2.52453 -0.0488349 0
M  V30 7434 C 724.776 0.924338 -2.86141 0
M  V30 7435 C 726.324 1.02448 -2.95759 0
M  V30 7436 C 726.799 1.27211 -4.39979 0
M  V30 7437 N 728.29 1.33986 -4.43398 0
M  V30 7438 C 729.025 1.54852 -5.52095 0
M  V30 7439 N 728.521 1.73049 -6.7084 0
M  V30 7440 N 730.314 1.57205 -5.39669 0
M  V30 7441 H 722.465 -0.437669 -2.07842 0
M  V30 7442 H 724.728 -0.133737 -0.938519 0
M  V30 7443 H 724.434 0.0965455 -3.51567 0
M  V30 7444 H 724.308 1.83302 -3.29667 0
M  V30 7445 H 726.695 1.84282 -2.30487 0
M  V30 7446 H 726.776 0.0932301 -2.5563 0
M  V30 7447 H 726.42 0.458792 -5.05824 0
M  V30 7448 H 726.35 2.21654 -4.77679 0
M  V30 7449 H 728.841 1.21545 -3.5782 0
M  V30 7450 H 729.154 1.88538 -7.49449 0
M  V30 7451 H 727.499 1.70231 -6.7383 0
M  V30 7452 H 730.69 1.42555 -4.45865 0
M  V30 7453 H 730.863 1.73126 -6.24445 0
M  V30 7454 N 724.269 1.44576 0.627338 0
M  V30 7455 C 725.232 1.51372 1.72102 0
M  V30 7456 C 726.232 0.395329 1.55865 0
M  V30 7457 O 727.422 0.658094 1.61291 0
M  V30 7458 C 724.554 1.39129 3.11217 0
M  V30 7459 H 725.747 2.48798 1.6745 0
M  V30 7460 H 723.3 1.31724 0.841336 0
M  V30 7461 H 724.035 0.428114 3.21462 0
M  V30 7462 H 723.82 2.20229 3.24409 0
M  V30 7463 H 725.31 1.46874 3.90919 0
M  V30 7464 N 725.747 -0.868086 1.31537 0
M  V30 7465 C 726.71 -1.95703 1.19302 0
M  V30 7466 C 727.71 -1.60355 0.119612 0
M  V30 7467 O 728.9 -1.70247 0.36902 0
M  V30 7468 C 726.032 -3.30599 0.831684 0
M  V30 7469 H 727.225 -2.07982 2.16064 0
M  V30 7470 H 724.778 -1.05661 1.15176 0
M  V30 7471 H 725.513 -3.2402 -0.134694 0
M  V30 7472 H 725.298 -3.57629 1.60761 0
M  V30 7473 H 726.788 -4.10439 0.770026 0
M  V30 7474 N 727.225 -1.14528 -1.08264 0
M  V30 7475 C 728.471 -0.91576 -1.80947 0
M  V30 7476 C 728.804 0.55623 -1.86064 0
M  V30 7477 O 728.079 1.41207 -1.33756 0
M  V30 7478 C 728.362 -1.51917 -3.26486 0
M  V30 7479 C 728.215 -3.06111 -3.2957 0
M  V30 7480 C 729.534 -1.19724 -4.23502 0
M  V30 7481 H 726.653 -0.334113 -0.656915 0
M  V30 7482 H 729.295 -1.41547 -1.26746 0
M  V30 7483 H 727.445 -1.0942 -3.72773 0
M  V30 7484 H 729.117 -3.57448 -2.91597 0
M  V30 7485 H 727.36 -3.40483 -2.688 0
M  V30 7486 H 728.031 -3.43438 -4.32151 0
M  V30 7487 H 730.507 -1.56467 -3.85561 0
M  V30 7488 H 729.383 -1.64575 -5.23647 0
M  V30 7489 H 729.644 -0.112771 -4.41956 0
M  V30 7490 N 728.703 1.26451 -0.940633 0
M  V30 7491 C 729.952 1.93071 -0.583656 0
M  V30 7492 C 730.265 1.74618 0.881366 0
M  V30 7493 O 731.471 2.35689 1.34769 0
M  V30 7494 C 729.927 3.45927 -0.993106 0
M  V30 7495 C 729.535 3.73115 -2.4797 0
M  V30 7496 C 731.279 4.18554 -0.707998 0
M  V30 7497 C 729.186 5.19408 -2.82788 0
M  V30 7498 H 728.116 0.722824 -0.214572 0
M  V30 7499 H 730.767 1.43538 -1.1432 0
M  V30 7500 H 729.149 3.94341 -0.362099 0
M  V30 7501 H 730.323 3.35408 -3.15971 0
M  V30 7502 H 728.638 3.13719 -2.73805 0
M  V30 7503 H 731.235 5.26293 -0.94447 0
M  V30 7504 H 731.578 4.14782 0.355225 0
M  V30 7505 H 732.111 3.76003 -1.2987 0
M  V30 7506 H 728.85 5.28281 -3.88071 0
M  V30 7507 H 728.37 5.58214 -2.19449 0
M  V30 7508 H 730.049 5.87407 -2.71224 0
M  V30 7509 N 730.181 0.707592 1.40822 0
M  V30 7510 C 731.144 0.0587224 2.29125 0
M  V30 7511 C 732.144 -0.695624 1.44975 0
M  V30 7512 O 733.334 -0.528718 1.65983 0
M  V30 7513 C 730.466 -0.926939 3.28056 0
M  V30 7514 H 731.659 0.836349 2.88002 0
M  V30 7515 H 729.212 0.471778 1.4901 0
M  V30 7516 H 729.947 -1.7319 2.74182 0
M  V30 7517 H 729.732 -0.389015 3.90165 0
M  V30 7518 H 731.222 -1.37837 3.94196 0
M  V30 7519 N 731.66 -1.50943 0.453197 0
M  V30 7520 C 732.906 -2.02512 -0.108082 0
M  V30 7521 C 733.239 -1.33574 -1.40967 0
M  V30 7522 O 732.514 -0.455671 -1.89087 0
M  V30 7523 C 732.797 -3.58759 -0.310453 0
M  V30 7524 C 732.65 -4.38293 1.0109 0
M  V30 7525 C 733.969 -4.26816 -1.07313 0
M  V30 7526 H 731.088 -0.73603 -0.0378064 0
M  V30 7527 H 733.73 -1.80433 0.595295 0
M  V30 7528 H 731.88 -3.77702 -0.909582 0
M  V30 7529 H 733.552 -4.30964 1.64523 0
M  V30 7530 H 731.795 -4.02745 1.61179 0
M  V30 7531 H 732.466 -5.45828 0.82315 0
M  V30 7532 H 734.942 -4.1224 -0.565473 0
M  V30 7533 H 733.818 -5.35989 -1.1835 0
M  V30 7534 H 734.079 -3.88757 -2.10525 0
M  V30 7535 N 733.138 -0.185124 -1.56509 0
M  V30 7536 C 734.366 0.462139 -2.01673 0
M  V30 7537 C 734.781 1.55873 -1.06532 0
M  V30 7538 O 734.138 1.82371 -0.0684805 0
M  V30 7539 C 734.189 1.0277 -3.46584 0
M  V30 7540 O 733.91 -0.0251296 -4.38093 0
M  V30 7541 C 735.411 1.75183 -4.07217 0
M  V30 7542 H 732.631 0.117001 -0.660721 0
M  V30 7543 H 735.175 -0.290905 -2.0242 0
M  V30 7544 H 733.33 1.73118 -3.46568 0
M  V30 7545 H 733.744 0.394387 -5.23015 0
M  V30 7546 H 735.218 2.09999 -5.10494 0
M  V30 7547 H 735.695 2.6519 -3.50101 0
M  V30 7548 H 736.301 1.09445 -4.10977 0
M  V30 7549 N 734.616 1.57351 0.0885366 0
M  V30 7550 C 736.032 1.53331 0.442916 0
M  V30 7551 C 736.232 0.902831 1.80142 0
M  V30 7552 O 735.288 0.498147 2.47537 0
M  V30 7553 C 736.601 2.98036 0.399372 0
M  V30 7554 C 738.149 3.09286 0.480759 0
M  V30 7555 C 738.624 4.5561 0.467296 0
M  V30 7556 N 740.115 4.60182 0.52786 0
M  V30 7557 C 740.85 5.70857 0.539388 0
M  V30 7558 N 740.346 6.90944 0.506729 0
M  V30 7559 N 742.139 5.59051 0.584691 0
M  V30 7560 H 734.29 1.96709 -0.801215 0
M  V30 7561 H 736.553 0.899639 -0.298922 0
M  V30 7562 H 736.259 3.47656 -0.531806 0
M  V30 7563 H 736.133 3.57066 1.21589 0
M  V30 7564 H 738.52 2.5965 1.40236 0
M  V30 7565 H 738.601 2.53197 -0.364023 0
M  V30 7566 H 738.245 5.05899 -0.450384 0
M  V30 7567 H 738.175 5.09544 1.32938 0
M  V30 7568 H 740.666 3.73757 0.558028 0
M  V30 7569 H 740.979 7.71055 0.518989 0
M  V30 7570 H 739.324 6.93384 0.473675 0
M  V30 7571 H 742.515 4.64138 0.607781 0
M  V30 7572 H 742.688 6.45307 0.590206 0
M  V30 7573 N 736.094 -0.359525 1.53444 0
M  V30 7574 C 737.319 -1.12644 1.74144 0
M  V30 7575 C 737.744 -1.82082 0.472007 0
M  V30 7576 O 737.102 -1.71962 -0.57436 0
M  V30 7577 C 737.15 -2.12781 2.9113 0
M  V30 7578 O 736.254 -3.19984 2.60162 0
M  V30 7579 H 735.595 -0.326553 0.578152 0
M  V30 7580 H 738.125 -0.414798 2.00351 0
M  V30 7581 H 738.135 -2.56278 3.17467 0
M  V30 7582 H 736.81 -1.61634 3.83207 0
M  V30 7583 H 735.387 -2.81417 2.44661 0
M  V30 7584 N 737.572 -1.44907 -0.619662 0
M  V30 7585 C 738.535 -1.52282 -1.71297 0
M  V30 7586 C 739.535 -0.40359 -1.55653 0
M  V30 7587 O 740.725 -0.666638 -1.6094 0
M  V30 7588 C 737.857 -1.40778 -3.10474 0
M  V30 7589 H 739.05 -2.49683 -1.66128 0
M  V30 7590 H 736.603 -1.32168 -0.834339 0
M  V30 7591 H 737.338 -0.445156 -3.2123 0
M  V30 7592 H 737.123 -2.21947 -3.23237 0
M  V30 7593 H 738.613 -1.48946 -3.90135 0
M  V30 7594 N 739.05 0.861098 -1.31996 0
M  V30 7595 C 739.982 1.97551 -1.16216 0
M  V30 7596 C 740.995 1.625 -0.0988527 0
M  V30 7597 O 742.184 1.75091 -0.3472 0
M  V30 7598 C 739.284 3.30376 -0.755307 0
M  V30 7599 C 738.457 3.93711 -1.90552 0
M  V30 7600 C 737.516 5.04862 -1.48328 0
M  V30 7601 O 736.542 5.25204 -2.19431 0
M  V30 7602 N 737.744 5.79283 -0.375656 0
M  V30 7603 H 740.509 2.11632 -2.12208 0
M  V30 7604 H 738.07 1.03559 -1.24448 0
M  V30 7605 H 740.062 4.0213 -0.455364 0
M  V30 7606 H 738.632 3.12395 0.113269 0
M  V30 7607 H 737.852 3.14825 -2.37231 0
M  V30 7608 H 739.14 4.32762 -2.67571 0
M  V30 7609 H 738.538 5.65286 0.216284 0
M  V30 7610 H 737.095 6.5166 -0.135289 0
M  V30 7611 N 740.528 1.15101 1.07655 0
M  V30 7612 C 741.491 0.847625 2.12951 0
M  V30 7613 C 742.491 -0.151227 1.60087 0
M  V30 7614 O 743.681 0.0780399 1.74025 0
M  V30 7615 C 740.813 0.265 3.39868 0
M  V30 7616 H 742.006 1.7809 2.41296 0
M  V30 7617 H 739.559 0.958072 1.23494 0
M  V30 7618 H 740.294 -0.676625 3.17163 0
M  V30 7619 H 740.079 0.984554 3.79538 0
M  V30 7620 H 741.569 0.0702121 4.17541 0
M  V30 7621 N 742.006 -1.2595 0.947325 0
M  V30 7622 C 742.969 -2.24407 0.466285 0
M  V30 7623 C 743.969 -1.55054 -0.426005 0
M  V30 7624 O 745.159 -1.7275 -0.224319 0
M  V30 7625 C 742.291 -3.39326 -0.327201 0
M  V30 7626 H 743.484 -2.68477 1.33642 0
M  V30 7627 H 741.037 -1.38211 0.729887 0
M  V30 7628 H 741.772 -3.00667 -1.21532 0
M  V30 7629 H 741.557 -3.9085 0.312839 0
M  V30 7630 H 743.047 -4.12455 -0.653477 0
M  V30 7631 N 743.484 -0.715051 -1.40445 0
M  V30 7632 C 744.9 -0.388555 -1.54798 0
M  V30 7633 C 745.1 1.10271 -1.68649 0
M  V30 7634 O 744.156 1.88875 -1.67578 0
M  V30 7635 C 745.469 -1.15414 -2.77669 0
M  V30 7636 C 747.017 -1.14039 -2.91486 0
M  V30 7637 C 747.492 -1.88812 -4.1727 0
M  V30 7638 N 748.983 -1.85878 -4.24268 0
M  V30 7639 C 749.718 -2.40558 -5.20499 0
M  V30 7640 N 749.214 -3.03791 -6.22642 0
M  V30 7641 N 751.007 -2.30703 -5.12574 0
M  V30 7642 H 743.158 -1.68201 -1.297 0
M  V30 7643 H 745.421 -0.710915 -0.627139 0
M  V30 7644 H 745.127 -2.20853 -2.7371 0
M  V30 7645 H 745.001 -0.745412 -3.69761 0
M  V30 7646 H 747.388 -0.0941996 -2.9495 0
M  V30 7647 H 747.469 -1.58834 -2.00513 0
M  V30 7648 H 747.113 -2.93422 -4.14568 0
M  V30 7649 H 747.043 -1.41438 -5.0725 0
M  V30 7650 H 749.534 -1.39794 -3.51093 0
M  V30 7651 H 749.847 -3.43032 -6.92495 0
M  V30 7652 H 748.192 -3.07875 -6.23087 0
M  V30 7653 H 751.383 -1.80961 -4.31707 0
M  V30 7654 H 751.556 -2.73618 -5.87398 0
M  V30 7655 N 744.962 1.50701 -0.461195 0
M  V30 7656 C 745.894 2.26124 0.374244 0
M  V30 7657 C 746.907 1.31064 0.965715 0
M  V30 7658 O 748.096 1.56647 0.855801 0
M  V30 7659 C 745.196 3.01996 1.5379 0
M  V30 7660 C 744.369 4.24336 1.06101 0
M  V30 7661 C 743.428 4.82585 2.09756 0
M  V30 7662 O 742.454 5.43775 1.68219 0
M  V30 7663 N 743.656 4.68712 3.42475 0
M  V30 7664 H 746.421 2.9846 -0.2723 0
M  V30 7665 H 743.982 1.59256 -0.291415 0
M  V30 7666 H 745.974 3.37846 2.22806 0
M  V30 7667 H 744.544 2.32521 2.08933 0
M  V30 7668 H 743.764 3.93707 0.197085 0
M  V30 7669 H 745.052 5.03678 0.720156 0
M  V30 7670 H 744.45 4.20026 3.78938 0
M  V30 7671 H 743.007 5.08858 4.07317 0
M  V30 7672 N 746.441 0.193421 1.56409 0
M  V30 7673 C 747.687 -0.446449 1.97825 0
M  V30 7674 C 748.02 -1.61386 1.08019 0
M  V30 7675 O 747.295 -1.94053 0.131839 0
M  V30 7676 C 747.578 -0.908199 3.48459 0
M  V30 7677 C 747.431 0.260914 4.49043 0
M  V30 7678 C 748.75 -1.77428 4.0275 0
M  V30 7679 H 745.869 -0.160807 0.719243 0
M  V30 7680 H 748.511 0.284006 1.87865 0
M  V30 7681 H 746.661 -1.53062 3.57077 0
M  V30 7682 H 748.333 0.898548 4.52464 0
M  V30 7683 H 746.576 0.912949 4.24085 0
M  V30 7684 H 747.247 -0.104657 5.51901 0
M  V30 7685 H 749.723 -1.24936 3.96901 0
M  V30 7686 H 748.599 -2.06633 5.08521 0
M  V30 7687 H 748.86 -2.72788 3.47907 0
M  V30 7688 N 747.919 -1.57396 -0.0801906 0
M  V30 7689 C 748.869 -1.9955 -1.10289 0
M  V30 7690 C 749.853 -0.876234 -1.34948 0
M  V30 7691 O 751.045 -1.14012 -1.35389 0
M  V30 7692 C 748.174 -2.43596 -2.419 0
M  V30 7693 C 747.26 -3.6224 -2.20551 0
M  V30 7694 N 747.651 -4.76693 -1.69109 0
M  V30 7695 C 745.949 -3.68627 -2.51059 0
M  V30 7696 C 746.65 -5.58577 -1.62379 0
M  V30 7697 N 745.626 -5.02178 -2.0813 0
M  V30 7698 H 749.428 -2.85483 -0.698335 0
M  V30 7699 H 746.942 -1.59837 -0.287395 0
M  V30 7700 H 748.939 -2.72031 -3.15919 0
M  V30 7701 H 747.599 -1.59047 -2.8308 0
M  V30 7702 H 748.61 -4.9915 -1.38092 0
M  V30 7703 H 745.287 -2.94772 -2.95661 0
M  V30 7704 H 746.677 -6.60447 -1.2353 0
M  V30 7705 N 749.397 0.351382 -1.53633 0
M  V30 7706 C 750.327 1.43688 -1.84055 0
M  V30 7707 C 751.308 1.55251 -0.695073 0
M  V30 7708 O 752.493 1.69587 -0.946257 0
M  V30 7709 C 749.623 2.80843 -2.04315 0
M  V30 7710 C 748.577 2.84094 -3.20117 0
M  V30 7711 C 747.903 4.2406 -3.25696 0
M  V30 7712 C 749.203 2.50334 -4.58399 0
M  V30 7713 H 750.897 1.18478 -2.74961 0
M  V30 7714 H 748.443 0.568509 -1.32303 0
M  V30 7715 H 750.396 3.56821 -2.2418 0
M  V30 7716 H 749.12 3.07471 -1.10132 0
M  V30 7717 H 747.779 2.10568 -3.00094 0
M  V30 7718 H 747.427 4.47785 -2.29123 0
M  V30 7719 H 747.127 4.27147 -4.03509 0
M  V30 7720 H 748.651 5.0189 -3.47762 0
M  V30 7721 H 750.065 3.16025 -4.78332 0
M  V30 7722 H 748.462 2.64717 -5.38558 0
M  V30 7723 H 749.532 1.45542 -4.62543 0
M  V30 7724 N 750.875 1.45233 0.611969 0
M  V30 7725 C 752.115 1.50558 1.38245 0
M  V30 7726 C 752.479 0.141959 1.91474 0
M  V30 7727 O 753.68 0.0698926 2.68709 0
M  V30 7728 C 751.951 2.55136 2.50281 0
M  V30 7729 S 753.51 2.79652 3.38142 0
M  V30 7730 H 750.328 0.532281 0.471378 0
M  V30 7731 H 752.93 1.82285 0.706578 0
M  V30 7732 H 751.634 3.52888 2.09518 0
M  V30 7733 H 751.165 2.25045 3.22674 0
M  V30 7734 H 753.18 2.12699 4.48301 0
M  V30 7735 N 752.353 -0.854086 1.3245 0
M  V30 7736 C 753.769 -1.14238 1.11453 0
M  V30 7737 C 753.969 -2.01228 -0.10461 0
M  V30 7738 O 753.025 -2.39845 -0.789339 0
M  V30 7739 C 754.338 -1.81916 2.39431 0
M  V30 7740 C 755.886 -1.94549 2.45193 0
M  V30 7741 C 756.361 -2.65642 3.73093 0
M  V30 7742 N 757.852 -2.73167 3.74078 0
M  V30 7743 C 758.587 -3.28828 4.69744 0
M  V30 7744 N 758.083 -3.85295 5.75778 0
M  V30 7745 N 759.876 -3.26936 4.57241 0
M  V30 7746 H 752.027 -0.274786 2.10615 0
M  V30 7747 H 754.29 -0.184375 0.929898 0
M  V30 7748 H 753.996 -1.25452 3.28565 0
M  V30 7749 H 753.87 -2.82068 2.50434 0
M  V30 7750 H 756.257 -2.50172 1.56518 0
M  V30 7751 H 756.338 -0.933914 2.38142 0
M  V30 7752 H 755.982 -2.10683 4.62142 0
M  V30 7753 H 755.912 -3.6724 3.77415 0
M  V30 7754 H 758.403 -2.33108 2.97438 0
M  V30 7755 H 758.716 -4.25925 6.44832 0
M  V30 7756 H 757.061 -3.83625 5.79531 0
M  V30 7757 H 760.252 -2.8207 3.7357 0
M  V30 7758 H 760.425 -3.70014 5.31971 0
M  V30 7759 N 753.831 -1.1567 -1.07043 0
M  V30 7760 C 755.079 -0.931673 -1.79344 0
M  V30 7761 C 755.4 0.542421 -1.87304 0
M  V30 7762 O 754.67 1.39418 -1.37621 0
M  V30 7763 H 753.25 -0.34171 -0.664262 0
M  V30 7764 H 755.912 -1.45795 -1.29344 0
M  V30 7765 H 755.008 -1.34379 -2.81689 0
M  V30 7766 N 755.309 1.25446 -0.953992 0
M  V30 7767 C 756.555 1.9343 -0.60933 0
M  V30 7768 C 756.888 1.74542 0.851388 0
M  V30 7769 O 756.163 1.09014 1.61078 0
M  V30 7770 C 756.446 3.46844 -0.968041 0
M  V30 7771 C 756.299 3.74961 -2.48444 0
M  V30 7772 C 757.618 4.37334 -0.492641 0
M  V30 7773 H 754.737 0.702502 -0.222844 0
M  V30 7774 H 757.379 1.48076 -1.19053 0
M  V30 7775 H 755.529 3.85604 -0.473465 0
M  V30 7776 H 757.201 3.45841 -3.05273 0
M  V30 7777 H 755.444 3.20589 -2.92241 0
M  V30 7778 H 756.115 4.82246 -2.68594 0
M  V30 7779 H 758.591 4.05873 -0.916878 0
M  V30 7780 H 757.467 5.43439 -0.772331 0
M  V30 7781 H 757.728 4.37908 0.607403 0
M  V30 7782 N 756.787 0.722489 1.40064 0
M  V30 7783 C 758.034 0.264979 2.00759 0
M  V30 7784 C 758.362 -1.14395 1.57302 0
M  V30 7785 O 757.617 -1.79165 0.787298 0
M  V30 7786 C 757.916 0.300682 3.56133 0
M  V30 7787 C 757.582 1.66087 4.19197 0
M  V30 7788 C 756.244 2.03319 4.36136 0
M  V30 7789 C 758.596 2.55452 4.54306 0
M  V30 7790 C 755.924 3.29448 4.8547 0
M  V30 7791 C 758.276 3.8094 5.05042 0
M  V30 7792 C 756.94 4.1828 5.2019 0
M  V30 7793 H 756.21 0.0969625 0.734629 0
M  V30 7794 H 758.857 0.926877 1.67575 0
M  V30 7795 H 757.162 -0.44479 3.89267 0
M  V30 7796 H 758.859 -0.0712542 4.00937 0
M  V30 7797 H 755.449 1.36137 4.06405 0
M  V30 7798 H 759.633 2.27961 4.40849 0
M  V30 7799 H 754.889 3.58338 4.95382 0
M  V30 7800 H 759.063 4.50351 5.31184 0
M  V30 7801 H 756.69 5.16081 5.58179 0
M  V30 7802 N 758.265 -1.50454 0.469181 0
M  V30 7803 C 759.676 -1.86695 0.0136034 0
M  V30 7804 C 760.027 -1.38413 -1.39055 0
M  V30 7805 O 759.152 -0.748294 -2.03051 0
M  V30 7806 C 759.747 -3.38795 0.0179098 0
M  V30 7807 C 758.306 -3.74455 -0.382191 0
M  V30 7808 C 757.453 -2.74338 0.404207 0
M  V30 7809 H 760.404 -1.43225 0.683547 0
M  V30 7810 H 760.425 -3.72321 -0.78468 0
M  V30 7811 H 759.937 -3.73906 1.04 0
M  V30 7812 H 758.038 -3.44944 -1.4087 0
M  V30 7813 H 758.151 -4.79025 -0.084862 0
M  V30 7814 H 756.515 -2.54305 -0.141829 0
M  V30 7815 H 757.298 -3.12293 1.42577 0
M  V30 7816 N 759.743 -0.201713 -1.56304 0
M  V30 7817 C 760.673 0.71155 -2.22394 0
M  V30 7818 C 761.654 1.21625 -1.18917 0
M  V30 7819 O 762.839 1.26388 -1.47444 0
M  V30 7820 C 759.969 1.92837 -2.88845 0
M  V30 7821 C 758.923 1.55831 -3.98623 0
M  V30 7822 C 758.249 2.85228 -4.52271 0
M  V30 7823 C 759.549 0.763249 -5.16693 0
M  V30 7824 H 761.243 0.160573 -2.98969 0
M  V30 7825 H 758.789 0.0757916 -1.438 0
M  V30 7826 H 760.742 2.57253 -3.33764 0
M  V30 7827 H 759.466 2.50398 -2.09686 0
M  V30 7828 H 758.125 0.9377 -3.54405 0
M  V30 7829 H 757.773 3.40893 -3.69866 0
M  V30 7830 H 757.473 2.6121 -5.26349 0
M  V30 7831 H 758.997 3.50622 -4.99897 0
M  V30 7832 H 760.411 1.31066 -5.58117 0
M  V30 7833 H 758.808 0.620935 -5.96879 0
M  V30 7834 H 759.878 -0.234322 -4.84334 0
M  V30 7835 N 761.222 1.57436 0.0718424 0
M  V30 7836 C 762.152 2.06724 1.08571 0
M  V30 7837 C 763.133 0.960731 1.40371 0
M  V30 7838 O 764.318 1.23345 1.49999 0
M  V30 7839 C 761.448 2.51112 2.39916 0
M  V30 7840 C 760.402 3.65639 2.22469 0
M  V30 7841 C 759.728 3.96082 3.59198 0
M  V30 7842 C 761.028 4.95687 1.64596 0
M  V30 7843 H 762.722 2.91679 0.675569 0
M  V30 7844 H 760.268 1.40319 0.32352 0
M  V30 7845 H 762.221 2.84206 3.11135 0
M  V30 7846 H 760.945 1.63186 2.8291 0
M  V30 7847 H 759.604 3.32828 1.53691 0
M  V30 7848 H 759.252 3.05287 3.99761 0
M  V30 7849 H 758.952 4.73199 3.48362 0
M  V30 7850 H 760.476 4.31672 4.31847 0
M  V30 7851 H 761.89 5.27011 2.25681 0
M  V30 7852 H 760.287 5.77126 1.64457 0
M  V30 7853 H 761.357 4.8108 0.60744 0
M  V30 7854 N 762.7 -0.34323 1.53817 0
M  V30 7855 C 763.93 -1.10188 1.74763 0
M  V30 7856 C 764.338 -1.82829 0.486856 0
M  V30 7857 O 763.681 -1.75236 -0.551198 0
M  V30 7858 C 763.743 -2.16 2.87375 0
M  V30 7859 C 763.407 -1.62931 4.26969 0
M  V30 7860 C 764.404 -1.08147 5.08528 0
M  V30 7861 C 762.089 -1.67769 4.73454 0
M  V30 7862 C 764.083 -0.589039 6.34672 0
M  V30 7863 C 761.77 -1.18138 5.99572 0
M  V30 7864 C 762.768 -0.637979 6.80014 0
M  V30 7865 O 762.456 -0.149073 8.03762 0
M  V30 7866 H 762.188 -0.33445 0.587469 0
M  V30 7867 H 764.742 -0.401109 2.01445 0
M  V30 7868 H 762.972 -2.89637 2.56218 0
M  V30 7869 H 764.661 -2.77432 2.96287 0
M  V30 7870 H 765.427 -1.03732 4.73777 0
M  V30 7871 H 761.306 -2.09004 4.10899 0
M  V30 7872 H 764.85 -0.164233 6.97407 0
M  V30 7873 H 760.747 -1.22254 6.33817 0
M  V30 7874 H 761.515 -0.266332 8.18067 0
M  V30 7875 N 764.178 -1.45556 -0.604258 0
M  V30 7876 C 765.594 -1.30035 -0.925368 0
M  V30 7877 C 765.794 -0.255833 -1.99869 0
M  V30 7878 O 764.85 0.349076 -2.50075 0
M  V30 7879 C 766.163 -2.68028 -1.36314 0
M  V30 7880 C 767.711 -2.75951 -1.47717 0
M  V30 7881 C 768.186 -4.14476 -1.94868 0
M  V30 7882 N 769.677 -4.16787 -2.02097 0
M  V30 7883 C 770.412 -5.20845 -2.39809 0
M  V30 7884 N 769.908 -6.35246 -2.76467 0
M  V30 7885 N 771.701 -5.08204 -2.40177 0
M  V30 7886 H 763.852 -2.1214 0.10512 0
M  V30 7887 H 766.115 -0.947871 -0.0156303 0
M  V30 7888 H 765.821 -3.45667 -0.648628 0
M  V30 7889 H 765.695 -2.96711 -2.329 0
M  V30 7890 H 768.082 -1.98613 -2.18258 0
M  V30 7891 H 768.163 -2.50977 -0.494371 0
M  V30 7892 H 767.807 -4.923 -1.24912 0
M  V30 7893 H 767.737 -4.36843 -2.94068 0
M  V30 7894 H 770.228 -3.34233 -1.76343 0
M  V30 7895 H 770.541 -7.10438 -3.04134 0
M  V30 7896 H 768.886 -6.38642 -2.74155 0
M  V30 7897 H 772.077 -4.17874 -2.10947 0
M  V30 7898 H 772.25 -5.89417 -2.69242 0
M  V30 7899 N 765.656 0.84705 -1.32902 0
M  V30 7900 C 766.566 1.98845 -1.2449 0
M  V30 7901 C 767.582 1.7329 -0.15702 0
M  V30 7902 O 768.758 1.978 -0.379104 0
M  V30 7903 C 765.823 3.32679 -0.975985 0
M  V30 7904 C 764.884 3.71405 -2.15306 0
M  V30 7905 C 764.117 4.98853 -1.89688 0
M  V30 7906 O 764.34 5.64134 -0.843168 0
M  V30 7907 O 763.274 5.34889 -2.76002 0
M  V30 7908 H 767.1 2.0888 -2.2046 0
M  V30 7909 H 764.685 0.978852 -1.12867 0
M  V30 7910 H 766.567 4.12885 -0.842826 0
M  V30 7911 H 765.242 3.23667 -0.0464954 0
M  V30 7912 H 764.149 2.91743 -2.34172 0
M  V30 7913 H 765.482 3.85073 -3.06561 0
M  V30 7914 N 767.134 1.16236 1.06428 0
M  V30 7915 C 768.545 0.950942 1.60667 0
M  V30 7916 C 768.896 -0.505491 1.89576 0
M  V30 7917 O 768.021 -1.37843 1.66818 0
M  V30 7918 C 768.616 1.71982 2.91904 0
M  V30 7919 C 767.175 1.55342 3.4285 0
M  V30 7920 C 766.322 1.72942 2.16763 0
M  V30 7921 H 769.273 1.31126 0.893959 0
M  V30 7922 H 769.294 1.19483 3.61253 0
M  V30 7923 H 768.806 2.77978 2.70831 0
M  V30 7924 H 766.907 0.5178 3.68985 0
M  V30 7925 H 767.02 2.33643 4.18267 0
M  V30 7926 H 765.384 1.15673 2.26918 0
M  V30 7927 H 766.167 2.80324 1.98175 0
M  V30 7928 N 768.612 -1.24939 0.960631 0
M  V30 7929 C 770.023 -1.74701 0.658529 0
M  V30 7930 C 770.374 -1.77967 -0.825959 0
M  V30 7931 O 769.499 -1.40444 -1.64634 0
M  V30 7932 C 770.094 -3.17263 1.18867 0
M  V30 7933 C 768.653 -3.64561 0.936614 0
M  V30 7934 C 767.8 -2.43423 1.32817 0
M  V30 7935 H 770.751 -1.10741 1.13676 0
M  V30 7936 H 770.772 -3.76481 0.551589 0
M  V30 7937 H 770.284 -3.14854 2.26912 0
M  V30 7938 H 768.385 -3.72378 -0.128608 0
M  V30 7939 H 768.498 -4.52392 1.57729 0
M  V30 7940 H 766.862 -2.43513 0.746548 0
M  V30 7941 H 767.645 -2.437 2.41796 0
M  V30 7942 N 770.09 -0.729906 -1.39679 0
M  V30 7943 C 771 -0.0880322 -2.34435 0
M  V30 7944 C 772.016 0.727674 -1.58053 0
M  V30 7945 O 773.192 0.657321 -1.90371 0
M  V30 7946 C 770.257 0.812211 -3.37052 0
M  V30 7947 C 769.318 -0.0151681 -4.29297 0
M  V30 7948 C 768.551 0.842202 -5.27013 0
M  V30 7949 O 768.774 2.08108 -5.31081 0
M  V30 7950 O 767.708 0.27357 -6.01278 0
M  V30 7951 H 771.534 -0.869989 -2.90972 0
M  V30 7952 H 769.119 -0.490522 -1.41118 0
M  V30 7953 H 771.001 1.32745 -3.99946 0
M  V30 7954 H 769.676 1.57307 -2.82907 0
M  V30 7955 H 768.583 -0.575811 -3.69642 0
M  V30 7956 H 769.916 -0.738129 -4.86634 0
M  V30 7957 N 771.568 1.50203 -0.477153 0
M  V30 7958 C 772.531 2.27194 0.302599 0
M  V30 7959 C 773.531 1.32221 0.915112 0
M  V30 7960 O 774.721 1.55593 0.783348 0
M  V30 7961 C 771.853 3.0938 1.43167 0
M  V30 7962 H 773.046 2.97575 -0.372678 0
M  V30 7963 H 770.599 1.54578 -0.231392 0
M  V30 7964 H 771.334 2.43509 2.14182 0
M  V30 7965 H 771.119 3.79181 0.998197 0
M  V30 7966 H 772.609 3.67592 1.98157 0
M  V30 7967 N 773.046 0.209999 1.56195 0
M  V30 7968 C 774.295 -0.425106 1.97169 0
M  V30 7969 C 774.608 -1.61718 1.10031 0
M  V30 7970 O 775.814 -2.32105 1.40853 0
M  V30 7971 C 774.27 -0.80771 3.50719 0
M  V30 7972 C 773.878 0.360902 4.46544 0
M  V30 7973 C 775.622 -1.40906 4.00432 0
M  V30 7974 C 773.529 -0.0434919 5.91384 0
M  V30 7975 H 772.459 -0.162598 0.736259 0
M  V30 7976 H 775.11 0.304382 1.80958 0
M  V30 7977 H 773.492 -1.59429 3.62489 0
M  V30 7978 H 774.666 1.13846 4.46515 0
M  V30 7979 H 772.981 0.874729 4.07109 0
M  V30 7980 H 775.578 -1.72433 5.06133 0
M  V30 7981 H 775.921 -2.32081 3.45607 0
M  V30 7982 H 776.454 -0.686154 3.91838 0
M  V30 7983 H 773.193 0.834448 6.50167 0
M  V30 7984 H 772.713 -0.785598 5.94633 0
M  V30 7985 H 774.392 -0.474176 6.4526 0
M  V30 7986 N 774.524 -1.57472 -0.0634922 0
M  V30 7987 C 775.77 -1.88792 -0.756903 0
M  V30 7988 C 776.125 -0.804679 -1.74765 0
M  V30 7989 O 775.418 0.19033 -1.90652 0
M  V30 7990 C 775.612 -3.24521 -1.49736 0
M  V30 7991 C 775.441 -4.45946 -0.579833 0
M  V30 7992 C 774.211 -5.04848 -0.213667 0
M  V30 7993 C 776.409 -5.14143 0.12703 0
M  V30 7994 N 774.391 -6.09795 0.708712 0
M  V30 7995 C 775.762 -6.1334 0.906295 0
M  V30 7996 C 777.817 -4.97508 0.197625 0
M  V30 7997 C 776.52 -6.97697 1.74961 0
M  V30 7998 C 778.546 -5.82398 1.02794 0
M  V30 7999 C 777.908 -6.81139 1.79523 0
M  V30 8000 H 774.007 -0.740235 -0.252142 0
M  V30 8001 H 776.591 -1.94692 -0.0181026 0
M  V30 8002 H 774.762 -3.19615 -2.20683 0
M  V30 8003 H 776.494 -3.43464 -2.14044 0
M  V30 8004 H 773.249 -4.70177 -0.568357 0
M  V30 8005 H 773.673 -6.66929 1.16339 0
M  V30 8006 H 778.315 -4.21077 -0.381261 0
M  V30 8007 H 776.033 -7.73496 2.33943 0
M  V30 8008 H 779.619 -5.71581 1.08565 0
M  V30 8009 H 778.499 -7.45687 2.42736 0
M  V30 8010 N 776.003 0.335068 -1.53997 0
M  V30 8011 C 776.966 1.39481 -1.81872 0
M  V30 8012 C 777.966 1.4524 -0.690078 0
M  V30 8013 O 779.156 1.45467 -0.958377 0
M  V30 8014 C 776.288 2.78329 -1.9684 0
M  V30 8015 H 777.481 1.16024 -2.76547 0
M  V30 8016 H 775.034 0.569926 -1.45539 0
M  V30 8017 H 775.769 3.07058 -1.04337 0
M  V30 8018 H 775.554 2.75544 -2.78958 0
M  V30 8019 H 777.044 3.55016 -2.19894 0
M  V30 8020 N 777.481 1.45874 0.596531 0
M  V30 8021 C 778.758 1.40942 1.35627 0
M  V30 8022 C 779.138 0.0857066 2.10926 0
M  V30 8023 O 778.486 -0.932544 2.08605 0
M  V30 8024 C 778.696 2.63027 2.29386 0
M  V30 8025 C 780.044 3.08588 2.91649 0
M  V30 8026 O 781.068 2.63478 2.39704 0
M  V30 8027 O 779.927 3.86902 3.85965 0
M  V30 8028 H 777.021 0.559838 0.608696 0
M  V30 8029 H 779.567 1.5802 0.618698 0
M  V30 8030 H 778.339 3.5094 1.7308 0
M  V30 8031 H 777.962 2.48338 3.10506 0
M  V30 8032 N 778.959 -0.83999 1.33349 0
M  V30 8033 C 780.236 -1.57973 1.15342 0
M  V30 8034 C 780.616 -2.09226 -0.280632 0
M  V30 8035 O 779.964 -1.89317 -1.2795 0
M  V30 8036 C 780.174 -2.71446 2.19359 0
M  V30 8037 C 781.522 -3.40654 2.53456 0
M  V30 8038 O 782.546 -2.81686 2.18017 0
M  V30 8039 O 781.405 -4.47101 3.14266 0
M  V30 8040 H 778.499 -0.6964 0.446044 0
M  V30 8041 H 781.045 -0.882843 1.44927 0
M  V30 8042 H 779.817 -2.31205 3.1569 0
M  V30 8043 H 779.44 -3.488 1.90852 0
M  V30 8044 N 780.437 -1.16799 -1.0581 0
M  V30 8045 C 781.683 -0.953935 -1.78963 0
M  V30 8046 C 782.016 0.516638 -1.87202 0
M  V30 8047 O 781.291 1.38338 -1.36721 0
M  V30 8048 C 781.574 -1.58808 -3.23191 0
M  V30 8049 C 781.427 -3.13032 -3.23003 0
M  V30 8050 C 782.746 -1.2868 -4.20867 0
M  V30 8051 H 779.865 -0.347972 -0.64968 0
M  V30 8052 H 782.507 -1.44204 -1.23715 0
M  V30 8053 H 780.657 -1.17303 -3.70368 0
M  V30 8054 H 782.329 -3.63553 -2.83949 0
M  V30 8055 H 780.572 -3.46108 -2.61518 0
M  V30 8056 H 781.243 -3.52527 -4.24769 0
M  V30 8057 H 783.719 -1.6461 -3.82155 0
M  V30 8058 H 782.595 -1.75645 -5.20038 0
M  V30 8059 H 782.856 -0.206491 -4.41618 0
M  V30 8060 N 781.915 1.24427 -0.967243 0
M  V30 8061 C 783.192 1.87831 -0.545776 0
M  V30 8062 C 783.572 1.87126 0.977099 0
M  V30 8063 O 782.92 1.34357 1.84826 0
M  V30 8064 C 783.13 3.29967 -1.13679 0
M  V30 8065 C 784.478 4.06654 -1.22139 0
M  V30 8066 O 785.502 3.39136 -1.08926 0
M  V30 8067 O 784.361 5.27455 -1.43017 0
M  V30 8068 H 781.455 0.806745 -0.181912 0
M  V30 8069 H 784.001 1.32403 -1.06148 0
M  V30 8070 H 782.773 3.24977 -2.17958 0
M  V30 8071 H 782.396 3.92969 -0.605093 0
M  V30 8072 N 783.393 0.737304 1.3929 0
M  V30 8073 C 784.809 0.413132 1.5416 0
M  V30 8074 C 785.009 -1.07574 1.70382 0
M  V30 8075 O 784.065 -1.86185 1.70562 0
M  V30 8076 C 785.378 1.19817 2.75798 0
M  V30 8077 C 786.926 1.18662 2.89635 0
M  V30 8078 C 787.401 1.95427 4.14213 0
M  V30 8079 N 788.892 1.92605 4.21257 0
M  V30 8080 C 789.627 2.48808 5.16606 0
M  V30 8081 N 789.123 3.13659 6.1773 0
M  V30 8082 N 790.916 2.38829 5.08839 0
M  V30 8083 H 783.067 1.70243 1.27008 0
M  V30 8084 H 785.33 0.720802 0.61575 0
M  V30 8085 H 785.036 2.25179 2.70161 0
M  V30 8086 H 784.91 0.804144 3.68529 0
M  V30 8087 H 787.297 0.141112 2.94762 0
M  V30 8088 H 787.378 1.62003 1.97961 0
M  V30 8089 H 787.022 2.9998 4.09847 0
M  V30 8090 H 786.952 1.4949 5.04936 0
M  V30 8091 H 789.443 1.45362 3.48824 0
M  V30 8092 H 789.756 3.54006 6.8695 0
M  V30 8093 H 788.101 3.17749 6.1811 0
M  V30 8094 H 791.292 1.87806 4.28773 0
M  V30 8095 H 791.465 2.82929 5.82971 0
M  V30 8096 N 784.871 -1.49948 0.485112 0
M  V30 8097 C 786.287 -1.58984 0.140096 0
M  V30 8098 C 786.487 -1.49194 -1.35438 0
M  V30 8099 O 785.543 -1.35765 -2.12894 0
M  V30 8100 C 786.856 -2.92372 0.702769 0
M  V30 8101 C 788.404 -3.05801 0.66745 0
M  V30 8102 C 788.879 -4.41785 1.20791 0
M  V30 8103 N 790.37 -4.48234 1.16792 0
M  V30 8104 C 791.105 -5.51871 1.55646 0
M  V30 8105 N 790.601 -6.62692 2.02016 0
M  V30 8106 N 792.394 -5.42494 1.47161 0
M  V30 8107 H 784.545 -1.54555 1.45693 0
M  V30 8108 H 786.808 -0.731206 0.603359 0
M  V30 8109 H 786.514 -3.05056 1.75025 0
M  V30 8110 H 786.388 -3.76885 0.154205 0
M  V30 8111 H 788.775 -2.92757 -0.371157 0
M  V30 8112 H 788.856 -2.23011 1.25298 0
M  V30 8113 H 788.5 -4.55579 2.24522 0
M  V30 8114 H 788.43 -5.23188 0.598464 0
M  V30 8115 H 790.921 -3.68718 0.827982 0
M  V30 8116 H 791.234 -7.3785 2.29775 0
M  V30 8117 H 789.579 -6.63775 2.05979 0
M  V30 8118 H 792.77 -4.54806 1.10765 0
M  V30 8119 H 792.943 -6.2314 1.77766 0
M  V30 8120 N 786.349 -0.21828 -1.56081 0
M  V30 8121 C 787.595 0.414921 -1.9851 0
M  V30 8122 C 787.928 1.59648 -1.10573 0
M  V30 8123 O 787.203 1.93818 -0.162695 0
M  V30 8124 C 787.486 0.852647 -3.4986 0
M  V30 8125 C 787.339 -0.33232 -4.48571 0
M  V30 8126 C 788.658 1.70998 -4.05521 0
M  V30 8127 H 785.777 0.149344 -0.72171 0
M  V30 8128 H 788.419 -0.313858 -1.8739 0
M  V30 8129 H 786.569 1.47362 -3.59467 0
M  V30 8130 H 788.241 -0.970418 -4.50977 0
M  V30 8131 H 786.484 -0.980302 -4.22578 0
M  V30 8132 H 787.155 0.0168407 -5.51997 0
M  V30 8133 H 789.631 1.18606 -3.98838 0
M  V30 8134 H 788.507 1.98517 -5.11744 0
M  V30 8135 H 788.768 2.67219 -3.52202 0
M  V30 8136 N 787.827 1.57504 0.0551401 0
M  V30 8137 C 788.759 2.0158 1.09078 0
M  V30 8138 C 789.772 0.92434 1.34014 0
M  V30 8139 O 790.961 1.20202 1.31961 0
M  V30 8140 C 788.061 2.35385 2.43818 0
M  V30 8141 C 787.234 3.66588 2.38605 0
M  V30 8142 C 786.293 3.87874 3.55585 0
M  V30 8143 O 785.319 4.59259 3.36258 0
M  V30 8144 N 786.521 3.31503 4.76536 0
M  V30 8145 H 789.286 2.91039 0.71529 0
M  V30 8146 H 786.847 1.60058 0.243532 0
M  V30 8147 H 788.839 2.46784 3.20749 0
M  V30 8148 H 787.409 1.51731 2.73307 0
M  V30 8149 H 786.629 3.65787 1.46947 0
M  V30 8150 H 787.917 4.52706 2.32239 0
M  V30 8151 H 787.315 2.73592 4.9514 0
M  V30 8152 H 785.872 3.48324 5.50921 0
M  V30 8153 N 789.305 -0.326896 1.54172 0
M  V30 8154 C 790.552 -1.06523 1.72218 0
M  V30 8155 C 790.88 -1.88119 0.494114 0
M  V30 8156 O 790.135 -1.8855 -0.524147 0
M  V30 8157 C 790.434 -2.0208 2.94785 0
M  V30 8158 C 790.1 -1.36665 4.2969 0
M  V30 8159 C 788.762 -1.18556 4.66367 0
M  V30 8160 C 791.114 -0.896868 5.13425 0
M  V30 8161 C 788.442 -0.521113 5.84381 0
M  V30 8162 C 790.794 -0.246261 6.3212 0
M  V30 8163 C 789.458 -0.052987 6.67479 0
M  V30 8164 H 788.728 -0.389796 0.63019 0
M  V30 8165 H 791.375 -0.342725 1.88408 0
M  V30 8166 H 789.68 -2.8077 2.73268 0
M  V30 8167 H 791.377 -2.59231 3.05941 0
M  V30 8168 H 787.967 -1.51762 4.00832 0
M  V30 8169 H 792.151 -1.02458 4.85609 0
M  V30 8170 H 787.407 -0.36014 6.10338 0
M  V30 8171 H 791.581 0.125775 6.96286 0
M  V30 8172 H 789.208 0.463903 7.58783 0
M  V30 8173 N 790.784 -1.46188 -0.588786 0
M  V30 8174 C 792.032 -1.50885 -1.34455 0
M  V30 8175 C 792.353 -0.159555 -1.94346 0
M  V30 8176 O 791.623 0.813239 -1.78222 0
M  V30 8177 H 790.203 -0.555707 -0.499198 0
M  V30 8178 H 792.865 -1.82277 -0.690014 0
M  V30 8179 H 791.961 -2.25816 -2.15438 0
M  V30 8180 N 792.262 0.832906 -1.33792 0
M  V30 8181 C 793.511 1.58351 -1.24932 0
M  V30 8182 C 793.824 1.94754 0.181703 0
M  V30 8183 O 795.03 2.6865 0.392375 0
M  V30 8184 C 793.486 2.85643 -2.18943 0
M  V30 8185 C 793.094 2.56581 -3.67247 0
M  V30 8186 C 794.838 3.63667 -2.18968 0
M  V30 8187 C 792.745 3.80006 -4.53155 0
M  V30 8188 H 791.675 0.594278 -0.464058 0
M  V30 8189 H 794.326 0.91786 -1.58895 0
M  V30 8190 H 792.708 3.53781 -1.77919 0
M  V30 8191 H 793.882 1.96617 -4.16747 0
M  V30 8192 H 792.197 1.91851 -3.6957 0
M  V30 8193 H 794.794 4.55293 -2.80379 0
M  V30 8194 H 795.137 3.99039 -1.18631 0
M  V30 8195 H 795.67 3.0246 -2.58384 0
M  V30 8196 H 792.409 3.4976 -5.5439 0
M  V30 8197 H 791.929 4.39288 -4.08395 0
M  V30 8198 H 793.608 4.47523 -4.6726 0
M  V30 8199 N 793.74 1.17359 1.05189 0
M  V30 8200 C 794.65 0.904984 2.16442 0
M  V30 8201 C 795.666 -0.12686 1.73537 0
M  V30 8202 O 796.842 0.0524127 2.01332 0
M  V30 8203 C 793.907 0.422019 3.44122 0
M  V30 8204 C 792.968 1.52045 4.01473 0
M  V30 8205 C 792.201 1.06044 5.23059 0
M  V30 8206 O 792.424 -0.0854023 5.70336 0
M  V30 8207 O 791.358 1.85349 5.72651 0
M  V30 8208 H 795.184 1.8356 2.41949 0
M  V30 8209 H 792.769 0.95447 1.14936 0
M  V30 8210 H 794.651 0.160208 4.21095 0
M  V30 8211 H 793.326 -0.480444 3.20115 0
M  V30 8212 H 792.233 1.83615 3.25939 0
M  V30 8213 H 793.566 2.39863 4.29798 0
M  V30 8214 N 795.218 -1.23913 0.973828 0
M  V30 8215 C 796.443 -1.96735 0.656511 0
M  V30 8216 C 796.868 -1.71682 -0.768571 0
M  V30 8217 O 796.226 -0.984267 -1.52256 0
M  V30 8218 C 796.274 -3.48004 0.944735 0
M  V30 8219 O 795.378 -4.12387 0.0333357 0
M  V30 8220 H 794.719 -0.616119 0.247575 0
M  V30 8221 H 797.249 -1.57525 1.30564 0
M  V30 8222 H 797.259 -3.98424 0.87876 0
M  V30 8223 H 795.934 -3.65567 1.98328 0
M  V30 8224 H 794.511 -3.72585 0.153157 0
M  V30 8225 N 796.696 -0.74468 -1.38897 0
M  V30 8226 C 797.944 -0.296298 -1.99916 0
M  V30 8227 C 798.265 1.12325 -1.59399 0
M  V30 8228 O 797.535 1.76658 -0.846689 0
M  V30 8229 H 796.115 -0.106561 -0.73936 0
M  V30 8230 H 798.777 -0.956793 -1.69798 0
M  V30 8231 H 797.873 -0.352356 -3.10105 0
M  V30 8232 N 798.174 1.49689 -0.493057 0
M  V30 8233 C 799.121 2.28976 0.28959 0
M  V30 8234 C 800.091 1.35011 0.967536 0
M  V30 8235 O 801.276 1.63964 0.975736 0
M  V30 8236 C 798.416 3.1748 1.35279 0
M  V30 8237 C 797.529 4.26496 0.687418 0
M  V30 8238 C 796.664 5.02226 1.73038 0
M  V30 8239 C 795.703 6.03089 1.04645 0
M  V30 8240 N 794.84 6.72014 2.03325 0
M  V30 8241 H 799.68 2.954 -0.392798 0
M  V30 8242 H 797.217 1.45657 -0.205554 0
M  V30 8243 H 799.175 3.67162 1.98111 0
M  V30 8244 H 797.805 2.53057 2.00405 0
M  V30 8245 H 796.857 3.80362 -0.0540001 0
M  V30 8246 H 798.169 4.98578 0.14864 0
M  V30 8247 H 797.323 5.55737 2.43395 0
M  V30 8248 H 796.062 4.29899 2.303 0
M  V30 8249 H 795.067 5.48817 0.328606 0
M  V30 8250 H 796.292 6.77398 0.480428 0
M  V30 8251 H 794.238 6.02464 2.59564 0
M  V30 8252 H 794.155 7.40046 1.54492 0
M  V30 8253 H 795.423 7.30133 2.72995 0
M  V30 8254 N 799.652 0.226554 1.55963 0
M  V30 8255 C 800.582 -0.676079 2.23498 0
M  V30 8256 C 801.563 -1.19718 1.20837 0
M  V30 8257 O 802.748 -1.24027 1.49436 0
M  V30 8258 C 799.878 -1.88217 2.91876 0
M  V30 8259 C 798.832 -1.4947 4.01052 0
M  V30 8260 C 798.158 -2.77997 4.56751 0
M  V30 8261 C 799.458 -0.680951 5.17842 0
M  V30 8262 H 801.152 -0.112989 2.99187 0
M  V30 8263 H 798.698 -0.0529046 1.43903 0
M  V30 8264 H 800.651 -2.51911 3.37815 0
M  V30 8265 H 799.375 -2.47031 2.13643 0
M  V30 8266 H 798.034 -0.881199 3.55852 0
M  V30 8267 H 797.682 -3.34966 3.75243 0
M  V30 8268 H 797.382 -2.52803 5.30438 0
M  V30 8269 H 798.906 -3.42625 5.05411 0
M  V30 8270 H 800.32 -1.22171 5.60131 0
M  V30 8271 H 798.717 -0.525898 5.97791 0
M  V30 8272 H 799.787 0.311346 4.83899 0
M  V30 8273 N 801.13 -1.57531 -0.0467866 0
M  V30 8274 C 802.546 -1.54451 -0.402107 0
M  V30 8275 C 802.746 -0.950275 -1.77685 0
M  V30 8276 O 801.802 -0.563602 -2.4613 0
M  V30 8277 C 803.115 -2.9899 -0.320212 0
M  V30 8278 C 804.663 -3.10452 -0.398588 0
M  V30 8279 C 805.138 -4.56689 -0.346335 0
M  V30 8280 N 806.629 -4.6142 -0.405666 0
M  V30 8281 C 807.364 -5.72087 -0.387845 0
M  V30 8282 N 806.86 -6.92045 -0.32336 0
M  V30 8283 N 808.653 -5.60404 -0.436263 0
M  V30 8284 H 800.804 -1.94515 0.853087 0
M  V30 8285 H 803.067 -0.891397 0.322669 0
M  V30 8286 H 802.773 -3.46124 0.623794 0
M  V30 8287 H 802.647 -3.60164 -1.1208 0
M  V30 8288 H 805.034 -2.63276 -1.33302 0
M  V30 8289 H 805.115 -2.52142 0.431026 0
M  V30 8290 H 804.759 -5.04527 0.584356 0
M  V30 8291 H 804.689 -5.12889 -1.19382 0
M  V30 8292 H 807.18 -3.75105 -0.458737 0
M  V30 8293 H 807.493 -7.7216 -0.314375 0
M  V30 8294 H 805.838 -6.94396 -0.28967 0
M  V30 8295 H 809.029 -4.65586 -0.48451 0
M  V30 8296 H 809.202 -6.46645 -0.418907 0
M  V30 8297 N 802.608 0.318715 -1.54344 0
M  V30 8298 C 803.856 1.054 -1.72439 0
M  V30 8299 C 804.177 1.88388 -0.503495 0
M  V30 8300 O 803.447 1.89866 0.48246 0
M  V30 8301 H 802.027 0.392124 -0.635805 0
M  V30 8302 H 804.689 0.35398 -1.91659 0
M  V30 8303 H 803.785 1.71726 -2.60608 0
M  V30 8304 N 804.086 1.46499 0.581025 0
M  V30 8305 C 805.333 1.51896 1.33918 0
M  V30 8306 C 805.661 0.171361 1.93744 0
M  V30 8307 O 804.916 -0.833178 1.77078 0
M  V30 8308 C 805.215 2.56686 2.48691 0
M  V30 8309 C 804.881 4.00656 2.06847 0
M  V30 8310 C 803.543 4.39852 1.9515 0
M  V30 8311 C 805.895 4.91089 1.74589 0
M  V30 8312 C 803.223 5.67345 1.49456 0
M  V30 8313 C 805.575 6.1902 1.30373 0
M  V30 8314 C 804.239 6.57121 1.17255 0
M  V30 8315 H 803.509 0.555826 0.490039 0
M  V30 8316 H 806.156 1.79983 0.654092 0
M  V30 8317 H 804.461 2.22266 3.22653 0
M  V30 8318 H 806.158 2.58091 3.06904 0
M  V30 8319 H 802.748 3.69674 2.16886 0
M  V30 8320 H 806.932 4.61523 1.8251 0
M  V30 8321 H 802.188 5.95635 1.37944 0
M  V30 8322 H 806.362 6.8852 1.04467 0
M  V30 8323 H 803.989 7.55805 0.816236 0
M  V30 8324 N 805.565 -0.825799 1.34232 0
M  V30 8325 C 806.495 -1.95151 1.28212 0
M  V30 8326 C 807.476 -1.69345 0.160123 0
M  V30 8327 O 808.661 -1.90983 0.352019 0
M  V30 8328 C 805.791 -3.31554 1.03388 0
M  V30 8329 C 804.745 -3.71793 2.12023 0
M  V30 8330 C 804.071 -5.06147 1.72392 0
M  V30 8331 C 805.371 -3.84193 3.53826 0
M  V30 8332 H 807.065 -2.00445 2.22401 0
M  V30 8333 H 804.611 -0.962996 1.07063 0
M  V30 8334 H 806.564 -4.09889 0.978225 0
M  V30 8335 H 805.288 -3.26551 0.0564142 0
M  V30 8336 H 803.947 -2.95731 2.16654 0
M  V30 8337 H 803.595 -4.97628 0.733137 0
M  V30 8338 H 803.295 -5.34041 2.451 0
M  V30 8339 H 804.819 -5.86943 1.68317 0
M  V30 8340 H 806.233 -4.52806 3.51624 0
M  V30 8341 H 804.63 -4.23538 4.2513 0
M  V30 8342 H 805.7 -2.86272 3.91377 0
M  V30 8343 N 807.043 -1.17915 -1.04565 0
M  V30 8344 C 808.459 -0.927761 -1.29864 0
M  V30 8345 C 808.659 0.409536 -1.97294 0
M  V30 8346 O 807.715 1.14505 -2.25044 0
M  V30 8347 C 809.028 -2.08967 -2.16225 0
M  V30 8348 C 810.576 -2.12741 -2.29587 0
M  V30 8349 C 811.051 -3.28335 -3.19312 0
M  V30 8350 N 812.542 -3.28164 -3.26898 0
M  V30 8351 C 813.277 -4.14249 -3.96466 0
M  V30 8352 N 812.773 -5.10457 -4.68407 0
M  V30 8353 N 814.566 -4.02179 -3.92694 0
M  V30 8354 H 806.717 -2.03983 -0.592011 0
M  V30 8355 H 808.98 -0.891023 -0.323701 0
M  V30 8356 H 808.686 -3.05654 -1.73979 0
M  V30 8357 H 808.56 -2.04606 -3.16885 0
M  V30 8358 H 810.947 -1.16636 -2.71072 0
M  V30 8359 H 811.028 -2.21162 -1.28535 0
M  V30 8360 H 810.672 -4.2471 -2.78539 0
M  V30 8361 H 810.602 -3.17151 -4.20384 0
M  V30 8362 H 813.093 -2.58511 -2.75646 0
M  V30 8363 H 813.406 -5.72526 -5.1907 0
M  V30 8364 H 811.751 -5.14422 -4.67328 0
M  V30 8365 H 814.942 -3.26308 -3.3562 0
M  V30 8366 H 815.115 -4.69486 -4.4664 0
M  V30 8367 N 808.521 1.23394 -0.980386 0
M  V30 8368 C 809.767 1.92094 -0.650223 0
M  V30 8369 C 810.1 1.76309 0.814173 0
M  V30 8370 O 809.375 1.12406 1.5873 0
M  V30 8371 C 809.658 3.44713 -1.04139 0
M  V30 8372 C 809.511 3.69606 -2.56342 0
M  V30 8373 C 810.83 4.36191 -0.585296 0
M  V30 8374 H 807.949 0.697618 -0.237695 0
M  V30 8375 H 810.591 1.45517 -1.22167 0
M  V30 8376 H 808.741 3.84513 -0.55515 0
M  V30 8377 H 810.413 3.39288 -3.1254 0
M  V30 8378 H 808.656 3.14318 -2.98976 0
M  V30 8379 H 809.327 4.76441 -2.78762 0
M  V30 8380 H 811.803 4.03836 -1.00276 0
M  V30 8381 H 810.679 5.41679 -0.887428 0
M  V30 8382 H 810.94 4.39097 0.51438 0
M  V30 8383 N 809.999 0.752036 1.385 0
M  V30 8384 C 811.247 0.306895 1.99756 0
M  V30 8385 C 811.568 -1.11478 1.59992 0
M  V30 8386 O 810.838 -1.76206 0.856045 0
M  V30 8387 H 809.418 0.11048 0.738785 0
M  V30 8388 H 812.08 0.965785 1.69289 0
M  V30 8389 H 811.176 0.368797 3.09913 0
M  V30 8390 N 811.477 -1.49425 0.500989 0
M  V30 8391 C 812.754 -1.9531 -0.106551 0
M  V30 8392 C 813.134 -1.44248 -1.54129 0
M  V30 8393 O 812.482 -0.656237 -2.18874 0
M  V30 8394 C 812.692 -3.48995 -0.0191972 0
M  V30 8395 C 814.04 -4.24161 -0.193129 0
M  V30 8396 O 815.064 -3.56075 -0.0943843 0
M  V30 8397 O 813.923 -5.45064 -0.395869 0
M  V30 8398 H 811.017 -0.82149 -0.0953068 0
M  V30 8399 H 813.563 -1.6007 0.563526 0
M  V30 8400 H 812.335 -3.78794 0.981353 0
M  V30 8401 H 811.958 -3.90852 -0.72942 0
M  V30 8402 N 812.955 -0.234822 -1.55841 0
M  V30 8403 C 813.885 0.664217 -2.23854 0
M  V30 8404 C 814.866 1.19076 -1.2147 0
M  V30 8405 O 816.051 1.23232 -1.50091 0
M  V30 8406 C 813.181 1.86666 -2.9287 0
M  V30 8407 C 812.135 1.47341 -4.01839 0
M  V30 8408 C 811.461 2.75571 -4.58219 0
M  V30 8409 C 812.761 0.653479 -5.18196 0
M  V30 8410 H 814.455 0.0971213 -2.99242 0
M  V30 8411 H 812.001 0.0452724 -1.43929 0
M  V30 8412 H 813.954 2.50116 -3.39146 0
M  V30 8413 H 812.678 2.45894 -2.1495 0
M  V30 8414 H 811.337 0.862314 -3.56314 0
M  V30 8415 H 810.985 3.32971 -3.77014 0
M  V30 8416 H 810.685 2.49987 -5.31771 0
M  V30 8417 H 812.209 3.39939 -5.07221 0
M  V30 8418 H 813.623 1.19198 -5.60771 0
M  V30 8419 H 812.02 0.494188 -5.98062 0
M  V30 8420 H 813.09 -0.337004 -4.83728 0
M  V30 8421 N 814.433 1.57553 0.0384317 0
M  V30 8422 C 815.679 1.89121 0.732199 0
M  V30 8423 C 816.012 0.831404 1.75503 0
M  V30 8424 O 815.287 -0.154642 1.93884 0
M  V30 8425 C 815.57 3.31338 1.41021 0
M  V30 8426 C 815.423 4.48004 0.401532 0
M  V30 8427 C 816.742 3.72318 2.34665 0
M  V30 8428 H 813.861 0.687819 0.264715 0
M  V30 8429 H 816.503 1.89999 -0.00496279 0
M  V30 8430 H 814.653 3.3072 2.03854 0
M  V30 8431 H 816.325 4.60755 -0.224159 0
M  V30 8432 H 814.568 4.32895 -0.280092 0
M  V30 8433 H 815.239 5.44377 0.91423 0
M  V30 8434 H 817.715 3.74243 1.81883 0
M  V30 8435 H 816.591 4.72652 2.7909 0
M  V30 8436 H 816.852 3.04062 3.20934 0
M  V30 8437 N 815.911 -0.310526 1.54511 0
M  V30 8438 C 817.16 -1.0445 1.72549 0
M  V30 8439 C 817.473 -1.88748 0.513172 0
M  V30 8440 O 818.679 -2.65338 0.575165 0
M  V30 8441 C 817.135 -1.90665 3.05246 0
M  V30 8442 C 816.743 -1.11415 4.33925 0
M  V30 8443 C 818.487 -2.63719 3.32645 0
M  V30 8444 C 816.394 -1.96852 5.57677 0
M  V30 8445 H 815.324 -0.393676 0.643067 0
M  V30 8446 H 817.975 -0.302003 1.80998 0
M  V30 8447 H 816.357 -2.68864 2.90737 0
M  V30 8448 H 817.531 -0.378956 4.59239 0
M  V30 8449 H 815.846 -0.499853 4.13389 0
M  V30 8450 H 818.443 -3.27974 4.223 0
M  V30 8451 H 818.786 -3.32047 2.51098 0
M  V30 8452 H 819.319 -1.92574 3.48081 0
M  V30 8453 H 816.058 -1.33009 6.41864 0
M  V30 8454 H 815.578 -2.68069 5.36562 0
M  V30 8455 H 817.257 -2.55127 5.94575 0
M  V30 8456 N 817.389 -1.46805 -0.573248 0
M  V30 8457 C 818.635 -1.5283 -1.33307 0
M  V30 8458 C 818.968 -0.183287 -1.93333 0
M  V30 8459 O 818.243 0.806354 -1.76998 0
M  V30 8460 C 818.526 -2.63414 -2.45531 0
M  V30 8461 C 818.379 -4.07478 -1.90478 0
M  V30 8462 C 819.698 -2.70014 -3.47535 0
M  V30 8463 H 816.817 -0.556371 -0.483343 0
M  V30 8464 H 819.459 -1.78787 -0.643066 0
M  V30 8465 H 817.609 -2.41412 -3.04389 0
M  V30 8466 H 819.281 -4.40795 -1.36004 0
M  V30 8467 H 817.524 -4.16511 -1.21248 0
M  V30 8468 H 818.195 -4.80598 -2.71531 0
M  V30 8469 H 820.671 -2.89817 -2.98572 0
M  V30 8470 H 819.547 -3.49192 -4.23504 0
M  V30 8471 H 819.808 -1.76436 -4.05367 0
M  V30 8472 N 818.867 0.818669 -1.34668 0
M  V30 8473 C 820.113 1.57746 -1.27453 0
M  V30 8474 C 820.446 1.93588 0.154077 0
M  V30 8475 O 819.721 1.60371 1.10051 0
M  V30 8476 C 820.004 2.87414 -2.16945 0
M  V30 8477 C 819.857 2.58125 -3.68363 0
M  V30 8478 C 821.176 3.89021 -2.05792 0
M  V30 8479 H 818.295 0.572339 -0.464324 0
M  V30 8480 H 820.937 0.942784 -1.64959 0
M  V30 8481 H 819.087 3.41576 -1.85089 0
M  V30 8482 H 820.759 2.10239 -4.10606 0
M  V30 8483 H 819.002 1.91503 -3.89242 0
M  V30 8484 H 819.673 3.5061 -4.26353 0
M  V30 8485 H 822.149 3.44224 -2.33771 0
M  V30 8486 H 821.025 4.77548 -2.70628 0
M  V30 8487 H 821.286 4.29786 -1.03618 0
M  V30 8488 N 820.346 1.18468 1.03938 0
M  V30 8489 C 821.574 1.00576 1.80809 0
M  V30 8490 C 821.989 -0.445786 1.83462 0
M  V30 8491 O 821.346 -1.30964 1.27101 0
M  V30 8492 C 821.397 1.55491 3.26351 0
M  V30 8493 O 821.118 2.94963 3.23926 0
M  V30 8494 C 822.619 1.42236 4.19862 0
M  V30 8495 H 819.839 0.35508 0.56935 0
M  V30 8496 H 822.383 1.57046 1.30984 0
M  V30 8497 H 820.538 1.03195 3.73403 0
M  V30 8498 H 820.952 3.20598 4.15111 0
M  V30 8499 H 822.426 1.85455 5.19914 0
M  V30 8500 H 822.903 0.371267 4.37628 0
M  V30 8501 H 823.509 1.9361 3.78675 0
M  V30 8502 N 821.824 -1.22873 0.986916 0
M  V30 8503 C 823.072 -1.91084 0.658121 0
M  V30 8504 C 823.393 -1.77304 -0.811675 0
M  V30 8505 O 822.663 -1.15649 -1.58121 0
M  V30 8506 H 821.243 -0.707251 0.240427 0
M  V30 8507 H 823.905 -1.49357 1.25213 0
M  V30 8508 H 823.001 -2.98373 0.915428 0
M  V30 8509 N 823.302 -0.75937 -1.38099 0
M  V30 8510 C 824.548 -0.327559 -2.00745 0
M  V30 8511 C 824.903 1.08042 -1.592 0
M  V30 8512 O 824.196 1.7306 -0.822236 0
M  V30 8513 C 824.39 -0.394999 -3.55211 0
M  V30 8514 C 824.219 -1.80798 -4.11755 0
M  V30 8515 C 822.989 -2.42585 -4.43262 0
M  V30 8516 C 825.187 -2.76556 -4.33614 0
M  V30 8517 N 823.169 -3.75784 -4.85448 0
M  V30 8518 C 824.54 -3.94532 -4.78273 0
M  V30 8519 C 826.595 -2.74004 -4.15724 0
M  V30 8520 C 825.298 -5.10322 -5.06916 0
M  V30 8521 C 827.324 -3.88957 -4.45496 0
M  V30 8522 C 826.686 -5.05672 -4.90383 0
M  V30 8523 H 822.785 -0.166644 -0.764038 0
M  V30 8524 H 825.369 -0.99056 -1.67619 0
M  V30 8525 H 823.54 0.237761 -3.87672 0
M  V30 8526 H 825.272 0.0576828 -4.04659 0
M  V30 8527 H 822.027 -1.94302 -4.31907 0
M  V30 8528 H 822.451 -4.44234 -5.10867 0
M  V30 8529 H 827.093 -1.84948 -3.80203 0
M  V30 8530 H 824.811 -5.99988 -5.41332 0
M  V30 8531 H 828.397 -3.88308 -4.33253 0
M  V30 8532 H 827.277 -5.93146 -5.1298 0
M  V30 8533 N 824.78 1.49157 -0.508906 0
M  V30 8534 C 826.196 1.58741 -0.165372 0
M  V30 8535 C 826.396 1.5133 1.33047 0
M  V30 8536 O 825.452 1.39135 2.10707 0
M  V30 8537 C 826.765 2.91217 -0.749194 0
M  V30 8538 C 828.313 3.047 -0.716015 0
M  V30 8539 C 828.788 4.39807 -1.27804 0
M  V30 8540 N 830.279 4.46319 -1.23908 0
M  V30 8541 C 831.014 5.49325 -1.64406 0
M  V30 8542 N 830.51 6.59395 -2.12534 0
M  V30 8543 N 832.303 5.40084 -1.55773 0
M  V30 8544 H 824.454 1.52217 -1.48134 0
M  V30 8545 H 826.717 0.721514 -0.614915 0
M  V30 8546 H 826.423 3.02233 -1.79856 0
M  V30 8547 H 826.297 3.76592 -0.214144 0
M  V30 8548 H 828.684 2.9331 0.324535 0
M  V30 8549 H 828.765 2.2099 -1.2883 0
M  V30 8550 H 828.409 4.5195 -2.31741 0
M  V30 8551 H 828.339 5.2217 -0.681623 0
M  V30 8552 H 830.83 3.67354 -0.886537 0
M  V30 8553 H 831.143 7.34102 -2.41485 0
M  V30 8554 H 829.488 6.60414 -2.16513 0
M  V30 8555 H 832.679 4.52986 -1.17987 0
M  V30 8556 H 832.852 6.20233 -1.87657 0
M  V30 8557 N 826.258 0.243083 1.55714 0
M  V30 8558 C 827.669 -0.260788 1.8487 0
M  V30 8559 C 828.02 -1.57879 1.16485 0
M  V30 8560 O 827.145 -2.1184 0.441908 0
M  V30 8561 C 827.74 -0.479954 3.35383 0
M  V30 8562 C 826.299 -0.928096 3.64778 0
M  V30 8563 C 825.446 -0.00316416 2.773 0
M  V30 8564 H 828.397 0.465743 1.51712 0
M  V30 8565 H 828.418 -1.32308 3.56756 0
M  V30 8566 H 827.93 0.479468 3.85127 0
M  V30 8567 H 826.031 -1.90012 3.20509 0
M  V30 8568 H 826.144 -0.7876 4.72582 0
M  V30 8569 H 824.508 -0.513849 2.49463 0
M  V30 8570 H 825.291 0.951562 3.29849 0
M  V30 8571 N 827.736 -1.57571 -0.0300757 0
M  V30 8572 C 828.984 -1.88852 -0.719666 0
M  V30 8573 C 829.305 -0.840645 -1.75949 0
M  V30 8574 O 828.575 0.125854 -1.95495 0
M  V30 8575 H 827.155 -0.696965 -0.268792 0
M  V30 8576 H 829.817 -1.949 0.00373285 0
M  V30 8577 H 828.913 -2.87695 -1.20987 0
M  V30 8578 N 829.214 0.302327 -1.54673 0
M  V30 8579 C 830.439 1.06103 -1.78205 0
M  V30 8580 C 830.864 1.80204 -0.53926 0
M  V30 8581 O 830.222 1.73975 0.510142 0
M  V30 8582 C 830.27 2.01829 -2.98827 0
M  V30 8583 O 829.374 3.10108 -2.71858 0
M  V30 8584 H 828.715 0.30487 -0.589873 0
M  V30 8585 H 831.245 0.340153 -2.01753 0
M  V30 8586 H 831.255 2.44319 -3.2676 0
M  V30 8587 H 829.93 1.473 -3.88942 0
M  V30 8588 H 828.507 2.72142 -2.54937 0
M  V30 8589 N 830.692 1.47107 0.565454 0
M  V30 8590 C 831.94 1.53005 1.32038 0
M  V30 8591 C 832.261 0.190453 1.94068 0
M  V30 8592 O 831.531 -0.784783 1.79494 0
M  V30 8593 H 830.111 0.563578 0.490294 0
M  V30 8594 H 832.773 1.83351 0.660928 0
M  V30 8595 H 831.869 2.29215 2.11818 0
M  V30 8596 N 832.17 -0.811516 1.35101 0
M  V30 8597 C 833.4 -1.59749 1.31011 0
M  V30 8598 C 833.808 -1.88847 -0.115566 0
M  V30 8599 O 833.151 -1.48854 -1.07649 0
M  V30 8600 C 833.213 -2.95714 2.04435 0
M  V30 8601 C 832.877 -2.89456 3.53645 0
M  V30 8602 C 833.874 -2.63237 4.48333 0
M  V30 8603 C 831.559 -3.08728 3.96222 0
M  V30 8604 C 833.553 -2.56361 5.83573 0
M  V30 8605 C 831.24 -3.01475 5.3156 0
M  V30 8606 C 832.238 -2.75326 6.25048 0
M  V30 8607 O 831.926 -2.68026 7.57903 0
M  V30 8608 H 831.658 -0.502889 0.45175 0
M  V30 8609 H 834.212 -1.01687 1.78462 0
M  V30 8610 H 832.442 -3.55739 1.51613 0
M  V30 8611 H 834.131 -3.56816 1.93487 0
M  V30 8612 H 834.897 -2.48072 4.16756 0
M  V30 8613 H 830.776 -3.28094 3.23845 0
M  V30 8614 H 834.32 -2.35871 6.56514 0
M  V30 8615 H 830.217 -3.16197 5.62752 0
M  V30 8616 H 830.985 -2.8367 7.67772 0
M  V30 8617 N 833.648 -1.19017 -1.03309 0
M  V30 8618 C 834.876 -1.01534 -1.80273 0
M  V30 8619 C 835.291 0.43605 -1.83696 0
M  V30 8620 O 834.648 1.30288 -1.27794 0
M  V30 8621 C 834.699 -1.5722 -3.25522 0
M  V30 8622 O 834.42 -2.96677 -3.22358 0
M  V30 8623 C 835.921 -1.4446 -4.19102 0
M  V30 8624 H 833.141 -0.358094 -0.567459 0
M  V30 8625 H 835.685 -1.57738 -1.3015 0
M  V30 8626 H 833.84 -1.05174 -3.7285 0
M  V30 8627 H 834.254 -3.22795 -4.13405 0
M  V30 8628 H 835.728 -1.88209 -5.18923 0
M  V30 8629 H 836.205 -0.394471 -4.37425 0
M  V30 8630 H 836.811 -1.95616 -3.77643 0
M  V30 8631 N 835.127 1.22348 -0.993418 0
M  V30 8632 C 836.075 2.26315 -0.537052 0
M  V30 8633 C 837.069 1.643 0.412545 0
M  V30 8634 O 838.275 1.77729 0.285008 0
M  V30 8635 H 834.65 0.735792 -0.155286 0
M  V30 8636 H 836.621 2.62157 -1.42535 0
M  V30 8637 C 835.37 3.47449 0.132118 0
M  V30 8638 H 834.693 3.9543 -0.589519 0
M  V30 8639 H 836.133 4.21965 0.414884 0
M  V30 8640 C 834.592 3.07893 1.36761 0
M  V30 8641 O 835.122 3.17338 2.46291 0
M  V30 8642 N 833.328 2.62672 1.24305 0
M  V30 8643 H 832.875 2.55186 0.351826 0
M  V30 8644 H 832.833 2.36574 2.07076 0
M  V30 8645 N 836.605 0.766683 1.37694 0
M  V30 8646 C 837.854 0.325425 1.99057 0
M  V30 8647 C 838.167 -1.10275 1.61551 0
M  V30 8648 O 839.373 -1.64513 2.1598 0
M  V30 8649 C 837.829 0.530886 3.55963 0
M  V30 8650 C 837.437 1.96899 4.02411 0
M  V30 8651 C 839.181 0.152997 4.24224 0
M  V30 8652 C 837.088 2.12232 5.52007 0
M  V30 8653 H 836.018 0.117929 0.744721 0
M  V30 8654 H 838.669 0.945091 1.5729 0
M  V30 8655 H 837.051 -0.158162 3.95684 0
M  V30 8656 H 838.225 2.69258 3.73948 0
M  V30 8657 H 836.54 2.303 3.46916 0
M  V30 8658 H 839.137 0.24614 5.34133 0
M  V30 8659 H 839.48 -0.896096 4.06541 0
M  V30 8660 H 840.013 0.794398 3.89787 0
M  V30 8661 H 836.752 3.15442 5.7461 0
M  V30 8662 H 836.272 1.4435 5.82171 0
M  V30 8663 H 837.951 1.9185 6.17902 0
M  V30 8664 N 838.083 -1.48885 0.516809 0
M  V30 8665 C 839.016 -2.26218 -0.30011 0
M  V30 8666 C 839.994 -1.31491 -0.956496 0
M  V30 8667 O 841.178 -1.6081 -0.983488 0
M  V30 8668 C 838.305 -3.07315 -1.42392 0
M  V30 8669 C 837.351 -4.17316 -0.880295 0
M  V30 8670 S 838.184 -5.34955 0.24146 0
M  V30 8671 C 839.34 -6.1961 -0.885138 0
M  V30 8672 H 839.573 -2.95158 0.356217 0
M  V30 8673 H 837.106 -1.5141 0.302365 0
M  V30 8674 H 839.064 -3.54619 -2.06775 0
M  V30 8675 H 837.725 -2.37813 -2.05192 0
M  V30 8676 H 836.918 -4.73635 -1.72297 0
M  V30 8677 H 836.52 -3.72685 -0.313396 0
M  V30 8678 H 838.812 -6.53513 -1.78682 0
M  V30 8679 H 839.755 -7.07183 -0.360226 0
M  V30 8680 H 840.163 -5.52461 -1.1596 0
M  V30 8681 N 839.561 -0.251338 -1.55583 0
M  V30 8682 C 840.977 0.103409 -1.59265 0
M  V30 8683 C 841.177 1.56559 -1.26852 0
M  V30 8684 O 840.233 2.31071 -1.01796 0
M  V30 8685 C 841.546 -0.249781 -2.99661 0
M  V30 8686 C 843.094 -0.194442 -3.12395 0
M  V30 8687 C 843.569 -0.521728 -4.55019 0
M  V30 8688 N 845.06 -0.472393 -4.60785 0
M  V30 8689 C 845.795 -0.698737 -5.69127 0
M  V30 8690 N 845.291 -0.988443 -6.85713 0
M  V30 8691 N 847.084 -0.629143 -5.58568 0
M  V30 8692 H 839.235 -1.20484 -1.74921 0
M  V30 8693 H 841.498 -0.485092 -0.814488 0
M  V30 8694 H 841.204 -1.26577 -3.28133 0
M  V30 8695 H 841.078 0.420973 -3.74844 0
M  V30 8696 H 843.465 0.812229 -2.83702 0
M  V30 8697 H 843.546 -0.899111 -2.39478 0
M  V30 8698 H 843.19 -1.52597 -4.84434 0
M  V30 8699 H 843.12 0.204468 -5.26203 0
M  V30 8700 H 845.611 -0.257386 -3.77022 0
M  V30 8701 H 845.924 -1.14846 -7.64219 0
M  V30 8702 H 844.269 -1.02596 -6.87386 0
M  V30 8703 H 847.46 -0.402826 -4.66364 0
M  V30 8704 H 847.633 -0.808935 -6.42931 0
M  V30 8705 N 841.039 1.57585 0.0217189 0
M  V30 8706 C 842.285 1.89887 0.712099 0
M  V30 8707 C 842.618 0.849971 1.74611 0
M  V30 8708 O 841.893 -0.13407 1.94037 0
M  V30 8709 C 842.176 3.32815 1.37499 0
M  V30 8710 C 842.029 4.48405 0.353993 0
M  V30 8711 C 843.348 3.74786 2.30703 0
M  V30 8712 H 840.467 0.690588 0.257405 0
M  V30 8713 H 843.109 1.89983 -0.0251145 0
M  V30 8714 H 841.259 3.32863 2.00335 0
M  V30 8715 H 842.931 4.60491 -0.273015 0
M  V30 8716 H 841.174 4.32573 -0.32599 0
M  V30 8717 H 841.845 5.45316 0.85644 0
M  V30 8718 H 844.321 3.76151 1.77904 0
M  V30 8719 H 843.197 4.75585 2.74061 0
M  V30 8720 H 843.458 3.07449 3.17691 0
M  V30 8721 N 842.517 -0.29412 1.54831 0
M  V30 8722 C 843.447 -1.36757 1.89261 0
M  V30 8723 C 844.428 -1.52564 0.752214 0
M  V30 8724 O 845.613 -1.65958 1.00855 0
M  V30 8725 C 842.743 -2.73066 2.14597 0
M  V30 8726 C 841.697 -2.72017 3.3044 0
M  V30 8727 C 841.023 -4.11679 3.4121 0
M  V30 8728 C 842.323 -2.33149 4.67375 0
M  V30 8729 H 844.017 -1.08191 2.79169 0
M  V30 8730 H 841.563 -0.519014 1.34321 0
M  V30 8731 H 843.516 -3.48255 2.37269 0
M  V30 8732 H 842.24 -3.03172 1.21467 0
M  V30 8733 H 840.899 -1.99285 3.07703 0
M  V30 8734 H 840.547 -4.38973 2.45584 0
M  V30 8735 H 840.247 -4.11877 4.19084 0
M  V30 8736 H 841.771 -4.88637 3.6615 0
M  V30 8737 H 843.185 -2.98054 4.89731 0
M  V30 8738 H 841.582 -2.44546 5.48012 0
M  V30 8739 H 842.652 -1.28275 4.67626 0
M  V30 8740 N 843.995 -1.47404 -0.557645 0
M  V30 8741 C 845.22 -1.57868 -1.34508 0
M  V30 8742 C 845.645 -0.229151 -1.86699 0
M  V30 8743 O 845.003 0.794908 -1.62944 0
M  V30 8744 C 845.051 -2.60712 -2.49122 0
M  V30 8745 O 844.155 -2.15952 -3.51338 0
M  V30 8746 H 843.496 -0.530335 -0.399551 0
M  V30 8747 H 846.026 -1.93181 -0.673954 0
M  V30 8748 H 846.036 -2.81118 -2.95697 0
M  V30 8749 H 844.711 -3.58701 -2.10491 0
M  V30 8750 H 843.288 -2.05644 -3.11071 0
M  V30 8751 N 845.473 0.80434 -1.35529 0
M  V30 8752 C 846.722 1.55665 -1.28263 0
M  V30 8753 C 847.035 1.95096 0.140352 0
M  V30 8754 O 848.241 2.69422 0.335303 0
M  V30 8755 C 846.697 2.80935 -2.24952 0
M  V30 8756 C 846.305 2.48733 -3.72607 0
M  V30 8757 C 848.049 3.5894 -2.26632 0
M  V30 8758 C 845.956 3.70308 -4.61114 0
M  V30 8759 H 844.886 0.584301 -0.476559 0
M  V30 8760 H 847.537 0.88395 -1.60806 0
M  V30 8761 H 845.919 3.49927 -1.85383 0
M  V30 8762 H 847.093 1.87733 -4.20824 0
M  V30 8763 H 845.408 1.83969 -3.73557 0
M  V30 8764 H 848.005 4.49244 -2.89973 0
M  V30 8765 H 848.348 3.96433 -1.27069 0
M  V30 8766 H 848.881 2.96912 -2.64742 0
M  V30 8767 H 845.62 3.37922 -5.61684 0
M  V30 8768 H 845.14 4.30526 -4.17621 0
M  V30 8769 H 846.819 4.37511 -4.76648 0
M  V30 8770 N 846.951 1.19563 1.02676 0
M  V30 8771 C 848.176 1.02556 1.80269 0
M  V30 8772 C 848.601 -0.421056 1.83327 0
M  V30 8773 O 847.959 -1.30279 1.26084 0
M  V30 8774 C 848.007 1.60165 3.23078 0
M  V30 8775 O 847.111 0.832404 4.03912 0
M  V30 8776 H 846.452 0.362354 0.556413 0
M  V30 8777 H 848.982 1.58633 1.29216 0
M  V30 8778 H 848.992 1.6347 3.7382 0
M  V30 8779 H 847.667 2.65454 3.20167 0
M  V30 8780 H 846.244 0.872768 3.62543 0
M  V30 8781 O 848.468 -1.15601 1.12777 0
M  V30 8782 H 849.159 -1.74498 0.840847 0
M  V30 END ATOM
M  V30 BEGIN BOND
M  V30 END BOND
M  V30 END CTAB
M  END
$$$$
