drugbank_target|P30711 Glutathione S-transferase theta-1 (DB00143)
 OpenBabel12092119403D

  0  0  0     0  0            999 V3000
M  V30 BEGIN CTAB
M  V30 COUNTS 3911 3960 0 0 0
M  V30 BEGIN ATOM
M  V30 1 H -0.908 1.98254 -0.117106 0
M  V30 2 N 0 1.576 0 0
M  V30 3 C 0.933 2.03868 1.02534 0
M  V30 4 C 1.911 0.928543 1.3348 0
M  V30 5 O 3.095 1.19667 1.45644 0
M  V30 6 C 0.222 2.43627 2.35294 0
M  V30 7 C -0.732 3.65373 2.2001 0
M  V30 8 S 0.101 5.13292 1.52614 0
M  V30 9 C 1.257 5.56322 2.86805 0
M  V30 10 H 1.49 2.90518 0.631377 0
M  V30 11 H -0.977 1.52953 0.210867 0
M  V30 12 H 0.981 2.67203 3.11629 0
M  V30 13 H -0.358 1.57376 2.7183 0
M  V30 14 H -1.165 3.90944 3.18086 0
M  V30 15 H -1.563 3.418 1.51819 0
M  V30 16 H 0.729 5.58782 3.83104 0
M  V30 17 H 1.672 6.56266 2.65933 0
M  V30 18 H 2.08 4.83886 2.90714 0
M  V30 19 N 1.4781 -0.272755 1.55222 0
M  V30 20 C 2.7261 -1.00234 1.75492 0
M  V30 21 C 3.0471 -1.8681 0.5592 0
M  V30 22 O 2.3171 -1.91215 -0.425882 0
M  V30 23 H 0.8971 -0.373076 0.647166 0
M  V30 24 H 3.5591 -0.296926 1.92625 0
M  V30 25 H 2.6551 -1.63913 2.65592 0
M  V30 26 N 2.9562 -1.48159 -0.537278 0
M  V30 27 C 3.8862 -1.65029 -1.6519 0
M  V30 28 C 4.8672 -0.499281 -1.62607 0
M  V30 29 O 6.0522 -0.730972 -1.79918 0
M  V30 30 C 3.1822 -1.68303 -3.03795 0
M  V30 31 C 2.1362 -2.8283 -3.21234 0
M  V30 32 C 1.4622 -2.71189 -4.60826 0
M  V30 33 C 2.7622 -4.24211 -3.04701 0
M  V30 34 H 4.4562 -2.58341 -1.51328 0
M  V30 35 H 2.0022 -1.24325 -0.726585 0
M  V30 36 H 3.9552 -1.78693 -3.81637 0
M  V30 37 H 2.6792 -0.715635 -3.18663 0
M  V30 38 H 1.3382 -2.71983 -2.45807 0
M  V30 39 H 0.9862 -1.72435 -4.7252 0
M  V30 40 H 0.6862 -3.48035 -4.7344 0
M  V30 41 H 2.2102 -2.83537 -5.40777 0
M  V30 42 H 3.6242 -4.3593 -3.72341 0
M  V30 43 H 2.0212 -5.01998 -3.28813 0
M  V30 44 H 3.0912 -4.41184 -2.01209 0
M  V30 45 N 4.4343 0.785586 -1.36625 0
M  V30 46 C 5.3443 1.92964 -1.33425 0
M  V30 47 C 6.3603 1.72394 -0.235851 0
M  V30 48 O 7.5363 1.95866 -0.468878 0
M  V30 49 C 4.6013 3.27884 -1.12662 0
M  V30 50 C 3.6623 3.61204 -2.32013 0
M  V30 51 C 2.8953 4.89687 -2.12231 0
M  V30 52 O 3.1183 5.59704 -1.09945 0
M  V30 53 O 2.0523 5.21752 -3.00098 0
M  V30 54 H 5.8783 1.98613 -2.29753 0
M  V30 55 H 3.4633 0.926384 -1.17211 0
M  V30 56 H 5.3453 4.08614 -1.03016 0
M  V30 57 H 4.0203 3.23118 -0.193991 0
M  V30 58 H 2.9273 2.80765 -2.47228 0
M  V30 59 H 4.2603 3.70698 -3.23796 0
M  V30 60 N 5.9124 1.20967 1.01018 0
M  V30 61 C 6.8424 0.988272 2.11555 0
M  V30 62 C 7.8234 -0.0849778 1.69888 0
M  V30 63 O 9.0084 0.0738202 1.9406 0
M  V30 64 C 6.1384 0.546528 3.42973 0
M  V30 65 C 5.0924 1.56375 3.9841 0
M  V30 66 C 4.4184 0.97842 5.25672 0
M  V30 67 C 5.7184 2.94922 4.31066 0
M  V30 68 H 7.4124 1.91276 2.30334 0
M  V30 69 H 4.9584 0.921073 1.1069 0
M  V30 70 H 6.9114 0.378839 4.19694 0
M  V30 71 H 5.6354 -0.413598 3.23971 0
M  V30 72 H 4.2944 1.71891 3.23804 0
M  V30 73 H 3.9424 0.0101688 5.02999 0
M  V30 74 H 3.6424 1.65784 5.63728 0
M  V30 75 H 5.1664 0.821939 6.05043 0
M  V30 76 H 6.5804 2.8288 4.9865 0
M  V30 77 H 4.9774 3.5983 4.80253 0
M  V30 78 H 6.0474 3.4616 3.39561 0
M  V30 79 N 7.3905 -1.2043 1.01659 0
M  V30 80 C 8.6205 -1.93496 0.724081 0
M  V30 81 C 9.0285 -1.74998 -0.71918 0
M  V30 82 O 8.3715 -1.06118 -1.49949 0
M  V30 83 C 8.4335 -3.45886 0.97994 0
M  V30 84 C 8.0975 -3.88145 2.41232 0
M  V30 85 C 9.0945 -3.93907 3.39313 0
M  V30 86 C 6.7795 -4.20134 2.75305 0
M  V30 87 C 8.7735 -4.31069 4.6953 0
M  V30 88 C 6.4605 -4.56971 4.05735 0
M  V30 89 C 7.4585 -4.62411 5.02658 0
M  V30 90 O 7.1465 -4.98403 6.30754 0
M  V30 91 H 6.8785 -0.621824 0.265162 0
M  V30 92 H 9.4325 -1.53867 1.36066 0
M  V30 93 H 7.6625 -3.85639 0.286198 0
M  V30 94 H 9.3515 -4.0018 0.679021 0
M  V30 95 H 10.1175 -3.69357 3.14325 0
M  V30 96 H 5.9965 -4.1509 2.00551 0
M  V30 97 H 9.5405 -4.3523 5.45179 0
M  V30 98 H 5.4375 -4.80977 4.30502 0
M  V30 99 H 6.2055 -5.16395 6.35042 0
M  V30 100 N 8.8686 -0.792821 -1.36206 0
M  V30 101 C 9.7986 -0.207853 -2.32573 0
M  V30 102 C 10.7796 0.659055 -1.56813 0
M  V30 103 O 11.9646 0.592176 -1.84951 0
M  V30 104 C 9.0946 0.655449 -3.41059 0
M  V30 105 C 8.0486 -0.111842 -4.27854 0
M  V30 106 C 7.3746 0.872274 -5.27537 0
M  V30 107 C 8.6746 -1.30299 -5.05786 0
M  V30 108 H 10.3686 -1.01294 -2.81744 0
M  V30 109 H 7.9146 -0.48854 -1.3546 0
M  V30 110 H 9.8676 1.07464 -4.07467 0
M  V30 111 H 8.5916 1.49328 -2.90463 0
M  V30 112 H 7.2506 -0.512053 -3.63006 0
M  V30 113 H 6.8986 1.70523 -4.73214 0
M  V30 114 H 6.5986 0.363291 -5.86476 0
M  V30 115 H 8.1226 1.28996 -5.96818 0
M  V30 116 H 9.5366 -0.959379 -5.65216 0
M  V30 117 H 7.9336 -1.7455 -5.74154 0
M  V30 118 H 9.0036 -2.09663 -4.37229 0
M  V30 119 N 10.3467 1.47872 -0.545128 0
M  V30 120 C 11.6237 1.9554 0.0485222 0
M  V30 121 C 12.0037 1.4876 1.49779 0
M  V30 122 O 11.3517 0.720925 2.16829 0
M  V30 123 C 11.5617 3.48898 -0.084417 0
M  V30 124 C 12.9097 4.24547 0.0671239 0
M  V30 125 O 13.9337 3.56198 -0.0113649 0
M  V30 126 O 12.7927 5.45999 0.233882 0
M  V30 127 H 9.8867 0.823957 0.0708773 0
M  V30 128 H 12.4327 1.58327 -0.610798 0
M  V30 129 H 11.2047 3.75714 -1.09337 0
M  V30 130 H 10.8277 3.92845 0.613066 0
M  V30 131 N 11.8248 0.280983 1.55075 0
M  V30 132 C 12.7548 -0.597469 2.25727 0
M  V30 133 C 13.7358 -1.15417 1.24952 0
M  V30 134 O 14.9208 -1.18722 1.53684 0
M  V30 135 C 12.0508 -1.7789 2.98283 0
M  V30 136 C 11.0048 -1.35347 4.06036 0
M  V30 137 C 10.3308 -2.61846 4.66198 0
M  V30 138 C 11.6308 -0.499354 5.19907 0
M  V30 139 H 13.3248 -0.00824265 2.99399 0
M  V30 140 H 10.8708 -0.0025244 1.44 0
M  V30 141 H 12.8238 -2.39937 3.46422 0
M  V30 142 H 11.5478 -2.39405 2.22155 0
M  V30 143 H 10.2068 -0.756156 3.58717 0
M  V30 144 H 9.8548 -3.21632 3.86732 0
M  V30 145 H 9.5548 -2.3409 5.38958 0
M  V30 146 H 11.0788 -3.24732 5.1709 0
M  V30 147 H 12.4928 -1.02498 5.64063 0
M  V30 148 H 10.8898 -0.316424 5.99265 0
M  V30 149 H 11.9598 0.480459 4.82514 0
M  V30 150 N 13.3029 -1.57598 0.00835791 0
M  V30 151 C 14.2329 -2.1198 -0.979113 0
M  V30 152 C 15.2139 -1.03091 -1.35301 0
M  V30 153 O 16.3989 -1.30818 -1.43528 0
M  V30 154 C 13.5289 -2.62995 -2.26828 0
M  V30 155 C 12.4829 -3.76485 -2.03576 0
M  V30 156 C 11.8089 -4.13846 -3.38579 0
M  V30 157 C 13.1089 -5.0342 -1.39161 0
M  V30 158 H 14.8029 -2.94738 -0.526281 0
M  V30 159 H 12.3489 -1.41783 -0.251704 0
M  V30 160 H 14.3019 -2.99669 -2.96271 0
M  V30 161 H 13.0259 -1.7737 -2.7424 0
M  V30 162 H 11.6849 -3.40217 -1.36557 0
M  V30 163 H 11.3329 -3.25232 -3.83709 0
M  V30 164 H 11.0329 -4.90312 -3.23834 0
M  V30 165 H 12.5569 -4.53086 -4.09323 0
M  V30 166 H 13.9709 -5.37812 -1.98573 0
M  V30 167 H 12.3679 -5.84746 -1.34878 0
M  V30 168 H 13.4379 -4.83548 -0.361868 0
M  V30 169 N 14.781 0.264519 -1.55364 0
M  V30 170 C 16.006 1.01726 -1.80739 0
M  V30 171 C 16.431 1.78836 -0.583044 0
M  V30 172 O 15.789 1.75167 0.467566 0
M  V30 173 C 15.837 1.94482 -3.03659 0
M  V30 174 O 14.941 3.03386 -2.7934 0
M  V30 175 H 14.282 0.290395 -0.597132 0
M  V30 176 H 16.812 0.290854 -2.02522 0
M  V30 177 H 16.822 2.36278 -3.32621 0
M  V30 178 H 15.497 1.37772 -3.92418 0
M  V30 179 H 14.074 2.65844 -2.61498 0
M  V30 180 N 16.2591 1.48442 0.529413 0
M  V30 181 C 17.1911 1.59095 1.64989 0
M  V30 182 C 18.2041 0.475212 1.5571 0
M  V30 183 O 19.3931 0.746081 1.6216 0
M  V30 184 C 16.4931 1.50518 3.0364 0
M  V30 185 C 15.6661 2.77142 3.38395 0
M  V30 186 C 14.7251 2.62012 4.56329 0
M  V30 187 O 13.7511 3.35898 4.59522 0
M  V30 188 N 14.9531 1.71667 5.54536 0
M  V30 189 H 17.7181 2.55723 1.56287 0
M  V30 190 H 15.2791 1.45173 0.716697 0
M  V30 191 H 17.2711 1.38091 3.80412 0
M  V30 192 H 15.8411 0.618627 3.06418 0
M  V30 193 H 15.0611 3.0413 2.50796 0
M  V30 194 H 16.3491 3.61146 3.58401 0
M  V30 195 H 15.7471 1.10841 5.54735 0
M  V30 196 H 14.3041 1.65178 6.30523 0
M  V30 197 N 17.7372 -0.778329 1.37039 0
M  V30 198 C 19.1482 -1.35421 1.28523 0
M  V30 199 C 19.4992 -1.96075 -0.0700901 0
M  V30 200 O 18.6242 -1.93352 -0.971801 0
M  V30 201 C 19.2192 -2.46211 2.32735 0
M  V30 202 C 17.7782 -2.99585 2.27873 0
M  V30 203 C 16.9252 -1.72748 2.16918 0
M  V30 204 H 19.8762 -0.5791 1.47757 0
M  V30 205 H 19.8972 -3.2552 1.9702 0
M  V30 206 H 19.4092 -2.02036 3.31365 0
M  V30 207 H 17.5102 -3.48152 1.32745 0
M  V30 208 H 17.6232 -3.55646 3.21018 0
M  V30 209 H 15.9872 -1.95416 1.63354 0
M  V30 210 H 16.7702 -1.30686 3.17452 0
M  V30 211 N 19.2153 -1.21501 -1.00376 0
M  V30 212 C 20.4553 -1.04444 -1.75701 0
M  V30 213 C 20.8193 0.414644 -1.87469 0
M  V30 214 O 22.0203 0.705763 -2.59369 0
M  V30 215 C 20.2913 -1.72389 -3.13077 0
M  V30 216 S 21.8503 -1.70604 -4.04277 0
M  V30 217 H 18.6683 -0.374249 -0.604532 0
M  V30 218 H 21.2703 -1.54267 -1.20091 0
M  V30 219 H 19.9743 -2.77734 -3.02146 0
M  V30 220 H 19.5053 -1.22751 -3.73759 0
M  V30 221 H 21.5203 -0.748012 -4.9053 0
M  V30 222 N 20.6934 1.19889 -1.02296 0
M  V30 223 C 22.1094 1.41462 -0.738954 0
M  V30 224 C 22.3094 1.89721 0.678846 0
M  V30 225 O 21.3654 2.07016 1.4457 0
M  V30 226 C 22.6784 2.43083 -1.77005 0
M  V30 227 C 24.2264 2.5684 -1.78892 0
M  V30 228 C 24.7014 3.61709 -2.80945 0
M  V30 229 N 26.1924 3.69199 -2.79725 0
M  V30 230 C 26.9274 4.50019 -3.55345 0
M  V30 231 N 26.4234 5.34592 -4.40662 0
M  V30 232 N 28.2164 4.44612 -3.43914 0
M  V30 233 H 20.3674 0.868827 -1.93817 0
M  V30 234 H 22.6304 0.44399 -0.837602 0
M  V30 235 H 22.3364 2.14636 -2.78612 0
M  V30 236 H 22.2104 3.4217 -1.58744 0
M  V30 237 H 24.5974 2.84614 -0.779674 0
M  V30 238 H 24.6784 1.57927 -2.01228 0
M  V30 239 H 24.3224 3.34678 -3.82038 0
M  V30 240 H 24.2524 4.60259 -2.5587 0
M  V30 241 H 26.7434 3.08794 -2.17842 0
M  V30 242 H 27.0564 5.93363 -4.95116 0
M  V30 243 H 25.4014 5.34073 -4.44737 0
M  V30 244 H 28.5924 3.7758 -2.76679 0
M  V30 245 H 28.7654 5.0736 -4.031 0
M  V30 246 N 22.1715 0.800033 1.35784 0
M  V30 247 C 23.1345 0.211565 2.28221 0
M  V30 248 C 24.1345 -0.59728 1.49296 0
M  V30 249 O 25.3245 -0.416721 1.69142 0
M  V30 250 C 22.4565 -0.705846 3.33513 0
M  V30 251 H 23.6495 1.02677 2.81776 0
M  V30 252 H 21.2025 0.570211 1.45528 0
M  V30 253 H 21.9375 -1.54498 2.85133 0
M  V30 254 H 21.7225 -0.127655 3.91892 0
M  V30 255 H 23.2125 -1.11211 4.02519 0
M  V30 256 N 23.6496 -1.47581 0.552962 0
M  V30 257 C 24.8956 -2.02782 0.0273648 0
M  V30 258 C 25.2286 -1.42687 -1.31734 0
M  V30 259 O 24.5036 -0.580897 -1.85623 0
M  V30 260 C 24.7866 -3.60031 -0.0702371 0
M  V30 261 C 24.6396 -4.30566 1.30126 0
M  V30 262 C 25.9586 -4.33028 -0.785771 0
M  V30 263 H 23.0776 -0.736912 0.0114185 0
M  V30 264 H 25.7196 -1.76056 0.714432 0
M  V30 265 H 23.8696 -3.82932 -0.655382 0
M  V30 266 H 25.5416 -4.19018 1.92929 0
M  V30 267 H 23.7846 -3.91086 1.87709 0
M  V30 268 H 24.4556 -5.39114 1.18573 0
M  V30 269 H 26.9316 -4.15095 -0.288982 0
M  V30 270 H 25.8076 -5.42695 -0.823013 0
M  V30 271 H 26.0686 -4.01945 -1.841 0
M  V30 272 N 25.1277 -0.289203 -1.54924 0
M  V30 273 C 26.3577 0.325989 -2.04012 0
M  V30 274 C 26.7657 1.48961 -1.1665 0
M  V30 275 O 26.1087 1.82794 -0.1822 0
M  V30 276 C 26.1707 0.856112 -3.49158 0
M  V30 277 C 25.8347 -0.180697 -4.56643 0
M  V30 278 C 26.8317 -1.0051 -5.10092 0
M  V30 279 C 24.5167 -0.318998 -5.01286 0
M  V30 280 C 26.5107 -1.95385 -6.06715 0
M  V30 281 C 24.1977 -1.27121 -5.97732 0
M  V30 282 C 25.1957 -2.08713 -6.50329 0
M  V30 283 O 24.8837 -3.02322 -7.44887 0
M  V30 284 H 24.6157 0.0765276 -0.671654 0
M  V30 285 H 27.1697 -0.423254 -2.00992 0
M  V30 286 H 25.3997 1.65567 -3.49463 0
M  V30 287 H 27.0887 1.38591 -3.81507 0
M  V30 288 H 27.8547 -0.90906 -4.76404 0
M  V30 289 H 23.7337 0.306108 -4.59983 0
M  V30 290 H 27.2777 -2.59111 -6.47694 0
M  V30 291 H 23.1747 -1.36801 -6.30837 0
M  V30 292 H 23.9427 -2.97165 -7.6265 0
M  V30 293 N 26.6058 1.57591 -0.0167156 0
M  V30 294 C 27.8548 1.90461 0.663877 0
M  V30 295 C 28.1678 0.893515 1.73999 0
M  V30 296 O 29.3738 1.11302 2.47637 0
M  V30 297 C 27.8298 3.38155 1.23204 0
M  V30 298 C 27.4378 4.47597 0.189866 0
M  V30 299 C 29.1818 3.80111 1.88986 0
M  V30 300 C 27.0888 5.86379 0.768964 0
M  V30 301 H 26.0188 0.710738 0.251729 0
M  V30 302 H 28.6698 1.83326 -0.0799926 0
M  V30 303 H 27.0518 3.40182 2.02712 0
M  V30 304 H 28.2258 4.57112 -0.581846 0
M  V30 305 H 26.5408 4.14766 -0.368475 0
M  V30 306 H 29.1378 4.81145 2.33247 0
M  V30 307 H 29.4808 3.14511 2.72743 0
M  V30 308 H 30.0138 3.80454 1.16187 0
M  V30 309 H 26.7528 6.55493 -0.0301957 0
M  V30 310 H 26.2728 5.80496 1.50945 0
M  V30 311 H 27.9518 6.34563 1.26251 0
M  V30 312 N 28.0839 -0.256276 1.55502 0
M  V30 313 C 29.3309 -0.985619 1.76895 0
M  V30 314 C 29.6589 -1.85671 0.579355 0
M  V30 315 O 28.9139 -1.90744 -0.437651 0
M  V30 316 C 29.2129 -1.88432 3.03691 0
M  V30 317 C 28.8789 -1.16936 4.35473 0
M  V30 318 C 27.5409 -0.97173 4.71286 0
M  V30 319 C 29.8929 -0.661889 5.1698 0
M  V30 320 C 27.2209 -0.254179 5.86149 0
M  V30 321 C 29.5729 0.042149 6.32586 0
M  V30 322 C 28.2369 0.25134 6.67027 0
M  V30 323 H 27.5069 -0.360663 0.647304 0
M  V30 324 H 30.1539 -0.256483 1.89775 0
M  V30 325 H 28.4589 -2.68021 2.85783 0
M  V30 326 H 30.1559 -2.45015 3.1744 0
M  V30 327 H 26.7459 -1.33332 4.07333 0
M  V30 328 H 30.9299 -0.802145 4.89775 0
M  V30 329 H 26.1859 -0.0815408 6.11346 0
M  V30 330 H 30.3599 0.443049 6.94989 0
M  V30 331 H 27.9869 0.809314 7.5588 0
M  V30 332 N 29.562 -1.4872 -0.521534 0
M  V30 333 C 30.525 -1.63379 -1.60748 0
M  V30 334 C 31.525 -0.50661 -1.52611 0
M  V30 335 O 32.715 -0.772601 -1.5613 0
M  V30 336 C 29.847 -1.61192 -3.00383 0
M  V30 337 H 31.04 -2.60217 -1.49087 0
M  V30 338 H 28.593 -1.37444 -0.744235 0
M  V30 339 H 29.328 -0.65863 -3.17541 0
M  V30 340 H 29.113 -2.43032 -3.07698 0
M  V30 341 H 30.603 -1.7466 -3.7932 0
M  V30 342 N 31.0401 0.771051 -1.3745 0
M  V30 343 C 31.9871 1.88435 -1.3327 0
M  V30 344 C 32.9571 1.64914 -0.198136 0
M  V30 345 O 34.1421 1.86821 -0.387606 0
M  V30 346 C 31.2821 3.25509 -1.14622 0
M  V30 347 C 30.3951 3.60979 -2.37314 0
M  V30 348 C 29.5301 4.87265 -2.11533 0
M  V30 349 C 28.5691 5.15469 -3.30088 0
M  V30 350 N 27.7061 6.32944 -3.03853 0
M  V30 351 H 32.5461 1.91344 -2.28455 0
M  V30 352 H 30.0831 0.935466 -1.13523 0
M  V30 353 H 32.0411 4.04582 -1.01831 0
M  V30 354 H 30.6711 3.21974 -0.230837 0
M  V30 355 H 29.7231 2.76885 -2.60842 0
M  V30 356 H 31.0351 3.77759 -3.25729 0
M  V30 357 H 30.1891 5.74244 -1.95777 0
M  V30 358 H 28.9281 4.7259 -1.20457 0
M  V30 359 H 27.9331 4.26966 -3.46382 0
M  V30 360 H 29.1581 5.32052 -4.22016 0
M  V30 361 H 27.1041 6.19625 -2.15407 0
M  V30 362 H 27.0211 6.50143 -3.85812 0
M  V30 363 H 28.2891 7.22857 -2.91716 0
M  V30 364 N 32.5182 1.22032 0.997298 0
M  V30 365 C 33.4652 0.986467 2.08656 0
M  V30 366 C 34.4352 -0.0902671 1.65855 0
M  V30 367 O 35.6202 0.0584294 1.90711 0
M  V30 368 C 32.7602 0.565569 3.40434 0
M  V30 369 C 31.8732 1.71259 3.96604 0
M  V30 370 C 31.0082 1.24011 5.16522 0
M  V30 371 C 30.0472 2.35896 5.64818 0
M  V30 372 N 29.1842 1.89726 6.7598 0
M  V30 373 H 34.0242 1.91892 2.27994 0
M  V30 374 H 31.5612 0.956199 1.11782 0
M  V30 375 H 33.5192 0.302738 4.161 0
M  V30 376 H 32.1492 -0.329879 3.2111 0
M  V30 377 H 31.2012 2.08986 3.17851 0
M  V30 378 H 32.5132 2.55436 4.28432 0
M  V30 379 H 31.6672 0.934395 5.99461 0
M  V30 380 H 30.4062 0.368487 4.86306 0
M  V30 381 H 29.4112 2.67261 4.8047 0
M  V30 382 H 30.6362 3.23567 5.97061 0
M  V30 383 H 28.5822 1.0492 6.47555 0
M  V30 384 H 28.4992 2.67471 7.07103 0
M  V30 385 H 29.7672 1.62211 7.62435 0
M  V30 386 N 33.9963 -1.19345 1.0293 0
M  V30 387 C 34.9443 -2.24621 0.604001 0
M  V30 388 C 35.9383 -1.65452 -0.363587 0
M  V30 389 O 37.1443 -1.78497 -0.23212 0
M  V30 390 H 33.5193 -0.730858 0.177061 0
M  V30 391 H 35.4903 -2.5781 1.50255 0
M  V30 392 C 34.2393 -3.47688 -0.0289127 0
M  V30 393 H 33.5623 -3.93505 0.706651 0
M  V30 394 H 35.0023 -4.23011 -0.289432 0
M  V30 395 C 33.4613 -3.11817 -1.2756 0
M  V30 396 O 33.9913 -3.2451 -2.36762 0
M  V30 397 N 32.1973 -2.66246 -1.16453 0
M  V30 398 H 31.7443 -2.56118 -0.275914 0
M  V30 399 H 31.7023 -2.42617 -1.99961 0
M  V30 400 N 35.4744 -0.807222 -1.35358 0
M  V30 401 C 36.7514 -0.311126 -1.9311 0
M  V30 402 C 37.1314 1.19937 -1.73719 0
M  V30 403 O 36.4794 1.99918 -1.10657 0
M  V30 404 C 36.6894 -0.723226 -3.41424 0
M  V30 405 C 38.0374 -0.713078 -4.18569 0
M  V30 406 O 39.0614 -0.664811 -3.49941 0
M  V30 407 O 37.9204 -0.772022 -5.41019 0
M  V30 408 H 35.0144 -0.081526 -0.822972 0
M  V30 409 H 37.5604 -0.890962 -1.4443 0
M  V30 410 H 36.3324 -1.76426 -3.4927 0
M  V30 411 H 35.9554 -0.118232 -3.97424 0
M  V30 412 N 36.9525 1.47285 -0.560781 0
M  V30 413 C 38.2015 2.01668 -0.035895 0
M  V30 414 C 38.5145 1.44021 1.32353 0
M  V30 415 O 39.7205 1.90088 1.93853 0
M  V30 416 C 38.1765 3.59897 -0.0136659 0
M  V30 417 C 37.7845 4.26536 -1.37006 0
M  V30 418 C 39.5285 4.22017 0.458425 0
M  V30 419 C 37.4355 5.76782 -1.30675 0
M  V30 420 H 36.3655 0.753938 -0.00964879 0
M  V30 421 H 39.0165 1.69243 -0.709166 0
M  V30 422 H 37.3985 3.89301 0.725325 0
M  V30 423 H 38.5725 4.0877 -2.12705 0
M  V30 424 H 36.8875 3.76419 -1.78038 0
M  V30 425 H 39.4845 5.32124 0.524247 0
M  V30 426 H 39.8275 3.89437 1.4712 0
M  V30 427 H 40.3605 3.97159 -0.225818 0
M  V30 428 H 37.0995 6.13988 -2.29564 0
M  V30 429 H 36.6195 5.96875 -0.591622 0
M  V30 430 H 38.2985 6.39063 -1.01033 0
M  V30 431 N 38.4306 0.297415 1.54768 0
M  V30 432 C 39.8416 -0.195947 1.85669 0
M  V30 433 C 40.1926 -1.53707 1.21937 0
M  V30 434 O 39.3176 -2.10164 0.515754 0
M  V30 435 C 39.9126 -0.362318 3.36857 0
M  V30 436 C 38.4716 -0.799901 3.67802 0
M  V30 437 C 37.6186 0.0938578 2.77141 0
M  V30 438 H 40.5696 0.518538 1.4999 0
M  V30 439 H 40.5906 -1.19745 3.61167 0
M  V30 440 H 40.1026 0.613921 3.83214 0
M  V30 441 H 38.2036 -1.78682 3.26961 0
M  V30 442 H 38.3166 -0.621773 4.75048 0
M  V30 443 H 36.6806 -0.426254 2.51108 0
M  V30 444 H 37.4636 1.06639 3.26318 0
M  V30 445 N 39.9087 -1.5758 0.0250728 0
M  V30 446 C 41.1557 -1.91633 -0.654444 0
M  V30 447 C 41.4837 -0.901103 -1.72367 0
M  V30 448 O 40.7387 0.0905647 -1.9549 0
M  V30 449 C 41.0377 -3.32421 -1.31268 0
M  V30 450 C 40.7037 -4.49344 -0.374223 0
M  V30 451 C 39.3657 -4.8106 -0.115911 0
M  V30 452 C 41.7177 -5.20498 0.270432 0
M  V30 453 C 39.0457 -5.8129 0.79493 0
M  V30 454 C 41.3977 -6.21699 1.1693 0
M  V30 455 C 40.0617 -6.51859 1.43655 0
M  V30 456 H 39.3317 -0.701236 -0.239478 0
M  V30 457 H 41.9787 -1.91307 0.0859734 0
M  V30 458 H 40.2837 -3.28989 -2.12775 0
M  V30 459 H 41.9807 -3.56038 -1.84494 0
M  V30 460 H 38.5707 -4.24579 -0.58573 0
M  V30 461 H 42.7547 -4.96229 0.0839194 0
M  V30 462 H 38.0107 -6.03005 1.00973 0
M  V30 463 H 42.1847 -6.75955 1.67504 0
M  V30 464 H 39.8117 -7.2934 2.144 0
M  V30 465 N 41.3868 0.248026 -1.55636 0
M  V30 466 C 42.2968 1.32859 -1.93354 0
M  V30 467 C 43.3128 1.52719 -0.833838 0
M  V30 468 O 44.4888 1.66363 -1.13513 0
M  V30 469 C 41.5538 2.66337 -2.21958 0
M  V30 470 C 40.6148 2.55008 -3.45354 0
M  V30 471 C 39.8478 3.82121 -3.72584 0
M  V30 472 O 40.0708 4.83951 -3.01907 0
M  V30 473 O 39.0048 3.80822 -4.6611 0
M  V30 474 H 42.8308 1.03862 -2.85388 0
M  V30 475 H 40.4158 0.448686 -1.42503 0
M  V30 476 H 42.2978 3.45216 -2.4167 0
M  V30 477 H 40.9728 2.95068 -1.33103 0
M  V30 478 H 39.8798 1.7442 -3.30951 0
M  V30 479 H 41.2128 2.31222 -4.34508 0
M  V30 480 N 42.8649 1.48995 0.513639 0
M  V30 481 C 43.7949 1.67636 1.62544 0
M  V30 482 C 44.7759 0.525087 1.61793 0
M  V30 483 O 45.9609 0.759502 1.78732 0
M  V30 484 C 43.0909 1.73114 3.01079 0
M  V30 485 C 42.0449 2.87905 3.16693 0
M  V30 486 C 41.3709 2.78486 4.56453 0
M  V30 487 C 42.6709 4.29005 2.97913 0
M  V30 488 H 44.3649 2.60716 1.47198 0
M  V30 489 H 41.9109 1.25465 0.706714 0
M  V30 490 H 43.8639 1.84742 3.78746 0
M  V30 491 H 42.5879 0.766241 3.17484 0
M  V30 492 H 41.2469 2.75859 2.41448 0
M  V30 493 H 40.8949 1.7993 4.69717 0
M  V30 494 H 40.5949 3.55523 4.67843 0
M  V30 495 H 42.1189 2.92104 5.36197 0
M  V30 496 H 43.5329 4.41798 3.65359 0
M  V30 497 H 41.9299 5.07166 3.20785 0
M  V30 498 H 42.9999 4.44329 1.94165 0
M  V30 499 N 44.343 -0.763751 1.37857 0
M  V30 500 C 45.759 -1.06542 1.18832 0
M  V30 501 C 45.959 -2.01478 0.0299722 0
M  V30 502 O 45.015 -2.4458 -0.627447 0
M  V30 503 C 46.328 -1.65525 2.51042 0
M  V30 504 C 47.876 -1.77745 2.57635 0
M  V30 505 C 48.351 -2.4014 3.89996 0
M  V30 506 N 49.842 -2.47582 3.91481 0
M  V30 507 C 50.577 -2.96732 4.9065 0
M  V30 508 N 50.073 -3.45993 6.00217 0
M  V30 509 N 51.866 -2.95679 4.78048 0
M  V30 510 H 44.017 -0.133556 2.1198 0
M  V30 511 H 46.28 -0.121879 0.940133 0
M  V30 512 H 45.986 -1.03236 3.36207 0
M  V30 513 H 45.86 -2.64719 2.68707 0
M  V30 514 H 48.247 -2.39164 1.72872 0
M  V30 515 H 48.328 -0.772836 2.43846 0
M  V30 516 H 47.972 -1.79358 4.75177 0
M  V30 517 H 47.902 -3.41223 4.01092 0
M  V30 518 H 50.393 -2.1273 3.12337 0
M  V30 519 H 50.706 -3.81922 6.7183 0
M  V30 520 H 49.051 -3.44077 6.03851 0
M  V30 521 H 52.242 -2.56499 3.91568 0
M  V30 522 H 52.415 -3.33672 5.55488 0
M  V30 523 N 45.8211 -1.22559 -0.990812 0
M  V30 524 C 47.0701 -1.04553 -1.72486 0
M  V30 525 C 47.3831 0.419349 -1.91052 0
M  V30 526 O 48.5891 0.719121 -2.61803 0
M  V30 527 C 47.0451 -1.82231 -3.10355 0
M  V30 528 C 46.6531 -3.32981 -2.99713 0
M  V30 529 C 48.3971 -1.7268 -3.87791 0
M  V30 530 C 46.3041 -4.03091 -4.32748 0
M  V30 531 H 45.2341 -0.387614 -0.646739 0
M  V30 532 H 47.8851 -1.46429 -1.10593 0
M  V30 533 H 46.2671 -1.33155 -3.72942 0
M  V30 534 H 47.4411 -3.89466 -2.46278 0
M  V30 535 H 45.7561 -3.43231 -2.35758 0
M  V30 536 H 48.3531 -2.22381 -4.86262 0
M  V30 537 H 48.6961 -0.687607 -4.10582 0
M  V30 538 H 49.2291 -2.1931 -3.31885 0
M  V30 539 H 45.9681 -5.07273 -4.15156 0
M  V30 540 H 45.4881 -3.51394 -4.86089 0
M  V30 541 H 47.1671 -4.08804 -5.01486 0
M  V30 542 N 47.2992 1.18797 -1.03562 0
M  V30 543 C 48.5452 1.8893 -0.737113 0
M  V30 544 C 48.8782 1.79837 0.732956 0
M  V30 545 O 48.1532 1.19525 1.5344 0
M  V30 546 C 48.4362 3.39607 -1.19745 0
M  V30 547 C 48.2892 3.57537 -2.72924 0
M  V30 548 C 49.6082 4.33069 -0.783526 0
M  V30 549 H 46.7272 0.686057 -0.269249 0
M  V30 550 H 49.3692 1.39797 -1.28673 0
M  V30 551 H 47.5192 3.81583 -0.729855 0
M  V30 552 H 49.1912 3.24688 -3.27682 0
M  V30 553 H 47.4342 3.00363 -3.12993 0
M  V30 554 H 48.1052 4.63238 -3.00191 0
M  V30 555 H 50.5812 3.98846 -1.18581 0
M  V30 556 H 49.4572 5.3707 -1.13343 0
M  V30 557 H 49.7182 4.40986 0.313681 0
M  V30 558 N 48.7773 0.814389 1.34928 0
M  V30 559 C 50.0543 0.321363 1.92942 0
M  V30 560 C 50.4343 -1.19014 1.74353 0
M  V30 561 O 49.7823 -1.99328 1.11716 0
M  V30 562 C 49.9923 0.741323 3.41036 0
M  V30 563 C 51.3403 0.735266 4.18185 0
M  V30 564 O 52.3643 0.68336 3.49584 0
M  V30 565 O 51.2233 0.800703 5.40602 0
M  V30 566 H 48.3173 0.0858893 0.822528 0
M  V30 567 H 50.8633 0.898609 1.43955 0
M  V30 568 H 49.6353 1.78276 3.4833 0
M  V30 569 H 49.2583 0.139307 3.97356 0
M  V30 570 N 50.2554 -1.46986 0.568584 0
M  V30 571 C 51.1854 -2.32946 -0.160753 0
M  V30 572 C 52.1664 -1.44487 -0.897631 0
M  V30 573 O 53.3514 -1.73327 -0.875867 0
M  V30 574 C 50.4814 -3.26494 -1.18403 0
M  V30 575 C 49.4354 -4.24282 -0.562895 0
M  V30 576 C 48.7614 -5.07236 -1.69163 0
M  V30 577 C 50.0614 -5.19989 0.490761 0
M  V30 578 H 51.7554 -2.94175 0.556916 0
M  V30 579 H 49.3014 -1.4146 0.26927 0
M  V30 580 H 51.2544 -3.85477 -1.70251 0
M  V30 581 H 49.9784 -2.63343 -1.93179 0
M  V30 582 H 48.6374 -3.66541 -0.0656164 0
M  V30 583 H 48.2854 -4.4048 -2.42871 0
M  V30 584 H 47.9854 -5.7345 -1.28174 0
M  V30 585 H 49.5094 -5.6908 -2.21314 0
M  V30 586 H 50.9234 -5.73271 0.0579047 0
M  V30 587 H 49.3204 -5.94469 0.820165 0
M  V30 588 H 50.3904 -4.64777 1.3824 0
M  V30 589 N 51.7335 -0.305618 -1.54608 0
M  V30 590 C 52.9825 0.303098 -1.9941 0
M  V30 591 C 53.2955 1.54648 -1.19764 0
M  V30 592 O 54.5015 2.23007 -1.54855 0
M  V30 593 C 52.9575 0.590588 -3.55021 0
M  V30 594 C 52.5655 -0.634719 -4.43481 0
M  V30 595 C 54.3095 1.16025 -4.08336 0
M  V30 596 C 52.2165 -0.320126 -5.90533 0
M  V30 597 H 51.1465 0.117031 -0.744862 0
M  V30 598 H 53.7975 -0.415045 -1.78745 0
M  V30 599 H 52.1795 1.36845 -3.71604 0
M  V30 600 H 53.3535 -1.41079 -4.38672 0
M  V30 601 H 51.6685 -1.12333 -4.00962 0
M  V30 602 H 54.2655 1.40994 -5.15776 0
M  V30 603 H 54.6085 2.10397 -3.5922 0
M  V30 604 H 55.1415 0.443985 -3.95315 0
M  V30 605 H 51.8805 -1.23254 -6.43808 0
M  V30 606 H 51.4005 0.418579 -5.98338 0
M  V30 607 H 53.0795 0.0766241 -6.46955 0
M  V30 608 N 53.2116 1.57565 -0.0334293 0
M  V30 609 C 54.1586 2.10478 0.946981 0
M  V30 610 C 55.1286 1.00787 1.32027 0
M  V30 611 O 56.3136 1.28232 1.41284 0
M  V30 612 C 53.4536 2.63994 2.22263 0
M  V30 613 C 52.5666 3.87709 1.90541 0
M  V30 614 C 51.7016 4.29604 3.12433 0
M  V30 615 C 50.7406 5.46065 2.76549 0
M  V30 616 N 49.8776 5.83096 3.9108 0
M  V30 617 H 54.7176 2.93963 0.488846 0
M  V30 618 H 52.2546 1.45296 0.22969 0
M  V30 619 H 54.2126 2.93114 2.96884 0
M  V30 620 H 52.8426 1.83333 2.65685 0
M  V30 621 H 51.8946 3.65291 1.06144 0
M  V30 622 H 53.2066 4.72403 1.60116 0
M  V30 623 H 52.3606 4.60182 3.9537 0
M  V30 624 H 51.0996 3.43685 3.46023 0
M  V30 625 H 50.1046 5.15176 1.92026 0
M  V30 626 H 51.3296 6.33685 2.44171 0
M  V30 627 H 49.2756 5.00132 4.24504 0
M  V30 628 H 49.1926 6.6244 3.64293 0
M  V30 629 H 50.4606 6.18282 4.74708 0
M  V30 630 N 54.6897 -0.239769 1.55765 0
M  V30 631 C 55.9377 -0.964892 1.77579 0
M  V30 632 C 56.2587 -1.85582 0.598699 0
M  V30 633 O 55.5287 -1.92075 -0.385226 0
M  V30 634 H 54.1087 -0.359265 0.654933 0
M  V30 635 H 56.7707 -0.256001 1.93211 0
M  V30 636 H 55.8667 -1.58243 2.69009 0
M  V30 637 N 56.1678 -1.49265 -0.50573 0
M  V30 638 C 57.0998 -1.617 -1.62437 0
M  V30 639 C 58.1128 -0.499924 -1.54934 0
M  V30 640 O 59.3018 -0.771785 -1.60953 0
M  V30 641 C 56.4018 -1.5533 -3.01207 0
M  V30 642 C 55.5748 -2.8249 -3.33943 0
M  V30 643 C 54.6338 -2.69238 -4.52103 0
M  V30 644 O 53.6598 -3.43167 -4.5412 0
M  V30 645 N 54.8618 -1.80468 -5.51735 0
M  V30 646 H 57.6268 -2.58177 -1.52199 0
M  V30 647 H 55.1878 -1.46294 -0.693511 0
M  V30 648 H 57.1798 -1.44125 -3.78167 0
M  V30 649 H 55.7498 -0.667297 -3.05395 0
M  V30 650 H 54.9698 -3.08081 -2.45926 0
M  V30 651 H 56.2578 -3.66802 -3.5261 0
M  V30 652 H 55.6558 -1.19653 -5.52901 0
M  V30 653 H 54.2128 -1.75188 -6.27816 0
M  V30 654 N 57.6459 0.756429 -1.3826 0
M  V30 655 C 58.5959 1.86069 -1.31766 0
M  V30 656 C 59.5799 1.59621 -0.202483 0
M  V30 657 O 60.7719 1.7149 -0.438211 0
M  V30 658 C 57.9009 3.23742 -1.1422 0
M  V30 659 C 56.9869 3.56091 -2.30348 0
M  V30 660 N 57.3779 3.59517 -3.55783 0
M  V30 661 C 55.6759 3.86341 -2.22838 0
M  V30 662 C 56.3769 3.89052 -4.32451 0
M  V30 663 N 55.3529 4.05736 -3.61772 0
M  V30 664 H 59.1549 1.86992 -2.26741 0
M  V30 665 H 56.6689 0.953643 -1.31451 0
M  V30 666 H 58.6659 4.02761 -1.07652 0
M  V30 667 H 57.3259 3.24073 -0.201763 0
M  V30 668 H 58.3369 3.41347 -3.89491 0
M  V30 669 H 55.0139 3.94404 -1.36937 0
M  V30 670 H 56.4039 3.98349 -5.4108 0
M  V30 671 N 59.124 1.23083 0.984299 0
M  V30 672 C 60.054 1.03292 2.09411 0
M  V30 673 C 61.035 -0.048923 1.7003 0
M  V30 674 O 62.22 0.114967 1.93859 0
M  V30 675 C 59.35 0.619155 3.41736 0
M  V30 676 C 58.304 1.64791 3.95004 0
M  V30 677 C 57.63 1.0897 5.23478 0
M  V30 678 C 58.93 3.03999 4.24714 0
M  V30 679 H 60.624 1.96119 2.26225 0
M  V30 680 H 58.17 0.944344 1.08711 0
M  V30 681 H 60.123 0.467777 4.18796 0
M  V30 682 H 58.847 -0.344786 3.24775 0
M  V30 683 H 57.506 1.78721 3.20085 0
M  V30 684 H 57.154 0.11686 5.02864 0
M  V30 685 H 56.854 1.77704 5.60085 0
M  V30 686 H 58.378 0.950093 6.03163 0
M  V30 687 H 59.792 2.93393 4.92538 0
M  V30 688 H 58.189 3.69936 4.72512 0
M  V30 689 H 59.259 3.53285 3.32142 0
M  V30 690 N 60.6021 -1.18246 1.0419 0
M  V30 691 C 61.8271 -1.92736 0.765996 0
M  V30 692 C 62.2521 -1.75728 -0.67091 0
M  V30 693 O 61.6101 -1.06825 -1.46486 0
M  V30 694 C 61.6581 -3.42148 1.13875 0
M  V30 695 O 60.7621 -4.11548 0.264954 0
M  V30 696 H 60.1031 -0.601238 0.281797 0
M  V30 697 H 62.6331 -1.49942 1.39207 0
M  V30 698 H 62.6431 -3.92858 1.1012 0
M  V30 699 H 61.3181 -3.53848 2.18551 0
M  V30 700 H 59.8951 -3.71137 0.362226 0
M  V30 701 N 62.0802 -0.821533 -1.34494 0
M  V30 702 C 63.3572 -0.33159 -1.92769 0
M  V30 703 C 63.7372 1.18088 -1.74981 0
M  V30 704 O 63.0852 1.98733 -1.12772 0
M  V30 705 C 63.2952 -0.759398 -3.40638 0
M  V30 706 C 64.6432 -0.757433 -4.1779 0
M  V30 707 O 65.6672 -0.70189 -3.49216 0
M  V30 708 O 64.5262 -0.829361 -5.4017 0
M  V30 709 H 61.6202 -0.0902502 -0.822061 0
M  V30 710 H 64.1662 -0.906231 -1.43477 0
M  V30 711 H 62.9382 -1.8012 -3.47379 0
M  V30 712 H 62.5612 -0.160378 -3.97276 0
M  V30 713 N 63.5583 1.46682 -0.576371 0
M  V30 714 C 64.5213 2.28707 0.150239 0
M  V30 715 C 65.5213 1.38035 0.824794 0
M  V30 716 O 66.7113 1.60476 0.677719 0
M  V30 717 C 63.8433 3.18248 1.22192 0
M  V30 718 H 65.0363 2.94423 -0.570521 0
M  V30 719 H 62.5893 1.52688 -0.334078 0
M  V30 720 H 63.3243 2.57265 1.97447 0
M  V30 721 H 63.1093 3.85 0.742812 0
M  V30 722 H 64.5993 3.80001 1.73172 0
M  V30 723 N 65.0364 0.313813 1.54444 0
M  V30 724 C 66.2834 -0.291675 2.00388 0
M  V30 725 C 66.6114 -1.52904 1.2021 0
M  V30 726 O 65.8664 -1.93833 0.269707 0
M  V30 727 C 66.1654 -0.680386 3.50864 0
M  V30 728 C 65.8314 0.456699 4.48581 0
M  V30 729 C 64.4934 0.768824 4.75018 0
M  V30 730 C 66.8454 1.22098 5.06697 0
M  V30 731 C 64.1734 1.84812 5.56831 0
M  V30 732 C 66.5254 2.29029 5.89685 0
M  V30 733 C 65.1894 2.60834 6.14428 0
M  V30 734 H 64.4594 -0.106732 0.733273 0
M  V30 735 H 67.1064 0.43557 1.86481 0
M  V30 736 H 65.4114 -1.48791 3.62448 0
M  V30 737 H 67.1084 -1.16026 3.83847 0
M  V30 738 H 63.6984 0.203337 4.28117 0
M  V30 739 H 67.8824 0.993096 4.86263 0
M  V30 740 H 63.1384 2.09912 5.74236 0
M  V30 741 H 67.3124 2.887 6.33739 0
M  V30 742 H 64.9394 3.44596 6.77612 0
M  V30 743 N 66.5145 -1.57545 0.0417849 0
M  V30 744 C 67.4775 -2.09885 -0.92093 0
M  V30 745 C 68.4775 -1.01648 -1.24596 0
M  V30 746 O 69.6675 -1.27759 -1.1842 0
M  V30 747 C 66.7995 -2.57527 -2.23367 0
M  V30 748 H 67.9925 -2.96236 -0.467382 0
M  V30 749 H 65.5455 -1.5493 -0.206467 0
M  V30 750 H 66.2805 -1.74542 -2.73323 0
M  V30 751 H 66.0655 -3.36613 -2.01083 0
M  V30 752 H 67.5555 -2.98201 -2.92346 0
M  V30 753 N 67.9926 0.231505 -1.5589 0
M  V30 754 C 68.9246 1.31006 -1.8807 0
M  V30 755 C 69.9376 1.43539 -0.768145 0
M  V30 756 O 71.1266 1.44614 -1.04638 0
M  V30 757 C 68.2266 2.68688 -2.06543 0
M  V30 758 C 67.3996 2.78228 -3.37502 0
M  V30 759 C 66.4586 3.96857 -3.4553 0
M  V30 760 O 65.4846 3.85662 -4.18633 0
M  V30 761 N 66.6866 5.1072 -2.75944 0
M  V30 762 H 69.4516 1.03731 -2.81176 0
M  V30 763 H 67.0126 0.421573 -1.56315 0
M  V30 764 H 69.0046 3.46412 -2.09239 0
M  V30 765 H 67.5746 2.88605 -1.20109 0
M  V30 766 H 66.7946 1.87059 -3.46991 0
M  V30 767 H 68.0826 2.81564 -4.23791 0
M  V30 768 H 67.4806 5.2271 -2.16311 0
M  V30 769 H 66.0376 5.86523 -2.84314 0
M  V30 770 N 69.4707 1.49531 0.497807 0
M  V30 771 C 70.7167 1.59415 1.25358 0
M  V30 772 C 71.0497 0.281422 1.9215 0
M  V30 773 O 70.3247 -0.715249 1.80871 0
M  V30 774 C 70.6077 2.75566 2.3181 0
M  V30 775 C 70.4607 4.16642 1.69498 0
M  V30 776 C 71.7797 2.87347 3.33346 0
M  V30 777 H 68.8987 0.580244 0.454408 0
M  V30 778 H 71.5407 1.81827 0.551262 0
M  V30 779 H 69.6907 2.56587 2.91711 0
M  V30 780 H 71.3627 4.47145 1.13399 0
M  V30 781 H 69.6057 4.22141 0.998978 0
M  V30 782 H 70.2767 4.93792 2.46725 0
M  V30 783 H 72.7527 3.04634 2.83438 0
M  V30 784 H 71.6287 3.70289 4.05188 0
M  V30 785 H 71.8897 1.96834 3.95865 0
M  V30 786 N 70.9488 -0.749086 1.3866 0
M  V30 787 C 71.8968 -1.88428 1.36373 0
M  V30 788 C 72.8908 -1.67561 0.248929 0
M  V30 789 O 74.0968 -1.75074 0.41821 0
M  V30 790 H 70.4718 -0.620023 0.42553 0
M  V30 791 H 72.4428 -1.87473 2.32156 0
M  V30 792 C 71.1918 -3.25961 1.21014 0
M  V30 793 H 70.5148 -3.42607 2.06059 0
M  V30 794 H 71.9548 -4.05625 1.23469 0
M  V30 795 C 70.4138 -3.36799 -0.0825941 0
M  V30 796 O 70.9438 -3.87517 -1.05797 0
M  V30 797 N 69.1498 -2.90258 -0.140939 0
M  V30 798 H 68.6968 -2.49174 0.653477 0
M  V30 799 H 68.6548 -2.97889 -1.00545 0
M  V30 800 N 72.4269 -1.23603 -0.977757 0
M  V30 801 C 73.8379 -1.06424 -1.53398 0
M  V30 802 C 74.1889 0.367578 -1.92726 0
M  V30 803 O 73.3139 1.25465 -1.76316 0
M  V30 804 C 73.9089 -1.92568 -2.78753 0
M  V30 805 C 72.4679 -1.79642 -3.30765 0
M  V30 806 C 71.6149 -1.88111 -2.03739 0
M  V30 807 H 74.5659 -1.37227 -0.797152 0
M  V30 808 H 74.5869 -1.45203 -3.51705 0
M  V30 809 H 74.0989 -2.96771 -2.50098 0
M  V30 810 H 72.1999 -0.782325 -3.64294 0
M  V30 811 H 72.3129 -2.63174 -4.00345 0
M  V30 812 H 70.6769 -1.31723 -2.17994 0
M  V30 813 H 71.4599 -2.93875 -1.77461 0
M  V30 814 N 73.905 1.17692 -1.04816 0
M  V30 815 C 74.835 2.23777 -0.666791 0
M  V30 816 C 75.816 1.66796 0.33361 0
M  V30 817 O 77.001 1.93039 0.212042 0
M  V30 818 C 74.131 3.47281 -0.0367933 0
M  V30 819 C 73.085 4.17059 -0.961546 0
M  V30 820 C 72.411 5.34342 -0.195626 0
M  V30 821 C 73.711 4.69713 -2.28402 0
M  V30 822 H 75.405 2.55933 -1.55367 0
M  V30 823 H 72.951 1.23019 -0.748484 0
M  V30 824 H 74.904 4.20706 0.241775 0
M  V30 825 H 73.628 3.14381 0.885004 0
M  V30 826 H 72.287 3.45541 -1.22462 0
M  V30 827 H 71.935 4.97692 0.728816 0
M  V30 828 H 71.635 5.81966 -0.811775 0
M  V30 829 H 73.159 6.10553 0.0757473 0
M  V30 830 H 74.573 5.34794 -2.06563 0
M  V30 831 H 72.97 5.279 -2.8538 0
M  V30 832 H 74.04 3.86726 -2.92525 0
M  V30 833 N 75.3831 0.828654 1.34056 0
M  V30 834 C 76.3301 0.252567 2.29414 0
M  V30 835 C 77.3001 -0.62588 1.53857 0
M  V30 836 O 78.4851 -0.566312 1.82202 0
M  V30 837 C 75.6251 -0.574831 3.40279 0
M  V30 838 C 74.7381 0.326499 4.30764 0
M  V30 839 C 73.8731 -0.511016 5.28736 0
M  V30 840 C 72.9121 0.389342 6.1086 0
M  V30 841 N 72.0491 -0.409439 7.00905 0
M  V30 842 H 76.8891 1.07108 2.78086 0
M  V30 843 H 74.4261 0.539677 1.36843 0
M  V30 844 H 76.3841 -1.06992 4.03248 0
M  V30 845 H 75.0141 -1.35841 2.92826 0
M  V30 846 H 74.0661 0.939837 3.68607 0
M  V30 847 H 75.3781 1.01857 4.88289 0
M  V30 848 H 74.5321 -1.07035 5.97184 0
M  V30 849 H 73.2711 -1.23657 4.71763 0
M  V30 850 H 72.2761 0.960769 5.4134 0
M  V30 851 H 73.5011 1.1131 6.69916 0
M  V30 852 H 71.4471 -1.11856 6.46393 0
M  V30 853 H 71.3641 0.224126 7.55668 0
M  V30 854 H 72.6321 -0.951336 7.73673 0
M  V30 855 N 76.8612 -1.46375 0.584142 0
M  V30 856 C 77.8082 -2.30323 -0.148286 0
M  V30 857 C 78.7782 -1.40703 -0.882713 0
M  V30 858 O 79.9632 -1.69651 -0.873099 0
M  V30 859 C 77.1032 -3.25196 -1.15507 0
M  V30 860 C 76.2162 -4.29915 -0.423943 0
M  V30 861 C 75.3512 -5.11914 -1.41838 0
M  V30 862 C 74.3902 -6.08381 -0.673736 0
M  V30 863 N 73.5272 -6.83242 -1.6163 0
M  V30 864 H 78.3672 -2.92427 0.573644 0
M  V30 865 H 75.9042 -1.44118 0.294703 0
M  V30 866 H 77.8622 -3.78646 -1.75166 0
M  V30 867 H 76.4922 -2.64898 -1.8447 0
M  V30 868 H 75.5442 -3.7931 0.287714 0
M  V30 869 H 76.8562 -4.98549 0.158128 0
M  V30 870 H 76.0102 -5.69648 -2.08773 0
M  V30 871 H 74.7492 -4.43243 -2.03438 0
M  V30 872 H 73.7542 -5.49799 0.00938483 0
M  V30 873 H 74.9792 -6.79071 -0.0631082 0
M  V30 874 H 72.9252 -6.1728 -2.22038 0
M  V30 875 H 72.8422 -7.48144 -1.08707 0
M  V30 876 H 74.1102 -7.45534 -2.27596 0
M  V30 877 N 78.3393 -0.321999 -1.54275 0
M  V30 878 C 79.5853 0.281461 -2.00837 0
M  V30 879 C 79.9183 1.51909 -1.20985 0
M  V30 880 O 79.1933 1.923 -0.291733 0
M  V30 881 C 79.4763 0.617162 -3.54772 0
M  V30 882 C 79.3293 -0.631064 -4.45351 0
M  V30 883 C 80.6483 1.43542 -4.16033 0
M  V30 884 H 77.7673 0.100826 -0.730071 0
M  V30 885 H 80.4093 -0.438268 -1.84876 0
M  V30 886 H 78.5593 1.23034 -3.68504 0
M  V30 887 H 80.2313 -1.26934 -4.43492 0
M  V30 888 H 78.4743 -1.26025 -4.15091 0
M  V30 889 H 79.1453 -0.351735 -5.50878 0
M  V30 890 H 81.6213 0.917134 -4.05867 0
M  V30 891 H 80.4973 1.63907 -5.23856 0
M  V30 892 H 80.7583 2.43108 -3.69257 0
M  V30 893 N 79.8174 1.5752 -0.0501392 0
M  V30 894 C 81.2284 1.80271 0.485705 0
M  V30 895 C 81.5794 0.96228 1.70981 0
M  V30 896 O 80.7044 0.178578 2.15662 0
M  V30 897 C 81.2994 3.26957 0.887938 0
M  V30 898 C 79.8584 3.5063 1.36877 0
M  V30 899 C 79.0054 2.75165 0.343468 0
M  V30 900 H 81.9564 1.56281 -0.276028 0
M  V30 901 H 81.9774 3.37821 1.75093 0
M  V30 902 H 81.4894 3.881 -0.0031809 0
M  V30 903 H 79.5904 2.94766 2.27911 0
M  V30 904 H 79.7034 4.59343 1.36164 0
M  V30 905 H 78.0674 2.4127 0.816128 0
M  V30 906 H 78.8504 3.39034 -0.539548 0
M  V30 907 N 81.2955 -0.223234 1.56011 0
M  V30 908 C 82.2585 -1.26014 1.9145 0
M  V30 909 C 83.2585 -1.3989 0.792937 0
M  V30 910 O 84.4485 -1.38184 1.0607 0
M  V30 911 C 81.5805 -2.63422 2.16383 0
M  V30 912 H 82.7735 -0.95796 2.84189 0
M  V30 913 H 80.3265 -0.463576 1.49267 0
M  V30 914 H 81.0615 -2.98741 1.2619 0
M  V30 915 H 80.8465 -2.54728 2.98088 0
M  V30 916 H 82.3365 -3.38249 2.44903 0
M  V30 917 N 82.7736 -1.49793 -0.48987 0
M  V30 918 C 83.7036 -1.70201 -1.59856 0
M  V30 919 C 84.6846 -0.55076 -1.60937 0
M  V30 920 O 85.8696 -0.787841 -1.77501 0
M  V30 921 C 82.9996 -1.77882 -2.98287 0
M  V30 922 C 81.9536 -2.92907 -3.12073 0
M  V30 923 C 81.2796 -2.85712 -4.51965 0
M  V30 924 C 82.5796 -4.3369 -2.91051 0
M  V30 925 H 84.2736 -2.63025 -1.43032 0
M  V30 926 H 81.8196 -1.26574 -0.686664 0
M  V30 927 H 83.7726 -1.90744 -3.75759 0
M  V30 928 H 82.4966 -0.816653 -3.16225 0
M  V30 929 H 81.1556 -2.79665 -2.37029 0
M  V30 930 H 80.8036 -1.8738 -4.66795 0
M  V30 931 H 80.5036 -3.62921 -4.62128 0
M  V30 932 H 82.0276 -3.00598 -5.31482 0
M  V30 933 H 83.4416 -4.47555 -3.58284 0
M  V30 934 H 81.8386 -5.12205 -3.12675 0
M  V30 935 H 82.9086 -4.47362 -1.87071 0
M  V30 936 N 84.2517 0.741722 -1.39055 0
M  V30 937 C 85.1987 1.85566 -1.37237 0
M  V30 938 C 86.1687 1.64457 -0.233072 0
M  V30 939 O 87.3537 1.85957 -0.427147 0
M  V30 940 C 84.4937 3.23004 -1.215 0
M  V30 941 C 83.6067 3.55864 -2.44918 0
M  V30 942 C 82.7417 4.82669 -2.21821 0
M  V30 943 C 81.7807 5.08351 -3.40948 0
M  V30 944 N 80.9177 6.26356 -3.17211 0
M  V30 945 H 85.7577 1.86455 -2.32462 0
M  V30 946 H 83.2947 0.911176 -1.15482 0
M  V30 947 H 85.2527 4.02331 -1.10389 0
M  V30 948 H 83.8827 3.21411 -0.29908 0
M  V30 949 H 82.9347 2.7129 -2.66657 0
M  V30 950 H 84.2467 3.70765 -3.33668 0
M  V30 951 H 83.4007 5.69962 -2.07914 0
M  V30 952 H 82.1397 4.69929 -1.30454 0
M  V30 953 H 81.1447 4.19522 -3.55361 0
M  V30 954 H 82.3697 5.22981 -4.33207 0
M  V30 955 H 80.3157 6.14917 -2.28502 0
M  V30 956 H 80.2327 6.41813 -3.99515 0
M  V30 957 H 81.5007 7.16506 -3.06984 0
M  V30 958 N 85.7298 1.2412 0.971189 0
M  V30 959 C 87.0068 0.986867 1.6888 0
M  V30 960 C 87.3868 -0.491857 2.0529 0
M  V30 961 O 86.7348 -1.46531 1.75331 0
M  V30 962 C 86.9448 1.9063 2.92338 0
M  V30 963 C 88.2928 2.17515 3.64654 0
M  V30 964 O 89.3168 1.88254 3.02388 0
M  V30 965 O 88.1758 2.6719 4.7673 0
M  V30 966 H 85.2698 0.372944 0.738134 0
M  V30 967 H 87.8158 1.35203 1.02559 0
M  V30 968 H 86.5878 2.90552 2.62097 0
M  V30 969 H 86.2108 1.54408 3.66393 0
M  V30 970 N 87.2079 -1.17134 1.05439 0
M  V30 971 C 88.4559 -1.87085 0.764429 0
M  V30 972 C 88.7769 -1.81584 -0.710787 0
M  V30 973 O 88.0469 -1.24349 -1.51374 0
M  V30 974 H 86.6269 -0.692627 0.279779 0
M  V30 975 H 89.2889 -1.42087 1.33406 0
M  V30 976 H 88.3849 -2.92759 1.0816 0
M  V30 977 N 88.686 -0.835752 -1.33615 0
M  V30 978 C 89.963 -0.352017 -1.92406 0
M  V30 979 C 90.343 1.16225 -1.76224 0
M  V30 980 O 89.691 1.97526 -1.14873 0
M  V30 981 C 89.901 -0.795485 -3.39813 0
M  V30 982 C 91.249 -0.801703 -4.16963 0
M  V30 983 O 92.273 -0.738889 -3.48452 0
M  V30 984 O 91.132 -0.886607 -5.3926 0
M  V30 985 H 88.226 -0.0989641 -0.821057 0
M  V30 986 H 90.772 -0.921397 -1.42507 0
M  V30 987 H 89.544 -1.83795 -3.45449 0
M  V30 988 H 89.167 -0.202505 -3.97084 0
M  V30 989 N 90.1641 1.46063 -0.591896 0
M  V30 990 C 91.4111 2.02338 -0.0809991 0
M  V30 991 C 91.7391 1.46228 1.28249 0
M  V30 992 O 90.9941 0.620818 1.85592 0
M  V30 993 C 91.2931 3.57391 0.0249813 0
M  V30 994 C 90.9591 4.32583 -1.27211 0
M  V30 995 C 89.6211 4.52844 -1.62745 0
M  V30 996 C 91.9731 4.75687 -2.13005 0
M  V30 997 C 89.3011 5.13462 -2.83855 0
M  V30 998 C 91.6531 5.37644 -3.3335 0
M  V30 999 C 90.3171 5.5613 -3.69155 0
M  V30 1000 H 89.5871 0.740407 -0.0296397 0
M  V30 1001 H 92.2341 1.75321 -0.770374 0
M  V30 1002 H 90.5391 3.83597 0.797537 0
M  V30 1003 H 92.2361 3.98621 0.436184 0
M  V30 1004 H 88.8261 4.17116 -0.985499 0
M  V30 1005 H 93.0101 4.59782 -1.86855 0
M  V30 1006 H 88.2661 5.25965 -3.11722 0
M  V30 1007 H 92.4401 5.7 -4.00092 0
M  V30 1008 H 90.0671 6.0287 -4.63089 0
M  V30 1009 N 91.6422 0.330177 1.54103 0
M  V30 1010 C 92.8702 -0.272179 2.05102 0
M  V30 1011 C 93.2852 -1.45267 1.20595 0
M  V30 1012 O 92.6422 -1.8094 0.238144 0
M  V30 1013 C 92.6932 -0.70023 3.54653 0
M  V30 1014 O 92.4142 0.433301 4.35952 0
M  V30 1015 C 93.9152 -1.3647 4.21771 0
M  V30 1016 H 91.1352 -0.0549159 0.668749 0
M  V30 1017 H 93.6792 0.478285 1.98828 0
M  V30 1018 H 91.8342 -1.40066 3.61193 0
M  V30 1019 H 92.2482 0.0947539 5.24414 0
M  V30 1020 H 93.7222 -1.61509 5.27843 0
M  V30 1021 H 94.1992 -2.31409 3.73292 0
M  V30 1022 H 94.8052 -0.706675 4.19388 0
M  V30 1023 N 93.1203 -1.57491 0.0584922 0
M  V30 1024 C 94.0503 -2.14988 -0.911178 0
M  V30 1025 C 95.0313 -1.07343 -1.31952 0
M  V30 1026 O 96.2163 -1.35318 -1.39294 0
M  V30 1027 C 93.3463 -2.70078 -2.18347 0
M  V30 1028 C 92.3003 -3.82771 -1.91495 0
M  V30 1029 C 91.6263 -4.24408 -3.25241 0
M  V30 1030 C 92.9263 -5.07592 -1.23075 0
M  V30 1031 H 94.6203 -2.96263 -0.432246 0
M  V30 1032 H 92.1663 -1.42512 -0.206469 0
M  V30 1033 H 94.1193 -3.08943 -2.86587 0
M  V30 1034 H 92.8433 -1.86005 -2.68458 0
M  V30 1035 H 91.5023 -3.44389 -1.25664 0
M  V30 1036 H 91.1503 -3.37275 -3.73168 0
M  V30 1037 H 90.8503 -5.00366 -3.08071 0
M  V30 1038 H 92.3743 -4.65879 -3.94701 0
M  V30 1039 H 93.7883 -5.43857 -1.81362 0
M  V30 1040 H 92.1853 -5.88741 -1.16207 0
M  V30 1041 H 93.2553 -4.84454 -0.207847 0
M  V30 1042 N 94.5984 0.214957 -1.56127 0
M  V30 1043 C 95.8264 0.955092 -1.83536 0
M  V30 1044 C 96.2414 1.77677 -0.638472 0
M  V30 1045 O 95.5984 1.78219 0.392968 0
M  V30 1046 C 95.6494 1.86734 -3.09536 0
M  V30 1047 O 95.3704 1.07887 -4.24608 0
M  V30 1048 C 96.8714 2.72082 -3.4998 0
M  V30 1049 H 94.0914 0.279611 -0.609966 0
M  V30 1050 H 96.6354 0.228197 -2.03223 0
M  V30 1051 H 94.7904 2.5481 -2.91806 0
M  V30 1052 H 95.2044 1.69872 -4.9623 0
M  V30 1053 H 96.6784 3.31782 -4.41163 0
M  V30 1054 H 97.1554 3.44806 -2.7204 0
M  V30 1055 H 97.7614 2.09409 -3.70173 0
M  V30 1056 N 96.0765 1.50051 0.48192 0
M  V30 1057 C 96.9865 1.7089 1.60728 0
M  V30 1058 C 98.0025 0.591788 1.63627 0
M  V30 1059 O 99.1785 0.868817 1.81696 0
M  V30 1060 C 96.2435 1.78855 2.97005 0
M  V30 1061 C 95.3045 3.02537 3.04581 0
M  V30 1062 C 94.5375 3.10112 4.34357 0
M  V30 1063 O 94.7605 2.24765 5.24249 0
M  V30 1064 O 93.6945 4.02747 4.47301 0
M  V30 1065 H 97.5205 2.66264 1.46072 0
M  V30 1066 H 95.1055 1.34018 0.660264 0
M  V30 1067 H 96.9875 1.86336 3.77964 0
M  V30 1068 H 95.6625 0.866628 3.11883 0
M  V30 1069 H 94.5695 3.00563 2.22739 0
M  V30 1070 H 95.9025 3.94272 2.94636 0
M  V30 1071 N 97.5546 -0.734337 1.39446 0
M  V30 1072 C 98.7796 -1.52866 1.40167 0
M  V30 1073 C 99.2046 -1.881 -0.00171513 0
M  V30 1074 O 98.5626 -1.51957 -0.988879 0
M  V30 1075 C 98.6106 -2.79235 2.28167 0
M  V30 1076 O 97.7146 -3.75185 1.71201 0
M  V30 1077 H 97.0556 -0.461618 0.477289 0
M  V30 1078 H 99.5856 -0.905949 1.8345 0
M  V30 1079 H 99.5956 -3.27963 2.42702 0
M  V30 1080 H 98.2706 -2.52923 3.30156 0
M  V30 1081 H 96.8476 -3.33958 1.65912 0
M  V30 1082 N 99.0327 -1.24633 -0.964593 0
M  V30 1083 C 100.279 -1.08949 -1.71049 0
M  V30 1084 C 100.612 0.370302 -1.90637 0
M  V30 1085 O 99.8867 1.27349 -1.47011 0
M  V30 1086 C 100.17 -1.83329 -3.0994 0
M  V30 1087 C 100.023 -3.37077 -2.97824 0
M  V30 1088 C 101.342 -1.60846 -4.09654 0
M  V30 1089 H 98.4607 -0.397178 -0.620821 0
M  V30 1090 H 101.103 -1.5334 -1.12191 0
M  V30 1091 H 99.2527 -1.45597 -3.60186 0
M  V30 1092 H 100.925 -3.84425 -2.5498 0
M  V30 1093 H 99.1677 -3.65298 -2.33965 0
M  V30 1094 H 99.8387 -3.84324 -3.96231 0
M  V30 1095 H 102.315 -1.93674 -3.68279 0
M  V30 1096 H 101.191 -2.1534 -5.04896 0
M  V30 1097 H 101.452 -0.547434 -4.38698 0
M  V30 1098 N 100.511 1.16574 -1.06058 0
M  V30 1099 C 101.474 2.19085 -0.673392 0
M  V30 1100 C 102.474 1.5835 0.279648 0
M  V30 1101 O 103.664 1.74088 0.0623488 0
M  V30 1102 C 100.796 3.40899 0.00954234 0
M  V30 1103 H 101.989 2.54853 -1.58081 0
M  V30 1104 H 99.5418 1.30808 -0.855516 0
M  V30 1105 H 100.277 3.10684 0.929826 0
M  V30 1106 H 100.062 3.86233 -0.67573 0
M  V30 1107 H 101.552 4.1675 0.266245 0
M  V30 1108 N 101.989 0.842826 1.3317 0
M  V30 1109 C 103.238 0.436738 1.96915 0
M  V30 1110 C 103.551 -1.01025 1.67491 0
M  V30 1111 O 104.757 -1.5212 2.24881 0
M  V30 1112 C 103.213 0.730021 3.52418 0
M  V30 1113 C 102.821 2.19195 3.90714 0
M  V30 1114 C 104.565 0.391076 4.22695 0
M  V30 1115 C 102.472 2.42907 5.39212 0
M  V30 1116 H 101.402 0.15958 0.736919 0
M  V30 1117 H 104.053 1.03196 1.51733 0
M  V30 1118 H 102.435 0.0643755 3.95948 0
M  V30 1119 H 103.609 2.8984 3.58231 0
M  V30 1120 H 101.924 2.49425 3.33431 0
M  V30 1121 H 104.521 0.545817 5.31907 0
M  V30 1122 H 104.864 -0.666294 4.10933 0
M  V30 1123 H 105.397 1.01212 3.84709 0
M  V30 1124 H 102.136 3.47224 5.55982 0
M  V30 1125 H 101.656 1.76827 5.73142 0
M  V30 1126 H 103.335 2.2626 6.06148 0
M  V30 1127 N 103.467 -1.45747 0.599634 0
M  V30 1128 C 104.397 -2.33235 -0.111306 0
M  V30 1129 C 105.378 -1.46359 -0.866781 0
M  V30 1130 O 106.563 -1.75146 -0.838904 0
M  V30 1131 C 103.693 -3.28932 -1.11451 0
M  V30 1132 C 102.647 -4.25381 -0.472772 0
M  V30 1133 C 101.973 -5.1071 -1.58365 0
M  V30 1134 C 103.273 -5.18831 0.600948 0
M  V30 1135 H 104.967 -2.92927 0.61919 0
M  V30 1136 H 102.513 -1.40857 0.299215 0
M  V30 1137 H 104.466 -3.89002 -1.62036 0
M  V30 1138 H 103.19 -2.67381 -1.8755 0
M  V30 1139 H 101.849 -3.66598 0.0121472 0
M  V30 1140 H 101.497 -4.45533 -2.33473 0
M  V30 1141 H 101.197 -5.7604 -1.15982 0
M  V30 1142 H 102.721 -5.73647 -2.09194 0
M  V30 1143 H 104.135 -5.73019 0.179491 0
M  V30 1144 H 102.532 -5.92595 0.946076 0
M  V30 1145 H 103.602 -4.6174 1.48068 0
M  V30 1146 N 104.945 -0.338344 -1.53925 0
M  V30 1147 C 105.875 0.51328 -2.27789 0
M  V30 1148 C 106.856 1.107 -1.29149 0
M  V30 1149 O 108.041 1.12937 -1.57984 0
M  V30 1150 C 105.171 1.66697 -3.04679 0
M  V30 1151 C 104.125 1.20183 -4.1078 0
M  V30 1152 C 103.451 2.44363 -4.75595 0
M  V30 1153 C 104.751 0.30605 -5.21403 0
M  V30 1154 H 106.445 -0.102883 -2.99223 0
M  V30 1155 H 103.991 -0.0509219 -1.4391 0
M  V30 1156 H 105.944 2.26915 -3.55088 0
M  V30 1157 H 104.668 2.30995 -2.30887 0
M  V30 1158 H 103.327 0.622499 -3.61276 0
M  V30 1159 H 102.975 3.07057 -3.98403 0
M  V30 1160 H 102.675 2.13925 -5.47275 0
M  V30 1161 H 104.199 3.05317 -5.28786 0
M  V30 1162 H 105.613 0.814929 -5.67478 0
M  V30 1163 H 104.01 0.0937929 -6.00027 0
M  V30 1164 H 105.08 -0.65921 -4.80398 0
M  V30 1165 N 106.423 1.57458 -0.0668435 0
M  V30 1166 C 107.653 1.97337 0.611677 0
M  V30 1167 C 108.061 0.943744 1.63982 0
M  V30 1168 O 107.404 -0.0785584 1.83532 0
M  V30 1169 C 107.466 3.33511 1.34205 0
M  V30 1170 C 107.13 4.54598 0.467941 0
M  V30 1171 C 108.127 5.19186 -0.272439 0
M  V30 1172 C 105.812 5.0075 0.39427 0
M  V30 1173 C 107.806 6.28274 -1.07476 0
M  V30 1174 C 105.493 6.09711 -0.411729 0
M  V30 1175 C 106.491 6.73335 -1.14492 0
M  V30 1176 O 106.179 7.80199 -1.93763 0
M  V30 1177 H 105.911 0.654042 0.170893 0
M  V30 1178 H 108.465 2.04961 -0.134289 0
M  V30 1179 H 106.695 3.22487 2.13398 0
M  V30 1180 H 108.384 3.58029 1.91233 0
M  V30 1181 H 109.15 4.84477 -0.225086 0
M  V30 1182 H 105.029 4.51009 0.954569 0
M  V30 1183 H 108.573 6.77866 -1.64755 0
M  V30 1184 H 104.47 6.43854 -0.460664 0
M  V30 1185 H 105.238 7.97053 -1.86142 0
M  V30 1186 N 107.901 -0.206675 1.56239 0
M  V30 1187 C 108.831 -1.25909 1.96645 0
M  V30 1188 C 109.812 -1.48097 0.836734 0
M  V30 1189 O 110.997 -1.6003 1.10019 0
M  V30 1190 C 108.127 -2.6058 2.29599 0
M  V30 1191 C 107.081 -2.53024 3.452 0
M  V30 1192 C 106.407 -3.91861 3.63798 0
M  V30 1193 C 107.707 -2.06524 4.79734 0
M  V30 1194 H 109.401 -0.923369 2.84806 0
M  V30 1195 H 106.947 -0.442735 1.37025 0
M  V30 1196 H 108.9 -3.34375 2.56459 0
M  V30 1197 H 107.624 -2.95869 1.38307 0
M  V30 1198 H 106.283 -1.81684 3.18412 0
M  V30 1199 H 105.931 -4.24483 2.69857 0
M  V30 1200 H 105.631 -3.87683 4.4156 0
M  V30 1201 H 107.155 -4.67296 3.93022 0
M  V30 1202 H 108.569 -2.70072 5.05702 0
M  V30 1203 H 106.966 -2.13374 5.60885 0
M  V30 1204 H 108.036 -1.01802 4.74093 0
M  V30 1205 N 109.379 -1.50304 -0.473955 0
M  V30 1206 C 110.607 -1.64902 -1.24959 0
M  V30 1207 C 111.022 -0.331198 -1.85872 0
M  V30 1208 O 110.379 0.68652 -1.69095 0
M  V30 1209 C 110.43 -2.73803 -2.36038 0
M  V30 1210 O 110.151 -4.00477 -1.77624 0
M  V30 1211 C 111.652 -2.99349 -3.26964 0
M  V30 1212 H 108.872 -0.554383 -0.378022 0
M  V30 1213 H 111.416 -1.9651 -0.566054 0
M  V30 1214 H 109.571 -2.44898 -3.00173 0
M  V30 1215 H 109.985 -4.60678 -2.5075 0
M  V30 1216 H 111.459 -3.79217 -4.01121 0
M  V30 1217 H 111.936 -2.10307 -3.85574 0
M  V30 1218 H 112.542 -3.29774 -2.68569 0
M  V30 1219 N 110.857 0.726932 -1.39834 0
M  V30 1220 C 112.273 1.03354 -1.21615 0
M  V30 1221 C 112.473 2.01327 -0.08338 0
M  V30 1222 O 111.529 2.46158 0.56238 0
M  V30 1223 C 112.842 1.58811 -2.55342 0
M  V30 1224 C 114.39 1.70851 -2.62257 0
M  V30 1225 C 114.865 2.29716 -3.96225 0
M  V30 1226 N 116.356 2.37116 -3.97907 0
M  V30 1227 C 117.091 2.83619 -4.98345 0
M  V30 1228 N 116.587 3.29958 -6.09179 0
M  V30 1229 N 118.38 2.82901 -4.8572 0
M  V30 1230 H 110.531 0.0773069 -2.12259 0
M  V30 1231 H 112.794 0.0969102 -0.943034 0
M  V30 1232 H 112.5 0.942855 -3.38826 0
M  V30 1233 H 112.374 2.57502 -2.75632 0
M  V30 1234 H 114.761 2.34497 -1.79152 0
M  V30 1235 H 114.842 0.707913 -2.45809 0
M  V30 1236 H 114.486 1.66696 -4.79765 0
M  V30 1237 H 114.416 3.30469 -4.09997 0
M  V30 1238 H 116.907 2.04374 -3.17868 0
M  V30 1239 H 117.22 3.63976 -6.8172 0
M  V30 1240 H 115.565 3.27946 -6.12761 0
M  V30 1241 H 118.756 2.46027 -3.98231 0
M  V30 1242 H 118.929 3.18827 -5.6414 0
M  V30 1243 N 112.336 1.25143 0.95797 0
M  V30 1244 C 113.283 1.05235 2.05412 0
M  V30 1245 C 114.253 -0.0374561 1.66058 0
M  V30 1246 O 115.438 0.119073 1.90428 0
M  V30 1247 C 112.578 0.673589 3.38462 0
M  V30 1248 C 111.691 1.8379 3.90954 0
M  V30 1249 C 110.826 1.40381 5.12315 0
M  V30 1250 C 109.865 2.53746 5.57027 0
M  V30 1251 N 109.002 2.11136 6.69601 0
M  V30 1252 H 113.842 1.99048 2.21774 0
M  V30 1253 H 111.379 0.991277 1.08683 0
M  V30 1254 H 113.337 0.434964 4.14926 0
M  V30 1255 H 111.967 -0.227554 3.21997 0
M  V30 1256 H 111.019 2.18992 3.11041 0
M  V30 1257 H 112.331 2.68937 4.20089 0
M  V30 1258 H 111.485 1.12464 5.96185 0
M  V30 1259 H 110.224 0.523015 4.84887 0
M  V30 1260 H 109.229 2.82412 4.71724 0
M  V30 1261 H 110.454 3.42398 5.86464 0
M  V30 1262 H 108.4 1.25468 6.4389 0
M  V30 1263 H 108.317 2.89832 6.98236 0
M  V30 1264 H 109.585 1.86385 7.56889 0
M  V30 1265 N 113.814 -1.1601 1.06675 0
M  V30 1266 C 115.044 -1.90251 0.805497 0
M  V30 1267 C 115.452 -1.77891 -0.64431 0
M  V30 1268 O 114.795 -1.12383 -1.45313 0
M  V30 1269 C 114.857 -3.41419 1.12576 0
M  V30 1270 C 114.521 -3.77564 2.57477 0
M  V30 1271 C 115.518 -3.79161 3.55715 0
M  V30 1272 C 113.203 -4.08079 2.92877 0
M  V30 1273 C 115.197 -4.10767 4.8739 0
M  V30 1274 C 112.884 -4.39351 4.24751 0
M  V30 1275 C 113.882 -4.40675 5.21818 0
M  V30 1276 O 113.57 -4.71202 6.51325 0
M  V30 1277 H 113.302 -0.610018 0.291297 0
M  V30 1278 H 115.856 -1.47958 1.4247 0
M  V30 1279 H 114.086 -3.84079 0.449503 0
M  V30 1280 H 115.775 -3.9694 0.84814 0
M  V30 1281 H 116.541 -3.55693 3.29708 0
M  V30 1282 H 112.42 -4.06211 2.17976 0
M  V30 1283 H 115.964 -4.11715 5.63148 0
M  V30 1284 H 111.861 -4.62285 4.50514 0
M  V30 1285 H 112.629 -4.88996 6.56373 0
M  V30 1286 N 115.292 -0.849877 -1.32721 0
M  V30 1287 C 116.239 -0.289033 -2.28983 0
M  V30 1288 C 117.209 0.601324 -1.54833 0
M  V30 1289 O 118.394 0.537253 -1.8308 0
M  V30 1290 C 115.534 0.520623 -3.4115 0
M  V30 1291 C 114.647 -0.394989 -4.3019 0
M  V30 1292 C 113.782 0.426834 -5.29482 0
M  V30 1293 C 112.821 -0.486476 -6.10164 0
M  V30 1294 N 111.958 0.297879 -7.01468 0
M  V30 1295 H 116.798 -1.11519 -2.76347 0
M  V30 1296 H 114.335 -0.56138 -1.35967 0
M  V30 1297 H 116.293 1.00563 -4.04899 0
M  V30 1298 H 114.923 1.31165 -2.9495 0
M  V30 1299 H 113.975 -0.99836 -3.67065 0
M  V30 1300 H 115.287 -1.09612 -4.86607 0
M  V30 1301 H 114.441 0.975205 -5.98811 0
M  V30 1302 H 113.18 1.16136 -4.73671 0
M  V30 1303 H 112.185 -1.04677 -5.39743 0
M  V30 1304 H 113.41 -1.21953 -6.6806 0
M  V30 1305 H 111.356 1.01558 -6.48091 0
M  V30 1306 H 111.273 -0.344318 -7.55216 0
M  V30 1307 H 112.541 0.828131 -7.75089 0
M  V30 1308 N 116.77 1.45427 -0.607355 0
M  V30 1309 C 118.016 2.0254 -0.102607 0
M  V30 1310 C 118.349 1.47478 1.26348 0
M  V30 1311 O 117.624 0.64939 1.83339 0
M  V30 1312 C 117.907 3.60044 -0.0634347 0
M  V30 1313 C 117.76 4.2544 -1.46017 0
M  V30 1314 C 119.079 4.35646 0.624514 0
M  V30 1315 H 116.198 0.73598 -0.0387607 0
M  V30 1316 H 118.84 1.73284 -0.779282 0
M  V30 1317 H 116.99 3.85101 0.512808 0
M  V30 1318 H 118.662 4.11569 -2.08347 0
M  V30 1319 H 116.905 3.83849 -2.02094 0
M  V30 1320 H 117.576 5.34342 -1.385 0
M  V30 1321 H 120.052 4.15882 0.134723 0
M  V30 1322 H 118.928 5.45376 0.621028 0
M  V30 1323 H 119.189 4.08501 1.69055 0
M  V30 1324 N 118.248 0.346503 1.53744 0
M  V30 1325 C 119.659 -0.136779 1.86198 0
M  V30 1326 C 120.01 -1.49749 1.26766 0
M  V30 1327 O 119.135 -2.08417 0.582355 0
M  V30 1328 C 119.73 -0.254966 3.37839 0
M  V30 1329 C 118.289 -0.682482 3.70161 0
M  V30 1330 C 117.436 0.181981 2.76702 0
M  V30 1331 H 120.387 0.565994 1.48264 0
M  V30 1332 H 120.408 -1.08195 3.64793 0
M  V30 1333 H 119.92 0.735526 3.81066 0
M  V30 1334 H 118.021 -1.68189 3.3248 0
M  V30 1335 H 118.134 -0.470326 4.76786 0
M  V30 1336 H 116.498 -0.34615 2.52337 0
M  V30 1337 H 117.281 1.16966 3.2276 0
M  V30 1338 N 119.726 -1.57421 0.075193 0
M  V30 1339 C 121.003 -1.85029 -0.634329 0
M  V30 1340 C 121.383 -0.968305 -1.87582 0
M  V30 1341 O 120.731 -0.0354749 -2.28472 0
M  V30 1342 C 120.941 -3.35286 -0.968742 0
M  V30 1343 C 122.289 -4.02875 -1.34077 0
M  V30 1344 O 123.313 -3.40051 -1.06037 0
M  V30 1345 O 122.172 -5.13691 -1.86506 0
M  V30 1346 H 119.266 -0.7645 -0.315387 0
M  V30 1347 H 121.812 -1.69366 0.106382 0
M  V30 1348 H 120.584 -3.91203 -0.0871376 0
M  V30 1349 H 120.207 -3.56223 -1.7661 0
M  V30 1350 N 121.204 0.198386 -1.56346 0
M  V30 1351 C 122.434 0.934215 -1.84271 0
M  V30 1352 C 122.842 1.77496 -0.655125 0
M  V30 1353 O 122.185 1.7961 0.385488 0
M  V30 1354 C 122.247 1.88278 -3.06254 0
M  V30 1355 C 121.911 1.22431 -4.40295 0
M  V30 1356 C 122.908 0.602839 -5.16393 0
M  V30 1357 C 120.593 1.22915 -4.87029 0
M  V30 1358 C 122.587 -0.0050083 -6.374 0
M  V30 1359 C 120.274 0.617465 -6.07973 0
M  V30 1360 C 121.272 0.00146341 -6.83 0
M  V30 1361 O 120.96 -0.600642 -8.01653 0
M  V30 1362 H 120.692 0.278245 -0.616081 0
M  V30 1363 H 123.246 0.211626 -2.04307 0
M  V30 1364 H 121.476 2.64498 -2.82095 0
M  V30 1365 H 123.165 2.48612 -3.20853 0
M  V30 1366 H 123.931 0.591265 -4.81382 0
M  V30 1367 H 119.81 1.69801 -4.28589 0
M  V30 1368 H 123.354 -0.48643 -6.95902 0
M  V30 1369 H 119.251 0.62653 -6.42452 0
M  V30 1370 H 120.019 -0.497225 -8.16988 0
M  V30 1371 N 122.682 1.50554 0.465978 0
M  V30 1372 C 123.928 1.63006 1.21658 0
M  V30 1373 C 124.283 0.328613 1.89573 0
M  V30 1374 O 123.576 -0.673813 1.79361 0
M  V30 1375 C 123.77 2.75152 2.28093 0
M  V30 1376 C 123.599 4.16075 1.7062 0
M  V30 1377 C 122.369 4.82408 1.50368 0
M  V30 1378 C 124.567 5.00145 1.1983 0
M  V30 1379 N 122.549 6.07532 0.881924 0
M  V30 1380 C 123.92 6.16035 0.700083 0
M  V30 1381 C 125.975 4.85882 1.08733 0
M  V30 1382 C 124.678 7.19228 0.101835 0
M  V30 1383 C 126.704 5.89257 0.503016 0
M  V30 1384 C 126.066 7.04398 0.0152005 0
M  V30 1385 H 122.165 0.650596 0.433877 0
M  V30 1386 H 124.749 1.8769 0.517746 0
M  V30 1387 H 122.92 2.52181 2.95397 0
M  V30 1388 H 124.652 2.76935 2.95109 0
M  V30 1389 H 121.407 4.39788 1.75737 0
M  V30 1390 H 121.831 6.7443 0.589312 0
M  V30 1391 H 126.473 3.97144 1.4504 0
M  V30 1392 H 124.191 8.07637 -0.273426 0
M  V30 1393 H 127.777 5.80286 0.419451 0
M  V30 1394 H 126.657 7.83021 -0.429856 0
M  V30 1395 N 124.16 -0.719506 1.40217 0
M  V30 1396 C 125.39 -1.50646 1.41384 0
M  V30 1397 C 125.798 -1.89197 0.0107743 0
M  V30 1398 O 125.141 -1.55709 -0.974708 0
M  V30 1399 C 125.203 -2.81405 2.23722 0
M  V30 1400 C 124.867 -2.65199 3.72181 0
M  V30 1401 C 125.864 -2.32717 4.64907 0
M  V30 1402 C 123.549 -2.81586 4.1595 0
M  V30 1403 C 125.543 -2.16827 5.99387 0
M  V30 1404 C 123.23 -2.65313 5.50502 0
M  V30 1405 C 124.228 -2.32981 6.42035 0
M  V30 1406 O 123.916 -2.16827 7.74107 0
M  V30 1407 H 123.648 -0.471606 0.484318 0
M  V30 1408 H 126.202 -0.895456 1.84853 0
M  V30 1409 H 124.432 -3.44823 1.75026 0
M  V30 1410 H 126.121 -3.43102 2.16878 0
M  V30 1411 H 126.887 -2.19694 4.32388 0
M  V30 1412 H 122.766 -3.0574 3.45027 0
M  V30 1413 H 126.31 -1.91513 6.70797 0
M  V30 1414 H 122.207 -2.7792 5.82607 0
M  V30 1415 H 122.975 -2.31778 7.84998 0
M  V30 1416 N 125.638 -1.25649 -0.95132 0
M  V30 1417 C 127.049 -1.09654 -1.51106 0
M  V30 1418 C 127.4 0.326615 -1.93462 0
M  V30 1419 O 126.525 1.21697 -1.78938 0
M  V30 1420 C 127.12 -1.98437 -2.74605 0
M  V30 1421 C 125.679 -1.86618 -3.2688 0
M  V30 1422 C 124.826 -1.9239 -1.99703 0
M  V30 1423 H 127.777 -1.38887 -0.767865 0
M  V30 1424 H 127.798 -1.5263 -3.48546 0
M  V30 1425 H 127.31 -3.02009 -2.43746 0
M  V30 1426 H 125.411 -0.859421 -3.62553 0
M  V30 1427 H 125.524 -2.71607 -3.94673 0
M  V30 1428 H 123.888 -1.36317 -2.15151 0
M  V30 1429 H 124.671 -2.97573 -1.71188 0
M  V30 1430 N 127.117 1.15442 -1.07289 0
M  V30 1431 C 128.049 2.19773 -0.650585 0
M  V30 1432 C 129.062 1.60076 0.296572 0
M  V30 1433 O 130.251 1.78293 0.0859905 0
M  V30 1434 C 127.351 3.38838 0.0650398 0
M  V30 1435 C 126.524 4.2808 -0.898141 0
M  V30 1436 C 125.583 5.2574 -0.219926 0
M  V30 1437 O 124.609 5.62654 -0.860773 0
M  V30 1438 N 125.811 5.71205 1.03466 0
M  V30 1439 H 128.576 2.56622 -1.54808 0
M  V30 1440 H 126.137 1.30551 -0.957494 0
M  V30 1441 H 128.129 4.01222 0.529415 0
M  V30 1442 H 126.699 3.00409 0.864466 0
M  V30 1443 H 125.919 3.62804 -1.54165 0
M  V30 1444 H 127.207 4.84577 -1.5512 0
M  V30 1445 H 126.605 5.43325 1.57526 0
M  V30 1446 H 125.162 6.35633 1.44272 0
M  V30 1447 N 128.595 0.856903 1.32268 0
M  V30 1448 C 129.872 0.382583 1.91822 0
M  V30 1449 C 130.252 -1.13407 1.78051 0
M  V30 1450 O 129.6 -1.95673 1.18001 0
M  V30 1451 C 129.81 0.849446 3.38505 0
M  V30 1452 C 131.158 0.867936 4.15634 0
M  V30 1453 O 132.182 0.794232 3.47232 0
M  V30 1454 O 131.041 0.972286 5.37781 0
M  V30 1455 H 128.135 0.112014 0.819379 0
M  V30 1456 H 130.681 0.943952 1.41024 0
M  V30 1457 H 129.453 1.89267 3.42482 0
M  V30 1458 H 129.076 0.265652 3.96712 0
M  V30 1459 N 130.073 -1.45103 0.615059 0
M  V30 1460 C 131.003 -2.33339 -0.0865619 0
M  V30 1461 C 131.984 -1.4727 -0.851209 0
M  V30 1462 O 133.169 -1.76026 -0.820281 0
M  V30 1463 C 130.299 -3.30095 -1.07956 0
M  V30 1464 C 129.253 -4.25858 -0.427628 0
M  V30 1465 C 128.579 -5.12361 -1.5294 0
M  V30 1466 C 129.879 -5.18165 0.655944 0
M  V30 1467 H 131.573 -2.92254 0.650224 0
M  V30 1468 H 129.119 -1.40532 0.314138 0
M  V30 1469 H 131.072 -3.90698 -1.57901 0
M  V30 1470 H 129.796 -2.69355 -1.84703 0
M  V30 1471 H 128.455 -3.66564 0.0510292 0
M  V30 1472 H 128.103 -4.47984 -2.28734 0
M  V30 1473 H 127.803 -5.77238 -1.09865 0
M  V30 1474 H 129.327 -5.75833 -2.03098 0
M  V30 1475 H 130.741 -5.72796 0.240257 0
M  V30 1476 H 129.138 -5.91559 1.00888 0
M  V30 1477 H 130.208 -4.60144 1.52957 0
M  V30 1478 N 131.551 -0.354651 -1.53558 0
M  V30 1479 C 132.483 0.5315 -2.22952 0
M  V30 1480 C 133.496 1.05503 -1.23988 0
M  V30 1481 O 134.685 0.963279 -1.50277 0
M  V30 1482 C 131.785 1.74538 -2.90499 0
M  V30 1483 C 130.958 1.35524 -4.15875 0
M  V30 1484 C 130.017 2.42999 -4.66731 0
M  V30 1485 O 129.043 2.05844 -5.30676 0
M  V30 1486 N 130.245 3.74423 -4.43608 0
M  V30 1487 H 133.01 -0.0628615 -2.99634 0
M  V30 1488 H 130.571 -0.179302 -1.60904 0
M  V30 1489 H 132.563 2.45892 -3.21433 0
M  V30 1490 H 131.133 2.24686 -2.17336 0
M  V30 1491 H 130.353 0.471998 -3.91364 0
M  V30 1492 H 131.641 1.07071 -4.97406 0
M  V30 1493 H 131.039 4.07391 -3.92491 0
M  V30 1494 H 129.596 4.41913 -4.7912 0
M  V30 1495 N 133.029 1.57378 -0.0835403 0
M  V30 1496 C 133.992 2.12252 0.864959 0
M  V30 1497 C 134.992 1.04916 1.21858 0
M  V30 1498 O 136.182 1.30853 1.14991 0
M  V30 1499 C 133.314 2.63358 2.16461 0
M  V30 1500 H 134.507 2.97371 0.388676 0
M  V30 1501 H 132.06 1.55423 0.165317 0
M  V30 1502 H 132.795 1.81727 2.686 0
M  V30 1503 H 132.58 3.41826 1.92087 0
M  V30 1504 H 134.07 3.05847 2.84337 0
M  V30 1505 N 134.507 -0.190092 1.56449 0
M  V30 1506 C 135.923 -0.54113 1.50146 0
M  V30 1507 C 136.123 -1.85603 0.784465 0
M  V30 1508 O 135.179 -2.5024 0.337051 0
M  V30 1509 C 136.492 -0.591241 2.9483 0
M  V30 1510 C 138.04 -0.679732 3.0553 0
M  V30 1511 C 138.515 -0.760908 4.51635 0
M  V30 1512 N 140.006 -0.824302 4.55806 0
M  V30 1513 C 140.741 -0.907365 5.66175 0
M  V30 1514 N 140.237 -0.952422 6.86222 0
M  V30 1515 N 142.03 -0.94494 5.541 0
M  V30 1516 H 134.181 0.67235 2.01478 0
M  V30 1517 H 136.444 0.240127 0.917084 0
M  V30 1518 H 136.15 0.305905 3.50367 0
M  V30 1519 H 136.024 -1.44422 3.48457 0
M  V30 1520 H 138.411 -1.56731 2.50039 0
M  V30 1521 H 138.492 0.199549 2.5502 0
M  V30 1522 H 138.136 0.122336 5.07753 0
M  V30 1523 H 138.066 -1.65606 4.99882 0
M  V30 1524 H 140.557 -0.798526 3.69367 0
M  V30 1525 H 140.87 -1.01645 7.66086 0
M  V30 1526 H 139.215 -0.921014 6.8887 0
M  V30 1527 H 142.406 -0.906612 4.59236 0
M  V30 1528 H 142.579 -1.00622 6.4014 0
M  V30 1529 N 135.985 -1.50799 -0.457987 0
M  V30 1530 C 136.948 -1.7005 -1.53674 0
M  V30 1531 C 137.948 -0.570881 -1.50325 0
M  V30 1532 O 139.138 -0.838126 -1.52712 0
M  V30 1533 C 136.27 -1.73788 -2.93276 0
M  V30 1534 H 137.463 -2.66306 -1.37917 0
M  V30 1535 H 135.016 -1.40477 -0.685271 0
M  V30 1536 H 135.751 -0.792717 -3.14462 0
M  V30 1537 H 135.536 -2.55864 -2.97113 0
M  V30 1538 H 137.026 -1.90591 -3.71571 0
M  V30 1539 N 137.463 0.71206 -1.40597 0
M  V30 1540 C 138.879 1.02058 -1.22704 0
M  V30 1541 C 139.079 2.01228 -0.104729 0
M  V30 1542 O 138.135 2.4674 0.53624 0
M  V30 1543 C 139.448 1.56094 -2.57012 0
M  V30 1544 C 140.996 1.6806 -2.64054 0
M  V30 1545 C 141.471 2.25501 -3.9864 0
M  V30 1546 N 142.962 2.32882 -4.004 0
M  V30 1547 C 143.697 2.78317 -5.01325 0
M  V30 1548 N 143.193 3.23478 -6.12645 0
M  V30 1549 N 144.986 2.77733 -4.88693 0
M  V30 1550 H 137.137 0.0547896 -2.12329 0
M  V30 1551 H 139.4 0.0869027 -0.944008 0
M  V30 1552 H 139.106 0.906865 -3.39807 0
M  V30 1553 H 138.98 2.54564 -2.78347 0
M  V30 1554 H 141.367 2.32583 -1.81629 0
M  V30 1555 H 141.448 0.681802 -2.46546 0
M  V30 1556 H 141.092 1.61598 -4.81506 0
M  V30 1557 H 141.022 3.26102 -4.13479 0
M  V30 1558 H 143.513 2.00991 -3.20017 0
M  V30 1559 H 143.826 3.56725 -6.85542 0
M  V30 1560 H 142.171 3.21429 -6.16205 0
M  V30 1561 H 145.362 2.4179 -4.00818 0
M  V30 1562 H 145.535 3.12826 -5.67489 0
M  V30 1563 N 138.941 1.26152 0.944643 0
M  V30 1564 C 140.187 1.11657 1.69294 0
M  V30 1565 C 140.52 -0.339926 1.91202 0
M  V30 1566 O 139.795 -1.24994 1.49019 0
M  V30 1567 C 140.078 1.88236 3.06984 0
M  V30 1568 C 139.931 3.41772 2.92424 0
M  V30 1569 C 141.25 1.67343 4.07043 0
M  V30 1570 H 138.369 0.407004 0.614424 0
M  V30 1571 H 141.011 1.55106 1.09737 0
M  V30 1572 H 139.161 1.51308 3.57824 0
M  V30 1573 H 140.833 3.88433 2.48832 0
M  V30 1574 H 139.076 3.68974 2.28124 0
M  V30 1575 H 139.747 3.90579 3.90067 0
M  V30 1576 H 142.223 1.99509 3.65151 0
M  V30 1577 H 141.099 2.23346 5.01406 0
M  V30 1578 H 141.36 0.617158 4.37771 0
M  V30 1579 N 140.419 -1.14872 1.07899 0
M  V30 1580 C 141.696 -1.81928 0.71845 0
M  V30 1581 C 142.076 -1.95417 -0.798455 0
M  V30 1582 O 141.424 -1.50997 -1.715 0
M  V30 1583 C 141.634 -3.17937 1.43935 0
M  V30 1584 C 142.982 -3.93501 1.59506 0
M  V30 1585 O 144.006 -3.27509 1.40058 0
M  V30 1586 O 142.865 -5.1183 1.91551 0
M  V30 1587 H 139.959 -0.78628 0.256305 0
M  V30 1588 H 142.505 -1.21934 1.18026 0
M  V30 1589 H 141.277 -3.0325 2.47295 0
M  V30 1590 H 140.9 -3.85619 0.968687 0
M  V30 1591 N 141.898 -0.863906 -1.31812 0
M  V30 1592 C 142.808 -0.318461 -2.32428 0
M  V30 1593 C 143.824 0.568496 -1.64451 0
M  V30 1594 O 145 0.46666 -1.95919 0
M  V30 1595 C 142.065 0.476355 -3.43412 0
M  V30 1596 C 141.126 -0.43784 -4.27061 0
M  V30 1597 C 140.359 0.319138 -5.32745 0
M  V30 1598 O 140.582 1.54799 -5.48993 0
M  V30 1599 O 139.516 -0.319861 -6.01049 0
M  V30 1600 H 143.342 -1.15229 -2.80991 0
M  V30 1601 H 140.927 -0.627103 -1.35602 0
M  V30 1602 H 142.809 0.927156 -4.11074 0
M  V30 1603 H 141.484 1.28683 -2.97022 0
M  V30 1604 H 140.391 -0.937013 -3.62175 0
M  V30 1605 H 141.724 -1.21375 -4.77 0
M  V30 1606 N 143.376 1.44774 -0.622745 0
M  V30 1607 C 144.606 2.06187 -0.130532 0
M  V30 1608 C 145.014 1.46547 1.19669 0
M  V30 1609 O 144.357 0.579636 1.74316 0
M  V30 1610 C 144.419 3.59437 0.0674983 0
M  V30 1611 C 144.083 4.41496 -1.18026 0
M  V30 1612 C 145.08 4.75512 -2.102 0
M  V30 1613 C 142.765 4.82007 -1.41333 0
M  V30 1614 C 144.759 5.48912 -3.23998 0
M  V30 1615 C 142.446 5.55157 -2.55429 0
M  V30 1616 C 143.444 5.88528 -3.46589 0
M  V30 1617 O 143.132 6.60191 -4.58697 0
M  V30 1618 H 142.864 0.672045 -0.0730162 0
M  V30 1619 H 145.418 1.86768 -0.854802 0
M  V30 1620 H 143.648 3.77314 0.846825 0
M  V30 1621 H 145.337 4.02642 0.513209 0
M  V30 1622 H 146.103 4.4476 -1.93425 0
M  V30 1623 H 141.982 4.55457 -0.712709 0
M  V30 1624 H 145.526 5.74877 -3.95174 0
M  V30 1625 H 141.423 5.85324 -2.72151 0
M  V30 1626 H 142.191 6.78654 -4.57571 0
M  V30 1627 N 144.854 0.36279 1.53368 0
M  V30 1628 C 145.784 -0.476976 2.28576 0
M  V30 1629 C 146.765 -1.08631 1.30894 0
M  V30 1630 O 147.95 -1.10409 1.59761 0
M  V30 1631 C 145.08 -1.61828 3.07293 0
M  V30 1632 C 144.034 -1.13633 4.1264 0
M  V30 1633 C 143.36 -2.36766 4.79423 0
M  V30 1634 C 144.66 -0.223061 5.21823 0
M  V30 1635 H 146.354 0.150474 2.99022 0
M  V30 1636 H 143.9 0.0738103 1.43811 0
M  V30 1637 H 145.853 -2.21237 3.58653 0
M  V30 1638 H 144.577 -2.27292 2.34533 0
M  V30 1639 H 143.236 -0.564945 3.62221 0
M  V30 1640 H 142.884 -3.0068 4.03238 0
M  V30 1641 H 142.584 -2.05192 5.50609 0
M  V30 1642 H 144.108 -2.96865 5.33576 0
M  V30 1643 H 145.522 -0.724545 5.68703 0
M  V30 1644 H 143.919 0.001678 6.001 0
M  V30 1645 H 144.989 0.735553 4.79289 0
M  V30 1646 N 146.332 -1.57332 0.0918853 0
M  V30 1647 C 147.295 -2.12708 -0.85369 0
M  V30 1648 C 148.295 -1.05561 -1.213 0
M  V30 1649 O 149.485 -1.31461 -1.14296 0
M  V30 1650 C 146.617 -2.64503 -2.15061 0
M  V30 1651 H 147.81 -2.97573 -0.3729 0
M  V30 1652 H 145.363 -1.55509 -0.157072 0
M  V30 1653 H 146.098 -1.83149 -2.67632 0
M  V30 1654 H 145.883 -3.4284 -1.90272 0
M  V30 1655 H 147.373 -3.07351 -2.82711 0
M  V30 1656 N 147.81 0.181792 -1.56548 0
M  V30 1657 C 149.056 0.896803 -1.82562 0
M  V30 1658 C 149.411 1.80324 -0.670908 0
M  V30 1659 O 148.704 1.8868 0.333235 0
M  V30 1660 C 148.898 1.73728 -3.12335 0
M  V30 1661 C 148.727 0.913714 -4.4032 0
M  V30 1662 C 147.497 0.592903 -5.01809 0
M  V30 1663 C 149.695 0.260164 -5.13642 0
M  V30 1664 N 147.677 -0.247901 -6.13399 0
M  V30 1665 C 149.048 -0.442256 -6.18421 0
M  V30 1666 C 151.103 0.177253 -4.97584 0
M  V30 1667 C 149.806 -1.21971 -7.08883 0
M  V30 1668 C 151.832 -0.586839 -5.88481 0
M  V30 1669 C 151.194 -1.27766 -6.92716 0
M  V30 1670 H 147.293 0.307122 -0.719166 0
M  V30 1671 H 149.877 0.164535 -1.94004 0
M  V30 1672 H 148.048 2.44105 -3.02105 0
M  V30 1673 H 149.78 2.39279 -3.26386 0
M  V30 1674 H 146.535 0.920502 -4.64568 0
M  V30 1675 H 146.959 -0.658304 -6.73792 0
M  V30 1676 H 151.601 0.696993 -4.17015 0
M  V30 1677 H 149.319 -1.75083 -7.88905 0
M  V30 1678 H 152.905 -0.652522 -5.78129 0
M  V30 1679 H 151.785 -1.85943 -7.61836 0
M  V30 1680 N 149.288 1.51039 0.449983 0
M  V30 1681 C 150.22 1.67617 1.56324 0
M  V30 1682 C 151.233 0.557083 1.52972 0
M  V30 1683 O 152.422 0.830989 1.57977 0
M  V30 1684 C 149.522 1.66402 2.95235 0
M  V30 1685 C 148.695 2.9469 3.23229 0
M  V30 1686 C 147.754 2.85832 4.41799 0
M  V30 1687 O 146.78 3.59785 4.41071 0
M  V30 1688 N 147.982 2.00821 5.44657 0
M  V30 1689 H 150.747 2.63648 1.42512 0
M  V30 1690 H 148.308 1.48767 0.638737 0
M  V30 1691 H 150.3 1.58062 3.72557 0
M  V30 1692 H 148.87 0.780182 3.02708 0
M  V30 1693 H 148.09 3.16996 2.34323 0
M  V30 1694 H 149.378 3.79636 3.38754 0
M  V30 1695 H 148.776 1.40091 5.48079 0
M  V30 1696 H 147.333 1.98368 6.20881 0
M  V30 1697 N 150.766 -0.704594 1.40972 0
M  V30 1698 C 151.716 -1.81051 1.38581 0
M  V30 1699 C 152.7 -1.58759 0.261585 0
M  V30 1700 O 153.892 -1.69745 0.501556 0
M  V30 1701 C 151.021 -3.19279 1.26157 0
M  V30 1702 C 150.107 -3.47296 2.43405 0
M  V30 1703 N 150.498 -3.46064 3.68881 0
M  V30 1704 C 148.796 -3.77804 2.37023 0
M  V30 1705 C 149.497 -3.72733 4.46592 0
M  V30 1706 N 148.473 -3.9203 3.76581 0
M  V30 1707 H 152.275 -1.78448 2.33525 0
M  V30 1708 H 149.789 -0.904198 1.349 0
M  V30 1709 H 151.786 -3.98488 1.22526 0
M  V30 1710 H 150.446 -3.231 0.321902 0
M  V30 1711 H 151.457 -3.26656 4.01891 0
M  V30 1712 H 148.134 -3.8905 1.51481 0
M  V30 1713 H 149.524 -3.77993 5.55492 0
M  V30 1714 N 152.244 -1.26651 -0.937939 0
M  V30 1715 C 153.472 -1.15173 -1.7188 0
M  V30 1716 C 153.887 0.292668 -1.86518 0
M  V30 1717 O 153.244 1.20014 -1.37488 0
M  V30 1718 C 153.295 -1.81925 -3.12387 0
M  V30 1719 O 153.016 -3.2072 -2.98446 0
M  V30 1720 C 154.517 -1.76442 -4.06673 0
M  V30 1721 H 151.737 -0.400911 -0.538063 0
M  V30 1722 H 154.281 -1.67332 -1.1756 0
M  V30 1723 H 152.436 -1.33696 -3.63599 0
M  V30 1724 H 152.85 -3.53802 -3.872 0
M  V30 1725 H 154.324 -2.27781 -5.02812 0
M  V30 1726 H 154.801 -0.731608 -4.33064 0
M  V30 1727 H 155.407 -2.24238 -3.61382 0
M  V30 1728 N 153.722 1.14298 -1.08507 0
M  V30 1729 C 154.95 1.89219 -0.836876 0
M  V30 1730 C 155.365 1.78638 0.611054 0
M  V30 1731 O 154.722 1.14643 1.41998 0
M  V30 1732 C 154.773 3.39158 -1.25116 0
M  V30 1733 O 154.494 3.49449 -2.64229 0
M  V30 1734 C 155.995 4.31073 -1.03398 0
M  V30 1735 H 153.215 0.599328 -0.301739 0
M  V30 1736 H 155.759 1.44746 -1.44461 0
M  V30 1737 H 153.914 3.81251 -0.687514 0
M  V30 1738 H 154.328 4.42589 -2.81452 0
M  V30 1739 H 155.802 5.34646 -1.37323 0
M  V30 1740 H 156.279 4.3919 0.0289259 0
M  V30 1741 H 156.885 3.94738 -1.58311 0
M  V30 1742 N 155.201 0.870884 1.31352 0
M  V30 1743 C 156.131 0.343096 2.30966 0
M  V30 1744 C 157.112 -0.566507 1.60389 0
M  V30 1745 O 158.297 -0.483336 1.88089 0
M  V30 1746 C 155.427 -0.455487 3.443 0
M  V30 1747 C 154.381 0.361103 4.26474 0
M  V30 1748 C 153.707 -0.563221 5.31725 0
M  V30 1749 C 155.007 1.59566 4.97329 0
M  V30 1750 H 156.701 1.17548 2.75359 0
M  V30 1751 H 154.247 0.566686 1.32381 0
M  V30 1752 H 156.2 -0.83525 4.13039 0
M  V30 1753 H 154.924 -1.32139 2.98675 0
M  V30 1754 H 153.583 0.722825 3.59403 0
M  V30 1755 H 153.231 -1.42643 4.82351 0
M  V30 1756 H 152.931 -0.0207409 5.87596 0
M  V30 1757 H 154.455 -0.939808 6.03324 0
M  V30 1758 H 155.869 1.28728 5.58661 0
M  V30 1759 H 154.266 2.07728 5.63 0
M  V30 1760 H 155.336 2.34798 4.24262 0
M  V30 1761 N 156.679 -1.44442 0.630414 0
M  V30 1762 C 158.095 -1.56832 0.295973 0
M  V30 1763 C 158.295 -1.61806 -1.20088 0
M  V30 1764 O 157.351 -1.5607 -1.9849 0
M  V30 1765 C 158.664 -2.84031 0.987264 0
M  V30 1766 C 160.212 -2.97742 0.96534 0
M  V30 1767 C 160.687 -4.27743 1.63708 0
M  V30 1768 N 162.178 -4.34555 1.60364 0
M  V30 1769 C 162.913 -5.33862 2.09234 0
M  V30 1770 N 162.409 -6.39578 2.66292 0
M  V30 1771 N 164.202 -5.25366 1.99867 0
M  V30 1772 H 156.353 -1.39457 1.60205 0
M  V30 1773 H 158.616 -0.668237 0.672431 0
M  V30 1774 H 158.322 -2.86338 2.04215 0
M  V30 1775 H 158.196 -3.73534 0.524588 0
M  V30 1776 H 160.583 -2.94989 -0.0810639 0
M  V30 1777 H 160.664 -2.09589 1.4665 0
M  V30 1778 H 160.308 -4.31255 2.68293 0
M  V30 1779 H 160.238 -5.14752 1.11076 0
M  V30 1780 H 162.729 -3.58772 1.18705 0
M  V30 1781 H 163.042 -7.11637 3.01317 0
M  V30 1782 H 161.387 -6.40265 2.70343 0
M  V30 1783 H 164.578 -4.41688 1.55013 0
M  V30 1784 H 164.751 -6.02606 2.38265 0
M  V30 1785 N 158.157 -0.370918 -1.53173 0
M  V30 1786 C 159.573 -0.0200818 -1.59587 0
M  V30 1787 C 159.773 1.46279 -1.38581 0
M  V30 1788 O 158.829 2.22506 -1.19363 0
M  V30 1789 C 160.142 -0.4808 -2.96831 0
M  V30 1790 C 161.69 -0.435477 -3.09956 0
M  V30 1791 C 162.165 -0.872092 -4.4962 0
M  V30 1792 N 163.656 -0.827364 -4.55751 0
M  V30 1793 C 164.391 -1.13683 -5.62018 0
M  V30 1794 N 163.887 -1.51584 -6.76014 0
M  V30 1795 N 165.68 -1.05927 -5.52029 0
M  V30 1796 H 157.831 -1.33652 -1.65079 0
M  V30 1797 H 160.094 -0.546634 -0.774529 0
M  V30 1798 H 159.8 -1.51577 -3.1736 0
M  V30 1799 H 159.674 0.129796 -3.76977 0
M  V30 1800 H 162.061 0.590371 -2.89134 0
M  V30 1801 H 162.142 -1.08164 -2.31806 0
M  V30 1802 H 161.786 -1.89608 -4.71181 0
M  V30 1803 H 161.716 -0.203127 -5.26208 0
M  V30 1804 H 164.207 -0.548216 -3.73902 0
M  V30 1805 H 164.52 -1.73609 -7.53047 0
M  V30 1806 H 162.865 -1.55454 -6.77391 0
M  V30 1807 H 166.056 -0.762321 -4.61851 0
M  V30 1808 H 166.229 -1.30378 -6.34749 0
M  V30 1809 N 159.635 1.57281 -0.100228 0
M  V30 1810 C 160.86 1.99302 0.573881 0
M  V30 1811 C 161.285 0.979059 1.60611 0
M  V30 1812 O 160.643 -0.0517803 1.81226 0
M  V30 1813 C 160.691 3.40274 1.19358 0
M  V30 1814 O 159.795 3.41676 2.30935 0
M  V30 1815 H 159.136 0.647944 0.145138 0
M  V30 1816 H 161.666 2.03779 -0.183156 0
M  V30 1817 H 161.676 3.78078 1.53365 0
M  V30 1818 H 160.351 4.13594 0.437385 0
M  V30 1819 H 158.928 3.15672 1.98509 0
M  V30 1820 N 161.113 -0.173488 1.56642 0
M  V30 1821 C 162.353 -0.896984 1.83667 0
M  V30 1822 C 162.717 -1.79523 0.680842 0
M  V30 1823 O 163.918 -2.55616 0.831488 0
M  V30 1824 C 162.189 -1.67351 3.15798 0
M  V30 1825 S 163.748 -2.44607 3.64298 0
M  V30 1826 H 160.566 -0.300464 0.644393 0
M  V30 1827 H 163.168 -0.158775 1.94854 0
M  V30 1828 H 161.872 -1.00462 3.97914 0
M  V30 1829 H 161.403 -2.45313 3.07546 0
M  V30 1830 H 163.418 -3.69261 3.31452 0
M  V30 1831 N 162.591 -1.51276 -0.441967 0
M  V30 1832 C 163.521 -1.752 -1.54361 0
M  V30 1833 C 164.502 -0.601682 -1.59103 0
M  V30 1834 O 165.687 -0.843913 -1.74905 0
M  V30 1835 C 162.817 -1.87282 -2.92477 0
M  V30 1836 C 161.771 -3.02687 -3.02596 0
M  V30 1837 C 161.097 -2.99947 -4.42647 0
M  V30 1838 C 162.397 -4.4273 -2.77106 0
M  V30 1839 H 164.091 -2.67442 -1.34592 0
M  V30 1840 H 161.637 -1.28694 -0.646048 0
M  V30 1841 H 163.59 -2.02602 -3.695 0
M  V30 1842 H 162.314 -0.916844 -3.13467 0
M  V30 1843 H 160.973 -2.87065 -2.28012 0
M  V30 1844 H 160.621 -2.02136 -4.60597 0
M  V30 1845 H 160.321 -3.77439 -4.50348 0
M  V30 1846 H 161.845 -3.17354 -5.2165 0
M  V30 1847 H 163.259 -4.58727 -3.43864 0
M  V30 1848 H 161.656 -5.21893 -2.96222 0
M  V30 1849 H 162.726 -4.53087 -1.72744 0
M  V30 1850 N 164.069 0.697108 -1.41344 0
M  V30 1851 C 165.485 1.00751 -1.2378 0
M  V30 1852 C 165.685 2.01105 -0.126066 0
M  V30 1853 O 164.741 2.47295 0.51004 0
M  V30 1854 C 166.054 1.53359 -2.58653 0
M  V30 1855 C 167.602 1.6525 -2.65822 0
M  V30 1856 C 168.077 2.2126 -4.01009 0
M  V30 1857 N 169.568 2.28622 -4.02847 0
M  V30 1858 C 170.303 2.72984 -5.04249 0
M  V30 1859 N 169.799 3.16962 -6.16041 0
M  V30 1860 N 171.592 2.72534 -4.91611 0
M  V30 1861 H 163.743 0.0322662 -2.12375 0
M  V30 1862 H 166.006 0.0768853 -0.944877 0
M  V30 1863 H 165.712 0.870773 -3.4075 0
M  V30 1864 H 165.586 2.51597 -2.81032 0
M  V30 1865 H 167.973 2.30644 -1.84086 0
M  V30 1866 H 168.054 0.655614 -2.47256 0
M  V30 1867 H 167.698 1.56482 -4.83193 0
M  V30 1868 H 167.628 3.21698 -4.16915 0
M  V30 1869 H 170.119 1.97585 -3.22131 0
M  V30 1870 H 170.432 3.49434 -6.89287 0
M  V30 1871 H 168.777 3.14875 -6.1958 0
M  V30 1872 H 171.968 2.37525 -4.0336 0
M  V30 1873 H 172.141 3.06789 -5.70775 0
M  V30 1874 N 165.547 1.27147 0.931209 0
M  V30 1875 C 166.51 1.09615 2.01289 0
M  V30 1876 C 167.51 0.0412581 1.60747 0
M  V30 1877 O 168.7 0.285545 1.71844 0
M  V30 1878 C 165.832 0.669447 3.34262 0
M  V30 1879 H 167.025 2.05662 2.18273 0
M  V30 1880 H 164.578 1.09885 1.11153 0
M  V30 1881 H 165.313 -0.292572 3.22978 0
M  V30 1882 H 165.098 1.43127 3.65044 0
M  V30 1883 H 166.588 0.568921 4.13706 0
M  V30 1884 N 167.025 -1.13721 1.09112 0
M  V30 1885 C 167.955 -2.21148 0.749385 0
M  V30 1886 C 168.936 -1.6792 -0.271475 0
M  V30 1887 O 170.121 -1.93693 -0.140251 0
M  V30 1888 C 167.251 -3.46905 0.165659 0
M  V30 1889 C 166.205 -4.13203 1.11567 0
M  V30 1890 C 165.531 -5.33248 0.393809 0
M  V30 1891 C 166.831 -4.60912 2.45678 0
M  V30 1892 H 168.525 -2.4999 1.64758 0
M  V30 1893 H 166.071 -1.20156 0.793626 0
M  V30 1894 H 168.024 -4.21313 -0.085466 0
M  V30 1895 H 166.748 -3.17449 -0.767714 0
M  V30 1896 H 165.407 -3.40758 1.35202 0
M  V30 1897 H 165.055 -5.00054 -0.543599 0
M  V30 1898 H 164.755 -5.78552 1.02721 0
M  V30 1899 H 166.279 -6.10413 0.150908 0
M  V30 1900 H 167.693 -5.26759 2.26269 0
M  V30 1901 H 166.09 -5.16944 3.04776 0
M  V30 1902 H 167.16 -3.75603 3.06677 0
M  V30 1903 N 168.503 -0.877838 -1.30888 0
M  V30 1904 C 169.749 -0.502773 -1.97088 0
M  V30 1905 C 170.104 0.936274 -1.68082 0
M  V30 1906 O 169.397 1.65162 -0.971196 0
M  V30 1907 C 169.591 -0.705748 -3.50363 0
M  V30 1908 C 169.42 -2.16297 -3.94266 0
M  V30 1909 C 168.19 -2.80614 -4.20219 0
M  V30 1910 C 170.388 -3.13606 -4.07622 0
M  V30 1911 N 168.37 -4.17007 -4.50532 0
M  V30 1912 C 169.741 -4.35051 -4.41736 0
M  V30 1913 C 171.796 -3.09491 -3.90026 0
M  V30 1914 C 170.499 -5.52911 -4.60089 0
M  V30 1915 C 172.525 -4.26616 -4.09576 0
M  V30 1916 C 171.887 -5.46825 -4.44029 0
M  V30 1917 H 167.986 -0.233168 -0.746429 0
M  V30 1918 H 170.57 -1.13408 -1.58261 0
M  V30 1919 H 168.741 -0.103976 -3.88261 0
M  V30 1920 H 170.473 -0.298291 -4.03599 0
M  V30 1921 H 167.228 -2.3152 -4.13153 0
M  V30 1922 H 167.652 -4.87426 -4.69834 0
M  V30 1923 H 172.294 -2.17657 -3.62471 0
M  V30 1924 H 170.012 -6.45255 -4.86489 0
M  V30 1925 H 173.598 -4.24894 -3.97438 0
M  V30 1926 H 172.478 -6.35947 -4.58848 0
M  V30 1927 N 169.982 1.44106 -0.638065 0
M  V30 1928 C 170.932 2.27843 0.0847285 0
M  V30 1929 C 171.916 1.39055 0.809471 0
M  V30 1930 O 173.108 1.62808 0.694435 0
M  V30 1931 C 170.237 3.26497 1.06089 0
M  V30 1932 C 169.323 4.22772 0.33541 0
M  V30 1933 N 169.714 5.01737 -0.639787 0
M  V30 1934 C 168.012 4.42227 0.578921 0
M  V30 1935 C 168.713 5.71792 -1.06904 0
M  V30 1936 N 167.689 5.42079 -0.406395 0
M  V30 1937 H 171.491 2.86305 -0.663814 0
M  V30 1938 H 169.005 1.55627 -0.464122 0
M  V30 1939 H 171.002 3.8525 1.59337 0
M  V30 1940 H 169.662 2.69595 1.80966 0
M  V30 1941 H 170.673 5.07799 -1.01789 0
M  V30 1942 H 167.35 3.96415 1.31003 0
M  V30 1943 H 168.74 6.45205 -1.8751 0
M  V30 1944 N 171.46 0.379036 1.52974 0
M  V30 1945 C 172.407 -0.461048 2.26148 0
M  V30 1946 C 173.377 -1.06637 1.27349 0
M  V30 1947 O 174.562 -1.09633 1.56157 0
M  V30 1948 C 171.702 -1.58782 3.06402 0
M  V30 1949 C 170.815 -1.00636 4.20115 0
M  V30 1950 C 169.95 -2.10334 4.87784 0
M  V30 1951 C 168.989 -1.49724 5.93506 0
M  V30 1952 N 168.126 -2.5331 6.54812 0
M  V30 1953 H 172.966 0.169429 2.97518 0
M  V30 1954 H 170.503 0.0953806 1.4679 0
M  V30 1955 H 172.461 -2.25174 3.51215 0
M  V30 1956 H 171.091 -2.18876 2.37261 0
M  V30 1957 H 170.143 -0.232332 3.7969 0
M  V30 1958 H 171.455 -0.523343 4.96047 0
M  V30 1959 H 170.609 -2.84519 5.35849 0
M  V30 1960 H 169.348 -2.61992 4.11353 0
M  V30 1961 H 168.353 -0.740598 5.44789 0
M  V30 1962 H 169.578 -0.988732 6.71864 0
M  V30 1963 H 167.524 -3.04156 5.81227 0
M  V30 1964 H 167.441 -2.09734 7.26325 0
M  V30 1965 H 168.709 -3.27155 7.07524 0
M  V30 1966 N 172.938 -1.57226 0.108567 0
M  V30 1967 C 174.184 -1.95121 -0.552761 0
M  V30 1968 C 174.517 -0.991345 -1.66991 0
M  V30 1969 O 173.792 -0.0267211 -1.94482 0
M  V30 1970 C 174.075 -3.43039 -1.09528 0
M  V30 1971 C 173.928 -4.49797 0.0177332 0
M  V30 1972 C 175.247 -3.92567 -1.98945 0
M  V30 1973 H 172.366 -0.709496 -0.199461 0
M  V30 1974 H 175.008 -1.89126 0.182011 0
M  V30 1975 H 173.158 -3.48279 -1.72146 0
M  V30 1976 H 174.83 -4.56661 0.652584 0
M  V30 1977 H 173.073 -4.284 0.682309 0
M  V30 1978 H 173.744 -5.50528 -0.402919 0
M  V30 1979 H 176.22 -3.89565 -1.46214 0
M  V30 1980 H 175.096 -4.96605 -2.33827 0
M  V30 1981 H 175.357 -3.32648 -2.91201 0
M  V30 1982 N 174.416 0.165178 -1.56732 0
M  V30 1983 C 175.349 1.23336 -1.91998 0
M  V30 1984 C 176.327 1.42476 -0.783531 0
M  V30 1985 O 177.511 1.57384 -1.03743 0
M  V30 1986 C 174.638 2.59533 -2.17625 0
M  V30 1987 C 173.684 2.57093 -3.40302 0
M  V30 1988 S 174.517 2.05571 -4.9447 0
M  V30 1989 C 175.673 3.43532 -5.23198 0
M  V30 1990 H 175.906 0.932387 -2.82301 0
M  V30 1991 H 173.439 0.370013 -1.49901 0
M  V30 1992 H 175.397 3.37918 -2.3307 0
M  V30 1993 H 174.058 2.86827 -1.28019 0
M  V30 1994 H 173.251 3.57308 -3.55453 0
M  V30 1995 H 172.853 1.86806 -3.24005 0
M  V30 1996 H 175.145 4.39559 -5.15552 0
M  V30 1997 H 176.088 3.33251 -6.2478 0
M  V30 1998 H 176.496 3.39828 -4.50752 0
M  V30 1999 N 175.894 1.51508 0.433938 0
M  V30 2000 C 177.141 1.64345 1.18309 0
M  V30 2001 C 177.469 0.361315 1.91115 0
M  V30 2002 O 176.724 -0.654753 1.84422 0
M  V30 2003 C 177.023 2.79928 2.22205 0
M  V30 2004 C 176.689 4.19078 1.66387 0
M  V30 2005 C 175.351 4.56932 1.50887 0
M  V30 2006 C 177.703 5.05894 1.25381 0
M  V30 2007 C 175.031 5.79305 0.928608 0
M  V30 2008 C 177.383 6.2885 0.687823 0
M  V30 2009 C 176.047 6.65473 0.519755 0
M  V30 2010 H 175.317 0.601381 0.432923 0
M  V30 2011 H 177.964 1.85549 0.473676 0
M  V30 2012 H 176.269 2.52959 2.99197 0
M  V30 2013 H 177.966 2.87059 2.79997 0
M  V30 2014 H 174.556 3.89234 1.79428 0
M  V30 2015 H 178.74 4.77253 1.36175 0
M  V30 2016 H 173.996 6.06324 0.786186 0
M  V30 2017 H 178.17 6.95461 0.361581 0
M  V30 2018 H 175.797 7.6017 0.0679979 0
M  V30 2019 N 177.372 -0.689602 1.41712 0
M  V30 2020 C 178.783 -1.26973 1.36875 0
M  V30 2021 C 179.134 -1.96124 0.054748 0
M  V30 2022 O 178.259 -1.99141 -0.84687 0
M  V30 2023 C 178.854 -2.30912 2.47922 0
M  V30 2024 C 177.413 -2.84486 2.46464 0
M  V30 2025 C 176.56 -1.58603 2.27465 0
M  V30 2026 H 179.511 -0.48396 1.51141 0
M  V30 2027 H 179.532 -3.12331 2.17323 0
M  V30 2028 H 179.044 -1.80554 3.43543 0
M  V30 2029 H 177.145 -3.39005 1.54617 0
M  V30 2030 H 177.258 -3.34511 3.42986 0
M  V30 2031 H 175.622 -1.84632 1.75451 0
M  V30 2032 H 176.405 -1.10233 3.25121 0
M  V30 2033 N 178.85 -1.27639 -0.924453 0
M  V30 2034 C 180.096 -1.14336 -1.67497 0
M  V30 2035 C 180.429 0.309465 -1.91718 0
M  V30 2036 O 179.704 1.22608 -1.50989 0
M  V30 2037 C 179.987 -1.93096 -3.0395 0
M  V30 2038 C 179.84 -3.46381 -2.8695 0
M  V30 2039 C 181.159 -1.73798 -4.0433 0
M  V30 2040 H 178.278 -0.416728 -0.607871 0
M  V30 2041 H 180.92 -1.56832 -1.07256 0
M  V30 2042 H 179.07 -1.56982 -3.55372 0
M  V30 2043 H 180.742 -3.92343 -2.42621 0
M  V30 2044 H 178.985 -3.72557 -2.22225 0
M  V30 2045 H 179.656 -3.96735 -3.83804 0
M  V30 2046 H 182.132 -2.05293 -3.61931 0
M  V30 2047 H 181.008 -2.31294 -4.97789 0
M  V30 2048 H 181.269 -0.686725 -4.36734 0
M  V30 2049 N 180.328 1.1314 -1.09713 0
M  V30 2050 C 181.575 1.84484 -0.834987 0
M  V30 2051 C 181.903 1.83689 0.639418 0
M  V30 2052 O 181.158 1.2724 1.4869 0
M  V30 2053 C 181.457 3.32167 -1.3191 0
M  V30 2054 C 181.123 3.53139 -2.80363 0
M  V30 2055 C 179.785 3.58571 -3.20905 0
M  V30 2056 C 182.137 3.60866 -3.76065 0
M  V30 2057 C 179.465 3.69267 -4.55916 0
M  V30 2058 C 181.817 3.73089 -5.10869 0
M  V30 2059 C 180.481 3.76775 -5.50996 0
M  V30 2060 H 179.751 0.675073 -0.305544 0
M  V30 2061 H 182.398 1.33554 -1.37243 0
M  V30 2062 H 180.703 3.85469 -0.701517 0
M  V30 2063 H 182.4 3.85821 -1.09284 0
M  V30 2064 H 178.99 3.49569 -2.47991 0
M  V30 2065 H 183.174 3.55946 -3.45855 0
M  V30 2066 H 178.43 3.70388 -4.86438 0
M  V30 2067 H 182.604 3.78011 -5.84877 0
M  V30 2068 H 180.231 3.84815 -6.55608 0
M  V30 2069 N 181.806 0.884767 1.30421 0
M  V30 2070 C 182.736 0.367574 2.30589 0
M  V30 2071 C 183.717 -0.549464 1.60981 0
M  V30 2072 O 184.902 -0.46336 1.88591 0
M  V30 2073 C 182.032 -0.418944 3.44764 0
M  V30 2074 C 180.986 0.406316 4.26067 0
M  V30 2075 C 180.312 -0.506793 5.32293 0
M  V30 2076 C 181.612 1.64832 4.95608 0
M  V30 2077 H 183.306 1.20462 2.74097 0
M  V30 2078 H 180.852 0.580695 1.31772 0
M  V30 2079 H 182.805 -0.791395 4.13902 0
M  V30 2080 H 181.529 -1.28964 3.0006 0
M  V30 2081 H 180.188 0.760903 3.58617 0
M  V30 2082 H 179.836 -1.37519 4.83836 0
M  V30 2083 H 179.536 0.0415828 5.87585 0
M  V30 2084 H 181.06 -0.875764 6.04287 0
M  V30 2085 H 182.474 1.34646 5.57264 0
M  V30 2086 H 180.871 2.13688 5.60765 0
M  V30 2087 H 181.941 2.39284 4.21748 0
M  V30 2088 N 183.284 -1.43765 0.645699 0
M  V30 2089 C 184.532 -2.01499 0.155731 0
M  V30 2090 C 184.853 -1.51151 -1.232 0
M  V30 2091 O 184.123 -0.721044 -1.82148 0
M  V30 2092 H 182.703 -0.745003 0.0545817 0
M  V30 2093 H 185.365 -1.76075 0.835677 0
M  V30 2094 H 184.461 -3.1181 0.134577 0
M  V30 2095 N 184.763 -0.387143 -1.52771 0
M  V30 2096 C 185.673 0.456442 -2.30117 0
M  V30 2097 C 186.689 1.07342 -1.36944 0
M  V30 2098 O 187.865 1.07971 -1.70013 0
M  V30 2099 C 184.93 1.56957 -3.09136 0
M  V30 2100 C 183.991 0.977916 -4.18014 0
M  V30 2101 C 183.224 2.038 -4.93256 0
M  V30 2102 O 183.447 3.25271 -4.68567 0
M  V30 2103 O 182.381 1.6565 -5.78657 0
M  V30 2104 H 186.207 -0.17359 -3.03203 0
M  V30 2105 H 183.792 -0.150919 -1.48636 0
M  V30 2106 H 185.674 2.21628 -3.58412 0
M  V30 2107 H 184.349 2.18461 -2.38865 0
M  V30 2108 H 183.256 0.294525 -3.72939 0
M  V30 2109 H 184.589 0.407128 -4.90513 0
M  V30 2110 N 186.241 1.57166 -0.116904 0
M  V30 2111 C 187.652 1.82169 0.408809 0
M  V30 2112 C 188.003 1.03393 1.66746 0
M  V30 2113 O 187.128 0.269886 2.1471 0
M  V30 2114 C 187.723 3.30429 0.748466 0
M  V30 2115 C 186.282 3.5612 1.21882 0
M  V30 2116 C 185.429 2.76374 0.226452 0
M  V30 2117 H 188.38 1.5497 -0.342063 0
M  V30 2118 H 188.401 3.44943 1.60607 0
M  V30 2119 H 187.913 3.87737 -0.167784 0
M  V30 2120 H 186.014 3.04168 2.15204 0
M  V30 2121 H 186.127 4.64705 1.16559 0
M  V30 2122 H 184.491 2.44515 0.713063 0
M  V30 2123 H 185.274 3.3644 -0.682859 0
M  V30 2124 N 187.719 -0.156864 1.56817 0
M  V30 2125 C 188.965 -0.872416 1.83076 0
M  V30 2126 C 189.298 -1.81261 0.697001 0
M  V30 2127 O 188.573 -1.92171 -0.30008 0
M  V30 2128 C 188.856 -1.65551 3.19789 0
M  V30 2129 C 188.709 -0.737467 4.43713 0
M  V30 2130 C 190.028 -2.62012 3.53606 0
M  V30 2131 H 187.147 -0.315715 0.665953 0
M  V30 2132 H 189.789 -0.138004 1.89498 0
M  V30 2133 H 187.939 -2.28159 3.14445 0
M  V30 2134 H 189.611 -0.123143 4.61136 0
M  V30 2135 H 187.854 -0.0464067 4.33775 0
M  V30 2136 H 188.525 -1.32122 5.35955 0
M  V30 2137 H 191.001 -2.09525 3.59497 0
M  V30 2138 H 189.877 -3.13861 4.50314 0
M  V30 2139 H 190.138 -3.42902 2.79053 0
M  V30 2140 N 189.197 -1.51736 -0.425897 0
M  V30 2141 C 190.422 -1.69082 -1.20108 0
M  V30 2142 C 190.847 -0.392398 -1.83962 0
M  V30 2143 O 190.205 0.64858 -1.69302 0
M  V30 2144 C 190.253 -2.81604 -2.25237 0
M  V30 2145 O 189.357 -2.46004 -3.30992 0
M  V30 2146 H 188.698 -0.563408 -0.35138 0
M  V30 2147 H 191.228 -1.98358 -0.501512 0
M  V30 2148 H 191.238 -3.06025 -2.69838 0
M  V30 2149 H 189.913 -3.75817 -1.78142 0
M  V30 2150 H 188.49 -2.32195 -2.91787 0
M  V30 2151 N 190.675 0.682077 -1.42076 0
M  V30 2152 C 192.086 1.26246 -1.37546 0
M  V30 2153 C 192.437 1.96092 -0.0651481 0
M  V30 2154 O 191.562 1.99587 0.836297 0
M  V30 2155 C 192.157 2.29594 -2.49143 0
M  V30 2156 C 190.716 2.83175 -2.47969 0
M  V30 2157 C 189.863 1.57395 -2.28303 0
M  V30 2158 H 192.814 0.475937 -1.51395 0
M  V30 2159 H 192.835 3.11175 -2.18976 0
M  V30 2160 H 192.347 1.78729 -3.44496 0
M  V30 2161 H 190.448 3.3818 -1.56413 0
M  V30 2162 H 190.561 3.32687 -3.44755 0
M  V30 2163 H 188.925 1.83699 -1.76428 0
M  V30 2164 H 189.708 1.08507 -3.25701 0
M  V30 2165 N 192.153 1.28127 0.917671 0
M  V30 2166 C 193.085 1.07517 2.02417 0
M  V30 2167 C 194.098 0.0281099 1.62776 0
M  V30 2168 O 195.287 0.270748 1.76435 0
M  V30 2169 C 192.387 0.610957 3.33347 0
M  V30 2170 C 191.56 1.73255 4.01624 0
M  V30 2171 C 190.619 1.26238 5.10833 0
M  V30 2172 O 189.645 1.96389 5.34247 0
M  V30 2173 N 190.847 0.123448 5.80369 0
M  V30 2174 H 193.612 2.02806 2.20658 0
M  V30 2175 H 191.173 1.19827 1.08871 0
M  V30 2176 H 193.165 0.280101 4.0373 0
M  V30 2177 H 191.735 -0.24898 3.11607 0
M  V30 2178 H 190.955 2.23319 3.24842 0
M  V30 2179 H 192.243 2.48503 4.43986 0
M  V30 2180 H 191.641 -0.461847 5.63812 0
M  V30 2181 H 190.198 -0.148158 6.51632 0
M  V30 2182 N 193.631 -1.12557 1.10312 0
M  V30 2183 C 194.859 -1.87864 0.866873 0
M  V30 2184 C 195.274 -1.79588 -0.582557 0
M  V30 2185 O 194.631 -1.16887 -1.40156 0
M  V30 2186 C 194.682 -3.37125 1.30496 0
M  V30 2187 O 194.403 -3.45201 2.69755 0
M  V30 2188 C 195.904 -4.29373 1.10243 0
M  V30 2189 H 193.124 -0.594452 0.311236 0
M  V30 2190 H 195.668 -1.42429 1.46745 0
M  V30 2191 H 193.823 -3.80109 0.748081 0
M  V30 2192 H 194.237 -4.38056 2.88457 0
M  V30 2193 H 195.711 -5.32394 1.45811 0
M  V30 2194 H 196.188 -4.39181 0.0409492 0
M  V30 2195 H 196.794 -3.92169 1.64571 0
M  V30 2196 N 195.109 -0.891671 -1.2995 0
M  V30 2197 C 196.039 -0.379797 -2.30391 0
M  V30 2198 C 197.02 0.540919 -1.6127 0
M  V30 2199 O 198.205 0.453352 -1.88834 0
M  V30 2200 C 195.335 0.400654 -3.44981 0
M  V30 2201 C 194.289 -0.428905 -4.25846 0
M  V30 2202 C 193.615 0.478557 -5.32554 0
M  V30 2203 C 194.915 -1.67458 -4.94727 0
M  V30 2204 H 196.609 -1.21914 -2.73454 0
M  V30 2205 H 194.155 -0.587675 -1.31462 0
M  V30 2206 H 196.108 0.769434 -4.14316 0
M  V30 2207 H 194.832 1.27371 -3.0074 0
M  V30 2208 H 193.491 -0.779911 -3.58208 0
M  V30 2209 H 193.139 1.34951 -4.84559 0
M  V30 2210 H 192.839 -0.0727433 -5.87555 0
M  V30 2211 H 194.363 0.843705 -6.04743 0
M  V30 2212 H 195.777 -1.376 -5.56542 0
M  V30 2213 H 194.174 -2.16659 -5.59624 0
M  V30 2214 H 195.244 -2.41518 -4.20473 0
M  V30 2215 N 196.587 1.43421 -0.653314 0
M  V30 2216 C 197.55 2.29182 0.0287951 0
M  V30 2217 C 198.55 1.42213 0.750465 0
M  V30 2218 O 199.74 1.63843 0.591701 0
M  V30 2219 C 196.872 3.24278 1.05151 0
M  V30 2220 H 198.065 2.90985 -0.725786 0
M  V30 2221 H 195.618 1.50702 -0.414545 0
M  V30 2222 H 196.353 2.6737 1.83532 0
M  V30 2223 H 196.138 3.88396 0.537687 0
M  V30 2224 H 197.628 3.88647 1.52786 0
M  V30 2225 N 198.065 0.39524 1.52563 0
M  V30 2226 C 199.028 -0.425001 2.25225 0
M  V30 2227 C 200.028 -0.985266 1.27079 0
M  V30 2228 O 201.218 -0.866332 1.5113 0
M  V30 2229 C 198.35 -1.59686 3.01186 0
M  V30 2230 H 199.543 0.211233 2.99155 0
M  V30 2231 H 197.096 0.147472 1.55603 0
M  V30 2232 H 197.831 -2.27035 2.31572 0
M  V30 2233 H 197.616 -1.20176 3.73229 0
M  V30 2234 H 199.106 -2.17743 3.5634 0
M  V30 2235 N 199.544 -1.57102 0.125237 0
M  V30 2236 C 200.772 -1.99761 -0.538797 0
M  V30 2237 C 201.187 -1.00503 -1.59827 0
M  V30 2238 O 200.544 0.00119474 -1.825 0
M  V30 2239 C 200.595 -3.42408 -1.15927 0
M  V30 2240 O 200.316 -4.37869 -0.142143 0
M  V30 2241 C 201.817 -4.00232 -1.90602 0
M  V30 2242 H 199.037 -0.655772 -0.14214 0
M  V30 2243 H 201.581 -2.03383 0.213413 0
M  V30 2244 H 199.736 -3.39706 -1.86223 0
M  V30 2245 H 200.15 -5.21128 -0.593775 0
M  V30 2246 H 201.624 -5.02105 -2.29335 0
M  V30 2247 H 202.101 -3.39721 -2.78363 0
M  V30 2248 H 202.707 -4.06499 -1.25055 0
M  V30 2249 N 201.022 0.148545 -1.56898 0
M  V30 2250 C 201.952 1.18524 -2.01182 0
M  V30 2251 C 202.933 1.4489 -0.891123 0
M  V30 2252 O 204.118 1.55836 -1.15882 0
M  V30 2253 C 201.248 2.51879 -2.39112 0
M  V30 2254 C 200.202 2.40038 -3.54353 0
M  V30 2255 C 199.528 3.78089 -3.78091 0
M  V30 2256 C 200.828 1.88577 -4.87069 0
M  V30 2257 H 202.522 0.817029 -2.88036 0
M  V30 2258 H 200.068 0.391575 -1.38574 0
M  V30 2259 H 202.021 3.24627 -2.68692 0
M  V30 2260 H 200.745 2.90532 -1.49193 0
M  V30 2261 H 199.404 1.69742 -3.24936 0
M  V30 2262 H 199.052 4.14175 -2.85426 0
M  V30 2263 H 198.752 3.71028 -4.55645 0
M  V30 2264 H 200.276 4.52387 -4.10095 0
M  V30 2265 H 201.69 2.51117 -5.15377 0
M  V30 2266 H 200.087 1.9241 -5.68417 0
M  V30 2267 H 201.157 0.84136 -4.77545 0
M  V30 2268 N 202.5 1.5196 0.417844 0
M  V30 2269 C 203.463 1.74065 1.49111 0
M  V30 2270 C 204.463 0.610537 1.48758 0
M  V30 2271 O 205.653 0.87832 1.50437 0
M  V30 2272 C 202.785 1.81502 2.88565 0
M  V30 2273 H 203.978 2.69869 1.30807 0
M  V30 2274 H 201.531 1.42244 0.647785 0
M  V30 2275 H 202.266 0.875813 3.1225 0
M  V30 2276 H 202.051 2.63651 2.90225 0
M  V30 2277 H 203.541 2.00376 3.66387 0
M  V30 2278 N 203.978 -0.674533 1.42435 0
M  V30 2279 C 204.888 -1.81751 1.48337 0
M  V30 2280 C 205.904 -1.69975 0.372099 0
M  V30 2281 O 207.08 -1.91521 0.62304 0
M  V30 2282 C 204.145 -3.17895 1.38361 0
M  V30 2283 C 203.206 -3.41625 2.59982 0
M  V30 2284 C 202.439 -4.71274 2.50473 0
M  V30 2285 O 202.662 -5.49197 1.54075 0
M  V30 2286 O 201.596 -4.96254 3.4061 0
M  V30 2287 H 205.422 -1.79728 2.44809 0
M  V30 2288 H 203.007 -0.830312 1.24202 0
M  V30 2289 H 204.889 -3.99136 1.35161 0
M  V30 2290 H 203.564 -3.20555 0.450144 0
M  V30 2291 H 202.471 -2.60231 2.68757 0
M  V30 2292 H 203.804 -3.43796 3.52229 0
M  V30 2293 N 205.456 -1.28612 -0.910864 0
M  V30 2294 C 206.386 -1.15326 -2.03032 0
M  V30 2295 C 207.367 -0.0502924 -1.70026 0
M  V30 2296 O 208.552 -0.227797 -1.92859 0
M  V30 2297 C 205.682 -0.817343 -3.37545 0
M  V30 2298 C 204.636 -1.8754 -3.84724 0
M  V30 2299 C 203.962 -1.39305 -5.16235 0
M  V30 2300 C 205.262 -3.28244 -4.06267 0
M  V30 2301 H 206.956 -2.08975 -2.14406 0
M  V30 2302 H 204.502 -1.00612 -1.03021 0
M  V30 2303 H 206.455 -0.711151 -4.15356 0
M  V30 2304 H 205.179 0.154846 -3.26233 0
M  V30 2305 H 203.838 -1.97079 -3.09121 0
M  V30 2306 H 203.486 -0.409846 -5.01328 0
M  V30 2307 H 203.186 -2.10057 -5.48771 0
M  V30 2308 H 204.71 -1.30014 -5.96598 0
M  V30 2309 H 206.124 -3.21611 -4.74594 0
M  V30 2310 H 204.521 -3.96855 -4.5014 0
M  V30 2311 H 205.591 -3.72048 -3.10979 0
M  V30 2312 N 206.934 1.1197 -1.10907 0
M  V30 2313 C 208.211 1.79959 -0.766432 0
M  V30 2314 C 208.591 1.97466 0.746363 0
M  V30 2315 O 207.939 1.55491 1.67436 0
M  V30 2316 C 208.149 3.14009 -1.52314 0
M  V30 2317 C 209.497 3.89134 -1.69883 0
M  V30 2318 O 210.521 3.2368 -1.48692 0
M  V30 2319 O 209.38 5.06572 -2.05054 0
M  V30 2320 H 206.474 0.779208 -0.277062 0
M  V30 2321 H 209.02 1.18762 -1.21217 0
M  V30 2322 H 207.792 2.96587 -2.55249 0
M  V30 2323 H 207.415 3.82915 -1.07059 0
M  V30 2324 N 208.412 0.89855 1.29475 0
M  V30 2325 C 209.658 0.524658 1.95896 0
M  V30 2326 C 209.991 -0.926468 1.70676 0
M  V30 2327 O 209.266 -1.65665 1.01908 0
M  V30 2328 C 209.549 0.81633 3.50725 0
M  V30 2329 C 209.402 2.31907 3.85408 0
M  V30 2330 C 210.721 0.302038 4.39062 0
M  V30 2331 H 207.84 0.19209 0.711527 0
M  V30 2332 H 210.482 1.12502 1.53112 0
M  V30 2333 H 208.632 0.305369 3.87298 0
M  V30 2334 H 210.304 2.89949 3.58786 0
M  V30 2335 H 208.547 2.78027 3.32992 0
M  V30 2336 H 209.218 2.47373 4.93468 0
M  V30 2337 H 211.694 0.739551 4.09475 0
M  V30 2338 H 210.57 0.535331 5.46283 0
M  V30 2339 H 210.831 -0.797216 4.34853 0
M  V30 2340 N 209.89 -1.43072 0.660911 0
M  V30 2341 C 211.118 -2.06067 0.185422 0
M  V30 2342 C 211.533 -1.49582 -1.15198 0
M  V30 2343 O 210.89 -0.630134 -1.71276 0
M  V30 2344 C 210.941 -3.61371 0.0966523 0
M  V30 2345 O 210.662 -4.15758 1.38119 0
M  V30 2346 C 212.163 -4.41455 -0.403996 0
M  V30 2347 H 209.383 -0.664459 0.0934604 0
M  V30 2348 H 211.927 -1.83447 0.90373 0
M  V30 2349 H 210.082 -3.8315 -0.572259 0
M  V30 2350 H 210.496 -5.09499 1.24542 0
M  V30 2351 H 211.97 -5.50437 -0.415045 0
M  V30 2352 H 212.447 -4.15036 -1.43674 0
M  V30 2353 H 213.053 -4.24663 0.232691 0
M  V30 2354 N 211.368 -0.403325 -1.52352 0
M  V30 2355 C 212.298 0.416205 -2.29761 0
M  V30 2356 C 213.279 1.05123 -1.33728 0
M  V30 2357 O 214.464 1.06134 -1.62632 0
M  V30 2358 C 211.594 1.53624 -3.11475 0
M  V30 2359 C 210.548 1.02653 -4.15507 0
M  V30 2360 C 209.874 2.23971 -4.85532 0
M  V30 2361 C 211.174 0.08463 -5.22231 0
M  V30 2362 H 212.868 -0.229701 -2.98518 0
M  V30 2363 H 210.414 -0.111913 -1.43564 0
M  V30 2364 H 212.367 2.1165 -3.64393 0
M  V30 2365 H 211.091 2.20994 -2.40477 0
M  V30 2366 H 209.75 0.46871 -3.63591 0
M  V30 2367 H 209.398 2.89883 -4.11068 0
M  V30 2368 H 209.098 1.90521 -5.55856 0
M  V30 2369 H 210.622 2.82614 -5.41259 0
M  V30 2370 H 212.036 0.573509 -5.70424 0
M  V30 2371 H 210.433 -0.160783 -5.99885 0
M  V30 2372 H 211.503 -0.86237 -4.7717 0
M  V30 2373 N 212.846 1.57033 -0.133567 0
M  V30 2374 C 213.778 2.13176 0.841944 0
M  V30 2375 C 214.791 1.07794 1.22001 0
M  V30 2376 O 215.98 1.35117 1.16643 0
M  V30 2377 C 213.08 2.62847 2.13926 0
M  V30 2378 C 212.253 3.92486 1.93064 0
M  V30 2379 C 211.312 4.27605 3.0666 0
M  V30 2380 O 210.338 4.96168 2.78937 0
M  V30 2381 N 211.54 3.861 4.33483 0
M  V30 2382 H 214.305 2.97503 0.362192 0
M  V30 2383 H 211.866 1.61821 0.05042 0
M  V30 2384 H 213.858 2.83363 2.88942 0
M  V30 2385 H 212.428 1.83319 2.53205 0
M  V30 2386 H 211.648 3.80732 1.02159 0
M  V30 2387 H 212.936 4.77225 1.76447 0
M  V30 2388 H 212.334 3.30828 4.58878 0
M  V30 2389 H 210.891 4.11694 5.05323 0
M  V30 2390 N 214.325 -0.140222 1.56975 0
M  V30 2391 C 215.255 -1.17456 2.01808 0
M  V30 2392 C 216.236 -1.44415 0.898794 0
M  V30 2393 O 217.421 -1.5522 1.16707 0
M  V30 2394 C 214.551 -2.50607 2.40444 0
M  V30 2395 C 213.505 -2.38155 3.55621 0
M  V30 2396 C 212.831 -3.76078 3.80091 0
M  V30 2397 C 214.131 -1.85991 4.88062 0
M  V30 2398 H 215.825 -0.801743 2.88466 0
M  V30 2399 H 213.371 -0.38422 1.38779 0
M  V30 2400 H 215.324 -3.23197 2.7041 0
M  V30 2401 H 214.048 -2.89737 1.50732 0
M  V30 2402 H 212.707 -1.68016 3.25832 0
M  V30 2403 H 212.355 -4.12656 2.87618 0
M  V30 2404 H 212.055 -3.68606 4.57606 0
M  V30 2405 H 213.579 -4.50206 4.12488 0
M  V30 2406 H 214.993 -2.4838 5.16701 0
M  V30 2407 H 213.39 -1.89393 5.6943 0
M  V30 2408 H 214.46 -0.816023 4.77984 0
M  V30 2409 N 215.803 -1.52179 -0.40978 0
M  V30 2410 C 216.733 -1.78435 -1.5061 0
M  V30 2411 C 217.714 -0.635295 -1.57791 0
M  V30 2412 O 218.899 -0.880823 -1.73076 0
M  V30 2413 C 216.029 -1.93444 -2.88439 0
M  V30 2414 C 214.983 -3.09038 -2.96108 0
M  V30 2415 C 214.309 -3.09268 -4.36185 0
M  V30 2416 C 215.609 -4.48508 -2.67652 0
M  V30 2417 H 217.303 -2.70237 -1.28889 0
M  V30 2418 H 214.849 -1.30036 -0.618605 0
M  V30 2419 H 216.802 -2.10394 -3.65119 0
M  V30 2420 H 215.526 -0.983129 -3.11452 0
M  V30 2421 H 214.185 -2.91837 -2.21872 0
M  V30 2422 H 213.833 -2.11861 -4.56206 0
M  V30 2423 H 213.533 -3.86907 -4.42241 0
M  V30 2424 H 215.057 -3.28348 -5.14801 0
M  V30 2425 H 216.471 -4.65918 -3.34056 0
M  V30 2426 H 214.868 -5.28059 -2.85085 0
M  V30 2427 H 215.938 -4.56649 -1.63095 0
M  V30 2428 N 217.281 0.66697 -1.42791 0
M  V30 2429 C 218.191 1.80962 -1.49299 0
M  V30 2430 C 219.207 1.69775 -0.381108 0
M  V30 2431 O 220.383 1.91188 -0.633188 0
M  V30 2432 C 217.448 3.17156 -1.40045 0
M  V30 2433 C 216.509 3.40242 -2.6179 0
M  V30 2434 C 215.742 4.69939 -2.52969 0
M  V30 2435 O 215.965 5.48372 -1.56985 0
M  V30 2436 O 214.899 4.94441 -3.43237 0
M  V30 2437 H 218.725 1.78427 -2.45759 0
M  V30 2438 H 216.31 0.823713 -1.24641 0
M  V30 2439 H 218.192 3.98413 -1.37276 0
M  V30 2440 H 216.867 3.20312 -0.467138 0
M  V30 2441 H 215.774 2.58802 -2.70134 0
M  V30 2442 H 217.107 3.41923 -3.54047 0
M  V30 2443 N 218.759 1.29093 0.90403 0
M  V30 2444 C 220.036 1.075 1.63411 0
M  V30 2445 C 220.416 -0.382346 2.07609 0
M  V30 2446 O 219.764 -1.37031 1.82851 0
M  V30 2447 C 219.974 2.05858 2.81822 0
M  V30 2448 C 221.322 2.36539 3.52611 0
M  V30 2449 O 222.346 2.04019 2.91984 0
M  V30 2450 O 221.205 2.92085 4.61897 0
M  V30 2451 H 218.299 0.411547 0.717327 0
M  V30 2452 H 220.845 1.40449 0.952479 0
M  V30 2453 H 219.617 3.04037 2.46327 0
M  V30 2454 H 219.24 1.73613 3.57693 0
M  V30 2455 N 220.237 -1.11381 1.11499 0
M  V30 2456 C 221.184 -2.17439 0.773887 0
M  V30 2457 C 222.154 -1.64132 -0.254899 0
M  V30 2458 O 223.339 -1.90345 -0.13168 0
M  V30 2459 C 220.479 -3.44373 0.223917 0
M  V30 2460 C 219.592 -4.1168 1.30934 0
M  V30 2461 C 218.727 -5.263 0.71984 0
M  V30 2462 C 217.766 -5.85493 1.78507 0
M  V30 2463 N 216.903 -6.91507 1.21502 0
M  V30 2464 H 221.743 -2.45962 1.68246 0
M  V30 2465 H 219.28 -1.20744 0.840191 0
M  V30 2466 H 221.238 -4.17047 -0.112921 0
M  V30 2467 H 219.868 -3.16232 -0.647851 0
M  V30 2468 H 218.92 -3.37073 1.76312 0
M  V30 2469 H 220.232 -4.51729 2.11524 0
M  V30 2470 H 219.386 -6.05785 0.333094 0
M  V30 2471 H 218.125 -4.87559 -0.117377 0
M  V30 2472 H 217.13 -5.04686 2.18111 0
M  V30 2473 H 218.355 -6.26301 2.62533 0
M  V30 2474 H 216.301 -6.54783 0.399455 0
M  V30 2475 H 216.218 -7.30214 1.95763 0
M  V30 2476 H 217.486 -7.74795 0.855181 0
M  V30 2477 N 221.715 -0.905404 -1.28997 0
M  V30 2478 C 222.962 -0.534248 -1.95325 0
M  V30 2479 C 223.29 0.920535 -1.71337 0
M  V30 2480 O 222.545 1.66861 -1.02254 0
M  V30 2481 C 222.844 -0.779906 -3.48787 0
M  V30 2482 C 222.51 -2.21293 -3.92861 0
M  V30 2483 C 221.172 -2.60475 -4.04606 0
M  V30 2484 C 223.524 -3.14587 -4.15553 0
M  V30 2485 C 220.852 -3.9212 -4.36416 0
M  V30 2486 C 223.204 -4.45787 -4.48839 0
M  V30 2487 C 221.868 -4.84834 -4.58794 0
M  V30 2488 H 221.138 -0.195495 -0.714747 0
M  V30 2489 H 223.785 -1.14514 -1.53488 0
M  V30 2490 H 222.09 -0.0861365 -3.91705 0
M  V30 2491 H 223.787 -0.472029 -3.98212 0
M  V30 2492 H 220.377 -1.89887 -3.84241 0
M  V30 2493 H 224.561 -2.85528 -4.0594 0
M  V30 2494 H 219.817 -4.22086 -4.42327 0
M  V30 2495 H 223.991 -5.18098 -4.65346 0
M  V30 2496 H 221.618 -5.86877 -4.83197 0
M  V30 2497 N 223.193 1.4272 -0.668489 0
M  V30 2498 C 224.123 2.335 -0.000100175 0
M  V30 2499 C 225.104 1.50328 0.795964 0
M  V30 2500 O 226.289 1.78949 0.754385 0
M  V30 2501 C 223.419 3.33874 0.956302 0
M  V30 2502 C 222.373 4.27152 0.269278 0
M  V30 2503 C 221.699 5.17684 1.33818 0
M  V30 2504 C 222.999 5.15373 -0.847805 0
M  V30 2505 H 224.693 2.89639 -0.758244 0
M  V30 2506 H 222.239 1.39269 -0.366079 0
M  V30 2507 H 224.192 3.9629 1.43292 0
M  V30 2508 H 222.916 2.76025 1.74579 0
M  V30 2509 H 221.575 3.66123 -0.187042 0
M  V30 2510 H 221.223 4.56165 2.1195 0
M  V30 2511 H 220.923 5.80918 0.883659 0
M  V30 2512 H 222.447 5.82974 1.81586 0
M  V30 2513 H 223.861 5.7151 -0.452681 0
M  V30 2514 H 222.258 5.87407 -1.22773 0
M  V30 2515 H 223.328 4.5415 -1.69929 0
M  V30 2516 N 224.671 0.411399 1.52136 0
M  V30 2517 C 225.603 -0.448386 2.24771 0
M  V30 2518 C 226.616 -1.00828 1.27818 0
M  V30 2519 O 227.805 -0.906841 1.53749 0
M  V30 2520 C 224.905 -1.63636 2.96777 0
M  V30 2521 C 224.078 -1.19995 4.20618 0
M  V30 2522 C 223.137 -2.25509 4.75428 0
M  V30 2523 O 222.163 -1.86007 5.3795 0
M  V30 2524 N 223.365 -3.577 4.57199 0
M  V30 2525 H 226.13 0.174025 2.99194 0
M  V30 2526 H 223.691 0.238897 1.60128 0
M  V30 2527 H 225.683 -2.33793 3.30338 0
M  V30 2528 H 224.253 -2.16465 2.25526 0
M  V30 2529 H 223.473 -0.326421 3.92846 0
M  V30 2530 H 224.761 -0.885365 5.01038 0
M  V30 2531 H 224.159 -3.92543 4.07341 0
M  V30 2532 H 222.716 -4.23827 4.95191 0
M  V30 2533 N 226.149 -1.5696 0.141893 0
M  V30 2534 C 227.097 -2.17784 -0.816874 0
M  V30 2535 C 228.091 -1.1334 -1.25899 0
M  V30 2536 O 229.297 -1.316 -1.22806 0
M  V30 2537 H 225.672 -0.697278 -0.281615 0
M  V30 2538 H 227.643 -2.97087 -0.279621 0
M  V30 2539 C 226.392 -2.80983 -2.04802 0
M  V30 2540 H 225.715 -3.61062 -1.7168 0
M  V30 2541 H 227.155 -3.2705 -2.69841 0
M  V30 2542 C 225.614 -1.79228 -2.8527 0
M  V30 2543 O 226.144 -1.25962 -3.8144 0
M  V30 2544 N 224.35 -1.48647 -2.49704 0
M  V30 2545 H 223.897 -1.92155 -1.71564 0
M  V30 2546 H 223.855 -0.808115 -3.03837 0
M  V30 2547 N 227.627 0.131896 -1.57047 0
M  V30 2548 C 228.574 1.16236 -1.99393 0
M  V30 2549 C 229.544 1.41863 -0.863943 0
M  V30 2550 O 230.729 1.53946 -1.12718 0
M  V30 2551 C 227.869 2.48708 -2.39245 0
M  V30 2552 C 226.982 2.30127 -3.65603 0
M  V30 2553 C 226.117 3.55738 -3.94492 0
M  V30 2554 C 225.156 3.32259 -5.14073 0
M  V30 2555 N 224.293 4.50039 -5.38896 0
M  V30 2556 H 229.133 0.794251 -2.87221 0
M  V30 2557 H 226.67 0.380707 -1.42088 0
M  V30 2558 H 228.628 3.25969 -2.60384 0
M  V30 2559 H 227.258 2.83437 -1.54478 0
M  V30 2560 H 226.31 1.43845 -3.52154 0
M  V30 2561 H 227.622 2.08746 -4.5302 0
M  V30 2562 H 226.776 4.41423 -4.1621 0
M  V30 2563 H 225.515 3.80138 -3.05526 0
M  V30 2564 H 224.52 2.44963 -4.92212 0
M  V30 2565 H 225.745 3.09242 -6.04604 0
M  V30 2566 H 223.691 4.74584 -4.52886 0
M  V30 2567 H 223.608 4.31716 -6.2061 0
M  V30 2568 H 224.876 5.36895 -5.65123 0
M  V30 2569 N 229.106 1.52395 0.401703 0
M  V30 2570 C 230.069 1.75636 1.47257 0
M  V30 2571 C 231.069 0.62628 1.48103 0
M  V30 2572 O 232.259 0.894227 1.49497 0
M  V30 2573 C 229.391 1.84553 2.86624 0
M  V30 2574 H 230.584 2.71241 1.27938 0
M  V30 2575 H 228.137 1.42923 0.632662 0
M  V30 2576 H 228.872 0.908882 3.11303 0
M  V30 2577 H 228.657 2.66715 2.87412 0
M  V30 2578 H 230.147 2.04251 3.64241 0
M  V30 2579 N 230.584 -0.659388 1.43143 0
M  V30 2580 C 231.831 -1.41935 1.44433 0
M  V30 2581 C 232.159 -1.94387 0.0663522 0
M  V30 2582 O 231.414 -1.72314 -0.927706 0
M  V30 2583 C 231.713 -2.62206 2.42864 0
M  V30 2584 C 231.379 -2.28208 3.88886 0
M  V30 2585 C 230.041 -2.18647 4.28657 0
M  V30 2586 C 232.393 -2.00887 4.8093 0
M  V30 2587 C 229.721 -1.79914 5.58433 0
M  V30 2588 C 232.073 -1.63653 6.11065 0
M  V30 2589 C 230.737 -1.52614 6.49819 0
M  V30 2590 H 230.007 -0.519376 0.528517 0
M  V30 2591 H 232.654 -0.750453 1.76183 0
M  V30 2592 H 230.959 -3.34199 2.04495 0
M  V30 2593 H 232.656 -3.2041 2.41119 0
M  V30 2594 H 229.246 -2.36557 3.57406 0
M  V30 2595 H 233.43 -2.07198 4.5098 0
M  V30 2596 H 228.686 -1.69948 5.87305 0
M  V30 2597 H 232.86 -1.41543 6.81864 0
M  V30 2598 H 230.487 -1.22371 7.50286 0
M  V30 2599 N 232.062 -1.29571 -0.897171 0
M  V30 2600 C 232.992 -1.17473 -2.01798 0
M  V30 2601 C 233.973 -0.068323 -1.69963 0
M  V30 2602 O 235.158 -0.248239 -1.92607 0
M  V30 2603 C 232.288 -0.853099 -3.36659 0
M  V30 2604 C 231.242 -1.9161 -3.82713 0
M  V30 2605 C 230.568 -1.44773 -5.14728 0
M  V30 2606 C 231.868 -3.32535 -4.02763 0
M  V30 2607 H 233.562 -2.11237 -2.12177 0
M  V30 2608 H 231.108 -1.01699 -1.01948 0
M  V30 2609 H 233.061 -0.755165 -4.14578 0
M  V30 2610 H 231.785 0.120236 -3.26379 0
M  V30 2611 H 230.444 -2.00346 -3.07013 0
M  V30 2612 H 230.092 -0.462995 -5.00865 0
M  V30 2613 H 229.792 -2.15865 -5.46513 0
M  V30 2614 H 231.316 -1.36334 -5.95185 0
M  V30 2615 H 232.73 -3.26626 -4.71156 0
M  V30 2616 H 231.127 -4.01607 -4.45905 0
M  V30 2617 H 232.197 -3.75326 -3.07016 0
M  V30 2618 N 233.54 1.10788 -1.12088 0
M  V30 2619 C 234.768 1.86461 -0.896651 0
M  V30 2620 C 235.183 1.80492 0.553912 0
M  V30 2621 O 234.54 1.19102 1.38278 0
M  V30 2622 C 234.591 3.35006 -1.35843 0
M  V30 2623 O 234.312 3.40866 -2.75213 0
M  V30 2624 C 235.813 4.27565 -1.1706 0
M  V30 2625 H 233.033 0.589425 -0.320654 0
M  V30 2626 H 235.577 1.40076 -1.48993 0
M  V30 2627 H 233.732 3.7887 -0.808458 0
M  V30 2628 H 234.146 4.33411 -2.9539 0
M  V30 2629 H 235.62 5.30007 -1.54263 0
M  V30 2630 H 236.097 4.3906 -0.110814 0
M  V30 2631 H 236.703 3.89501 -1.70789 0
M  V30 2632 N 235.018 0.912232 1.28515 0
M  V30 2633 C 236.266 0.543523 1.94654 0
M  V30 2634 C 236.587 -0.9155 1.72173 0
M  V30 2635 O 235.857 -1.64708 1.06058 0
M  V30 2636 H 234.437 0.198017 0.720277 0
M  V30 2637 H 237.099 1.16126 1.56527 0
M  V30 2638 H 236.195 0.736684 3.03281 0
M  V30 2639 N 236.496 -1.42363 0.676048 0
M  V30 2640 C 237.907 -1.84649 0.275948 0
M  V30 2641 C 238.258 -1.56588 -1.18214 0
M  V30 2642 O 237.383 -1.02634 -1.90513 0
M  V30 2643 C 237.978 -3.35178 0.494053 0
M  V30 2644 C 236.537 -3.76109 0.148061 0
M  V30 2645 C 235.684 -2.65931 0.785891 0
M  V30 2646 H 238.635 -1.32192 0.878121 0
M  V30 2647 H 238.656 -3.79655 -0.25343 0
M  V30 2648 H 238.168 -3.55571 1.55535 0
M  V30 2649 H 236.269 -3.61323 -0.909742 0
M  V30 2650 H 236.382 -4.7546 0.589454 0
M  V30 2651 H 234.746 -2.53773 0.217113 0
M  V30 2652 H 235.529 -2.89146 1.85067 0
M  V30 2653 N 237.974 -0.419461 -1.51915 0
M  V30 2654 C 238.924 0.418496 -2.24126 0
M  V30 2655 C 239.908 1.00495 -1.25656 0
M  V30 2656 O 241.1 0.926058 -1.50842 0
M  V30 2657 C 238.229 1.52899 -3.07371 0
M  V30 2658 C 237.315 0.952797 -4.13258 0
M  V30 2659 N 237.706 0.104175 -5.05693 0
M  V30 2660 C 236.004 1.22224 -4.28926 0
M  V30 2661 C 236.705 -0.21752 -5.81293 0
M  V30 2662 N 235.681 0.394293 -5.42168 0
M  V30 2663 H 239.483 -0.236048 -2.92951 0
M  V30 2664 H 236.997 -0.230481 -1.60756 0
M  V30 2665 H 238.994 2.14199 -3.57665 0
M  V30 2666 H 237.654 2.18605 -2.40088 0
M  V30 2667 H 238.665 -0.260924 -5.17242 0
M  V30 2668 H 235.342 1.87812 -3.72871 0
M  V30 2669 H 236.732 -0.906992 -6.6575 0
M  V30 2670 N 239.452 1.56882 -0.150215 0
M  V30 2671 C 240.701 1.95403 0.500071 0
M  V30 2672 C 241.014 1.03777 1.658 0
M  V30 2673 O 242.22 1.31889 2.37313 0
M  V30 2674 C 240.676 3.4738 0.941018 0
M  V30 2675 C 240.284 4.47596 -0.190158 0
M  V30 2676 C 242.028 3.9476 1.56091 0
M  V30 2677 C 239.935 5.90787 0.269237 0
M  V30 2678 H 238.865 0.729515 0.190588 0
M  V30 2679 H 241.516 1.81988 -0.235074 0
M  V30 2680 H 239.898 3.56138 1.73152 0
M  V30 2681 H 241.072 4.50536 -0.967157 0
M  V30 2682 H 239.387 4.10151 -0.718666 0
M  V30 2683 H 241.984 4.99181 1.9163 0
M  V30 2684 H 242.327 3.36494 2.45107 0
M  V30 2685 H 242.86 3.88932 0.835249 0
M  V30 2686 H 239.599 6.52879 -0.585621 0
M  V30 2687 H 239.119 5.912 1.01204 0
M  V30 2688 H 240.798 6.42979 0.720176 0
M  V30 2689 N 240.93 -0.123565 1.57115 0
M  V30 2690 C 242.155 -0.850398 1.89164 0
M  V30 2691 C 242.58 -1.7286 0.741688 0
M  V30 2692 O 241.938 -1.78665 -0.307958 0
M  V30 2693 C 241.986 -1.66353 3.19936 0
M  V30 2694 O 241.09 -2.77004 3.0552 0
M  V30 2695 H 240.431 -0.235454 0.620852 0
M  V30 2696 H 242.961 -0.107335 2.04318 0
M  V30 2697 H 242.971 -2.05372 3.52543 0
M  V30 2698 H 241.646 -1.01881 4.03228 0
M  V30 2699 H 240.223 -2.41221 2.84371 0
M  V30 2700 N 242.408 -1.52605 -0.393616 0
M  V30 2701 C 243.338 -1.80022 -1.48709 0
M  V30 2702 C 244.319 -0.651995 -1.57108 0
M  V30 2703 O 245.504 -0.89913 -1.72132 0
M  V30 2704 C 242.634 -1.96492 -2.86371 0
M  V30 2705 C 241.588 -3.12161 -2.92813 0
M  V30 2706 C 240.914 -3.13877 -4.3288 0
M  V30 2707 C 242.214 -4.51322 -2.6288 0
M  V30 2708 H 243.908 -2.71589 -1.26015 0
M  V30 2709 H 241.454 -1.30684 -0.604778 0
M  V30 2710 H 243.407 -2.14255 -3.62867 0
M  V30 2711 H 242.131 -1.01611 -3.10391 0
M  V30 2712 H 240.79 -2.94173 -2.18764 0
M  V30 2713 H 240.438 -2.16687 -4.53933 0
M  V30 2714 H 240.138 -3.91576 -4.38112 0
M  V30 2715 H 241.662 -3.33789 -5.1129 0
M  V30 2716 H 243.076 -4.69435 -3.29096 0
M  V30 2717 H 241.473 -5.31053 -2.79468 0
M  V30 2718 H 242.543 -4.58353 -1.58242 0
M  V30 2719 N 243.887 0.651787 -1.4349 0
M  V30 2720 C 244.85 1.74647 -1.48429 0
M  V30 2721 C 245.85 1.56513 -0.368817 0
M  V30 2722 O 247.04 1.62385 -0.630623 0
M  V30 2723 C 244.172 3.13533 -1.33827 0
M  V30 2724 H 245.365 1.71649 -2.4592 0
M  V30 2725 H 242.918 0.863573 -1.30277 0
M  V30 2726 H 243.653 3.22142 -0.37349 0
M  V30 2727 H 243.438 3.28101 -2.14691 0
M  V30 2728 H 244.928 3.93356 -1.40218 0
M  V30 2729 N 245.365 1.30045 0.890287 0
M  V30 2730 C 246.642 1.09227 1.62262 0
M  V30 2731 C 247.022 -0.360305 2.08002 0
M  V30 2732 O 246.37 -1.35084 1.84295 0
M  V30 2733 C 246.58 2.08835 2.79623 0
M  V30 2734 C 247.928 2.40266 3.50082 0
M  V30 2735 O 248.952 2.07104 2.89804 0
M  V30 2736 O 247.811 2.96967 4.58773 0
M  V30 2737 H 244.905 0.419132 0.712922 0
M  V30 2738 H 247.451 1.41451 0.937529 0
M  V30 2739 H 246.223 3.06633 2.43089 0
M  V30 2740 H 245.846 1.77397 3.55832 0
M  V30 2741 N 246.843 -1.10192 1.12674 0
M  V30 2742 C 247.773 -2.18652 0.819362 0
M  V30 2743 C 248.754 -1.68698 -0.217915 0
M  V30 2744 O 249.939 -1.94041 -0.0785581 0
M  V30 2745 C 247.069 -3.46202 0.27594 0
M  V30 2746 C 246.023 -4.09444 1.24656 0
M  V30 2747 C 245.349 -5.31725 0.563258 0
M  V30 2748 C 246.649 -4.52863 2.60217 0
M  V30 2749 H 248.343 -2.44622 1.72628 0
M  V30 2750 H 245.889 -1.17571 0.831451 0
M  V30 2751 H 247.842 -4.21372 0.0486149 0
M  V30 2752 H 246.566 -3.1973 -0.666331 0
M  V30 2753 H 245.225 -3.36284 1.45974 0
M  V30 2754 H 244.873 -5.0153 -0.384235 0
M  V30 2755 H 244.573 -5.74991 1.21075 0
M  V30 2756 H 246.097 -6.09624 0.34503 0
M  V30 2757 H 247.511 -5.19294 2.42913 0
M  V30 2758 H 245.908 -5.06986 3.21068 0
M  V30 2759 H 246.978 -3.65656 3.18471 0
M  V30 2760 N 248.321 -0.919034 -1.28029 0
M  V30 2761 C 249.567 -0.555757 -1.95036 0
M  V30 2762 C 249.9 0.899198 -1.72128 0
M  V30 2763 O 249.175 1.64023 -1.04531 0
M  V30 2764 C 249.458 -0.872024 -3.49382 0
M  V30 2765 C 249.311 -2.3801 -3.81669 0
M  V30 2766 C 250.63 -0.37185 -4.38526 0
M  V30 2767 H 247.749 -0.203386 -0.708381 0
M  V30 2768 H 250.391 -1.14924 -1.51303 0
M  V30 2769 H 248.541 -0.366946 -3.86763 0
M  V30 2770 H 250.213 -2.9562 -3.54128 0
M  V30 2771 H 248.456 -2.83289 -3.28526 0
M  V30 2772 H 249.127 -2.55192 -4.8947 0
M  V30 2773 H 251.603 -0.804602 -4.08247 0
M  V30 2774 H 250.479 -0.622173 -5.45362 0
M  V30 2775 H 250.74 0.727934 -4.36066 0
M  V30 2776 N 249.799 1.42003 -0.683588 0
M  V30 2777 C 250.762 2.29191 -0.0198243 0
M  V30 2778 C 251.762 1.43773 0.72013 0
M  V30 2779 O 252.952 1.65061 0.556815 0
M  V30 2780 C 250.084 3.26435 0.982487 0
M  V30 2781 H 251.277 2.8938 -0.787345 0
M  V30 2782 H 248.83 1.49789 -0.446418 0
M  V30 2783 H 249.565 2.71203 1.77819 0
M  V30 2784 H 249.35 3.89449 0.455182 0
M  V30 2785 H 250.84 3.918 1.44508 0
M  V30 2786 N 251.277 0.427512 1.51691 0
M  V30 2787 C 252.526 -0.143679 2.01188 0
M  V30 2788 C 252.839 -1.44642 1.31674 0
M  V30 2789 O 254.045 -2.09997 1.72086 0
M  V30 2790 C 252.501 -0.306602 3.58592 0
M  V30 2791 C 252.109 0.985125 4.37035 0
M  V30 2792 C 253.853 -0.832091 4.16265 0
M  V30 2793 C 251.76 0.788382 5.86122 0
M  V30 2794 H 250.69 -0.0574701 0.751807 0
M  V30 2795 H 253.341 0.555772 1.74881 0
M  V30 2796 H 251.723 -1.06882 3.81303 0
M  V30 2797 H 252.897 1.75492 4.26074 0
M  V30 2798 H 251.212 1.4384 3.90767 0
M  V30 2799 H 253.809 -0.995617 5.25349 0
M  V30 2800 H 254.152 -1.81186 3.74803 0
M  V30 2801 H 254.685 -0.128444 3.97593 0
M  V30 2802 H 251.424 1.74025 6.31978 0
M  V30 2803 H 250.944 0.0582143 5.99772 0
M  V30 2804 H 252.623 0.437722 6.45518 0
M  V30 2805 N 252.755 -1.56801 0.158532 0
M  V30 2806 C 253.983 -2.00859 -0.496303 0
M  V30 2807 C 254.398 -1.03871 -1.57659 0
M  V30 2808 O 253.755 -0.0375165 -1.82461 0
M  V30 2809 C 253.806 -3.4479 -1.08638 0
M  V30 2810 O 253.527 -4.38072 -0.0492322 0
M  V30 2811 C 255.028 -4.04185 -1.8207 0
M  V30 2812 H 252.248 -0.65864 -0.128199 0
M  V30 2813 H 254.792 -2.02885 0.256506 0
M  V30 2814 H 252.947 -3.43579 -1.78975 0
M  V30 2815 H 253.361 -5.2227 -0.483102 0
M  V30 2816 H 254.835 -5.06857 -2.18633 0
M  V30 2817 H 255.312 -3.45549 -2.71095 0
M  V30 2818 H 255.918 -4.0906 -1.16405 0
M  V30 2819 N 254.233 0.115231 -1.57178 0
M  V30 2820 C 255.143 1.15994 -2.03918 0
M  V30 2821 C 256.159 1.45103 -0.960268 0
M  V30 2822 O 257.335 1.56144 -1.27204 0
M  V30 2823 C 254.4 2.46568 -2.43732 0
M  V30 2824 C 253.461 2.24822 -3.65723 0
M  V30 2825 C 252.694 3.4917 -4.03629 0
M  V30 2826 O 252.917 4.56623 -3.41835 0
M  V30 2827 O 251.851 3.39949 -4.96708 0
M  V30 2828 H 255.677 0.793019 -2.93164 0
M  V30 2829 H 253.262 0.3263 -1.45793 0
M  V30 2830 H 255.144 3.23492 -2.70057 0
M  V30 2831 H 253.819 2.82726 -1.57631 0
M  V30 2832 H 252.726 1.45744 -3.44542 0
M  V30 2833 H 254.059 1.93566 -4.52541 0
M  V30 2834 N 255.711 1.52812 0.385517 0
M  V30 2835 C 256.641 1.80808 1.47752 0
M  V30 2836 C 257.622 0.660318 1.5676 0
M  V30 2837 O 258.807 0.908246 1.71652 0
M  V30 2838 C 255.937 1.98008 2.85324 0
M  V30 2839 C 254.891 3.13709 2.91154 0
M  V30 2840 C 254.217 3.16169 4.31209 0
M  V30 2841 C 255.517 4.52709 2.60483 0
M  V30 2842 H 257.211 2.72253 1.24573 0
M  V30 2843 H 254.757 1.31003 0.597839 0
M  V30 2844 H 256.71 2.16176 3.61726 0
M  V30 2845 H 255.434 1.03255 3.09848 0
M  V30 2846 H 254.093 2.95329 2.17201 0
M  V30 2847 H 253.741 2.19092 4.52778 0
M  V30 2848 H 253.441 3.93894 4.36029 0
M  V30 2849 H 254.965 3.36496 5.09512 0
M  V30 2850 H 256.379 4.71173 3.26602 0
M  V30 2851 H 254.776 5.32528 2.76648 0
M  V30 2852 H 255.846 4.59186 1.55809 0
M  V30 2853 N 257.189 -0.644168 1.43834 0
M  V30 2854 C 258.122 -1.76906 1.44151 0
M  V30 2855 C 259.1 -1.59774 0.301857 0
M  V30 2856 O 260.284 -1.81834 0.496841 0
M  V30 2857 C 257.411 -3.14321 1.26174 0
M  V30 2858 C 256.457 -3.50134 2.43533 0
M  V30 2859 S 257.29 -3.49085 4.06079 0
M  V30 2860 C 258.446 -4.89142 3.90501 0
M  V30 2861 H 258.679 -1.76368 2.39336 0
M  V30 2862 H 256.212 -0.817624 1.30974 0
M  V30 2863 H 258.17 -3.93625 1.16489 0
M  V30 2864 H 256.831 -3.12412 0.325224 0
M  V30 2865 H 256.024 -4.50095 2.26783 0
M  V30 2866 H 255.626 -2.78264 2.4989 0
M  V30 2867 H 257.918 -5.78036 3.53385 0
M  V30 2868 H 258.861 -5.10945 4.90246 0
M  V30 2869 H 259.269 -4.63102 3.22795 0
M  V30 2870 N 258.668 -1.30515 -0.883378 0
M  V30 2871 C 259.618 -1.13641 -1.9766 0
M  V30 2872 C 260.602 -0.0511314 -1.60819 0
M  V30 2873 O 261.794 -0.274623 -1.74857 0
M  V30 2874 C 258.923 -0.831976 -3.33066 0
M  V30 2875 C 258.009 -1.95759 -3.76217 0
M  V30 2876 N 258.4 -3.20313 -3.9145 0
M  V30 2877 C 256.698 -1.85431 -4.05625 0
M  V30 2878 C 257.399 -3.93856 -4.2808 0
M  V30 2879 N 256.375 -3.21919 -4.38029 0
M  V30 2880 H 260.177 -2.08106 -2.07531 0
M  V30 2881 H 257.691 -1.21877 -1.0733 0
M  V30 2882 H 259.688 -0.692102 -4.11115 0
M  V30 2883 H 258.348 0.104588 -3.24532 0
M  V30 2884 H 259.359 -3.55583 -3.76538 0
M  V30 2885 H 256.036 -0.991531 -4.05555 0
M  V30 2886 H 257.426 -5.01125 -4.47575 0
M  V30 2887 N 260.146 1.09593 -1.13257 0
M  V30 2888 C 261.557 1.63229 -0.906274 0
M  V30 2889 C 261.908 1.8811 0.557578 0
M  V30 2890 O 261.033 1.62953 1.42391 0
M  V30 2891 C 261.628 2.96535 -1.63867 0
M  V30 2892 C 260.187 3.47003 -1.45828 0
M  V30 2893 C 259.334 2.2145 -1.66898 0
M  V30 2894 H 262.285 0.92978 -1.28611 0
M  V30 2895 H 262.306 3.64411 -1.09476 0
M  V30 2896 H 261.818 2.78394 -2.70404 0
M  V30 2897 H 259.919 3.70272 -0.415848 0
M  V30 2898 H 260.032 4.24551 -2.2202 0
M  V30 2899 H 258.396 2.30022 -1.09371 0
M  V30 2900 H 259.179 2.0583 -2.74752 0
M  V30 2901 N 261.624 0.925811 1.2754 0
M  V30 2902 C 262.87 0.566092 1.94739 0
M  V30 2903 C 263.203 -0.890057 1.72603 0
M  V30 2904 O 262.478 -1.63467 1.05399 0
M  V30 2905 C 262.761 0.89054 3.48915 0
M  V30 2906 C 262.614 2.4003 3.80402 0
M  V30 2907 C 263.933 0.395101 4.38323 0
M  V30 2908 H 261.052 0.20714 0.707292 0
M  V30 2909 H 263.694 1.15725 1.50691 0
M  V30 2910 H 261.844 0.387452 3.86563 0
M  V30 2911 H 263.516 2.97494 3.52555 0
M  V30 2912 H 261.759 2.85028 3.2702 0
M  V30 2913 H 262.43 2.57785 4.8811 0
M  V30 2914 H 264.906 0.826241 4.07814 0
M  V30 2915 H 263.782 0.651086 5.45025 0
M  V30 2916 H 264.043 -0.704798 4.36446 0
M  V30 2917 N 263.102 -1.41638 0.69111 0
M  V30 2918 C 264.35 -2.00902 0.219758 0
M  V30 2919 C 264.671 -1.54994 -1.18329 0
M  V30 2920 O 263.941 -0.778628 -1.79762 0
M  V30 2921 H 262.521 -0.74289 0.0782558 0
M  V30 2922 H 265.183 -1.73327 0.891271 0
M  V30 2923 H 264.279 -3.11224 0.233708 0
M  V30 2924 N 264.58 -0.43555 -1.51462 0
M  V30 2925 C 265.543 0.365137 -2.26273 0
M  V30 2926 C 266.543 0.951227 -1.29647 0
M  V30 2927 O 267.733 0.825958 -1.53374 0
M  V30 2928 C 264.865 1.51645 -3.05314 0
M  V30 2929 H 266.058 -0.290474 -2.9849 0
M  V30 2930 H 263.611 -0.188676 -1.55157 0
M  V30 2931 H 264.346 2.20816 -2.3751 0
M  V30 2932 H 264.131 1.10238 -3.76284 0
M  V30 2933 H 265.621 2.08218 -3.61987 0
M  V30 2934 N 266.058 1.56714 -0.166846 0
M  V30 2935 C 267.306 1.96358 0.478305 0
M  V30 2936 C 267.627 1.0537 1.6408 0
M  V30 2937 O 266.897 0.119154 1.95537 0
M  V30 2938 H 265.477 0.725065 0.179692 0
M  V30 2939 H 268.139 1.93329 -0.246985 0
M  V30 2940 H 267.235 3.00547 0.841292 0
M  V30 2941 N 267.536 -0.106894 1.57237 0
M  V30 2942 C 268.776 -0.818277 1.87306 0
M  V30 2943 C 269.14 -1.76474 0.756371 0
M  V30 2944 O 270.341 -2.5186 0.939155 0
M  V30 2945 C 268.612 -1.53806 3.22612 0
M  V30 2946 S 270.171 -2.28935 3.74345 0
M  V30 2947 H 266.989 -0.272862 0.656557 0
M  V30 2948 H 269.591 -0.075988 1.95352 0
M  V30 2949 H 268.295 -0.834951 4.01817 0
M  V30 2950 H 267.826 -2.32049 3.17674 0
M  V30 2951 H 269.841 -3.54871 3.46815 0
M  V30 2952 N 269.014 -1.53014 -0.377408 0
M  V30 2953 C 269.946 -1.74884 -1.48149 0
M  V30 2954 C 270.959 -0.629433 -1.5014 0
M  V30 2955 O 272.148 -0.905416 -1.53833 0
M  V30 2956 C 269.248 -1.80299 -2.86959 0
M  V30 2957 C 268.421 -3.09776 -3.08801 0
M  V30 2958 C 267.48 -3.06586 -4.27658 0
M  V30 2959 O 266.506 -3.80419 -4.23403 0
M  V30 2960 N 267.708 -2.26578 -5.34455 0
M  V30 2961 H 270.473 -2.70147 -1.29771 0
M  V30 2962 H 268.034 -1.51646 -0.56703 0
M  V30 2963 H 270.026 -1.75657 -3.64591 0
M  V30 2964 H 268.596 -0.92372 -2.98641 0
M  V30 2965 H 267.816 -3.27815 -2.18931 0
M  V30 2966 H 269.104 -3.95366 -3.20255 0
M  V30 2967 H 268.502 -1.66081 -5.40771 0
M  V30 2968 H 267.059 -2.27766 -6.10709 0
M  V30 2969 N 270.492 0.636531 -1.44174 0
M  V30 2970 C 271.738 1.39826 -1.4689 0
M  V30 2971 C 272.071 1.93947 -0.0990585 0
M  V30 2972 O 271.346 1.73325 0.882544 0
M  V30 2973 C 271.629 2.56751 -2.5249 0
M  V30 2974 C 271.482 2.08014 -3.98811 0
M  V30 2975 C 272.801 3.58946 -2.54649 0
M  V30 2976 H 269.92 0.507075 -0.53483 0
M  V30 2977 H 272.562 0.720188 -1.75822 0
M  V30 2978 H 270.712 3.14597 -2.2795 0
M  V30 2979 H 272.384 1.5504 -4.34466 0
M  V30 2980 H 270.627 1.39242 -4.10846 0
M  V30 2981 H 271.298 2.92169 -4.68339 0
M  V30 2982 H 273.774 3.1089 -2.76563 0
M  V30 2983 H 272.65 4.38286 -3.3045 0
M  V30 2984 H 272.911 4.12655 -1.58646 0
M  V30 2985 N 271.97 1.30982 0.876444 0
M  V30 2986 C 273.217 1.20296 1.62896 0
M  V30 2987 C 273.545 -0.240395 1.93009 0
M  V30 2988 O 272.8 -1.18733 1.55567 0
M  V30 2989 C 273.099 1.98572 2.9716 0
M  V30 2990 C 272.765 3.48125 2.86566 0
M  V30 2991 C 271.427 3.88905 2.83383 0
M  V30 2992 C 273.779 4.43322 2.74071 0
M  V30 2993 C 271.107 5.2316 2.65556 0
M  V30 2994 C 273.459 5.77695 2.57781 0
M  V30 2995 C 272.123 6.17704 2.52979 0
M  V30 2996 H 271.393 0.440193 0.59608 0
M  V30 2997 H 274.04 1.62177 1.01837 0
M  V30 2998 H 272.345 1.49352 3.62217 0
M  V30 2999 H 274.042 1.8769 3.54364 0
M  V30 3000 H 270.632 3.15723 2.89856 0
M  V30 3001 H 274.816 4.12752 2.75589 0
M  V30 3002 H 270.072 5.53241 2.60259 0
M  V30 3003 H 274.246 6.51091 2.47089 0
M  V30 3004 H 271.873 7.21678 2.38924 0
M  V30 3005 N 273.449 -1.08991 1.13837 0
M  V30 3006 C 274.359 -2.19301 0.833333 0
M  V30 3007 C 275.375 -1.73026 -0.183847 0
M  V30 3008 O 276.551 -2.01395 -0.0138092 0
M  V30 3009 C 273.616 -3.45323 0.308651 0
M  V30 3010 C 272.677 -4.06255 1.38764 0
M  V30 3011 C 271.91 -5.26262 0.887896 0
M  V30 3012 O 272.133 -5.69747 -0.27287 0
M  V30 3013 O 271.067 -5.78435 1.66421 0
M  V30 3014 H 274.893 -2.47854 1.75506 0
M  V30 3015 H 272.478 -1.18012 0.916166 0
M  V30 3016 H 274.36 -4.21394 0.0216739 0
M  V30 3017 H 273.035 -3.18362 -0.585431 0
M  V30 3018 H 271.942 -3.318 1.72799 0
M  V30 3019 H 273.275 -4.37452 2.25602 0
M  V30 3020 N 274.927 -0.932562 -1.27047 0
M  V30 3021 C 276.175 -0.574422 -1.93765 0
M  V30 3022 C 276.496 0.887993 -1.73608 0
M  V30 3023 O 275.766 1.62999 -1.08665 0
M  V30 3024 H 274.346 -0.209451 -0.717035 0
M  V30 3025 H 277.008 -1.18601 -1.5466 0
M  V30 3026 H 276.104 -0.784841 -3.02071 0
M  V30 3027 N 276.405 1.4127 -0.698611 0
M  V30 3028 C 277.821 1.55241 -0.370462 0
M  V30 3029 C 278.021 1.67351 1.12231 0
M  V30 3030 O 277.077 1.65363 1.90818 0
M  V30 3031 C 278.39 2.78997 -1.12165 0
M  V30 3032 C 279.938 2.92797 -1.1063 0
M  V30 3033 C 280.413 4.19445 -1.8393 0
M  V30 3034 N 281.904 4.26409 -1.80914 0
M  V30 3035 C 282.639 5.23271 -2.34467 0
M  V30 3036 N 282.135 6.26145 -2.96504 0
M  V30 3037 N 283.928 5.15232 -2.24706 0
M  V30 3038 H 276.079 1.31654 -1.66676 0
M  V30 3039 H 278.342 0.635393 -0.703548 0
M  V30 3040 H 278.048 2.76268 -2.17644 0
M  V30 3041 H 277.922 3.70606 -0.702209 0
M  V30 3042 H 280.309 2.95039 -0.0597713 0
M  V30 3043 H 280.39 2.02353 -1.56483 0
M  V30 3044 H 280.034 4.17964 -2.88563 0
M  V30 3045 H 279.964 5.08866 -1.35509 0
M  V30 3046 H 282.455 3.527 -1.35687 0
M  V30 3047 H 282.768 6.96451 -3.34927 0
M  V30 3048 H 281.113 6.26638 -3.00583 0
M  V30 3049 H 284.304 4.33789 -1.7591 0
M  V30 3050 H 284.477 5.90552 -2.66745 0
M  V30 3051 N 277.883 0.443576 1.51229 0
M  V30 3052 C 279.294 -0.0180867 1.86691 0
M  V30 3053 C 279.645 -1.41384 1.36033 0
M  V30 3054 O 278.77 -2.04291 0.713722 0
M  V30 3055 C 279.365 -0.039597 3.38777 0
M  V30 3056 C 277.924 -0.445692 3.73752 0
M  V30 3057 C 277.071 0.357584 2.74985 0
M  V30 3058 H 280.022 0.659138 1.44364 0
M  V30 3059 H 280.043 -0.847761 3.70936 0
M  V30 3060 H 279.555 0.976382 3.75617 0
M  V30 3061 H 277.656 -1.46704 3.42503 0
M  V30 3062 H 277.769 -0.166155 4.78812 0
M  V30 3063 H 276.133 -0.184973 2.54027 0
M  V30 3064 H 276.916 1.37256 3.14668 0
M  V30 3065 N 279.361 -1.56624 0.175154 0
M  V30 3066 C 280.308 -2.18149 -0.753634 0
M  V30 3067 C 281.278 -1.12265 -1.22417 0
M  V30 3068 O 282.463 -1.40432 -1.29165 0
M  V30 3069 C 279.603 -2.82933 -1.97592 0
M  V30 3070 C 278.716 -4.03289 -1.5486 0
M  V30 3071 C 277.851 -4.55988 -2.72485 0
M  V30 3072 C 276.89 -5.68746 -2.26262 0
M  V30 3073 N 276.027 -6.15938 -3.36994 0
M  V30 3074 H 280.867 -2.9717 -0.222195 0
M  V30 3075 H 278.404 -1.46774 -0.0979422 0
M  V30 3076 H 280.362 -3.18653 -2.69288 0
M  V30 3077 H 278.992 -2.06509 -2.481 0
M  V30 3078 H 278.044 -3.73364 -0.728246 0
M  V30 3079 H 279.356 -4.849 -1.16933 0
M  V30 3080 H 278.51 -4.9391 -3.52332 0
M  V30 3081 H 277.249 -3.73443 -3.13674 0
M  V30 3082 H 276.254 -5.30372 -1.44863 0
M  V30 3083 H 277.479 -6.53095 -1.86127 0
M  V30 3084 H 275.425 -5.36321 -3.77751 0
M  V30 3085 H 275.342 -6.92548 -3.03172 0
M  V30 3086 H 276.61 -6.58511 -4.17114 0
M  V30 3087 N 280.839 0.0985539 -1.57292 0
M  V30 3088 C 281.769 1.12064 -2.04851 0
M  V30 3089 C 282.75 1.41981 -0.936767 0
M  V30 3090 O 283.935 1.52071 -1.20781 0
M  V30 3091 C 281.065 2.44144 -2.47004 0
M  V30 3092 C 280.019 2.28643 -3.6181 0
M  V30 3093 C 279.345 3.65869 -3.89929 0
M  V30 3094 C 280.645 1.72986 -4.92822 0
M  V30 3095 H 282.339 0.724979 -2.9049 0
M  V30 3096 H 279.885 0.34729 -1.39749 0
M  V30 3097 H 281.838 3.15914 -2.78884 0
M  V30 3098 H 280.562 2.85639 -1.5836 0
M  V30 3099 H 279.221 1.59318 -3.30172 0
M  V30 3100 H 278.869 4.04885 -2.98458 0
M  V30 3101 H 278.569 3.56344 -4.67218 0
M  V30 3102 H 280.093 4.39112 -4.2428 0
M  V30 3103 H 281.507 2.34593 -5.23105 0
M  V30 3104 H 279.904 1.74229 -5.74251 0
M  V30 3105 H 280.974 0.689007 -4.7998 0
M  V30 3106 N 282.317 1.53212 0.369288 0
M  V30 3107 C 283.28 1.7872 1.43498 0
M  V30 3108 C 284.28 0.657554 1.46741 0
M  V30 3109 O 285.47 0.925736 1.47566 0
M  V30 3110 C 282.602 1.90591 2.82645 0
M  V30 3111 H 283.795 2.73894 1.22156 0
M  V30 3112 H 281.348 1.44233 0.602203 0
M  V30 3113 H 282.083 0.974709 3.09306 0
M  V30 3114 H 281.868 2.72751 2.8169 0
M  V30 3115 H 283.358 2.11931 3.59826 0
M  V30 3116 N 283.795 -0.628877 1.44509 0
M  V30 3117 C 285.023 -1.41554 1.50897 0
M  V30 3118 C 285.438 -1.8832 0.134564 0
M  V30 3119 O 284.795 -1.60969 -0.859965 0
M  V30 3120 C 284.846 -2.63435 2.47556 0
M  V30 3121 O 284.567 -2.18619 3.79654 0
M  V30 3122 C 286.068 -3.56537 2.63431 0
M  V30 3123 H 283.288 -0.434044 0.511709 0
M  V30 3124 H 285.832 -0.768895 1.89495 0
M  V30 3125 H 283.987 -3.24187 2.12089 0
M  V30 3126 H 284.401 -2.97652 4.31861 0
M  V30 3127 H 285.875 -4.38657 3.35088 0
M  V30 3128 H 286.352 -4.05493 1.68738 0
M  V30 3129 H 286.958 -3.01653 2.9981 0
M  V30 3130 N 285.273 -1.31445 -0.869486 0
M  V30 3131 C 286.519 -1.22347 -1.62489 0
M  V30 3132 C 286.874 0.216204 -1.91181 0
M  V30 3133 O 286.167 1.14977 -1.53268 0
M  V30 3134 C 286.361 -2.00145 -2.96102 0
M  V30 3135 C 286.19 -3.51531 -2.80456 0
M  V30 3136 C 284.96 -4.20882 -2.79618 0
M  V30 3137 C 287.158 -4.46471 -2.5528 0
M  V30 3138 N 285.14 -5.58421 -2.55027 0
M  V30 3139 C 286.511 -5.71682 -2.39957 0
M  V30 3140 C 288.566 -4.35892 -2.40629 0
M  V30 3141 C 287.269 -6.87511 -2.11472 0
M  V30 3142 C 289.295 -5.51505 -2.13532 0
M  V30 3143 C 288.657 -6.75707 -1.98998 0
M  V30 3144 H 284.756 -0.502815 -0.598917 0
M  V30 3145 H 287.34 -1.65639 -1.02332 0
M  V30 3146 H 285.511 -1.59221 -3.54264 0
M  V30 3147 H 287.243 -1.83063 -3.60929 0
M  V30 3148 H 283.998 -3.72857 -2.92018 0
M  V30 3149 H 284.422 -6.30841 -2.45701 0
M  V30 3150 H 289.064 -3.40533 -2.50593 0
M  V30 3151 H 286.782 -7.82897 -2.00245 0
M  V30 3152 H 290.368 -5.45238 -2.02995 0
M  V30 3153 H 289.248 -7.63655 -1.78326 0
M  V30 3154 N 286.751 1.08385 -1.14413 0
M  V30 3155 C 288.167 1.32844 -0.884563 0
M  V30 3156 C 288.367 1.95841 0.474181 0
M  V30 3157 O 287.423 2.21158 1.21842 0
M  V30 3158 C 288.736 2.22978 -2.01745 0
M  V30 3159 C 290.284 2.36458 -2.05077 0
M  V30 3160 C 290.759 3.29934 -3.1766 0
M  V30 3161 N 292.25 3.37511 -3.17239 0
M  V30 3162 C 292.985 4.09871 -4.0099 0
M  V30 3163 N 292.481 4.84936 -4.94781 0
M  V30 3164 N 294.274 4.05704 -3.89051 0
M  V30 3165 H 286.425 0.658756 -2.01926 0
M  V30 3166 H 288.688 0.352821 -0.879899 0
M  V30 3167 H 288.394 1.83934 -2.99769 0
M  V30 3168 H 288.268 3.23441 -1.94077 0
M  V30 3169 H 290.655 2.7476 -1.0766 0
M  V30 3170 H 290.736 1.35736 -2.16816 0
M  V30 3171 H 290.38 2.92352 -4.15322 0
M  V30 3172 H 290.31 4.30584 -3.03158 0
M  V30 3173 H 292.801 2.83996 -2.49308 0
M  V30 3174 H 293.114 5.37612 -5.55151 0
M  V30 3175 H 291.459 4.83988 -4.98779 0
M  V30 3176 H 294.65 3.46167 -3.15097 0
M  V30 3177 H 294.823 4.61834 -4.54547 0
M  V30 3178 N 288.23 0.939286 1.26551 0
M  V30 3179 C 289.162 0.404704 2.25599 0
M  V30 3180 C 290.175 -0.470983 1.55838 0
M  V30 3181 O 291.364 -0.281734 1.76263 0
M  V30 3182 C 288.464 -0.43764 3.36062 0
M  V30 3183 C 287.637 0.421449 4.35365 0
M  V30 3184 C 286.696 -0.36015 5.24966 0
M  V30 3185 O 285.722 0.236167 5.6871 0
M  V30 3186 N 286.924 -1.65715 5.56344 0
M  V30 3187 H 289.689 1.25618 2.72103 0
M  V30 3188 H 287.25 0.807963 1.40298 0
M  V30 3189 H 289.242 -0.967866 3.92956 0
M  V30 3190 H 287.812 -1.18991 2.89067 0
M  V30 3191 H 287.032 1.1329 3.7757 0
M  V30 3192 H 288.32 1.00835 4.98708 0
M  V30 3193 H 287.718 -2.16378 5.22682 0
M  V30 3194 H 286.275 -2.13366 6.15888 0
M  V30 3195 N 289.708 -1.40897 0.706093 0
M  V30 3196 C 291.124 -1.55042 0.37869 0
M  V30 3197 C 291.324 -1.67944 -1.11342 0
M  V30 3198 O 290.38 -1.66372 -1.89938 0
M  V30 3199 C 291.693 -2.78398 1.13643 0
M  V30 3200 C 293.241 -2.92206 1.12181 0
M  V30 3201 C 293.716 -4.18463 1.86152 0
M  V30 3202 N 295.207 -4.25443 1.83173 0
M  V30 3203 C 295.942 -5.2202 2.37239 0
M  V30 3204 N 295.438 -6.24563 2.99821 0
M  V30 3205 N 297.231 -5.14033 2.27435 0
M  V30 3206 H 289.382 -1.30769 1.67372 0
M  V30 3207 H 291.645 -0.631653 0.706907 0
M  V30 3208 H 291.351 -2.7511 2.19106 0
M  V30 3209 H 291.225 -3.70228 0.721853 0
M  V30 3210 H 293.612 -2.95004 0.0754171 0
M  V30 3211 H 293.693 -2.01521 1.57554 0
M  V30 3212 H 293.337 -4.16427 2.90776 0
M  V30 3213 H 293.267 -5.08141 1.38206 0
M  V30 3214 H 295.758 -3.51976 1.37556 0
M  V30 3215 H 296.071 -6.94665 3.38616 0
M  V30 3216 H 294.416 -6.25035 3.03902 0
M  V30 3217 H 297.607 -4.3285 1.78208 0
M  V30 3218 H 297.78 -5.89129 2.69873 0
M  V30 3219 N 291.186 -0.45159 -1.50991 0
M  V30 3220 C 292.432 0.110237 -2.025 0
M  V30 3221 C 292.765 1.41109 -1.33424 0
M  V30 3222 O 292.04 1.89135 -0.453659 0
M  V30 3223 C 292.323 0.314271 -3.58726 0
M  V30 3224 C 292.176 -1.00623 -4.38401 0
M  V30 3225 C 293.495 1.07767 -4.26702 0
M  V30 3226 H 290.614 0.0385897 -0.735989 0
M  V30 3227 H 293.256 -0.593374 -1.80497 0
M  V30 3228 H 291.406 0.913601 -3.77605 0
M  V30 3229 H 293.078 -1.64064 -4.31139 0
M  V30 3230 H 291.321 -1.6075 -4.02917 0
M  V30 3231 H 291.992 -0.817341 -5.45915 0
M  V30 3232 H 294.468 0.56986 -4.12179 0
M  V30 3233 H 293.344 1.18921 -5.35863 0
M  V30 3234 H 293.605 2.10939 -3.88532 0
M  V30 3235 N 292.664 1.56529 -0.183458 0
M  V30 3236 C 293.574 2.22144 0.754272 0
M  V30 3237 C 294.59 1.21684 1.24374 0
M  V30 3238 O 295.766 1.54385 1.29333 0
M  V30 3239 C 292.831 2.85884 1.96141 0
M  V30 3240 C 291.892 4.01579 1.51765 0
M  V30 3241 C 291.125 4.6227 2.66725 0
M  V30 3242 O 291.348 4.21865 3.83909 0
M  V30 3243 O 290.282 5.51936 2.40104 0
M  V30 3244 H 294.108 3.02861 0.225527 0
M  V30 3245 H 291.693 1.49331 0.0453032 0
M  V30 3246 H 293.575 3.26253 2.66715 0
M  V30 3247 H 292.25 2.08154 2.47899 0
M  V30 3248 H 291.157 3.65856 0.781049 0
M  V30 3249 H 292.49 4.80938 1.04686 0
M  V30 3250 N 294.142 -0.090211 1.57342 0
M  V30 3251 C 295.105 -1.09335 2.01441 0
M  V30 3252 C 296.105 -1.32666 0.908641 0
M  V30 3253 O 297.295 -1.28697 1.174 0
M  V30 3254 C 294.427 -2.44136 2.3793 0
M  V30 3255 H 295.62 -0.713662 2.91285 0
M  V30 3256 H 293.173 -0.335404 1.52659 0
M  V30 3257 H 293.908 -2.86972 1.51055 0
M  V30 3258 H 293.693 -2.28548 3.18603 0
M  V30 3259 H 295.183 -3.16277 2.72688 0
M  V30 3260 N 295.62 -1.53406 -0.361157 0
M  V30 3261 C 296.583 -1.79479 -1.42548 0
M  V30 3262 C 297.583 -0.665327 -1.4639 0
M  V30 3263 O 298.773 -0.933549 -1.47073 0
M  V30 3264 C 295.905 -1.92087 -2.8163 0
M  V30 3265 H 297.098 -2.74538 -1.20701 0
M  V30 3266 H 294.651 -1.4455 -0.594546 0
M  V30 3267 H 295.386 -0.991099 -3.08784 0
M  V30 3268 H 295.171 -2.74241 -2.80239 0
M  V30 3269 H 296.661 -2.13836 -3.58697 0
M  V30 3270 N 297.098 0.621204 -1.44841 0
M  V30 3271 C 298.344 1.3826 -1.48365 0
M  V30 3272 C 298.677 1.93831 -0.119624 0
M  V30 3273 O 297.952 1.74251 0.864111 0
M  V30 3274 C 298.235 2.54058 -2.55199 0
M  V30 3275 C 298.088 2.03772 -4.00995 0
M  V30 3276 C 299.407 3.56225 -2.58442 0
M  V30 3277 H 296.526 0.501374 -0.540179 0
M  V30 3278 H 299.168 0.7015 -1.76576 0
M  V30 3279 H 297.318 3.12162 -2.31274 0
M  V30 3280 H 298.99 1.50423 -4.36086 0
M  V30 3281 H 297.233 1.34876 -4.12299 0
M  V30 3282 H 297.904 2.87185 -4.71411 0
M  V30 3283 H 300.38 3.07939 -2.79844 0
M  V30 3284 H 299.256 4.34756 -3.3508 0
M  V30 3285 H 299.517 4.10949 -1.63013 0
M  V30 3286 N 298.576 1.31904 0.862503 0
M  V30 3287 C 299.824 1.21776 1.61292 0
M  V30 3288 C 300.145 -0.222413 1.93727 0
M  V30 3289 O 299.415 -1.1451 1.58947 0
M  V30 3290 H 297.995 0.447717 0.597962 0
M  V30 3291 H 300.657 1.65326 1.03215 0
M  V30 3292 H 299.753 1.7948 2.5533 0
M  V30 3293 N 300.054 -1.07777 1.14986 0
M  V30 3294 C 300.964 -2.18404 0.856546 0
M  V30 3295 C 301.98 -1.73211 -0.165485 0
M  V30 3296 O 303.156 -2.01399 0.00755219 0
M  V30 3297 C 300.221 -3.44977 0.34526 0
M  V30 3298 C 299.282 -4.0476 1.43065 0
M  V30 3299 C 298.515 -5.25291 0.943663 0
M  V30 3300 O 298.738 -5.70004 -0.212426 0
M  V30 3301 O 297.672 -5.76638 1.72547 0
M  V30 3302 H 301.498 -2.45978 1.78125 0
M  V30 3303 H 299.083 -1.17033 0.928631 0
M  V30 3304 H 300.965 -4.21348 0.0663671 0
M  V30 3305 H 299.64 -3.18965 -0.551631 0
M  V30 3306 H 298.547 -3.29949 1.76309 0
M  V30 3307 H 299.88 -4.35035 2.30229 0
M  V30 3308 N 301.532 -0.945985 -1.26051 0
M  V30 3309 C 302.809 -0.513816 -1.88731 0
M  V30 3310 C 303.189 1.00872 -1.8544 0
M  V30 3311 O 302.537 1.8708 -1.312 0
M  V30 3312 C 302.747 -1.08062 -3.31849 0
M  V30 3313 C 304.095 -1.1522 -4.08668 0
M  V30 3314 O 305.119 -1.03155 -3.40936 0
M  V30 3315 O 303.978 -1.34044 -5.29806 0
M  V30 3316 H 301.072 -0.168193 -0.809716 0
M  V30 3317 H 303.618 -1.03886 -1.34186 0
M  V30 3318 H 302.39 -2.1241 -3.2863 0
M  V30 3319 H 302.013 -0.538307 -3.93939 0
M  V30 3320 N 303.011 1.40521 -0.713556 0
M  V30 3321 C 303.941 2.33381 -0.0743864 0
M  V30 3322 C 304.922 1.52784 0.747735 0
M  V30 3323 O 306.107 1.81258 0.697071 0
M  V30 3324 C 303.237 3.36748 0.849598 0
M  V30 3325 C 302.191 4.27793 0.133247 0
M  V30 3326 C 301.517 5.21679 1.17281 0
M  V30 3327 C 302.817 5.12415 -1.01134 0
M  V30 3328 H 304.511 2.87081 -0.850007 0
M  V30 3329 H 302.057 1.38034 -0.410201 0
M  V30 3330 H 304.01 4.00648 1.30612 0
M  V30 3331 H 302.734 2.81439 1.65709 0
M  V30 3332 H 301.393 3.65342 -0.303426 0
M  V30 3333 H 301.041 4.62677 1.9733 0
M  V30 3334 H 300.741 5.83435 0.698397 0
M  V30 3335 H 302.265 5.88456 1.62947 0
M  V30 3336 H 303.679 5.69781 -0.634274 0
M  V30 3337 H 302.076 5.83203 -1.41399 0
M  V30 3338 H 303.146 4.48514 -1.84292 0
M  V30 3339 N 304.489 0.459591 1.5075 0
M  V30 3340 C 305.736 -0.0993495 2.02256 0
M  V30 3341 C 306.064 -1.40751 1.34237 0
M  V30 3342 O 305.319 -1.90379 0.453228 0
M  V30 3343 C 305.618 -0.342866 3.55752 0
M  V30 3344 C 305.284 0.88218 4.42186 0
M  V30 3345 C 303.946 1.21808 4.65528 0
M  V30 3346 C 306.298 1.69837 4.92752 0
M  V30 3347 C 303.626 2.37045 5.36681 0
M  V30 3348 C 305.978 2.84192 5.65171 0
M  V30 3349 C 304.642 3.1821 5.8677 0
M  V30 3350 H 303.912 -0.0363545 0.740108 0
M  V30 3351 H 306.559 0.611329 1.8148 0
M  V30 3352 H 304.864 -1.13567 3.7498 0
M  V30 3353 H 306.561 -0.789121 3.93159 0
M  V30 3354 H 303.151 0.610467 4.2423 0
M  V30 3355 H 307.335 1.45205 4.74583 0
M  V30 3356 H 302.591 2.63689 5.51614 0
M  V30 3357 H 306.765 3.4779 6.03337 0
M  V30 3358 H 304.392 4.07613 6.41682 0
M  V30 3359 N 305.967 -1.56429 0.191757 0
M  V30 3360 C 306.899 -2.16154 -0.762245 0
M  V30 3361 C 307.912 -1.12247 -1.17917 0
M  V30 3362 O 309.101 -1.39353 -1.11548 0
M  V30 3363 C 306.201 -2.70606 -2.04024 0
M  V30 3364 C 305.374 -3.99381 -1.78364 0
M  V30 3365 C 304.433 -4.38692 -2.90578 0
M  V30 3366 O 303.459 -5.06179 -2.6033 0
M  V30 3367 N 304.661 -4.01922 -4.18854 0
M  V30 3368 H 307.426 -2.98643 -0.251526 0
M  V30 3369 H 304.987 -1.61897 0.00967373 0
M  V30 3370 H 306.979 -2.93891 -2.78227 0
M  V30 3371 H 305.549 -1.9259 -2.46227 0
M  V30 3372 H 304.769 -3.84262 -0.879581 0
M  V30 3373 H 306.057 -4.83445 -1.58614 0
M  V30 3374 H 305.455 -3.47631 -4.46283 0
M  V30 3375 H 304.012 -4.30165 -4.89695 0
M  V30 3376 N 307.445 0.0818655 -1.57387 0
M  V30 3377 C 308.355 1.11642 -2.06333 0
M  V30 3378 C 309.371 1.43033 -0.99083 0
M  V30 3379 O 310.547 1.53411 -1.30488 0
M  V30 3380 C 307.612 2.41342 -2.48907 0
M  V30 3381 C 306.673 2.17014 -3.7041 0
M  V30 3382 C 305.906 3.4053 -4.10944 0
M  V30 3383 O 306.129 4.4927 -3.51444 0
M  V30 3384 O 305.063 3.29336 -5.03807 0
M  V30 3385 H 308.889 0.730657 -2.9478 0
M  V30 3386 H 306.474 0.295301 -1.46452 0
M  V30 3387 H 308.356 3.17691 -2.76858 0
M  V30 3388 H 307.031 2.79319 -1.63593 0
M  V30 3389 H 305.938 1.38403 -3.47556 0
M  V30 3390 H 307.271 1.83923 -4.56545 0
M  V30 3391 N 308.923 1.53595 0.353017 0
M  V30 3392 C 309.886 1.80232 1.41594 0
M  V30 3393 C 310.886 0.673081 1.46035 0
M  V30 3394 O 312.076 0.941335 1.46576 0
M  V30 3395 C 309.208 1.93578 2.80607 0
M  V30 3396 H 310.401 2.75174 1.19244 0
M  V30 3397 H 307.954 1.44864 0.586872 0
M  V30 3398 H 308.689 1.00746 3.08254 0
M  V30 3399 H 308.474 2.75724 2.78781 0
M  V30 3400 H 309.964 2.15735 3.57558 0
M  V30 3401 N 310.401 -0.613514 1.45168 0
M  V30 3402 C 311.351 -1.71871 1.49815 0
M  V30 3403 C 312.335 -1.56774 0.362021 0
M  V30 3404 O 313.527 -1.66212 0.608493 0
M  V30 3405 C 310.656 -3.1061 1.46207 0
M  V30 3406 C 309.742 -3.31114 2.64999 0
M  V30 3407 N 310.133 -3.21904 3.90143 0
M  V30 3408 C 308.431 -3.61966 2.6057 0
M  V30 3409 C 309.132 -3.43577 4.69393 0
M  V30 3410 N 308.108 -3.67287 4.00751 0
M  V30 3411 H 311.91 -1.63235 2.444 0
M  V30 3412 H 309.424 -0.816577 1.40377 0
M  V30 3413 H 311.421 -3.8989 1.4762 0
M  V30 3414 H 310.081 -3.20399 0.52673 0
M  V30 3415 H 311.092 -3.00436 4.21852 0
M  V30 3416 H 307.769 -3.78629 1.75916 0
M  V30 3417 H 309.159 -3.41901 5.78406 0
M  V30 3418 N 311.879 -1.3236 -0.855495 0
M  V30 3419 C 312.789 -1.23221 -1.99634 0
M  V30 3420 C 313.805 -0.145983 -1.73387 0
M  V30 3421 O 314.981 -0.366502 -1.98037 0
M  V30 3422 C 312.046 -0.954782 -3.33294 0
M  V30 3423 C 311.107 -2.12937 -3.72769 0
M  V30 3424 C 310.34 -1.86508 -5.00051 0
M  V30 3425 O 310.563 -0.807231 -5.64659 0
M  V30 3426 O 309.497 -2.72591 -5.36636 0
M  V30 3427 H 313.323 -2.19126 -2.1028 0
M  V30 3428 H 310.908 -1.12241 -0.986018 0
M  V30 3429 H 312.79 -0.816519 -4.13414 0
M  V30 3430 H 311.465 -0.0258854 -3.2369 0
M  V30 3431 H 310.372 -2.3231 -2.93228 0
M  V30 3432 H 311.705 -3.04102 -3.87018 0
M  V30 3433 N 313.357 1.07166 -1.15556 0
M  V30 3434 C 314.603 1.80065 -0.932984 0
M  V30 3435 C 314.936 1.86586 0.53845 0
M  V30 3436 O 314.211 1.35098 1.39924 0
M  V30 3437 C 314.494 3.25022 -1.55025 0
M  V30 3438 C 314.347 3.26634 -3.09242 0
M  V30 3439 C 315.666 4.22341 -1.2376 0
M  V30 3440 H 312.785 0.653697 -0.340366 0
M  V30 3441 H 315.427 1.25389 -1.4275 0
M  V30 3442 H 313.577 3.71712 -1.12972 0
M  V30 3443 H 315.249 2.88173 -3.60214 0
M  V30 3444 H 313.492 2.65539 -3.43033 0
M  V30 3445 H 314.163 4.28854 -3.47546 0
M  V30 3446 H 316.639 3.8405 -1.60139 0
M  V30 3447 H 315.515 5.22053 -1.69564 0
M  V30 3448 H 315.776 4.41828 -0.154938 0
M  V30 3449 N 314.835 0.952656 1.25548 0
M  V30 3450 C 316.084 0.602053 1.92505 0
M  V30 3451 C 316.397 -0.864663 1.75451 0
M  V30 3452 O 317.603 -1.32514 2.36965 0
M  V30 3453 C 316.059 1.02607 3.44963 0
M  V30 3454 C 315.667 2.51519 3.70732 0
M  V30 3455 C 317.411 0.747905 4.1786 0
M  V30 3456 C 315.318 2.87732 5.16686 0
M  V30 3457 H 314.248 0.22146 0.720744 0
M  V30 3458 H 316.899 1.15684 1.42441 0
M  V30 3459 H 315.281 0.399712 3.93978 0
M  V30 3460 H 316.455 3.19157 3.32378 0
M  V30 3461 H 314.77 2.76786 3.11092 0
M  V30 3462 H 317.367 0.994647 5.25367 0
M  V30 3463 H 317.71 -0.315629 4.15102 0
M  V30 3464 H 318.243 1.33452 3.74747 0
M  V30 3465 H 314.982 3.93095 5.24554 0
M  V30 3466 H 314.502 2.24765 5.56094 0
M  V30 3467 H 316.181 2.76817 5.84792 0
M  V30 3468 N 316.313 -1.40141 0.720998 0
M  V30 3469 C 317.243 -2.33339 0.0867621 0
M  V30 3470 C 318.224 -1.53178 -0.739622 0
M  V30 3471 O 319.409 -1.81625 -0.687449 0
M  V30 3472 C 316.539 -3.37194 -0.831728 0
M  V30 3473 C 315.493 -4.27857 -0.110558 0
M  V30 3474 C 314.819 -5.22294 -1.14513 0
M  V30 3475 C 316.119 -5.11872 1.0385 0
M  V30 3476 H 317.813 -2.86626 0.865219 0
M  V30 3477 H 315.359 -1.37814 0.417516 0
M  V30 3478 H 317.312 -4.01335 -1.28485 0
M  V30 3479 H 316.036 -2.82314 -1.64214 0
M  V30 3480 H 314.695 -3.65176 0.322797 0
M  V30 3481 H 314.343 -4.63717 -1.94874 0
M  V30 3482 H 314.043 -5.83797 -0.667446 0
M  V30 3483 H 315.567 -5.89312 -1.59824 0
M  V30 3484 H 316.981 -5.69436 0.664482 0
M  V30 3485 H 315.378 -5.82445 1.4449 0
M  V30 3486 H 316.448 -4.4753 1.86668 0
M  V30 3487 N 317.792 -0.46758 -1.50504 0
M  V30 3488 C 318.739 0.328413 -2.28452 0
M  V30 3489 C 319.709 0.990313 -1.33349 0
M  V30 3490 O 320.894 1.00343 -1.62284 0
M  V30 3491 C 318.034 1.40648 -3.15138 0
M  V30 3492 C 317.147 0.759709 -4.25267 0
M  V30 3493 C 316.282 1.81537 -4.99217 0
M  V30 3494 C 315.321 1.14866 -6.01226 0
M  V30 3495 N 314.458 2.14702 -6.68467 0
M  V30 3496 H 319.298 -0.342603 -2.96024 0
M  V30 3497 H 316.835 -0.180801 -1.45985 0
M  V30 3498 H 318.793 2.04315 -3.63746 0
M  V30 3499 H 317.423 2.04671 -2.49619 0
M  V30 3500 H 316.475 0.0105671 -3.80399 0
M  V30 3501 H 317.787 0.233243 -4.98254 0
M  V30 3502 H 316.941 2.52793 -5.51526 0
M  V30 3503 H 315.68 2.37564 -4.25928 0
M  V30 3504 H 314.685 0.42171 -5.4818 0
M  V30 3505 H 315.91 0.595334 -6.76485 0
M  V30 3506 H 313.856 2.69752 -5.97972 0
M  V30 3507 H 313.773 1.6703 -7.37317 0
M  V30 3508 H 315.041 2.85348 -7.25394 0
M  V30 3509 N 319.27 1.56325 -0.20005 0
M  V30 3510 C 320.233 2.18084 0.705132 0
M  V30 3511 C 321.233 1.13666 1.1374 0
M  V30 3512 O 322.423 1.39023 1.04968 0
M  V30 3513 C 319.555 2.78689 1.96329 0
M  V30 3514 H 320.748 2.99435 0.167023 0
M  V30 3515 H 318.301 1.56221 0.0495725 0
M  V30 3516 H 319.036 2.0115 2.5438 0
M  V30 3517 H 318.821 3.55133 1.66202 0
M  V30 3518 H 320.311 3.26096 2.60866 0
M  V30 3519 N 320.748 -0.0735177 1.57428 0
M  V30 3520 C 321.695 -1.08756 2.0357 0
M  V30 3521 C 322.665 -1.38559 0.916 0
M  V30 3522 O 323.85 -1.49656 1.18354 0
M  V30 3523 C 320.99 -2.39657 2.48311 0
M  V30 3524 C 320.103 -2.16399 3.73892 0
M  V30 3525 C 319.238 -3.40852 4.07423 0
M  V30 3526 C 318.277 -3.1295 5.2605 0
M  V30 3527 N 317.414 -4.29729 5.55228 0
M  V30 3528 H 322.254 -0.687104 2.8997 0
M  V30 3529 H 319.791 -0.327709 1.43403 0
M  V30 3530 H 321.749 -3.16081 2.72303 0
M  V30 3531 H 320.379 -2.77508 1.64891 0
M  V30 3532 H 319.431 -1.30676 3.57251 0
M  V30 3533 H 320.743 -1.91788 4.60455 0
M  V30 3534 H 319.897 -4.25671 4.32306 0
M  V30 3535 H 318.636 -3.68537 3.19425 0
M  V30 3536 H 317.641 -2.26526 5.00965 0
M  V30 3537 H 318.866 -2.86589 6.15665 0
M  V30 3538 H 316.812 -4.57448 4.70188 0
M  V30 3539 H 316.729 -4.08385 6.36206 0
M  V30 3540 H 317.997 -5.1555 5.84661 0
M  V30 3541 N 322.226 -1.5378 -0.344866 0
M  V30 3542 C 323.503 -1.61589 -1.10219 0
M  V30 3543 C 323.883 -0.436316 -2.06542 0
M  V30 3544 O 323.231 0.571543 -2.21237 0
M  V30 3545 C 323.441 -2.97602 -1.82301 0
M  V30 3546 C 324.789 -3.5291 -2.36093 0
M  V30 3547 O 325.813 -2.99768 -1.924 0
M  V30 3548 O 324.672 -4.45859 -3.16026 0
M  V30 3549 H 321.766 -0.653522 -0.506792 0
M  V30 3550 H 324.312 -1.66126 -0.346465 0
M  V30 3551 H 323.084 -3.74893 -1.12121 0
M  V30 3552 H 322.707 -2.9665 -2.64735 0
M  V30 3553 N 323.704 0.605807 -1.45491 0
M  V30 3554 C 324.951 1.36476 -1.49601 0
M  V30 3555 C 325.279 1.94007 -0.138452 0
M  V30 3556 O 324.534 1.75638 0.863114 0
M  V30 3557 C 324.833 2.53012 -2.52428 0
M  V30 3558 C 324.499 2.13617 -3.97087 0
M  V30 3559 C 323.161 2.02587 -4.36477 0
M  V30 3560 C 325.513 1.82899 -4.88055 0
M  V30 3561 C 322.841 1.59064 -5.64726 0
M  V30 3562 C 325.193 1.40861 -6.16718 0
M  V30 3563 C 323.857 1.28391 -6.55036 0
M  V30 3564 H 323.127 0.499402 -0.547429 0
M  V30 3565 H 325.774 0.684546 -1.78847 0
M  V30 3566 H 324.079 3.26379 -2.16758 0
M  V30 3567 H 325.776 3.1124 -2.52845 0
M  V30 3568 H 322.366 2.23129 -3.65939 0
M  V30 3569 H 326.55 1.90317 -4.58359 0
M  V30 3570 H 321.806 1.48034 -5.93208 0
M  V30 3571 H 325.98 1.16138 -6.86648 0
M  V30 3572 H 323.607 0.944403 -7.54311 0
M  V30 3573 N 325.182 1.32811 0.848464 0
M  V30 3574 C 326.593 1.21315 1.41914 0
M  V30 3575 C 326.944 -0.171847 1.95446 0
M  V30 3576 O 326.069 -1.07093 1.88043 0
M  V30 3577 C 326.664 2.19631 2.57968 0
M  V30 3578 C 325.223 2.12003 3.11017 0
M  V30 3579 C 324.37 2.07651 1.83783 0
M  V30 3580 H 327.321 1.44549 0.655071 0
M  V30 3581 H 327.342 1.79845 3.35315 0
M  V30 3582 H 326.854 3.20423 2.18976 0
M  V30 3583 H 324.955 1.14481 3.54577 0
M  V30 3584 H 325.068 3.02111 3.71841 0
M  V30 3585 H 323.432 1.52983 2.03638 0
M  V30 3586 H 324.215 3.10235 1.47 0
M  V30 3587 N 326.66 -1.06551 1.16123 0
M  V30 3588 C 328.071 -1.60768 0.949232 0
M  V30 3589 C 328.422 -1.89523 -0.507508 0
M  V30 3590 O 327.547 -1.66671 -1.38021 0
M  V30 3591 C 328.142 -2.92086 1.71671 0
M  V30 3592 C 326.701 -3.43015 1.54977 0
M  V30 3593 C 325.848 -2.16947 1.72711 0
M  V30 3594 H 328.799 -0.895354 1.31031 0
M  V30 3595 H 328.82 -3.6138 1.19099 0
M  V30 3596 H 328.332 -2.71127 2.7769 0
M  V30 3597 H 326.433 -3.69039 0.513873 0
M  V30 3598 H 326.546 -4.18516 2.33198 0
M  V30 3599 H 324.91 -2.27041 1.15431 0
M  V30 3600 H 325.693 -1.98473 2.80113 0
M  V30 3601 N 328.138 -0.959301 -1.25041 0
M  V30 3602 C 329.101 -0.487677 -2.23952 0
M  V30 3603 C 330.101 0.41119 -1.55454 0
M  V30 3604 O 331.291 0.207825 -1.72956 0
M  V30 3605 C 328.423 0.294807 -3.39623 0
M  V30 3606 H 329.616 -1.36198 -2.67189 0
M  V30 3607 H 327.169 -0.743042 -1.37508 0
M  V30 3608 H 327.904 1.18658 -3.01813 0
M  V30 3609 H 327.689 -0.35012 -3.90534 0
M  V30 3610 H 329.179 0.614089 -4.1306 0
M  V30 3611 N 329.616 1.39756 -0.72842 0
M  V30 3612 C 330.893 1.94574 -0.200079 0
M  V30 3613 C 331.273 1.66569 1.29684 0
M  V30 3614 O 330.621 0.990326 2.05924 0
M  V30 3615 C 330.831 3.45004 -0.526608 0
M  V30 3616 C 332.179 4.21965 -0.472318 0
M  V30 3617 O 333.203 3.53173 -0.463413 0
M  V30 3618 O 332.062 5.44552 -0.461075 0
M  V30 3619 H 329.156 0.826289 -0.0342851 0
M  V30 3620 H 331.702 1.49293 -0.806829 0
M  V30 3621 H 330.474 3.58796 -1.56144 0
M  V30 3622 H 330.097 3.97449 0.109449 0
M  V30 3623 N 331.094 0.475555 1.50254 0
M  V30 3624 C 332.505 0.0215174 1.86688 0
M  V30 3625 C 332.856 -1.38467 1.39001 0
M  V30 3626 O 331.981 -2.02732 0.756894 0
M  V30 3627 C 332.576 0.0322715 3.38785 0
M  V30 3628 C 331.135 -0.366314 3.74613 0
M  V30 3629 C 330.282 0.415832 2.74164 0
M  V30 3630 H 333.233 0.689612 1.42934 0
M  V30 3631 H 333.254 -0.76889 3.7265 0
M  V30 3632 H 332.766 1.05584 3.73462 0
M  V30 3633 H 330.867 -1.39406 3.45538 0
M  V30 3634 H 330.98 -0.064555 4.79057 0
M  V30 3635 H 329.344 -0.131048 2.54363 0
M  V30 3636 H 330.127 1.43899 3.11686 0
M  V30 3637 N 332.573 -1.56217 0.208337 0
M  V30 3638 C 333.801 -2.02337 -0.43215 0
M  V30 3639 C 334.216 -1.08834 -1.54275 0
M  V30 3640 O 333.573 -0.0955462 -1.8225 0
M  V30 3641 C 333.624 -3.48072 -0.976138 0
M  V30 3642 O 333.345 -4.38007 0.0901621 0
M  V30 3643 C 334.846 -4.09773 -1.69119 0
M  V30 3644 H 332.066 -0.662385 -0.10718 0
M  V30 3645 H 334.61 -2.01966 0.320923 0
M  V30 3646 H 332.765 -3.49099 -1.67954 0
M  V30 3647 H 333.179 -5.23543 -0.316701 0
M  V30 3648 H 334.653 -5.13556 -2.02397 0
M  V30 3649 H 335.13 -3.53999 -2.59964 0
M  V30 3650 H 335.736 -4.12556 -1.03332 0
M  V30 3651 N 334.051 0.0651679 -1.57465 0
M  V30 3652 C 335.3 0.761916 -1.86756 0
M  V30 3653 C 335.613 1.78406 -0.801925 0
M  V30 3654 O 336.819 2.53084 -0.982885 0
M  V30 3655 C 335.275 1.40603 -3.31299 0
M  V30 3656 C 334.883 0.422115 -4.46007 0
M  V30 3657 C 336.627 2.08476 -3.69781 0
M  V30 3658 C 334.534 1.07252 -5.81593 0
M  V30 3659 H 333.464 0.288308 -0.696702 0
M  V30 3660 H 336.115 0.015344 -1.83494 0
M  V30 3661 H 334.497 2.20109 -3.29193 0
M  V30 3662 H 335.671 -0.343613 -4.59517 0
M  V30 3663 H 333.986 -0.152527 -4.16121 0
M  V30 3664 H 336.583 2.57925 -4.68379 0
M  V30 3665 H 336.926 2.88712 -2.99919 0
M  V30 3666 H 337.459 1.35792 -3.73905 0
M  V30 3667 H 334.198 0.310342 -6.54765 0
M  V30 3668 H 333.718 1.80895 -5.71872 0
M  V30 3669 H 335.397 1.59043 -6.27148 0
M  V30 3670 N 335.529 1.53961 0.336706 0
M  V30 3671 C 336.476 1.82428 1.41381 0
M  V30 3672 C 337.446 0.670444 1.51968 0
M  V30 3673 O 338.631 0.915565 1.67398 0
M  V30 3674 C 335.771 2.04564 2.77934 0
M  V30 3675 C 334.884 3.32267 2.76084 0
M  V30 3676 C 334.019 3.44434 4.04399 0
M  V30 3677 C 333.058 4.66061 3.96804 0
M  V30 3678 N 332.195 4.75224 5.16823 0
M  V30 3679 H 337.035 2.74324 1.16405 0
M  V30 3680 H 334.572 1.35869 0.563752 0
M  V30 3681 H 336.53 2.15388 3.57301 0
M  V30 3682 H 335.16 1.15974 3.01247 0
M  V30 3683 H 334.212 3.3025 1.88784 0
M  V30 3684 H 335.524 4.21733 2.66351 0
M  V30 3685 H 334.678 3.54728 4.92192 0
M  V30 3686 H 333.417 2.53037 4.16921 0
M  V30 3687 H 332.422 4.55838 3.07396 0
M  V30 3688 H 333.647 5.58829 3.85858 0
M  V30 3689 H 331.593 3.86739 5.29876 0
M  V30 3690 H 331.51 5.58636 5.09374 0
M  V30 3691 H 332.778 4.89835 6.06367 0
M  V30 3692 N 337.007 -0.598083 1.45811 0
M  V30 3693 C 337.939 -1.72231 1.51225 0
M  V30 3694 C 338.952 -1.57757 0.402059 0
M  V30 3695 O 340.141 -1.65464 0.669624 0
M  V30 3696 C 337.241 -3.10331 1.3619 0
M  V30 3697 C 336.414 -3.50955 2.61054 0
M  V30 3698 C 335.473 -4.68055 2.40439 0
M  V30 3699 O 334.499 -4.74691 3.14097 0
M  V30 3700 N 335.701 -5.61941 1.45612 0
M  V30 3701 H 338.466 -1.68046 2.48154 0
M  V30 3702 H 336.027 -0.783637 1.41671 0
M  V30 3703 H 338.019 -3.86439 1.20195 0
M  V30 3704 H 336.589 -3.0897 0.475015 0
M  V30 3705 H 335.809 -2.64711 2.92099 0
M  V30 3706 H 337.097 -3.74858 3.44034 0
M  V30 3707 H 336.495 -5.59301 0.848431 0
M  V30 3708 H 335.052 -6.37542 1.35585 0
M  V30 3709 N 338.485 -1.33259 -0.841409 0
M  V30 3710 C 339.432 -1.23302 -1.95103 0
M  V30 3711 C 340.402 -0.112204 -1.65721 0
M  V30 3712 O 341.587 -0.290038 -1.88583 0
M  V30 3713 C 338.727 -0.975583 -3.31023 0
M  V30 3714 C 337.84 -2.18243 -3.72819 0
M  V30 3715 C 336.975 -1.85936 -4.97595 0
M  V30 3716 C 336.014 -3.02866 -5.3192 0
M  V30 3717 N 335.151 -2.70565 -6.47873 0
M  V30 3718 H 339.991 -2.18207 -2.02952 0
M  V30 3719 H 337.528 -1.0851 -0.993173 0
M  V30 3720 H 339.486 -0.80677 -4.09325 0
M  V30 3721 H 338.116 -0.0632755 -3.22738 0
M  V30 3722 H 337.168 -2.46107 -2.90061 0
M  V30 3723 H 338.48 -3.05666 -3.94169 0
M  V30 3724 H 337.634 -1.65684 -5.83638 0
M  V30 3725 H 336.373 -0.957452 -4.78209 0
M  V30 3726 H 335.378 -3.23736 -4.44382 0
M  V30 3727 H 336.603 -3.93809 -5.53255 0
M  V30 3728 H 334.549 -1.8293 -6.29978 0
M  V30 3729 H 334.466 -3.51519 -6.69306 0
M  V30 3730 H 335.734 -2.53774 -7.37034 0
M  V30 3731 N 339.963 1.05934 -1.16686 0
M  V30 3732 C 340.893 2.1546 -0.899949 0
M  V30 3733 C 341.874 1.69391 0.155154 0
M  V30 3734 O 343.059 1.94199 0.00648693 0
M  V30 3735 C 340.189 3.44939 -0.404241 0
M  V30 3736 C 339.143 4.04536 -1.39767 0
M  V30 3737 C 338.469 5.29268 -0.760216 0
M  V30 3738 C 339.769 4.42893 -2.76845 0
M  V30 3739 H 341.463 2.38046 -1.81588 0
M  V30 3740 H 339.009 1.14404 -0.874514 0
M  V30 3741 H 340.962 4.20901 -0.204971 0
M  V30 3742 H 339.686 3.21983 0.547206 0
M  V30 3743 H 338.345 3.30635 -1.58355 0
M  V30 3744 H 337.993 5.02611 0.197831 0
M  V30 3745 H 337.693 5.70101 -1.42332 0
M  V30 3746 H 339.217 6.07924 -0.57105 0
M  V30 3747 H 340.631 5.09921 -2.62019 0
M  V30 3748 H 339.028 4.94721 -3.39663 0
M  V30 3749 H 340.098 3.53584 -3.31823 0
M  V30 3750 N 341.441 0.965919 1.2453 0
M  V30 3751 C 342.374 0.4393 2.23932 0
M  V30 3752 C 343.352 -0.485615 1.55179 0
M  V30 3753 O 344.536 -0.417402 1.83821 0
M  V30 3754 C 341.663 -0.366042 3.36716 0
M  V30 3755 C 340.709 0.5009 4.23548 0
M  V30 3756 S 341.542 1.94002 4.99123 0
M  V30 3757 C 342.698 1.14342 6.15367 0
M  V30 3758 H 342.931 1.28167 2.68254 0
M  V30 3759 H 340.464 0.770819 1.33782 0
M  V30 3760 H 342.422 -0.824724 4.0213 0
M  V30 3761 H 341.083 -1.18337 2.90956 0
M  V30 3762 H 340.276 -0.117341 5.03863 0
M  V30 3763 H 339.878 0.89524 3.63127 0
M  V30 3764 H 342.17 0.397572 6.76332 0
M  V30 3765 H 343.113 1.92089 6.81548 0
M  V30 3766 H 343.521 0.668579 5.60527 0
M  V30 3767 N 342.919 -1.39368 0.735821 0
M  V30 3768 C 344.33 -1.83313 0.354015 0
M  V30 3769 C 344.681 -1.61461 -1.11466 0
M  V30 3770 O 343.806 -1.10621 -1.85989 0
M  V30 3771 C 344.401 -3.32781 0.635769 0
M  V30 3772 C 342.96 -3.75142 0.307448 0
M  V30 3773 C 342.107 -2.62358 0.897974 0
M  V30 3774 H 345.058 -1.28349 0.933398 0
M  V30 3775 H 345.079 -3.80388 -0.0921773 0
M  V30 3776 H 344.591 -3.48654 1.70476 0
M  V30 3777 H 342.692 -3.64857 -0.755674 0
M  V30 3778 H 342.805 -4.72532 0.790583 0
M  V30 3779 H 341.169 -2.52624 0.324551 0
M  V30 3780 H 341.952 -2.81036 1.97164 0
M  V30 3781 N 344.397 -0.483516 -1.5 0
M  V30 3782 C 345.643 0.0593261 -2.03313 0
M  V30 3783 C 345.998 1.36288 -1.35806 0
M  V30 3784 O 345.291 1.85519 -0.478897 0
M  V30 3785 C 345.485 0.286226 -3.56252 0
M  V30 3786 C 345.314 -0.993788 -4.38582 0
M  V30 3787 C 344.084 -1.54064 -4.81241 0
M  V30 3788 C 346.282 -1.89249 -4.78215 0
M  V30 3789 N 344.264 -2.76838 -5.47936 0
M  V30 3790 C 345.635 -2.96606 -5.44449 0
M  V30 3791 C 347.69 -1.90138 -4.60165 0
M  V30 3792 C 346.393 -4.04857 -5.94544 0
M  V30 3793 C 348.419 -2.97353 -5.1121 0
M  V30 3794 C 347.781 -4.03429 -5.77429 0
M  V30 3795 H 343.88 -0.0186322 -0.781778 0
M  V30 3796 H 346.464 -0.654489 -1.8337 0
M  V30 3797 H 344.635 0.969086 -3.76116 0
M  V30 3798 H 346.367 0.824515 -3.96212 0
M  V30 3799 H 343.122 -1.08813 -4.6093 0
M  V30 3800 H 343.546 -3.39221 -5.85882 0
M  V30 3801 H 348.188 -1.09441 -4.0839 0
M  V30 3802 H 345.906 -4.86363 -6.4535 0
M  V30 3803 H 349.492 -2.99039 -4.99066 0
M  V30 3804 H 348.372 -4.85025 -6.16214 0
M  V30 3805 N 345.875 1.56104 -0.216619 0
M  V30 3806 C 347.121 1.98466 0.417033 0
M  V30 3807 C 347.454 1.10403 1.59765 0
M  V30 3808 O 346.729 0.160632 1.93836 0
M  V30 3809 C 347.012 3.49769 0.85637 0
M  V30 3810 C 346.865 4.48606 -0.327546 0
M  V30 3811 C 348.184 4.05339 1.7143 0
M  V30 3812 H 345.303 0.721551 0.150112 0
M  V30 3813 H 347.945 1.87423 -0.311864 0
M  V30 3814 H 346.095 3.5931 1.47745 0
M  V30 3815 H 347.767 4.5108 -0.965618 0
M  V30 3816 H 346.01 4.22682 -0.975805 0
M  V30 3817 H 346.681 5.51995 0.0227149 0
M  V30 3818 H 349.157 3.98712 1.19031 0
M  V30 3819 H 348.033 5.11533 1.99061 0
M  V30 3820 H 348.294 3.51918 2.67593 0
M  V30 3821 N 347.353 -0.0568162 1.57498 0
M  V30 3822 C 348.283 -1.06593 2.0775 0
M  V30 3823 C 349.264 -1.39448 0.974082 0
M  V30 3824 O 350.449 -1.48815 1.24771 0
M  V30 3825 C 347.579 -2.37509 2.5339 0
M  V30 3826 C 346.533 -2.1897 3.67745 0
M  V30 3827 C 345.859 -3.55402 3.99492 0
M  V30 3828 C 347.159 -1.59859 4.97235 0
M  V30 3829 H 348.853 -0.647706 2.9231 0
M  V30 3830 H 346.399 -0.310116 1.40621 0
M  V30 3831 H 348.352 -3.08409 2.87162 0
M  V30 3832 H 347.076 -2.8134 1.65878 0
M  V30 3833 H 345.735 -1.50508 3.3428 0
M  V30 3834 H 345.383 -3.9683 3.09088 0
M  V30 3835 H 345.083 -3.43831 4.76502 0
M  V30 3836 H 346.607 -4.27708 4.35773 0
M  V30 3837 H 348.021 -2.20642 5.29141 0
M  V30 3838 H 346.418 -1.58942 5.78669 0
M  V30 3839 H 347.488 -0.561506 4.81638 0
M  V30 3840 N 348.832 -1.54138 -0.328536 0
M  V30 3841 C 349.795 -1.82462 -1.38709 0
M  V30 3842 C 350.795 -0.696229 -1.44946 0
M  V30 3843 O 351.985 -0.964535 -1.4506 0
M  V30 3844 C 349.117 -1.98018 -2.77492 0
M  V30 3845 H 350.31 -2.77037 -1.14851 0
M  V30 3846 H 347.863 -1.45779 -0.563751 0
M  V30 3847 H 348.598 -1.05637 -3.06613 0
M  V30 3848 H 348.383 -2.80124 -2.74359 0
M  V30 3849 H 349.873 -2.21396 -3.54081 0
M  V30 3850 N 350.31 0.590341 -1.46126 0
M  V30 3851 C 351.243 1.71434 -1.50617 0
M  V30 3852 C 352.221 1.58543 -0.360948 0
M  V30 3853 O 353.405 1.79865 -0.563985 0
M  V30 3854 C 350.532 3.09422 -1.37753 0
M  V30 3855 C 349.578 3.40854 -2.5636 0
M  V30 3856 S 350.411 3.33773 -4.18755 0
M  V30 3857 C 351.567 4.74312 -4.08386 0
M  V30 3858 H 351.8 1.67364 -2.45717 0
M  V30 3859 H 349.333 0.76845 -1.33919 0
M  V30 3860 H 351.291 3.8903 -1.31018 0
M  V30 3861 H 349.952 3.10989 -0.440949 0
M  V30 3862 H 349.145 4.41368 -2.43332 0
M  V30 3863 H 348.747 2.68798 -2.60046 0
M  V30 3864 H 351.039 5.64522 -3.74595 0
M  V30 3865 H 351.982 4.92397 -5.08872 0
M  V30 3866 H 352.39 4.50803 -3.3976 0
M  V30 3867 N 351.788 1.33704 0.83433 0
M  V30 3868 C 353.037 1.24763 1.58484 0
M  V30 3869 C 353.35 -0.183775 1.94735 0
M  V30 3870 O 354.556 -0.395234 2.68608 0
M  V30 3871 C 353.012 2.18638 2.85876 0
M  V30 3872 C 352.62 3.66974 2.56971 0
M  V30 3873 C 354.364 2.18581 3.63899 0
M  V30 3874 C 352.271 4.5275 3.80488 0
M  V30 3875 H 351.201 0.463425 0.594772 0
M  V30 3876 H 353.852 1.58797 0.919551 0
M  V30 3877 H 352.234 1.77542 3.5397 0
M  V30 3878 H 353.408 4.16538 1.9706 0
M  V30 3879 H 351.723 3.69366 1.92244 0
M  V30 3880 H 354.32 2.79894 4.55591 0
M  V30 3881 H 354.663 1.18207 3.99165 0
M  V30 3882 H 355.196 2.58062 3.02735 0
M  V30 3883 H 351.935 5.54017 3.5035 0
M  V30 3884 H 351.455 4.07927 4.39722 0
M  V30 3885 H 353.134 4.66784 4.4802 0
M  V30 3886 N 353.266 -1.05314 1.17247 0
M  V30 3887 C 354.682 -1.30452 0.919473 0
M  V30 3888 C 354.882 -1.9703 -0.42209 0
M  V30 3889 O 353.938 -2.24311 -1.15935 0
M  V30 3890 C 355.251 -2.17551 2.07586 0
M  V30 3891 C 356.799 -2.30937 2.11275 0
M  V30 3892 C 357.274 -3.21396 3.26296 0
M  V30 3893 N 358.765 -3.28981 3.26076 0
M  V30 3894 C 359.5 -3.99095 4.11716 0
M  V30 3895 N 358.996 -4.71648 5.07465 0
M  V30 3896 N 360.789 -3.95247 3.9967 0
M  V30 3897 H 352.94 -0.604988 2.03602 0
M  V30 3898 H 355.203 -0.329368 0.888944 0
M  V30 3899 H 354.909 -1.75921 3.0454 0
M  V30 3900 H 354.783 -3.18182 2.02584 0
M  V30 3901 H 357.17 -2.71809 1.14907 0
M  V30 3902 H 357.251 -1.2994 2.20339 0
M  V30 3903 H 356.895 -2.81238 4.22927 0
M  V30 3904 H 356.825 -4.22395 3.14467 0
M  V30 3905 H 359.316 -2.77286 2.5675 0
M  V30 3906 H 359.629 -5.22705 5.6921 0
M  V30 3907 H 357.974 -4.70594 5.11435 0
M  V30 3908 H 361.165 -3.37691 3.24164 0
M  V30 3909 H 361.338 -4.4962 4.66632 0
M  V30 3910 O 354.783 -1.10174 -1.18084 0
M  V30 3911 H 355.474 -0.801769 -1.76327 0
M  V30 END ATOM
M  V30 BEGIN BOND
M  V30 END BOND
M  V30 END CTAB
M  END
$$$$
