drugbank_target|P30793 GTP cyclohydrolase 1 (DB02377)
 OpenBabel12092119473D

  0  0  0     0  0            999 V3000
M  V30 BEGIN CTAB
M  V30 COUNTS 3932 3973 0 0 0
M  V30 BEGIN ATOM
M  V30 1 H -0.908 1.98254 -0.117106 0
M  V30 2 N 0 1.576 0 0
M  V30 3 C 0.933 2.03868 1.02534 0
M  V30 4 C 1.911 0.928543 1.3348 0
M  V30 5 O 3.095 1.19667 1.45644 0
M  V30 6 C 0.222 2.43627 2.35294 0
M  V30 7 C -0.732 3.65373 2.2001 0
M  V30 8 S 0.101 5.13292 1.52614 0
M  V30 9 C 1.257 5.56322 2.86805 0
M  V30 10 H 1.49 2.90518 0.631377 0
M  V30 11 H -0.977 1.52953 0.210867 0
M  V30 12 H 0.981 2.67203 3.11629 0
M  V30 13 H -0.358 1.57376 2.7183 0
M  V30 14 H -1.165 3.90944 3.18086 0
M  V30 15 H -1.563 3.418 1.51819 0
M  V30 16 H 0.729 5.58782 3.83104 0
M  V30 17 H 1.672 6.56266 2.65933 0
M  V30 18 H 2.08 4.83886 2.90714 0
M  V30 19 N 1.4781 -0.272755 1.55222 0
M  V30 20 C 2.3881 -1.35918 1.91216 0
M  V30 21 C 3.4041 -1.54026 0.809436 0
M  V30 22 O 4.5801 -1.68148 1.10852 0
M  V30 23 C 1.6451 -2.69834 2.17693 0
M  V30 24 C 0.7061 -2.6047 3.41253 0
M  V30 25 C -0.0609 -3.88 3.66458 0
M  V30 26 O 0.1621 -4.88693 2.94169 0
M  V30 27 O -0.9039 -3.88189 4.59992 0
M  V30 28 H 2.9221 -1.0839 2.83699 0
M  V30 29 H 0.5071 -0.471301 1.41771 0
M  V30 30 H 2.3891 -3.49017 2.36147 0
M  V30 31 H 1.0641 -2.97148 1.28392 0
M  V30 32 H -0.0289 -1.79663 3.28134 0
M  V30 33 H 1.3041 -2.38106 4.30774 0
M  V30 34 N 2.9562 -1.48159 -0.537278 0
M  V30 35 C 3.9032 -1.62138 -1.64256 0
M  V30 36 C 4.8732 -0.463668 -1.59497 0
M  V30 37 O 6.0582 -0.686241 -1.78032 0
M  V30 38 C 3.1982 -1.66028 -3.02537 0
M  V30 39 C 2.3112 -2.92855 -3.17585 0
M  V30 40 C 1.4462 -2.87952 -4.46382 0
M  V30 41 C 0.4852 -4.09516 -4.54932 0
M  V30 42 N -0.3778 -4.02733 -5.75109 0
M  V30 43 H 4.4622 -2.56529 -1.51647 0
M  V30 44 H 1.9992 -1.27224 -0.738414 0
M  V30 45 H 3.9572 -1.66265 -3.82638 0
M  V30 46 H 2.5872 -0.751331 -3.13934 0
M  V30 47 H 1.6392 -3.02395 -2.30784 0
M  V30 48 H 2.9512 -3.82822 -3.19764 0
M  V30 49 H 2.1052 -2.8655 -5.34765 0
M  V30 50 H 0.8442 -1.95702 -4.46712 0
M  V30 51 H -0.1508 -4.11201 -3.64957 0
M  V30 52 H 1.0742 -5.02917 -4.56346 0
M  V30 53 H -0.9798 -3.13299 -5.76351 0
M  V30 54 H -1.0628 -4.86397 -5.78752 0
M  V30 55 H 0.2052 -4.05379 -6.65799 0
M  V30 56 N 4.4343 0.785586 -1.36625 0
M  V30 57 C 5.6823 1.54057 -1.30808 0
M  V30 58 C 6.0033 1.94683 0.111157 0
M  V30 59 O 5.2733 1.65241 1.05224 0
M  V30 60 H 3.8533 0.571354 -0.481211 0
M  V30 61 H 6.5153 0.935821 -1.70963 0
M  V30 62 H 5.6113 2.44637 -1.93801 0
M  V30 63 N 5.9124 1.20967 1.01018 0
M  V30 64 C 7.3234 1.02319 1.56165 0
M  V30 65 C 7.6744 -0.418546 1.91684 0
M  V30 66 O 6.7994 -1.30096 1.72928 0
M  V30 67 C 7.3944 1.85109 2.8376 0
M  V30 68 C 5.9534 1.70809 3.35412 0
M  V30 69 C 5.1004 1.82643 2.08655 0
M  V30 70 H 8.0514 1.35065 0.833255 0
M  V30 71 H 8.0724 1.35827 3.55431 0
M  V30 72 H 7.5844 2.90035 2.57878 0
M  V30 73 H 5.6854 0.685464 3.66241 0
M  V30 74 H 5.7984 2.52467 4.07182 0
M  V30 75 H 4.1624 1.25896 2.21409 0
M  V30 76 H 4.9454 2.89066 1.85191 0
M  V30 77 N 7.3905 -1.2043 1.01659 0
M  V30 78 C 8.6365 -1.90079 0.706963 0
M  V30 79 C 8.9695 -1.78648 -0.761474 0
M  V30 80 O 8.2445 -1.17069 -1.55323 0
M  V30 81 C 8.5275 -3.41469 1.14327 0
M  V30 82 C 8.3805 -3.61833 2.67201 0
M  V30 83 C 9.6995 -4.34261 0.714529 0
M  V30 84 H 6.8185 -0.690254 0.2583 0
M  V30 85 H 9.4605 -1.41826 1.26433 0
M  V30 86 H 7.6105 -3.82696 0.669056 0
M  V30 87 H 9.2825 -3.2986 3.22475 0
M  V30 88 H 7.5255 -3.05304 3.08175 0
M  V30 89 H 8.1965 -4.67955 2.92783 0
M  V30 90 H 10.6725 -4.00682 1.12221 0
M  V30 91 H 9.5485 -5.38806 1.04784 0
M  V30 92 H 9.8095 -4.40431 -0.383799 0
M  V30 93 N 8.8686 -0.792821 -1.36206 0
M  V30 94 C 10.2846 -0.474903 -1.52371 0
M  V30 95 C 10.4846 1.00622 -1.74578 0
M  V30 96 O 9.5406 1.79162 -1.77924 0
M  V30 97 C 10.8536 -1.3083 -2.70747 0
M  V30 98 C 12.4016 -1.30234 -2.84619 0
M  V30 99 C 12.8766 -2.11956 -4.06004 0
M  V30 100 N 14.3676 -2.09419 -4.13156 0
M  V30 101 C 15.1026 -2.69419 -5.06163 0
M  V30 102 N 14.5986 -3.3829 -6.04592 0
M  V30 103 N 16.3916 -2.59134 -4.98804 0
M  V30 104 H 8.5426 -1.75222 -1.20046 0
M  V30 105 H 10.8056 -0.745024 -0.586211 0
M  V30 106 H 10.5116 -2.35881 -2.6087 0
M  V30 107 H 10.3856 -0.95196 -3.6499 0
M  V30 108 H 12.7726 -0.259748 -2.93955 0
M  V30 109 H 12.8536 -1.69847 -1.91274 0
M  V30 110 H 12.4976 -3.16248 -3.97429 0
M  V30 111 H 12.4276 -1.69711 -4.98503 0
M  V30 112 H 14.9186 -1.59297 -3.42685 0
M  V30 113 H 15.2316 -3.81394 -6.7213 0
M  V30 114 H 13.5766 -3.42393 -6.04807 0
M  V30 115 H 16.7676 -2.04927 -4.20859 0
M  V30 116 H 16.9406 -3.06185 -5.711 0
M  V30 117 N 10.3467 1.47872 -0.545128 0
M  V30 118 C 11.3097 2.28337 0.198717 0
M  V30 119 C 12.3097 1.36255 0.853888 0
M  V30 120 O 13.4997 1.59003 0.711606 0
M  V30 121 C 10.6317 3.15585 1.28915 0
M  V30 122 H 11.8247 2.95567 -0.507941 0
M  V30 123 H 9.3777 1.53362 -0.301616 0
M  V30 124 H 10.1127 2.53019 2.02859 0
M  V30 125 H 9.8977 3.83337 0.824309 0
M  V30 126 H 11.3877 3.76243 1.81194 0
M  V30 127 N 11.8248 0.280983 1.55075 0
M  V30 128 C 13.2358 -0.215629 1.85451 0
M  V30 129 C 13.5868 -1.54991 1.203 0
M  V30 130 O 12.7118 -2.10699 0.493435 0
M  V30 131 C 13.3068 -0.398026 3.36454 0
M  V30 132 C 11.8658 -0.838866 3.66933 0
M  V30 133 C 11.0128 0.064458 2.77225 0
M  V30 134 H 13.9638 0.502601 1.50531 0
M  V30 135 H 13.9848 -1.23569 3.59876 0
M  V30 136 H 13.4968 0.573241 3.83843 0
M  V30 137 H 11.5978 -1.8214 3.25048 0
M  V30 138 H 11.7108 -0.672123 4.74362 0
M  V30 139 H 10.0748 -0.452863 2.50642 0
M  V30 140 H 10.8578 1.03172 3.2743 0
M  V30 141 N 13.3029 -1.57598 0.00835791 0
M  V30 142 C 14.2659 -2.07884 -0.965242 0
M  V30 143 C 15.2659 -0.989825 -1.26725 0
M  V30 144 O 16.4559 -1.25218 -1.21104 0
M  V30 145 C 13.5879 -2.52731 -2.28779 0
M  V30 146 H 14.7809 -2.95178 -0.530112 0
M  V30 147 H 12.3339 -1.54458 -0.239283 0
M  V30 148 H 13.0689 -1.68705 -2.76964 0
M  V30 149 H 12.8539 -3.32272 -2.08177 0
M  V30 150 H 14.3439 -2.91933 -2.98605 0
M  V30 151 N 14.781 0.264519 -1.55364 0
M  V30 152 C 15.691 1.34902 -1.91934 0
M  V30 153 C 16.707 1.53595 -0.817593 0
M  V30 154 O 17.883 1.67558 -1.11742 0
M  V30 155 C 14.948 2.68676 -2.19121 0
M  V30 156 C 14.009 2.58657 -3.4263 0
M  V30 157 C 13.242 3.86051 -3.68511 0
M  V30 158 O 13.465 4.87126 -2.96757 0
M  V30 159 O 12.399 3.85744 -4.62045 0
M  V30 160 H 16.225 1.06883 -2.8427 0
M  V30 161 H 13.81 0.463775 -1.42019 0
M  V30 162 H 15.692 3.47759 -2.37995 0
M  V30 163 H 14.367 2.96463 -1.29966 0
M  V30 164 H 13.274 1.7792 -3.29082 0
M  V30 165 H 14.607 2.35818 -4.32031 0
M  V30 166 N 16.2591 1.48442 0.529413 0
M  V30 167 C 17.2061 1.63007 1.63394 0
M  V30 168 C 18.1761 0.47212 1.59249 0
M  V30 169 O 19.3611 0.695673 1.77666 0
M  V30 170 C 16.5011 1.6763 3.01653 0
M  V30 171 C 15.6141 2.94535 3.16027 0
M  V30 172 C 14.7491 2.90316 4.44849 0
M  V30 173 C 13.7881 4.11923 4.52754 0
M  V30 174 N 12.9251 4.05777 5.72965 0
M  V30 175 H 17.7651 2.5733 1.50285 0
M  V30 176 H 15.3021 1.27613 0.731656 0
M  V30 177 H 17.2601 1.68292 3.81751 0
M  V30 178 H 15.8901 0.76797 3.13532 0
M  V30 179 H 14.9421 3.03615 2.29177 0
M  V30 180 H 16.2541 3.84512 3.17729 0
M  V30 181 H 15.4081 2.89382 5.33238 0
M  V30 182 H 14.1471 1.98068 4.45668 0
M  V30 183 H 13.1521 4.13131 3.62771 0
M  V30 184 H 14.3771 5.0533 4.53672 0
M  V30 185 H 12.3231 3.16351 5.74681 0
M  V30 186 H 12.2401 4.8946 5.76164 0
M  V30 187 H 13.5081 4.08904 6.6364 0
M  V30 188 N 17.7372 -0.778329 1.37039 0
M  V30 189 C 19.1482 -1.35421 1.28523 0
M  V30 190 C 19.4992 -1.96075 -0.0700901 0
M  V30 191 O 18.6242 -1.93352 -0.971801 0
M  V30 192 C 19.2192 -2.46211 2.32735 0
M  V30 193 C 17.7782 -2.99585 2.27873 0
M  V30 194 C 16.9252 -1.72748 2.16918 0
M  V30 195 H 19.8762 -0.5791 1.47757 0
M  V30 196 H 19.8972 -3.2552 1.9702 0
M  V30 197 H 19.4092 -2.02036 3.31365 0
M  V30 198 H 17.5102 -3.48152 1.32745 0
M  V30 199 H 17.6232 -3.55646 3.21018 0
M  V30 200 H 15.9872 -1.95416 1.63354 0
M  V30 201 H 16.7702 -1.30686 3.17452 0
M  V30 202 N 19.2153 -1.21501 -1.00376 0
M  V30 203 C 20.6313 -0.972629 -1.26539 0
M  V30 204 C 20.8313 0.340257 -1.98606 0
M  V30 205 O 19.8873 1.06561 -2.28913 0
M  V30 206 C 21.2003 -2.16404 -2.08781 0
M  V30 207 C 22.7483 -2.20643 -2.22004 0
M  V30 208 C 23.2233 -3.39306 -3.07629 0
M  V30 209 N 24.7143 -3.39401 -3.15217 0
M  V30 210 C 25.4493 -4.27867 -3.81729 0
M  V30 211 N 24.9453 -5.26533 -4.5026 0
M  V30 212 N 26.7383 -4.15672 -3.78382 0
M  V30 213 H 18.8893 -2.05929 -0.520281 0
M  V30 214 H 21.1523 -0.901803 -0.292328 0
M  V30 215 H 20.8583 -3.11554 -1.63178 0
M  V30 216 H 20.7323 -2.15567 -3.09533 0
M  V30 217 H 23.1193 -1.26048 -2.66825 0
M  V30 218 H 23.2003 -2.25523 -1.20718 0
M  V30 219 H 22.8443 -4.34195 -2.63509 0
M  V30 220 H 22.7743 -3.31665 -4.09031 0
M  V30 221 H 25.2653 -2.67997 -2.66432 0
M  V30 222 H 25.5783 -5.90337 -4.98721 0
M  V30 223 H 23.9233 -5.30457 -4.49044 0
M  V30 224 H 27.1143 -3.3785 -3.23998 0
M  V30 225 H 27.2873 -4.84825 -4.2994 0
M  V30 226 N 20.6934 1.19889 -1.02296 0
M  V30 227 C 21.9414 1.89046 -0.714558 0
M  V30 228 C 22.2624 1.79636 0.758681 0
M  V30 229 O 21.5324 1.20292 1.54618 0
M  V30 230 H 20.1124 0.699802 -0.261317 0
M  V30 231 H 22.7744 1.45574 -1.29592 0
M  V30 232 H 21.8704 2.95524 -1.0036 0
M  V30 233 N 22.1715 0.800033 1.35784 0
M  V30 234 C 23.1345 0.211565 2.28221 0
M  V30 235 C 24.1345 -0.59728 1.49296 0
M  V30 236 O 25.3245 -0.416721 1.69142 0
M  V30 237 C 22.4565 -0.705846 3.33513 0
M  V30 238 H 23.6495 1.02677 2.81776 0
M  V30 239 H 21.2025 0.570211 1.45528 0
M  V30 240 H 21.9375 -1.54498 2.85133 0
M  V30 241 H 21.7225 -0.127655 3.91892 0
M  V30 242 H 23.2125 -1.11211 4.02519 0
M  V30 243 N 23.6496 -1.47581 0.552962 0
M  V30 244 C 25.0656 -1.5818 0.212424 0
M  V30 245 C 25.2656 -1.55213 -1.28496 0
M  V30 246 O 24.3216 -1.45329 -2.06484 0
M  V30 247 C 25.6346 -2.88865 0.835318 0
M  V30 248 C 27.1826 -3.0244 0.806156 0
M  V30 249 C 27.6576 -4.35819 1.40804 0
M  V30 250 N 29.1486 -4.42444 1.37103 0
M  V30 251 C 29.8836 -5.44202 1.80641 0
M  V30 252 N 29.3796 -6.52795 2.32015 0
M  V30 253 N 31.1726 -5.35222 1.71738 0
M  V30 254 H 23.3236 -1.47753 1.52587 0
M  V30 255 H 25.5866 -0.702941 0.636064 0
M  V30 256 H 25.2926 -2.9676 1.88749 0
M  V30 257 H 25.1666 -3.7579 0.325848 0
M  V30 258 H 27.5536 -2.94144 -0.237317 0
M  V30 259 H 27.6346 -2.17068 1.35334 0
M  V30 260 H 27.2786 -4.44871 2.45056 0
M  V30 261 H 27.2086 -5.19916 0.836338 0
M  V30 262 H 29.6996 -3.6456 0.995202 0
M  V30 263 H 30.0126 -7.26609 2.63171 0
M  V30 264 H 28.3576 -6.53696 2.36023 0
M  V30 265 H 31.5486 -4.49284 1.31382 0
M  V30 266 H 31.7216 -6.14389 2.05987 0
M  V30 267 N 25.1277 -0.289203 -1.54924 0
M  V30 268 C 26.3677 0.324536 -2.01807 0
M  V30 269 C 26.7317 1.5199 -1.17316 0
M  V30 270 O 27.9327 2.20422 -1.53843 0
M  V30 271 C 26.2037 0.683578 -3.50802 0
M  V30 272 S 27.7627 1.28185 -4.19659 0
M  V30 273 H 24.5807 0.100236 -0.703899 0
M  V30 274 H 27.1827 -0.414325 -1.91059 0
M  V30 275 H 25.8867 -0.195073 -4.09936 0
M  V30 276 H 25.4177 1.45354 -3.65562 0
M  V30 277 H 27.4327 2.57006 -4.24456 0
M  V30 278 N 26.6058 1.57591 -0.0167156 0
M  V30 279 C 27.8308 1.9598 0.67872 0
M  V30 280 C 28.2558 0.892546 1.65575 0
M  V30 281 O 27.6138 -0.147772 1.80697 0
M  V30 282 C 27.6618 3.33468 1.37227 0
M  V30 283 O 26.7658 3.28954 2.48722 0
M  V30 284 H 26.1068 0.639339 0.17928 0
M  V30 285 H 28.6368 2.04463 -0.0748802 0
M  V30 286 H 28.6468 3.69417 1.7319 0
M  V30 287 H 27.3218 4.10694 0.656007 0
M  V30 288 H 25.8988 3.04705 2.14963 0
M  V30 289 N 28.0839 -0.256276 1.55502 0
M  V30 290 C 29.0319 -1.33694 1.90338 0
M  V30 291 C 30.0259 -1.50299 0.781441 0
M  V30 292 O 31.2319 -1.51885 0.965966 0
M  V30 293 H 27.6069 -0.447483 0.60437 0
M  V30 294 H 29.5779 -1.01574 2.8058 0
M  V30 295 C 28.3269 -2.68724 2.20642 0
M  V30 296 H 27.6499 -2.56743 3.06469 0
M  V30 297 H 29.0899 -3.43237 2.48926 0
M  V30 298 C 27.5489 -3.21101 1.01959 0
M  V30 299 O 28.0789 -4.0084 0.262762 0
M  V30 300 N 26.2849 -2.79003 0.812746 0
M  V30 301 H 25.8319 -2.14271 1.42989 0
M  V30 302 H 25.7899 -3.14393 0.0203076 0
M  V30 303 N 29.562 -1.4872 -0.521534 0
M  V30 304 C 30.81 -1.56857 -1.27437 0
M  V30 305 C 31.131 -0.247982 -1.93417 0
M  V30 306 O 30.401 0.731151 -1.81744 0
M  V30 307 H 28.981 -0.577885 -0.473347 0
M  V30 308 H 31.643 -1.85233 -0.606205 0
M  V30 309 H 30.739 -2.35402 -2.0492 0
M  V30 310 N 31.0401 0.771051 -1.3745 0
M  V30 311 C 32.2871 1.52963 -1.32697 0
M  V30 312 C 32.6151 1.94299 0.0883274 0
M  V30 313 O 31.8701 1.64397 1.0617 0
M  V30 314 C 32.1691 2.80676 -2.2126 0
M  V30 315 C 31.8351 2.58389 -3.69521 0
M  V30 316 C 30.4971 2.52019 -4.09927 0
M  V30 317 C 32.8491 2.38469 -4.63446 0
M  V30 318 C 30.1771 2.23721 -5.42371 0
M  V30 319 C 32.5291 2.11694 -5.96128 0
M  V30 320 C 31.1931 2.03769 -6.35637 0
M  V30 321 H 30.4631 0.559732 -0.485573 0
M  V30 322 H 33.1101 0.888083 -1.69662 0
M  V30 323 H 31.4151 3.49392 -1.77291 0
M  V30 324 H 33.1121 3.38557 -2.14895 0
M  V30 325 H 29.7021 2.6421 -3.37478 0
M  V30 326 H 33.8861 2.4238 -4.33089 0
M  V30 327 H 29.1421 2.16081 -5.71943 0
M  V30 328 H 33.3161 1.9528 -6.6846 0
M  V30 329 H 30.9431 1.81606 -7.38189 0
M  V30 330 N 32.5182 1.22032 0.997298 0
M  V30 331 C 33.9292 1.0397 1.55071 0
M  V30 332 C 34.2802 -0.398192 1.92117 0
M  V30 333 O 33.4052 -1.28254 1.74298 0
M  V30 334 C 34.0002 1.88109 2.81781 0
M  V30 335 C 32.5592 1.74357 3.33581 0
M  V30 336 C 31.7062 1.84846 2.06706 0
M  V30 337 H 34.6572 1.35941 0.818883 0
M  V30 338 H 34.6782 1.39589 3.53971 0
M  V30 339 H 34.1902 2.92754 2.54787 0
M  V30 340 H 32.2912 0.72427 3.65493 0
M  V30 341 H 32.4042 2.56772 4.04481 0
M  V30 342 H 30.7682 1.28238 2.20062 0
M  V30 343 H 31.5512 2.91014 1.82114 0
M  V30 344 N 33.9963 -1.19345 1.0293 0
M  V30 345 C 34.9063 -2.26245 0.620515 0
M  V30 346 C 35.9223 -1.70486 -0.347928 0
M  V30 347 O 37.0983 -2.00347 -0.205704 0
M  V30 348 C 34.1633 -3.46693 -0.0218957 0
M  V30 349 C 33.2243 -4.17632 0.994102 0
M  V30 350 C 32.4573 -5.32329 0.382253 0
M  V30 351 O 32.6803 -5.64552 -0.814676 0
M  V30 352 O 31.6143 -5.91664 1.10531 0
M  V30 353 H 35.4403 -2.63453 1.51083 0
M  V30 354 H 33.0253 -1.26207 0.799513 0
M  V30 355 H 34.9073 -4.19683 -0.380072 0
M  V30 356 H 33.5823 -3.11333 -0.886209 0
M  V30 357 H 32.4893 -3.4676 1.40387 0
M  V30 358 H 33.8223 -4.56964 1.8288 0
M  V30 359 N 35.4744 -0.807222 -1.35358 0
M  V30 360 C 36.8904 -0.491038 -1.51858 0
M  V30 361 C 37.0904 0.987648 -1.75635 0
M  V30 362 O 36.1464 1.77265 -1.79815 0
M  V30 363 C 37.4594 -1.33695 -2.69344 0
M  V30 364 C 39.0074 -1.33246 -2.83222 0
M  V30 365 C 39.4824 -2.1625 -4.03733 0
M  V30 366 N 40.9734 -2.1379 -4.10911 0
M  V30 367 C 41.7084 -2.74772 -5.03277 0
M  V30 368 N 41.2044 -3.44684 -6.0097 0
M  V30 369 N 42.9974 -2.6441 -4.96028 0
M  V30 370 H 35.1484 -1.76485 -1.18181 0
M  V30 371 H 37.4114 -0.751199 -0.578276 0
M  V30 372 H 37.1174 -2.38634 -2.58354 0
M  V30 373 H 36.9914 -0.990618 -3.6396 0
M  V30 374 H 39.3784 -0.290911 -2.93663 0
M  V30 375 H 39.4594 -1.71866 -1.89461 0
M  V30 376 H 39.1034 -3.20445 -3.94052 0
M  V30 377 H 39.0334 -1.74989 -4.96675 0
M  V30 378 H 41.5244 -1.62923 -3.40976 0
M  V30 379 H 41.8374 -3.88501 -6.68047 0
M  V30 380 H 40.1824 -3.48788 -6.01142 0
M  V30 381 H 43.3734 -2.0938 -4.18662 0
M  V30 382 H 43.5464 -3.12225 -5.6782 0
M  V30 383 N 36.9525 1.47285 -0.560781 0
M  V30 384 C 38.2295 1.9558 0.0277798 0
M  V30 385 C 38.6095 1.5034 1.48192 0
M  V30 386 O 37.9575 0.743882 2.16052 0
M  V30 387 C 38.1675 3.48789 -0.121418 0
M  V30 388 C 39.5155 4.24594 0.0220912 0
M  V30 389 O 40.5395 3.56166 -0.0491439 0
M  V30 390 O 39.3985 5.46217 0.175958 0
M  V30 391 H 36.4925 0.824663 0.0621342 0
M  V30 392 H 39.0385 1.5767 -0.627556 0
M  V30 393 H 37.8105 3.74533 -1.13316 0
M  V30 394 H 37.4335 3.93473 0.571366 0
M  V30 395 N 38.4306 0.297415 1.54768 0
M  V30 396 C 39.8416 -0.195947 1.85669 0
M  V30 397 C 40.1926 -1.53707 1.21937 0
M  V30 398 O 39.3176 -2.10164 0.515754 0
M  V30 399 C 39.9126 -0.362318 3.36857 0
M  V30 400 C 38.4716 -0.799901 3.67802 0
M  V30 401 C 37.6186 0.0938578 2.77141 0
M  V30 402 H 40.5696 0.518538 1.4999 0
M  V30 403 H 40.5906 -1.19745 3.61167 0
M  V30 404 H 40.1026 0.613921 3.83214 0
M  V30 405 H 38.2036 -1.78682 3.26961 0
M  V30 406 H 38.3166 -0.621773 4.75048 0
M  V30 407 H 36.6806 -0.426254 2.51108 0
M  V30 408 H 37.4636 1.06639 3.26318 0
M  V30 409 N 39.9087 -1.5758 0.0250728 0
M  V30 410 C 41.3197 -1.79476 -0.514323 0
M  V30 411 C 41.6707 -0.934956 -1.72491 0
M  V30 412 O 40.7957 -0.144245 -2.15919 0
M  V30 413 C 41.3907 -3.25503 -0.939842 0
M  V30 414 C 39.9497 -3.48408 -1.42438 0
M  V30 415 C 39.0967 -2.74583 -0.387201 0
M  V30 416 H 42.0477 -1.567 0.25113 0
M  V30 417 H 42.0687 -3.34992 -1.80445 0
M  V30 418 H 41.5807 -3.88056 -0.0585628 0
M  V30 419 H 39.6817 -2.91103 -2.32572 0
M  V30 420 H 39.7947 -4.57119 -1.43455 0
M  V30 421 H 38.1587 -2.39942 -0.854409 0
M  V30 422 H 38.9417 -3.39849 0.485543 0
M  V30 423 N 41.3868 0.248026 -1.55636 0
M  V30 424 C 42.8028 0.596483 -1.48035 0
M  V30 425 C 43.0028 1.88386 -0.715039 0
M  V30 426 O 42.0588 2.51319 -0.243944 0
M  V30 427 C 43.3718 0.700258 -2.92433 0
M  V30 428 C 44.9198 0.792659 -3.02797 0
M  V30 429 C 45.3948 0.928005 -4.485 0
M  V30 430 N 46.8858 0.992903 -4.52433 0
M  V30 431 C 47.6208 1.11687 -5.62418 0
M  V30 432 N 47.1168 1.20645 -6.82214 0
M  V30 433 N 48.9098 1.14994 -5.50212 0
M  V30 434 H 41.0608 -0.597109 -2.03834 0
M  V30 435 H 43.3238 -0.205925 -0.925364 0
M  V30 436 H 43.0298 -0.175658 -3.51261 0
M  V30 437 H 42.9038 1.57255 -3.42857 0
M  V30 438 H 45.2908 1.65903 -2.4405 0
M  V30 439 H 45.3718 -0.104762 -2.55585 0
M  V30 440 H 45.0158 0.0661971 -5.07857 0
M  V30 441 H 44.9458 1.84045 -4.93391 0
M  V30 442 H 47.4368 0.935064 -3.66149 0
M  V30 443 H 47.7498 1.30008 -7.61786 0
M  V30 444 H 46.0948 1.17605 -6.84977 0
M  V30 445 H 49.2858 1.07643 -4.55555 0
M  V30 446 H 49.4588 1.24311 -6.35965 0
M  V30 447 N 42.8649 1.48995 0.513639 0
M  V30 448 C 44.2759 1.5119 1.09537 0
M  V30 449 C 44.6269 0.290906 1.94031 0
M  V30 450 O 43.7519 -0.60049 2.07902 0
M  V30 451 C 44.3469 2.73964 1.99322 0
M  V30 452 C 42.9059 2.78978 2.52682 0
M  V30 453 C 42.0529 2.44934 1.30009 0
M  V30 454 H 45.0039 1.55875 0.298125 0
M  V30 455 H 45.0249 2.53409 2.83838 0
M  V30 456 H 44.5369 3.62813 1.37799 0
M  V30 457 H 42.6379 1.94378 3.1788 0
M  V30 458 H 42.7509 3.8083 2.90698 0
M  V30 459 H 41.1149 1.9644 1.62122 0
M  V30 460 H 41.8979 3.36043 0.702131 0
M  V30 461 N 44.343 -0.763751 1.37857 0
M  V30 462 C 45.591 -1.51957 1.33243 0
M  V30 463 C 45.912 -1.94835 -0.0801709 0
M  V30 464 O 45.182 -1.66894 -1.02582 0
M  V30 465 H 43.762 -0.563626 0.49024 0
M  V30 466 H 46.424 -0.908504 1.7243 0
M  V30 467 H 45.52 -2.41523 1.97669 0
M  V30 468 N 45.8211 -1.22559 -0.990812 0
M  V30 469 C 47.2321 -1.04791 -1.54518 0
M  V30 470 C 47.5831 0.387998 -1.92325 0
M  V30 471 O 46.7081 1.27328 -1.74976 0
M  V30 472 C 47.3031 -1.896 -2.80779 0
M  V30 473 C 45.8621 -1.76124 -3.32652 0
M  V30 474 C 45.0091 -1.8594 -2.05722 0
M  V30 475 H 47.9601 -1.36374 -0.811662 0
M  V30 476 H 47.9811 -1.41464 -3.53225 0
M  V30 477 H 47.4931 -2.94101 -2.53231 0
M  V30 478 H 45.5941 -0.743643 -3.65104 0
M  V30 479 H 45.7071 -2.58913 -4.03114 0
M  V30 480 H 44.0711 -1.29403 -2.19379 0
M  V30 481 H 44.8541 -2.91976 -1.80568 0
M  V30 482 N 47.2992 1.18797 -1.03562 0
M  V30 483 C 48.5242 1.9314 -0.755764 0
M  V30 484 C 48.9492 1.7537 0.68022 0
M  V30 485 O 48.3072 1.06046 1.47051 0
M  V30 486 C 48.3552 3.42747 -1.12058 0
M  V30 487 O 47.4592 4.11683 -0.243124 0
M  V30 488 H 46.8002 0.602724 -0.278604 0
M  V30 489 H 49.3302 1.50678 -1.3841 0
M  V30 490 H 49.3402 3.93437 -1.08035 0
M  V30 491 H 48.0152 3.55002 -2.16672 0
M  V30 492 H 46.5922 3.71323 -0.342539 0
M  V30 493 N 48.7773 0.814389 1.34928 0
M  V30 494 C 50.1933 0.499084 1.51596 0
M  V30 495 C 50.3933 -0.978319 1.76157 0
M  V30 496 O 49.4493 -1.76309 1.80752 0
M  V30 497 C 50.7623 1.35121 2.68631 0
M  V30 498 C 52.3103 1.34746 2.82511 0
M  V30 499 C 52.7853 2.18388 4.0258 0
M  V30 500 N 54.2763 2.15966 4.09772 0
M  V30 501 C 55.0113 2.77437 5.01813 0
M  V30 502 N 54.5073 3.47866 5.99134 0
M  V30 503 N 56.3003 2.67037 4.94619 0
M  V30 504 H 48.4513 1.7711 1.17243 0
M  V30 505 H 50.7143 0.754256 0.574284 0
M  V30 506 H 50.4203 2.40001 2.57085 0
M  V30 507 H 50.2943 1.00991 3.63429 0
M  V30 508 H 52.6813 0.30648 2.93504 0
M  V30 509 H 52.7623 1.72869 1.88547 0
M  V30 510 H 52.4063 3.2253 3.92347 0
M  V30 511 H 52.3363 1.77621 4.9574 0
M  V30 512 H 54.8273 1.64729 3.40107 0
M  V30 513 H 55.1403 3.92038 6.65977 0
M  V30 514 H 53.4853 3.51972 5.99284 0
M  V30 515 H 56.6763 2.11597 4.17546 0
M  V30 516 H 56.8493 3.15232 5.66156 0
M  V30 517 N 50.2554 -1.46986 0.568584 0
M  V30 518 C 51.6664 -1.86188 0.138219 0
M  V30 519 C 52.0174 -1.47388 -1.29504 0
M  V30 520 O 51.1424 -0.88219 -1.97602 0
M  V30 521 C 51.7374 -3.3792 0.244065 0
M  V30 522 C 50.2964 -3.76171 -0.131335 0
M  V30 523 C 49.4434 -2.71027 0.586465 0
M  V30 524 H 52.3944 -1.38342 0.777645 0
M  V30 525 H 52.4154 -3.76729 -0.534351 0
M  V30 526 H 51.9274 -3.66128 1.28731 0
M  V30 527 H 50.0284 -3.5358 -1.17526 0
M  V30 528 H 50.1414 -4.78523 0.235146 0
M  V30 529 H 48.5054 -2.54684 0.0282722 0
M  V30 530 H 49.2884 -3.02077 1.63109 0
M  V30 531 N 51.7335 -0.305618 -1.54608 0
M  V30 532 C 52.6965 0.555591 -2.22364 0
M  V30 533 C 53.6965 1.05768 -1.21119 0
M  V30 534 O 54.8865 0.952972 -1.45822 0
M  V30 535 C 52.0185 1.76974 -2.91364 0
M  V30 536 H 53.2115 -0.0364572 -2.99878 0
M  V30 537 H 50.7645 -0.0565007 -1.56198 0
M  V30 538 H 51.4995 2.40151 -2.17941 0
M  V30 539 H 51.2845 1.41732 -3.65588 0
M  V30 540 H 52.7745 2.38148 -3.43038 0
M  V30 541 N 53.2116 1.57565 -0.0334293 0
M  V30 542 C 54.1216 2.13943 0.962572 0
M  V30 543 C 55.1376 1.09276 1.35406 0
M  V30 544 O 56.3136 1.41355 1.4346 0
M  V30 545 C 53.3786 2.65887 2.22497 0
M  V30 546 C 52.4396 3.85286 1.8935 0
M  V30 547 C 51.6726 4.34743 3.09571 0
M  V30 548 O 51.8956 3.83352 4.22371 0
M  V30 549 O 50.8296 5.26538 2.91618 0
M  V30 550 H 54.6556 2.99333 0.513169 0
M  V30 551 H 52.2406 1.4822 0.18743 0
M  V30 552 H 54.1226 2.99346 2.96598 0
M  V30 553 H 52.7976 1.83578 2.6661 0
M  V30 554 H 51.7046 3.56746 1.1262 0
M  V30 555 H 53.0376 4.68771 1.5005 0
M  V30 556 N 54.6897 -0.239769 1.55765 0
M  V30 557 C 55.6367 -1.29696 1.90913 0
M  V30 558 C 56.6067 -1.47478 0.764164 0
M  V30 559 O 57.7917 -1.61345 1.01845 0
M  V30 560 C 54.9317 -2.64598 2.21544 0
M  V30 561 C 54.0447 -2.54765 3.48882 0
M  V30 562 C 53.1797 -3.82069 3.69049 0
M  V30 563 C 52.2187 -3.66883 4.89963 0
M  V30 564 N 51.3557 -4.86094 5.06614 0
M  V30 565 H 56.1957 -0.990224 2.81067 0
M  V30 566 H 53.7327 -0.477684 1.39128 0
M  V30 567 H 55.6907 -3.43132 2.3731 0
M  V30 568 H 54.3207 -2.93405 1.34585 0
M  V30 569 H 53.3727 -1.67763 3.41409 0
M  V30 570 H 54.6847 -2.39457 4.37563 0
M  V30 571 H 53.8387 -4.69046 3.84812 0
M  V30 572 H 52.5777 -4.00282 2.78614 0
M  V30 573 H 51.5827 -2.78289 4.74168 0
M  V30 574 H 52.8077 -3.50157 5.81865 0
M  V30 575 H 50.7537 -5.04655 4.19117 0
M  V30 576 H 50.6707 -4.73443 5.89396 0
M  V30 577 H 51.9387 -5.74549 5.26795 0
M  V30 578 N 56.1678 -1.49265 -0.50573 0
M  V30 579 C 57.5788 -1.51769 -1.08734 0
M  V30 580 C 57.9298 -0.301192 -1.93874 0
M  V30 581 O 57.0548 0.589456 -2.08217 0
M  V30 582 C 57.6498 -2.75017 -1.97867 0
M  V30 583 C 56.2088 -2.80314 -2.51199 0
M  V30 584 C 55.3558 -2.4562 -1.28709 0
M  V30 585 H 58.3068 -1.56031 -0.289855 0
M  V30 586 H 58.3278 -2.5491 -2.82491 0
M  V30 587 H 57.8398 -3.63539 -1.35873 0
M  V30 588 H 55.9408 -1.96061 -3.16845 0
M  V30 589 H 56.0538 -3.82366 -2.88675 0
M  V30 590 H 54.4178 -1.97297 -1.61078 0
M  V30 591 H 55.2008 -3.36411 -0.6843 0
M  V30 592 N 57.6459 0.756429 -1.3826 0
M  V30 593 C 59.0569 1.33359 -1.30661 0
M  V30 594 C 59.4079 1.96161 0.0388875 0
M  V30 595 O 58.5329 1.94874 0.940918 0
M  V30 596 C 59.1279 2.42477 -2.36622 0
M  V30 597 C 57.6869 2.95922 -2.3261 0
M  V30 598 C 56.8339 1.69275 -2.19639 0
M  V30 599 H 59.7849 0.55552 -1.4866 0
M  V30 600 H 59.8059 3.22345 -2.02174 0
M  V30 601 H 59.3179 1.96739 -3.34538 0
M  V30 602 H 57.4189 3.45996 -1.38267 0
M  V30 603 H 57.5319 3.50494 -3.26636 0
M  V30 604 H 55.8959 1.92793 -1.66442 0
M  V30 605 H 56.6789 1.25619 -3.19491 0
M  V30 606 N 59.124 1.23083 0.984299 0
M  V30 607 C 60.54 0.992637 1.24975 0
M  V30 608 C 60.74 -0.308618 1.99123 0
M  V30 609 O 59.796 -1.02905 2.30579 0
M  V30 610 C 61.109 2.19698 2.05312 0
M  V30 611 C 62.657 2.24147 2.18465 0
M  V30 612 C 63.132 3.44157 3.02192 0
M  V30 613 N 64.623 3.44372 3.09777 0
M  V30 614 C 65.358 4.33886 3.74874 0
M  V30 615 N 64.854 5.3363 4.41827 0
M  V30 616 N 66.647 4.21639 3.71721 0
M  V30 617 H 58.798 2.06731 0.487453 0
M  V30 618 H 61.061 0.906339 0.277944 0
M  V30 619 H 60.767 3.1411 1.58201 0
M  V30 620 H 60.641 2.20465 3.06064 0
M  V30 621 H 63.028 1.30277 2.64786 0
M  V30 622 H 63.109 2.27415 1.17115 0
M  V30 623 H 62.753 4.38332 2.56568 0
M  V30 624 H 62.683 3.3813 4.03702 0
M  V30 625 H 65.174 2.72201 2.62135 0
M  V30 626 H 65.487 5.98196 4.89266 0
M  V30 627 H 63.832 5.37534 4.40548 0
M  V30 628 H 67.023 3.42962 3.18582 0
M  V30 629 H 67.196 4.91604 4.22173 0
M  V30 630 N 60.6021 -1.18246 1.0419 0
M  V30 631 C 62.0131 -1.69914 0.773698 0
M  V30 632 C 62.3641 -1.83085 -0.705297 0
M  V30 633 O 61.4891 -1.51123 -1.5489 0
M  V30 634 C 62.0841 -3.08619 1.39784 0
M  V30 635 C 60.6431 -3.57494 1.17792 0
M  V30 636 C 59.7901 -2.34013 1.48773 0
M  V30 637 H 62.7411 -1.02904 1.20816 0
M  V30 638 H 62.7621 -3.71958 0.801714 0
M  V30 639 H 62.2741 -2.99001 2.47426 0
M  V30 640 H 60.3751 -3.72406 0.120295 0
M  V30 641 H 60.4881 -4.40852 1.87581 0
M  V30 642 H 58.8521 -2.37986 0.907463 0
M  V30 643 H 59.6351 -2.27013 2.57527 0
M  V30 644 N 62.0802 -0.821533 -1.34494 0
M  V30 645 C 62.9902 -0.244355 -2.33324 0
M  V30 646 C 64.0062 0.620527 -1.62559 0
M  V30 647 O 65.1822 0.528754 -1.94335 0
M  V30 648 C 62.2472 0.585368 -3.41723 0
M  V30 649 C 61.3082 -0.301752 -4.28238 0
M  V30 650 C 60.5412 0.488466 -5.3146 0
M  V30 651 O 60.7642 1.72186 -5.4379 0
M  V30 652 O 59.6982 -0.12848 -6.01763 0
M  V30 653 H 63.5242 -1.06231 -2.84515 0
M  V30 654 H 61.1092 -0.583645 -1.37528 0
M  V30 655 H 62.9912 1.05747 -4.07916 0
M  V30 656 H 61.6662 1.38068 -2.92778 0
M  V30 657 H 60.5732 -0.821315 -3.64973 0
M  V30 658 H 61.9062 -1.06138 -4.8062 0
M  V30 659 N 63.5583 1.46682 -0.576371 0
M  V30 660 C 64.5213 2.28707 0.150239 0
M  V30 661 C 65.5213 1.38035 0.824794 0
M  V30 662 O 66.7113 1.60476 0.677719 0
M  V30 663 C 63.8433 3.18248 1.22192 0
M  V30 664 H 65.0363 2.94423 -0.570521 0
M  V30 665 H 62.5893 1.52688 -0.334078 0
M  V30 666 H 63.3243 2.57265 1.97447 0
M  V30 667 H 63.1093 3.85 0.742812 0
M  V30 668 H 64.5993 3.80001 1.73172 0
M  V30 669 N 65.0364 0.313813 1.54444 0
M  V30 670 C 65.9834 -0.55655 2.23989 0
M  V30 671 C 66.9534 -1.11943 1.22711 0
M  V30 672 O 68.1384 -1.16158 1.51367 0
M  V30 673 C 65.2784 -1.71635 2.99392 0
M  V30 674 C 64.3914 -1.18364 4.15468 0
M  V30 675 C 63.5264 -2.30834 4.78424 0
M  V30 676 C 62.5654 -1.74762 5.86622 0
M  V30 677 N 61.7024 -2.80855 6.43479 0
M  V30 678 H 66.5424 0.0430893 2.97969 0
M  V30 679 H 64.0794 0.0330359 1.47063 0
M  V30 680 H 66.0374 -2.39868 3.41349 0
M  V30 681 H 64.6674 -2.28742 2.27765 0
M  V30 682 H 63.7194 -0.393163 3.78363 0
M  V30 683 H 65.0314 -0.733262 4.93381 0
M  V30 684 H 64.1854 -3.0699 5.23299 0
M  V30 685 H 62.9244 -2.79204 3.99871 0
M  V30 686 H 61.9294 -0.970995 5.41158 0
M  V30 687 H 63.1544 -1.2728 6.67066 0
M  V30 688 H 61.1004 -3.28535 5.67804 0
M  V30 689 H 61.0174 -2.40351 7.16776 0
M  V30 690 H 62.2854 -3.5687 6.93011 0
M  V30 691 N 66.5145 -1.57545 0.0417849 0
M  V30 692 C 67.7395 -1.97035 -0.647455 0
M  V30 693 C 68.1645 -0.918775 -1.64135 0
M  V30 694 O 67.5225 0.119006 -1.80909 0
M  V30 695 C 67.5705 -3.35609 -1.31905 0
M  V30 696 O 66.6745 -3.3287 -2.43457 0
M  V30 697 H 66.0155 -0.64211 -0.169086 0
M  V30 698 H 68.5455 -2.04318 0.107399 0
M  V30 699 H 68.5555 -3.72126 -1.67291 0
M  V30 700 H 67.2305 -4.11685 -0.590586 0
M  V30 701 H 65.8075 -3.08087 -2.10088 0
M  V30 702 N 67.9926 0.231505 -1.5589 0
M  V30 703 C 68.9556 1.27028 -1.90779 0
M  V30 704 C 69.9556 1.40308 -0.785507 0
M  V30 705 O 71.1456 1.38744 -1.05336 0
M  V30 706 C 68.2776 2.64566 -2.14983 0
M  V30 707 H 69.4706 0.973017 -2.83677 0
M  V30 708 H 67.0236 0.471486 -1.49019 0
M  V30 709 H 67.7586 2.99406 -1.24604 0
M  V30 710 H 67.5436 2.56305 -2.96732 0
M  V30 711 H 69.0336 3.39543 -2.43105 0
M  V30 712 N 69.4707 1.49531 0.497807 0
M  V30 713 C 70.4027 1.62559 1.61578 0
M  V30 714 C 71.4157 0.508134 1.54667 0
M  V30 715 O 72.6047 0.780309 1.60541 0
M  V30 716 C 69.7047 1.56925 3.00379 0
M  V30 717 C 68.8777 2.84257 3.3244 0
M  V30 718 C 67.9367 2.71632 4.50669 0
M  V30 719 O 66.9627 3.4557 4.52294 0
M  V30 720 N 68.1647 1.83391 5.5077 0
M  V30 721 H 70.9297 2.58981 1.50828 0
M  V30 722 H 68.4907 1.4666 0.685743 0
M  V30 723 H 70.4827 1.46129 3.77397 0
M  V30 724 H 69.0527 0.683483 3.05037 0
M  V30 725 H 68.2727 3.09381 2.44289 0
M  V30 726 H 69.5607 3.68666 3.5066 0
M  V30 727 H 68.9587 1.22583 5.52259 0
M  V30 728 H 67.5157 1.78515 6.26878 0
M  V30 729 N 70.9488 -0.749086 1.3866 0
M  V30 730 C 72.3598 -1.32664 1.31366 0
M  V30 731 C 72.7108 -1.96179 -0.028484 0
M  V30 732 O 71.8358 -1.9537 -0.93057 0
M  V30 733 C 72.4308 -2.41219 2.37905 0
M  V30 734 C 70.9898 -2.94684 2.34176 0
M  V30 735 C 70.1368 -1.68108 2.20533 0
M  V30 736 H 73.0878 -0.547628 1.48952 0
M  V30 737 H 73.1088 -3.21268 2.0388 0
M  V30 738 H 72.6208 -1.94962 3.35576 0
M  V30 739 H 70.7218 -3.45258 1.401 0
M  V30 740 H 70.8348 -3.48757 3.2849 0
M  V30 741 H 69.1988 -1.91907 1.67463 0
M  V30 742 H 69.9818 -1.23923 3.20153 0
M  V30 743 N 72.4269 -1.23603 -0.977757 0
M  V30 744 C 73.3899 -1.02069 -2.05218 0
M  V30 745 C 74.3899 0.0184305 -1.60789 0
M  V30 746 O 75.5799 -0.221569 -1.72785 0
M  V30 747 C 72.7119 -0.544926 -3.36517 0
M  V30 748 H 73.9049 -1.9742 -2.25755 0
M  V30 749 H 71.4579 -1.05684 -1.15155 0
M  V30 750 H 72.1929 0.412241 -3.21669 0
M  V30 751 H 71.9779 -1.2948 -3.70105 0
M  V30 752 H 73.4679 -0.414985 -4.15533 0
M  V30 753 N 73.905 1.17692 -1.04816 0
M  V30 754 C 75.182 1.83768 -0.669963 0
M  V30 755 C 75.562 1.93232 0.849986 0
M  V30 756 O 74.91 1.46397 1.75443 0
M  V30 757 C 75.12 3.21641 -1.35455 0
M  V30 758 C 76.468 3.97592 -1.49017 0
M  V30 759 O 77.492 3.31107 -1.31326 0
M  V30 760 O 76.351 5.16729 -1.77914 0
M  V30 761 H 73.445 0.792799 -0.235368 0
M  V30 762 H 75.991 1.25021 -1.14751 0
M  V30 763 H 74.763 3.097 -2.39168 0
M  V30 764 H 74.386 3.88052 -0.866107 0
M  V30 765 N 75.3831 0.828654 1.34056 0
M  V30 766 C 76.6311 0.41863 1.97717 0
M  V30 767 C 76.9521 -1.02314 1.66002 0
M  V30 768 O 76.2221 -1.71119 0.953683 0
M  V30 769 H 74.8021 0.151809 0.731412 0
M  V30 770 H 77.4641 1.05936 1.63596 0
M  V30 771 H 76.5601 0.542318 3.07352 0
M  V30 772 N 76.8612 -1.46375 0.584142 0
M  V30 773 C 78.1072 -2.03248 0.0787103 0
M  V30 774 C 78.4622 -1.44737 -1.26763 0
M  V30 775 O 77.7552 -0.603625 -1.81843 0
M  V30 776 C 77.9492 -3.57373 -0.0439342 0
M  V30 777 C 77.7782 -4.30831 1.28897 0
M  V30 778 C 76.5482 -4.69683 1.8635 0
M  V30 779 C 78.7462 -4.64278 2.21248 0
M  V30 780 N 76.7282 -5.27898 3.13365 0
M  V30 781 C 78.0992 -5.23078 3.32851 0
M  V30 782 C 80.1542 -4.46209 2.20911 0
M  V30 783 C 78.8572 -5.65715 4.44251 0
M  V30 784 C 80.8832 -4.89864 3.31341 0
M  V30 785 C 80.2452 -5.48736 4.41665 0
M  V30 786 H 76.3442 -0.778714 0.0716144 0
M  V30 787 H 78.9282 -1.78509 0.777355 0
M  V30 788 H 77.0992 -3.81823 -0.711749 0
M  V30 789 H 78.8312 -4.00892 -0.553881 0
M  V30 790 H 75.5862 -4.52488 1.39826 0
M  V30 791 H 76.0102 -5.61525 3.78178 0
M  V30 792 H 80.6522 -4.00027 1.36888 0
M  V30 793 H 78.3702 -6.10875 5.29015 0
M  V30 794 H 81.9562 -4.77634 3.322 0
M  V30 795 H 80.8362 -5.81898 5.25704 0
M  V30 796 N 78.3393 -0.321999 -1.54275 0
M  V30 797 C 79.2863 0.544664 -2.24281 0
M  V30 798 C 80.2563 1.1129 -1.23303 0
M  V30 799 O 81.4413 1.15354 -1.51981 0
M  V30 800 C 78.5813 1.70045 -3.00298 0
M  V30 801 C 77.6943 1.16159 -4.1609 0
M  V30 802 C 76.8293 2.28293 -4.79641 0
M  V30 803 C 75.8683 1.71648 -5.8754 0
M  V30 804 N 75.0053 2.77438 -6.44959 0
M  V30 805 H 79.8453 -0.0588907 -2.97942 0
M  V30 806 H 77.3823 -0.0408345 -1.47043 0
M  V30 807 H 79.3403 2.38054 -3.42616 0
M  V30 808 H 77.9703 2.27531 -2.28975 0
M  V30 809 H 77.0223 0.373092 -3.78566 0
M  V30 810 H 78.3343 0.707087 -4.93763 0
M  V30 811 H 77.4883 3.0421 -5.2492 0
M  V30 812 H 76.2273 2.77079 -4.01346 0
M  V30 813 H 75.2323 0.942282 -5.41665 0
M  V30 814 H 76.4573 1.23741 -6.67731 0
M  V30 815 H 74.4033 3.25519 -5.69538 0
M  V30 816 H 74.3203 2.36547 -7.1804 0
M  V30 817 H 75.5883 3.53189 -6.94894 0
M  V30 818 N 79.8174 1.5752 -0.0501392 0
M  V30 819 C 81.0654 1.9227 0.622642 0
M  V30 820 C 81.3864 0.929083 1.71444 0
M  V30 821 O 80.6564 -0.0262186 1.95882 0
M  V30 822 H 79.2364 0.709739 0.232981 0
M  V30 823 H 81.8984 1.94628 -0.102898 0
M  V30 824 H 80.9944 2.93479 1.06191 0
M  V30 825 N 81.2955 -0.223234 1.56011 0
M  V30 826 C 82.2055 -1.29766 1.95443 0
M  V30 827 C 83.2215 -1.51373 0.858028 0
M  V30 828 O 84.3975 -1.64536 1.16146 0
M  V30 829 C 81.4625 -2.62772 2.26167 0
M  V30 830 C 80.5235 -2.49482 3.49367 0
M  V30 831 C 79.7565 -3.76145 3.78616 0
M  V30 832 O 79.9795 -4.79087 3.09568 0
M  V30 833 O 78.9135 -3.73358 4.72109 0
M  V30 834 H 82.7395 -0.99309 2.87004 0
M  V30 835 H 80.3245 -0.425958 1.43199 0
M  V30 836 H 82.2065 -3.41327 2.47131 0
M  V30 837 H 80.8815 -2.92913 1.37781 0
M  V30 838 H 79.7885 -1.69133 3.33684 0
M  V30 839 H 81.1215 -2.2428 4.38131 0
M  V30 840 N 82.7736 -1.49793 -0.48987 0
M  V30 841 C 84.1896 -1.36803 -0.822022 0
M  V30 842 C 84.3896 -0.409652 -1.97292 0
M  V30 843 O 83.4456 0.154614 -2.52026 0
M  V30 844 C 84.7586 -2.77768 -1.15175 0
M  V30 845 C 86.3066 -2.86549 -1.25931 0
M  V30 846 C 86.7816 -4.28306 -1.62228 0
M  V30 847 N 88.2726 -4.31169 -1.69256 0
M  V30 848 C 89.0076 -5.37832 -1.98807 0
M  V30 849 N 88.5036 -6.54726 -2.26507 0
M  V30 850 N 90.2966 -5.25258 -2.00152 0
M  V30 851 H 82.4476 -2.10691 0.268881 0
M  V30 852 H 84.7106 -0.946241 0.057728 0
M  V30 853 H 84.4166 -3.49648 -0.379335 0
M  V30 854 H 84.2906 -3.13836 -2.09253 0
M  V30 855 H 86.6776 -2.14899 -2.02243 0
M  V30 856 H 86.7586 -2.54049 -0.298776 0
M  V30 857 H 86.4026 -5.00486 -0.864622 0
M  V30 858 H 86.3326 -4.58279 -2.594 0
M  V30 859 H 88.8236 -3.4687 -1.49965 0
M  V30 860 H 89.1366 -7.31833 -2.48276 0
M  V30 861 H 87.4816 -6.57933 -2.23939 0
M  V30 862 H 90.6726 -4.32938 -1.77996 0
M  V30 863 H 90.8456 -6.08476 -2.22848 0
M  V30 864 N 84.2517 0.741722 -1.39055 0
M  V30 865 C 85.6627 1.31966 -1.32068 0
M  V30 866 C 86.0137 1.96192 0.0180797 0
M  V30 867 O 85.1387 1.95861 0.920196 0
M  V30 868 C 85.7337 2.39954 -2.39181 0
M  V30 869 C 84.2927 2.93438 -2.35735 0
M  V30 870 C 83.4397 1.66936 -2.21422 0
M  V30 871 H 86.3907 0.539721 -1.4924 0
M  V30 872 H 86.4117 3.20182 -2.05581 0
M  V30 873 H 85.9237 1.9318 -3.36605 0
M  V30 874 H 84.0247 3.4451 -1.41929 0
M  V30 875 H 84.1377 3.4701 -3.30335 0
M  V30 876 H 82.5017 1.91016 -1.68478 0
M  V30 877 H 83.2847 1.22224 -3.20806 0
M  V30 878 N 85.7298 1.2412 0.971189 0
M  V30 879 C 87.1458 1.00584 1.23916 0
M  V30 880 C 87.3458 -0.287481 1.99439 0
M  V30 881 O 86.4018 -1.00454 2.31658 0
M  V30 882 C 87.7148 2.21864 2.0297 0
M  V30 883 C 89.2628 2.26452 2.16076 0
M  V30 884 C 89.7378 3.47343 2.98524 0
M  V30 885 N 91.2288 3.47639 3.06107 0
M  V30 886 C 91.9638 4.37837 3.70251 0
M  V30 887 N 91.4598 5.38286 4.36142 0
M  V30 888 N 93.2528 4.25558 3.67228 0
M  V30 889 H 85.4038 2.07236 0.465499 0
M  V30 890 H 87.6668 0.909236 0.268315 0
M  V30 891 H 87.3728 3.15771 1.54861 0
M  V30 892 H 87.2468 2.23698 3.03709 0
M  V30 893 H 89.6338 1.33078 2.6339 0
M  V30 894 H 89.7148 2.28645 1.14696 0
M  V30 895 H 89.3588 4.41029 2.51905 0
M  V30 896 H 89.2888 3.42393 4.00093 0
M  V30 897 H 91.7798 2.74966 2.59233 0
M  V30 898 H 92.0928 6.03352 4.82894 0
M  V30 899 H 90.4378 5.42176 4.34822 0
M  V30 900 H 93.6288 3.46322 3.14927 0
M  V30 901 H 93.8018 4.96054 4.16935 0
M  V30 902 N 87.2079 -1.17134 1.05439 0
M  V30 903 C 88.4329 -1.91913 0.786396 0
M  V30 904 C 88.8579 -1.7643 -0.652234 0
M  V30 905 O 88.2159 -1.08372 -1.45345 0
M  V30 906 C 88.2639 -3.40921 1.17497 0
M  V30 907 O 87.3679 -4.11244 0.308589 0
M  V30 908 H 86.7089 -0.598215 0.288158 0
M  V30 909 H 89.2389 -1.48457 1.4079 0
M  V30 910 H 89.2489 -3.91668 1.14281 0
M  V30 911 H 87.9239 -3.5151 2.22292 0
M  V30 912 H 86.5009 -3.70731 0.40157 0
M  V30 913 N 88.686 -0.835752 -1.33615 0
M  V30 914 C 89.596 -0.269088 -2.33052 0
M  V30 915 C 90.612 0.603251 -1.63208 0
M  V30 916 O 91.788 0.508112 -1.94885 0
M  V30 917 C 88.853 0.549091 -3.42324 0
M  V30 918 C 87.914 -0.347156 -4.27894 0
M  V30 919 C 87.147 0.43207 -5.31948 0
M  V30 920 O 87.37 1.66409 -5.45586 0
M  V30 921 O 86.304 -0.192298 -6.01593 0
M  V30 922 H 90.13 -1.09243 -2.83372 0
M  V30 923 H 87.715 -0.598198 -1.36901 0
M  V30 924 H 89.597 1.01414 -4.09015 0
M  V30 925 H 88.272 1.34955 -2.94226 0
M  V30 926 H 87.179 -0.859979 -3.64081 0
M  V30 927 H 88.512 -1.1123 -4.79467 0
M  V30 928 N 90.1641 1.46063 -0.591896 0
M  V30 929 C 91.0741 2.34192 0.13831 0
M  V30 930 C 92.0901 1.50305 0.876608 0
M  V30 931 O 93.2661 1.8315 0.837728 0
M  V30 932 C 90.3311 3.27656 1.13326 0
M  V30 933 C 89.3921 4.27445 0.39863 0
M  V30 934 C 88.6251 5.16443 1.34618 0
M  V30 935 O 88.8481 5.08553 2.58321 0
M  V30 936 O 87.7821 5.95843 0.851768 0
M  V30 937 H 91.6081 2.98002 -0.58552 0
M  V30 938 H 89.1931 1.45188 -0.352239 0
M  V30 939 H 91.0751 3.85291 1.70671 0
M  V30 940 H 89.7501 2.6643 1.83839 0
M  V30 941 H 88.6571 3.73471 -0.216895 0
M  V30 942 H 89.9901 4.91482 -0.265709 0
M  V30 943 N 91.6422 0.330177 1.54103 0
M  V30 944 C 92.9192 -0.325007 1.92881 0
M  V30 945 C 93.2992 -1.6934 1.26045 0
M  V30 946 O 92.6472 -2.24855 0.406526 0
M  V30 947 C 92.8572 -0.410634 3.46576 0
M  V30 948 C 94.2052 -0.667801 4.19316 0
M  V30 949 O 95.2292 -0.49329 3.52768 0
M  V30 950 O 94.0882 -1.00491 5.37181 0
M  V30 951 H 91.1822 -0.186873 0.80561 0
M  V30 952 H 93.7282 0.380376 1.65382 0
M  V30 953 H 92.5002 0.550164 3.87413 0
M  V30 954 H 92.1232 -1.16333 3.802 0
M  V30 955 N 93.1203 -1.57491 0.0584922 0
M  V30 956 C 94.0683 -2.13148 -0.931168 0
M  V30 957 C 95.0623 -1.06507 -1.31729 0
M  V30 958 O 96.2683 -1.24906 -1.29609 0
M  V30 959 H 92.6433 -0.68137 -0.31818 0
M  V30 960 H 94.6143 -2.95187 -0.436707 0
M  V30 961 C 93.3633 -2.69732 -2.19408 0
M  V30 962 H 92.6863 -3.51454 -1.90578 0
M  V30 963 H 94.1263 -3.12287 -2.86798 0
M  V30 964 C 92.5853 -1.63855 -2.94369 0
M  V30 965 O 93.1153 -1.05565 -3.87581 0
M  V30 966 N 91.3213 -1.35202 -2.57233 0
M  V30 967 H 90.8683 -1.82791 -1.81508 0
M  V30 968 H 90.8263 -0.645922 -3.07693 0
M  V30 969 N 94.5984 0.214957 -1.56127 0
M  V30 970 C 95.5084 1.28727 -1.96129 0
M  V30 971 C 96.5244 1.50916 -0.866044 0
M  V30 972 O 97.7004 1.63918 -1.17016 0
M  V30 973 C 94.7654 2.61569 -2.27558 0
M  V30 974 C 93.8264 2.47625 -3.50685 0
M  V30 975 C 93.0594 3.74132 -3.80606 0
M  V30 976 O 93.2824 4.77438 -3.12104 0
M  V30 977 O 92.2164 3.70849 -4.74083 0
M  V30 978 H 96.0424 0.977855 -2.87527 0
M  V30 979 H 93.6274 0.418358 -1.43423 0
M  V30 980 H 95.5094 3.40012 -2.48938 0
M  V30 981 H 94.1844 2.92178 -1.39332 0
M  V30 982 H 93.0914 1.67361 -3.34576 0
M  V30 983 H 94.4244 2.21954 -4.39315 0
M  V30 984 N 96.0765 1.50051 0.48192 0
M  V30 985 C 97.0065 1.71046 1.58951 0
M  V30 986 C 97.9875 0.559288 1.60642 0
M  V30 987 O 99.1725 0.797243 1.77081 0
M  V30 988 C 96.3025 1.79462 2.97339 0
M  V30 989 C 95.2565 2.94558 3.10515 0
M  V30 990 C 94.5825 2.88105 4.50444 0
M  V30 991 C 95.8825 4.35227 2.88747 0
M  V30 992 H 97.5765 2.6378 1.41635 0
M  V30 993 H 95.1225 1.26936 0.679942 0
M  V30 994 H 97.0755 1.92734 3.74742 0
M  V30 995 H 95.7995 0.833412 3.15788 0
M  V30 996 H 94.4585 2.80918 2.35543 0
M  V30 997 H 94.1065 1.89853 4.65795 0
M  V30 998 H 93.8065 3.65366 4.60197 0
M  V30 999 H 95.3305 3.03412 5.29881 0
M  V30 1000 H 96.7445 4.49449 3.55905 0
M  V30 1001 H 95.1415 5.13856 3.09955 0
M  V30 1002 H 96.2115 4.48347 1.84696 0
M  V30 1003 N 97.5546 -0.734337 1.39446 0
M  V30 1004 C 98.5026 -1.86971 1.38364 0
M  V30 1005 C 99.4966 -1.67288 0.266687 0
M  V30 1006 O 100.703 -1.74621 0.436755 0
M  V30 1007 H 97.0776 -0.615474 0.432082 0
M  V30 1008 H 99.0486 -1.85 2.34132 0
M  V30 1009 C 97.7976 -3.2466 1.24465 0
M  V30 1010 H 97.1206 -3.40402 2.09682 0
M  V30 1011 H 98.5606 -4.04292 1.27764 0
M  V30 1012 C 97.0196 -3.36867 -0.0468674 0
M  V30 1013 O 97.5496 -3.88618 -1.01681 0
M  V30 1014 N 95.7556 -2.90391 -0.110145 0
M  V30 1015 H 95.3026 -2.48466 0.679868 0
M  V30 1016 H 95.2606 -2.98939 -0.973799 0
M  V30 1017 N 99.0327 -1.24633 -0.964593 0
M  V30 1018 C 99.9627 -1.06611 -2.07741 0
M  V30 1019 C 100.944 0.0218666 -1.70086 0
M  V30 1020 O 102.129 -0.145793 -1.93652 0
M  V30 1021 C 99.2587 -0.673444 -3.40708 0
M  V30 1022 C 98.2127 -1.71054 -3.92332 0
M  V30 1023 C 97.5387 -1.17285 -5.21678 0
M  V30 1024 C 98.8387 -3.10718 -4.19824 0
M  V30 1025 H 100.533 -1.99693 -2.23076 0
M  V30 1026 H 98.0787 -0.96152 -1.07195 0
M  V30 1027 H 100.032 -0.534345 -4.17998 0
M  V30 1028 H 98.7557 0.293073 -3.25282 0
M  V30 1029 H 97.4147 -1.83791 -3.17201 0
M  V30 1030 H 97.0627 -0.196847 -5.02615 0
M  V30 1031 H 96.7627 -1.86592 -5.57187 0
M  V30 1032 H 98.2867 -1.04593 -6.01575 0
M  V30 1033 H 99.7007 -3.01192 -4.87808 0
M  V30 1034 H 98.0977 -3.77406 -4.66567 0
M  V30 1035 H 99.1677 -3.58524 -3.26479 0
M  V30 1036 N 100.511 1.16574 -1.06058 0
M  V30 1037 C 101.922 1.68662 -0.800632 0
M  V30 1038 C 102.273 1.84184 0.67608 0
M  V30 1039 O 101.398 1.53568 1.52466 0
M  V30 1040 C 101.993 3.06356 -1.44676 0
M  V30 1041 C 100.552 3.55575 -1.23465 0
M  V30 1042 C 99.6988 2.31616 -1.52477 0
M  V30 1043 H 102.65 1.00969 -1.22438 0
M  V30 1044 H 102.671 3.70636 -0.860788 0
M  V30 1045 H 102.183 2.95027 -2.52152 0
M  V30 1046 H 100.284 3.72167 -0.179527 0
M  V30 1047 H 100.397 4.37812 -1.94571 0
M  V30 1048 H 98.7608 2.36512 -0.945209 0
M  V30 1049 H 99.5438 2.22887 -2.61106 0
M  V30 1050 N 101.989 0.842826 1.3317 0
M  V30 1051 C 102.937 0.267495 2.31057 0
M  V30 1052 C 103.931 -0.602682 1.58316 0
M  V30 1053 O 105.137 -0.491803 1.73151 0
M  V30 1054 H 101.512 0.0677813 0.748939 0
M  V30 1055 H 103.483 1.10754 2.77085 0
M  V30 1056 C 102.232 -0.539331 3.43492 0
M  V30 1057 H 101.555 0.12095 3.99617 0
M  V30 1058 H 102.995 -0.90767 4.14171 0
M  V30 1059 C 101.454 -1.71981 2.89697 0
M  V30 1060 O 101.984 -2.81862 2.86211 0
M  V30 1061 N 100.19 -1.54299 2.46252 0
M  V30 1062 H 99.7369 -0.649143 2.49287 0
M  V30 1063 H 99.6949 -2.33431 2.10612 0
M  V30 1064 N 103.467 -1.45747 0.599634 0
M  V30 1065 C 104.397 -2.33235 -0.111306 0
M  V30 1066 C 105.378 -1.46359 -0.866781 0
M  V30 1067 O 106.563 -1.75146 -0.838904 0
M  V30 1068 C 103.693 -3.28932 -1.11451 0
M  V30 1069 C 102.647 -4.25381 -0.472772 0
M  V30 1070 C 101.973 -5.1071 -1.58365 0
M  V30 1071 C 103.273 -5.18831 0.600948 0
M  V30 1072 H 104.967 -2.92927 0.61919 0
M  V30 1073 H 102.513 -1.40857 0.299215 0
M  V30 1074 H 104.466 -3.89002 -1.62036 0
M  V30 1075 H 103.19 -2.67381 -1.8755 0
M  V30 1076 H 101.849 -3.66598 0.0121472 0
M  V30 1077 H 101.497 -4.45533 -2.33473 0
M  V30 1078 H 101.197 -5.7604 -1.15982 0
M  V30 1079 H 102.721 -5.73647 -2.09194 0
M  V30 1080 H 104.135 -5.73019 0.179491 0
M  V30 1081 H 102.532 -5.92595 0.946076 0
M  V30 1082 H 103.602 -4.6174 1.48068 0
M  V30 1083 N 104.945 -0.338344 -1.53925 0
M  V30 1084 C 105.908 0.508299 -2.23493 0
M  V30 1085 C 106.908 1.03175 -1.23335 0
M  V30 1086 O 108.098 0.921826 -1.47811 0
M  V30 1087 C 105.23 1.70754 -2.95052 0
M  V30 1088 H 106.423 -0.100058 -2.99733 0
M  V30 1089 H 103.976 -0.0896198 -1.56043 0
M  V30 1090 H 104.711 2.35474 -2.22986 0
M  V30 1091 H 104.496 1.33946 -3.68512 0
M  V30 1092 H 105.986 2.30818 -3.48013 0
M  V30 1093 N 106.423 1.57458 -0.0668435 0
M  V30 1094 C 107.386 2.11323 0.887422 0
M  V30 1095 C 108.386 1.03618 1.22964 0
M  V30 1096 O 109.576 1.29626 1.16373 0
M  V30 1097 C 106.708 2.61048 2.19242 0
M  V30 1098 H 107.901 2.96942 0.420194 0
M  V30 1099 H 105.454 1.55239 0.181793 0
M  V30 1100 H 106.189 1.78868 2.70512 0
M  V30 1101 H 105.974 3.39769 1.95702 0
M  V30 1102 H 107.464 3.02814 2.87565 0
M  V30 1103 N 107.901 -0.206675 1.56239 0
M  V30 1104 C 108.864 -1.23976 1.92776 0
M  V30 1105 C 109.864 -1.39041 0.807729 0
M  V30 1106 O 111.054 -1.37051 1.0753 0
M  V30 1107 C 108.186 -2.61112 2.19165 0
M  V30 1108 H 109.379 -0.927764 2.85189 0
M  V30 1109 H 106.932 -0.447718 1.4975 0
M  V30 1110 H 107.667 -2.97386 1.29352 0
M  V30 1111 H 107.452 -2.51552 3.00772 0
M  V30 1112 H 108.942 -3.35633 2.48476 0
M  V30 1113 N 109.379 -1.50304 -0.473955 0
M  V30 1114 C 110.609 -1.64663 -1.24778 0
M  V30 1115 C 111.017 -0.328174 -1.86332 0
M  V30 1116 O 110.36 0.699536 -1.69859 0
M  V30 1117 C 110.422 -2.6778 -2.39863 0
M  V30 1118 C 110.086 -4.11413 -1.98969 0
M  V30 1119 C 111.083 -4.97372 -1.51385 0
M  V30 1120 C 108.768 -4.57312 -2.07777 0
M  V30 1121 C 110.762 -6.27277 -1.13148 0
M  V30 1122 C 108.449 -5.87223 -1.69152 0
M  V30 1123 C 109.447 -6.72031 -1.21915 0
M  V30 1124 O 109.135 -7.99518 -0.838237 0
M  V30 1125 H 108.867 -0.556602 -0.383627 0
M  V30 1126 H 111.421 -1.9726 -0.572491 0
M  V30 1127 H 109.651 -2.30419 -3.10554 0
M  V30 1128 H 111.34 -2.71388 -3.01833 0
M  V30 1129 H 112.106 -4.63128 -1.44004 0
M  V30 1130 H 107.985 -3.91449 -2.43493 0
M  V30 1131 H 111.529 -6.93425 -0.762077 0
M  V30 1132 H 107.426 -6.20989 -1.76191 0
M  V30 1133 H 108.194 -8.12764 -0.967339 0
M  V30 1134 N 110.857 0.726932 -1.39834 0
M  V30 1135 C 112.082 1.52121 -1.40976 0
M  V30 1136 C 112.507 1.88098 -0.00826029 0
M  V30 1137 O 111.865 1.52479 0.980807 0
M  V30 1138 C 111.913 2.78021 -2.29644 0
M  V30 1139 O 111.017 3.74272 -1.73188 0
M  V30 1140 H 110.358 0.45908 -0.479731 0
M  V30 1141 H 112.888 0.896207 -1.83927 0
M  V30 1142 H 112.898 3.26671 -2.44438 0
M  V30 1143 H 111.573 2.51169 -3.31492 0
M  V30 1144 H 110.15 3.33073 -1.6768 0
M  V30 1145 N 112.336 1.25143 0.95797 0
M  V30 1146 C 113.561 1.12521 1.74223 0
M  V30 1147 C 113.986 -0.317402 1.85403 0
M  V30 1148 O 113.344 -1.2299 1.33204 0
M  V30 1149 C 113.392 1.78062 3.1357 0
M  V30 1150 O 112.496 1.058 3.98598 0
M  V30 1151 H 111.837 0.39304 0.535178 0
M  V30 1152 H 114.367 1.65641 1.201 0
M  V30 1153 H 114.377 1.84213 3.64046 0
M  V30 1154 H 113.052 2.83021 3.04749 0
M  V30 1155 H 111.629 1.07506 3.57067 0
M  V30 1156 N 113.814 -1.1601 1.06675 0
M  V30 1157 C 115.063 -1.85973 0.780818 0
M  V30 1158 C 115.376 -1.82819 -0.695444 0
M  V30 1159 O 116.582 -2.484 -1.09589 0
M  V30 1160 C 115.038 -3.33757 1.34665 0
M  V30 1161 C 114.646 -3.45374 2.85343 0
M  V30 1162 C 116.39 -4.0895 1.13843 0
M  V30 1163 C 114.297 -4.87266 3.35151 0
M  V30 1164 H 113.227 -0.696661 0.288407 0
M  V30 1165 H 115.878 -1.30903 1.28595 0
M  V30 1166 H 114.26 -3.88456 0.769274 0
M  V30 1167 H 115.434 -3.00816 3.49065 0
M  V30 1168 H 113.749 -2.83619 3.04876 0
M  V30 1169 H 116.346 -5.13654 1.4854 0
M  V30 1170 H 116.689 -4.16229 0.0770282 0
M  V30 1171 H 117.222 -3.605 1.68179 0
M  V30 1172 H 113.961 -4.85168 4.40786 0
M  V30 1173 H 113.481 -5.32433 2.76179 0
M  V30 1174 H 115.16 -5.56097 3.30704 0
M  V30 1175 N 115.292 -0.849877 -1.32721 0
M  V30 1176 C 116.222 -0.306308 -2.31482 0
M  V30 1177 C 117.203 0.591952 -1.59468 0
M  V30 1178 O 118.388 0.513199 -1.87296 0
M  V30 1179 C 115.518 0.510204 -3.43532 0
M  V30 1180 C 114.472 -0.293209 -4.26994 0
M  V30 1181 C 113.798 0.647743 -5.30762 0
M  V30 1182 C 115.098 -1.51634 -4.99804 0
M  V30 1183 H 116.792 -1.13153 -2.77195 0
M  V30 1184 H 114.338 -0.545553 -1.33266 0
M  V30 1185 H 116.291 0.900856 -4.11658 0
M  V30 1186 H 115.015 1.36874 -2.96535 0
M  V30 1187 H 113.674 -0.665555 -3.60508 0
M  V30 1188 H 113.322 1.50299 -4.8002 0
M  V30 1189 H 113.022 0.11422 -5.87489 0
M  V30 1190 H 114.546 1.03567 -6.01753 0
M  V30 1191 H 115.96 -1.19824 -5.60638 0
M  V30 1192 H 114.357 -1.98745 -5.66234 0
M  V30 1193 H 115.427 -2.28018 -4.27943 0
M  V30 1194 N 116.77 1.45427 -0.607355 0
M  V30 1195 C 117.995 2.07124 -0.107006 0
M  V30 1196 C 118.42 1.44906 1.19933 0
M  V30 1197 O 117.778 0.541687 1.73019 0
M  V30 1198 C 117.826 3.60595 0.0194119 0
M  V30 1199 O 116.93 3.98285 1.0697 0
M  V30 1200 H 116.271 0.659868 -0.0739597 0
M  V30 1201 H 118.801 1.86683 -0.837297 0
M  V30 1202 H 118.811 4.07419 0.2177 0
M  V30 1203 H 117.486 4.05266 -0.934453 0
M  V30 1204 H 116.063 3.63133 0.847889 0
M  V30 1205 N 118.248 0.346503 1.53744 0
M  V30 1206 C 119.473 -0.253074 2.0585 0
M  V30 1207 C 119.898 -1.43202 1.21962 0
M  V30 1208 O 119.256 -1.79783 0.234073 0
M  V30 1209 C 119.304 -0.643193 3.54817 0
M  V30 1210 O 118.408 -1.74286 3.73762 0
M  V30 1211 H 117.749 -0.0413583 0.662711 0
M  V30 1212 H 120.279 0.501574 1.98357 0
M  V30 1213 H 120.289 -0.919526 3.97503 0
M  V30 1214 H 118.964 0.218966 4.15323 0
M  V30 1215 H 117.541 -1.46356 3.42979 0
M  V30 1216 N 119.726 -1.57421 0.075193 0
M  V30 1217 C 120.656 -2.15942 -0.888324 0
M  V30 1218 C 121.637 -1.08737 -1.30806 0
M  V30 1219 O 122.822 -1.36787 -1.37851 0
M  V30 1220 C 119.952 -2.72379 -2.1547 0
M  V30 1221 C 118.906 -3.8478 -1.87425 0
M  V30 1222 C 118.232 -4.27834 -3.20721 0
M  V30 1223 C 119.532 -5.08869 -1.17684 0
M  V30 1224 H 121.226 -2.96705 -0.400799 0
M  V30 1225 H 118.772 -1.42723 -0.191342 0
M  V30 1226 H 120.725 -3.11965 -2.83295 0
M  V30 1227 H 119.449 -1.88841 -2.6647 0
M  V30 1228 H 118.108 -3.45703 -1.22004 0
M  V30 1229 H 117.756 -3.41214 -3.6957 0
M  V30 1230 H 117.456 -5.03605 -3.02746 0
M  V30 1231 H 118.98 -4.70039 -3.89738 0
M  V30 1232 H 120.394 -5.4575 -1.75584 0
M  V30 1233 H 118.791 -5.8994 -1.09956 0
M  V30 1234 H 119.861 -4.84648 -0.156453 0
M  V30 1235 N 121.204 0.198386 -1.56346 0
M  V30 1236 C 122.452 0.91747 -1.80075 0
M  V30 1237 C 122.773 1.83929 -0.647692 0
M  V30 1238 O 122.043 1.93029 0.334166 0
M  V30 1239 H 120.623 0.341774 -0.664228 0
M  V30 1240 H 123.285 0.204684 -1.93822 0
M  V30 1241 H 122.381 1.51055 -2.7311 0
M  V30 1242 N 122.682 1.50554 0.465978 0
M  V30 1243 C 123.592 1.72585 1.58907 0
M  V30 1244 C 124.608 0.60911 1.6299 0
M  V30 1245 O 125.784 0.88804 1.80765 0
M  V30 1246 C 122.849 1.81995 2.95091 0
M  V30 1247 C 121.91 3.05751 3.01355 0
M  V30 1248 C 121.143 3.14702 4.31043 0
M  V30 1249 O 121.366 2.30313 5.21835 0
M  V30 1250 O 120.3 4.07468 4.43005 0
M  V30 1251 H 124.126 2.67799 1.43239 0
M  V30 1252 H 121.711 1.34711 0.646013 0
M  V30 1253 H 123.593 1.90335 3.75966 0
M  V30 1254 H 122.268 0.899659 3.10947 0
M  V30 1255 H 121.175 3.02908 2.19539 0
M  V30 1256 H 122.508 3.97375 2.90437 0
M  V30 1257 N 124.16 -0.719506 1.40217 0
M  V30 1258 C 125.108 -1.85493 1.40339 0
M  V30 1259 C 126.102 -1.66995 0.284415 0
M  V30 1260 O 127.308 -1.74148 0.455252 0
M  V30 1261 H 123.683 -0.610857 0.438586 0
M  V30 1262 H 125.654 -1.82506 2.36081 0
M  V30 1263 C 124.403 -3.23321 1.27901 0
M  V30 1264 H 123.726 -3.38159 2.1328 0
M  V30 1265 H 125.166 -4.02914 1.32045 0
M  V30 1266 C 123.625 -3.36898 -0.0111355 0
M  V30 1267 O 124.155 -3.89674 -0.975538 0
M  V30 1268 N 122.361 -2.90492 -0.0793393 0
M  V30 1269 H 121.908 -2.47731 0.706183 0
M  V30 1270 H 121.866 -2.99955 -0.942038 0
M  V30 1271 N 125.638 -1.25649 -0.95132 0
M  V30 1272 C 127.049 -1.09654 -1.51106 0
M  V30 1273 C 127.4 0.326615 -1.93462 0
M  V30 1274 O 126.525 1.21697 -1.78938 0
M  V30 1275 C 127.12 -1.98437 -2.74605 0
M  V30 1276 C 125.679 -1.86618 -3.2688 0
M  V30 1277 C 124.826 -1.9239 -1.99703 0
M  V30 1278 H 127.777 -1.38887 -0.767865 0
M  V30 1279 H 127.798 -1.5263 -3.48546 0
M  V30 1280 H 127.31 -3.02009 -2.43746 0
M  V30 1281 H 125.411 -0.859421 -3.62553 0
M  V30 1282 H 125.524 -2.71607 -3.94673 0
M  V30 1283 H 123.888 -1.36317 -2.15151 0
M  V30 1284 H 124.671 -2.97573 -1.71188 0
M  V30 1285 N 127.117 1.15442 -1.07289 0
M  V30 1286 C 128.049 2.19773 -0.650585 0
M  V30 1287 C 129.062 1.60076 0.296572 0
M  V30 1288 O 130.251 1.78293 0.0859905 0
M  V30 1289 C 127.351 3.38838 0.0650398 0
M  V30 1290 C 126.524 4.2808 -0.898141 0
M  V30 1291 C 125.583 5.2574 -0.219926 0
M  V30 1292 O 124.609 5.62654 -0.860773 0
M  V30 1293 N 125.811 5.71205 1.03466 0
M  V30 1294 H 128.576 2.56622 -1.54808 0
M  V30 1295 H 126.137 1.30551 -0.957494 0
M  V30 1296 H 128.129 4.01222 0.529415 0
M  V30 1297 H 126.699 3.00409 0.864466 0
M  V30 1298 H 125.919 3.62804 -1.54165 0
M  V30 1299 H 127.207 4.84577 -1.5512 0
M  V30 1300 H 126.605 5.43325 1.57526 0
M  V30 1301 H 125.162 6.35633 1.44272 0
M  V30 1302 N 128.595 0.856903 1.32268 0
M  V30 1303 C 130.011 0.547061 1.49931 0
M  V30 1304 C 130.211 -0.921781 1.7918 0
M  V30 1305 O 129.267 -1.70469 1.8627 0
M  V30 1306 C 130.58 1.43599 2.64196 0
M  V30 1307 C 132.128 1.43665 2.78081 0
M  V30 1308 C 132.603 2.31085 3.95428 0
M  V30 1309 N 134.094 2.28893 4.02694 0
M  V30 1310 C 134.829 2.93262 4.92732 0
M  V30 1311 N 134.325 3.66751 5.87763 0
M  V30 1312 N 136.118 2.82638 4.85873 0
M  V30 1313 H 128.269 1.8075 1.11549 0
M  V30 1314 H 130.532 0.772144 0.549997 0
M  V30 1315 H 130.238 2.48058 2.49319 0
M  V30 1316 H 130.112 1.12502 3.60032 0
M  V30 1317 H 132.499 0.399701 2.92381 0
M  V30 1318 H 132.58 1.7878 1.82952 0
M  V30 1319 H 132.224 3.34849 3.81888 0
M  V30 1320 H 132.154 1.93302 4.89839 0
M  V30 1321 H 134.645 1.75466 3.34694 0
M  V30 1322 H 134.958 4.13027 6.53168 0
M  V30 1323 H 133.303 3.70859 5.87783 0
M  V30 1324 H 136.494 2.24774 4.10602 0
M  V30 1325 H 136.667 3.33084 5.55841 0
M  V30 1326 N 130.073 -1.45103 0.615059 0
M  V30 1327 C 131.005 -2.28786 -0.13762 0
M  V30 1328 C 132.018 -1.40376 -0.824525 0
M  V30 1329 O 133.207 -1.64681 -0.688662 0
M  V30 1330 C 130.307 -3.16322 -1.21628 0
M  V30 1331 C 129.48 -4.33054 -0.615039 0
M  V30 1332 C 128.539 -5.01743 -1.58556 0
M  V30 1333 O 127.565 -5.58293 -1.10895 0
M  V30 1334 N 128.767 -5.01714 -2.91998 0
M  V30 1335 H 131.532 -2.94025 0.580483 0
M  V30 1336 H 129.093 -1.55373 0.45507 0
M  V30 1337 H 131.085 -3.59139 -1.86552 0
M  V30 1338 H 129.655 -2.52943 -1.83681 0
M  V30 1339 H 128.875 -3.93627 0.21245 0
M  V30 1340 H 130.163 -5.08431 -0.193704 0
M  V30 1341 H 129.561 -4.57075 -3.33316 0
M  V30 1342 H 128.118 -5.48371 -3.52325 0
M  V30 1343 N 131.551 -0.354651 -1.53558 0
M  V30 1344 C 132.799 0.237972 -2.00694 0
M  V30 1345 C 133.12 1.50173 -1.24391 0
M  V30 1346 O 132.39 1.92673 -0.354135 0
M  V30 1347 H 130.97 0.0909256 -0.741446 0
M  V30 1348 H 133.632 -0.478368 -1.88938 0
M  V30 1349 H 132.728 0.47264 -3.085 0
M  V30 1350 N 133.029 1.57378 -0.0835403 0
M  V30 1351 C 133.959 2.1641 0.87686 0
M  V30 1352 C 134.94 1.09429 1.30228 0
M  V30 1353 O 136.125 1.37516 1.37124 0
M  V30 1354 C 133.255 2.73517 2.14022 0
M  V30 1355 C 132.209 3.85769 1.85381 0
M  V30 1356 C 131.535 4.29529 3.18448 0
M  V30 1357 C 132.835 5.09486 1.14984 0
M  V30 1358 H 134.529 2.96914 0.385059 0
M  V30 1359 H 132.075 1.42823 0.18377 0
M  V30 1360 H 134.028 3.13463 2.81636 0
M  V30 1361 H 132.752 1.90252 2.65465 0
M  V30 1362 H 131.411 3.46345 1.20169 0
M  V30 1363 H 131.059 3.43169 3.67755 0
M  V30 1364 H 130.759 5.05204 3.00071 0
M  V30 1365 H 132.283 4.72099 3.8724 0
M  V30 1366 H 133.697 5.46674 1.72687 0
M  V30 1367 H 132.094 5.90515 1.06826 0
M  V30 1368 H 133.164 4.84724 0.130749 0
M  V30 1369 N 134.507 -0.190092 1.56449 0
M  V30 1370 C 135.437 -1.23816 1.97969 0
M  V30 1371 C 136.418 -1.47201 0.852395 0
M  V30 1372 O 137.603 -1.58854 1.1171 0
M  V30 1373 C 134.733 -2.5813 2.3235 0
M  V30 1374 C 133.687 -2.49348 3.47864 0
M  V30 1375 C 133.013 -3.8798 3.67934 0
M  V30 1376 C 134.313 -2.01424 4.81898 0
M  V30 1377 H 136.007 -0.89311 2.85769 0
M  V30 1378 H 133.553 -0.428177 1.37487 0
M  V30 1379 H 135.506 -3.31637 2.59991 0
M  V30 1380 H 134.23 -2.94386 1.41438 0
M  V30 1381 H 132.889 -1.78297 3.20321 0
M  V30 1382 H 132.537 -4.21597 2.74344 0
M  V30 1383 H 132.237 -3.82978 4.45648 0
M  V30 1384 H 133.761 -4.63101 3.97957 0
M  V30 1385 H 135.175 -2.64693 5.08538 0
M  V30 1386 H 133.572 -2.07413 5.63116 0
M  V30 1387 H 134.642 -0.967677 4.75146 0
M  V30 1388 N 135.985 -1.50799 -0.457987 0
M  V30 1389 C 136.932 -1.70617 -1.5543 0
M  V30 1390 C 137.902 -0.547562 -1.56815 0
M  V30 1391 O 139.087 -0.779647 -1.74144 0
M  V30 1392 C 136.227 -1.81831 -2.93311 0
M  V30 1393 C 135.34 -3.09278 -3.01615 0
M  V30 1394 C 134.475 -3.11209 -4.30491 0
M  V30 1395 C 133.514 -4.33055 -4.32585 0
M  V30 1396 N 132.651 -4.32652 -5.52952 0
M  V30 1397 H 137.491 -2.64207 -1.37836 0
M  V30 1398 H 135.028 -1.30959 -0.669937 0
M  V30 1399 H 136.986 -1.86314 -3.73287 0
M  V30 1400 H 135.616 -0.916685 -3.0951 0
M  V30 1401 H 134.668 -3.14203 -2.1443 0
M  V30 1402 H 135.98 -3.99233 -2.99022 0
M  V30 1403 H 135.134 -3.14494 -5.18824 0
M  V30 1404 H 133.873 -2.19106 -4.35711 0
M  V30 1405 H 132.878 -4.29969 -3.42647 0
M  V30 1406 H 134.103 -5.264 -4.29046 0
M  V30 1407 H 132.049 -3.43409 -5.58933 0
M  V30 1408 H 131.966 -5.16392 -5.52155 0
M  V30 1409 H 133.234 -4.40101 -6.43375 0
M  V30 1410 N 137.463 0.71206 -1.40597 0
M  V30 1411 C 138.691 1.50111 -1.42388 0
M  V30 1412 C 139.106 1.88784 -0.0245395 0
M  V30 1413 O 138.463 1.55681 0.952351 0
M  V30 1414 C 138.514 2.7742 -2.31776 0
M  V30 1415 O 138.235 2.40382 -3.66262 0
M  V30 1416 C 139.736 3.7129 -2.42196 0
M  V30 1417 H 136.956 0.46314 -0.485533 0
M  V30 1418 H 139.5 0.878068 -1.8469 0
M  V30 1419 H 137.655 3.36001 -1.92827 0
M  V30 1420 H 138.069 3.22324 -4.13772 0
M  V30 1421 H 139.543 4.57448 -3.08943 0
M  V30 1422 H 140.02 4.14641 -1.44809 0
M  V30 1423 H 140.626 3.18619 -2.81712 0
M  V30 1424 N 138.941 1.26152 0.944643 0
M  V30 1425 C 140.352 1.10454 1.50522 0
M  V30 1426 C 140.703 -0.31635 1.93633 0
M  V30 1427 O 139.828 -1.20746 1.79581 0
M  V30 1428 C 140.423 1.99891 2.73549 0
M  V30 1429 C 138.982 1.88348 3.25886 0
M  V30 1430 C 138.129 1.93447 1.9868 0
M  V30 1431 H 141.08 1.39292 0.760489 0
M  V30 1432 H 141.101 1.54477 3.47732 0
M  V30 1433 H 140.613 3.03297 2.42141 0
M  V30 1434 H 138.714 0.878636 3.62092 0
M  V30 1435 H 138.827 2.73696 3.93227 0
M  V30 1436 H 137.191 1.37456 2.14425 0
M  V30 1437 H 137.974 2.98476 1.69607 0
M  V30 1438 N 140.419 -1.14872 1.07899 0
M  V30 1439 C 141.665 -1.86289 0.81657 0
M  V30 1440 C 142.02 -1.8107 -0.65049 0
M  V30 1441 O 141.313 -1.22684 -1.47171 0
M  V30 1442 C 141.507 -3.34223 1.26609 0
M  V30 1443 C 141.336 -3.53846 2.77531 0
M  V30 1444 C 140.106 -3.68995 3.45212 0
M  V30 1445 C 142.304 -3.51201 3.75716 0
M  V30 1446 N 140.286 -3.76725 4.84718 0
M  V30 1447 C 141.657 -3.65112 5.01092 0
M  V30 1448 C 143.712 -3.34507 3.68794 0
M  V30 1449 C 142.415 -3.64056 6.20368 0
M  V30 1450 C 144.441 -3.34752 4.8754 0
M  V30 1451 C 143.803 -3.49199 6.11751 0
M  V30 1452 H 139.902 -0.698579 0.351443 0
M  V30 1453 H 142.486 -1.37713 1.37634 0
M  V30 1454 H 140.657 -3.81402 0.73395 0
M  V30 1455 H 142.389 -3.93377 0.95062 0
M  V30 1456 H 139.144 -3.70006 2.95622 0
M  V30 1457 H 139.568 -3.8432 5.5734 0
M  V30 1458 H 144.21 -3.22253 2.73702 0
M  V30 1459 H 141.928 -3.75087 7.15776 0
M  V30 1460 H 145.514 -3.23055 4.83866 0
M  V30 1461 H 144.394 -3.49328 7.02097 0
M  V30 1462 N 141.898 -0.863906 -1.31812 0
M  V30 1463 C 143.314 -0.555004 -1.49639 0
M  V30 1464 C 143.514 0.912266 -1.79666 0
M  V30 1465 O 142.57 1.69479 -1.87171 0
M  V30 1466 C 143.883 -1.44998 -2.63431 0
M  V30 1467 C 145.431 -1.45138 -2.77316 0
M  V30 1468 C 145.906 -2.33179 -3.94197 0
M  V30 1469 N 147.397 -2.31025 -4.01474 0
M  V30 1470 C 148.132 -2.95871 -4.9117 0
M  V30 1471 N 147.628 -3.69863 -5.8581 0
M  V30 1472 N 149.421 -2.85211 -4.84367 0
M  V30 1473 H 141.572 -1.81339 -1.10589 0
M  V30 1474 H 143.835 -0.77505 -0.545895 0
M  V30 1475 H 143.541 -2.49377 -2.48 0
M  V30 1476 H 143.415 -1.14409 -3.59431 0
M  V30 1477 H 145.802 -0.415201 -2.92164 0
M  V30 1478 H 145.883 -1.79747 -1.82001 0
M  V30 1479 H 145.527 -3.3687 -3.80107 0
M  V30 1480 H 145.457 -1.95897 -4.88807 0
M  V30 1481 H 147.948 -1.77238 -3.33759 0
M  V30 1482 H 148.261 -4.16486 -6.50968 0
M  V30 1483 H 146.606 -3.73971 -5.85808 0
M  V30 1484 H 149.797 -2.26948 -4.09405 0
M  V30 1485 H 149.97 -3.36027 -5.54066 0
M  V30 1486 N 143.376 1.44774 -0.622745 0
M  V30 1487 C 144.339 2.29069 0.0774015 0
M  V30 1488 C 145.339 1.4059 0.780461 0
M  V30 1489 O 146.529 1.62551 0.626322 0
M  V30 1490 C 143.661 3.21974 1.12006 0
M  V30 1491 H 144.854 2.92459 -0.663901 0
M  V30 1492 H 142.407 1.51548 -0.382486 0
M  V30 1493 H 143.142 2.63417 1.89162 0
M  V30 1494 H 142.927 3.87168 0.619951 0
M  V30 1495 H 144.417 3.85318 1.60995 0
M  V30 1496 N 144.854 0.36279 1.53368 0
M  V30 1497 C 145.817 -0.472679 2.24273 0
M  V30 1498 C 146.817 -1.012 1.24961 0
M  V30 1499 O 148.007 -0.898194 1.49259 0
M  V30 1500 C 145.139 -1.66039 2.97731 0
M  V30 1501 H 146.332 0.14773 2.99536 0
M  V30 1502 H 143.885 0.114434 1.55881 0
M  V30 1503 H 144.62 -2.31896 2.26704 0
M  V30 1504 H 144.405 -1.28066 3.70596 0
M  V30 1505 H 145.895 -2.25252 3.51641 0
M  V30 1506 N 146.332 -1.57332 0.0918853 0
M  V30 1507 C 147.557 -1.98995 -0.584442 0
M  V30 1508 C 147.982 -0.970528 -1.61128 0
M  V30 1509 O 147.34 0.0613904 -1.81196 0
M  V30 1510 C 147.388 -3.39636 -1.21161 0
M  V30 1511 O 146.492 -3.40447 -2.32744 0
M  V30 1512 H 145.833 -0.647165 -0.148572 0
M  V30 1513 H 148.363 -2.03873 0.172347 0
M  V30 1514 H 148.373 -3.7726 -1.55367 0
M  V30 1515 H 147.048 -4.13356 -0.459313 0
M  V30 1516 H 145.625 -3.14614 -2.0018 0
M  V30 1517 N 147.81 0.181792 -1.56548 0
M  V30 1518 C 148.773 1.20894 -1.94724 0
M  V30 1519 C 149.773 1.37738 -0.829747 0
M  V30 1520 O 150.963 1.35323 -1.09697 0
M  V30 1521 C 148.095 2.57593 -2.23291 0
M  V30 1522 H 149.288 0.882275 -2.86629 0
M  V30 1523 H 146.841 0.423838 -1.50444 0
M  V30 1524 H 147.576 2.95291 -1.34067 0
M  V30 1525 H 147.361 2.46735 -3.04736 0
M  V30 1526 H 148.851 3.31637 -2.53785 0
M  V30 1527 N 149.288 1.51039 0.449983 0
M  V30 1528 C 150.221 1.66105 1.56474 0
M  V30 1529 C 151.199 0.508776 1.54435 0
M  V30 1530 O 152.383 0.731005 1.73749 0
M  V30 1531 C 149.51 1.66304 2.9506 0
M  V30 1532 C 148.556 2.87346 3.15174 0
M  V30 1533 S 149.389 4.4835 2.92818 0
M  V30 1534 C 150.545 4.51274 4.33708 0
M  V30 1535 H 150.778 2.60397 1.43459 0
M  V30 1536 H 148.311 1.40565 0.638805 0
M  V30 1537 H 150.269 1.67103 3.74949 0
M  V30 1538 H 148.93 0.732108 3.05449 0
M  V30 1539 H 148.123 2.83849 4.16468 0
M  V30 1540 H 147.725 2.84223 2.43091 0
M  V30 1541 H 150.017 4.26136 5.26701 0
M  V30 1542 H 150.96 5.53017 4.42242 0
M  V30 1543 H 151.368 3.80738 4.16772 0
M  V30 1544 N 150.766 -0.704594 1.40972 0
M  V30 1545 C 151.698 -1.82974 1.38033 0
M  V30 1546 C 152.711 -1.60305 0.283931 0
M  V30 1547 O 153.9 -1.69975 0.545042 0
M  V30 1548 C 151 -3.19578 1.12795 0
M  V30 1549 C 150.173 -3.69352 2.34302 0
M  V30 1550 C 149.232 -4.84601 2.05058 0
M  V30 1551 O 148.258 -4.96682 2.7802 0
M  V30 1552 N 149.46 -5.71194 1.03528 0
M  V30 1553 H 152.225 -1.85991 2.35005 0
M  V30 1554 H 149.786 -0.886567 1.35468 0
M  V30 1555 H 151.778 -3.9429 0.911987 0
M  V30 1556 H 150.348 -3.11642 0.24452 0
M  V30 1557 H 149.568 -2.85649 2.71659 0
M  V30 1558 H 150.856 -3.99345 3.1528 0
M  V30 1559 H 150.254 -5.64054 0.431217 0
M  V30 1560 H 148.811 -6.45843 0.879205 0
M  V30 1561 N 152.244 -1.26651 -0.937939 0
M  V30 1562 C 153.491 -1.12387 -1.6845 0
M  V30 1563 C 153.819 0.332208 -1.91642 0
M  V30 1564 O 153.074 1.2602 -1.49725 0
M  V30 1565 C 153.373 -1.84168 -3.06295 0
M  V30 1566 C 153.039 -3.34056 -3.02849 0
M  V30 1567 C 151.701 -3.74942 -3.01616 0
M  V30 1568 C 154.053 -4.29741 -2.9491 0
M  V30 1569 C 151.381 -5.09894 -2.90215 0
M  V30 1570 C 153.733 -5.64738 -2.8505 0
M  V30 1571 C 152.397 -6.0493 -2.82162 0
M  V30 1572 H 151.667 -0.411252 -0.616403 0
M  V30 1573 H 154.314 -1.57134 -1.09459 0
M  V30 1574 H 152.619 -1.319 -3.6893 0
M  V30 1575 H 154.316 -1.70569 -3.62915 0
M  V30 1576 H 150.906 -3.01534 -3.0459 0
M  V30 1577 H 155.09 -3.99133 -2.94969 0
M  V30 1578 H 150.346 -5.40194 -2.86358 0
M  V30 1579 H 154.52 -6.38561 -2.77872 0
M  V30 1580 H 152.147 -7.09457 -2.73084 0
M  V30 1581 N 153.722 1.14298 -1.08507 0
M  V30 1582 C 154.969 1.85359 -0.815373 0
M  V30 1583 C 155.297 1.83001 0.658865 0
M  V30 1584 O 154.552 1.25655 1.50031 0
M  V30 1585 C 154.851 3.33547 -1.28379 0
M  V30 1586 C 154.517 3.56093 -2.76602 0
M  V30 1587 C 153.179 3.61955 -3.17084 0
M  V30 1588 C 155.531 3.64834 -3.72217 0
M  V30 1589 C 152.859 3.74082 -4.51973 0
M  V30 1590 C 155.211 3.78487 -5.06883 0
M  V30 1591 C 153.875 3.82598 -5.46969 0
M  V30 1592 H 153.145 0.678276 -0.298366 0
M  V30 1593 H 155.792 1.35002 -1.35819 0
M  V30 1594 H 154.097 3.86191 -0.660593 0
M  V30 1595 H 155.794 3.86959 -1.05186 0
M  V30 1596 H 152.384 3.52179 -2.4427 0
M  V30 1597 H 156.568 3.59595 -3.42061 0
M  V30 1598 H 151.824 3.75527 -4.82483 0
M  V30 1599 H 155.998 3.84193 -5.80834 0
M  V30 1600 H 153.625 3.91747 -6.51489 0
M  V30 1601 N 155.201 0.870884 1.31352 0
M  V30 1602 C 156.429 0.49677 2.00848 0
M  V30 1603 C 156.844 -0.910998 1.65367 0
M  V30 1604 O 156.201 -1.59696 0.883374 0
M  V30 1605 C 156.252 0.645308 3.55694 0
M  V30 1606 O 155.973 1.99764 3.89905 0
M  V30 1607 C 157.474 0.272326 4.42463 0
M  V30 1608 H 154.694 0.193462 0.642506 0
M  V30 1609 H 157.238 1.1723 1.67563 0
M  V30 1610 H 155.393 0.0173176 3.87396 0
M  V30 1611 H 155.807 2.00607 4.84621 0
M  V30 1612 H 157.281 0.427208 5.50344 0
M  V30 1613 H 157.758 -0.788587 4.32062 0
M  V30 1614 H 158.364 0.876054 4.1618 0
M  V30 1615 N 156.679 -1.44442 0.630414 0
M  V30 1616 C 157.626 -2.30678 -0.0749355 0
M  V30 1617 C 158.596 -1.4344 -0.837502 0
M  V30 1618 O 159.781 -1.72343 -0.818684 0
M  V30 1619 C 156.921 -3.28706 -1.05103 0
M  V30 1620 C 156.034 -4.31046 -0.286954 0
M  V30 1621 C 155.169 -5.16167 -1.2548 0
M  V30 1622 C 154.208 -6.10216 -0.479843 0
M  V30 1623 N 153.345 -6.88039 -1.39811 0
M  V30 1624 H 158.185 -2.90454 0.666386 0
M  V30 1625 H 155.722 -1.43107 0.340404 0
M  V30 1626 H 157.68 -3.84027 -1.63031 0
M  V30 1627 H 156.31 -2.70632 -1.75949 0
M  V30 1628 H 155.362 -3.78203 0.408243 0
M  V30 1629 H 156.674 -4.97794 0.316657 0
M  V30 1630 H 155.828 -5.76002 -1.90544 0
M  V30 1631 H 154.567 -4.49491 -1.89233 0
M  V30 1632 H 153.572 -5.49491 0.184295 0
M  V30 1633 H 154.797 -6.78928 0.152965 0
M  V30 1634 H 152.743 -6.24032 -2.02287 0
M  V30 1635 H 152.66 -7.51223 -0.848508 0
M  V30 1636 H 153.928 -7.52397 -2.03762 0
M  V30 1637 N 158.157 -0.370918 -1.53173 0
M  V30 1638 C 159.405 0.216673 -2.00935 0
M  V30 1639 C 159.726 1.48845 -1.25977 0
M  V30 1640 O 158.996 1.92286 -0.374551 0
M  V30 1641 H 157.576 0.0830565 -0.742368 0
M  V30 1642 H 160.238 -0.49838 -1.8842 0
M  V30 1643 H 159.334 0.439893 -3.08984 0
M  V30 1644 N 159.635 1.57281 -0.100228 0
M  V30 1645 C 160.865 1.98591 0.569681 0
M  V30 1646 C 161.273 0.978315 1.61943 0
M  V30 1647 O 160.616 -0.0396108 1.83657 0
M  V30 1648 C 160.678 3.36282 1.271 0
M  V30 1649 C 160.342 4.55488 0.371409 0
M  V30 1650 C 161.339 5.18491 -0.382504 0
M  V30 1651 C 159.024 5.01474 0.287965 0
M  V30 1652 C 161.018 6.25852 -1.20779 0
M  V30 1653 C 158.705 6.08701 -0.540965 0
M  V30 1654 C 159.703 6.70755 -1.28749 0
M  V30 1655 O 159.391 7.75914 -2.10269 0
M  V30 1656 H 159.123 0.65752 0.156982 0
M  V30 1657 H 161.677 2.0463 -0.177734 0
M  V30 1658 H 159.907 3.26941 2.0651 0
M  V30 1659 H 161.596 3.62005 1.83595 0
M  V30 1660 H 162.362 4.83891 -0.3278 0
M  V30 1661 H 158.241 4.52932 0.858689 0
M  V30 1662 H 161.785 6.74218 -1.79096 0
M  V30 1663 H 157.682 6.42732 -0.597131 0
M  V30 1664 H 158.45 7.92925 -2.03007 0
M  V30 1665 N 161.113 -0.173488 1.56642 0
M  V30 1666 C 162.045 -1.23935 1.92802 0
M  V30 1667 C 163.058 -1.40589 0.820889 0
M  V30 1668 O 164.247 -1.40631 1.09933 0
M  V30 1669 C 161.347 -2.60837 2.16373 0
M  V30 1670 C 160.52 -2.6551 3.47596 0
M  V30 1671 C 159.579 -3.8376 3.60021 0
M  V30 1672 O 158.605 -3.69859 4.32658 0
M  V30 1673 N 159.807 -5.00127 2.94709 0
M  V30 1674 H 162.572 -0.932236 2.84832 0
M  V30 1675 H 160.133 -0.363268 1.57772 0
M  V30 1676 H 162.125 -3.38407 2.21952 0
M  V30 1677 H 160.695 -2.83948 1.30738 0
M  V30 1678 H 159.915 -1.74052 3.53694 0
M  V30 1679 H 161.203 -2.65641 4.33949 0
M  V30 1680 H 160.601 -5.14322 2.35563 0
M  V30 1681 H 159.158 -5.75567 3.05886 0
M  V30 1682 N 162.591 -1.51276 -0.441967 0
M  V30 1683 C 163.501 -1.75092 -1.56141 0
M  V30 1684 C 164.517 -0.634963 -1.62001 0
M  V30 1685 O 165.693 -0.916686 -1.79329 0
M  V30 1686 C 162.758 -1.86666 -2.92158 0
M  V30 1687 C 161.819 -3.10506 -2.96453 0
M  V30 1688 C 161.052 -3.21519 -4.25982 0
M  V30 1689 O 161.275 -2.38586 -5.18105 0
M  V30 1690 O 160.209 -4.14465 -4.36466 0
M  V30 1691 H 164.035 -2.70044 -1.38961 0
M  V30 1692 H 161.62 -1.35722 -0.624499 0
M  V30 1693 H 163.502 -1.96292 -3.72891 0
M  V30 1694 H 162.177 -0.949014 -3.09476 0
M  V30 1695 H 161.084 -3.06363 -2.14692 0
M  V30 1696 H 162.417 -4.01945 -2.84079 0
M  V30 1697 N 164.069 0.697108 -1.41344 0
M  V30 1698 C 165.297 1.48593 -1.43972 0
M  V30 1699 C 165.712 1.88747 -0.0445612 0
M  V30 1700 O 165.069 1.56682 0.935785 0
M  V30 1701 C 165.12 2.74946 -2.34706 0
M  V30 1702 O 164.841 2.36484 -3.68791 0
M  V30 1703 C 166.342 3.687 -2.46121 0
M  V30 1704 H 163.562 0.457964 -0.490418 0
M  V30 1705 H 166.106 0.858429 -1.8561 0
M  V30 1706 H 164.261 3.33937 -1.9638 0
M  V30 1707 H 164.675 3.17918 -4.17167 0
M  V30 1708 H 166.149 4.54145 -3.13777 0
M  V30 1709 H 166.626 4.13081 -1.49199 0
M  V30 1710 H 167.232 3.15613 -2.85076 0
M  V30 1711 N 165.547 1.27147 0.931209 0
M  V30 1712 C 166.796 1.12664 1.67302 0
M  V30 1713 C 167.109 -0.327718 1.92835 0
M  V30 1714 O 168.315 -0.593392 2.64936 0
M  V30 1715 C 166.771 1.9683 3.01307 0
M  V30 1716 C 166.379 3.46901 2.83485 0
M  V30 1717 C 168.123 1.90985 3.79111 0
M  V30 1718 C 166.03 4.23279 4.13024 0
M  V30 1719 H 164.96 0.41803 0.627509 0
M  V30 1720 H 167.611 1.51539 1.03481 0
M  V30 1721 H 165.993 1.50797 3.66164 0
M  V30 1722 H 167.167 4.00773 2.27415 0
M  V30 1723 H 165.482 3.54088 2.19113 0
M  V30 1724 H 168.079 2.45328 4.75098 0
M  V30 1725 H 168.422 0.882718 4.06834 0
M  V30 1726 H 168.955 2.34895 3.21044 0
M  V30 1727 H 165.694 5.26503 3.90481 0
M  V30 1728 H 165.214 3.74186 4.6877 0
M  V30 1729 H 166.893 4.32265 4.81411 0
M  V30 1730 N 167.025 -1.13721 1.09112 0
M  V30 1731 C 168.25 -1.89314 0.847053 0
M  V30 1732 C 168.675 -1.78416 -0.595774 0
M  V30 1733 O 168.033 -1.12942 -1.41823 0
M  V30 1734 C 168.081 -3.3701 1.28284 0
M  V30 1735 O 167.185 -4.10054 0.439267 0
M  V30 1736 H 166.526 -0.588745 0.307044 0
M  V30 1737 H 169.056 -1.43902 1.45442 0
M  V30 1738 H 169.066 -3.87834 1.26683 0
M  V30 1739 H 167.741 -3.4426 2.33363 0
M  V30 1740 H 166.318 -3.69266 0.519312 0
M  V30 1741 N 168.503 -0.877838 -1.30888 0
M  V30 1742 C 169.78 -0.413052 -1.91189 0
M  V30 1743 C 170.16 1.1056 -1.79832 0
M  V30 1744 O 169.508 1.93771 -1.21099 0
M  V30 1745 C 169.718 -0.903191 -3.3711 0
M  V30 1746 C 171.066 -0.93395 -4.14201 0
M  V30 1747 O 172.09 -0.849373 -3.45925 0
M  V30 1748 O 170.949 -1.05772 -5.36167 0
M  V30 1749 H 168.043 -0.125035 -0.817493 0
M  V30 1750 H 170.589 -0.966269 -1.39504 0
M  V30 1751 H 169.361 -1.94692 -3.39427 0
M  V30 1752 H 168.984 -0.328732 -3.96239 0
M  V30 1753 N 169.982 1.44106 -0.638065 0
M  V30 1754 C 171.228 2.02277 -0.145546 0
M  V30 1755 C 171.561 1.50125 1.23191 0
M  V30 1756 O 170.836 0.688133 1.8192 0
M  V30 1757 C 171.119 3.59829 -0.139791 0
M  V30 1758 C 170.972 4.22247 -1.55008 0
M  V30 1759 C 172.291 4.36873 0.531966 0
M  V30 1760 H 169.41 0.734992 -0.0543632 0
M  V30 1761 H 172.052 1.71592 -0.815863 0
M  V30 1762 H 170.202 3.86102 0.431007 0
M  V30 1763 H 171.874 4.07057 -2.1703 0
M  V30 1764 H 170.117 3.79476 -2.10191 0
M  V30 1765 H 170.788 5.31284 -1.49804 0
M  V30 1766 H 173.264 4.16074 0.0464781 0
M  V30 1767 H 172.14 5.4657 0.505206 0
M  V30 1768 H 172.401 4.11995 1.60352 0
M  V30 1769 N 171.46 0.379036 1.52974 0
M  V30 1770 C 172.39 -0.452706 2.29069 0
M  V30 1771 C 173.371 -1.07237 1.32039 0
M  V30 1772 O 174.556 -1.08708 1.60923 0
M  V30 1773 C 171.686 -1.5856 3.08992 0
M  V30 1774 C 170.64 -1.0925 4.13822 0
M  V30 1775 C 169.966 -2.31668 4.81907 0
M  V30 1776 C 171.266 -0.167702 5.22031 0
M  V30 1777 H 172.96 0.182181 2.98845 0
M  V30 1778 H 170.506 0.0890592 1.43724 0
M  V30 1779 H 172.459 -2.1742 3.6098 0
M  V30 1780 H 171.183 -2.24792 2.36931 0
M  V30 1781 H 169.842 -0.526494 3.628 0
M  V30 1782 H 169.49 -2.96386 4.06404 0
M  V30 1783 H 169.19 -1.9934 5.52754 0
M  V30 1784 H 170.714 -2.91189 5.36695 0
M  V30 1785 H 172.128 -0.664186 5.6944 0
M  V30 1786 H 170.525 0.0653265 6.00064 0
M  V30 1787 H 171.595 0.786347 4.78482 0
M  V30 1788 N 172.938 -1.57226 0.108567 0
M  V30 1789 C 173.886 -2.16002 -0.862885 0
M  V30 1790 C 174.88 -1.10644 -1.28274 0
M  V30 1791 O 176.086 -1.28966 -1.2557 0
M  V30 1792 H 172.461 -0.691148 -0.296342 0
M  V30 1793 H 174.432 -2.96427 -0.342575 0
M  V30 1794 C 173.181 -2.76576 -2.10716 0
M  V30 1795 H 172.504 -3.5734 -1.793 0
M  V30 1796 H 173.944 -3.21253 -2.76717 0
M  V30 1797 C 172.403 -1.73137 -2.89007 0
M  V30 1798 O 172.933 -1.17842 -3.84026 0
M  V30 1799 N 171.139 -1.43317 -2.52801 0
M  V30 1800 H 170.686 -1.88473 -1.75601 0
M  V30 1801 H 170.644 -0.743485 -3.05483 0
M  V30 1802 N 174.416 0.165178 -1.56732 0
M  V30 1803 C 175.693 0.908443 -1.73224 0
M  V30 1804 C 176.073 2.0013 -0.67165 0
M  V30 1805 O 175.421 2.26353 0.31253 0
M  V30 1806 C 175.631 1.46756 -3.16644 0
M  V30 1807 C 176.979 1.93809 -3.77787 0
M  V30 1808 O 178.003 1.56537 -3.1996 0
M  V30 1809 O 176.862 2.62486 -4.79336 0
M  V30 1810 H 173.956 0.428025 -0.707618 0
M  V30 1811 H 176.502 0.152526 -1.69013 0
M  V30 1812 H 175.274 0.68129 -3.85323 0
M  V30 1813 H 174.897 2.28749 -3.25207 0
M  V30 1814 N 175.894 1.51508 0.433938 0
M  V30 1815 C 176.857 1.72473 1.50949 0
M  V30 1816 C 177.857 0.594725 1.49398 0
M  V30 1817 O 179.047 0.862315 1.5136 0
M  V30 1818 C 176.179 1.78431 2.90474 0
M  V30 1819 H 177.372 2.68467 1.33662 0
M  V30 1820 H 174.925 1.41549 0.662836 0
M  V30 1821 H 175.66 0.842645 3.13161 0
M  V30 1822 H 175.445 2.60558 2.93005 0
M  V30 1823 H 176.935 1.96479 3.68491 0
M  V30 1824 N 177.372 -0.689602 1.41712 0
M  V30 1825 C 178.621 -1.44534 1.40686 0
M  V30 1826 C 178.934 -1.95588 0.0213352 0
M  V30 1827 O 180.14 -2.71271 -0.111534 0
M  V30 1828 C 178.596 -2.61387 2.47396 0
M  V30 1829 C 178.204 -2.17094 3.91885 0
M  V30 1830 C 179.948 -3.38986 2.55517 0
M  V30 1831 C 177.855 -3.3094 4.90135 0
M  V30 1832 H 176.785 -0.542925 0.52321 0
M  V30 1833 H 179.436 -0.748054 1.6756 0
M  V30 1834 H 177.818 -3.33412 2.13664 0
M  V30 1835 H 178.992 -1.52318 4.34897 0
M  V30 1836 H 177.307 -1.52473 3.8748 0
M  V30 1837 H 179.904 -4.23747 3.26102 0
M  V30 1838 H 180.247 -3.84578 1.59391 0
M  V30 1839 H 180.78 -2.74021 2.8837 0
M  V30 1840 H 177.519 -2.90355 5.87685 0
M  V30 1841 H 177.039 -3.94546 4.51767 0
M  V30 1842 H 178.718 -3.9663 5.11169 0
M  V30 1843 N 178.85 -1.27639 -0.924453 0
M  V30 1844 C 180.097 -1.14167 -1.67249 0
M  V30 1845 C 180.425 0.311863 -1.91984 0
M  V30 1846 O 179.68 1.24425 -1.51053 0
M  V30 1847 C 179.979 -1.87407 -3.04325 0
M  V30 1848 C 179.645 -3.37249 -2.99289 0
M  V30 1849 C 178.307 -3.7812 -2.97622 0
M  V30 1850 C 180.659 -4.32845 -2.90336 0
M  V30 1851 C 177.987 -5.12944 -2.8479 0
M  V30 1852 C 180.339 -5.6773 -2.79045 0
M  V30 1853 C 179.003 -6.07889 -2.7573 0
M  V30 1854 H 178.273 -0.417766 -0.612007 0
M  V30 1855 H 180.92 -1.58286 -1.07786 0
M  V30 1856 H 179.225 -1.35805 -3.67511 0
M  V30 1857 H 180.922 -1.74408 -3.61086 0
M  V30 1858 H 177.512 -3.04748 -3.01374 0
M  V30 1859 H 181.696 -4.02239 -2.90719 0
M  V30 1860 H 176.952 -5.432 -2.80612 0
M  V30 1861 H 181.126 -6.41472 -2.71083 0
M  V30 1862 H 178.753 -7.12314 -2.65544 0
M  V30 1863 N 180.328 1.1314 -1.09713 0
M  V30 1864 C 181.605 1.80762 -0.747302 0
M  V30 1865 C 181.985 1.96663 0.767265 0
M  V30 1866 O 181.333 1.53706 1.69076 0
M  V30 1867 C 181.543 3.15606 -1.48975 0
M  V30 1868 C 182.891 3.90914 -1.65746 0
M  V30 1869 O 183.915 3.25239 -1.45251 0
M  V30 1870 O 182.774 5.08718 -1.9967 0
M  V30 1871 H 179.868 0.782103 -0.268782 0
M  V30 1872 H 182.414 1.20041 -1.19951 0
M  V30 1873 H 181.186 2.99278 -2.52088 0
M  V30 1874 H 180.809 3.84029 -1.02991 0
M  V30 1875 N 181.806 0.884767 1.30421 0
M  V30 1876 C 182.716 0.355398 2.31892 0
M  V30 1877 C 183.732 -0.542261 1.65335 0
M  V30 1878 O 184.908 -0.435432 1.96637 0
M  V30 1879 C 181.973 -0.421661 3.44126 0
M  V30 1880 C 181.034 0.505727 4.26311 0
M  V30 1881 C 180.267 -0.234343 5.33185 0
M  V30 1882 O 180.49 -1.46045 5.51386 0
M  V30 1883 O 179.424 0.415443 6.00465 0
M  V30 1884 H 183.25 1.19685 2.79122 0
M  V30 1885 H 180.835 0.648596 1.34587 0
M  V30 1886 H 182.717 -0.861641 4.12497 0
M  V30 1887 H 181.392 -1.23942 2.99032 0
M  V30 1888 H 180.299 0.994513 3.60639 0
M  V30 1889 H 181.632 1.28948 4.75009 0
M  V30 1890 N 183.284 -1.43765 0.645699 0
M  V30 1891 C 184.561 -1.9541 0.0862963 0
M  V30 1892 C 184.941 -1.58725 -1.39175 0
M  V30 1893 O 184.289 -0.868581 -2.11348 0
M  V30 1894 C 184.499 -3.47488 0.324565 0
M  V30 1895 C 185.847 -4.24001 0.225497 0
M  V30 1896 O 186.871 -3.55274 0.256715 0
M  V30 1897 O 185.73 -5.46313 0.142801 0
M  V30 1898 H 182.824 -0.826882 -0.0139483 0
M  V30 1899 H 185.37 -1.53743 0.718415 0
M  V30 1900 H 184.142 -3.67289 1.3496 0
M  V30 1901 H 183.765 -3.96135 -0.340987 0
M  V30 1902 N 184.763 -0.387143 -1.52771 0
M  V30 1903 C 185.713 0.465942 -2.23188 0
M  V30 1904 C 186.697 1.03138 -1.23496 0
M  V30 1905 O 187.889 0.957845 -1.48843 0
M  V30 1906 C 185.018 1.59384 -3.04059 0
M  V30 1907 C 184.104 1.04024 -4.11144 0
M  V30 1908 N 184.495 0.211416 -5.05358 0
M  V30 1909 C 182.793 1.31295 -4.26237 0
M  V30 1910 C 183.494 -0.0941698 -5.81624 0
M  V30 1911 N 182.47 0.509207 -5.4121 0
M  V30 1912 H 186.272 -0.173856 -2.93385 0
M  V30 1913 H 183.786 -0.19633 -1.61209 0
M  V30 1914 H 185.783 2.21738 -3.53041 0
M  V30 1915 H 184.443 2.23648 -2.35397 0
M  V30 1916 H 185.454 -0.151151 -5.17679 0
M  V30 1917 H 182.131 1.95679 -3.68803 0
M  V30 1918 H 183.521 -0.765572 -6.67524 0
M  V30 1919 N 186.241 1.57166 -0.116904 0
M  V30 1920 C 187.518 1.86645 0.585049 0
M  V30 1921 C 187.898 1.0177 1.84949 0
M  V30 1922 O 187.246 0.0960379 2.28298 0
M  V30 1923 C 187.456 3.37736 0.879507 0
M  V30 1924 C 188.804 4.06289 1.23348 0
M  V30 1925 O 189.828 3.42743 0.969836 0
M  V30 1926 O 188.687 5.18455 1.7282 0
M  V30 1927 H 185.781 0.772593 0.295007 0
M  V30 1928 H 188.327 1.69025 -0.151249 0
M  V30 1929 H 187.099 3.91296 -0.0166136 0
M  V30 1930 H 186.722 3.6078 1.67103 0
M  V30 1931 N 187.719 -0.156864 1.56817 0
M  V30 1932 C 188.629 -1.2136 2.00771 0
M  V30 1933 C 189.645 -1.47598 0.921459 0
M  V30 1934 O 190.821 -1.59462 1.2302 0
M  V30 1935 C 187.886 -2.52943 2.37109 0
M  V30 1936 C 186.947 -2.34439 3.59634 0
M  V30 1937 C 186.18 -3.59748 3.94229 0
M  V30 1938 O 186.403 -4.65526 3.29609 0
M  V30 1939 O 185.337 -3.52998 4.8752 0
M  V30 1940 H 189.163 -0.870468 2.90958 0
M  V30 1941 H 186.748 -0.36484 1.44877 0
M  V30 1942 H 188.63 -3.30538 2.61386 0
M  V30 1943 H 187.305 -2.86806 1.5008 0
M  V30 1944 H 186.212 -1.54828 3.40557 0
M  V30 1945 H 187.545 -2.05496 4.4725 0
M  V30 1946 N 189.197 -1.51736 -0.425897 0
M  V30 1947 C 190.13 -1.68574 -1.53812 0
M  V30 1948 C 191.108 -0.53328 -1.53606 0
M  V30 1949 O 192.292 -0.758555 -1.72564 0
M  V30 1950 C 189.419 -1.70977 -2.92377 0
M  V30 1951 C 188.465 -2.92324 -3.10563 0
M  V30 1952 S 189.298 -4.52952 -2.85648 0
M  V30 1953 C 190.454 -4.58117 -4.26474 0
M  V30 1954 H 190.687 -2.62647 -1.39298 0
M  V30 1955 H 188.22 -1.41564 -0.616361 0
M  V30 1956 H 190.178 -1.73047 -3.72243 0
M  V30 1957 H 188.839 -0.78061 -3.04245 0
M  V30 1958 H 188.032 -2.90439 -4.11899 0
M  V30 1959 H 187.634 -2.88055 -2.38538 0
M  V30 1960 H 189.926 -4.34462 -5.19855 0
M  V30 1961 H 190.869 -5.59983 -4.33388 0
M  V30 1962 H 191.277 -3.8732 -4.10662 0
M  V30 1963 N 190.675 0.682077 -1.42076 0
M  V30 1964 C 191.921 1.44428 -1.42367 0
M  V30 1965 C 192.254 1.94164 -0.0373056 0
M  V30 1966 O 191.529 1.70429 0.937239 0
M  V30 1967 C 191.812 2.64654 -2.44194 0
M  V30 1968 C 191.665 2.20596 -3.91991 0
M  V30 1969 C 192.984 3.66865 -2.431 0
M  V30 1970 H 190.103 0.523834 -0.518428 0
M  V30 1971 H 192.745 0.77576 -1.73442 0
M  V30 1972 H 190.895 3.2169 -2.17826 0
M  V30 1973 H 192.567 1.68783 -4.29313 0
M  V30 1974 H 190.81 1.52242 -4.06208 0
M  V30 1975 H 191.481 3.06921 -4.58807 0
M  V30 1976 H 193.957 3.19531 -2.66532 0
M  V30 1977 H 192.833 4.48577 -3.16339 0
M  V30 1978 H 193.094 4.17493 -1.45437 0
M  V30 1979 N 192.153 1.28127 0.917671 0
M  V30 1980 C 193.402 1.14432 1.66097 0
M  V30 1981 C 193.715 -0.307247 1.93172 0
M  V30 1982 O 194.921 -0.565259 2.65551 0
M  V30 1983 C 193.377 2.00015 2.99202 0
M  V30 1984 C 192.985 3.49889 2.79789 0
M  V30 1985 C 194.729 1.94996 3.77064 0
M  V30 1986 C 192.636 4.27636 4.08511 0
M  V30 1987 H 191.566 0.424662 0.62304 0
M  V30 1988 H 194.217 1.52628 1.01868 0
M  V30 1989 H 192.599 1.54672 3.64544 0
M  V30 1990 H 193.773 4.03162 2.23152 0
M  V30 1991 H 192.088 3.56392 2.15345 0
M  V30 1992 H 194.685 2.50354 4.72469 0
M  V30 1993 H 195.028 0.925819 4.05875 0
M  V30 1994 H 195.561 2.38287 3.18534 0
M  V30 1995 H 192.3 5.30615 3.84874 0
M  V30 1996 H 191.82 3.79137 4.64774 0
M  V30 1997 H 193.499 4.37346 4.76799 0
M  V30 1998 N 193.631 -1.12557 1.10312 0
M  V30 1999 C 194.877 -1.84311 0.846011 0
M  V30 2000 C 195.21 -1.83805 -0.626859 0
M  V30 2001 O 194.485 -1.28268 -1.46211 0
M  V30 2002 C 194.768 -3.32048 1.39341 0
M  V30 2003 C 194.621 -3.41016 2.93305 0
M  V30 2004 C 195.94 -4.27764 1.03468 0
M  V30 2005 H 193.059 -0.669192 0.30879 0
M  V30 2006 H 195.701 -1.32057 1.36605 0
M  V30 2007 H 193.851 -3.76678 0.951087 0
M  V30 2008 H 195.523 -3.05031 3.46055 0
M  V30 2009 H 193.766 -2.81603 3.29973 0
M  V30 2010 H 194.437 -4.44948 3.26689 0
M  V30 2011 H 196.913 -3.91253 1.41633 0
M  V30 2012 H 195.789 -5.29549 1.44463 0
M  V30 2013 H 196.05 -4.42064 -0.0560404 0
M  V30 2014 N 195.109 -0.891671 -1.2995 0
M  V30 2015 C 196.056 -0.361736 -2.27948 0
M  V30 2016 C 197.026 0.551761 -1.56668 0
M  V30 2017 O 198.211 0.478736 -1.84696 0
M  V30 2018 C 195.351 0.411825 -3.42634 0
M  V30 2019 C 194.464 -0.531651 -4.28716 0
M  V30 2020 C 193.599 0.258167 -5.30572 0
M  V30 2021 C 192.638 -0.680349 -6.08307 0
M  V30 2022 N 191.775 0.0745613 -7.0206 0
M  V30 2023 H 196.615 -1.20254 -2.72659 0
M  V30 2024 H 194.152 -0.604352 -1.34112 0
M  V30 2025 H 196.11 0.876304 -4.07893 0
M  V30 2026 H 194.74 1.21715 -2.98974 0
M  V30 2027 H 193.792 -1.11463 -3.63703 0
M  V30 2028 H 195.104 -1.25038 -4.82874 0
M  V30 2029 H 194.258 0.784204 -6.0161 0
M  V30 2030 H 192.997 1.01008 -4.77126 0
M  V30 2031 H 192.002 -1.21796 -5.3614 0
M  V30 2032 H 193.227 -1.43145 -6.63842 0
M  V30 2033 H 191.173 0.808883 -6.50994 0
M  V30 2034 H 191.09 -0.584409 -7.53738 0
M  V30 2035 H 192.358 0.581123 -7.77331 0
M  V30 2036 N 196.587 1.43421 -0.653314 0
M  V30 2037 C 197.864 1.95361 -0.0966581 0
M  V30 2038 C 198.244 1.59461 1.38331 0
M  V30 2039 O 197.592 0.879777 2.10884 0
M  V30 2040 C 197.802 3.47311 -0.342988 0
M  V30 2041 C 199.15 4.23875 -0.24798 0
M  V30 2042 O 200.174 3.55133 -0.275553 0
M  V30 2043 O 199.033 5.4623 -0.171771 0
M  V30 2044 H 196.127 0.826945 0.00956291 0
M  V30 2045 H 198.673 1.5336 -0.726558 0
M  V30 2046 H 197.445 3.66569 -1.36906 0
M  V30 2047 H 197.068 3.9631 0.319975 0
M  V30 2048 N 198.065 0.39524 1.52563 0
M  V30 2049 C 199.314 -0.186321 2.00838 0
M  V30 2050 C 199.627 -1.47402 1.28577 0
M  V30 2051 O 200.833 -2.13599 1.67593 0
M  V30 2052 C 199.289 -0.382595 3.57861 0
M  V30 2053 C 198.897 0.892202 4.39026 0
M  V30 2054 C 200.641 -0.9202 4.14406 0
M  V30 2055 C 198.548 0.66388 5.87662 0
M  V30 2056 H 197.478 -0.0734041 0.750418 0
M  V30 2057 H 200.129 0.518552 1.76021 0
M  V30 2058 H 198.511 -1.14946 3.7895 0
M  V30 2059 H 199.685 1.66414 4.29701 0
M  V30 2060 H 198 1.35519 3.9373 0
M  V30 2061 H 200.597 -1.10683 5.23119 0
M  V30 2062 H 200.94 -1.89096 3.70875 0
M  V30 2063 H 201.473 -0.212751 3.97231 0
M  V30 2064 H 198.212 1.6058 6.35527 0
M  V30 2065 H 197.732 -0.0690193 5.9976 0
M  V30 2066 H 199.411 0.300699 6.46301 0
M  V30 2067 N 199.544 -1.57102 0.125237 0
M  V30 2068 C 200.821 -1.86953 -0.575142 0
M  V30 2069 C 201.201 -1.02749 -1.84407 0
M  V30 2070 O 200.549 -0.108144 -2.28244 0
M  V30 2071 C 200.759 -3.38198 -0.861583 0
M  V30 2072 C 202.107 -4.06937 -1.21192 0
M  V30 2073 O 203.131 -3.43252 -0.951645 0
M  V30 2074 O 201.99 -5.19364 -1.70068 0
M  V30 2075 H 199.084 -0.774147 -0.290906 0
M  V30 2076 H 201.63 -1.68942 0.160211 0
M  V30 2077 H 200.402 -3.91282 0.0373647 0
M  V30 2078 H 200.025 -3.61661 -1.65188 0
M  V30 2079 N 201.022 0.148545 -1.56898 0
M  V30 2080 C 201.955 1.21293 -1.93296 0
M  V30 2081 C 202.933 1.41637 -0.798599 0
M  V30 2082 O 204.117 1.56275 -1.05406 0
M  V30 2083 C 201.244 2.5721 -2.20365 0
M  V30 2084 C 200.29 2.53469 -3.4301 0
M  V30 2085 S 201.123 2.00315 -4.96623 0
M  V30 2086 C 202.279 3.37964 -5.26812 0
M  V30 2087 H 202.512 0.902393 -2.83274 0
M  V30 2088 H 200.045 0.354094 -1.50285 0
M  V30 2089 H 202.003 3.35427 -2.36641 0
M  V30 2090 H 200.664 2.85454 -1.31054 0
M  V30 2091 H 199.857 3.53518 -3.59223 0
M  V30 2092 H 199.459 1.83359 -3.25968 0
M  V30 2093 H 201.751 4.34066 -5.20185 0
M  V30 2094 H 202.694 3.26606 -6.28279 0
M  V30 2095 H 203.102 3.35028 -4.54331 0
M  V30 2096 N 202.5 1.5196 0.417844 0
M  V30 2097 C 203.747 1.65591 1.16559 0
M  V30 2098 C 204.075 0.381565 1.90721 0
M  V30 2099 O 203.33 -0.635156 1.85106 0
M  V30 2100 C 203.629 2.82269 2.19223 0
M  V30 2101 C 203.295 4.20819 1.61933 0
M  V30 2102 C 201.957 4.58506 1.46033 0
M  V30 2103 C 204.309 5.07196 1.20008 0
M  V30 2104 C 201.637 5.80257 0.867113 0
M  V30 2105 C 203.989 6.29544 0.621086 0
M  V30 2106 C 202.653 6.65987 0.449144 0
M  V30 2107 H 201.923 0.605939 0.42652 0
M  V30 2108 H 204.57 1.86041 0.45397 0
M  V30 2109 H 202.875 2.56118 2.96498 0
M  V30 2110 H 204.572 2.90012 2.76936 0
M  V30 2111 H 201.162 3.91116 1.7529 0
M  V30 2112 H 205.346 4.7867 1.31105 0
M  V30 2113 H 200.602 6.07124 0.721833 0
M  V30 2114 H 204.776 6.95805 0.287798 0
M  V30 2115 H 202.403 7.60199 -0.012632 0
M  V30 2116 N 203.978 -0.674533 1.42435 0
M  V30 2117 C 205.203 -1.46784 1.46524 0
M  V30 2118 C 205.628 -1.87938 0.078066 0
M  V30 2119 O 204.986 -1.56014 -0.92354 0
M  V30 2120 C 205.034 -2.69307 2.39805 0
M  V30 2121 O 204.138 -3.67587 1.86959 0
M  V30 2122 H 203.479 -0.440959 0.496439 0
M  V30 2123 H 206.009 -0.827326 1.87127 0
M  V30 2124 H 206.019 -3.17374 2.56393 0
M  V30 2125 H 204.694 -2.38692 3.40586 0
M  V30 2126 H 203.271 -3.2662 1.79927 0
M  V30 2127 N 205.456 -1.28612 -0.910864 0
M  V30 2128 C 206.389 -1.07109 -2.01502 0
M  V30 2129 C 207.367 0.013706 -1.62594 0
M  V30 2130 O 208.551 -0.134796 -1.88017 0
M  V30 2131 C 205.678 -0.628255 -3.32822 0
M  V30 2132 C 204.724 -1.71012 -3.90714 0
M  V30 2133 S 205.557 -3.30676 -4.21205 0
M  V30 2134 C 206.713 -2.88234 -5.55583 0
M  V30 2135 H 206.946 -2.00591 -2.19432 0
M  V30 2136 H 204.479 -1.12633 -1.05609 0
M  V30 2137 H 206.437 -0.37946 -4.08742 0
M  V30 2138 H 205.098 0.28678 -3.12788 0
M  V30 2139 H 204.291 -1.35195 -4.85529 0
M  V30 2140 H 203.893 -1.91186 -3.21441 0
M  V30 2141 H 206.185 -2.34584 -6.35591 0
M  V30 2142 H 207.128 -3.81857 -5.96314 0
M  V30 2143 H 207.536 -2.26862 -5.16908 0
M  V30 2144 N 206.934 1.1197 -1.10907 0
M  V30 2145 C 208.174 1.85224 -0.864378 0
M  V30 2146 C 208.538 1.82411 0.599178 0
M  V30 2147 O 209.739 2.51057 0.960416 0
M  V30 2148 C 208.01 3.2868 -1.40371 0
M  V30 2149 S 209.569 4.1925 -1.29518 0
M  V30 2150 H 206.387 0.63878 -0.312219 0
M  V30 2151 H 208.989 1.3485 -1.41548 0
M  V30 2152 H 207.693 3.28289 -2.46281 0
M  V30 2153 H 207.224 3.84121 -0.849402 0
M  V30 2154 H 209.239 4.95539 -0.256059 0
M  V30 2155 N 208.412 0.89855 1.29475 0
M  V30 2156 C 209.322 0.379974 2.31502 0
M  V30 2157 C 210.338 -0.524695 1.659 0
M  V30 2158 O 211.514 -0.414551 1.97087 0
M  V30 2159 C 208.579 -0.385138 3.44554 0
M  V30 2160 C 207.64 0.550914 4.2575 0
M  V30 2161 C 206.873 -0.177778 5.33404 0
M  V30 2162 O 207.096 -1.40189 5.52904 0
M  V30 2163 O 206.03 0.479106 5.9999 0
M  V30 2164 H 209.856 1.22639 2.77837 0
M  V30 2165 H 207.441 0.662834 1.33891 0
M  V30 2166 H 209.323 -0.817841 4.13388 0
M  V30 2167 H 207.998 -1.20763 3.0033 0
M  V30 2168 H 206.905 1.03271 3.59564 0
M  V30 2169 H 208.238 1.33979 4.73614 0
M  V30 2170 N 209.89 -1.43072 0.660911 0
M  V30 2171 C 210.84 -2.27948 -0.04847 0
M  V30 2172 C 211.824 -1.40325 -0.787246 0
M  V30 2173 O 213.016 -1.63893 -0.668446 0
M  V30 2174 C 210.145 -3.28143 -1.00881 0
M  V30 2175 C 209.231 -4.23252 -0.268108 0
M  V30 2176 N 209.622 -5.00656 0.719528 0
M  V30 2177 C 207.92 -4.43092 -0.508493 0
M  V30 2178 C 208.621 -5.70019 1.15988 0
M  V30 2179 N 207.597 -5.41364 0.492584 0
M  V30 2180 H 211.399 -2.85213 0.709279 0
M  V30 2181 H 208.913 -1.54869 0.488822 0
M  V30 2182 H 210.91 -3.87736 -1.53188 0
M  V30 2183 H 209.57 -2.7244 -1.76654 0
M  V30 2184 H 210.581 -5.06115 1.09855 0
M  V30 2185 H 207.258 -3.98449 -1.24679 0
M  V30 2186 H 208.648 -6.4214 1.97751 0
M  V30 2187 N 211.368 -0.403325 -1.52352 0
M  V30 2188 C 212.318 0.442244 -2.2367 0
M  V30 2189 C 213.302 1.01823 -1.24583 0
M  V30 2190 O 214.494 0.942005 -1.49851 0
M  V30 2191 C 211.623 1.5615 -3.05732 0
M  V30 2192 C 210.709 0.996575 -4.12225 0
M  V30 2193 N 211.1 0.157804 -5.05554 0
M  V30 2194 C 209.398 1.26767 -4.27605 0
M  V30 2195 C 210.099 -0.155853 -5.81491 0
M  V30 2196 N 209.075 0.451775 -5.41719 0
M  V30 2197 H 212.877 -0.204964 -2.93184 0
M  V30 2198 H 210.391 -0.213418 -1.60992 0
M  V30 2199 H 212.388 2.17981 -3.55373 0
M  V30 2200 H 211.048 2.21139 -2.37755 0
M  V30 2201 H 212.059 -0.206049 -5.1749 0
M  V30 2202 H 208.736 1.91757 -3.70858 0
M  V30 2203 H 210.126 -0.836329 -6.66675 0
M  V30 2204 N 212.846 1.57033 -0.133567 0
M  V30 2205 C 213.776 2.1909 0.807567 0
M  V30 2206 C 214.757 1.13517 1.26681 0
M  V30 2207 O 215.942 1.41809 1.32679 0
M  V30 2208 C 213.072 2.80188 2.05212 0
M  V30 2209 C 212.026 3.91471 1.73015 0
M  V30 2210 C 211.352 4.39443 3.04622 0
M  V30 2211 C 212.652 5.12886 0.987168 0
M  V30 2212 H 214.346 2.97988 0.290403 0
M  V30 2213 H 211.892 1.43335 0.138239 0
M  V30 2214 H 213.845 3.22264 2.71521 0
M  V30 2215 H 212.569 1.98601 2.59278 0
M  V30 2216 H 211.228 3.49993 1.0909 0
M  V30 2217 H 210.876 3.54695 3.56651 0
M  V30 2218 H 210.576 5.14495 2.83847 0
M  V30 2219 H 212.1 4.8418 3.72024 0
M  V30 2220 H 213.514 5.51891 1.55208 0
M  V30 2221 H 211.911 5.93615 0.87985 0
M  V30 2222 H 212.981 4.84894 -0.0235286 0
M  V30 2223 N 214.325 -0.140222 1.56975 0
M  V30 2224 C 215.571 -0.852949 1.83991 0
M  V30 2225 C 215.904 -1.80512 0.716187 0
M  V30 2226 O 215.179 -1.92479 -0.279681 0
M  V30 2227 C 215.462 -1.6215 3.21527 0
M  V30 2228 C 215.315 -0.690363 4.4447 0
M  V30 2229 C 216.634 -2.58247 3.56366 0
M  V30 2230 H 213.753 -0.308634 0.669264 0
M  V30 2231 H 216.395 -0.117898 1.89634 0
M  V30 2232 H 214.545 -2.24812 3.16847 0
M  V30 2233 H 216.217 -0.0742264 4.6124 0
M  V30 2234 H 214.46 -0.000396433 4.338 0
M  V30 2235 H 215.131 -1.2643 5.37326 0
M  V30 2236 H 217.607 -2.05701 3.61699 0
M  V30 2237 H 216.483 -3.09067 4.53617 0
M  V30 2238 H 216.744 -3.39923 2.82674 0
M  V30 2239 N 215.803 -1.52179 -0.40978 0
M  V30 2240 C 217.214 -1.58377 -0.988615 0
M  V30 2241 C 217.565 -0.423879 -1.91566 0
M  V30 2242 O 216.69 0.455844 -2.11544 0
M  V30 2243 C 217.285 -2.87044 -1.79976 0
M  V30 2244 C 215.844 -2.95722 -2.32863 0
M  V30 2245 C 214.991 -2.53309 -1.12828 0
M  V30 2246 H 217.942 -1.57558 -0.190039 0
M  V30 2247 H 217.963 -2.7236 -2.65707 0
M  V30 2248 H 217.475 -3.71444 -1.12478 0
M  V30 2249 H 215.576 -2.15814 -3.03735 0
M  V30 2250 H 215.689 -3.99951 -2.63773 0
M  V30 2251 H 214.053 -2.07142 -1.48204 0
M  V30 2252 H 214.836 -3.40082 -0.46897 0
M  V30 2253 N 217.281 0.66697 -1.42791 0
M  V30 2254 C 218.528 1.42699 -1.43678 0
M  V30 2255 C 218.856 1.94419 -0.0560425 0
M  V30 2256 O 218.111 1.7182 0.936831 0
M  V30 2257 C 218.41 2.6349 -2.4147 0
M  V30 2258 C 218.076 2.30267 -3.8767 0
M  V30 2259 C 216.738 2.20918 -4.27491 0
M  V30 2260 C 219.09 2.03435 -4.79858 0
M  V30 2261 C 216.418 1.82873 -5.57471 0
M  V30 2262 C 218.77 1.66892 -6.10188 0
M  V30 2263 C 217.434 1.56058 -6.49001 0
M  V30 2264 H 216.704 0.522171 -0.525755 0
M  V30 2265 H 219.351 0.759785 -1.75783 0
M  V30 2266 H 217.656 3.35279 -2.0272 0
M  V30 2267 H 219.353 3.21684 -2.39417 0
M  V30 2268 H 215.943 2.38449 -3.56146 0
M  V30 2269 H 220.127 2.09586 -4.49875 0
M  V30 2270 H 215.383 1.7306 -5.86396 0
M  V30 2271 H 219.557 1.45157 -6.81104 0
M  V30 2272 H 217.184 1.26348 -7.49627 0
M  V30 2273 N 218.759 1.29093 0.90403 0
M  V30 2274 C 220.005 1.16986 1.65656 0
M  V30 2275 C 220.338 -0.278925 1.92186 0
M  V30 2276 O 219.613 -1.2019 1.5292 0
M  V30 2277 C 219.896 1.97908 3.0084 0
M  V30 2278 C 219.749 3.50903 2.81403 0
M  V30 2279 C 221.068 1.80208 4.01513 0
M  V30 2280 H 218.187 0.426346 0.601164 0
M  V30 2281 H 220.829 1.58518 1.04747 0
M  V30 2282 H 218.979 1.62616 3.52829 0
M  V30 2283 H 220.651 3.96153 2.36348 0
M  V30 2284 H 218.894 3.76045 2.1627 0
M  V30 2285 H 219.565 4.02791 3.77443 0
M  V30 2286 H 222.041 2.11025 3.58619 0
M  V30 2287 H 220.917 2.39184 4.94047 0
M  V30 2288 H 221.178 0.756119 4.35586 0
M  V30 2289 N 220.237 -1.11381 1.11499 0
M  V30 2290 C 221.485 -1.8277 0.862524 0
M  V30 2291 C 221.806 -1.85097 -0.613534 0
M  V30 2292 O 221.076 -1.32198 -1.4457 0
M  V30 2293 H 219.656 -0.676823 0.316101 0
M  V30 2294 H 222.318 -1.34816 1.4075 0
M  V30 2295 H 221.414 -2.86614 1.23527 0
M  V30 2296 N 221.715 -0.905404 -1.28997 0
M  V30 2297 C 222.662 -0.385892 -2.27551 0
M  V30 2298 C 223.632 0.535113 -1.57244 0
M  V30 2299 O 224.817 0.459119 -1.85194 0
M  V30 2300 C 221.957 0.375461 -3.43051 0
M  V30 2301 C 221.07 -0.577092 -4.28128 0
M  V30 2302 C 220.205 0.201879 -5.30816 0
M  V30 2303 C 219.244 -0.744829 -6.07551 0
M  V30 2304 N 218.381 9.42587e-05 -7.021 0
M  V30 2305 H 223.221 -1.23139 -2.71368 0
M  V30 2306 H 220.758 -0.618542 -1.33463 0
M  V30 2307 H 222.716 0.832992 -4.088 0
M  V30 2308 H 221.346 1.18537 -3.00248 0
M  V30 2309 H 220.398 -1.15315 -3.62501 0
M  V30 2310 H 221.71 -1.30152 -4.8152 0
M  V30 2311 H 220.864 0.720351 -6.02408 0
M  V30 2312 H 219.603 0.959413 -4.7817 0
M  V30 2313 H 218.608 -1.27475 -5.34818 0
M  V30 2314 H 219.833 -1.50178 -6.62286 0
M  V30 2315 H 217.779 0.739791 -6.51815 0
M  V30 2316 H 217.696 -0.664321 -7.53076 0
M  V30 2317 H 218.964 0.498644 -7.77903 0
M  V30 2318 N 223.193 1.4272 -0.668489 0
M  V30 2319 C 224.439 2.01923 -0.188419 0
M  V30 2320 C 224.772 1.52704 1.19979 0
M  V30 2321 O 224.047 0.726566 1.8042 0
M  V30 2322 C 224.33 3.59451 -0.216085 0
M  V30 2323 C 224.183 4.18864 -1.6393 0
M  V30 2324 C 225.502 4.37903 0.439179 0
M  V30 2325 H 222.621 0.733674 -0.0699412 0
M  V30 2326 H 225.263 1.69822 -0.852076 0
M  V30 2327 H 223.413 3.86929 0.349012 0
M  V30 2328 H 225.085 4.02362 -2.25616 0
M  V30 2329 H 223.328 3.74933 -2.18193 0
M  V30 2330 H 223.999 5.27987 -1.61039 0
M  V30 2331 H 226.475 4.16079 -0.0417878 0
M  V30 2332 H 225.351 5.47519 0.389157 0
M  V30 2333 H 225.612 4.15303 1.51577 0
M  V30 2334 N 224.671 0.411399 1.52136 0
M  V30 2335 C 225.621 -0.430376 2.23901 0
M  V30 2336 C 226.605 -1.0116 1.25121 0
M  V30 2337 O 227.797 -0.934044 1.50348 0
M  V30 2338 C 224.926 -1.54527 3.06556 0
M  V30 2339 C 224.012 -0.9747 4.12747 0
M  V30 2340 N 224.403 -0.130991 5.0563 0
M  V30 2341 C 222.701 -1.24497 4.28271 0
M  V30 2342 C 223.402 0.186689 5.814 0
M  V30 2343 N 222.378 -0.42304 5.41951 0
M  V30 2344 H 226.18 0.220509 2.93072 0
M  V30 2345 H 223.694 0.221952 1.60876 0
M  V30 2346 H 225.691 -2.16093 3.56524 0
M  V30 2347 H 224.351 -2.19875 2.38925 0
M  V30 2348 H 225.362 0.23349 5.17373 0
M  V30 2349 H 222.039 -1.89787 3.7187 0
M  V30 2350 H 223.429 0.871673 6.66222 0
M  V30 2351 N 226.149 -1.5696 0.141893 0
M  V30 2352 C 227.398 -1.95135 -0.510427 0
M  V30 2353 C 227.711 -1.02896 -1.66348 0
M  V30 2354 O 228.917 -1.30629 -2.38009 0
M  V30 2355 C 227.373 -3.46876 -0.959427 0
M  V30 2356 C 226.981 -4.47691 0.166419 0
M  V30 2357 C 228.725 -3.93927 -1.58183 0
M  V30 2358 C 226.632 -5.90636 -0.300565 0
M  V30 2359 H 225.562 -0.728494 -0.194454 0
M  V30 2360 H 228.213 -1.8211 0.22542 0
M  V30 2361 H 226.595 -3.55215 -1.75038 0
M  V30 2362 H 227.769 -4.51043 0.94325 0
M  V30 2363 H 226.084 -4.10527 0.696905 0
M  V30 2364 H 228.681 -4.98158 -1.94275 0
M  V30 2365 H 229.024 -3.3519 -2.46888 0
M  V30 2366 H 229.557 -3.88484 -0.855863 0
M  V30 2367 H 226.296 -6.5318 0.550989 0
M  V30 2368 H 225.816 -5.90655 -1.04338 0
M  V30 2369 H 227.495 -6.42588 -0.754265 0
M  V30 2370 N 227.627 0.131896 -1.57047 0
M  V30 2371 C 228.875 0.840269 -1.83804 0
M  V30 2372 C 229.196 1.81017 -0.72512 0
M  V30 2373 O 228.466 1.94272 0.251995 0
M  V30 2374 H 227.046 0.313294 -0.678127 0
M  V30 2375 H 229.708 0.122294 -1.94516 0
M  V30 2376 H 228.804 1.39335 -2.79271 0
M  V30 2377 N 229.106 1.52395 0.401703 0
M  V30 2378 C 230.336 1.70429 1.1678 0
M  V30 2379 C 230.744 0.416702 1.84554 0
M  V30 2380 O 230.087 -0.617697 1.73003 0
M  V30 2381 C 230.149 2.78919 2.26814 0
M  V30 2382 C 229.813 4.20437 1.79113 0
M  V30 2383 C 230.81 5.04028 1.27482 0
M  V30 2384 C 228.495 4.66704 1.85722 0
M  V30 2385 C 230.489 6.31961 0.830913 0
M  V30 2386 C 228.176 5.94625 1.40942 0
M  V30 2387 C 229.174 6.77082 0.897128 0
M  V30 2388 O 228.862 8.02607 0.455822 0
M  V30 2389 H 228.594 0.574272 0.356634 0
M  V30 2390 H 231.148 1.99767 0.477724 0
M  V30 2391 H 229.378 2.44973 2.99207 0
M  V30 2392 H 231.067 2.8548 2.88541 0
M  V30 2393 H 231.833 4.69471 1.21744 0
M  V30 2394 H 227.712 4.0262 2.24539 0
M  V30 2395 H 231.256 6.96271 0.430368 0
M  V30 2396 H 227.153 6.28688 1.46362 0
M  V30 2397 H 227.921 8.16453 0.578457 0
M  V30 2398 N 230.584 -0.659388 1.43143 0
M  V30 2399 C 231.514 -1.78422 1.50625 0
M  V30 2400 C 232.495 -1.66216 0.361443 0
M  V30 2401 O 233.68 -1.85404 0.577834 0
M  V30 2402 C 230.81 -3.16815 1.42287 0
M  V30 2403 C 229.764 -3.43777 2.54954 0
M  V30 2404 C 229.09 -4.81905 2.31671 0
M  V30 2405 C 230.39 -3.39134 3.97222 0
M  V30 2406 H 232.084 -1.72417 2.44771 0
M  V30 2407 H 229.63 -0.828084 1.17808 0
M  V30 2408 H 231.583 -3.95253 1.46127 0
M  V30 2409 H 230.307 -3.23534 0.446435 0
M  V30 2410 H 228.966 -2.67707 2.50457 0
M  V30 2411 H 228.614 -4.85294 1.32284 0
M  V30 2412 H 228.314 -5.00906 3.07192 0
M  V30 2413 H 229.838 -5.62609 2.37284 0
M  V30 2414 H 231.252 -4.07518 4.03239 0
M  V30 2415 H 229.649 -3.69671 4.72719 0
M  V30 2416 H 230.719 -2.37426 4.22797 0
M  V30 2417 N 232.062 -1.29571 -0.897171 0
M  V30 2418 C 233.473 -1.15964 -1.46319 0
M  V30 2419 C 233.824 0.244267 -1.94674 0
M  V30 2420 O 232.949 1.13998 -1.83939 0
M  V30 2421 C 233.544 -2.09906 -2.65942 0
M  V30 2422 C 232.103 -2.00314 -3.18671 0
M  V30 2423 C 231.25 -2.00687 -1.91363 0
M  V30 2424 H 234.201 -1.42019 -0.708268 0
M  V30 2425 H 234.222 -1.67276 -3.41759 0
M  V30 2426 H 233.734 -3.12075 -2.30718 0
M  V30 2427 H 231.835 -1.01242 -3.58582 0
M  V30 2428 H 231.948 -2.88102 -3.82798 0
M  V30 2429 H 230.312 -1.45319 -2.09175 0
M  V30 2430 H 231.095 -3.04566 -1.58413 0
M  V30 2431 N 233.54 1.10788 -1.12088 0
M  V30 2432 C 234.488 2.19111 -0.780587 0
M  V30 2433 C 235.482 1.67818 0.230961 0
M  V30 2434 O 236.688 1.79777 0.0895427 0
M  V30 2435 H 233.063 0.714477 -0.234578 0
M  V30 2436 H 235.034 2.45055 -1.70266 0
M  V30 2437 C 233.783 3.46818 -0.24747 0
M  V30 2438 H 233.106 3.86646 -1.01712 0
M  V30 2439 H 234.546 4.23973 -0.0476291 0
M  V30 2440 C 233.005 3.20968 1.02378 0
M  V30 2441 O 233.535 3.42298 2.10226 0
M  V30 2442 N 231.741 2.74658 0.949271 0
M  V30 2443 H 231.288 2.57501 0.0715173 0
M  V30 2444 H 231.246 2.57739 1.80049 0
M  V30 2445 N 235.018 0.912232 1.28515 0
M  V30 2446 C 235.965 0.397954 2.27343 0
M  V30 2447 C 236.935 -0.526766 1.57526 0
M  V30 2448 O 238.12 -0.449292 1.85435 0
M  V30 2449 C 235.26 -0.357263 3.43246 0
M  V30 2450 C 234.373 0.599788 4.27816 0
M  V30 2451 C 233.508 -0.173725 5.30916 0
M  V30 2452 C 232.547 0.777039 6.07148 0
M  V30 2453 N 231.684 0.0371398 7.0209 0
M  V30 2454 H 236.524 1.24577 2.70711 0
M  V30 2455 H 234.061 0.625612 1.33133 0
M  V30 2456 H 236.019 -0.8113 4.09236 0
M  V30 2457 H 234.649 -1.16943 3.00872 0
M  V30 2458 H 233.701 1.17235 3.61884 0
M  V30 2459 H 235.013 1.32704 4.80823 0
M  V30 2460 H 234.167 -0.688394 6.02782 0
M  V30 2461 H 232.906 -0.934041 4.78672 0
M  V30 2462 H 231.911 1.3031 5.34134 0
M  V30 2463 H 233.136 1.53689 6.61481 0
M  V30 2464 H 231.082 -0.705213 6.52198 0
M  V30 2465 H 230.999 0.704249 7.52713 0
M  V30 2466 H 232.267 -0.457383 7.78157 0
M  V30 2467 N 236.496 -1.42363 0.676048 0
M  V30 2468 C 237.428 -2.29164 -0.0404605 0
M  V30 2469 C 238.441 -1.43747 -0.764245 0
M  V30 2470 O 239.63 -1.67453 -0.618195 0
M  V30 2471 C 236.73 -3.21196 -1.08103 0
M  V30 2472 C 235.903 -4.35273 -0.430812 0
M  V30 2473 C 234.962 -5.08017 -1.37133 0
M  V30 2474 O 233.988 -5.62494 -0.87116 0
M  V30 2475 N 235.19 -5.13647 -2.70456 0
M  V30 2476 H 237.955 -2.91298 0.704667 0
M  V30 2477 H 235.516 -1.53303 0.520559 0
M  V30 2478 H 237.508 -3.66728 -1.71152 0
M  V30 2479 H 236.078 -2.60505 -1.72788 0
M  V30 2480 H 235.298 -3.92372 0.379209 0
M  V30 2481 H 236.586 -5.08795 0.0221132 0
M  V30 2482 H 235.984 -4.708 -3.1363 0
M  V30 2483 H 234.541 -5.62821 -3.28749 0
M  V30 2484 N 237.974 -0.419461 -1.51915 0
M  V30 2485 C 239.22 0.153166 -2.02221 0
M  V30 2486 C 239.553 1.43907 -1.30401 0
M  V30 2487 O 238.828 1.90055 -0.413438 0
M  V30 2488 C 239.111 0.390291 -3.57979 0
M  V30 2489 C 238.964 -0.913014 -4.40436 0
M  V30 2490 C 240.283 1.16794 -4.2432 0
M  V30 2491 H 237.402 0.0541924 -0.735005 0
M  V30 2492 H 240.044 -0.554955 -1.81715 0
M  V30 2493 H 238.194 0.993491 -3.75582 0
M  V30 2494 H 239.866 -1.54882 -4.34522 0
M  V30 2495 H 238.109 -1.52168 -4.06236 0
M  V30 2496 H 238.78 -0.701361 -5.47526 0
M  V30 2497 H 241.256 0.657161 -4.10878 0
M  V30 2498 H 240.132 1.3026 -5.3322 0
M  V30 2499 H 240.393 2.19132 -3.83971 0
M  V30 2500 N 239.452 1.56882 -0.150215 0
M  V30 2501 C 240.382 2.19935 0.784284 0
M  V30 2502 C 241.363 1.14854 1.25469 0
M  V30 2503 O 242.548 1.43209 1.31168 0
M  V30 2504 C 239.678 2.82349 2.02229 0
M  V30 2505 C 238.632 3.93285 1.68853 0
M  V30 2506 C 237.958 4.42649 2.99944 0
M  V30 2507 C 239.258 5.13904 0.932714 0
M  V30 2508 H 240.952 2.9828 0.258781 0
M  V30 2509 H 238.498 1.43473 0.123029 0
M  V30 2510 H 240.451 3.25126 2.68088 0
M  V30 2511 H 239.175 2.0134 2.57157 0
M  V30 2512 H 237.834 3.5113 1.05371 0
M  V30 2513 H 237.482 3.58458 3.52869 0
M  V30 2514 H 237.182 5.17476 2.78374 0
M  V30 2515 H 238.706 4.88099 3.66868 0
M  V30 2516 H 240.12 5.53506 1.49345 0
M  V30 2517 H 238.517 5.94515 0.81684 0
M  V30 2518 H 239.587 4.84842 -0.0749568 0
M  V30 2519 N 240.93 -0.123565 1.57115 0
M  V30 2520 C 242.178 -0.83051 1.84247 0
M  V30 2521 C 242.499 -1.80629 0.73471 0
M  V30 2522 O 241.769 -1.94403 -0.241688 0
M  V30 2523 H 240.349 -0.309694 0.679778 0
M  V30 2524 H 243.011 -0.111976 1.94578 0
M  V30 2525 H 242.107 -1.37852 2.80006 0
M  V30 2526 N 242.408 -1.52605 -0.393616 0
M  V30 2527 C 243.338 -1.80022 -1.48709 0
M  V30 2528 C 244.319 -0.651995 -1.57108 0
M  V30 2529 O 245.504 -0.89913 -1.72132 0
M  V30 2530 C 242.634 -1.96492 -2.86371 0
M  V30 2531 C 241.588 -3.12161 -2.92813 0
M  V30 2532 C 240.914 -3.13877 -4.3288 0
M  V30 2533 C 242.214 -4.51322 -2.6288 0
M  V30 2534 H 243.908 -2.71589 -1.26015 0
M  V30 2535 H 241.454 -1.30684 -0.604778 0
M  V30 2536 H 243.407 -2.14255 -3.62867 0
M  V30 2537 H 242.131 -1.01611 -3.10391 0
M  V30 2538 H 240.79 -2.94173 -2.18764 0
M  V30 2539 H 240.438 -2.16687 -4.53933 0
M  V30 2540 H 240.138 -3.91576 -4.38112 0
M  V30 2541 H 241.662 -3.33789 -5.1129 0
M  V30 2542 H 243.076 -4.69435 -3.29096 0
M  V30 2543 H 241.473 -5.31053 -2.79468 0
M  V30 2544 H 242.543 -4.58353 -1.58242 0
M  V30 2545 N 243.887 0.651787 -1.4349 0
M  V30 2546 C 245.112 1.44434 -1.48841 0
M  V30 2547 C 245.537 1.8779 -0.107955 0
M  V30 2548 O 244.895 1.57464 0.898602 0
M  V30 2549 C 244.943 2.65458 -2.44059 0
M  V30 2550 O 244.047 3.64566 -1.92784 0
M  V30 2551 H 243.388 0.433005 -0.503391 0
M  V30 2552 H 245.918 0.797451 -1.88419 0
M  V30 2553 H 245.928 3.13255 -2.6141 0
M  V30 2554 H 244.603 2.33244 -3.4434 0
M  V30 2555 H 243.18 3.23716 -1.851 0
M  V30 2556 N 245.365 1.30045 0.890287 0
M  V30 2557 C 246.312 1.15976 1.99545 0
M  V30 2558 C 247.282 0.0506202 1.66023 0
M  V30 2559 O 248.467 0.219847 1.89529 0
M  V30 2560 C 245.607 0.852054 3.34416 0
M  V30 2561 C 244.72 2.04255 3.80662 0
M  V30 2562 C 243.855 1.6734 5.04154 0
M  V30 2563 C 242.894 2.82916 5.42794 0
M  V30 2564 N 242.031 2.46333 6.57468 0
M  V30 2565 H 246.871 2.10524 2.10911 0
M  V30 2566 H 244.408 1.04749 1.03276 0
M  V30 2567 H 246.366 0.654296 4.12037 0
M  V30 2568 H 244.996 -0.0565502 3.2275 0
M  V30 2569 H 244.048 2.35172 2.98995 0
M  V30 2570 H 245.36 2.90826 4.05242 0
M  V30 2571 H 244.514 1.43908 5.89386 0
M  V30 2572 H 243.253 0.779308 4.81433 0
M  V30 2573 H 242.258 3.0702 4.56091 0
M  V30 2574 H 243.483 3.73004 5.6749 0
M  V30 2575 H 241.429 1.59423 6.36334 0
M  V30 2576 H 241.346 3.26436 6.81891 0
M  V30 2577 H 242.614 2.26244 7.45945 0
M  V30 2578 N 246.843 -1.10192 1.12674 0
M  V30 2579 C 247.773 -2.18652 0.819362 0
M  V30 2580 C 248.754 -1.68698 -0.217915 0
M  V30 2581 O 249.939 -1.94041 -0.0785581 0
M  V30 2582 C 247.069 -3.46202 0.27594 0
M  V30 2583 C 246.023 -4.09444 1.24656 0
M  V30 2584 C 245.349 -5.31725 0.563258 0
M  V30 2585 C 246.649 -4.52863 2.60217 0
M  V30 2586 H 248.343 -2.44622 1.72628 0
M  V30 2587 H 245.889 -1.17571 0.831451 0
M  V30 2588 H 247.842 -4.21372 0.0486149 0
M  V30 2589 H 246.566 -3.1973 -0.666331 0
M  V30 2590 H 245.225 -3.36284 1.45974 0
M  V30 2591 H 244.873 -5.0153 -0.384235 0
M  V30 2592 H 244.573 -5.74991 1.21075 0
M  V30 2593 H 246.097 -6.09624 0.34503 0
M  V30 2594 H 247.511 -5.19294 2.42913 0
M  V30 2595 H 245.908 -5.06986 3.21068 0
M  V30 2596 H 246.978 -3.65656 3.18471 0
M  V30 2597 N 248.321 -0.919034 -1.28029 0
M  V30 2598 C 249.284 -0.416182 -2.2539 0
M  V30 2599 C 250.284 0.460438 -1.54067 0
M  V30 2600 O 251.474 0.262744 -1.72207 0
M  V30 2601 C 248.606 0.402707 -3.38513 0
M  V30 2602 H 249.799 -1.27629 -2.71387 0
M  V30 2603 H 247.352 -0.698919 -1.39803 0
M  V30 2604 H 248.087 1.282 -2.97885 0
M  V30 2605 H 247.872 -0.225698 -3.9145 0
M  V30 2606 H 249.362 0.745191 -4.10897 0
M  V30 2607 N 249.799 1.42003 -0.683588 0
M  V30 2608 C 251.215 1.55625 -0.353976 0
M  V30 2609 C 251.415 1.66151 1.14 0
M  V30 2610 O 250.471 1.63329 1.92561 0
M  V30 2611 C 251.784 2.80171 -1.092 0
M  V30 2612 C 253.332 2.93954 -1.07518 0
M  V30 2613 C 253.807 4.21372 -1.79471 0
M  V30 2614 N 255.298 4.28303 -1.76381 0
M  V30 2615 C 256.033 5.25729 -2.28904 0
M  V30 2616 N 255.529 6.29254 -2.89846 0
M  V30 2617 N 257.322 5.17586 -2.19228 0
M  V30 2618 H 249.473 1.33415 -1.6527 0
M  V30 2619 H 251.736 0.64282 -0.696769 0
M  V30 2620 H 251.442 2.78561 -2.14701 0
M  V30 2621 H 251.316 3.7133 -0.662862 0
M  V30 2622 H 253.703 2.95086 -0.028475 0
M  V30 2623 H 253.784 2.04002 -1.54328 0
M  V30 2624 H 253.428 4.21001 -2.84114 0
M  V30 2625 H 253.358 5.10275 -1.30104 0
M  V30 2626 H 255.849 3.54119 -1.31939 0
M  V30 2627 H 256.162 6.99964 -3.27522 0
M  V30 2628 H 254.507 6.29791 -2.93919 0
M  V30 2629 H 257.698 4.35631 -1.71299 0
M  V30 2630 H 257.871 5.93348 -2.60466 0
M  V30 2631 N 251.277 0.427512 1.51691 0
M  V30 2632 C 252.526 -0.143679 2.01188 0
M  V30 2633 C 252.839 -1.44642 1.31674 0
M  V30 2634 O 254.045 -2.09997 1.72086 0
M  V30 2635 C 252.501 -0.306602 3.58592 0
M  V30 2636 C 252.109 0.985125 4.37035 0
M  V30 2637 C 253.853 -0.832091 4.16265 0
M  V30 2638 C 251.76 0.788382 5.86122 0
M  V30 2639 H 250.69 -0.0574701 0.751807 0
M  V30 2640 H 253.341 0.555772 1.74881 0
M  V30 2641 H 251.723 -1.06882 3.81303 0
M  V30 2642 H 252.897 1.75492 4.26074 0
M  V30 2643 H 251.212 1.4384 3.90767 0
M  V30 2644 H 253.809 -0.995617 5.25349 0
M  V30 2645 H 254.152 -1.81186 3.74803 0
M  V30 2646 H 254.685 -0.128444 3.97593 0
M  V30 2647 H 251.424 1.74025 6.31978 0
M  V30 2648 H 250.944 0.0582143 5.99772 0
M  V30 2649 H 252.623 0.437722 6.45518 0
M  V30 2650 N 252.755 -1.56801 0.158532 0
M  V30 2651 C 254.001 -1.96781 -0.490405 0
M  V30 2652 C 254.334 -1.04397 -1.63753 0
M  V30 2653 O 253.609 -0.0885805 -1.94298 0
M  V30 2654 C 253.892 -3.4635 -0.985594 0
M  V30 2655 C 253.745 -4.49512 0.160824 0
M  V30 2656 C 255.064 -3.98697 -1.86355 0
M  V30 2657 H 252.183 -0.715482 -0.176788 0
M  V30 2658 H 254.825 -1.88451 0.242088 0
M  V30 2659 H 252.975 -3.53579 -1.60978 0
M  V30 2660 H 254.647 -4.54353 0.797537 0
M  V30 2661 H 252.89 -4.26013 0.818256 0
M  V30 2662 H 253.561 -5.51531 -0.227569 0
M  V30 2663 H 256.037 -3.94019 -1.33746 0
M  V30 2664 H 254.913 -5.03792 -2.17909 0
M  V30 2665 H 255.174 -3.41744 -2.8047 0
M  V30 2666 N 254.233 0.115231 -1.57178 0
M  V30 2667 C 255.143 1.15994 -2.03918 0
M  V30 2668 C 256.159 1.45103 -0.960268 0
M  V30 2669 O 257.335 1.56144 -1.27204 0
M  V30 2670 C 254.4 2.46568 -2.43732 0
M  V30 2671 C 253.461 2.24822 -3.65723 0
M  V30 2672 C 252.694 3.4917 -4.03629 0
M  V30 2673 O 252.917 4.56623 -3.41835 0
M  V30 2674 O 251.851 3.39949 -4.96708 0
M  V30 2675 H 255.677 0.793019 -2.93164 0
M  V30 2676 H 253.262 0.3263 -1.45793 0
M  V30 2677 H 255.144 3.23492 -2.70057 0
M  V30 2678 H 253.819 2.82726 -1.57631 0
M  V30 2679 H 252.726 1.45744 -3.44542 0
M  V30 2680 H 254.059 1.93566 -4.52541 0
M  V30 2681 N 255.711 1.52812 0.385517 0
M  V30 2682 C 256.96 1.67249 1.12741 0
M  V30 2683 C 257.273 0.4205 1.91027 0
M  V30 2684 O 258.479 0.445064 2.67827 0
M  V30 2685 C 256.935 2.95583 2.05326 0
M  V30 2686 C 256.543 4.27974 1.32447 0
M  V30 2687 C 258.287 3.19386 2.7963 0
M  V30 2688 C 256.194 5.47412 2.23818 0
M  V30 2689 H 255.124 0.6231 0.424573 0
M  V30 2690 H 257.775 1.79309 0.389924 0
M  V30 2691 H 256.157 2.77277 2.82725 0
M  V30 2692 H 257.331 4.56844 0.602495 0
M  V30 2693 H 255.646 4.10459 0.700885 0
M  V30 2694 H 258.243 4.05801 3.48181 0
M  V30 2695 H 258.586 2.34604 3.43899 0
M  V30 2696 H 259.119 3.38274 2.09322 0
M  V30 2697 H 255.858 6.34612 1.64157 0
M  V30 2698 H 255.378 5.22849 2.93921 0
M  V30 2699 H 257.057 5.81423 2.83824 0
M  V30 2700 N 257.189 -0.644168 1.43834 0
M  V30 2701 C 258.419 -1.42939 1.49171 0
M  V30 2702 C 258.827 -1.88874 0.111048 0
M  V30 2703 O 258.17 -1.60656 -0.8908 0
M  V30 2704 C 258.232 -2.69151 2.38324 0
M  V30 2705 C 257.896 -2.45097 3.85715 0
M  V30 2706 C 258.893 -2.07747 4.76589 0
M  V30 2707 C 256.578 -2.59141 4.30292 0
M  V30 2708 C 258.572 -1.8475 6.10038 0
M  V30 2709 C 256.259 -2.35759 5.63792 0
M  V30 2710 C 257.257 -1.9862 6.53482 0
M  V30 2711 O 256.945 -1.75489 7.84512 0
M  V30 2712 H 256.677 -0.445271 0.508635 0
M  V30 2713 H 259.231 -0.79621 1.8934 0
M  V30 2714 H 257.461 -3.3506 1.93058 0
M  V30 2715 H 259.15 -3.31123 2.3476 0
M  V30 2716 H 259.916 -1.96465 4.43426 0
M  V30 2717 H 255.795 -2.87022 3.60749 0
M  V30 2718 H 259.339 -1.55686 6.80006 0
M  V30 2719 H 255.236 -2.46646 5.9652 0
M  V30 2720 H 256.004 -1.89841 7.9618 0
M  V30 2721 N 258.668 -1.30515 -0.883378 0
M  V30 2722 C 259.893 -1.22487 -1.67367 0
M  V30 2723 C 260.318 0.208767 -1.86938 0
M  V30 2724 O 259.676 1.15015 -1.40148 0
M  V30 2725 C 259.724 -1.96041 -3.02655 0
M  V30 2726 O 258.828 -1.28859 -3.91751 0
M  V30 2727 H 258.169 -0.423573 -0.511353 0
M  V30 2728 H 260.699 -1.72362 -1.10239 0
M  V30 2729 H 260.709 -2.05124 -3.52687 0
M  V30 2730 H 259.384 -3.00307 -2.8773 0
M  V30 2731 H 257.961 -1.28141 -3.50192 0
M  V30 2732 N 260.146 1.09593 -1.13257 0
M  V30 2733 C 261.562 1.33775 -0.870423 0
M  V30 2734 C 261.762 1.95327 0.494926 0
M  V30 2735 O 260.818 2.19853 1.2418 0
M  V30 2736 C 262.131 2.25106 -1.99369 0
M  V30 2737 C 263.679 2.3862 -2.02558 0
M  V30 2738 C 264.154 3.33285 -3.14142 0
M  V30 2739 N 265.645 3.40857 -3.13641 0
M  V30 2740 C 266.38 4.14101 -3.96621 0
M  V30 2741 N 265.876 4.90157 -4.8961 0
M  V30 2742 N 267.669 4.09808 -3.84726 0
M  V30 2743 H 259.82 0.680136 -2.01216 0
M  V30 2744 H 262.083 0.362133 -0.876107 0
M  V30 2745 H 261.789 1.87103 -2.97801 0
M  V30 2746 H 261.663 3.25481 -1.90635 0
M  V30 2747 H 264.05 2.75887 -1.0474 0
M  V30 2748 H 264.131 1.38028 -2.15364 0
M  V30 2749 H 263.775 2.96741 -4.12198 0
M  V30 2750 H 263.705 4.33776 -2.98574 0
M  V30 2751 H 266.196 2.86624 -2.46282 0
M  V30 2752 H 266.509 5.4347 -5.49418 0
M  V30 2753 H 264.854 4.89251 -4.93617 0
M  V30 2754 H 268.045 3.4949 -3.11408 0
M  V30 2755 H 268.218 4.66629 -4.49623 0
M  V30 2756 N 261.624 0.925811 1.2754 0
M  V30 2757 C 263.04 0.625767 1.46821 0
M  V30 2758 C 263.24 -0.825506 1.83814 0
M  V30 2759 O 262.296 -1.60356 1.95044 0
M  V30 2760 C 263.609 1.57402 2.56213 0
M  V30 2761 C 265.157 1.58204 2.70075 0
M  V30 2762 C 265.632 2.51721 3.82623 0
M  V30 2763 N 267.123 2.49917 3.89994 0
M  V30 2764 C 267.858 3.18968 4.76494 0
M  V30 2765 N 267.354 3.97391 5.67496 0
M  V30 2766 N 269.147 3.07996 4.70208 0
M  V30 2767 H 261.298 1.86409 1.01811 0
M  V30 2768 H 263.561 0.800213 0.508295 0
M  V30 2769 H 263.267 2.60925 2.35819 0
M  V30 2770 H 263.141 1.31428 3.53563 0
M  V30 2771 H 265.528 0.554124 2.89851 0
M  V30 2772 H 265.609 1.88226 1.73218 0
M  V30 2773 H 265.253 3.54622 3.63601 0
M  V30 2774 H 265.183 2.18996 4.78903 0
M  V30 2775 H 267.674 1.9296 3.24923 0
M  V30 2776 H 267.987 4.4707 6.30356 0
M  V30 2777 H 266.332 4.01495 5.67298 0
M  V30 2778 H 269.523 2.46223 3.9811 0
M  V30 2779 H 269.696 3.6208 5.37403 0
M  V30 2780 N 263.102 -1.41638 0.69111 0
M  V30 2781 C 264.032 -2.3347 0.037248 0
M  V30 2782 C 265.013 -1.51575 -0.771947 0
M  V30 2783 O 266.198 -1.80126 -0.72582 0
M  V30 2784 C 263.328 -3.35354 -0.903064 0
M  V30 2785 C 262.282 -4.27526 -0.201288 0
M  V30 2786 C 261.608 -5.19747 -1.25565 0
M  V30 2787 C 262.908 -5.13959 0.929689 0
M  V30 2788 H 264.602 -2.88397 0.804227 0
M  V30 2789 H 262.148 -1.38669 0.388189 0
M  V30 2790 H 264.101 -3.98519 -1.36969 0
M  V30 2791 H 262.825 -2.78767 -1.70166 0
M  V30 2792 H 261.484 -3.65779 0.245265 0
M  V30 2793 H 261.132 -4.59479 -2.04666 0
M  V30 2794 H 260.832 -5.8225 -0.791128 0
M  V30 2795 H 262.356 -5.85789 -1.72288 0
M  V30 2796 H 263.77 -5.70718 0.543546 0
M  V30 2797 H 262.167 -5.85379 1.32103 0
M  V30 2798 H 263.237 -4.51389 1.77133 0
M  V30 2799 N 264.58 -0.43555 -1.51462 0
M  V30 2800 C 265.512 0.41257 -2.25456 0
M  V30 2801 C 266.525 0.987822 -1.29406 0
M  V30 2802 O 267.714 0.882266 -1.55172 0
M  V30 2803 C 264.814 1.58894 -2.99342 0
M  V30 2804 C 263.987 1.13288 -4.22474 0
M  V30 2805 C 263.046 2.17917 -4.78956 0
M  V30 2806 O 262.072 1.77425 -5.40841 0
M  V30 2807 N 263.274 3.50382 -4.62832 0
M  V30 2808 H 266.039 -0.221603 -2.9888 0
M  V30 2809 H 263.6 -0.264342 -1.59727 0
M  V30 2810 H 265.592 2.28508 -3.34015 0
M  V30 2811 H 264.162 2.12849 -2.28941 0
M  V30 2812 H 263.382 0.263881 -3.93316 0
M  V30 2813 H 264.67 0.805542 -5.02383 0
M  V30 2814 H 264.068 3.86013 -4.13534 0
M  V30 2815 H 262.625 4.15895 -5.01871 0
M  V30 2816 N 266.058 1.56714 -0.166846 0
M  V30 2817 C 267.304 1.97039 0.479962 0
M  V30 2818 C 267.637 1.05264 1.63197 0
M  V30 2819 O 266.912 0.0988833 1.94248 0
M  V30 2820 C 267.195 3.46867 0.967212 0
M  V30 2821 C 267.048 4.49421 -0.18466 0
M  V30 2822 C 268.367 3.9968 1.84238 0
M  V30 2823 H 265.486 0.71641 0.172992 0
M  V30 2824 H 268.128 1.8832 -0.252079 0
M  V30 2825 H 266.278 3.54428 1.59101 0
M  V30 2826 H 267.95 4.53924 -0.821621 0
M  V30 2827 H 266.193 4.25573 -0.840837 0
M  V30 2828 H 266.864 5.51644 0.198317 0
M  V30 2829 H 269.34 3.94723 1.31655 0
M  V30 2830 H 268.216 5.04941 2.15234 0
M  V30 2831 H 268.477 3.43226 2.78654 0
M  V30 2832 N 267.536 -0.106894 1.57237 0
M  V30 2833 C 268.468 -1.15646 1.97885 0
M  V30 2834 C 269.481 -1.36981 0.879779 0
M  V30 2835 O 270.67 -1.35841 1.15799 0
M  V30 2836 C 267.77 -2.51425 2.27241 0
M  V30 2837 C 266.943 -2.50529 3.58545 0
M  V30 2838 C 266.002 -3.68145 3.75973 0
M  V30 2839 O 265.028 -3.51176 4.47956 0
M  V30 2840 N 266.23 -4.87177 3.15656 0
M  V30 2841 H 268.995 -0.81059 2.8853 0
M  V30 2842 H 266.556 -0.296024 1.59171 0
M  V30 2843 H 268.548 -3.28689 2.36105 0
M  V30 2844 H 267.118 -2.78147 1.42663 0
M  V30 2845 H 266.338 -1.58894 3.60758 0
M  V30 2846 H 267.626 -2.46997 4.44826 0
M  V30 2847 H 267.024 -5.03868 2.57165 0
M  V30 2848 H 265.581 -5.62075 3.30023 0
M  V30 2849 N 269.014 -1.53014 -0.377408 0
M  V30 2850 C 269.924 -1.81557 -1.48574 0
M  V30 2851 C 270.94 -0.703102 -1.59162 0
M  V30 2852 O 272.116 -0.99192 -1.75279 0
M  V30 2853 C 269.181 -1.9889 -2.83978 0
M  V30 2854 C 268.242 -3.22801 -2.83016 0
M  V30 2855 C 267.475 -3.39298 -4.11962 0
M  V30 2856 O 267.698 -2.60345 -5.0752 0
M  V30 2857 O 266.632 -4.32604 -4.18494 0
M  V30 2858 H 270.458 -2.75695 -1.27382 0
M  V30 2859 H 268.043 -1.38248 -0.566373 0
M  V30 2860 H 269.925 -2.11931 -3.6423 0
M  V30 2861 H 268.6 -1.07942 -3.05172 0
M  V30 2862 H 267.507 -3.15193 -2.01505 0
M  V30 2863 H 268.84 -4.13632 -2.66775 0
M  V30 2864 N 270.492 0.636531 -1.44174 0
M  V30 2865 C 271.908 0.954104 -1.27941 0
M  V30 2866 C 272.108 2.0039 -0.211248 0
M  V30 2867 O 271.164 2.49236 0.404695 0
M  V30 2868 C 272.477 1.4225 -2.64925 0
M  V30 2869 C 274.025 1.53827 -2.72592 0
M  V30 2870 C 274.5 2.04053 -4.10032 0
M  V30 2871 N 275.991 2.11331 -4.12182 0
M  V30 2872 C 276.726 2.51352 -5.15374 0
M  V30 2873 N 276.222 2.90549 -6.2893 0
M  V30 2874 N 278.015 2.51438 -5.02728 0
M  V30 2875 H 270.166 -0.0578386 -2.12321 0
M  V30 2876 H 272.429 0.0367406 -0.947288 0
M  V30 2877 H 272.135 0.725466 -3.44136 0
M  V30 2878 H 272.009 2.39451 -2.9145 0
M  V30 2879 H 274.396 2.22628 -1.93702 0
M  V30 2880 H 274.477 0.550154 -2.49814 0
M  V30 2881 H 274.121 1.35848 -4.89395 0
M  V30 2882 H 274.051 3.03726 -4.30184 0
M  V30 2883 H 276.542 1.83745 -3.30222 0
M  V30 2884 H 276.855 3.19884 -7.03487 0
M  V30 2885 H 275.2 2.88313 -6.32377 0
M  V30 2886 H 278.391 2.20203 -4.13072 0
M  V30 2887 H 278.564 2.82304 -5.83274 0
M  V30 2888 N 271.97 1.30982 0.876444 0
M  V30 2889 C 272.9 1.20668 1.99903 0
M  V30 2890 C 273.881 0.095354 1.69833 0
M  V30 2891 O 275.066 0.27885 1.92188 0
M  V30 2892 C 272.196 0.90655 3.3526 0
M  V30 2893 C 271.15 1.97675 3.79617 0
M  V30 2894 C 270.476 1.52943 5.1236 0
M  V30 2895 C 271.776 3.389 3.97422 0
M  V30 2896 H 273.47 2.14586 2.0879 0
M  V30 2897 H 271.016 1.03308 1.00317 0
M  V30 2898 H 272.969 0.821025 4.13324 0
M  V30 2899 H 271.693 -0.0682969 3.26529 0
M  V30 2900 H 270.352 2.05205 3.03787 0
M  V30 2901 H 270 0.54262 5.00065 0
M  V30 2902 H 269.7 2.24532 5.43009 0
M  V30 2903 H 271.224 1.45786 5.92941 0
M  V30 2904 H 272.638 3.34081 4.659 0
M  V30 2905 H 271.035 4.0865 4.3946 0
M  V30 2906 H 272.105 3.80163 3.01006 0
M  V30 2907 N 273.449 -1.08991 1.13837 0
M  V30 2908 C 274.677 -1.85011 0.926202 0
M  V30 2909 C 275.092 -1.8135 -0.525127 0
M  V30 2910 O 274.449 -1.21287 -1.36366 0
M  V30 2911 C 274.5 -3.32802 1.41155 0
M  V30 2912 O 274.221 -3.36444 2.80601 0
M  V30 2913 C 275.722 -4.25649 1.23847 0
M  V30 2914 H 272.942 -0.584249 0.32999 0
M  V30 2915 H 275.486 -1.37688 1.51202 0
M  V30 2916 H 273.641 -3.77536 0.868631 0
M  V30 2917 H 274.055 -4.28657 3.02248 0
M  V30 2918 H 275.529 -5.27485 1.62675 0
M  V30 2919 H 276.006 -4.38828 0.18065 0
M  V30 2920 H 276.612 -3.86735 1.76964 0
M  V30 2921 N 274.927 -0.932562 -1.27047 0
M  V30 2922 C 275.874 -0.434072 -2.26681 0
M  V30 2923 C 276.844 0.501639 -1.58344 0
M  V30 2924 O 278.029 0.419734 -1.86126 0
M  V30 2925 C 275.169 0.30261 -3.43771 0
M  V30 2926 C 274.282 -0.667774 -4.26808 0
M  V30 2927 C 273.417 0.0892393 -5.31125 0
M  V30 2928 C 272.456 -0.873532 -6.05835 0
M  V30 2929 N 271.593 -0.148832 -7.01942 0
M  V30 2930 H 276.433 -1.28868 -2.68695 0
M  V30 2931 H 273.97 -0.646713 -1.32121 0
M  V30 2932 H 275.928 0.746092 -4.10474 0
M  V30 2933 H 274.558 1.12142 -3.02695 0
M  V30 2934 H 273.61 -1.22978 -3.59973 0
M  V30 2935 H 274.922 -1.40337 -4.78651 0
M  V30 2936 H 274.076 0.592409 -6.03801 0
M  V30 2937 H 272.815 0.85777 -4.80097 0
M  V30 2938 H 271.82 -1.38791 -5.31994 0
M  V30 2939 H 273.045 -1.64193 -6.58952 0
M  V30 2940 H 270.991 0.601365 -6.53238 0
M  V30 2941 H 270.908 -0.82391 -7.51497 0
M  V30 2942 H 272.176 0.333527 -7.78786 0
M  V30 2943 N 276.405 1.4127 -0.698611 0
M  V30 2944 C 277.337 2.292 0.00399731 0
M  V30 2945 C 278.35 1.44944 0.741279 0
M  V30 2946 O 279.539 1.68416 0.591477 0
M  V30 2947 C 276.639 3.22875 1.02979 0
M  V30 2948 C 275.812 4.35904 0.36151 0
M  V30 2949 C 274.871 5.10134 1.29033 0
M  V30 2950 O 273.897 5.63809 0.781562 0
M  V30 2951 N 275.099 5.17885 2.6225 0
M  V30 2952 H 277.864 2.9014 -0.750921 0
M  V30 2953 H 275.425 1.52455 -0.544882 0
M  V30 2954 H 277.417 3.69404 1.65296 0
M  V30 2955 H 275.987 2.63221 1.68622 0
M  V30 2956 H 275.207 3.91719 -0.441584 0
M  V30 2957 H 276.495 5.08696 -0.103055 0
M  V30 2958 H 275.893 4.7573 3.061 0
M  V30 2959 H 274.45 5.6798 3.19754 0
M  V30 2960 N 277.883 0.443576 1.51229 0
M  V30 2961 C 279.132 -0.122332 2.01329 0
M  V30 2962 C 279.445 -1.43237 1.33201 0
M  V30 2963 O 280.651 -2.0816 1.74304 0
M  V30 2964 C 279.107 -0.268551 3.58897 0
M  V30 2965 C 278.715 1.03142 4.35965 0
M  V30 2966 C 280.459 -0.787894 4.17124 0
M  V30 2967 C 278.366 0.850504 5.85252 0
M  V30 2968 H 277.296 -0.0494929 0.752374 0
M  V30 2969 H 279.947 0.574289 1.74282 0
M  V30 2970 H 278.329 -1.02832 3.82415 0
M  V30 2971 H 279.503 1.80001 4.24189 0
M  V30 2972 H 277.818 1.47977 3.89219 0
M  V30 2973 H 280.415 -0.939841 5.26375 0
M  V30 2974 H 280.758 -1.77201 3.76703 0
M  V30 2975 H 281.291 -0.0862669 3.97706 0
M  V30 2976 H 278.03 1.80718 6.30096 0
M  V30 2977 H 277.55 0.121825 5.99676 0
M  V30 2978 H 279.229 0.506163 6.45017 0
M  V30 2979 N 279.361 -1.56624 0.175154 0
M  V30 2980 C 280.324 -2.16934 -0.739738 0
M  V30 2981 C 281.324 -1.11842 -1.15533 0
M  V30 2982 O 282.514 -1.37335 -1.07167 0
M  V30 2983 C 279.646 -2.75531 -2.00738 0
M  V30 2984 H 280.839 -2.99131 -0.214639 0
M  V30 2985 H 278.392 -1.56123 -0.0744197 0
M  V30 2986 H 279.127 -1.97078 -2.57548 0
M  V30 2987 H 278.912 -3.52444 -1.71831 0
M  V30 2988 H 280.402 -3.21904 -2.66021 0
M  V30 2989 N 280.839 0.0985539 -1.57292 0
M  V30 2990 C 282.085 0.803867 -1.86188 0
M  V30 2991 C 282.418 1.78549 -0.763794 0
M  V30 2992 O 281.693 1.93153 0.22855 0
M  V30 2993 C 281.976 1.53568 -3.25713 0
M  V30 2994 C 281.829 0.572277 -4.46145 0
M  V30 2995 C 283.148 2.48708 -3.63087 0
M  V30 2996 H 280.267 0.290781 -0.677211 0
M  V30 2997 H 282.909 0.0675783 -1.8988 0
M  V30 2998 H 281.059 2.16332 -3.22696 0
M  V30 2999 H 282.731 -0.0480894 -4.61275 0
M  V30 3000 H 280.974 -0.114618 -4.33649 0
M  V30 3001 H 281.645 1.12139 -5.40489 0
M  V30 3002 H 284.121 1.96039 -3.67026 0
M  V30 3003 H 282.997 2.96932 -4.61652 0
M  V30 3004 H 283.258 3.32309 -2.91588 0
M  V30 3005 N 282.317 1.53212 0.369288 0
M  V30 3006 C 283.28 1.7872 1.43498 0
M  V30 3007 C 284.28 0.657554 1.46741 0
M  V30 3008 O 285.47 0.925736 1.47566 0
M  V30 3009 C 282.602 1.90591 2.82645 0
M  V30 3010 H 283.795 2.73894 1.22156 0
M  V30 3011 H 281.348 1.44233 0.602203 0
M  V30 3012 H 282.083 0.974709 3.09306 0
M  V30 3013 H 281.868 2.72751 2.8169 0
M  V30 3014 H 283.358 2.11931 3.59826 0
M  V30 3015 N 283.795 -0.628877 1.44509 0
M  V30 3016 C 285.044 -1.38437 1.4669 0
M  V30 3017 C 285.357 -1.95322 0.104272 0
M  V30 3018 O 286.563 -2.715 0.00362163 0
M  V30 3019 C 285.019 -2.50659 2.5826 0
M  V30 3020 C 284.627 -2.00277 4.0074 0
M  V30 3021 C 286.371 -3.27844 2.69664 0
M  V30 3022 C 284.278 -3.09854 5.0373 0
M  V30 3023 H 283.208 -0.520245 0.545766 0
M  V30 3024 H 285.859 -0.676313 1.70582 0
M  V30 3025 H 284.241 -3.2405 2.27612 0
M  V30 3026 H 285.415 -1.33736 4.40966 0
M  V30 3027 H 283.73 -1.35901 3.93599 0
M  V30 3028 H 286.327 -4.09534 3.43781 0
M  V30 3029 H 286.67 -3.77471 1.75559 0
M  V30 3030 H 287.203 -2.61543 2.99733 0
M  V30 3031 H 283.942 -2.65168 5.99472 0
M  V30 3032 H 283.462 -3.7503 4.68095 0
M  V30 3033 H 285.141 -3.74592 5.27532 0
M  V30 3034 N 285.273 -1.31445 -0.869486 0
M  V30 3035 C 286.501 -1.24122 -1.65534 0
M  V30 3036 C 286.916 0.193387 -1.87807 0
M  V30 3037 O 286.273 1.12557 -1.43656 0
M  V30 3038 C 286.324 -1.98229 -3.02304 0
M  V30 3039 O 286.045 -3.3609 -2.81026 0
M  V30 3040 C 287.546 -1.97751 -3.96749 0
M  V30 3041 H 284.766 -0.428868 -0.516055 0
M  V30 3042 H 287.31 -1.73328 -1.08525 0
M  V30 3043 H 285.465 -1.52782 -3.56001 0
M  V30 3044 H 285.879 -3.7383 -3.67902 0
M  V30 3045 H 287.353 -2.54114 -4.90031 0
M  V30 3046 H 287.83 -0.960137 -4.28577 0
M  V30 3047 H 288.436 -2.43079 -3.48988 0
M  V30 3048 N 286.751 1.08385 -1.14413 0
M  V30 3049 C 287.661 2.18856 -0.844951 0
M  V30 3050 C 288.677 1.73121 0.174668 0
M  V30 3051 O 289.853 2.014 0.00312857 0
M  V30 3052 C 286.918 3.45155 -0.32696 0
M  V30 3053 C 285.979 4.05513 -1.40916 0
M  V30 3054 C 285.212 5.25784 -0.915793 0
M  V30 3055 O 285.435 5.69884 0.242651 0
M  V30 3056 O 284.369 5.77545 -1.69487 0
M  V30 3057 H 288.195 2.46919 -1.76818 0
M  V30 3058 H 285.78 1.17524 -0.922411 0
M  V30 3059 H 287.662 4.21377 -0.0440211 0
M  V30 3060 H 286.337 3.18668 0.568539 0
M  V30 3061 H 285.244 3.30879 -1.74556 0
M  V30 3062 H 286.577 4.3625 -2.27919 0
M  V30 3063 N 288.23 0.939286 1.26551 0
M  V30 3064 C 289.193 0.451987 2.24699 0
M  V30 3065 C 290.193 -0.435869 1.5478 0
M  V30 3066 O 291.383 -0.235314 1.72603 0
M  V30 3067 C 288.515 -0.348801 3.39111 0
M  V30 3068 H 289.708 1.3193 2.69322 0
M  V30 3069 H 287.261 0.721072 1.38673 0
M  V30 3070 H 287.996 -1.23444 2.99887 0
M  V30 3071 H 287.781 0.287945 3.91041 0
M  V30 3072 H 289.271 -0.679726 4.12031 0
M  V30 3073 N 289.708 -1.40897 0.706093 0
M  V30 3074 C 290.638 -2.33418 0.0620085 0
M  V30 3075 C 291.619 -1.52385 -0.755827 0
M  V30 3076 O 292.804 -1.80886 -0.706674 0
M  V30 3077 C 289.934 -3.36293 -0.867445 0
M  V30 3078 C 288.888 -4.27716 -0.155932 0
M  V30 3079 C 288.214 -5.2105 -1.20046 0
M  V30 3080 C 289.514 -5.12944 0.984149 0
M  V30 3081 H 291.208 -2.87527 0.83477 0
M  V30 3082 H 288.754 -1.38249 0.402875 0
M  V30 3083 H 290.707 -3.99949 -1.32735 0
M  V30 3084 H 289.431 -2.80556 -1.67199 0
M  V30 3085 H 288.09 -3.65498 0.284047 0
M  V30 3086 H 287.738 -4.61624 -1.99781 0
M  V30 3087 H 287.438 -5.83056 -0.729328 0
M  V30 3088 H 288.962 -5.87584 -1.66066 0
M  V30 3089 H 290.376 -5.70109 0.604048 0
M  V30 3090 H 288.773 -5.83945 1.38304 0
M  V30 3091 H 289.843 -4.49485 1.81911 0
M  V30 3092 N 291.186 -0.45159 -1.50991 0
M  V30 3093 C 292.602 -0.104647 -1.59257 0
M  V30 3094 C 292.802 1.38728 -1.4614 0
M  V30 3095 O 291.858 2.15866 -1.30989 0
M  V30 3096 C 293.171 -0.637468 -2.93865 0
M  V30 3097 C 294.719 -0.599166 -3.07212 0
M  V30 3098 C 295.194 -1.1092 -4.44366 0
M  V30 3099 N 296.685 -1.06778 -4.50725 0
M  V30 3100 C 297.42 -1.43314 -5.55201 0
M  V30 3101 N 296.916 -1.87204 -6.67028 0
M  V30 3102 N 298.709 -1.3504 -5.45638 0
M  V30 3103 H 290.86 -1.42214 -1.57762 0
M  V30 3104 H 293.123 -0.586921 -0.744465 0
M  V30 3105 H 292.829 -1.68187 -3.08879 0
M  V30 3106 H 292.703 -0.0702139 -3.77135 0
M  V30 3107 H 295.09 0.436277 -2.91857 0
M  V30 3108 H 295.171 -1.20299 -2.25747 0
M  V30 3109 H 294.815 -2.14318 -4.60467 0
M  V30 3110 H 294.745 -0.481773 -5.24392 0
M  V30 3111 H 297.236 -0.745643 -3.70471 0
M  V30 3112 H 297.549 -2.13282 -7.42786 0
M  V30 3113 H 295.894 -1.91142 -6.68199 0
M  V30 3114 H 299.085 -1.00607 -4.57161 0
M  V30 3115 H 299.258 -1.63841 -6.26945 0
M  V30 3116 N 292.664 1.56529 -0.183458 0
M  V30 3117 C 294.075 1.83739 0.331177 0
M  V30 3118 C 294.426 1.10373 1.62211 0
M  V30 3119 O 293.551 0.36071 2.13373 0
M  V30 3120 C 294.146 3.33306 0.607646 0
M  V30 3121 C 292.705 3.60969 1.06668 0
M  V30 3122 C 291.852 2.77086 0.109029 0
M  V30 3123 H 294.803 1.53379 -0.407484 0
M  V30 3124 H 294.824 3.51444 1.45832 0
M  V30 3125 H 294.336 3.86677 -0.332086 0
M  V30 3126 H 292.437 3.13021 2.0211 0
M  V30 3127 H 292.55 4.69231 0.967447 0
M  V30 3128 H 290.914 2.47319 0.608714 0
M  V30 3129 H 291.697 3.33241 -0.82494 0
M  V30 3130 N 294.142 -0.090211 1.57342 0
M  V30 3131 C 295.105 -1.09335 2.01441 0
M  V30 3132 C 296.105 -1.32666 0.908641 0
M  V30 3133 O 297.295 -1.28697 1.174 0
M  V30 3134 C 294.427 -2.44136 2.3793 0
M  V30 3135 H 295.62 -0.713662 2.91285 0
M  V30 3136 H 293.173 -0.335404 1.52659 0
M  V30 3137 H 293.908 -2.86972 1.51055 0
M  V30 3138 H 293.693 -2.28548 3.18603 0
M  V30 3139 H 295.183 -3.16277 2.72688 0
M  V30 3140 N 295.62 -1.53406 -0.361157 0
M  V30 3141 C 296.868 -1.69467 -1.10115 0
M  V30 3142 C 297.189 -0.451352 -1.89705 0
M  V30 3143 O 296.459 0.534636 -1.88463 0
M  V30 3144 H 295.039 -0.624749 -0.409508 0
M  V30 3145 H 297.701 -1.90609 -0.406699 0
M  V30 3146 H 296.797 -2.55774 -1.78847 0
M  V30 3147 N 297.098 0.621204 -1.44841 0
M  V30 3148 C 298.344 1.3826 -1.48365 0
M  V30 3149 C 298.677 1.93831 -0.119624 0
M  V30 3150 O 297.952 1.74251 0.864111 0
M  V30 3151 C 298.235 2.54058 -2.55199 0
M  V30 3152 C 298.088 2.03772 -4.00995 0
M  V30 3153 C 299.407 3.56225 -2.58442 0
M  V30 3154 H 296.526 0.501374 -0.540179 0
M  V30 3155 H 299.168 0.7015 -1.76576 0
M  V30 3156 H 297.318 3.12162 -2.31274 0
M  V30 3157 H 298.99 1.50423 -4.36086 0
M  V30 3158 H 297.233 1.34876 -4.12299 0
M  V30 3159 H 297.904 2.87185 -4.71411 0
M  V30 3160 H 300.38 3.07939 -2.79844 0
M  V30 3161 H 299.256 4.34756 -3.3508 0
M  V30 3162 H 299.517 4.10949 -1.63013 0
M  V30 3163 N 298.576 1.31904 0.862503 0
M  V30 3164 C 299.824 1.21776 1.61292 0
M  V30 3165 C 300.145 -0.222413 1.93727 0
M  V30 3166 O 299.415 -1.1451 1.58947 0
M  V30 3167 H 297.995 0.447717 0.597962 0
M  V30 3168 H 300.657 1.65326 1.03215 0
M  V30 3169 H 299.753 1.7948 2.5533 0
M  V30 3170 N 300.054 -1.07777 1.14986 0
M  V30 3171 C 301.3 -1.80557 0.923422 0
M  V30 3172 C 301.633 -1.86298 -0.548337 0
M  V30 3173 O 300.908 -1.34354 -1.40639 0
M  V30 3174 C 301.191 -3.25839 1.53299 0
M  V30 3175 C 301.044 -3.28269 3.07505 0
M  V30 3176 C 302.363 -4.22991 1.21518 0
M  V30 3177 H 299.482 -0.655493 0.336894 0
M  V30 3178 H 302.124 -1.26144 1.42083 0
M  V30 3179 H 300.274 -3.72306 1.10999 0
M  V30 3180 H 301.946 -2.90079 3.58681 0
M  V30 3181 H 300.189 -2.67355 3.4162 0
M  V30 3182 H 300.86 -4.30691 3.45266 0
M  V30 3183 H 303.336 -3.84894 1.581 0
M  V30 3184 H 302.212 -5.22945 1.66793 0
M  V30 3185 H 302.473 -4.41904 0.131505 0
M  V30 3186 N 301.532 -0.945985 -1.26051 0
M  V30 3187 C 302.778 -0.597002 -1.93814 0
M  V30 3188 C 303.111 0.862484 -1.73997 0
M  V30 3189 O 302.386 1.61769 -1.07986 0
M  V30 3190 C 302.669 -0.945937 -3.47454 0
M  V30 3191 C 302.522 -2.46052 -3.76535 0
M  V30 3192 C 303.841 -0.464785 -4.37639 0
M  V30 3193 H 300.96 -0.218366 -0.703907 0
M  V30 3194 H 303.602 -1.18107 -1.48831 0
M  V30 3195 H 301.752 -0.448902 -3.85898 0
M  V30 3196 H 303.424 -3.03065 -3.47778 0
M  V30 3197 H 301.667 -2.90194 -3.22444 0
M  V30 3198 H 302.338 -2.65517 -4.83947 0
M  V30 3199 H 304.814 -0.891016 -4.06448 0
M  V30 3200 H 303.69 -0.737712 -5.4392 0
M  V30 3201 H 303.951 0.635274 -4.37512 0
M  V30 3202 N 303.011 1.40521 -0.713556 0
M  V30 3203 C 304.257 2.01221 -0.252564 0
M  V30 3204 C 304.59 1.56444 1.1506 0
M  V30 3205 O 303.865 0.783597 1.78017 0
M  V30 3206 C 304.148 3.58582 -0.330332 0
M  V30 3207 C 304.001 4.13437 -1.77173 0
M  V30 3208 C 305.32 4.39079 0.299641 0
M  V30 3209 H 302.439 0.731077 -0.0932471 0
M  V30 3210 H 305.081 1.67026 -0.905673 0
M  V30 3211 H 303.231 3.87844 0.225737 0
M  V30 3212 H 304.903 3.9498 -2.38303 0
M  V30 3213 H 303.146 3.67801 -2.3001 0
M  V30 3214 H 303.817 5.22597 -1.77755 0
M  V30 3215 H 306.293 4.15735 -0.174139 0
M  V30 3216 H 305.169 5.4848 0.214771 0
M  V30 3217 H 305.43 4.19915 1.38288 0
M  V30 3218 N 304.489 0.459591 1.5075 0
M  V30 3219 C 305.399 -0.34613 2.32033 0
M  V30 3220 C 306.415 -1.00686 1.41909 0
M  V30 3221 O 307.591 -0.997361 1.7497 0
M  V30 3222 C 304.656 -1.42029 3.16273 0
M  V30 3223 C 303.717 -0.777362 4.22203 0
M  V30 3224 C 302.95 -1.80034 5.02418 0
M  V30 3225 O 303.173 -3.02544 4.83553 0
M  V30 3226 O 302.107 -1.37853 5.85901 0
M  V30 3227 H 305.933 0.318054 3.0203 0
M  V30 3228 H 303.518 0.221663 1.47746 0
M  V30 3229 H 305.4 -2.04275 3.68578 0
M  V30 3230 H 304.075 -2.06815 2.49016 0
M  V30 3231 H 302.982 -0.116256 3.73919 0
M  V30 3232 H 304.315 -0.172634 4.91897 0
M  V30 3233 N 305.967 -1.56429 0.191757 0
M  V30 3234 C 306.93 -2.17707 -0.716688 0
M  V30 3235 C 307.93 -1.13061 -1.14341 0
M  V30 3236 O 309.12 -1.38464 -1.05704 0
M  V30 3237 C 306.252 -2.77644 -1.97804 0
M  V30 3238 H 307.445 -2.99342 -0.1829 0
M  V30 3239 H 304.998 -1.56193 -0.0578566 0
M  V30 3240 H 305.733 -1.99799 -2.55443 0
M  V30 3241 H 305.518 -3.54246 -1.68083 0
M  V30 3242 H 307.008 -3.24708 -2.62592 0
M  V30 3243 N 307.445 0.0818655 -1.57387 0
M  V30 3244 C 308.673 0.796108 -1.9097 0
M  V30 3245 C 309.088 1.71626 -0.786757 0
M  V30 3246 O 308.445 1.80908 0.240513 0
M  V30 3247 C 308.496 1.59829 -3.24248 0
M  V30 3248 O 308.217 0.715131 -4.32224 0
M  V30 3249 C 309.718 2.41442 -3.7178 0
M  V30 3250 H 306.938 0.22691 -0.631469 0
M  V30 3251 H 309.482 0.0551439 -2.04426 0
M  V30 3252 H 307.637 2.29163 -3.12351 0
M  V30 3253 H 308.051 1.27205 -5.08841 0
M  V30 3254 H 309.525 2.932 -4.67694 0
M  V30 3255 H 310.002 3.2051 -3.00283 0
M  V30 3256 H 310.608 1.77283 -3.86589 0
M  V30 3257 N 308.923 1.53595 0.353017 0
M  V30 3258 C 309.873 1.77299 1.43349 0
M  V30 3259 C 310.857 0.627884 1.48143 0
M  V30 3260 O 312.049 0.88697 1.53173 0
M  V30 3261 C 309.178 1.97757 2.80619 0
M  V30 3262 C 308.264 3.18305 2.80254 0
M  V30 3263 N 308.655 4.39967 2.49526 0
M  V30 3264 C 306.953 3.19283 3.11407 0
M  V30 3265 C 307.654 5.21772 2.57156 0
M  V30 3266 N 306.63 4.58269 2.92388 0
M  V30 3267 H 310.432 2.68963 1.18474 0
M  V30 3268 H 307.946 1.52391 0.561306 0
M  V30 3269 H 309.943 2.1287 3.58458 0
M  V30 3270 H 308.603 1.07329 3.06448 0
M  V30 3271 H 309.614 4.67482 2.22893 0
M  V30 3272 H 306.291 2.3879 3.4247 0
M  V30 3273 H 307.681 6.2885 2.36638 0
M  V30 3274 N 310.401 -0.613514 1.45168 0
M  V30 3275 C 311.334 -1.73809 1.47871 0
M  V30 3276 C 312.312 -1.59097 0.33568 0
M  V30 3277 O 313.496 -1.8074 0.535299 0
M  V30 3278 C 310.623 -3.11574 1.32813 0
M  V30 3279 C 309.669 -3.4489 2.50905 0
M  V30 3280 S 310.502 -3.40393 4.13392 0
M  V30 3281 C 311.658 -4.80749 4.00789 0
M  V30 3282 H 311.891 -1.71252 2.43023 0
M  V30 3283 H 309.424 -0.789658 1.32679 0
M  V30 3284 H 311.382 -3.91065 1.24812 0
M  V30 3285 H 310.043 -3.11652 0.391418 0
M  V30 3286 H 309.236 -4.45183 2.36279 0
M  V30 3287 H 308.838 -2.72901 2.55736 0
M  V30 3288 H 311.13 -5.7041 3.65567 0
M  V30 3289 H 312.073 -5.00431 5.00974 0
M  V30 3290 H 312.481 -4.56151 3.32545 0
M  V30 3291 N 311.879 -1.3236 -0.855495 0
M  V30 3292 C 313.119 -1.24187 -1.62348 0
M  V30 3293 C 313.483 0.193597 -1.91021 0
M  V30 3294 O 314.684 0.39904 -2.65822 0
M  V30 3295 C 312.955 -2.07661 -2.90881 0
M  V30 3296 S 314.514 -2.16505 -3.81669 0
M  V30 3297 H 311.332 -0.442076 -0.556857 0
M  V30 3298 H 313.934 -1.67198 -1.01317 0
M  V30 3299 H 312.638 -3.11018 -2.67761 0
M  V30 3300 H 312.169 -1.65425 -3.56929 0
M  V30 3301 H 314.184 -1.31394 -4.78487 0
M  V30 3302 N 313.357 1.07166 -1.15556 0
M  V30 3303 C 314.29 2.13808 -0.797593 0
M  V30 3304 C 315.268 1.6101 0.226812 0
M  V30 3305 O 316.452 1.88161 0.112932 0
M  V30 3306 C 313.579 3.38187 -0.186371 0
M  V30 3307 C 312.625 4.09766 -1.18297 0
M  V30 3308 S 313.458 4.60932 -2.72584 0
M  V30 3309 C 314.614 5.88583 -2.12886 0
M  V30 3310 H 314.847 2.43843 -1.70083 0
M  V30 3311 H 312.38 1.19467 -0.978106 0
M  V30 3312 H 314.338 4.10189 0.159837 0
M  V30 3313 H 312.999 3.06326 0.694489 0
M  V30 3314 H 312.192 4.99065 -0.703562 0
M  V30 3315 H 311.794 3.43736 -1.47381 0
M  V30 3316 H 314.086 6.60866 -1.49208 0
M  V30 3317 H 315.029 6.41241 -3.0036 0
M  V30 3318 H 315.437 5.42194 -1.57116 0
M  V30 3319 N 314.835 0.952656 1.25548 0
M  V30 3320 C 316.081 0.607272 1.93494 0
M  V30 3321 C 316.414 -0.853245 1.74452 0
M  V30 3322 O 315.689 -1.61194 1.08843 0
M  V30 3323 C 315.972 0.96435 3.46947 0
M  V30 3324 C 315.825 2.48045 3.75225 0
M  V30 3325 C 317.144 0.487987 4.37386 0
M  V30 3326 H 314.263 0.222096 0.702739 0
M  V30 3327 H 316.905 1.18895 1.48203 0
M  V30 3328 H 315.055 0.469361 3.85654 0
M  V30 3329 H 316.727 3.04905 3.46166 0
M  V30 3330 H 314.97 2.919 3.209 0
M  V30 3331 H 315.641 2.6808 4.82532 0
M  V30 3332 H 318.117 0.912558 4.0597 0
M  V30 3333 H 316.993 0.766547 5.43521 0
M  V30 3334 H 317.254 -0.612063 4.37843 0
M  V30 3335 N 316.313 -1.40141 0.720998 0
M  V30 3336 C 317.246 -2.2819 0.020916 0
M  V30 3337 C 318.224 -1.43633 -0.762129 0
M  V30 3338 O 319.408 -1.7304 -0.747633 0
M  V30 3339 C 316.535 -3.24281 -0.977715 0
M  V30 3340 C 315.581 -4.25548 -0.284836 0
M  V30 3341 S 316.414 -5.26247 0.991169 0
M  V30 3342 C 317.57 -6.259 -0.0052214 0
M  V30 3343 H 317.803 -2.87218 0.767649 0
M  V30 3344 H 315.336 -1.45656 0.512233 0
M  V30 3345 H 317.294 -3.80167 -1.54865 0
M  V30 3346 H 315.955 -2.643 -1.69719 0
M  V30 3347 H 315.148 -4.93154 -1.03996 0
M  V30 3348 H 314.75 -3.73389 0.213684 0
M  V30 3349 H 317.042 -6.72143 -0.850279 0
M  V30 3350 H 317.985 -7.05224 0.637599 0
M  V30 3351 H 318.393 -5.63277 -0.371366 0
M  V30 3352 N 317.792 -0.46758 -1.50504 0
M  V30 3353 C 319.208 -0.121533 -1.59137 0
M  V30 3354 C 319.408 1.3717 -1.47603 0
M  V30 3355 O 318.464 2.14464 -1.33272 0
M  V30 3356 C 319.777 -0.6686 -2.93173 0
M  V30 3357 C 321.325 -0.631716 -3.06559 0
M  V30 3358 C 321.8 -1.15627 -4.43164 0
M  V30 3359 N 323.291 -1.11553 -4.49567 0
M  V30 3360 C 324.026 -1.49195 -5.5365 0
M  V30 3361 N 323.522 -1.94269 -6.65005 0
M  V30 3362 N 325.315 -1.4082 -5.44175 0
M  V30 3363 H 317.466 -1.4388 -1.56245 0
M  V30 3364 H 319.729 -0.594784 -0.738198 0
M  V30 3365 H 319.435 -1.71453 -3.07078 0
M  V30 3366 H 319.309 -0.11021 -3.77039 0
M  V30 3367 H 321.696 0.405297 -2.92304 0
M  V30 3368 H 321.777 -1.22687 -2.24458 0
M  V30 3369 H 321.421 -2.1919 -4.58168 0
M  V30 3370 H 321.351 -0.537365 -5.23851 0
M  V30 3371 H 323.842 -0.784895 -3.69659 0
M  V30 3372 H 324.155 -2.21148 -7.40482 0
M  V30 3373 H 322.5 -1.98219 -6.66134 0
M  V30 3374 H 325.691 -1.0545 -4.56068 0
M  V30 3375 H 325.864 -1.70481 -6.25172 0
M  V30 3376 N 319.27 1.56325 -0.20005 0
M  V30 3377 C 320.518 1.97329 0.436547 0
M  V30 3378 C 320.839 1.08826 1.61808 0
M  V30 3379 O 320.109 0.160604 1.95241 0
M  V30 3380 H 318.689 0.728714 0.164272 0
M  V30 3381 H 321.351 1.92761 -0.287937 0
M  V30 3382 H 320.447 3.02264 0.777353 0
M  V30 3383 N 320.748 -0.0735177 1.57428 0
M  V30 3384 C 321.994 -0.774145 1.87443 0
M  V30 3385 C 322.327 -1.77311 0.792103 0
M  V30 3386 O 321.602 -1.93492 -0.197793 0
M  V30 3387 C 321.885 -1.48367 3.28115 0
M  V30 3388 C 321.738 -0.501227 4.46999 0
M  V30 3389 C 323.057 -2.429 3.66998 0
M  V30 3390 H 320.176 -0.279971 0.681752 0
M  V30 3391 H 322.818 -0.0373616 1.89963 0
M  V30 3392 H 320.968 -2.11171 3.26097 0
M  V30 3393 H 322.64 0.121468 4.6114 0
M  V30 3394 H 320.883 0.183593 4.33411 0
M  V30 3395 H 321.554 -1.03526 5.42205 0
M  V30 3396 H 324.03 -1.90175 3.70098 0
M  V30 3397 H 322.906 -2.89549 4.66318 0
M  V30 3398 H 323.167 -3.27628 2.96837 0
M  V30 3399 N 322.226 -1.5378 -0.344866 0
M  V30 3400 C 323.158 -1.77988 -1.44406 0
M  V30 3401 C 324.171 -0.661138 -1.48771 0
M  V30 3402 O 325.36 -0.937842 -1.51877 0
M  V30 3403 C 322.46 -1.86345 -2.8307 0
M  V30 3404 C 321.633 -3.16256 -3.0216 0
M  V30 3405 C 320.692 -3.15588 -4.21059 0
M  V30 3406 O 319.718 -3.89314 -4.15239 0
M  V30 3407 N 320.92 -2.37864 -5.29529 0
M  V30 3408 H 323.685 -2.72839 -1.24012 0
M  V30 3409 H 321.246 -1.52814 -0.534737 0
M  V30 3410 H 323.238 -1.83351 -3.60783 0
M  V30 3411 H 321.808 -0.986858 -2.96614 0
M  V30 3412 H 321.028 -3.32385 -2.11929 0
M  V30 3413 H 322.316 -4.0207 -3.11797 0
M  V30 3414 H 321.714 -1.77514 -5.37127 0
M  V30 3415 H 320.271 -2.40668 -6.05741 0
M  V30 3416 N 323.704 0.605807 -1.45491 0
M  V30 3417 C 324.651 1.7164 -1.54299 0
M  V30 3418 C 325.621 1.61486 -0.388761 0
M  V30 3419 O 326.806 1.81039 -0.602445 0
M  V30 3420 C 323.946 3.09953 -1.51734 0
M  V30 3421 C 323.059 3.309 -2.77721 0
M  V30 3422 C 322.194 4.59329 -2.66816 0
M  V30 3423 C 321.233 4.7354 -3.87848 0
M  V30 3424 N 320.37 5.9327 -3.75467 0
M  V30 3425 H 325.21 1.63449 -2.49176 0
M  V30 3426 H 322.747 0.796957 -1.23641 0
M  V30 3427 H 324.705 3.89977 -1.48235 0
M  V30 3428 H 323.335 3.17098 -0.604068 0
M  V30 3429 H 322.387 2.44639 -2.913 0
M  V30 3430 H 323.699 3.37274 -3.67488 0
M  V30 3431 H 322.853 5.4755 -2.61292 0
M  V30 3432 H 321.592 4.55355 -1.74651 0
M  V30 3433 H 320.597 3.83741 -3.93729 0
M  V30 3434 H 321.822 4.79309 -4.81082 0
M  V30 3435 H 319.768 5.90338 -2.86072 0
M  V30 3436 H 319.685 6.00811 -4.5887 0
M  V30 3437 H 320.953 6.83984 -3.73879 0
M  V30 3438 N 325.182 1.32811 0.848464 0
M  V30 3439 C 326.115 1.16601 1.96162 0
M  V30 3440 C 327.093 0.0638855 1.62474 0
M  V30 3441 O 328.277 0.224348 1.8716 0
M  V30 3442 C 325.404 0.786333 3.29446 0
M  V30 3443 C 324.45 1.89459 3.8211 0
M  V30 3444 S 325.283 3.50395 4.04949 0
M  V30 3445 C 326.439 3.14413 5.41198 0
M  V30 3446 H 326.672 2.10832 2.09612 0
M  V30 3447 H 324.205 1.17543 1.00115 0
M  V30 3448 H 326.163 0.574044 4.06466 0
M  V30 3449 H 324.824 -0.137218 3.138 0
M  V30 3450 H 324.017 1.58207 4.78526 0
M  V30 3451 H 323.619 2.06304 3.11953 0
M  V30 3452 H 325.911 2.64642 6.23675 0
M  V30 3453 H 326.854 4.09874 5.77416 0
M  V30 3454 H 327.262 2.51266 5.05495 0
M  V30 3455 N 326.66 -1.06551 1.16123 0
M  V30 3456 C 327.608 -2.16063 0.861371 0
M  V30 3457 C 328.602 -1.6856 -0.168517 0
M  V30 3458 O 329.808 -1.79986 -0.0227579 0
M  V30 3459 H 326.183 -0.705278 0.260934 0
M  V30 3460 H 328.154 -2.38567 1.79244 0
M  V30 3461 C 326.903 -3.45661 0.376018 0
M  V30 3462 H 326.226 -3.82604 1.15992 0
M  V30 3463 H 327.666 -4.23504 0.204951 0
M  V30 3464 C 326.125 -3.24546 -0.903954 0
M  V30 3465 O 326.655 -3.49865 -1.97377 0
M  V30 3466 N 324.861 -2.77992 -0.846679 0
M  V30 3467 H 324.408 -2.57589 0.0241017 0
M  V30 3468 H 324.366 -2.64244 -1.70359 0
M  V30 3469 N 328.138 -0.959301 -1.25041 0
M  V30 3470 C 329.363 -0.633507 -1.97488 0
M  V30 3471 C 329.788 0.788555 -1.70773 0
M  V30 3472 O 329.146 1.53394 -0.966431 0
M  V30 3473 C 329.194 -0.904057 -3.49083 0
M  V30 3474 O 328.298 0.0147939 -4.12397 0
M  V30 3475 H 327.639 -0.240368 -0.618966 0
M  V30 3476 H 330.169 -1.28717 -1.59038 0
M  V30 3477 H 330.179 -0.832203 -3.99423 0
M  V30 3478 H 328.854 -1.94048 -3.67856 0
M  V30 3479 H 327.431 -0.109664 -3.72739 0
M  V30 3480 N 329.616 1.39756 -0.72842 0
M  V30 3481 C 330.563 2.30647 -0.0841519 0
M  V30 3482 C 331.533 1.48869 0.7367 0
M  V30 3483 O 332.718 1.77574 0.698015 0
M  V30 3484 C 329.858 3.35165 0.822091 0
M  V30 3485 C 328.971 4.31999 -0.0106663 0
M  V30 3486 C 328.106 5.23585 0.896241 0
M  V30 3487 C 327.145 6.12072 0.0583381 0
M  V30 3488 N 326.282 6.96035 0.920818 0
M  V30 3489 H 331.122 2.85173 -0.864891 0
M  V30 3490 H 328.659 1.40422 -0.438179 0
M  V30 3491 H 330.617 3.94345 1.36189 0
M  V30 3492 H 329.247 2.8211 1.56888 0
M  V30 3493 H 328.299 3.74492 -0.66781 0
M  V30 3494 H 329.611 4.9443 -0.658825 0
M  V30 3495 H 328.765 5.87759 1.50412 0
M  V30 3496 H 327.504 4.61459 1.57819 0
M  V30 3497 H 326.509 5.46916 -0.562389 0
M  V30 3498 H 327.734 6.76261 -0.6203 0
M  V30 3499 H 325.68 6.36485 1.58818 0
M  V30 3500 H 325.597 7.55284 0.32899 0
M  V30 3501 H 326.865 7.64646 1.51447 0
M  V30 3502 N 331.094 0.475555 1.50254 0
M  V30 3503 C 332.322 -0.0754493 2.06762 0
M  V30 3504 C 332.737 -1.33111 1.33891 0
M  V30 3505 O 332.094 -1.77846 0.40952 0
M  V30 3506 C 332.145 -0.359008 3.59713 0
M  V30 3507 O 331.866 0.846851 4.29837 0
M  V30 3508 C 333.367 -0.956484 4.32858 0
M  V30 3509 H 330.587 0.00907525 0.670939 0
M  V30 3510 H 333.131 0.665618 1.93364 0
M  V30 3511 H 331.286 -1.05001 3.72899 0
M  V30 3512 H 331.7 0.594162 5.21124 0
M  V30 3513 H 333.174 -1.10463 5.40834 0
M  V30 3514 H 333.651 -1.94775 3.93649 0
M  V30 3515 H 334.257 -0.303723 4.24214 0
M  V30 3516 N 332.573 -1.56217 0.208337 0
M  V30 3517 C 333.819 -1.98242 -0.427552 0
M  V30 3518 C 334.152 -1.09554 -1.60348 0
M  V30 3519 O 333.427 -0.15035 -1.93918 0
M  V30 3520 C 333.71 -3.4931 -0.874907 0
M  V30 3521 C 333.563 -4.48773 0.303751 0
M  V30 3522 C 334.882 -4.04424 -1.73577 0
M  V30 3523 H 332.001 -0.720744 -0.153936 0
M  V30 3524 H 334.643 -1.87586 0.30192 0
M  V30 3525 H 332.793 -3.58522 -1.49648 0
M  V30 3526 H 334.465 -4.51586 0.941682 0
M  V30 3527 H 332.708 -4.23194 0.953375 0
M  V30 3528 H 333.379 -5.51976 -0.0519883 0
M  V30 3529 H 335.855 -3.98075 -1.21143 0
M  V30 3530 H 334.731 -5.1047 -2.01771 0
M  V30 3531 H 334.992 -3.50494 -2.69456 0
M  V30 3532 N 334.051 0.0651679 -1.57465 0
M  V30 3533 C 335.279 0.775808 -1.91804 0
M  V30 3534 C 335.694 1.70782 -0.804916 0
M  V30 3535 O 335.051 1.81153 0.221311 0
M  V30 3536 C 335.102 1.56381 -3.25925 0
M  V30 3537 O 334.823 0.669248 -4.32958 0
M  V30 3538 C 336.324 2.37485 -3.7432 0
M  V30 3539 H 333.544 0.2202 -0.63384 0
M  V30 3540 H 336.088 0.0334587 -2.04473 0
M  V30 3541 H 334.243 2.25837 -3.14764 0
M  V30 3542 H 334.657 1.21801 -5.10162 0
M  V30 3543 H 336.131 2.88223 -4.70778 0
M  V30 3544 H 336.608 3.17307 -3.03666 0
M  V30 3545 H 337.214 1.73173 -3.88447 0
M  V30 3546 N 335.529 1.53961 0.336706 0
M  V30 3547 C 336.754 1.75797 1.10046 0
M  V30 3548 C 337.179 0.498985 1.81361 0
M  V30 3549 O 336.537 -0.548769 1.72795 0
M  V30 3550 C 336.585 2.94257 2.08436 0
M  V30 3551 O 335.689 2.64883 3.16087 0
M  V30 3552 H 335.03 0.582936 0.317934 0
M  V30 3553 H 337.56 2.00945 0.38501 0
M  V30 3554 H 337.57 3.21237 2.51537 0
M  V30 3555 H 336.245 3.85564 1.55927 0
M  V30 3556 H 334.822 2.48812 2.77753 0
M  V30 3557 N 337.007 -0.598083 1.45811 0
M  V30 3558 C 338.235 -1.38322 1.53866 0
M  V30 3559 C 338.65 -1.87992 0.174479 0
M  V30 3560 O 338.007 -1.62756 -0.825627 0
M  V30 3561 C 338.058 -2.58125 2.53089 0
M  V30 3562 O 337.779 -2.10516 3.84206 0
M  V30 3563 C 339.28 -3.50869 2.70935 0
M  V30 3564 H 336.5 -0.423093 0.520801 0
M  V30 3565 H 339.044 -0.728527 1.91083 0
M  V30 3566 H 337.199 -3.19615 2.18917 0
M  V30 3567 H 337.613 -2.88425 4.38077 0
M  V30 3568 H 339.087 -4.31451 3.44317 0
M  V30 3569 H 339.564 -4.01822 1.77301 0
M  V30 3570 H 340.17 -2.95225 3.06141 0
M  V30 3571 N 338.485 -1.33259 -0.841409 0
M  V30 3572 C 339.418 -1.1764 -1.95541 0
M  V30 3573 C 340.396 -0.072501 -1.62438 0
M  V30 3574 O 341.58 -0.23427 -1.87039 0
M  V30 3575 C 338.707 -0.803794 -3.29024 0
M  V30 3576 C 337.753 -1.91482 -3.81099 0
M  V30 3577 S 338.586 -3.52538 -4.03085 0
M  V30 3578 C 339.742 -3.17279 -5.39523 0
M  V30 3579 H 339.975 -2.11941 -2.08491 0
M  V30 3580 H 337.508 -1.18072 -0.9949 0
M  V30 3581 H 339.466 -0.595592 -4.06156 0
M  V30 3582 H 338.127 0.120574 -3.13868 0
M  V30 3583 H 337.32 -1.60742 -4.7768 0
M  V30 3584 H 336.922 -2.07956 -3.10854 0
M  V30 3585 H 339.214 -2.67946 -6.22263 0
M  V30 3586 H 340.157 -4.1293 -5.75234 0
M  V30 3587 H 340.565 -2.53943 -5.04156 0
M  V30 3588 N 339.963 1.05934 -1.16686 0
M  V30 3589 C 340.893 2.1546 -0.899949 0
M  V30 3590 C 341.874 1.69391 0.155154 0
M  V30 3591 O 343.059 1.94199 0.00648693 0
M  V30 3592 C 340.189 3.44939 -0.404241 0
M  V30 3593 C 339.143 4.04536 -1.39767 0
M  V30 3594 C 338.469 5.29268 -0.760216 0
M  V30 3595 C 339.769 4.42893 -2.76845 0
M  V30 3596 H 341.463 2.38046 -1.81588 0
M  V30 3597 H 339.009 1.14404 -0.874514 0
M  V30 3598 H 340.962 4.20901 -0.204971 0
M  V30 3599 H 339.686 3.21983 0.547206 0
M  V30 3600 H 338.345 3.30635 -1.58355 0
M  V30 3601 H 337.993 5.02611 0.197831 0
M  V30 3602 H 337.693 5.70101 -1.42332 0
M  V30 3603 H 339.217 6.07924 -0.57105 0
M  V30 3604 H 340.631 5.09921 -2.62019 0
M  V30 3605 H 339.028 4.94721 -3.39663 0
M  V30 3606 H 340.098 3.53584 -3.31823 0
M  V30 3607 N 341.441 0.965919 1.2453 0
M  V30 3608 C 342.689 0.625593 1.92174 0
M  V30 3609 C 343.01 -0.841652 1.75901 0
M  V30 3610 O 342.28 -1.60061 1.12948 0
M  V30 3611 H 340.86 0.228388 0.71123 0
M  V30 3612 H 343.522 1.2266 1.51461 0
M  V30 3613 H 342.618 0.864653 2.99884 0
M  V30 3614 N 342.919 -1.39368 0.735821 0
M  V30 3615 C 344.165 -2.00794 0.284544 0
M  V30 3616 C 344.498 -1.58255 -1.12557 0
M  V30 3617 O 343.773 -0.811819 -1.76748 0
M  V30 3618 C 344.056 -3.58011 0.387337 0
M  V30 3619 C 343.909 -4.10566 1.83728 0
M  V30 3620 C 345.228 -4.395 -0.22975 0
M  V30 3621 H 342.347 -0.729501 0.104866 0
M  V30 3622 H 344.989 -1.65564 0.93213 0
M  V30 3623 H 343.139 -3.88154 -0.164006 0
M  V30 3624 H 344.811 -3.91139 2.44556 0
M  V30 3625 H 343.054 -3.64095 2.35833 0
M  V30 3626 H 343.725 -5.19702 1.86047 0
M  V30 3627 H 346.201 -4.15406 0.240257 0
M  V30 3628 H 345.077 -5.48752 -0.127485 0
M  V30 3629 H 345.338 -4.22062 -1.3159 0
M  V30 3630 N 344.397 -0.483516 -1.5 0
M  V30 3631 C 345.644 0.0671597 -2.02389 0
M  V30 3632 C 345.972 1.38597 -1.36459 0
M  V30 3633 O 345.227 1.89634 -0.483458 0
M  V30 3634 C 345.526 0.286226 -3.56252 0
M  V30 3635 C 345.192 -0.952416 -4.40726 0
M  V30 3636 C 343.854 -1.29199 -4.63531 0
M  V30 3637 C 346.206 -1.77655 -4.89988 0
M  V30 3638 C 343.534 -2.45553 -5.32842 0
M  V30 3639 C 345.886 -2.93147 -5.60578 0
M  V30 3640 C 344.55 -3.27505 -5.81633 0
M  V30 3641 H 343.82 0.0245755 -0.740592 0
M  V30 3642 H 346.467 -0.640124 -1.80485 0
M  V30 3643 H 344.772 1.07587 -3.76739 0
M  V30 3644 H 346.469 0.726473 -3.94365 0
M  V30 3645 H 343.059 -0.677881 -4.23205 0
M  V30 3646 H 347.243 -1.52737 -4.72213 0
M  V30 3647 H 342.499 -2.72431 -5.47349 0
M  V30 3648 H 346.673 -3.57344 -5.97727 0
M  V30 3649 H 344.3 -4.1777 -6.35116 0
M  V30 3650 N 345.875 1.56104 -0.216619 0
M  V30 3651 C 347.291 1.58995 0.13886 0
M  V30 3652 C 347.491 1.23333 1.59346 0
M  V30 3653 O 346.547 0.966234 2.33281 0
M  V30 3654 C 347.86 3.00143 -0.182968 0
M  V30 3655 C 349.408 3.12751 -0.124807 0
M  V30 3656 C 349.883 4.56068 -0.420241 0
M  V30 3657 N 351.374 4.61723 -0.369634 0
M  V30 3658 C 352.109 5.70542 -0.571789 0
M  V30 3659 N 351.605 6.87744 -0.835453 0
M  V30 3660 N 353.398 5.59831 -0.504563 0
M  V30 3661 H 345.549 1.77562 -1.16557 0
M  V30 3662 H 347.812 0.825091 -0.466828 0
M  V30 3663 H 347.518 3.30871 -1.19237 0
M  V30 3664 H 347.392 3.73813 0.504367 0
M  V30 3665 H 349.779 2.81822 0.875223 0
M  V30 3666 H 349.86 2.41421 -0.845544 0
M  V30 3667 H 349.504 4.87713 -1.41769 0
M  V30 3668 H 349.434 5.25617 0.321631 0
M  V30 3669 H 351.925 3.77502 -0.173338 0
M  V30 3670 H 352.238 7.66587 -0.977938 0
M  V30 3671 H 350.583 6.895 -0.872592 0
M  V30 3672 H 353.774 4.67145 -0.298842 0
M  V30 3673 H 353.947 6.44573 -0.665519 0
M  V30 3674 N 347.353 -0.0568162 1.57498 0
M  V30 3675 C 348.263 -1.08346 2.08083 0
M  V30 3676 C 349.279 -1.41439 1.01346 0
M  V30 3677 O 350.455 -1.51316 1.32912 0
M  V30 3678 C 347.52 -2.37352 2.52715 0
M  V30 3679 C 346.581 -2.11093 3.73816 0
M  V30 3680 C 345.814 -3.33949 4.1631 0
M  V30 3681 O 346.037 -4.43622 3.58547 0
M  V30 3682 O 344.971 -3.21279 5.08983 0
M  V30 3683 H 348.797 -0.683667 2.95905 0
M  V30 3684 H 346.382 -0.271965 1.46904 0
M  V30 3685 H 348.264 -3.13246 2.81877 0
M  V30 3686 H 346.939 -2.76681 1.68016 0
M  V30 3687 H 345.846 -1.32856 3.49714 0
M  V30 3688 H 347.179 -1.76637 4.59413 0
M  V30 3689 N 348.832 -1.54138 -0.328536 0
M  V30 3690 C 350.109 -1.62749 -1.08499 0
M  V30 3691 C 350.489 -0.458198 -2.06067 0
M  V30 3692 O 349.837 0.548046 -2.2183 0
M  V30 3693 C 350.047 -2.99519 -1.79135 0
M  V30 3694 C 351.395 -3.55394 -2.32337 0
M  V30 3695 O 352.419 -3.01792 -1.89209 0
M  V30 3696 O 351.278 -4.49186 -3.11279 0
M  V30 3697 H 348.372 -0.65886 -0.499832 0
M  V30 3698 H 350.918 -1.66484 -0.328826 0
M  V30 3699 H 349.69 -3.76061 -1.08139 0
M  V30 3700 H 349.313 -2.99441 -2.61574 0
M  V30 3701 N 350.31 0.590341 -1.46126 0
M  V30 3702 C 351.721 1.17243 -1.45296 0
M  V30 3703 C 352.072 1.95281 -0.189723 0
M  V30 3704 O 351.197 2.04502 0.707674 0
M  V30 3705 C 351.792 2.13284 -2.6324 0
M  V30 3706 C 350.351 2.66832 -2.65476 0
M  V30 3707 C 349.498 1.42557 -2.3785 0
M  V30 3708 H 352.449 0.378692 -1.54116 0
M  V30 3709 H 352.47 2.96619 -2.38323 0
M  V30 3710 H 351.982 1.56459 -3.55165 0
M  V30 3711 H 350.083 3.27548 -1.77603 0
M  V30 3712 H 350.196 3.10088 -3.65215 0
M  V30 3713 H 348.56 1.72107 -1.87753 0
M  V30 3714 H 349.343 0.875741 -3.31942 0
M  V30 3715 N 351.788 1.33704 0.83433 0
M  V30 3716 C 352.735 1.24335 1.94447 0
M  V30 3717 C 353.705 0.120991 1.65659 0
M  V30 3718 O 354.89 0.300035 1.88426 0
M  V30 3719 C 352.03 0.993124 3.30501 0
M  V30 3720 C 351.143 2.20217 3.71657 0
M  V30 3721 C 350.278 1.88572 4.96602 0
M  V30 3722 C 349.317 3.05683 5.30306 0
M  V30 3723 N 348.454 2.73997 6.46429 0
M  V30 3724 H 353.294 2.1928 2.01792 0
M  V30 3725 H 350.831 1.09035 0.987404 0
M  V30 3726 H 352.789 0.828467 4.08892 0
M  V30 3727 H 351.419 0.0803902 3.227 0
M  V30 3728 H 350.471 2.47642 2.88752 0
M  V30 3729 H 351.783 3.07752 3.92543 0
M  V30 3730 H 350.937 1.68776 5.82752 0
M  V30 3731 H 349.676 0.982799 4.77695 0
M  V30 3732 H 348.681 3.26088 4.42659 0
M  V30 3733 H 349.906 3.96737 5.51159 0
M  V30 3734 H 347.852 1.86268 6.28999 0
M  V30 3735 H 347.769 3.55064 6.67432 0
M  V30 3736 H 349.037 2.57679 7.35678 0
M  V30 3737 N 353.266 -1.05314 1.17247 0
M  V30 3738 C 354.494 -1.81971 0.984593 0
M  V30 3739 C 354.909 -1.82929 -0.467166 0
M  V30 3740 O 354.266 -1.25564 -1.32438 0
M  V30 3741 C 354.317 -3.28143 1.51672 0
M  V30 3742 O 354.038 -3.27347 2.91163 0
M  V30 3743 C 355.539 -4.21493 1.37326 0
M  V30 3744 H 352.759 -0.573455 0.348411 0
M  V30 3745 H 355.303 -1.32808 1.55506 0
M  V30 3746 H 353.458 -3.74582 0.988302 0
M  V30 3747 H 353.872 -4.18824 3.15732 0
M  V30 3748 H 355.346 -5.22043 1.79375 0
M  V30 3749 H 355.823 -4.38031 0.320169 0
M  V30 3750 H 356.429 -3.80909 1.89178 0
M  V30 3751 N 354.744 -0.972509 -1.24016 0
M  V30 3752 C 356.16 -0.679827 -1.44397 0
M  V30 3753 C 356.36 0.756716 -1.86751 0
M  V30 3754 O 355.416 1.53007 -2.00861 0
M  V30 3755 C 356.729 -1.66803 -2.50195 0
M  V30 3756 C 358.277 -1.68119 -2.64017 0
M  V30 3757 C 358.752 -2.65748 -3.73017 0
M  V30 3758 N 360.243 -2.64219 -3.8045 0
M  V30 3759 C 360.978 -3.36433 -4.64328 0
M  V30 3760 N 360.474 -4.1818 -5.52356 0
M  V30 3761 N 362.267 -3.25235 -4.58453 0
M  V30 3762 H 354.418 -1.90059 -0.948228 0
M  V30 3763 H 356.681 -0.818527 -0.478245 0
M  V30 3764 H 356.387 -2.69498 -2.25973 0
M  V30 3765 H 356.261 -1.4446 -3.48441 0
M  V30 3766 H 358.648 -0.661319 -2.87594 0
M  V30 3767 H 358.729 -1.94525 -1.66113 0
M  V30 3768 H 358.373 -3.67872 -3.50189 0
M  V30 3769 H 358.303 -2.36619 -4.70446 0
M  V30 3770 H 360.794 -2.04887 -3.17537 0
M  V30 3771 H 361.107 -4.70157 -6.13329 0
M  V30 3772 H 359.452 -4.22273 -5.52006 0
M  V30 3773 H 362.643 -2.60829 -3.88698 0
M  V30 3774 H 362.816 -3.81776 -5.23594 0
M  V30 3775 N 356.222 1.38976 -0.743202 0
M  V30 3776 C 357.132 2.3434 -0.110399 0
M  V30 3777 C 358.148 1.58741 0.712559 0
M  V30 3778 O 359.324 1.9099 0.639125 0
M  V30 3779 C 356.389 3.37812 0.780012 0
M  V30 3780 C 355.45 4.29263 -0.0561319 0
M  V30 3781 C 354.683 5.27793 0.791875 0
M  V30 3782 O 354.906 5.33043 2.03031 0
M  V30 3783 O 353.84 6.01512 0.216183 0
M  V30 3784 H 357.666 2.90129 -0.897714 0
M  V30 3785 H 355.251 1.40643 -0.503966 0
M  V30 3786 H 357.133 4.01194 1.28923 0
M  V30 3787 H 355.808 2.84395 1.546 0
M  V30 3788 H 354.715 3.69076 -0.611056 0
M  V30 3789 H 356.048 4.85907 -0.784531 0
M  V30 3790 N 357.7 0.491464 1.49741 0
M  V30 3791 C 358.61 -0.296835 2.32715 0
M  V30 3792 C 359.626 -0.976536 1.44013 0
M  V30 3793 O 360.802 -0.960023 1.77047 0
M  V30 3794 C 357.867 -1.35288 3.19215 0
M  V30 3795 C 356.928 -0.687632 4.23757 0
M  V30 3796 C 356.161 -1.69336 5.06123 0
M  V30 3797 O 356.384 -2.92219 4.89861 0
M  V30 3798 O 355.318 -1.25394 5.88693 0
M  V30 3799 H 359.144 0.382048 3.01287 0
M  V30 3800 H 356.729 0.252953 1.47243 0
M  V30 3801 H 358.611 -1.96411 3.72828 0
M  V30 3802 H 357.286 -2.01487 2.53347 0
M  V30 3803 H 356.193 -0.0369159 3.74082 0
M  V30 3804 H 357.526 -0.0682566 4.92153 0
M  V30 3805 N 359.178 -1.55987 0.224894 0
M  V30 3806 C 360.425 -1.9839 -0.4059 0
M  V30 3807 C 360.753 -1.11261 -1.59535 0
M  V30 3808 O 360.008 -0.158314 -1.95059 0
M  V30 3809 C 360.307 -3.46394 -0.880106 0
M  V30 3810 C 359.973 -4.5046 0.19918 0
M  V30 3811 C 358.635 -4.7864 0.495661 0
M  V30 3812 C 360.987 -5.12855 0.928939 0
M  V30 3813 C 358.315 -5.66497 1.52636 0
M  V30 3814 C 360.667 -6.01828 1.949 0
M  V30 3815 C 359.331 -6.28351 2.25236 0
M  V30 3816 H 358.601 -0.725961 -0.148529 0
M  V30 3817 H 361.248 -1.88668 0.328113 0
M  V30 3818 H 359.553 -3.53337 -1.69294 0
M  V30 3819 H 361.25 -3.76577 -1.37808 0
M  V30 3820 H 357.84 -4.28579 -0.0420526 0
M  V30 3821 H 362.024 -4.9115 0.713129 0
M  V30 3822 H 357.28 -5.8531 1.76698 0
M  V30 3823 H 361.454 -6.49225 2.51951 0
M  V30 3824 H 359.081 -6.96226 3.05244 0
M  V30 3825 N 360.656 0.0484629 -1.57525 0
M  V30 3826 C 361.586 1.0549 -2.08313 0
M  V30 3827 C 362.567 1.38929 -0.981463 0
M  V30 3828 O 363.752 1.48151 -1.25558 0
M  V30 3829 C 360.882 2.36162 -2.54646 0
M  V30 3830 C 359.836 2.17016 -3.68901 0
M  V30 3831 C 359.162 3.53278 -4.01371 0
M  V30 3832 C 360.462 1.57219 -4.98076 0
M  V30 3833 H 362.156 0.632195 -2.92649 0
M  V30 3834 H 359.702 0.302654 -1.40784 0
M  V30 3835 H 361.655 3.06882 -2.88793 0
M  V30 3836 H 360.379 2.80456 -1.67368 0
M  V30 3837 H 359.038 1.48733 -3.35073 0
M  V30 3838 H 358.686 3.95185 -3.11188 0
M  V30 3839 H 358.386 3.41299 -4.78318 0
M  V30 3840 H 359.91 4.25391 -4.38035 0
M  V30 3841 H 361.324 2.17832 -5.30304 0
M  V30 3842 H 359.721 1.55871 -5.79503 0
M  V30 3843 H 360.791 0.535956 -4.81929 0
M  V30 3844 N 362.134 1.5431 0.320358 0
M  V30 3845 C 363.362 1.76636 1.07738 0
M  V30 3846 C 363.777 0.51649 1.81598 0
M  V30 3847 O 363.134 -0.512942 1.75143 0
M  V30 3848 C 363.185 2.96158 2.07299 0
M  V30 3849 O 362.906 4.16313 1.36438 0
M  V30 3850 C 364.407 3.3072 2.95193 0
M  V30 3851 H 361.627 0.589597 0.320339 0
M  V30 3852 H 364.171 2.01207 0.36551 0
M  V30 3853 H 362.326 2.73851 2.74016 0
M  V30 3854 H 362.74 4.83565 2.03138 0
M  V30 3855 H 364.214 4.17643 3.60941 0
M  V30 3856 H 364.691 2.48026 3.62463 0
M  V30 3857 H 365.297 3.55117 2.34034 0
M  V30 3858 N 363.613 -0.582584 1.46437 0
M  V30 3859 C 364.543 -1.70187 1.59871 0
M  V30 3860 C 365.524 -1.64066 0.449042 0
M  V30 3861 O 366.709 -1.82081 0.6753 0
M  V30 3862 C 363.839 -3.08827 1.58881 0
M  V30 3863 C 362.793 -3.29779 2.72819 0
M  V30 3864 C 362.119 -4.68947 2.5689 0
M  V30 3865 C 363.419 -3.17601 4.1464 0
M  V30 3866 H 365.113 -1.592 2.53566 0
M  V30 3867 H 362.659 -0.764472 1.22032 0
M  V30 3868 H 364.612 -3.86951 1.66873 0
M  V30 3869 H 363.336 -3.20713 0.617306 0
M  V30 3870 H 361.995 -2.54054 2.64296 0
M  V30 3871 H 361.643 -4.77599 1.57823 0
M  V30 3872 H 361.343 -4.83919 3.33312 0
M  V30 3873 H 362.867 -5.4924 2.66773 0
M  V30 3874 H 364.281 -3.8557 4.24274 0
M  V30 3875 H 362.678 -3.44094 4.9165 0
M  V30 3876 H 363.748 -2.14681 4.34788 0
M  V30 3877 N 365.091 -1.34144 -0.827227 0
M  V30 3878 C 366.34 -1.25602 -1.5782 0
M  V30 3879 C 366.653 0.173445 -1.94829 0
M  V30 3880 O 367.859 0.380984 -2.68814 0
M  V30 3881 C 366.315 -2.20151 -2.84713 0
M  V30 3882 C 365.923 -3.68331 -2.55021 0
M  V30 3883 C 367.667 -2.20508 -3.62735 0
M  V30 3884 C 365.574 -4.54762 -3.78082 0
M  V30 3885 H 364.504 -0.466573 -0.592306 0
M  V30 3886 H 367.155 -1.59283 -0.911116 0
M  V30 3887 H 365.537 -1.79417 -3.53023 0
M  V30 3888 H 366.711 -4.17577 -1.94849 0
M  V30 3889 H 365.026 -3.7038 -1.90283 0
M  V30 3890 H 367.623 -2.82306 -4.54101 0
M  V30 3891 H 367.966 -1.20322 -3.98533 0
M  V30 3892 H 368.499 -2.59664 -3.01362 0
M  V30 3893 H 365.238 -5.55867 -3.47407 0
M  V30 3894 H 364.758 -4.10254 -4.37552 0
M  V30 3895 H 366.437 -4.69153 -4.45538 0
M  V30 3896 N 366.569 1.04691 -1.17803 0
M  V30 3897 C 367.985 1.29963 -0.926379 0
M  V30 3898 C 368.185 1.97251 0.411635 0
M  V30 3899 O 367.241 2.24922 1.14744 0
M  V30 3900 C 368.554 2.16447 -2.08737 0
M  V30 3901 C 370.102 2.29814 -2.12496 0
M  V30 3902 C 370.577 3.19661 -3.27995 0
M  V30 3903 N 372.068 3.27247 -3.27816 0
M  V30 3904 C 372.803 3.96906 -4.13827 0
M  V30 3905 N 372.299 4.6895 -5.09959 0
M  V30 3906 N 374.092 3.93122 -4.01761 0
M  V30 3907 H 366.243 0.594182 -2.0392 0
M  V30 3908 H 368.506 0.324649 -0.890678 0
M  V30 3909 H 368.212 1.74304 -3.05469 0
M  V30 3910 H 368.086 3.17103 -2.04268 0
M  V30 3911 H 370.473 2.71196 -1.16347 0
M  V30 3912 H 370.554 1.2877 -2.21025 0
M  V30 3913 H 370.198 2.78991 -4.24413 0
M  V30 3914 H 370.128 4.20722 -3.16703 0
M  V30 3915 H 372.619 2.75921 -2.58217 0
M  V30 3916 H 372.932 5.19679 -5.71974 0
M  V30 3917 H 371.277 4.67875 -5.13924 0
M  V30 3918 H 374.468 3.35967 -3.2595 0
M  V30 3919 H 374.641 4.47139 -4.6901 0
M  V30 3920 N 368.047 0.979072 1.23499 0
M  V30 3921 C 369.272 0.664845 1.96455 0
M  V30 3922 C 369.697 -0.761287 1.72006 0
M  V30 3923 O 369.055 -1.51837 0.990713 0
M  V30 3924 C 369.103 0.959479 3.47601 0
M  V30 3925 O 368.207 0.0508168 4.12369 0
M  V30 3926 H 367.548 0.250185 0.615064 0
M  V30 3927 H 370.078 1.31231 1.5697 0
M  V30 3928 H 370.088 0.895642 3.98048 0
M  V30 3929 H 368.763 1.99876 3.64723 0
M  V30 3930 H 367.34 0.16895 3.72517 0
M  V30 3931 O 369.564 -1.34901 0.887919 0
M  V30 3932 H 370.255 -1.87283 0.494443 0
M  V30 END ATOM
M  V30 BEGIN BOND
M  V30 END BOND
M  V30 END CTAB
M  END
$$$$
