drugbank_target|P30838 Aldehyde dehydrogenase, dimeric NADP-preferring (DB00157)
 OpenBabel12092119383D

  0  0  0     0  0            999 V3000
M  V30 BEGIN CTAB
M  V30 COUNTS 7107 7181 0 0 0
M  V30 BEGIN ATOM
M  V30 1 H -0.908 1.98254 -0.117106 0
M  V30 2 N 0 1.576 0 0
M  V30 3 C 0.933 2.03868 1.02534 0
M  V30 4 C 1.911 0.928543 1.3348 0
M  V30 5 O 3.095 1.19667 1.45644 0
M  V30 6 C 0.222 2.43627 2.35294 0
M  V30 7 C -0.732 3.65373 2.2001 0
M  V30 8 S 0.101 5.13292 1.52614 0
M  V30 9 C 1.257 5.56322 2.86805 0
M  V30 10 H 1.49 2.90518 0.631377 0
M  V30 11 H -0.977 1.52953 0.210867 0
M  V30 12 H 0.981 2.67203 3.11629 0
M  V30 13 H -0.358 1.57376 2.7183 0
M  V30 14 H -1.165 3.90944 3.18086 0
M  V30 15 H -1.563 3.418 1.51819 0
M  V30 16 H 0.729 5.58782 3.83104 0
M  V30 17 H 1.672 6.56266 2.65933 0
M  V30 18 H 2.08 4.83886 2.90714 0
M  V30 19 N 1.4781 -0.272755 1.55222 0
M  V30 20 C 2.7031 -1.02683 1.80197 0
M  V30 21 C 3.1281 -1.79142 0.573551 0
M  V30 22 O 2.4861 -1.74917 -0.476849 0
M  V30 23 C 2.5341 -1.9609 3.02624 0
M  V30 24 O 1.6381 -3.04863 2.77727 0
M  V30 25 H 0.9791 -0.293557 0.595584 0
M  V30 26 H 3.5091 -0.30159 2.02365 0
M  V30 27 H 3.5191 -2.38039 3.31363 0
M  V30 28 H 2.1941 -1.39851 3.91682 0
M  V30 29 H 0.7711 -2.67228 2.60084 0
M  V30 30 N 2.9562 -1.48159 -0.537278 0
M  V30 31 C 3.9032 -1.62138 -1.64256 0
M  V30 32 C 4.8732 -0.463668 -1.59497 0
M  V30 33 O 6.0582 -0.686241 -1.78032 0
M  V30 34 C 3.1982 -1.66028 -3.02537 0
M  V30 35 C 2.3112 -2.92855 -3.17585 0
M  V30 36 C 1.4462 -2.87952 -4.46382 0
M  V30 37 C 0.4852 -4.09516 -4.54932 0
M  V30 38 N -0.3778 -4.02733 -5.75109 0
M  V30 39 H 4.4622 -2.56529 -1.51647 0
M  V30 40 H 1.9992 -1.27224 -0.738414 0
M  V30 41 H 3.9572 -1.66265 -3.82638 0
M  V30 42 H 2.5872 -0.751331 -3.13934 0
M  V30 43 H 1.6392 -3.02395 -2.30784 0
M  V30 44 H 2.9512 -3.82822 -3.19764 0
M  V30 45 H 2.1052 -2.8655 -5.34765 0
M  V30 46 H 0.8442 -1.95702 -4.46712 0
M  V30 47 H -0.1508 -4.11201 -3.64957 0
M  V30 48 H 1.0742 -5.02917 -4.56346 0
M  V30 49 H -0.9798 -3.13299 -5.76351 0
M  V30 50 H -1.0628 -4.86397 -5.78752 0
M  V30 51 H 0.2052 -4.05379 -6.65799 0
M  V30 52 N 4.4343 0.785586 -1.36625 0
M  V30 53 C 5.6833 1.53883 -1.30396 0
M  V30 54 C 5.9963 1.95271 0.113452 0
M  V30 55 O 7.2023 2.69858 0.298142 0
M  V30 56 C 5.6583 2.77808 -2.28802 0
M  V30 57 C 5.2663 2.43574 -3.75999 0
M  V30 58 C 7.0103 3.55783 -2.31558 0
M  V30 59 C 4.9173 3.63919 -4.66173 0
M  V30 60 H 3.8473 0.577678 -0.484566 0
M  V30 61 H 6.4983 0.861705 -1.62009 0
M  V30 62 H 4.8803 3.47339 -1.90188 0
M  V30 63 H 6.0543 1.81916 -4.23371 0
M  V30 64 H 4.3693 1.78803 -3.76056 0
M  V30 65 H 6.9663 4.45205 -2.96137 0
M  V30 66 H 7.3093 3.94644 -1.3252 0
M  V30 67 H 7.8423 2.93235 -2.68809 0
M  V30 68 H 4.5813 3.3015 -5.66287 0
M  V30 69 H 4.1013 4.2473 -4.23515 0
M  V30 70 H 5.7803 4.30901 -4.82632 0
M  V30 71 N 5.9124 1.20967 1.01018 0
M  V30 72 C 7.1374 1.0503 1.78839 0
M  V30 73 C 7.5624 -0.395752 1.8389 0
M  V30 74 O 6.9204 -1.28529 1.27867 0
M  V30 75 C 6.9684 1.64602 3.2084 0
M  V30 76 O 6.0724 0.887988 4.02726 0
M  V30 77 H 5.4134 0.369987 0.551367 0
M  V30 78 H 7.9434 1.60399 1.27018 0
M  V30 79 H 7.9534 1.68607 3.71532 0
M  V30 80 H 6.6284 2.69841 3.16479 0
M  V30 81 H 5.2054 0.922648 3.61305 0
M  V30 82 N 7.3905 -1.2043 1.01659 0
M  V30 83 C 8.3005 -2.2689 0.596484 0
M  V30 84 C 9.3165 -1.70107 -0.36599 0
M  V30 85 O 10.4925 -2.00117 -0.226942 0
M  V30 86 C 7.5575 -3.4665 -0.0586659 0
M  V30 87 C 6.6185 -4.18662 0.949751 0
M  V30 88 C 5.8515 -5.32705 0.32577 0
M  V30 89 O 6.0745 -5.63656 -0.874509 0
M  V30 90 O 5.0085 -5.92803 1.04249 0
M  V30 91 H 8.8345 -2.65041 1.4828 0
M  V30 92 H 6.4195 -1.27048 0.786082 0
M  V30 93 H 8.3015 -4.19256 -0.424564 0
M  V30 94 H 6.9765 -3.10375 -0.91918 0
M  V30 95 H 5.8835 -3.48229 1.36702 0
M  V30 96 H 7.2165 -4.58878 1.78023 0
M  V30 97 N 8.8686 -0.792821 -1.36206 0
M  V30 98 C 9.8316 -0.199459 -2.2833 0
M  V30 99 C 10.8316 0.605189 -1.48977 0
M  V30 100 O 12.0216 0.425685 -1.68919 0
M  V30 101 C 9.1536 0.723523 -3.33134 0
M  V30 102 H 10.3466 -1.01181 -2.82316 0
M  V30 103 H 7.8996 -0.562485 -1.45828 0
M  V30 104 H 8.6346 1.56008 -2.84309 0
M  V30 105 H 8.4196 0.148436 -3.91819 0
M  V30 106 H 9.9096 1.13344 -4.01924 0
M  V30 107 N 10.3467 1.47872 -0.545128 0
M  V30 108 C 11.5927 2.02793 -0.0166104 0
M  V30 109 C 11.9257 1.41987 1.32489 0
M  V30 110 O 11.2007 0.571045 1.85928 0
M  V30 111 C 11.4837 3.59989 0.0893294 0
M  V30 112 C 11.3367 4.3125 -1.27841 0
M  V30 113 C 12.6557 4.32606 0.808724 0
M  V30 114 H 9.7747 0.736962 -0.00751035 0
M  V30 115 H 12.4167 1.76433 -0.705085 0
M  V30 116 H 10.5667 3.82579 0.675681 0
M  V30 117 H 12.2387 4.20035 -1.90704 0
M  V30 118 H 10.4817 3.92076 -1.85632 0
M  V30 119 H 11.1527 5.39736 -1.15713 0
M  V30 120 H 13.6287 4.14936 0.310992 0
M  V30 121 H 12.5047 5.42251 0.851782 0
M  V30 122 H 12.7657 4.00963 1.86229 0
M  V30 123 N 11.8248 0.280983 1.55075 0
M  V30 124 C 12.7718 -0.603937 2.22758 0
M  V30 125 C 13.7418 -1.1452 1.20309 0
M  V30 126 O 14.9268 -1.19343 1.48869 0
M  V30 127 C 12.0668 -1.77947 2.95684 0
M  V30 128 C 11.1798 -1.2715 4.12864 0
M  V30 129 C 10.3148 -2.4093 4.7342 0
M  V30 130 C 9.3538 -1.87165 5.82783 0
M  V30 131 N 8.4908 -2.94441 6.37377 0
M  V30 132 H 13.3308 -0.020124 2.97993 0
M  V30 133 H 10.8678 0.00183425 1.471 0
M  V30 134 H 12.8258 -2.47055 3.36184 0
M  V30 135 H 11.4558 -2.33522 2.22861 0
M  V30 136 H 10.5078 -0.473331 3.77444 0
M  V30 137 H 11.8198 -0.837751 4.91715 0
M  V30 138 H 10.9738 -3.18021 5.1667 0
M  V30 139 H 9.7128 -2.87623 3.93859 0
M  V30 140 H 8.7178 -1.08556 5.38976 0
M  V30 141 H 9.9428 -1.41401 6.64216 0
M  V30 142 H 7.8888 -3.40505 5.60707 0
M  V30 143 H 7.8058 -2.55501 7.11516 0
M  V30 144 H 9.0738 -3.71489 6.85285 0
M  V30 145 N 13.3029 -1.57598 0.00835791 0
M  V30 146 C 14.7189 -1.55764 -0.347822 0
M  V30 147 C 14.9189 -1.01186 -1.74252 0
M  V30 148 O 13.9749 -0.649371 -2.44007 0
M  V30 149 C 15.2879 -2.99927 -0.215407 0
M  V30 150 C 16.8359 -3.11656 -0.289725 0
M  V30 151 C 17.3109 -4.57621 -0.18634 0
M  V30 152 N 18.8019 -4.62557 -0.243978 0
M  V30 153 C 19.5369 -5.73094 -0.18745 0
M  V30 154 N 19.0329 -6.92753 -0.0810331 0
M  V30 155 N 20.8259 -5.61588 -0.239925 0
M  V30 156 H 12.9769 -1.91411 0.92062 0
M  V30 157 H 15.2399 -0.879562 0.353659 0
M  V30 158 H 14.9459 -3.43729 0.744512 0
M  V30 159 H 14.8199 -3.63865 -0.994097 0
M  V30 160 H 17.2069 -2.67779 -1.24009 0
M  V30 161 H 17.2879 -2.5048 0.51898 0
M  V30 162 H 16.9319 -5.02174 0.760519 0
M  V30 163 H 16.8619 -5.16752 -1.01364 0
M  V30 164 H 19.3529 -3.76481 -0.327217 0
M  V30 165 H 19.6659 -7.72787 -0.0440241 0
M  V30 166 H 18.0109 -6.94984 -0.0465419 0
M  V30 167 H 21.2019 -4.66996 -0.321317 0
M  V30 168 H 21.3749 -6.47714 -0.192407 0
M  V30 169 N 14.781 0.264519 -1.55364 0
M  V30 170 C 15.744 1.31046 -1.88042 0
M  V30 171 C 16.744 1.41943 -0.755569 0
M  V30 172 O 17.934 1.40947 -1.02369 0
M  V30 173 C 15.066 2.69067 -2.09323 0
M  V30 174 H 16.259 1.03297 -2.81549 0
M  V30 175 H 13.812 0.502989 -1.47986 0
M  V30 176 H 14.547 3.01982 -1.18226 0
M  V30 177 H 14.332 2.62542 -2.91229 0
M  V30 178 H 15.822 3.44623 -2.35848 0
M  V30 179 N 16.2591 1.48442 0.529413 0
M  V30 180 C 17.6751 1.34575 0.858004 0
M  V30 181 C 17.8751 0.3572 1.98309 0
M  V30 182 O 16.9311 -0.221379 2.51528 0
M  V30 183 C 18.2441 2.74617 1.22499 0
M  V30 184 C 19.7921 2.83109 1.33484 0
M  V30 185 C 20.2671 4.23854 1.73526 0
M  V30 186 N 21.7581 4.2653 1.80628 0
M  V30 187 C 22.4931 5.32372 2.12997 0
M  V30 188 N 21.9891 6.48491 2.43786 0
M  V30 189 N 23.7821 5.19766 2.14008 0
M  V30 190 H 15.9331 2.1133 -0.212925 0
M  V30 191 H 18.1961 0.947439 -0.0326199 0
M  V30 192 H 17.9021 3.4852 0.471905 0
M  V30 193 H 17.7761 3.08177 2.17501 0
M  V30 194 H 20.1631 2.09462 2.0787 0
M  V30 195 H 20.2441 2.53168 0.366027 0
M  V30 196 H 19.8881 4.98018 0.997013 0
M  V30 197 H 19.8181 4.5124 2.71459 0
M  V30 198 H 22.3091 3.42772 1.59108 0
M  V30 199 H 22.6221 7.24993 2.67592 0
M  V30 200 H 20.9671 6.51765 2.41304 0
M  V30 201 H 24.1581 4.28066 1.89412 0
M  V30 202 H 24.3311 6.02354 2.38902 0
M  V30 203 N 17.7372 -0.778329 1.37039 0
M  V30 204 C 18.7002 -1.87301 1.32102 0
M  V30 205 C 19.7002 -1.59198 0.226405 0
M  V30 206 O 20.8902 -1.67403 0.481861 0
M  V30 207 C 18.0222 -3.24309 1.05055 0
M  V30 208 H 19.2152 -1.93093 2.29467 0
M  V30 209 H 16.7682 -0.977358 1.21973 0
M  V30 210 H 17.5032 -3.24196 0.0819373 0
M  V30 211 H 17.2882 -3.46098 1.84279 0
M  V30 212 H 18.7782 -4.04382 1.04234 0
M  V30 213 N 19.2153 -1.21501 -1.00376 0
M  V30 214 C 20.1783 -0.976927 -2.07337 0
M  V30 215 C 21.1783 0.0525322 -1.60714 0
M  V30 216 O 22.3683 -0.184869 -1.73216 0
M  V30 217 C 19.5003 -0.473423 -3.37597 0
M  V30 218 H 20.6933 -1.92587 -2.29892 0
M  V30 219 H 18.2463 -1.03217 -1.17371 0
M  V30 220 H 18.9813 0.480379 -3.20722 0
M  V30 221 H 18.7663 -1.216 -3.72768 0
M  V30 222 H 20.2563 -0.32675 -4.1632 0
M  V30 223 N 20.6934 1.19889 -1.02296 0
M  V30 224 C 21.9404 1.8942 -0.715972 0
M  V30 225 C 22.2684 1.79251 0.754944 0
M  V30 226 O 21.5234 1.17526 1.56481 0
M  V30 227 C 21.8224 3.39883 -1.10518 0
M  V30 228 C 21.4884 3.70254 -2.57337 0
M  V30 229 C 20.1504 3.78254 -2.97452 0
M  V30 230 C 22.5024 3.84052 -3.52354 0
M  V30 231 C 19.8304 3.97514 -4.31509 0
M  V30 232 C 22.1824 4.04824 -4.86108 0
M  V30 233 C 20.8464 4.11054 -5.25919 0
M  V30 234 H 20.1164 0.693138 -0.261993 0
M  V30 235 H 22.7634 1.42012 -1.28472 0
M  V30 236 H 21.0684 3.8915 -0.454953 0
M  V30 237 H 22.7654 3.9199 -0.845261 0
M  V30 238 H 19.3554 3.64632 -2.25258 0
M  V30 239 H 23.5394 3.77221 -3.22518 0
M  V30 240 H 18.7954 4.00574 -4.61898 0
M  V30 241 H 22.9694 4.14442 -5.59653 0
M  V30 242 H 20.5964 4.2573 -6.29808 0
M  V30 243 N 22.1715 0.800033 1.35784 0
M  V30 244 C 23.3965 0.388511 2.03729 0
M  V30 245 C 23.8215 -0.990481 1.5991 0
M  V30 246 O 23.1795 -1.64013 0.772612 0
M  V30 247 C 23.2275 0.4726 3.5749 0
M  V30 248 O 22.3315 -0.51646 4.09153 0
M  V30 249 H 21.6725 0.163271 0.643614 0
M  V30 250 H 24.2025 1.0841 1.73518 0
M  V30 251 H 24.2125 0.34003 4.06581 0
M  V30 252 H 22.8875 1.47848 3.88734 0
M  V30 253 H 21.4645 -0.344673 3.71304 0
M  V30 254 N 23.6496 -1.47581 0.552962 0
M  V30 255 C 24.8746 -2.07378 0.0300593 0
M  V30 256 C 25.2996 -1.40355 -1.25229 0
M  V30 257 O 24.6576 -0.477099 -1.7491 0
M  V30 258 C 24.7056 -3.60274 -0.153231 0
M  V30 259 O 23.8096 -3.94041 -1.21678 0
M  V30 260 H 23.1506 -0.662158 0.0494182 0
M  V30 261 H 25.6806 -1.89662 0.767434 0
M  V30 262 H 25.6906 -4.0633 -0.368761 0
M  V30 263 H 24.3656 -4.08455 0.783397 0
M  V30 264 H 22.9426 -3.59735 -0.982079 0
M  V30 265 N 25.1277 -0.289203 -1.54924 0
M  V30 266 C 26.3757 0.322879 -1.99504 0
M  V30 267 C 26.6967 1.55313 -1.1791 0
M  V30 268 O 25.9667 1.94001 -0.272097 0
M  V30 269 H 24.5467 0.122291 -0.736922 0
M  V30 270 H 27.2087 -0.397802 -1.90797 0
M  V30 271 H 26.3047 0.603061 -3.06218 0
M  V30 272 N 26.6058 1.57591 -0.0167156 0
M  V30 273 C 28.0218 1.55946 0.339557 0
M  V30 274 C 28.2218 1.02109 1.73713 0
M  V30 275 O 27.2778 0.662303 2.43659 0
M  V30 276 C 28.5908 3.00037 0.199499 0
M  V30 277 C 30.1388 3.11805 0.273193 0
M  V30 278 C 30.6138 4.57713 0.162068 0
M  V30 279 N 32.1048 4.6268 0.219444 0
M  V30 280 C 32.8398 5.73185 0.157054 0
M  V30 281 N 32.3358 6.92786 0.0442936 0
M  V30 282 N 34.1288 5.61707 0.21014 0
M  V30 283 H 26.2798 1.90921 -0.930758 0
M  V30 284 H 28.5428 0.877674 -0.358319 0
M  V30 285 H 28.2488 3.4333 -0.76273 0
M  V30 286 H 28.1228 3.64387 0.974786 0
M  V30 287 H 30.5098 2.68433 1.22587 0
M  V30 288 H 30.5908 2.50201 -0.532256 0
M  V30 289 H 30.2348 5.01763 -0.78714 0
M  V30 290 H 30.1648 5.17283 0.986222 0
M  V30 291 H 32.6558 3.76649 0.307246 0
M  V30 292 H 32.9688 7.728 0.00304069 0
M  V30 293 H 31.3138 6.94999 0.00968457 0
M  V30 294 H 34.5048 4.6716 0.296546 0
M  V30 295 H 34.6778 6.47807 0.158054 0
M  V30 296 N 28.0839 -0.256276 1.55502 0
M  V30 297 C 29.3119 -1.00342 1.8094 0
M  V30 298 C 29.7269 -1.79307 0.59114 0
M  V30 299 O 29.0839 -1.77114 -0.440081 0
M  V30 300 C 29.1349 -1.94875 3.04476 0
M  V30 301 O 28.8559 -1.19107 4.21598 0
M  V30 302 C 30.3569 -2.81266 3.42644 0
M  V30 303 H 27.5769 -0.295685 0.602338 0
M  V30 304 H 30.1209 -0.281998 2.02546 0
M  V30 305 H 28.2759 -2.62457 2.84947 0
M  V30 306 H 28.6899 -1.82969 4.91551 0
M  V30 307 H 30.1639 -3.43362 4.32211 0
M  V30 308 H 30.6409 -3.51897 2.62802 0
M  V30 309 H 31.2469 -2.1915 3.64491 0
M  V30 310 N 29.562 -1.4872 -0.521534 0
M  V30 311 C 30.978 -1.35028 -0.850855 0
M  V30 312 C 31.178 -0.367712 -1.98116 0
M  V30 313 O 30.234 0.208037 -2.51642 0
M  V30 314 C 31.547 -2.75263 -1.21041 0
M  V30 315 C 33.095 -2.83813 -1.31981 0
M  V30 316 C 33.57 -4.24769 -1.71276 0
M  V30 317 N 35.061 -4.27482 -1.78363 0
M  V30 318 C 35.796 -5.33494 -2.1017 0
M  V30 319 N 35.292 -6.49775 -2.40343 0
M  V30 320 N 37.085 -5.20894 -2.11248 0
M  V30 321 H 29.236 -2.11214 0.22413 0
M  V30 322 H 31.499 -0.947252 0.0376439 0
M  V30 323 H 31.205 -3.48765 -0.453415 0
M  V30 324 H 31.079 -3.09327 -2.15863 0
M  V30 325 H 33.466 -2.10561 -2.06756 0
M  V30 326 H 33.547 -2.53358 -0.352596 0
M  V30 327 H 33.191 -4.9854 -0.970588 0
M  V30 328 H 33.121 -4.52673 -2.69062 0
M  V30 329 H 35.612 -3.43611 -1.57288 0
M  V30 330 H 35.925 -7.26402 -2.63743 0
M  V30 331 H 34.27 -6.53035 -2.37844 0
M  V30 332 H 37.461 -4.29065 -1.87139 0
M  V30 333 H 37.634 -6.03612 -2.35704 0
M  V30 334 N 31.0401 0.771051 -1.3745 0
M  V30 335 C 32.4511 1.34737 -1.29239 0
M  V30 336 C 32.8021 1.96109 0.0596908 0
M  V30 337 O 31.9271 1.93865 0.961534 0
M  V30 338 C 32.5221 2.44973 -2.34037 0
M  V30 339 C 31.0811 2.98372 -2.29458 0
M  V30 340 C 30.2281 1.71595 -2.17831 0
M  V30 341 H 33.1791 0.571256 -1.48062 0
M  V30 342 H 33.2001 3.24471 -1.98744 0
M  V30 343 H 32.7121 2.00276 -3.32432 0
M  V30 344 H 30.8131 3.47443 -1.34589 0
M  V30 345 H 30.9261 3.53939 -3.229 0
M  V30 346 H 29.2901 1.94547 -1.64388 0
M  V30 347 H 30.0731 1.29001 -3.18141 0
M  V30 348 N 32.5182 1.22032 0.997298 0
M  V30 349 C 33.4482 1.01065 2.10495 0
M  V30 350 C 34.4292 -0.0669542 1.69968 0
M  V30 351 O 35.6142 0.0943987 1.9397 0
M  V30 352 C 32.7442 0.582874 3.42374 0
M  V30 353 C 31.6982 1.60592 3.96729 0
M  V30 354 C 31.0242 1.03412 5.24605 0
M  V30 355 C 32.3242 2.99478 4.27914 0
M  V30 356 H 34.0182 1.93708 2.28292 0
M  V30 357 H 31.5642 0.932761 1.09707 0
M  V30 358 H 33.5172 0.423332 4.19268 0
M  V30 359 H 32.2412 -0.379213 3.24391 0
M  V30 360 H 30.9002 1.75316 3.21963 0
M  V30 361 H 30.5482 0.063518 5.0296 0
M  V30 362 H 30.2482 1.71754 5.61938 0
M  V30 363 H 31.7722 0.886066 6.04137 0
M  V30 364 H 33.1862 2.88153 4.95622 0
M  V30 365 H 31.5832 3.64903 4.76409 0
M  V30 366 H 32.6532 3.49742 3.3587 0
M  V30 367 N 33.9963 -1.19345 1.0293 0
M  V30 368 C 34.9283 -2.22036 0.56857 0
M  V30 369 C 35.9413 -1.58865 -0.355779 0
M  V30 370 O 37.1303 -1.77851 -0.152103 0
M  V30 371 C 34.2303 -3.38363 -0.190752 0
M  V30 372 C 33.4033 -4.31118 0.738643 0
M  V30 373 C 32.4623 -5.26194 0.0246497 0
M  V30 374 O 31.4883 -5.65461 0.651354 0
M  V30 375 N 32.6903 -5.66971 -1.24594 0
M  V30 376 H 35.4553 -2.6219 1.45177 0
M  V30 377 H 33.0163 -1.34015 0.908381 0
M  V30 378 H 35.0083 -3.98981 -0.677961 0
M  V30 379 H 33.5783 -2.96994 -0.975366 0
M  V30 380 H 32.7983 -3.68276 1.40593 0
M  V30 381 H 34.0863 -4.90001 1.37029 0
M  V30 382 H 33.4843 -5.37104 -1.77583 0
M  V30 383 H 32.0413 -6.2984 -1.67764 0
M  V30 384 N 35.4744 -0.807222 -1.35358 0
M  V30 385 C 36.7214 -0.387888 -1.9875 0
M  V30 386 C 37.0494 1.04509 -1.64037 0
M  V30 387 O 36.3044 1.73986 -0.895946 0
M  V30 388 C 36.6034 -0.519036 -3.53611 0
M  V30 389 C 36.2694 -1.91542 -4.08194 0
M  V30 390 C 34.9314 -2.29745 -4.22813 0
M  V30 391 C 37.2834 -2.82896 -4.37744 0
M  V30 392 C 34.6114 -3.58668 -4.643 0
M  V30 393 C 36.9634 -4.11265 -4.8067 0
M  V30 394 C 35.6274 -4.49466 -4.93494 0
M  V30 395 H 34.8974 -0.141938 -0.727279 0
M  V30 396 H 37.5444 -1.02814 -1.6156 0
M  V30 397 H 35.8494 0.204658 -3.91265 0
M  V30 398 H 37.5464 -0.175345 -4.00616 0
M  V30 399 H 34.1364 -1.60862 -3.97268 0
M  V30 400 H 38.3204 -2.54629 -4.26002 0
M  V30 401 H 33.5764 -3.88113 -4.72418 0
M  V30 402 H 37.7504 -4.82153 -5.02496 0
M  V30 403 H 35.3774 -5.49418 -5.25399 0
M  V30 404 N 36.9525 1.47285 -0.560781 0
M  V30 405 C 38.3685 1.58065 -0.22081 0
M  V30 406 C 38.5685 1.55892 1.27671 0
M  V30 407 O 37.6245 1.46422 2.0571 0
M  V30 408 C 38.9375 2.88418 -0.850625 0
M  V30 409 C 40.4855 3.02009 -0.822184 0
M  V30 410 C 40.9605 4.35066 -1.43113 0
M  V30 411 N 42.4515 4.41711 -1.39448 0
M  V30 412 C 43.1865 5.43237 -1.83525 0
M  V30 413 N 42.6825 6.51555 -2.35474 0
M  V30 414 N 44.4755 5.34304 -1.74574 0
M  V30 415 H 36.6265 1.46941 -1.53369 0
M  V30 416 H 38.8895 0.699558 -0.639783 0
M  V30 417 H 38.5955 2.95755 -1.9032 0
M  V30 418 H 38.4695 3.75612 -0.345773 0
M  V30 419 H 40.8565 2.94266 0.221714 0
M  V30 420 H 40.9375 2.16347 -1.36483 0
M  V30 421 H 40.5815 4.43565 -2.47412 0
M  V30 422 H 40.5115 5.19465 -0.863899 0
M  V30 423 H 43.0025 3.64027 -1.01452 0
M  V30 424 H 43.3155 7.25203 -2.67021 0
M  V30 425 H 41.6605 6.52435 -2.39487 0
M  V30 426 H 44.8515 4.48581 -1.33763 0
M  V30 427 H 45.0245 6.13288 -2.09242 0
M  V30 428 N 38.4306 0.297415 1.54768 0
M  V30 429 C 39.6796 -0.313669 1.99246 0
M  V30 430 C 39.9926 -1.55281 1.18942 0
M  V30 431 O 41.1986 -2.23825 1.5367 0
M  V30 432 C 39.6546 -0.609407 3.54703 0
M  V30 433 C 39.2626 0.611192 4.43811 0
M  V30 434 C 41.0066 -1.18188 4.07715 0
M  V30 435 C 38.9136 0.288805 5.90694 0
M  V30 436 H 37.8436 -0.120979 0.744231 0
M  V30 437 H 40.4946 0.40556 1.78962 0
M  V30 438 H 38.8766 -1.38813 3.70873 0
M  V30 439 H 40.0506 1.3875 4.39414 0
M  V30 440 H 38.3656 1.10205 4.01552 0
M  V30 441 H 40.9626 -1.43727 5.15021 0
M  V30 442 H 41.3056 -2.12299 3.58099 0
M  V30 443 H 41.8386 -0.464944 3.95074 0
M  V30 444 H 38.5776 1.19838 6.44453 0
M  V30 445 H 38.0976 -0.450305 5.98107 0
M  V30 446 H 39.7766 -0.110933 6.46905 0
M  V30 447 N 39.9087 -1.5758 0.0250728 0
M  V30 448 C 40.8407 -2.06869 -0.986796 0
M  V30 449 C 41.8537 -0.991332 -1.29137 0
M  V30 450 O 43.0427 -1.26761 -1.25674 0
M  V30 451 C 40.1427 -2.47486 -2.31525 0
M  V30 452 C 39.3157 -3.78253 -2.19643 0
M  V30 453 C 38.3747 -4.05464 -3.35388 0
M  V30 454 O 37.4007 -4.75774 -3.12454 0
M  V30 455 N 38.6027 -3.55321 -4.59051 0
M  V30 456 H 41.3677 -2.94302 -0.566276 0
M  V30 457 H 38.9287 -1.6109 -0.161776 0
M  V30 458 H 40.9207 -2.62785 -3.07776 0
M  V30 459 H 39.4907 -1.65441 -2.65232 0
M  V30 460 H 38.7107 -3.7279 -1.28144 0
M  V30 461 H 39.9987 -4.63936 -2.08903 0
M  V30 462 H 39.3967 -2.98431 -4.80578 0
M  V30 463 H 37.9537 -3.75905 -5.32483 0
M  V30 464 N 41.3868 0.248026 -1.55636 0
M  V30 465 C 42.3188 1.32993 -1.8667 0
M  V30 466 C 43.3318 1.44345 -0.752877 0
M  V30 467 O 44.5208 1.45715 -1.03098 0
M  V30 468 C 41.6208 2.70863 -2.03682 0
M  V30 469 C 40.7938 2.81792 -3.34532 0
M  V30 470 C 39.8528 4.005 -3.41301 0
M  V30 471 O 38.8788 3.9008 -4.14519 0
M  V30 472 N 40.0808 5.13618 -2.70512 0
M  V30 473 H 42.8458 1.06707 -2.8006 0
M  V30 474 H 40.4068 0.438129 -1.55859 0
M  V30 475 H 42.3988 3.48612 -2.05553 0
M  V30 476 H 40.9688 2.89862 -1.17041 0
M  V30 477 H 40.1888 1.90729 -3.44987 0
M  V30 478 H 41.4768 2.86043 -4.20781 0
M  V30 479 H 40.8748 5.24975 -2.10755 0
M  V30 480 H 39.4318 5.89505 -2.78077 0
M  V30 481 N 42.8649 1.48995 0.513639 0
M  V30 482 C 43.7949 1.67636 1.62544 0
M  V30 483 C 44.7759 0.525087 1.61793 0
M  V30 484 O 45.9609 0.759502 1.78732 0
M  V30 485 C 43.0909 1.73114 3.01079 0
M  V30 486 C 42.0449 2.87905 3.16693 0
M  V30 487 C 41.3709 2.78486 4.56453 0
M  V30 488 C 42.6709 4.29005 2.97913 0
M  V30 489 H 44.3649 2.60716 1.47198 0
M  V30 490 H 41.9109 1.25465 0.706714 0
M  V30 491 H 43.8639 1.84742 3.78746 0
M  V30 492 H 42.5879 0.766241 3.17484 0
M  V30 493 H 41.2469 2.75859 2.41448 0
M  V30 494 H 40.8949 1.7993 4.69717 0
M  V30 495 H 40.5949 3.55523 4.67843 0
M  V30 496 H 42.1189 2.92104 5.36197 0
M  V30 497 H 43.5329 4.41798 3.65359 0
M  V30 498 H 41.9299 5.07166 3.20785 0
M  V30 499 H 42.9999 4.44329 1.94165 0
M  V30 500 N 44.343 -0.763751 1.37857 0
M  V30 501 C 45.253 -1.90817 1.36478 0
M  V30 502 C 46.269 -1.71997 0.263248 0
M  V30 503 O 47.445 -1.95095 0.499979 0
M  V30 504 C 44.51 -3.2605 1.17864 0
M  V30 505 C 43.571 -3.57467 2.3773 0
M  V30 506 C 42.804 -4.86249 2.19995 0
M  V30 507 O 43.027 -5.57884 1.18836 0
M  V30 508 O 41.961 -5.16911 3.08361 0
M  V30 509 H 45.787 -1.94933 2.32884 0
M  V30 510 H 43.372 -0.907619 1.1867 0
M  V30 511 H 45.254 -4.06924 1.09504 0
M  V30 512 H 43.929 -3.22769 0.245372 0
M  V30 513 H 42.836 -2.76796 2.51664 0
M  V30 514 H 44.169 -3.655 3.29652 0
M  V30 515 N 45.8211 -1.22559 -0.990812 0
M  V30 516 C 46.7841 -0.998863 -2.0629 0
M  V30 517 C 47.7841 0.0354834 -1.60761 0
M  V30 518 O 48.9741 -0.203231 -1.7301 0
M  V30 519 C 46.1061 -0.509203 -3.37076 0
M  V30 520 H 47.2991 -1.95014 -2.27837 0
M  V30 521 H 44.8521 -1.04456 -1.16269 0
M  V30 522 H 45.5871 0.446335 -3.21214 0
M  V30 523 H 45.3721 -1.25547 -3.71457 0
M  V30 524 H 46.8621 -0.370888 -4.1595 0
M  V30 525 N 47.2992 1.18797 -1.03562 0
M  V30 526 C 48.2292 2.24472 -0.643019 0
M  V30 527 C 49.2102 1.66433 0.351283 0
M  V30 528 O 50.3952 1.92803 0.232505 0
M  V30 529 C 47.5252 3.473 4.24935e-05 0
M  V30 530 C 46.4792 4.18055 -0.917257 0
M  V30 531 C 45.8052 5.34519 -0.138941 0
M  V30 532 C 47.1052 4.72109 -2.23407 0
M  V30 533 H 48.7992 2.57566 -1.52643 0
M  V30 534 H 46.3452 1.23806 -0.735394 0
M  V30 535 H 48.2982 4.20426 0.286383 0
M  V30 536 H 47.0222 3.13424 0.918299 0
M  V30 537 H 45.6812 3.46821 -1.1879 0
M  V30 538 H 45.3292 4.96891 0.781562 0
M  V30 539 H 45.0292 5.82794 -0.750005 0
M  V30 540 H 46.5532 6.10438 0.1405 0
M  V30 541 H 47.9672 5.36955 -2.00879 0
M  V30 542 H 46.3642 5.30897 -2.79765 0
M  V30 543 H 47.4342 3.89807 -2.88407 0
M  V30 544 N 48.7773 0.814389 1.34928 0
M  V30 545 C 49.7093 0.187834 2.28429 0
M  V30 546 C 50.7223 -0.617374 1.5064 0
M  V30 547 O 51.9113 -0.448454 1.72775 0
M  V30 548 C 49.0113 -0.755962 3.30361 0
M  V30 549 C 48.1843 0.00456686 4.374 0
M  V30 550 C 47.2433 -0.858876 5.19143 0
M  V30 551 O 46.2693 -0.306968 5.68372 0
M  V30 552 N 47.4713 -2.17988 5.38016 0
M  V30 553 H 50.2363 0.991105 2.82838 0
M  V30 554 H 47.7973 0.670561 1.4736 0
M  V30 555 H 49.7893 -1.338 3.81942 0
M  V30 556 H 48.3593 -1.46001 2.7641 0
M  V30 557 H 47.5793 0.767865 3.86649 0
M  V30 558 H 48.8673 0.528422 5.06049 0
M  V30 559 H 48.2653 -2.65212 4.99679 0
M  V30 560 H 46.8223 -2.71098 5.92747 0
M  V30 561 N 50.2554 -1.46986 0.568584 0
M  V30 562 C 51.6714 -1.57946 0.229189 0
M  V30 563 C 51.8714 -1.56567 -1.26843 0
M  V30 564 O 50.9274 -1.47511 -2.04931 0
M  V30 565 C 52.2404 -2.87963 0.865909 0
M  V30 566 C 53.7884 -3.01568 0.838188 0
M  V30 567 C 54.2634 -4.34301 1.45419 0
M  V30 568 N 55.7544 -4.40965 1.41788 0
M  V30 569 C 56.4894 -5.42256 1.86403 0
M  V30 570 N 55.9854 -6.50297 2.38926 0
M  V30 571 N 57.7784 -5.3337 1.77405 0
M  V30 572 H 49.9294 -1.46126 1.54146 0
M  V30 573 H 52.1924 -0.696156 0.643484 0
M  V30 574 H 51.8984 -2.94742 1.91886 0
M  V30 575 H 51.7724 -3.75423 0.365687 0
M  V30 576 H 54.1594 -2.94379 -0.206106 0
M  V30 577 H 54.2404 -2.1562 1.37629 0
M  V30 578 H 53.8844 -4.42247 2.49761 0
M  V30 579 H 53.8144 -5.19 0.891435 0
M  V30 580 H 56.3054 -3.63484 1.03381 0
M  V30 581 H 56.6184 -7.23777 2.70863 0
M  V30 582 H 54.9634 -6.51155 2.42944 0
M  V30 583 H 58.1544 -4.47865 1.3614 0
M  V30 584 H 58.3274 -6.12169 2.12492 0
M  V30 585 N 51.7335 -0.305618 -1.54608 0
M  V30 586 C 52.6635 0.561482 -2.26649 0
M  V30 587 C 53.6445 1.13415 -1.26772 0
M  V30 588 O 54.8295 1.16262 -1.55553 0
M  V30 589 C 51.9595 1.73122 -3.01075 0
M  V30 590 C 50.9135 1.2887 -4.08138 0
M  V30 591 C 50.2395 2.54396 -4.70305 0
M  V30 592 C 51.5395 0.416578 -5.20636 0
M  V30 593 H 53.2335 -0.0393902 -2.99374 0
M  V30 594 H 50.7795 -0.020385 -1.43986 0
M  V30 595 H 52.7325 2.34396 -3.50195 0
M  V30 596 H 51.4565 2.3584 -2.25936 0
M  V30 597 H 50.1155 0.698991 -3.59875 0
M  V30 598 H 49.7635 3.15439 -3.918 0
M  V30 599 H 49.4635 2.25486 -5.42614 0
M  V30 600 H 50.9875 3.16464 -5.2219 0
M  V30 601 H 52.4015 0.935116 -5.65622 0
M  V30 602 H 50.7985 0.221046 -5.99693 0
M  V30 603 H 51.8685 -0.557162 -4.81688 0
M  V30 604 N 53.2116 1.57565 -0.0334293 0
M  V30 605 C 54.4606 1.91155 0.643639 0
M  V30 606 C 54.7736 0.91192 1.73042 0
M  V30 607 O 55.9796 1.13923 2.46442 0
M  V30 608 C 54.4356 3.39443 1.1961 0
M  V30 609 C 54.0436 4.47774 0.142381 0
M  V30 610 C 55.7876 3.82094 1.84944 0
M  V30 611 C 53.6946 5.87162 0.706727 0
M  V30 612 H 52.6246 0.713368 0.244176 0
M  V30 613 H 55.2756 1.8323 -0.0994323 0
M  V30 614 H 53.6576 3.42313 1.99092 0
M  V30 615 H 54.8316 4.56469 -0.630296 0
M  V30 616 H 53.1466 4.14352 -0.412446 0
M  V30 617 H 55.7436 4.83591 2.2813 0
M  V30 618 H 56.0866 3.17386 2.69392 0
M  V30 619 H 56.6196 3.81665 1.12145 0
M  V30 620 H 53.3586 6.55424 -0.0997178 0
M  V30 621 H 52.8786 5.82064 1.44779 0
M  V30 622 H 54.5576 6.35866 1.19514 0
M  V30 623 N 54.6897 -0.239769 1.55765 0
M  V30 624 C 55.6217 -1.32001 1.87372 0
M  V30 625 C 56.6347 -1.43944 0.760522 0
M  V30 626 O 57.8237 -1.45167 1.0387 0
M  V30 627 C 54.9237 -2.69779 2.05115 0
M  V30 628 C 54.0967 -2.80014 3.36022 0
M  V30 629 C 53.1557 -3.98684 3.4342 0
M  V30 630 O 52.1817 -3.87877 4.16582 0
M  V30 631 N 53.3837 -5.12176 2.73232 0
M  V30 632 H 56.1487 -1.0522 2.80622 0
M  V30 633 H 53.7097 -0.429857 1.56089 0
M  V30 634 H 55.7017 -3.47517 2.07399 0
M  V30 635 H 54.2717 -2.89237 1.18577 0
M  V30 636 H 53.4917 -1.88896 3.45994 0
M  V30 637 H 54.7797 -2.83808 4.22292 0
M  V30 638 H 54.1777 -5.2385 2.13536 0
M  V30 639 H 52.7347 -5.88022 2.81199 0
M  V30 640 N 56.1678 -1.49265 -0.50573 0
M  V30 641 C 57.0778 -1.68312 -1.63427 0
M  V30 642 C 58.0938 -0.565682 -1.64548 0
M  V30 643 O 59.2698 -0.839801 -1.83055 0
M  V30 644 C 56.3348 -1.74107 -2.99813 0
M  V30 645 C 55.3958 -2.97653 -3.09356 0
M  V30 646 C 54.6288 -3.03163 -4.39236 0
M  V30 647 O 54.8518 -2.16396 -5.27758 0
M  V30 648 O 53.7858 -3.9558 -4.53652 0
M  V30 649 H 57.6118 -2.63907 -1.50289 0
M  V30 650 H 55.1968 -1.32951 -0.681502 0
M  V30 651 H 57.0788 -1.803 -3.80881 0
M  V30 652 H 55.7538 -0.816901 -3.13223 0
M  V30 653 H 54.6608 -2.96981 -2.27493 0
M  V30 654 H 55.9938 -3.89535 -3.00871 0
M  V30 655 N 57.6459 0.756429 -1.3826 0
M  V30 656 C 58.5779 1.87971 -1.31147 0
M  V30 657 C 59.5909 1.61248 -0.224239 0
M  V30 658 O 60.7799 1.71881 -0.481581 0
M  V30 659 C 57.8799 3.23545 -1.00857 0
M  V30 660 C 57.0529 3.77794 -2.20432 0
M  V30 661 C 56.1119 4.91877 -1.86931 0
M  V30 662 O 55.1379 5.06659 -2.59395 0
M  V30 663 N 56.3399 5.74643 -0.822568 0
M  V30 664 H 59.1049 1.94585 -2.2794 0
M  V30 665 H 56.6659 0.936234 -1.32084 0
M  V30 666 H 58.6579 3.97403 -0.765021 0
M  V30 667 H 57.2279 3.12335 -0.128687 0
M  V30 668 H 56.4479 2.95534 -2.6087 0
M  V30 669 H 57.7359 4.10771 -3.00241 0
M  V30 670 H 57.1339 5.65266 -0.221575 0
M  V30 671 H 55.6909 6.48661 -0.638899 0
M  V30 672 N 59.124 1.23083 0.984299 0
M  V30 673 C 60.034 1.02515 2.11016 0
M  V30 674 C 61.05 -0.0291702 1.73976 0
M  V30 675 O 62.226 0.165434 2.00719 0
M  V30 676 C 59.291 0.614673 3.41208 0
M  V30 677 C 58.352 1.74359 3.92297 0
M  V30 678 C 57.585 1.35261 5.16275 0
M  V30 679 O 57.808 0.235136 5.69915 0
M  V30 680 O 56.742 2.17227 5.61334 0
M  V30 681 H 60.568 1.96862 2.31255 0
M  V30 682 H 58.153 1.01753 1.09392 0
M  V30 683 H 60.035 0.396518 4.1953 0
M  V30 684 H 58.71 -0.299851 3.22308 0
M  V30 685 H 57.617 2.01635 3.1511 0
M  V30 686 H 58.95 2.63629 4.15645 0
M  V30 687 N 60.6021 -1.18246 1.0419 0
M  V30 688 C 61.5341 -2.2142 0.592088 0
M  V30 689 C 62.5471 -1.59233 -0.338909 0
M  V30 690 O 63.7361 -1.78002 -0.133231 0
M  V30 691 C 60.8361 -3.38546 -0.154854 0
M  V30 692 C 60.0091 -4.3031 0.784328 0
M  V30 693 C 59.0681 -5.26138 0.0804583 0
M  V30 694 O 58.0941 -5.64738 0.711292 0
M  V30 695 N 59.2961 -5.68261 -1.18574 0
M  V30 696 H 62.0611 -2.60636 1.47949 0
M  V30 697 H 59.6221 -1.33044 0.922544 0
M  V30 698 H 61.6141 -3.99678 -0.635606 0
M  V30 699 H 60.1841 -2.98012 -0.943811 0
M  V30 700 H 59.4041 -3.66764 1.44491 0
M  V30 701 H 60.6921 -4.8852 1.42218 0
M  V30 702 H 60.0901 -5.38957 -1.71876 0
M  V30 703 H 58.6471 -6.31584 -1.61074 0
M  V30 704 N 62.0802 -0.821533 -1.34494 0
M  V30 705 C 62.9902 -0.244355 -2.33324 0
M  V30 706 C 64.0062 0.620527 -1.62559 0
M  V30 707 O 65.1822 0.528754 -1.94335 0
M  V30 708 C 62.2472 0.585368 -3.41723 0
M  V30 709 C 61.3082 -0.301752 -4.28238 0
M  V30 710 C 60.5412 0.488466 -5.3146 0
M  V30 711 O 60.7642 1.72186 -5.4379 0
M  V30 712 O 59.6982 -0.12848 -6.01763 0
M  V30 713 H 63.5242 -1.06231 -2.84515 0
M  V30 714 H 61.1092 -0.583645 -1.37528 0
M  V30 715 H 62.9912 1.05747 -4.07916 0
M  V30 716 H 61.6662 1.38068 -2.92778 0
M  V30 717 H 60.5732 -0.821315 -3.64973 0
M  V30 718 H 61.9062 -1.06138 -4.8062 0
M  V30 719 N 63.5583 1.46682 -0.576371 0
M  V30 720 C 64.4883 2.33028 0.148397 0
M  V30 721 C 65.4693 1.44961 0.889956 0
M  V30 722 O 66.6543 1.73789 0.866662 0
M  V30 723 C 63.7843 3.27117 1.1667 0
M  V30 724 C 62.7383 4.24575 0.540386 0
M  V30 725 C 62.0643 5.08126 1.6647 0
M  V30 726 C 63.3643 5.19722 -0.518331 0
M  V30 727 H 65.0583 2.93875 -0.572509 0
M  V30 728 H 62.6043 1.41315 -0.276768 0
M  V30 729 H 64.5573 3.86374 1.68204 0
M  V30 730 H 63.2813 2.64364 1.9178 0
M  V30 731 H 61.9403 3.66571 0.0461769 0
M  V30 732 H 61.5883 4.41762 2.40531 0
M  V30 733 H 61.2883 5.74122 1.25131 0
M  V30 734 H 62.8123 5.70246 2.18293 0
M  V30 735 H 64.2263 5.73232 -0.0883058 0
M  V30 736 H 62.6233 5.94026 -0.851679 0
M  V30 737 H 63.6933 4.64037 -1.40703 0
M  V30 738 N 65.0364 0.313813 1.54444 0
M  V30 739 C 66.2824 -0.292108 2.00685 0
M  V30 740 C 66.6154 -1.52548 1.20177 0
M  V30 741 O 65.8904 -1.92452 0.281531 0
M  V30 742 C 66.1734 -0.635968 3.5444 0
M  V30 743 C 66.0264 0.607437 4.4568 0
M  V30 744 C 67.3454 -1.45747 4.15266 0
M  V30 745 H 64.4644 -0.104697 0.729526 0
M  V30 746 H 67.1064 0.428457 1.85106 0
M  V30 747 H 65.2564 -1.24986 3.67846 0
M  V30 748 H 66.9284 1.24581 4.44159 0
M  V30 749 H 65.1714 1.23822 4.15753 0
M  V30 750 H 65.8424 0.322515 5.51057 0
M  V30 751 H 68.3184 -0.938645 4.05375 0
M  V30 752 H 67.1944 -1.66683 5.2298 0
M  V30 753 H 67.4554 -2.45063 3.67963 0
M  V30 754 N 66.5145 -1.57545 0.0417849 0
M  V30 755 C 67.7625 -1.91937 -0.632829 0
M  V30 756 C 68.0835 -0.919978 -1.71934 0
M  V30 757 O 67.3535 0.0366064 -1.95866 0
M  V30 758 H 65.9335 -0.708493 -0.236742 0
M  V30 759 H 68.5955 -1.9468 0.0925745 0
M  V30 760 H 67.6915 -2.92912 -1.07746 0
M  V30 761 N 67.9926 0.231505 -1.5589 0
M  V30 762 C 68.9556 1.27028 -1.90779 0
M  V30 763 C 69.9556 1.40308 -0.785507 0
M  V30 764 O 71.1456 1.38744 -1.05336 0
M  V30 765 C 68.2776 2.64566 -2.14983 0
M  V30 766 H 69.4706 0.973017 -2.83677 0
M  V30 767 H 67.0236 0.471486 -1.49019 0
M  V30 768 H 67.7586 2.99406 -1.24604 0
M  V30 769 H 67.5436 2.56305 -2.96732 0
M  V30 770 H 69.0336 3.39543 -2.43105 0
M  V30 771 N 69.4707 1.49531 0.497807 0
M  V30 772 C 70.4007 1.6935 1.60757 0
M  V30 773 C 71.3817 0.542218 1.61227 0
M  V30 774 O 72.5667 0.778417 1.77917 0
M  V30 775 C 69.6967 1.76298 2.99226 0
M  V30 776 C 68.6507 2.91248 3.13622 0
M  V30 777 C 67.9767 2.83312 4.53474 0
M  V30 778 C 69.2767 4.3214 2.93346 0
M  V30 779 H 70.9707 2.62263 1.44425 0
M  V30 780 H 68.5167 1.26208 0.693367 0
M  V30 781 H 70.4697 1.88749 3.76765 0
M  V30 782 H 69.1937 0.799871 3.16654 0
M  V30 783 H 67.8527 2.78404 2.38509 0
M  V30 784 H 67.5007 1.84902 4.67782 0
M  V30 785 H 67.2007 3.60465 4.64046 0
M  V30 786 H 68.7247 2.97775 5.33069 0
M  V30 787 H 70.1387 4.45649 3.60652 0
M  V30 788 H 68.5357 5.1054 3.15387 0
M  V30 789 H 69.6057 4.46363 1.89441 0
M  V30 790 N 70.9488 -0.749086 1.3866 0
M  V30 791 C 71.9118 -1.84457 1.36045 0
M  V30 792 C 72.9118 -1.58682 0.260122 0
M  V30 793 O 74.1018 -1.66343 0.517261 0
M  V30 794 C 71.2338 -3.22008 1.11911 0
M  V30 795 H 72.4268 -1.88182 2.33512 0
M  V30 796 H 69.9798 -0.951266 1.24019 0
M  V30 797 H 70.7148 -3.2395 0.150686 0
M  V30 798 H 70.4998 -3.42111 1.91579 0
M  V30 799 H 71.9898 -4.0208 1.12788 0
M  V30 800 N 72.4269 -1.23603 -0.977757 0
M  V30 801 C 73.3899 -1.02069 -2.05218 0
M  V30 802 C 74.3899 0.0184305 -1.60789 0
M  V30 803 O 75.5799 -0.221569 -1.72785 0
M  V30 804 C 72.7119 -0.544926 -3.36517 0
M  V30 805 H 73.9049 -1.9742 -2.25755 0
M  V30 806 H 71.4579 -1.05684 -1.15155 0
M  V30 807 H 72.1929 0.412241 -3.21669 0
M  V30 808 H 71.9779 -1.2948 -3.70105 0
M  V30 809 H 73.4679 -0.414985 -4.15533 0
M  V30 810 N 73.905 1.17692 -1.04816 0
M  V30 811 C 75.182 1.83768 -0.669963 0
M  V30 812 C 75.562 1.93232 0.849986 0
M  V30 813 O 74.91 1.46397 1.75443 0
M  V30 814 C 75.12 3.21641 -1.35455 0
M  V30 815 C 76.468 3.97592 -1.49017 0
M  V30 816 O 77.492 3.31107 -1.31326 0
M  V30 817 O 76.351 5.16729 -1.77914 0
M  V30 818 H 73.445 0.792799 -0.235368 0
M  V30 819 H 75.991 1.25021 -1.14751 0
M  V30 820 H 74.763 3.097 -2.39168 0
M  V30 821 H 74.386 3.88052 -0.866107 0
M  V30 822 N 75.3831 0.828654 1.34056 0
M  V30 823 C 76.3131 0.269443 2.3194 0
M  V30 824 C 77.2941 -0.617247 1.58506 0
M  V30 825 O 78.4791 -0.542931 1.86456 0
M  V30 826 C 75.6091 -0.564793 3.42677 0
M  V30 827 C 74.5631 0.225241 4.27407 0
M  V30 828 C 73.8891 -0.7321 5.29664 0
M  V30 829 C 75.1891 1.43663 5.02154 0
M  V30 830 H 76.8831 1.08728 2.7896 0
M  V30 831 H 74.4291 0.524283 1.34117 0
M  V30 832 H 76.3821 -0.966233 4.10173 0
M  V30 833 H 75.1061 -1.41574 2.9432 0
M  V30 834 H 73.7651 0.608117 3.61521 0
M  V30 835 H 73.4131 -1.57916 4.77568 0
M  V30 836 H 73.1131 -0.20767 5.87233 0
M  V30 837 H 74.6371 -1.13128 6.00029 0
M  V30 838 H 76.0511 1.1089 5.62473 0
M  V30 839 H 74.4481 1.89711 5.69324 0
M  V30 840 H 75.5181 2.21181 4.31517 0
M  V30 841 N 76.8612 -1.46375 0.584142 0
M  V30 842 C 77.8112 -2.27371 -0.169232 0
M  V30 843 C 78.7952 -1.35955 -0.860523 0
M  V30 844 O 79.9872 -1.60119 -0.754382 0
M  V30 845 C 77.1162 -3.22334 -1.18134 0
M  V30 846 C 76.2022 -4.21235 -0.492088 0
M  V30 847 N 76.5932 -5.03766 0.453129 0
M  V30 848 C 74.8912 -4.39773 -0.742652 0
M  V30 849 C 75.5922 -5.75366 0.85609 0
M  V30 850 N 74.5682 -5.43214 0.204926 0
M  V30 851 H 78.3702 -2.88572 0.557097 0
M  V30 852 H 75.8842 -1.57242 0.406042 0
M  V30 853 H 77.8812 -3.79071 -1.73525 0
M  V30 854 H 76.5412 -2.62693 -1.90847 0
M  V30 855 H 77.5522 -5.11227 0.828723 0
M  V30 856 H 74.2292 -3.91279 -1.45625 0
M  V30 857 H 75.6192 -6.5172 1.63434 0
M  V30 858 N 78.3393 -0.321999 -1.54275 0
M  V30 859 C 79.2863 0.544664 -2.24281 0
M  V30 860 C 80.2563 1.1129 -1.23303 0
M  V30 861 O 81.4413 1.15354 -1.51981 0
M  V30 862 C 78.5813 1.70045 -3.00298 0
M  V30 863 C 77.6943 1.16159 -4.1609 0
M  V30 864 C 76.8293 2.28293 -4.79641 0
M  V30 865 C 75.8683 1.71648 -5.8754 0
M  V30 866 N 75.0053 2.77438 -6.44959 0
M  V30 867 H 79.8453 -0.0588907 -2.97942 0
M  V30 868 H 77.3823 -0.0408345 -1.47043 0
M  V30 869 H 79.3403 2.38054 -3.42616 0
M  V30 870 H 77.9703 2.27531 -2.28975 0
M  V30 871 H 77.0223 0.373092 -3.78566 0
M  V30 872 H 78.3343 0.707087 -4.93763 0
M  V30 873 H 77.4883 3.0421 -5.2492 0
M  V30 874 H 76.2273 2.77079 -4.01346 0
M  V30 875 H 75.2323 0.942282 -5.41665 0
M  V30 876 H 76.4573 1.23741 -6.67731 0
M  V30 877 H 74.4033 3.25519 -5.69538 0
M  V30 878 H 74.3203 2.36547 -7.1804 0
M  V30 879 H 75.5883 3.53189 -6.94894 0
M  V30 880 N 79.8174 1.5752 -0.0501392 0
M  V30 881 C 80.7654 2.12651 0.942459 0
M  V30 882 C 81.7594 1.05807 1.32292 0
M  V30 883 O 82.9654 1.24217 1.3027 0
M  V30 884 H 79.3404 0.679673 0.321789 0
M  V30 885 H 81.3114 2.94951 0.452356 0
M  V30 886 C 80.0604 2.68565 2.20836 0
M  V30 887 H 79.3834 3.50439 1.92439 0
M  V30 888 H 80.8234 3.10761 2.8845 0
M  V30 889 C 79.2824 1.62291 2.95234 0
M  V30 890 O 79.8124 1.03508 3.88135 0
M  V30 891 N 78.0184 1.33836 2.57946 0
M  V30 892 H 77.5654 1.81826 1.82475 0
M  V30 893 H 77.5234 0.629595 3.08032 0
M  V30 894 N 81.2955 -0.223234 1.56011 0
M  V30 895 C 82.2055 -1.29766 1.95443 0
M  V30 896 C 83.2215 -1.51373 0.858028 0
M  V30 897 O 84.3975 -1.64536 1.16146 0
M  V30 898 C 81.4625 -2.62772 2.26167 0
M  V30 899 C 80.5235 -2.49482 3.49367 0
M  V30 900 C 79.7565 -3.76145 3.78616 0
M  V30 901 O 79.9795 -4.79087 3.09568 0
M  V30 902 O 78.9135 -3.73358 4.72109 0
M  V30 903 H 82.7395 -0.99309 2.87004 0
M  V30 904 H 80.3245 -0.425958 1.43199 0
M  V30 905 H 82.2065 -3.41327 2.47131 0
M  V30 906 H 80.8815 -2.92913 1.37781 0
M  V30 907 H 79.7885 -1.69133 3.33684 0
M  V30 908 H 81.1215 -2.2428 4.38131 0
M  V30 909 N 82.7736 -1.49793 -0.48987 0
M  V30 910 C 84.0196 -1.61049 -1.24236 0
M  V30 911 C 84.3746 -0.298412 -1.90072 0
M  V30 912 O 83.6676 0.702262 -1.78266 0
M  V30 913 C 83.8616 -2.71488 -2.32441 0
M  V30 914 C 83.6906 -4.13308 -1.77218 0
M  V30 915 C 82.4606 -4.79955 -1.58023 0
M  V30 916 C 84.6586 -4.98176 -1.27772 0
M  V30 917 N 82.6406 -6.06052 -0.978465 0
M  V30 918 C 84.0116 -6.14843 -0.798 0
M  V30 919 C 86.0666 -4.84091 -1.16449 0
M  V30 920 C 84.7696 -7.18975 -0.216245 0
M  V30 921 C 86.7956 -5.88382 -0.596698 0
M  V30 922 C 86.1576 -7.04285 -0.127262 0
M  V30 923 H 82.2566 -0.643611 -0.444172 0
M  V30 924 H 84.8406 -1.86842 -0.54754 0
M  V30 925 H 83.0116 -2.47449 -2.99372 0
M  V30 926 H 84.7436 -2.72205 -2.99477 0
M  V30 927 H 81.4986 -4.36936 -1.82712 0
M  V30 928 H 81.9226 -6.73407 -0.696534 0
M  V30 929 H 86.5646 -3.94786 -1.5134 0
M  V30 930 H 84.2826 -8.0797 0.144903 0
M  V30 931 H 87.8686 -5.79545 -0.511716 0
M  V30 932 H 86.7486 -7.83606 0.30523 0
M  V30 933 N 84.2517 0.741722 -1.39055 0
M  V30 934 C 85.1997 1.87702 -1.3737 0
M  V30 935 C 86.1937 1.67427 -0.257812 0
M  V30 936 O 87.3997 1.7485 -0.427489 0
M  V30 937 H 83.7747 0.617757 -0.428812 0
M  V30 938 H 85.7457 1.86239 -2.33147 0
M  V30 939 C 84.4947 3.25315 -1.22741 0
M  V30 940 H 83.8177 3.41509 -2.07873 0
M  V30 941 H 85.2577 4.04964 -1.25618 0
M  V30 942 C 83.7167 3.36838 0.0647316 0
M  V30 943 O 84.2467 3.88073 1.03741 0
M  V30 944 N 82.4527 2.90329 0.125544 0
M  V30 945 H 81.9997 2.48823 -0.666682 0
M  V30 946 H 81.9577 2.98418 0.989639 0
M  V30 947 N 85.7298 1.2412 0.971189 0
M  V30 948 C 86.6928 1.03156 2.04674 0
M  V30 949 C 87.6928 -0.00990322 1.60797 0
M  V30 950 O 88.8828 0.230729 1.72665 0
M  V30 951 C 86.0148 0.562765 3.36223 0
M  V30 952 H 87.2078 1.98614 2.24705 0
M  V30 953 H 84.7608 1.06293 1.14593 0
M  V30 954 H 85.4958 -0.395176 3.21883 0
M  V30 955 H 85.2808 1.31441 3.69413 0
M  V30 956 H 86.7708 0.437015 4.15307 0
M  V30 957 N 87.2079 -1.17134 1.05439 0
M  V30 958 C 88.4379 -1.91094 0.785274 0
M  V30 959 C 88.8459 -1.77198 -0.663142 0
M  V30 960 O 88.1889 -1.10835 -1.46497 0
M  V30 961 C 88.2509 -3.42594 1.08949 0
M  V30 962 C 87.9149 -3.80274 2.53458 0
M  V30 963 C 88.9119 -3.82912 3.51673 0
M  V30 964 C 86.5969 -4.11162 2.88532 0
M  V30 965 C 88.5909 -4.15913 4.83006 0
M  V30 966 C 86.2779 -4.43831 4.20068 0
M  V30 967 C 87.2759 -4.46185 5.17115 0
M  V30 968 O 86.9639 -4.78083 6.46291 0
M  V30 969 H 86.6959 -0.613073 0.284811 0
M  V30 970 H 89.2499 -1.49461 1.40893 0
M  V30 971 H 87.4799 -3.84534 0.408741 0
M  V30 972 H 89.1689 -3.97817 0.805991 0
M  V30 973 H 89.9349 -3.5917 3.25917 0
M  V30 974 H 85.8139 -4.085 2.13656 0
M  V30 975 H 89.3579 -4.17665 5.5875 0
M  V30 976 H 85.2549 -4.67037 4.45586 0
M  V30 977 H 86.0229 -4.9593 6.51149 0
M  V30 978 N 88.686 -0.835752 -1.33615 0
M  V30 979 C 89.916 -0.442701 -2.01801 0
M  V30 980 C 90.324 0.959807 -1.63047 0
M  V30 981 O 89.667 1.63468 -0.838088 0
M  V30 982 C 89.729 -0.480125 -3.56279 0
M  V30 983 C 89.393 -1.8382 -4.18401 0
M  V30 984 C 90.39 -2.80097 -4.37998 0
M  V30 985 C 88.075 -2.13019 -4.54894 0
M  V30 986 C 90.069 -4.03736 -4.9323 0
M  V30 987 C 87.756 -3.36916 -5.09834 0
M  V30 988 C 88.754 -4.32091 -5.28948 0
M  V30 989 O 88.442 -5.53797 -5.82721 0
M  V30 990 H 88.174 -0.17441 -0.653114 0
M  V30 991 H 90.728 -1.129 -1.71589 0
M  V30 992 H 88.958 0.262931 -3.85805 0
M  V30 993 H 90.647 -0.105335 -4.05763 0
M  V30 994 H 91.413 -2.58838 -4.10156 0
M  V30 995 H 87.292 -1.39733 -4.39313 0
M  V30 996 H 90.836 -4.78034 -5.08064 0
M  V30 997 H 86.733 -3.58033 -5.37106 0
M  V30 998 H 87.501 -5.55494 -6.0114 0
M  V30 999 N 90.1641 1.46063 -0.591896 0
M  V30 1000 C 91.0741 2.34192 0.13831 0
M  V30 1001 C 92.0901 1.50305 0.876608 0
M  V30 1002 O 93.2661 1.8315 0.837728 0
M  V30 1003 C 90.3311 3.27656 1.13326 0
M  V30 1004 C 89.3921 4.27445 0.39863 0
M  V30 1005 C 88.6251 5.16443 1.34618 0
M  V30 1006 O 88.8481 5.08553 2.58321 0
M  V30 1007 O 87.7821 5.95843 0.851768 0
M  V30 1008 H 91.6081 2.98002 -0.58552 0
M  V30 1009 H 89.1931 1.45188 -0.352239 0
M  V30 1010 H 91.0751 3.85291 1.70671 0
M  V30 1011 H 89.7501 2.6643 1.83839 0
M  V30 1012 H 88.6571 3.73471 -0.216895 0
M  V30 1013 H 89.9901 4.91482 -0.265709 0
M  V30 1014 N 91.6422 0.330177 1.54103 0
M  V30 1015 C 92.5522 -0.541534 2.28264 0
M  V30 1016 C 93.5682 -1.12351 1.32866 0
M  V30 1017 O 94.7442 -1.14206 1.65888 0
M  V30 1018 C 91.8092 -1.68322 3.03098 0
M  V30 1019 C 90.8702 -1.13238 4.14096 0
M  V30 1020 C 90.1032 -2.21966 4.85352 0
M  V30 1021 O 90.3262 -3.42437 4.56172 0
M  V30 1022 O 89.2602 -1.87013 5.7211 0
M  V30 1023 H 93.0862 0.060938 3.03639 0
M  V30 1024 H 90.6712 0.09565 1.49093 0
M  V30 1025 H 92.5532 -2.34777 3.49939 0
M  V30 1026 H 91.2282 -2.27176 2.30593 0
M  V30 1027 H 90.1352 -0.432736 3.71589 0
M  V30 1028 H 91.4682 -0.588898 4.88664 0
M  V30 1029 N 93.1203 -1.57491 0.0584922 0
M  V30 1030 C 94.3663 -1.93264 -0.614558 0
M  V30 1031 C 94.6993 -0.937717 -1.7006 0
M  V30 1032 O 93.9743 0.0351652 -1.94468 0
M  V30 1033 C 94.2573 -3.3938 -1.20386 0
M  V30 1034 C 94.1103 -4.49625 -0.125375 0
M  V30 1035 C 95.4293 -3.86039 -2.11334 0
M  V30 1036 H 92.5483 -0.702791 -0.221933 0
M  V30 1037 H 95.1903 -1.8961 0.12175 0
M  V30 1038 H 93.3403 -3.42626 -1.83139 0
M  V30 1039 H 95.0123 -4.58506 0.506971 0
M  V30 1040 H 93.2553 -4.30354 0.545672 0
M  V30 1041 H 93.9263 -5.48967 -0.577861 0
M  V30 1042 H 96.4023 -3.84716 -1.58534 0
M  V30 1043 H 95.2783 -4.88914 -2.49507 0
M  V30 1044 H 95.5393 -3.23215 -3.01636 0
M  V30 1045 N 94.5984 0.214957 -1.56127 0
M  V30 1046 C 95.8444 0.939762 -1.79712 0
M  V30 1047 C 96.1774 1.83723 -0.629247 0
M  V30 1048 O 95.4524 1.90925 0.371197 0
M  V30 1049 C 95.7354 1.77306 -3.13424 0
M  V30 1050 C 95.5884 0.90164 -4.40671 0
M  V30 1051 C 96.9074 2.74956 -3.43638 0
M  V30 1052 H 94.0264 0.340214 -0.653776 0
M  V30 1053 H 96.6684 0.20824 -1.88855 0
M  V30 1054 H 94.8184 2.39673 -3.0576 0
M  V30 1055 H 96.4904 0.294206 -4.60361 0
M  V30 1056 H 94.7334 0.207368 -4.33304 0
M  V30 1057 H 95.4044 1.51923 -5.30682 0
M  V30 1058 H 97.8804 2.22724 -3.51473 0
M  V30 1059 H 96.7564 3.30358 -4.38355 0
M  V30 1060 H 97.0174 3.53023 -2.66134 0
M  V30 1061 N 96.0765 1.50051 0.48192 0
M  V30 1062 C 97.3065 1.63999 1.2565 0
M  V30 1063 C 97.7145 0.318288 1.86504 0
M  V30 1064 O 97.0575 -0.708534 1.69486 0
M  V30 1065 C 97.1195 2.66504 2.4128 0
M  V30 1066 C 96.7835 4.10352 2.01148 0
M  V30 1067 C 97.7805 4.96562 1.54021 0
M  V30 1068 C 95.4655 4.56203 2.10199 0
M  V30 1069 C 97.4595 6.26668 1.16473 0
M  V30 1070 C 95.1465 5.86318 1.72264 0
M  V30 1071 C 96.1445 6.71375 1.25477 0
M  V30 1072 O 95.8325 7.99062 0.880626 0
M  V30 1073 H 95.5645 0.55456 0.386574 0
M  V30 1074 H 98.1185 1.96954 0.582944 0
M  V30 1075 H 96.3485 2.28769 3.11772 0
M  V30 1076 H 98.0375 2.69783 3.03268 0
M  V30 1077 H 98.8035 4.62358 1.46458 0
M  V30 1078 H 94.6825 3.90152 2.45566 0
M  V30 1079 H 98.2265 6.93011 0.798841 0
M  V30 1080 H 94.1235 6.20046 1.79482 0
M  V30 1081 H 94.8915 8.12239 1.01043 0
M  V30 1082 N 97.5546 -0.734337 1.39446 0
M  V30 1083 C 98.8006 -1.49613 1.36908 0
M  V30 1084 C 99.1336 -1.94169 -0.0347829 0
M  V30 1085 O 98.4086 -1.66833 -0.999847 0
M  V30 1086 C 98.6916 -2.73534 2.34203 0
M  V30 1087 C 98.5446 -2.34993 3.83534 0
M  V30 1088 C 99.8636 -3.75635 2.29317 0
M  V30 1089 H 96.9826 -0.542714 0.498629 0
M  V30 1090 H 99.6246 -0.839597 1.70443 0
M  V30 1091 H 97.7746 -3.29553 2.05736 0
M  V30 1092 H 99.4466 -1.84601 4.22753 0
M  V30 1093 H 97.6896 -1.67213 4.00278 0
M  V30 1094 H 98.3606 -3.23738 4.47099 0
M  V30 1095 H 100.837 -3.29203 2.54489 0
M  V30 1096 H 99.7126 -4.60008 2.99472 0
M  V30 1097 H 99.9736 -4.22603 1.29842 0
M  V30 1098 N 99.0327 -1.24633 -0.964593 0
M  V30 1099 C 99.9627 -1.06611 -2.07741 0
M  V30 1100 C 100.944 0.0218666 -1.70086 0
M  V30 1101 O 102.129 -0.145793 -1.93652 0
M  V30 1102 C 99.2587 -0.673444 -3.40708 0
M  V30 1103 C 98.2127 -1.71054 -3.92332 0
M  V30 1104 C 97.5387 -1.17285 -5.21678 0
M  V30 1105 C 98.8387 -3.10718 -4.19824 0
M  V30 1106 H 100.533 -1.99693 -2.23076 0
M  V30 1107 H 98.0787 -0.96152 -1.07195 0
M  V30 1108 H 100.032 -0.534345 -4.17998 0
M  V30 1109 H 98.7557 0.293073 -3.25282 0
M  V30 1110 H 97.4147 -1.83791 -3.17201 0
M  V30 1111 H 97.0627 -0.196847 -5.02615 0
M  V30 1112 H 96.7627 -1.86592 -5.57187 0
M  V30 1113 H 98.2867 -1.04593 -6.01575 0
M  V30 1114 H 99.7007 -3.01192 -4.87808 0
M  V30 1115 H 98.0977 -3.77406 -4.66567 0
M  V30 1116 H 99.1677 -3.58524 -3.26479 0
M  V30 1117 N 100.511 1.16574 -1.06058 0
M  V30 1118 C 101.421 2.2452 -0.680282 0
M  V30 1119 C 102.437 1.71348 0.302604 0
M  V30 1120 O 103.613 2.00822 0.152513 0
M  V30 1121 C 100.678 3.46629 -0.0700315 0
M  V30 1122 C 99.7388 4.14849 -1.10448 0
M  V30 1123 C 98.9718 5.31129 -0.523256 0
M  V30 1124 O 99.1948 5.66514 0.664709 0
M  V30 1125 O 98.1288 5.88526 -1.26179 0
M  V30 1126 H 101.955 2.59355 -1.58015 0
M  V30 1127 H 99.5398 1.24043 -0.832694 0
M  V30 1128 H 101.422 4.20543 0.268667 0
M  V30 1129 H 100.097 3.13573 0.803353 0
M  V30 1130 H 99.0038 3.42916 -1.49532 0
M  V30 1131 H 100.337 4.51954 -1.94931 0
M  V30 1132 N 101.989 0.842826 1.3317 0
M  V30 1133 C 102.899 0.281444 2.32906 0
M  V30 1134 C 103.915 -0.594587 1.63526 0
M  V30 1135 O 105.091 -0.49777 1.95152 0
M  V30 1136 C 102.156 -0.530929 3.42611 0
M  V30 1137 C 101.217 0.369843 4.27704 0
M  V30 1138 C 100.45 -0.403853 5.3217 0
M  V30 1139 O 100.673 -1.63513 5.46461 0
M  V30 1140 O 99.6069 0.224199 6.01482 0
M  V30 1141 H 103.433 1.10744 2.82789 0
M  V30 1142 H 101.018 0.60545 1.36582 0
M  V30 1143 H 102.9 -0.992437 4.09547 0
M  V30 1144 H 101.575 -1.33392 2.94938 0
M  V30 1145 H 100.482 0.879275 3.6362 0
M  V30 1146 H 101.815 1.13771 4.78871 0
M  V30 1147 N 103.467 -1.45747 0.599634 0
M  V30 1148 C 104.716 -2.01502 0.0893511 0
M  V30 1149 C 105.029 -1.4748 -1.28488 0
M  V30 1150 O 106.235 -1.95161 -1.88745 0
M  V30 1151 C 104.691 -3.59735 0.109082 0
M  V30 1152 C 104.299 -4.22754 1.48267 0
M  V30 1153 C 106.043 -4.23085 -0.346374 0
M  V30 1154 C 103.95 -5.73115 1.45921 0
M  V30 1155 H 102.88 -0.753417 0.0296347 0
M  V30 1156 H 105.531 -1.67303 0.753788 0
M  V30 1157 H 103.913 -3.91087 -0.621854 0
M  V30 1158 H 105.087 -4.02987 2.23468 0
M  V30 1159 H 103.402 -3.71567 1.87955 0
M  V30 1160 H 105.999 -5.33327 -0.38298 0
M  V30 1161 H 106.342 -3.93201 -1.36743 0
M  V30 1162 H 106.875 -3.9642 0.331038 0
M  V30 1163 H 103.614 -6.07685 2.45762 0
M  V30 1164 H 103.134 -5.95097 0.749665 0
M  V30 1165 H 104.813 -6.3616 1.17941 0
M  V30 1166 N 104.945 -0.338344 -1.53925 0
M  V30 1167 C 105.855 0.529421 -2.28548 0
M  V30 1168 C 106.871 1.11645 -1.3346 0
M  V30 1169 O 108.047 1.13325 -1.66492 0
M  V30 1170 C 105.112 1.66713 -3.03987 0
M  V30 1171 C 104.173 1.11041 -4.14691 0
M  V30 1172 C 103.406 2.19389 -4.86522 0
M  V30 1173 O 103.629 3.40013 -4.57982 0
M  V30 1174 O 102.563 1.83976 -5.73094 0
M  V30 1175 H 106.389 -0.0770399 -3.03602 0
M  V30 1176 H 103.974 -0.103555 -1.49041 0
M  V30 1177 H 105.856 2.32918 -3.5118 0
M  V30 1178 H 104.531 2.25949 -2.31794 0
M  V30 1179 H 103.438 0.413024 -3.71813 0
M  V30 1180 H 104.771 0.562975 -4.8897 0
M  V30 1181 N 106.423 1.57458 -0.0668435 0
M  V30 1182 C 107.653 1.97337 0.611677 0
M  V30 1183 C 108.061 0.943744 1.63982 0
M  V30 1184 O 107.404 -0.0785584 1.83532 0
M  V30 1185 C 107.466 3.33511 1.34205 0
M  V30 1186 C 107.13 4.54598 0.467941 0
M  V30 1187 C 108.127 5.19186 -0.272439 0
M  V30 1188 C 105.812 5.0075 0.39427 0
M  V30 1189 C 107.806 6.28274 -1.07476 0
M  V30 1190 C 105.493 6.09711 -0.411729 0
M  V30 1191 C 106.491 6.73335 -1.14492 0
M  V30 1192 O 106.179 7.80199 -1.93763 0
M  V30 1193 H 105.911 0.654042 0.170893 0
M  V30 1194 H 108.465 2.04961 -0.134289 0
M  V30 1195 H 106.695 3.22487 2.13398 0
M  V30 1196 H 108.384 3.58029 1.91233 0
M  V30 1197 H 109.15 4.84477 -0.225086 0
M  V30 1198 H 105.029 4.51009 0.954569 0
M  V30 1199 H 108.573 6.77866 -1.64755 0
M  V30 1200 H 104.47 6.43854 -0.460664 0
M  V30 1201 H 105.238 7.97053 -1.86142 0
M  V30 1202 N 107.901 -0.206675 1.56239 0
M  V30 1203 C 108.834 -1.28383 1.88661 0
M  V30 1204 C 109.812 -1.44504 0.745481 0
M  V30 1205 O 110.996 -1.60079 0.995336 0
M  V30 1206 C 108.123 -2.65211 2.10667 0
M  V30 1207 C 107.169 -2.66025 3.33366 0
M  V30 1208 S 108.002 -2.18609 4.88846 0
M  V30 1209 C 109.158 -3.57283 5.13906 0
M  V30 1210 H 109.391 -1.00691 2.7973 0
M  V30 1211 H 106.924 -0.409627 1.48867 0
M  V30 1212 H 108.882 -3.43979 2.24029 0
M  V30 1213 H 107.543 -2.90121 1.20369 0
M  V30 1214 H 106.736 -3.66607 3.45855 0
M  V30 1215 H 106.338 -1.95331 3.18938 0
M  V30 1216 H 108.63 -4.53074 5.03717 0
M  V30 1217 H 109.573 -3.49699 6.15724 0
M  V30 1218 H 109.981 -3.51659 4.41583 0
M  V30 1219 N 109.379 -1.50304 -0.473955 0
M  V30 1220 C 110.628 -1.60392 -1.22301 0
M  V30 1221 C 110.941 -0.308411 -1.93153 0
M  V30 1222 O 112.147 -0.288156 -2.69966 0
M  V30 1223 C 110.603 -2.83109 -2.2221 0
M  V30 1224 C 110.211 -4.19524 -1.57173 0
M  V30 1225 C 111.955 -3.0254 -2.97775 0
M  V30 1226 C 109.862 -5.33431 -2.55353 0
M  V30 1227 H 108.792 -0.597286 -0.460179 0
M  V30 1228 H 111.443 -1.76731 -0.493803 0
M  V30 1229 H 109.825 -2.60322 -2.9841 0
M  V30 1230 H 110.999 -4.52554 -0.867824 0
M  V30 1231 H 109.314 -4.05674 -0.939002 0
M  V30 1232 H 111.911 -3.84811 -3.71248 0
M  V30 1233 H 112.254 -2.14154 -3.56992 0
M  V30 1234 H 112.787 -3.25494 -2.28688 0
M  V30 1235 H 109.526 -6.23962 -2.00878 0
M  V30 1236 H 109.046 -5.04823 -3.23904 0
M  V30 1237 H 110.725 -5.63887 -3.17239 0
M  V30 1238 N 110.857 0.726932 -1.39834 0
M  V30 1239 C 111.789 1.85147 -1.35104 0
M  V30 1240 C 112.802 1.60736 -0.258392 0
M  V30 1241 O 113.991 1.70821 -0.517931 0
M  V30 1242 C 111.091 3.21332 -1.07697 0
M  V30 1243 C 110.264 3.73033 -2.28396 0
M  V30 1244 C 109.323 4.87802 -1.97322 0
M  V30 1245 O 108.349 5.01043 -2.70083 0
M  V30 1246 N 109.551 5.72768 -0.944273 0
M  V30 1247 H 112.316 1.89706 -2.32017 0
M  V30 1248 H 109.877 0.908006 -1.3404 0
M  V30 1249 H 111.869 3.95691 -0.849144 0
M  V30 1250 H 110.439 3.11992 -0.194909 0
M  V30 1251 H 109.659 2.89934 -2.6708 0
M  V30 1252 H 110.947 4.0431 -3.08887 0
M  V30 1253 H 110.345 5.64669 -0.341427 0
M  V30 1254 H 108.902 6.4716 -0.776346 0
M  V30 1255 N 112.336 1.25143 0.95797 0
M  V30 1256 C 113.283 1.05235 2.05412 0
M  V30 1257 C 114.253 -0.0374561 1.66058 0
M  V30 1258 O 115.438 0.119073 1.90428 0
M  V30 1259 C 112.578 0.673589 3.38462 0
M  V30 1260 C 111.691 1.8379 3.90954 0
M  V30 1261 C 110.826 1.40381 5.12315 0
M  V30 1262 C 109.865 2.53746 5.57027 0
M  V30 1263 N 109.002 2.11136 6.69601 0
M  V30 1264 H 113.842 1.99048 2.21774 0
M  V30 1265 H 111.379 0.991277 1.08683 0
M  V30 1266 H 113.337 0.434964 4.14926 0
M  V30 1267 H 111.967 -0.227554 3.21997 0
M  V30 1268 H 111.019 2.18992 3.11041 0
M  V30 1269 H 112.331 2.68937 4.20089 0
M  V30 1270 H 111.485 1.12464 5.96185 0
M  V30 1271 H 110.224 0.523015 4.84887 0
M  V30 1272 H 109.229 2.82412 4.71724 0
M  V30 1273 H 110.454 3.42398 5.86464 0
M  V30 1274 H 108.4 1.25468 6.4389 0
M  V30 1275 H 108.317 2.89832 6.98236 0
M  V30 1276 H 109.585 1.86385 7.56889 0
M  V30 1277 N 113.814 -1.1601 1.06675 0
M  V30 1278 C 114.744 -2.22688 0.702307 0
M  V30 1279 C 115.725 -1.67306 -0.307032 0
M  V30 1280 O 116.91 -1.93352 -0.181305 0
M  V30 1281 C 114.04 -3.47178 0.092038 0
M  V30 1282 C 112.994 -4.15477 1.02777 0
M  V30 1283 C 112.32 -5.33963 0.28061 0
M  V30 1284 C 113.62 -4.66019 2.35846 0
M  V30 1285 H 115.314 -2.53429 1.59419 0
M  V30 1286 H 112.86 -1.21813 0.767961 0
M  V30 1287 H 114.813 -4.21037 -0.174814 0
M  V30 1288 H 113.537 -3.15749 -0.834877 0
M  V30 1289 H 112.196 -3.43549 1.27944 0
M  V30 1290 H 111.844 -4.98788 -0.649545 0
M  V30 1291 H 111.544 -5.806 0.904258 0
M  V30 1292 H 113.068 -6.10596 0.021396 0
M  V30 1293 H 114.482 -5.3144 2.15045 0
M  V30 1294 H 112.879 -5.23293 2.93743 0
M  V30 1295 H 113.949 -3.82023 2.98641 0
M  V30 1296 N 115.292 -0.849877 -1.32721 0
M  V30 1297 C 116.703 -0.506188 -1.79707 0
M  V30 1298 C 117.054 0.975627 -1.70223 0
M  V30 1299 O 116.179 1.76078 -1.25799 0
M  V30 1300 C 116.774 -0.912044 -3.26293 0
M  V30 1301 C 115.333 -0.620326 -3.71253 0
M  V30 1302 C 114.48 -1.11439 -2.53922 0
M  V30 1303 H 117.431 -1.03754 -1.20087 0
M  V30 1304 H 117.452 -0.226493 -3.79825 0
M  V30 1305 H 116.964 -1.99057 -3.33164 0
M  V30 1306 H 115.065 0.447674 -3.69901 0
M  V30 1307 H 115.178 -1.18327 -4.64258 0
M  V30 1308 H 113.542 -0.534834 -2.49021 0
M  V30 1309 H 114.325 -2.19992 -2.6355 0
M  V30 1310 N 116.77 1.45427 -0.607355 0
M  V30 1311 C 117.68 2.34325 0.113463 0
M  V30 1312 C 118.696 1.51226 0.860617 0
M  V30 1313 O 119.872 1.84029 0.818255 0
M  V30 1314 C 116.937 3.28839 1.09844 0
M  V30 1315 C 115.998 4.27844 0.353271 0
M  V30 1316 C 115.231 5.17842 1.29133 0
M  V30 1317 O 115.454 5.11264 2.52913 0
M  V30 1318 O 114.388 5.96713 0.788523 0
M  V30 1319 H 118.214 2.97364 -0.617094 0
M  V30 1320 H 115.799 1.44807 -0.367619 0
M  V30 1321 H 117.681 3.8708 1.66575 0
M  V30 1322 H 116.356 2.68365 1.81003 0
M  V30 1323 H 115.263 3.7322 -0.256494 0
M  V30 1324 H 116.596 4.91173 -0.317822 0
M  V30 1325 N 118.248 0.346503 1.53744 0
M  V30 1326 C 119.494 -0.242135 2.01954 0
M  V30 1327 C 119.849 -1.47962 1.22984 0
M  V30 1328 O 119.142 -1.89077 0.309924 0
M  V30 1329 C 119.336 -0.605809 3.52228 0
M  V30 1330 C 119.165 0.594882 4.45748 0
M  V30 1331 C 117.935 1.1011 4.93157 0
M  V30 1332 C 120.133 1.45425 4.93311 0
M  V30 1333 N 118.115 2.26381 5.70636 0
M  V30 1334 C 119.486 2.46383 5.68942 0
M  V30 1335 C 121.541 1.47935 4.75415 0
M  V30 1336 C 120.244 3.49684 6.28581 0
M  V30 1337 C 122.27 2.50119 5.35905 0
M  V30 1338 C 121.632 3.49803 6.11406 0
M  V30 1339 H 117.731 -0.0518296 0.780281 0
M  V30 1340 H 120.315 0.486736 1.88518 0
M  V30 1341 H 118.486 -1.30378 3.65864 0
M  V30 1342 H 120.218 -1.17789 3.87179 0
M  V30 1343 H 116.973 0.668721 4.68855 0
M  V30 1344 H 117.397 2.85094 6.14044 0
M  V30 1345 H 122.039 0.722274 4.16585 0
M  V30 1346 H 119.757 4.26285 6.86518 0
M  V30 1347 H 123.343 2.52892 5.23963 0
M  V30 1348 H 122.223 4.27576 6.5738 0
M  V30 1349 N 119.726 -1.57421 0.075193 0
M  V30 1350 C 120.689 -2.11791 -0.876203 0
M  V30 1351 C 121.689 -1.04268 -1.22412 0
M  V30 1352 O 122.879 -1.30242 -1.15684 0
M  V30 1353 C 120.011 -2.62207 -2.17854 0
M  V30 1354 H 121.204 -2.9716 -0.40444 0
M  V30 1355 H 118.757 -1.55333 -0.173557 0
M  V30 1356 H 119.492 -1.803 -2.6956 0
M  V30 1357 H 119.277 -3.40802 -1.93897 0
M  V30 1358 H 120.767 -3.04335 -2.85955 0
M  V30 1359 N 121.204 0.198386 -1.56346 0
M  V30 1360 C 122.167 1.22952 -1.93431 0
M  V30 1361 C 123.167 1.38611 -0.815092 0
M  V30 1362 O 124.357 1.36479 -1.08255 0
M  V30 1363 C 121.489 2.59946 -2.20546 0
M  V30 1364 H 122.682 0.912626 -2.85677 0
M  V30 1365 H 120.235 0.43977 -1.49986 0
M  V30 1366 H 120.97 2.96696 -1.30927 0
M  V30 1367 H 120.755 2.49953 -3.02102 0
M  V30 1368 H 122.245 3.3431 -2.50253 0
M  V30 1369 N 122.682 1.50554 0.465978 0
M  V30 1370 C 123.959 1.5232 1.22712 0
M  V30 1371 C 124.339 0.270807 2.09356 0
M  V30 1372 O 123.687 -0.745541 2.15995 0
M  V30 1373 C 123.897 2.82175 2.05374 0
M  V30 1374 C 125.245 3.33033 2.6339 0
M  V30 1375 O 126.269 2.83531 2.15612 0
M  V30 1376 O 125.128 4.19336 3.50456 0
M  V30 1377 H 122.222 0.611183 0.557122 0
M  V30 1378 H 124.768 1.62847 0.477381 0
M  V30 1379 H 123.54 3.64797 1.41558 0
M  V30 1380 H 123.163 2.74675 2.87471 0
M  V30 1381 N 124.16 -0.719506 1.40217 0
M  V30 1382 C 125.07 -1.86378 1.42479 0
M  V30 1383 C 126.086 -1.71073 0.317834 0
M  V30 1384 O 127.262 -1.93406 0.561794 0
M  V30 1385 C 124.327 -3.22136 1.28178 0
M  V30 1386 C 123.388 -3.49723 2.48982 0
M  V30 1387 C 122.621 -4.79004 2.35353 0
M  V30 1388 O 122.844 -5.53821 1.36524 0
M  V30 1389 O 121.778 -5.06839 3.2465 0
M  V30 1390 H 125.604 -1.87425 2.38968 0
M  V30 1391 H 123.189 -0.869405 1.21498 0
M  V30 1392 H 125.071 -4.03234 1.22395 0
M  V30 1393 H 123.746 -3.21825 0.347934 0
M  V30 1394 H 122.653 -2.6865 2.60342 0
M  V30 1395 H 123.986 -3.54828 3.41113 0
M  V30 1396 N 125.638 -1.25649 -0.95132 0
M  V30 1397 C 127.049 -1.09654 -1.51106 0
M  V30 1398 C 127.4 0.326615 -1.93462 0
M  V30 1399 O 126.525 1.21697 -1.78938 0
M  V30 1400 C 127.12 -1.98437 -2.74605 0
M  V30 1401 C 125.679 -1.86618 -3.2688 0
M  V30 1402 C 124.826 -1.9239 -1.99703 0
M  V30 1403 H 127.777 -1.38887 -0.767865 0
M  V30 1404 H 127.798 -1.5263 -3.48546 0
M  V30 1405 H 127.31 -3.02009 -2.43746 0
M  V30 1406 H 125.411 -0.859421 -3.62553 0
M  V30 1407 H 125.524 -2.71607 -3.94673 0
M  V30 1408 H 123.888 -1.36317 -2.15151 0
M  V30 1409 H 124.671 -2.97573 -1.71188 0
M  V30 1410 N 127.117 1.15442 -1.07289 0
M  V30 1411 C 128.363 1.86489 -0.796846 0
M  V30 1412 C 128.696 1.82078 0.675371 0
M  V30 1413 O 127.971 1.24346 1.4956 0
M  V30 1414 C 128.254 3.35626 -1.30489 0
M  V30 1415 C 128.107 3.48673 -2.84161 0
M  V30 1416 C 129.426 4.30357 -0.920907 0
M  V30 1417 H 126.545 0.677144 -0.290939 0
M  V30 1418 H 129.187 1.35633 -1.33056 0
M  V30 1419 H 127.337 3.79068 -0.850883 0
M  V30 1420 H 129.009 3.14099 -3.37846 0
M  V30 1421 H 127.252 2.90253 -3.22391 0
M  V30 1422 H 127.923 4.53453 -3.14777 0
M  V30 1423 H 130.399 3.94871 -1.3121 0
M  V30 1424 H 129.275 5.33193 -1.30372 0
M  V30 1425 H 129.536 4.4176 0.173226 0
M  V30 1426 N 128.595 0.856903 1.32268 0
M  V30 1427 C 129.505 0.306131 2.32594 0
M  V30 1428 C 130.521 -0.577209 1.64147 0
M  V30 1429 O 131.697 -0.477043 1.95669 0
M  V30 1430 C 128.762 -0.494561 3.43154 0
M  V30 1431 C 127.823 0.415186 4.27288 0
M  V30 1432 C 127.056 -0.347387 5.32568 0
M  V30 1433 O 127.279 -1.57708 5.48165 0
M  V30 1434 O 126.213 0.287982 6.01211 0
M  V30 1435 H 130.039 1.13737 2.81598 0
M  V30 1436 H 127.624 0.619902 1.35932 0
M  V30 1437 H 129.506 -0.948944 4.10576 0
M  V30 1438 H 128.181 -1.30257 2.96336 0
M  V30 1439 H 127.088 0.917793 3.62667 0
M  V30 1440 H 128.421 1.18844 4.77637 0
M  V30 1441 N 130.073 -1.45103 0.615059 0
M  V30 1442 C 131.02 -2.30586 -0.0993978 0
M  V30 1443 C 131.99 -1.42544 -0.852669 0
M  V30 1444 O 133.175 -1.71465 -0.836917 0
M  V30 1445 C 130.315 -3.27572 -1.08583 0
M  V30 1446 C 129.428 -4.30717 -0.332656 0
M  V30 1447 C 128.563 -5.14807 -1.30947 0
M  V30 1448 C 127.602 -6.09673 -0.544538 0
M  V30 1449 N 126.739 -6.86517 -1.47101 0
M  V30 1450 H 131.579 -2.91144 0.635542 0
M  V30 1451 H 129.116 -1.4346 0.325206 0
M  V30 1452 H 131.074 -3.82276 -1.67095 0
M  V30 1453 H 129.704 -2.68751 -1.78809 0
M  V30 1454 H 128.756 -3.78615 0.368107 0
M  V30 1455 H 130.068 -4.98102 0.263842 0
M  V30 1456 H 129.222 -5.73948 -1.96643 0
M  V30 1457 H 127.961 -4.47458 -1.9399 0
M  V30 1458 H 126.966 -5.49656 0.126003 0
M  V30 1459 H 128.191 -6.79052 0.080947 0
M  V30 1460 H 126.137 -6.21851 -2.08895 0
M  V30 1461 H 126.054 -7.50281 -0.928137 0
M  V30 1462 H 127.322 -7.50194 -2.11731 0
M  V30 1463 N 131.551 -0.354651 -1.53558 0
M  V30 1464 C 132.779 0.239515 -2.05509 0
M  V30 1465 C 133.194 1.4333 -1.2289 0
M  V30 1466 O 132.551 1.80538 -0.266899 0
M  V30 1467 C 132.602 0.643719 -3.55723 0
M  V30 1468 O 132.323 -0.502602 -4.35207 0
M  V30 1469 C 133.824 1.29743 -4.23889 0
M  V30 1470 H 131.044 0.0442697 -0.669538 0
M  V30 1471 H 133.588 -0.509856 -1.98042 0
M  V30 1472 H 131.743 1.34302 -3.63376 0
M  V30 1473 H 132.157 -0.178172 -5.24197 0
M  V30 1474 H 133.631 1.53091 -5.30346 0
M  V30 1475 H 134.108 2.25441 -3.76926 0
M  V30 1476 H 134.714 0.639865 -4.20459 0
M  V30 1477 N 133.029 1.57378 -0.0835403 0
M  V30 1478 C 134.44 1.81261 0.447358 0
M  V30 1479 C 134.791 0.998331 1.68902 0
M  V30 1480 O 133.916 0.224282 2.15235 0
M  V30 1481 C 134.511 3.28767 0.818386 0
M  V30 1482 C 133.07 3.53455 1.29409 0
M  V30 1483 C 132.217 2.75831 0.285024 0
M  V30 1484 H 135.168 1.5566 -0.309115 0
M  V30 1485 H 135.189 3.41459 1.67887 0
M  V30 1486 H 134.701 3.88006 -0.0855019 0
M  V30 1487 H 132.802 2.99534 2.21608 0
M  V30 1488 H 132.915 4.62128 1.2639 0
M  V30 1489 H 131.279 2.42947 0.764767 0
M  V30 1490 H 132.062 3.37813 -0.611341 0
M  V30 1491 N 134.507 -0.190092 1.56449 0
M  V30 1492 C 135.439 -1.25973 1.91477 0
M  V30 1493 C 136.452 -1.41452 0.805931 0
M  V30 1494 O 137.641 -1.41789 1.08435 0
M  V30 1495 C 134.741 -2.63117 2.13594 0
M  V30 1496 C 133.914 -2.69182 3.4476 0
M  V30 1497 C 132.973 -3.87557 3.5593 0
M  V30 1498 O 131.999 -3.74427 4.28711 0
M  V30 1499 N 133.201 -5.03224 2.89388 0
M  V30 1500 H 135.966 -0.962394 2.83828 0
M  V30 1501 H 133.527 -0.379981 1.57378 0
M  V30 1502 H 135.519 -3.40742 2.1835 0
M  V30 1503 H 134.089 -2.85319 1.27719 0
M  V30 1504 H 133.309 -1.77793 3.51828 0
M  V30 1505 H 134.597 -2.70229 4.31107 0
M  V30 1506 H 133.995 -5.16791 2.30094 0
M  V30 1507 H 132.552 -5.78778 2.99764 0
M  V30 1508 N 135.985 -1.50799 -0.457987 0
M  V30 1509 C 137.213 -1.66218 -1.23203 0
M  V30 1510 C 137.628 -0.350894 -1.85511 0
M  V30 1511 O 136.985 0.668546 -1.69814 0
M  V30 1512 C 137.036 -2.76291 -2.33121 0
M  V30 1513 O 136.757 -4.02338 -1.73366 0
M  V30 1514 C 138.258 -3.028 -3.2377 0
M  V30 1515 H 135.478 -0.558361 -0.372121 0
M  V30 1516 H 138.022 -1.97099 -0.545179 0
M  V30 1517 H 136.177 -2.48068 -2.97558 0
M  V30 1518 H 136.591 -4.63312 -2.4585 0
M  V30 1519 H 138.065 -3.8345 -3.97077 0
M  V30 1520 H 138.542 -2.14385 -3.83322 0
M  V30 1521 H 139.148 -3.32604 -2.65056 0
M  V30 1522 N 137.463 0.71206 -1.40597 0
M  V30 1523 C 138.395 1.83704 -1.37061 0
M  V30 1524 C 139.408 1.60453 -0.275426 0
M  V30 1525 O 140.597 1.70262 -0.53602 0
M  V30 1526 C 137.697 3.20172 -1.11099 0
M  V30 1527 C 136.87 3.7059 -2.3234 0
M  V30 1528 C 135.929 4.85681 -2.02485 0
M  V30 1529 O 134.955 4.9815 -2.75382 0
M  V30 1530 N 136.157 5.71735 -1.00497 0
M  V30 1531 H 138.922 1.87235 -2.34016 0
M  V30 1532 H 136.483 0.893739 -1.34996 0
M  V30 1533 H 138.475 3.94768 -0.891064 0
M  V30 1534 H 137.045 3.11767 -0.227989 0
M  V30 1535 H 136.265 2.87085 -2.7014 0
M  V30 1536 H 137.553 4.01011 -3.13157 0
M  V30 1537 H 136.951 5.64275 -0.401298 0
M  V30 1538 H 135.508 6.463 -0.844942 0
M  V30 1539 N 138.941 1.26152 0.944643 0
M  V30 1540 C 139.873 1.03199 2.04652 0
M  V30 1541 C 140.886 -0.00642356 1.62799 0
M  V30 1542 O 142.075 0.233263 1.76969 0
M  V30 1543 C 139.175 0.540111 3.34568 0
M  V30 1544 C 138.348 1.64697 4.05208 0
M  V30 1545 C 137.407 1.15374 5.13396 0
M  V30 1546 O 136.433 1.85013 5.38293 0
M  V30 1547 N 137.635 0.00031529 5.805 0
M  V30 1548 H 140.4 1.9808 2.2491 0
M  V30 1549 H 137.961 1.17491 1.11389 0
M  V30 1550 H 139.953 0.194401 4.04233 0
M  V30 1551 H 138.523 -0.315021 3.11009 0
M  V30 1552 H 137.743 2.16379 3.29506 0
M  V30 1553 H 139.031 2.3903 4.49157 0
M  V30 1554 H 138.429 -0.581336 5.62705 0
M  V30 1555 H 136.986 -0.286346 6.51171 0
M  V30 1556 N 140.419 -1.14872 1.07899 0
M  V30 1557 C 141.696 -1.81928 0.71845 0
M  V30 1558 C 142.076 -1.95417 -0.798455 0
M  V30 1559 O 141.424 -1.50997 -1.715 0
M  V30 1560 C 141.634 -3.17937 1.43935 0
M  V30 1561 C 142.982 -3.93501 1.59506 0
M  V30 1562 O 144.006 -3.27509 1.40058 0
M  V30 1563 O 142.865 -5.1183 1.91551 0
M  V30 1564 H 139.959 -0.78628 0.256305 0
M  V30 1565 H 142.505 -1.21934 1.18026 0
M  V30 1566 H 141.277 -3.0325 2.47295 0
M  V30 1567 H 140.9 -3.85619 0.968687 0
M  V30 1568 N 141.898 -0.863906 -1.31812 0
M  V30 1569 C 142.808 -0.318461 -2.32428 0
M  V30 1570 C 143.824 0.568496 -1.64451 0
M  V30 1571 O 145 0.46666 -1.95919 0
M  V30 1572 C 142.065 0.476355 -3.43412 0
M  V30 1573 C 141.126 -0.43784 -4.27061 0
M  V30 1574 C 140.359 0.319138 -5.32745 0
M  V30 1575 O 140.582 1.54799 -5.48993 0
M  V30 1576 O 139.516 -0.319861 -6.01049 0
M  V30 1577 H 143.342 -1.15229 -2.80991 0
M  V30 1578 H 140.927 -0.627103 -1.35602 0
M  V30 1579 H 142.809 0.927156 -4.11074 0
M  V30 1580 H 141.484 1.28683 -2.97022 0
M  V30 1581 H 140.391 -0.937013 -3.62175 0
M  V30 1582 H 141.724 -1.21375 -4.77 0
M  V30 1583 N 143.376 1.44774 -0.622745 0
M  V30 1584 C 144.306 2.33382 0.0741861 0
M  V30 1585 C 145.287 1.47719 0.843387 0
M  V30 1586 O 146.472 1.76458 0.810934 0
M  V30 1587 C 143.602 3.30663 1.06204 0
M  V30 1588 C 142.556 4.26079 0.405037 0
M  V30 1589 C 141.882 5.13165 1.5022 0
M  V30 1590 C 143.182 5.1781 -0.683414 0
M  V30 1591 H 144.876 2.91905 -0.665713 0
M  V30 1592 H 142.422 1.40363 -0.321587 0
M  V30 1593 H 144.375 3.9153 1.55827 0
M  V30 1594 H 143.099 2.70331 1.83272 0
M  V30 1595 H 141.758 3.66532 -0.0704683 0
M  V30 1596 H 141.406 4.49191 2.26355 0
M  V30 1597 H 141.106 5.77812 1.06803 0
M  V30 1598 H 142.63 5.76902 2.00041 0
M  V30 1599 H 144.044 5.72661 -0.270631 0
M  V30 1600 H 142.441 5.91015 -1.04023 0
M  V30 1601 H 143.511 4.59326 -1.55395 0
M  V30 1602 N 144.854 0.36279 1.53368 0
M  V30 1603 C 146.084 -0.228281 2.05335 0
M  V30 1604 C 146.492 -1.43226 1.23625 0
M  V30 1605 O 145.835 -1.81717 0.269206 0
M  V30 1606 C 145.897 -0.688549 3.52845 0
M  V30 1607 C 145.561 0.398362 4.5526 0
M  V30 1608 C 146.558 1.24732 5.04716 0
M  V30 1609 C 144.243 0.557805 4.99193 0
M  V30 1610 C 146.237 2.2411 5.96702 0
M  V30 1611 C 143.924 1.55495 5.90986 0
M  V30 1612 C 144.922 2.39503 6.39631 0
M  V30 1613 O 144.61 3.37517 7.29615 0
M  V30 1614 H 144.342 -0.044395 0.674541 0
M  V30 1615 H 146.896 0.518668 1.98744 0
M  V30 1616 H 145.126 -1.48706 3.56964 0
M  V30 1617 H 146.815 -1.20231 3.87685 0
M  V30 1618 H 147.581 1.13532 4.71525 0
M  V30 1619 H 143.46 -0.0862959 4.60919 0
M  V30 1620 H 147.004 2.89718 6.34594 0
M  V30 1621 H 142.901 1.66744 6.23592 0
M  V30 1622 H 143.669 3.33213 7.47604 0
M  V30 1623 N 146.332 -1.57332 0.0918853 0
M  V30 1624 C 147.581 -1.93412 -0.572249 0
M  V30 1625 C 147.894 -0.975515 -1.69538 0
M  V30 1626 O 149.1 -1.22991 -2.42045 0
M  V30 1627 C 147.556 -3.43648 -1.0693 0
M  V30 1628 C 147.164 -4.47994 0.0239049 0
M  V30 1629 C 148.908 -3.88695 -1.70635 0
M  V30 1630 C 146.815 -5.89381 -0.488319 0
M  V30 1631 H 145.745 -0.721939 -0.217532 0
M  V30 1632 H 148.396 -1.82735 0.167369 0
M  V30 1633 H 146.778 -3.49466 -1.8625 0
M  V30 1634 H 147.952 -4.53815 0.799277 0
M  V30 1635 H 146.267 -4.12536 0.565946 0
M  V30 1636 H 148.864 -4.91725 -2.10025 0
M  V30 1637 H 149.207 -3.27166 -2.57426 0
M  V30 1638 H 149.74 -3.85564 -0.979023 0
M  V30 1639 H 146.479 -6.54602 0.342906 0
M  V30 1640 H 145.999 -5.87037 -1.23077 0
M  V30 1641 H 147.678 -6.39863 -0.958317 0
M  V30 1642 N 147.81 0.181792 -1.56548 0
M  V30 1643 C 148.76 1.22961 -1.92002 0
M  V30 1644 C 149.744 1.40331 -0.787146 0
M  V30 1645 O 150.936 1.42478 -1.05019 0
M  V30 1646 C 148.065 2.57144 -2.27446 0
M  V30 1647 C 147.151 2.43512 -3.47222 0
M  V30 1648 N 147.542 1.99577 -4.64761 0
M  V30 1649 C 145.84 2.74368 -3.51622 0
M  V30 1650 C 146.541 1.98156 -5.46909 0
M  V30 1651 N 145.517 2.40164 -4.8767 0
M  V30 1652 H 149.319 0.881462 -2.8037 0
M  V30 1653 H 146.833 0.390141 -1.57644 0
M  V30 1654 H 148.83 3.32847 -2.51035 0
M  V30 1655 H 147.49 2.92771 -1.40411 0
M  V30 1656 H 148.501 1.70078 -4.89177 0
M  V30 1657 H 145.178 3.14102 -2.75038 0
M  V30 1658 H 146.568 1.65975 -6.51077 0
M  V30 1659 N 149.288 1.51039 0.449983 0
M  V30 1660 C 150.513 1.6715 1.22783 0
M  V30 1661 C 150.938 0.363081 1.84563 0
M  V30 1662 O 150.296 -0.675433 1.68249 0
M  V30 1663 C 150.344 2.77985 2.29689 0
M  V30 1664 O 149.448 2.40707 3.34864 0
M  V30 1665 H 148.789 0.557746 0.360299 0
M  V30 1666 H 151.319 1.97535 0.533005 0
M  V30 1667 H 151.329 3.01693 2.74673 0
M  V30 1668 H 150.004 3.72935 1.84098 0
M  V30 1669 H 148.581 2.27523 2.95445 0
M  V30 1670 N 150.766 -0.704594 1.40972 0
M  V30 1671 C 151.676 -1.84856 1.44448 0
M  V30 1672 C 152.692 -1.70726 0.335961 0
M  V30 1673 O 153.868 -1.92799 0.582276 0
M  V30 1674 C 150.933 -3.20758 1.31587 0
M  V30 1675 C 149.994 -3.47063 2.52677 0
M  V30 1676 C 149.227 -4.76481 2.4042 0
M  V30 1677 O 149.45 -5.52341 1.42391 0
M  V30 1678 O 148.384 -5.03367 3.30007 0
M  V30 1679 H 152.21 -1.8488 2.40942 0
M  V30 1680 H 149.795 -0.85647 1.22413 0
M  V30 1681 H 151.677 -4.01913 1.26665 0
M  V30 1682 H 150.352 -3.21438 0.382049 0
M  V30 1683 H 149.259 -2.65873 2.63177 0
M  V30 1684 H 150.592 -3.5119 3.44858 0
M  V30 1685 N 152.244 -1.26651 -0.937939 0
M  V30 1686 C 153.655 -1.1125 -1.49934 0
M  V30 1687 C 154.006 0.306077 -1.93798 0
M  V30 1688 O 153.131 1.19792 -1.80219 0
M  V30 1689 C 153.726 -2.01339 -2.72485 0
M  V30 1690 C 152.285 -1.90074 -3.24883 0
M  V30 1691 C 151.432 -1.94498 -1.97651 0
M  V30 1692 H 154.383 -1.39693 -0.753091 0
M  V30 1693 H 154.404 -1.56319 -3.46907 0
M  V30 1694 H 153.916 -3.04577 -2.40529 0
M  V30 1695 H 152.017 -0.897827 -3.61621 0
M  V30 1696 H 152.13 -2.75778 -3.9177 0
M  V30 1697 H 150.494 -1.38591 -2.13693 0
M  V30 1698 H 151.277 -2.99372 -1.68022 0
M  V30 1699 N 153.722 1.14298 -1.08507 0
M  V30 1700 C 154.652 2.21542 -0.737646 0
M  V30 1701 C 155.633 1.67773 0.280377 0
M  V30 1702 O 156.818 1.93616 0.150521 0
M  V30 1703 C 153.948 3.46988 -0.147259 0
M  V30 1704 C 152.902 4.13789 -1.09374 0
M  V30 1705 C 152.228 5.33449 -0.365524 0
M  V30 1706 C 153.528 4.62208 -2.4323 0
M  V30 1707 H 155.222 2.5086 -1.6343 0
M  V30 1708 H 152.768 1.20576 -0.787243 0
M  V30 1709 H 154.721 4.21262 0.107808 0
M  V30 1710 H 153.445 3.17037 0.784538 0
M  V30 1711 H 152.104 3.4147 -1.33393 0
M  V30 1712 H 151.752 4.99759 0.57011 0
M  V30 1713 H 151.452 5.79088 -0.996512 0
M  V30 1714 H 152.976 6.10485 -0.118534 0
M  V30 1715 H 154.39 5.27952 -2.23472 0
M  V30 1716 H 152.787 5.18553 -3.02031 0
M  V30 1717 H 153.857 3.77224 -3.04681 0
M  V30 1718 N 155.201 0.870884 1.31352 0
M  V30 1719 C 156.449 0.48132 1.96285 0
M  V30 1720 C 156.77 -0.969813 1.69173 0
M  V30 1721 O 156.04 -1.67998 1.00764 0
M  V30 1722 H 154.62 0.175002 0.726212 0
M  V30 1723 H 157.282 1.11087 1.60143 0
M  V30 1724 H 156.378 0.639825 3.05471 0
M  V30 1725 N 156.679 -1.44442 0.630414 0
M  V30 1726 C 157.925 -2.02351 0.134816 0
M  V30 1727 C 158.258 -1.4947 -1.23986 0
M  V30 1728 O 157.533 -0.678475 -1.82283 0
M  V30 1729 C 157.816 -3.59898 0.120707 0
M  V30 1730 C 157.669 -4.23063 1.52767 0
M  V30 1731 C 158.988 -4.36585 -0.555127 0
M  V30 1732 H 156.107 -0.73527 0.0504646 0
M  V30 1733 H 158.749 -1.72022 0.806751 0
M  V30 1734 H 156.899 -3.85868 -0.451477 0
M  V30 1735 H 158.571 -4.08202 2.14869 0
M  V30 1736 H 156.814 -3.80586 2.08175 0
M  V30 1737 H 157.485 -5.32071 1.46984 0
M  V30 1738 H 159.961 -4.16044 -0.0685429 0
M  V30 1739 H 158.837 -5.46294 -0.534185 0
M  V30 1740 H 159.098 -4.11138 -1.62535 0
M  V30 1741 N 158.157 -0.370918 -1.53173 0
M  V30 1742 C 159.403 0.217423 -2.01631 0
M  V30 1743 C 159.736 1.47983 -1.25756 0
M  V30 1744 O 159.011 1.91274 -0.352764 0
M  V30 1745 C 159.294 0.503982 -3.56556 0
M  V30 1746 C 159.147 -0.77243 -4.43118 0
M  V30 1747 C 160.466 1.30234 -4.20389 0
M  V30 1748 H 157.585 0.0775486 -0.732909 0
M  V30 1749 H 160.227 -0.496863 -1.83388 0
M  V30 1750 H 158.377 1.11248 -3.72231 0
M  V30 1751 H 160.049 -1.4098 -4.39229 0
M  V30 1752 H 158.292 -1.39167 -4.10871 0
M  V30 1753 H 158.963 -0.526815 -5.4948 0
M  V30 1754 H 161.439 0.787546 -4.08579 0
M  V30 1755 H 160.315 1.47158 -5.28806 0
M  V30 1756 H 160.576 2.31237 -3.76805 0
M  V30 1757 N 159.635 1.57281 -0.100228 0
M  V30 1758 C 160.565 2.17328 0.853857 0
M  V30 1759 C 161.546 1.10804 1.2906 0
M  V30 1760 O 162.731 1.38963 1.35657 0
M  V30 1761 C 159.861 2.75772 2.11109 0
M  V30 1762 C 158.815 3.87713 1.81279 0
M  V30 1763 C 158.141 4.32882 3.13874 0
M  V30 1764 C 159.441 5.10677 1.09574 0
M  V30 1765 H 161.135 2.97305 0.353545 0
M  V30 1766 H 158.681 1.43009 0.168612 0
M  V30 1767 H 160.634 3.16433 2.78296 0
M  V30 1768 H 159.358 1.93057 2.63432 0
M  V30 1769 H 158.017 3.476 1.16489 0
M  V30 1770 H 157.665 3.47051 3.64095 0
M  V30 1771 H 157.365 5.08358 2.94696 0
M  V30 1772 H 158.889 4.7618 3.82211 0
M  V30 1773 H 160.303 5.48474 1.66879 0
M  V30 1774 H 158.7 5.91615 1.00557 0
M  V30 1775 H 159.77 4.84835 0.0793299 0
M  V30 1776 N 161.113 -0.173488 1.56642 0
M  V30 1777 C 162.359 -0.891784 1.8214 0
M  V30 1778 C 162.692 -1.8199 0.677736 0
M  V30 1779 O 161.967 -1.91842 -0.320446 0
M  V30 1780 C 162.25 -1.68933 3.18015 0
M  V30 1781 C 162.103 -0.784487 4.42906 0
M  V30 1782 C 163.422 -2.65748 3.50808 0
M  V30 1783 H 160.541 -0.322761 0.662567 0
M  V30 1784 H 163.183 -0.158095 1.89341 0
M  V30 1785 H 161.333 -2.31482 3.12007 0
M  V30 1786 H 163.005 -0.172046 4.60979 0
M  V30 1787 H 161.248 -0.0924117 4.33702 0
M  V30 1788 H 161.919 -1.37799 5.34524 0
M  V30 1789 H 164.395 -2.13327 3.57255 0
M  V30 1790 H 163.271 -3.18619 4.4696 0
M  V30 1791 H 163.532 -3.45842 2.75401 0
M  V30 1792 N 162.591 -1.51276 -0.441967 0
M  V30 1793 C 163.84 -1.6295 -1.18871 0
M  V30 1794 C 164.153 -0.349312 -1.92456 0
M  V30 1795 O 165.359 -0.345355 -2.69295 0
M  V30 1796 C 163.815 -2.87759 -2.16155 0
M  V30 1797 C 163.423 -4.22764 -1.48239 0
M  V30 1798 C 165.167 -3.08788 -2.91291 0
M  V30 1799 C 163.074 -5.38728 -2.4398 0
M  V30 1800 H 162.004 -0.606913 -0.447406 0
M  V30 1801 H 164.655 -1.77739 -0.456205 0
M  V30 1802 H 163.037 -2.66593 -2.92821 0
M  V30 1803 H 164.211 -4.54293 -0.771635 0
M  V30 1804 H 162.526 -4.07575 -0.852741 0
M  V30 1805 H 165.123 -3.92599 -3.63002 0
M  V30 1806 H 165.466 -2.21679 -3.5237 0
M  V30 1807 H 165.999 -3.30272 -2.21733 0
M  V30 1808 H 162.738 -6.28082 -1.87598 0
M  V30 1809 H 162.258 -5.1158 -3.13123 0
M  V30 1810 H 163.937 -5.70489 -3.05207 0
M  V30 1811 N 164.069 0.697108 -1.41344 0
M  V30 1812 C 165.317 1.45426 -1.40341 0
M  V30 1813 C 165.638 1.94996 -0.0128787 0
M  V30 1814 O 164.908 1.71599 0.945027 0
M  V30 1815 H 163.488 0.539594 -0.516573 0
M  V30 1816 H 166.15 0.825201 -1.76569 0
M  V30 1817 H 165.246 2.31817 -2.08967 0
M  V30 1818 N 165.547 1.27147 0.931209 0
M  V30 1819 C 166.775 1.16082 1.71267 0
M  V30 1820 C 167.19 -0.282772 1.8667 0
M  V30 1821 O 166.547 -1.19283 1.38122 0
M  V30 1822 C 166.598 1.8358 3.11417 0
M  V30 1823 O 166.319 3.22299 2.96741 0
M  V30 1824 C 167.82 1.78597 4.05732 0
M  V30 1825 H 165.04 0.403758 0.535929 0
M  V30 1826 H 167.584 1.67953 1.16671 0
M  V30 1827 H 165.739 1.35623 3.62885 0
M  V30 1828 H 166.153 3.55851 3.85319 0
M  V30 1829 H 167.627 2.30444 5.01597 0
M  V30 1830 H 168.104 0.754564 4.3267 0
M  V30 1831 H 168.71 2.26152 3.60188 0
M  V30 1832 N 167.025 -1.13721 1.09112 0
M  V30 1833 C 168.271 -1.85413 0.836283 0
M  V30 1834 C 168.626 -1.8175 -0.631249 0
M  V30 1835 O 167.919 -1.24238 -1.45861 0
M  V30 1836 C 168.113 -3.32861 1.30146 0
M  V30 1837 C 167.942 -3.50882 2.81268 0
M  V30 1838 C 166.712 -3.65312 3.49106 0
M  V30 1839 C 168.91 -3.47196 3.7942 0
M  V30 1840 N 166.892 -3.71563 4.88686 0
M  V30 1841 C 168.263 -3.59777 5.04936 0
M  V30 1842 C 170.318 -3.30577 3.72321 0
M  V30 1843 C 169.021 -3.57455 6.24194 0
M  V30 1844 C 171.047 -3.29562 4.91063 0
M  V30 1845 C 170.409 -3.42691 6.15421 0
M  V30 1846 H 166.508 -0.694812 0.358832 0
M  V30 1847 H 169.092 -1.36246 1.39087 0
M  V30 1848 H 167.263 -3.80602 0.774361 0
M  V30 1849 H 168.995 -3.92346 0.99229 0
M  V30 1850 H 165.75 -3.6685 2.9953 0
M  V30 1851 H 166.174 -3.78387 5.61384 0
M  V30 1852 H 170.816 -3.19332 2.77105 0
M  V30 1853 H 168.534 -3.67475 7.19714 0
M  V30 1854 H 172.12 -3.17905 4.87266 0
M  V30 1855 H 171 -3.41862 7.05762 0
M  V30 1856 N 168.503 -0.877838 -1.30888 0
M  V30 1857 C 169.451 -0.328662 -2.30266 0
M  V30 1858 C 170.445 0.560496 -1.59859 0
M  V30 1859 O 171.651 0.445722 -1.74394 0
M  V30 1860 H 168.026 -0.0876142 -0.746879 0
M  V30 1861 H 169.997 -1.18061 -2.74051 0
M  V30 1862 C 168.746 0.448071 -3.44801 0
M  V30 1863 H 168.069 -0.226859 -3.99156 0
M  V30 1864 H 169.509 0.797541 -4.16432 0
M  V30 1865 C 167.968 1.64239 -2.94155 0
M  V30 1866 O 168.498 2.74175 -2.93583 0
M  V30 1867 N 166.704 1.47716 -2.50256 0
M  V30 1868 H 166.251 0.582821 -2.5092 0
M  V30 1869 H 166.209 2.27765 -2.16727 0
M  V30 1870 N 169.982 1.44106 -0.638065 0
M  V30 1871 C 171.212 2.06037 -0.152394 0
M  V30 1872 C 171.62 1.47808 1.18108 0
M  V30 1873 O 170.963 0.598092 1.73691 0
M  V30 1874 C 171.025 3.59488 0.0293714 0
M  V30 1875 C 170.689 4.4022 -1.22702 0
M  V30 1876 C 171.686 4.73256 -2.15232 0
M  V30 1877 C 169.371 4.8048 -1.46437 0
M  V30 1878 C 171.365 5.45444 -3.29802 0
M  V30 1879 C 169.052 5.52417 -2.61303 0
M  V30 1880 C 170.05 5.84819 -3.52811 0
M  V30 1881 O 169.738 6.55289 -4.65673 0
M  V30 1882 H 169.47 0.671233 -0.0801401 0
M  V30 1883 H 172.024 1.85851 -0.874563 0
M  V30 1884 H 170.254 3.78191 0.806758 0
M  V30 1885 H 171.943 4.03164 0.470475 0
M  V30 1886 H 172.709 4.42684 -1.98131 0
M  V30 1887 H 168.588 4.54676 -0.760977 0
M  V30 1888 H 172.132 5.70653 -4.01249 0
M  V30 1889 H 168.029 5.82404 -2.78344 0
M  V30 1890 H 168.797 6.73762 -4.64744 0
M  V30 1891 N 171.46 0.379036 1.52974 0
M  V30 1892 C 172.871 -0.0972525 1.86447 0
M  V30 1893 C 173.222 -1.47027 1.29914 0
M  V30 1894 O 172.347 -2.07135 0.626433 0
M  V30 1895 C 172.942 -0.183248 3.38304 0
M  V30 1896 C 171.501 -0.603812 3.71525 0
M  V30 1897 C 170.648 0.240632 2.76254 0
M  V30 1898 H 173.599 0.597316 1.4703 0
M  V30 1899 H 173.62 -1.00432 3.67006 0
M  V30 1900 H 173.132 0.816191 3.79421 0
M  V30 1901 H 171.233 -1.61099 3.35973 0
M  V30 1902 H 171.346 -0.369086 4.77676 0
M  V30 1903 H 169.71 -0.292548 2.53014 0
M  V30 1904 H 170.493 1.23786 3.20206 0
M  V30 1905 N 172.938 -1.57226 0.108567 0
M  V30 1906 C 174.185 -1.94833 -0.551943 0
M  V30 1907 C 174.513 -0.991204 -1.67348 0
M  V30 1908 O 173.768 -0.0131878 -1.95696 0
M  V30 1909 C 174.067 -3.38911 -1.13463 0
M  V30 1910 C 173.733 -4.50696 -0.135509 0
M  V30 1911 C 172.395 -4.80998 0.139252 0
M  V30 1912 C 174.747 -5.18333 0.545957 0
M  V30 1913 C 172.075 -5.76259 1.10194 0
M  V30 1914 C 174.427 -6.14627 1.49721 0
M  V30 1915 C 173.091 -6.43327 1.78006 0
M  V30 1916 H 172.361 -0.712944 -0.20197 0
M  V30 1917 H 175.008 -1.90582 0.18726 0
M  V30 1918 H 173.313 -3.39805 -1.95037 0
M  V30 1919 H 175.01 -3.65317 -1.65362 0
M  V30 1920 H 171.6 -4.27087 -0.359846 0
M  V30 1921 H 175.784 -4.95087 0.346842 0
M  V30 1922 H 171.04 -5.96804 1.32795 0
M  V30 1923 H 175.214 -6.66126 2.03099 0
M  V30 1924 H 172.841 -7.1695 2.52759 0
M  V30 1925 N 174.416 0.165178 -1.56732 0
M  V30 1926 C 175.364 1.22369 -1.97809 0
M  V30 1927 C 176.358 1.45488 -0.867741 0
M  V30 1928 O 177.564 1.45995 -1.05288 0
M  V30 1929 H 173.939 0.411486 -0.629431 0
M  V30 1930 H 175.91 0.850425 -2.86025 0
M  V30 1931 C 174.659 2.55403 -2.35934 0
M  V30 1932 H 173.982 2.38438 -3.20916 0
M  V30 1933 H 175.422 3.2814 -2.68514 0
M  V30 1934 C 173.881 3.14611 -1.20506 0
M  V30 1935 O 174.411 3.98626 -0.496016 0
M  V30 1936 N 172.617 2.7379 -0.97403 0
M  V30 1937 H 172.164 2.0557 -1.55238 0
M  V30 1938 H 172.122 3.1374 -0.203573 0
M  V30 1939 N 175.894 1.51508 0.433938 0
M  V30 1940 C 176.824 1.76016 1.53429 0
M  V30 1941 C 177.805 0.610112 1.58782 0
M  V30 1942 O 178.99 0.853177 1.74455 0
M  V30 1943 C 176.12 1.88831 2.9148 0
M  V30 1944 C 175.074 3.04288 3.00987 0
M  V30 1945 C 174.4 3.0229 4.4105 0
M  V30 1946 C 175.7 4.44193 2.74754 0
M  V30 1947 H 177.394 2.68152 1.33171 0
M  V30 1948 H 174.94 1.29035 0.639214 0
M  V30 1949 H 176.893 2.04559 3.6842 0
M  V30 1950 H 175.617 0.933455 3.12976 0
M  V30 1951 H 174.276 2.8827 2.26486 0
M  V30 1952 H 173.924 2.04576 4.59519 0
M  V30 1953 H 173.624 3.79822 4.4834 0
M  V30 1954 H 175.148 3.20116 5.1996 0
M  V30 1955 H 176.562 4.60544 3.41426 0
M  V30 1956 H 174.959 5.23457 2.9345 0
M  V30 1957 H 176.029 4.53996 1.70339 0
M  V30 1958 N 177.372 -0.689602 1.41712 0
M  V30 1959 C 178.6 -1.47827 1.44758 0
M  V30 1960 C 179.015 -1.88721 0.0545703 0
M  V30 1961 O 178.372 -1.57176 -0.927463 0
M  V30 1962 C 178.423 -2.73698 2.3616 0
M  V30 1963 O 178.144 -2.34524 3.7004 0
M  V30 1964 C 179.645 -3.67389 2.48072 0
M  V30 1965 H 176.865 -0.455357 0.49284 0
M  V30 1966 H 179.409 -0.848574 1.86063 0
M  V30 1967 H 177.564 -3.32891 1.98148 0
M  V30 1968 H 177.978 -3.15701 4.18847 0
M  V30 1969 H 179.452 -4.52475 3.16181 0
M  V30 1970 H 179.929 -4.12284 1.51388 0
M  V30 1971 H 180.535 -3.14097 2.86746 0
M  V30 1972 N 178.85 -1.27639 -0.924453 0
M  V30 1973 C 180.099 -1.13549 -1.66702 0
M  V30 1974 C 180.412 0.317487 -1.93006 0
M  V30 1975 O 181.618 0.579333 -2.65247 0
M  V30 1976 C 180.074 -1.98426 -3.00259 0
M  V30 1977 C 179.682 -3.484 -2.81641 0
M  V30 1978 C 181.426 -1.92993 -3.78092 0
M  V30 1979 C 179.333 -4.25464 -4.10773 0
M  V30 1980 H 178.263 -0.421351 -0.625283 0
M  V30 1981 H 180.914 -1.52085 -1.02676 0
M  V30 1982 H 179.296 -1.52736 -3.6536 0
M  V30 1983 H 180.47 -4.01973 -2.25287 0
M  V30 1984 H 178.785 -3.55245 -2.17232 0
M  V30 1985 H 181.382 -2.47844 -4.7379 0
M  V30 1986 H 181.725 -0.904281 -4.0636 0
M  V30 1987 H 182.258 -2.36595 -3.19793 0
M  V30 1988 H 178.997 -5.28566 -3.87683 0
M  V30 1989 H 178.517 -3.76667 -4.66779 0
M  V30 1990 H 180.196 -4.34812 -4.79111 0
M  V30 1991 N 180.328 1.1314 -1.09713 0
M  V30 1992 C 181.26 2.18343 -0.697056 0
M  V30 1993 C 182.273 1.60669 0.262551 0
M  V30 1994 O 183.462 1.78435 0.0481527 0
M  V30 1995 C 180.562 3.38899 -0.00684728 0
M  V30 1996 C 179.735 4.26078 -0.988741 0
M  V30 1997 C 178.794 5.25155 -0.331394 0
M  V30 1998 O 177.82 5.60701 -0.979926 0
M  V30 1999 N 179.022 5.73271 0.913261 0
M  V30 2000 H 181.787 2.5328 -1.60216 0
M  V30 2001 H 179.348 1.28491 -0.984971 0
M  V30 2002 H 181.34 4.02255 0.444191 0
M  V30 2003 H 179.91 3.02175 0.800551 0
M  V30 2004 H 179.13 3.59453 -1.61826 0
M  V30 2005 H 180.418 4.81178 -1.65364 0
M  V30 2006 H 179.816 5.46544 1.45966 0
M  V30 2007 H 178.373 6.3855 1.30757 0
M  V30 2008 N 181.806 0.884767 1.30421 0
M  V30 2009 C 183.217 0.553656 1.78302 0
M  V30 2010 C 183.568 -0.930153 1.7275 0
M  V30 2011 O 182.693 -1.72681 1.30423 0
M  V30 2012 C 183.288 0.998234 3.2376 0
M  V30 2013 C 181.847 0.71854 3.69478 0
M  V30 2014 C 180.994 1.18132 2.50879 0
M  V30 2015 H 183.945 1.06901 1.17294 0
M  V30 2016 H 183.966 0.327118 3.79091 0
M  V30 2017 H 183.478 2.0782 3.27769 0
M  V30 2018 H 181.579 -0.349444 3.70958 0
M  V30 2019 H 181.692 1.30595 4.60958 0
M  V30 2020 H 180.056 0.600669 2.47516 0
M  V30 2021 H 180.839 2.26902 2.57624 0
M  V30 2022 N 183.284 -1.43765 0.645699 0
M  V30 2023 C 184.217 -2.2798 -0.100072 0
M  V30 2024 C 185.195 -1.39391 -0.837194 0
M  V30 2025 O 186.379 -1.68833 -0.838306 0
M  V30 2026 C 183.506 -3.18643 -1.14823 0
M  V30 2027 C 182.552 -4.2344 -0.510009 0
M  V30 2028 S 183.385 -5.30761 0.710824 0
M  V30 2029 C 184.541 -6.24992 -0.33699 0
M  V30 2030 H 184.774 -2.90884 0.614322 0
M  V30 2031 H 182.307 -1.48166 0.434304 0
M  V30 2032 H 184.265 -3.71424 -1.74799 0
M  V30 2033 H 182.926 -2.54932 -1.8349 0
M  V30 2034 H 182.119 -4.86948 -1.29991 0
M  V30 2035 H 181.721 -3.73997 0.0154577 0
M  V30 2036 H 184.013 -6.66691 -1.20537 0
M  V30 2037 H 184.956 -7.07612 0.262879 0
M  V30 2038 H 185.364 -5.60517 -0.669425 0
M  V30 2039 N 184.763 -0.387143 -1.52771 0
M  V30 2040 C 186.009 0.196025 -2.0185 0
M  V30 2041 C 186.342 1.46641 -1.27319 0
M  V30 2042 O 185.617 1.90889 -0.373032 0
M  V30 2043 C 185.9 0.466136 -3.5707 0
M  V30 2044 C 185.753 -0.819385 -4.42274 0
M  V30 2045 C 187.072 1.25768 -4.21747 0
M  V30 2046 H 184.191 0.0697708 -0.73369 0
M  V30 2047 H 186.833 -0.516286 -1.82851 0
M  V30 2048 H 184.983 1.07293 -3.7339 0
M  V30 2049 H 186.655 -1.4563 -4.37709 0
M  V30 2050 H 184.898 -1.43517 -4.09372 0
M  V30 2051 H 185.569 -0.585065 -5.48891 0
M  V30 2052 H 188.045 0.744167 -4.09391 0
M  V30 2053 H 186.921 1.41541 -5.30337 0
M  V30 2054 H 187.182 2.27228 -3.79236 0
M  V30 2055 N 186.241 1.57166 -0.116904 0
M  V30 2056 C 187.489 1.94737 0.540533 0
M  V30 2057 C 187.81 1.00096 1.67349 0
M  V30 2058 O 187.08 0.0568854 1.95817 0
M  V30 2059 H 185.66 0.718981 0.202669 0
M  V30 2060 H 188.322 1.94017 -0.185353 0
M  V30 2061 H 187.418 2.97719 0.936483 0
M  V30 2062 N 187.719 -0.156864 1.56817 0
M  V30 2063 C 188.682 -1.17781 1.96622 0
M  V30 2064 C 189.682 -1.36401 0.851555 0
M  V30 2065 O 190.872 -1.33561 1.11836 0
M  V30 2066 C 188.004 -2.54008 2.27361 0
M  V30 2067 H 189.197 -0.836564 2.87996 0
M  V30 2068 H 186.75 -0.39985 1.51099 0
M  V30 2069 H 187.485 -2.9312 1.38748 0
M  V30 2070 H 187.27 -2.41856 3.08623 0
M  V30 2071 H 188.76 -3.27558 2.59029 0
M  V30 2072 N 189.197 -1.51736 -0.425897 0
M  V30 2073 C 190.446 -1.64201 -1.17136 0
M  V30 2074 C 190.759 -0.369705 -1.92074 0
M  V30 2075 O 191.965 -0.373898 -2.68913 0
M  V30 2076 C 190.421 -2.90035 -2.13091 0
M  V30 2077 C 190.029 -4.24312 -1.43747 0
M  V30 2078 C 191.773 -3.1186 -2.87999 0
M  V30 2079 C 189.68 -5.41285 -2.38253 0
M  V30 2080 H 188.61 -0.611624 -0.440944 0
M  V30 2081 H 191.261 -1.78212 -0.437328 0
M  V30 2082 H 189.643 -2.69684 -2.89977 0
M  V30 2083 H 190.817 -4.55086 -0.723408 0
M  V30 2084 H 189.132 -4.08456 -0.809465 0
M  V30 2085 H 191.729 -3.96427 -3.58817 0
M  V30 2086 H 192.072 -2.25403 -3.49999 0
M  V30 2087 H 192.605 -3.32605 -2.18217 0
M  V30 2088 H 189.344 -6.30037 -1.80925 0
M  V30 2089 H 188.864 -5.14872 -3.0768 0
M  V30 2090 H 190.543 -5.73694 -2.99139 0
M  V30 2091 N 190.675 0.682077 -1.42076 0
M  V30 2092 C 191.638 1.77756 -1.44691 0
M  V30 2093 C 192.638 1.5726 -0.335535 0
M  V30 2094 O 193.828 1.63686 -0.596037 0
M  V30 2095 C 190.96 3.16301 -1.27146 0
M  V30 2096 H 192.153 1.76826 -2.42224 0
M  V30 2097 H 189.706 0.891012 -1.28416 0
M  V30 2098 H 190.441 3.22862 -0.305075 0
M  V30 2099 H 190.226 3.32581 -2.07683 0
M  V30 2100 H 191.716 3.96241 -1.31843 0
M  V30 2101 N 192.153 1.28127 0.917671 0
M  V30 2102 C 193.116 1.11744 2.00115 0
M  V30 2103 C 194.116 0.0583052 1.60694 0
M  V30 2104 O 195.306 0.303755 1.71531 0
M  V30 2105 C 192.438 0.704862 3.33533 0
M  V30 2106 H 193.631 2.07966 2.16079 0
M  V30 2107 H 191.184 1.11058 1.09981 0
M  V30 2108 H 191.919 -0.258299 3.2327 0
M  V30 2109 H 191.704 1.4699 3.63505 0
M  V30 2110 H 193.194 0.612768 4.1308 0
M  V30 2111 N 193.631 -1.12557 1.10312 0
M  V30 2112 C 194.879 -1.83675 0.843091 0
M  V30 2113 C 195.2 -1.84435 -0.633131 0
M  V30 2114 O 194.47 -1.30657 -1.45964 0
M  V30 2115 H 193.05 -0.680138 0.308904 0
M  V30 2116 H 195.712 -1.36301 1.39313 0
M  V30 2117 H 194.808 -2.87908 1.2048 0
M  V30 2118 N 195.109 -0.891671 -1.2995 0
M  V30 2119 C 196.057 -0.353066 -2.29905 0
M  V30 2120 C 197.051 0.543509 -1.60444 0
M  V30 2121 O 198.257 0.4272 -1.74857 0
M  V30 2122 H 194.632 -0.095531 -0.745907 0
M  V30 2123 H 196.603 -1.20961 -2.72784 0
M  V30 2124 C 195.352 0.411475 -3.45257 0
M  V30 2125 H 194.675 -0.269182 -3.98893 0
M  V30 2126 H 196.115 0.753328 -4.17254 0
M  V30 2127 C 194.574 1.6111 -2.9588 0
M  V30 2128 O 195.104 2.71045 -2.96475 0
M  V30 2129 N 193.31 1.45054 -2.51809 0
M  V30 2130 H 192.857 0.556175 -2.51524 0
M  V30 2131 H 192.815 2.25453 -2.1913 0
M  V30 2132 N 196.587 1.43421 -0.653314 0
M  V30 2133 C 197.812 2.06678 -0.172846 0
M  V30 2134 C 198.237 1.48648 1.15262 0
M  V30 2135 O 197.595 0.596457 1.71208 0
M  V30 2136 C 197.643 3.60474 -0.0953184 0
M  V30 2137 O 196.747 4.01487 0.942442 0
M  V30 2138 H 196.088 0.657181 -0.0949155 0
M  V30 2139 H 198.618 1.83925 -0.896265 0
M  V30 2140 H 198.628 4.07905 0.0879728 0
M  V30 2141 H 197.303 4.02088 -1.06291 0
M  V30 2142 H 195.88 3.65646 0.731932 0
M  V30 2143 N 198.065 0.39524 1.52563 0
M  V30 2144 C 199.311 -0.185318 2.01952 0
M  V30 2145 C 199.644 -1.45964 1.28095 0
M  V30 2146 O 198.919 -1.90689 0.38315 0
M  V30 2147 C 199.202 -0.447193 3.57312 0
M  V30 2148 C 199.055 0.842828 4.41833 0
M  V30 2149 C 200.374 -1.23529 4.22408 0
M  V30 2150 H 197.493 -0.0658788 0.73405 0
M  V30 2151 H 200.135 0.525975 1.82575 0
M  V30 2152 H 198.285 -1.05312 3.73954 0
M  V30 2153 H 199.957 1.4795 4.36931 0
M  V30 2154 H 198.2 1.45686 4.08605 0
M  V30 2155 H 198.871 0.614165 5.48573 0
M  V30 2156 H 201.347 -0.722445 4.0978 0
M  V30 2157 H 200.223 -1.38727 5.3108 0
M  V30 2158 H 200.484 -2.25213 3.80436 0
M  V30 2159 N 199.544 -1.57102 0.125237 0
M  V30 2160 C 200.79 -1.95697 -0.532035 0
M  V30 2161 C 201.123 -1.009 -1.6593 0
M  V30 2162 O 200.398 -0.047347 -1.94442 0
M  V30 2163 C 200.681 -3.44181 -1.05884 0
M  V30 2164 C 200.534 -4.49752 0.0654392 0
M  V30 2165 C 201.853 -3.94655 -1.9477 0
M  V30 2166 H 198.972 -0.711571 -0.191925 0
M  V30 2167 H 201.614 -1.88923 0.20206 0
M  V30 2168 H 199.764 -3.50085 -1.68442 0
M  V30 2169 H 201.436 -4.55943 0.700982 0
M  V30 2170 H 199.679 -4.27653 0.727709 0
M  V30 2171 H 200.35 -5.50924 -0.344505 0
M  V30 2172 H 202.826 -3.91094 -1.42074 0
M  V30 2173 H 201.702 -4.99057 -2.28546 0
M  V30 2174 H 201.963 -3.35718 -2.87656 0
M  V30 2175 N 201.022 0.148545 -1.56898 0
M  V30 2176 C 201.952 1.18524 -2.01182 0
M  V30 2177 C 202.933 1.4489 -0.891123 0
M  V30 2178 O 204.118 1.55836 -1.15882 0
M  V30 2179 C 201.248 2.51879 -2.39112 0
M  V30 2180 C 200.202 2.40038 -3.54353 0
M  V30 2181 C 199.528 3.78089 -3.78091 0
M  V30 2182 C 200.828 1.88577 -4.87069 0
M  V30 2183 H 202.522 0.817029 -2.88036 0
M  V30 2184 H 200.068 0.391575 -1.38574 0
M  V30 2185 H 202.021 3.24627 -2.68692 0
M  V30 2186 H 200.745 2.90532 -1.49193 0
M  V30 2187 H 199.404 1.69742 -3.24936 0
M  V30 2188 H 199.052 4.14175 -2.85426 0
M  V30 2189 H 198.752 3.71028 -4.55645 0
M  V30 2190 H 200.276 4.52387 -4.10095 0
M  V30 2191 H 201.69 2.51117 -5.15377 0
M  V30 2192 H 200.087 1.9241 -5.68417 0
M  V30 2193 H 201.157 0.84136 -4.77545 0
M  V30 2194 N 202.5 1.5196 0.417844 0
M  V30 2195 C 203.447 1.74678 1.50852 0
M  V30 2196 C 204.417 0.588947 1.55308 0
M  V30 2197 O 205.602 0.825544 1.72016 0
M  V30 2198 C 202.742 1.89544 2.88387 0
M  V30 2199 C 201.855 3.17166 2.93309 0
M  V30 2200 C 200.99 3.22513 4.22088 0
M  V30 2201 C 200.029 4.44372 4.20951 0
M  V30 2202 N 199.166 4.47161 5.41287 0
M  V30 2203 H 204.006 2.67768 1.30783 0
M  V30 2204 H 201.543 1.32689 0.63498 0
M  V30 2205 H 203.501 1.96146 3.68216 0
M  V30 2206 H 202.131 0.998424 3.06971 0
M  V30 2207 H 201.183 3.19778 2.06024 0
M  V30 2208 H 202.495 4.07021 2.88332 0
M  V30 2209 H 201.649 3.28139 5.10303 0
M  V30 2210 H 200.388 2.30581 4.29748 0
M  V30 2211 H 199.393 4.38902 3.31127 0
M  V30 2212 H 200.618 5.3759 4.14938 0
M  V30 2213 H 198.564 3.58108 5.49632 0
M  V30 2214 H 198.481 5.3085 5.3827 0
M  V30 2215 H 199.749 4.57005 6.3148 0
M  V30 2216 N 203.978 -0.674533 1.42435 0
M  V30 2217 C 205.389 -1.25514 1.38214 0
M  V30 2218 C 205.74 -1.96055 0.0755464 0
M  V30 2219 O 204.865 -2.00028 -0.8257 0
M  V30 2220 C 205.46 -2.28269 2.50357 0
M  V30 2221 C 204.019 -2.81856 2.49467 0
M  V30 2222 C 203.166 -1.56182 2.29134 0
M  V30 2223 H 206.117 -0.467902 1.51646 0
M  V30 2224 H 206.138 -3.10009 2.20624 0
M  V30 2225 H 205.65 -1.769 3.45439 0
M  V30 2226 H 203.751 -3.37346 1.58204 0
M  V30 2227 H 203.864 -3.30854 3.46515 0
M  V30 2228 H 202.228 -1.82761 1.774 0
M  V30 2229 H 203.011 -1.06778 3.26272 0
M  V30 2230 N 205.456 -1.28612 -0.910864 0
M  V30 2231 C 206.681 -1.1891 -1.69927 0
M  V30 2232 C 207.106 0.248372 -1.86453 0
M  V30 2233 O 206.464 1.17961 -1.37676 0
M  V30 2234 C 206.512 -1.89578 -3.06745 0
M  V30 2235 O 205.616 -1.20521 -3.94396 0
M  V30 2236 H 204.957 -0.412632 -0.520222 0
M  V30 2237 H 207.487 -1.69985 -1.1387 0
M  V30 2238 H 207.497 -1.97597 -3.56958 0
M  V30 2239 H 206.172 -2.94136 -2.94035 0
M  V30 2240 H 204.749 -1.20684 -3.52831 0
M  V30 2241 N 206.934 1.1197 -1.10907 0
M  V30 2242 C 207.844 2.21433 -0.774896 0
M  V30 2243 C 208.86 1.72478 0.229657 0
M  V30 2244 O 210.036 2.01288 0.0672008 0
M  V30 2245 C 207.101 3.4602 -0.216986 0
M  V30 2246 C 206.162 4.09791 -1.27944 0
M  V30 2247 C 205.395 5.28431 -0.748055 0
M  V30 2248 O 205.618 5.68823 0.423833 0
M  V30 2249 O 204.552 5.82644 -1.51027 0
M  V30 2250 H 208.378 2.5242 -1.68873 0
M  V30 2251 H 205.963 1.20399 -0.884555 0
M  V30 2252 H 207.845 4.21304 0.090059 0
M  V30 2253 H 206.52 3.16698 0.669633 0
M  V30 2254 H 205.427 3.36265 -1.63941 0
M  V30 2255 H 206.76 4.4328 -2.13925 0
M  V30 2256 N 208.412 0.89855 1.29475 0
M  V30 2257 C 209.342 0.39201 2.30186 0
M  V30 2258 C 210.323 -0.532359 1.61555 0
M  V30 2259 O 211.508 -0.443331 1.89072 0
M  V30 2260 C 208.638 -0.382353 3.45189 0
M  V30 2261 C 207.592 0.451483 4.25612 0
M  V30 2262 C 206.918 -0.450307 5.328 0
M  V30 2263 C 208.218 1.70079 4.93832 0
M  V30 2264 H 209.912 1.23362 2.72804 0
M  V30 2265 H 207.458 0.594638 1.31149 0
M  V30 2266 H 209.411 -0.747451 4.14718 0
M  V30 2267 H 208.135 -1.25774 3.01411 0
M  V30 2268 H 206.794 0.798897 3.57789 0
M  V30 2269 H 206.442 -1.32379 4.85268 0
M  V30 2270 H 206.142 0.103902 5.87508 0
M  V30 2271 H 207.666 -0.811623 6.05182 0
M  V30 2272 H 209.08 1.40549 5.55805 0
M  V30 2273 H 207.477 2.19623 5.58467 0
M  V30 2274 H 208.547 2.43744 4.19186 0
M  V30 2275 N 209.89 -1.43072 0.660911 0
M  V30 2276 C 211.115 -2.06584 0.183805 0
M  V30 2277 C 211.54 -1.49257 -1.14472 0
M  V30 2278 O 210.898 -0.605528 -1.70889 0
M  V30 2279 C 210.946 -3.60418 0.114434 0
M  V30 2280 O 210.05 -4.01981 -0.921137 0
M  V30 2281 H 209.391 -0.656669 0.0983994 0
M  V30 2282 H 211.921 -1.83447 0.906006 0
M  V30 2283 H 211.931 -4.07946 -0.0663394 0
M  V30 2284 H 210.606 -4.01519 1.08422 0
M  V30 2285 H 209.183 -3.66029 -0.71253 0
M  V30 2286 N 211.368 -0.403325 -1.52352 0
M  V30 2287 C 212.278 0.432009 -2.30588 0
M  V30 2288 C 213.294 1.05884 -1.38075 0
M  V30 2289 O 214.47 1.06161 -1.71148 0
M  V30 2290 C 211.535 1.53669 -3.10784 0
M  V30 2291 C 210.596 0.933525 -4.19027 0
M  V30 2292 C 209.829 1.98557 -4.9539 0
M  V30 2293 O 210.052 3.20283 -4.71991 0
M  V30 2294 O 208.986 1.59504 -5.80381 0
M  V30 2295 H 212.812 -0.205739 -3.03002 0
M  V30 2296 H 210.397 -0.166675 -1.48467 0
M  V30 2297 H 212.279 2.17814 -3.60742 0
M  V30 2298 H 210.954 2.15915 -2.41169 0
M  V30 2299 H 209.861 0.254954 -3.7323 0
M  V30 2300 H 211.194 0.35508 -4.90918 0
M  V30 2301 N 212.846 1.57033 -0.133567 0
M  V30 2302 C 213.794 2.17348 0.828412 0
M  V30 2303 C 214.788 1.12671 1.26498 0
M  V30 2304 O 215.994 1.30947 1.23502 0
M  V30 2305 H 212.369 0.695775 0.285309 0
M  V30 2306 H 214.34 2.96935 0.295372 0
M  V30 2307 C 213.089 2.79893 2.06289 0
M  V30 2308 H 212.412 3.60147 1.73592 0
M  V30 2309 H 213.852 3.25615 2.71572 0
M  V30 2310 C 212.311 1.77713 2.86216 0
M  V30 2311 O 212.841 1.23937 3.82103 0
M  V30 2312 N 211.047 1.47321 2.50489 0
M  V30 2313 H 210.594 1.91243 1.7258 0
M  V30 2314 H 210.552 0.79199 3.04261 0
M  V30 2315 N 214.325 -0.140222 1.56975 0
M  V30 2316 C 215.258 -1.20266 1.93936 0
M  V30 2317 C 216.236 -1.41212 0.806099 0
M  V30 2318 O 217.42 -1.55713 1.06234 0
M  V30 2319 C 214.547 -2.56037 2.21726 0
M  V30 2320 C 213.593 -2.51646 3.44349 0
M  V30 2321 S 214.426 -1.97678 4.97678 0
M  V30 2322 C 215.582 -3.35165 5.28597 0
M  V30 2323 H 215.815 -0.887358 2.83749 0
M  V30 2324 H 213.348 -0.346119 1.50471 0
M  V30 2325 H 215.306 -3.34167 2.38416 0
M  V30 2326 H 213.967 -2.84755 1.32566 0
M  V30 2327 H 213.16 -3.51608 3.61092 0
M  V30 2328 H 212.762 -1.81628 3.26936 0
M  V30 2329 H 215.054 -4.31302 5.2248 0
M  V30 2330 H 215.997 -3.23269 6.30002 0
M  V30 2331 H 216.405 -3.32614 4.56101 0
M  V30 2332 N 215.803 -1.52179 -0.40978 0
M  V30 2333 C 216.766 -1.74853 -1.48186 0
M  V30 2334 C 217.766 -0.618417 -1.48433 0
M  V30 2335 O 218.956 -0.886286 -1.49969 0
M  V30 2336 C 216.088 -1.8303 -2.87598 0
M  V30 2337 H 217.281 -2.70559 -1.29374 0
M  V30 2338 H 214.834 -1.42586 -0.640233 0
M  V30 2339 H 215.569 -0.89236 -3.11781 0
M  V30 2340 H 215.354 -2.65187 -2.88822 0
M  V30 2341 H 216.844 -2.02316 -3.65319 0
M  V30 2342 N 217.281 0.66697 -1.42791 0
M  V30 2343 C 218.506 1.46004 -1.47301 0
M  V30 2344 C 218.931 1.87894 -0.0880317 0
M  V30 2345 O 218.289 1.56502 0.915253 0
M  V30 2346 C 218.337 2.68031 -2.41229 0
M  V30 2347 O 217.441 3.6659 -1.88906 0
M  V30 2348 H 216.782 0.43832 -0.49877 0
M  V30 2349 H 219.312 0.817391 -1.87563 0
M  V30 2350 H 219.322 3.1601 -2.58073 0
M  V30 2351 H 217.997 2.36883 -3.41847 0
M  V30 2352 H 216.574 3.25661 -1.81656 0
M  V30 2353 N 218.759 1.29093 0.90403 0
M  V30 2354 C 219.689 1.16401 2.02418 0
M  V30 2355 C 220.67 0.0593085 1.69997 0
M  V30 2356 O 221.855 0.238021 1.92736 0
M  V30 2357 C 218.985 0.835233 3.37107 0
M  V30 2358 C 217.939 1.89578 3.83724 0
M  V30 2359 C 217.265 1.42041 5.15489 0
M  V30 2360 C 218.565 3.30394 4.04521 0
M  V30 2361 H 220.259 2.10109 2.13295 0
M  V30 2362 H 217.805 1.01157 1.02486 0
M  V30 2363 H 219.758 0.733169 4.14973 0
M  V30 2364 H 218.482 -0.137543 3.2631 0
M  V30 2365 H 217.141 1.98715 3.08071 0
M  V30 2366 H 216.789 0.436426 5.01103 0
M  V30 2367 H 216.489 2.12964 5.4765 0
M  V30 2368 H 218.013 1.33176 5.959 0
M  V30 2369 H 219.427 3.24123 4.72882 0
M  V30 2370 H 217.824 3.99237 4.48029 0
M  V30 2371 H 218.894 3.73692 3.09002 0
M  V30 2372 N 220.237 -1.11381 1.11499 0
M  V30 2373 C 221.167 -2.19509 0.796125 0
M  V30 2374 C 222.148 -1.68458 -0.235796 0
M  V30 2375 O 223.333 -1.93947 -0.0991344 0
M  V30 2376 C 220.463 -3.46475 0.239205 0
M  V30 2377 C 219.417 -4.10744 1.20307 0
M  V30 2378 C 218.743 -5.32293 0.50683 0
M  V30 2379 C 220.043 -4.55597 2.55399 0
M  V30 2380 H 221.737 -2.46439 1.70024 0
M  V30 2381 H 219.283 -1.18446 0.818935 0
M  V30 2382 H 221.236 -4.214 0.00392006 0
M  V30 2383 H 219.96 -3.19006 -0.700206 0
M  V30 2384 H 218.619 -3.37813 1.42399 0
M  V30 2385 H 218.267 -5.01095 -0.437408 0
M  V30 2386 H 217.967 -5.76243 1.1497 0
M  V30 2387 H 219.491 -6.09956 0.280351 0
M  V30 2388 H 220.905 -5.21841 2.37391 0
M  V30 2389 H 219.302 -5.10363 3.15673 0
M  V30 2390 H 220.372 -3.69013 3.14575 0
M  V30 2391 N 221.715 -0.905404 -1.28997 0
M  V30 2392 C 222.678 -0.392253 -2.25819 0
M  V30 2393 C 223.678 0.476753 -1.5357 0
M  V30 2394 O 224.868 0.280994 -1.71919 0
M  V30 2395 C 222 0.438588 -3.38067 0
M  V30 2396 H 223.193 -1.24743 -2.72725 0
M  V30 2397 H 220.746 -0.684051 -1.40536 0
M  V30 2398 H 221.481 1.31352 -2.96508 0
M  V30 2399 H 221.266 -0.184167 -3.91667 0
M  V30 2400 H 222.756 0.78873 -4.10084 0
M  V30 2401 N 223.193 1.4272 -0.668489 0
M  V30 2402 C 224.421 2.05966 -0.196348 0
M  V30 2403 C 224.836 1.50191 1.14403 0
M  V30 2404 O 224.193 0.639208 1.7094 0
M  V30 2405 C 224.244 3.61314 -0.115815 0
M  V30 2406 O 223.965 4.1502 -1.40322 0
M  V30 2407 C 225.466 4.41663 0.380579 0
M  V30 2408 H 222.686 0.663954 -0.0969829 0
M  V30 2409 H 225.23 1.82966 -0.913446 0
M  V30 2410 H 223.385 3.83448 0.551931 0
M  V30 2411 H 223.799 5.08832 -1.27243 0
M  V30 2412 H 225.273 5.5065 0.385848 0
M  V30 2413 H 225.75 4.15792 1.41471 0
M  V30 2414 H 226.356 4.24534 -0.255209 0
M  V30 2415 N 224.671 0.411399 1.52136 0
M  V30 2416 C 225.92 -0.165009 2.01024 0
M  V30 2417 C 226.233 -1.4603 1.30133 0
M  V30 2418 O 227.439 -2.1181 1.69849 0
M  V30 2419 C 225.895 -0.344618 3.58246 0
M  V30 2420 C 225.503 0.938716 4.38055 0
M  V30 2421 C 227.247 -0.876195 4.15359 0
M  V30 2422 C 225.154 0.726172 5.86925 0
M  V30 2423 H 224.084 -0.0654407 0.751155 0
M  V30 2424 H 226.735 0.537192 1.75461 0
M  V30 2425 H 225.117 -1.10921 3.80148 0
M  V30 2426 H 226.291 1.70963 4.27912 0
M  V30 2427 H 224.606 1.39688 3.92271 0
M  V30 2428 H 227.203 -1.05128 5.24263 0
M  V30 2429 H 227.546 -1.85152 3.7286 0
M  V30 2430 H 228.079 -0.170607 3.97434 0
M  V30 2431 H 224.818 1.67312 6.33788 0
M  V30 2432 H 224.338 -0.00540283 5.998 0
M  V30 2433 H 226.017 0.369231 6.45946 0
M  V30 2434 N 226.149 -1.5696 0.141893 0
M  V30 2435 C 227.398 -1.95135 -0.510427 0
M  V30 2436 C 227.711 -1.02896 -1.66348 0
M  V30 2437 O 228.917 -1.30629 -2.38009 0
M  V30 2438 C 227.373 -3.46876 -0.959427 0
M  V30 2439 C 226.981 -4.47691 0.166419 0
M  V30 2440 C 228.725 -3.93927 -1.58183 0
M  V30 2441 C 226.632 -5.90636 -0.300565 0
M  V30 2442 H 225.562 -0.728494 -0.194454 0
M  V30 2443 H 228.213 -1.8211 0.22542 0
M  V30 2444 H 226.595 -3.55215 -1.75038 0
M  V30 2445 H 227.769 -4.51043 0.94325 0
M  V30 2446 H 226.084 -4.10527 0.696905 0
M  V30 2447 H 228.681 -4.98158 -1.94275 0
M  V30 2448 H 229.024 -3.3519 -2.46888 0
M  V30 2449 H 229.557 -3.88484 -0.855863 0
M  V30 2450 H 226.296 -6.5318 0.550989 0
M  V30 2451 H 225.816 -5.90655 -1.04338 0
M  V30 2452 H 227.495 -6.42588 -0.754265 0
M  V30 2453 N 227.627 0.131896 -1.57047 0
M  V30 2454 C 229.038 0.690407 -1.73465 0
M  V30 2455 C 229.389 1.8094 -0.758629 0
M  V30 2456 O 228.514 2.16282 0.0713813 0
M  V30 2457 C 229.109 1.25916 -3.14532 0
M  V30 2458 C 227.668 1.76409 -3.32501 0
M  V30 2459 C 226.815 0.658579 -2.69366 0
M  V30 2460 H 229.766 -0.0939144 -1.58422 0
M  V30 2461 H 229.787 2.12892 -3.15369 0
M  V30 2462 H 229.299 0.444515 -3.85546 0
M  V30 2463 H 227.4 2.60391 -2.66509 0
M  V30 2464 H 227.513 1.88241 -4.4057 0
M  V30 2465 H 225.877 1.08899 -2.30246 0
M  V30 2466 H 226.66 -0.14487 -3.42994 0
M  V30 2467 N 229.106 1.52395 0.401703 0
M  V30 2468 C 230.038 1.72505 1.50912 0
M  V30 2469 C 231.051 0.605468 1.51122 0
M  V30 2470 O 232.24 0.880828 1.55254 0
M  V30 2471 C 229.34 1.75711 2.89791 0
M  V30 2472 C 228.513 3.04824 3.1369 0
M  V30 2473 C 227.572 2.99743 4.32482 0
M  V30 2474 O 226.598 3.73635 4.29402 0
M  V30 2475 N 227.8 2.18047 5.37992 0
M  V30 2476 H 230.565 2.68049 1.34052 0
M  V30 2477 H 228.126 1.50724 0.591084 0
M  V30 2478 H 230.118 1.69834 3.6734 0
M  V30 2479 H 228.688 0.876092 3.00072 0
M  V30 2480 H 227.908 3.2429 2.24119 0
M  V30 2481 H 229.196 3.90221 3.26504 0
M  V30 2482 H 228.594 1.57456 5.43345 0
M  V30 2483 H 227.151 2.18021 6.14256 0
M  V30 2484 N 230.584 -0.659388 1.43143 0
M  V30 2485 C 231.814 -1.44513 1.47646 0
M  V30 2486 C 232.222 -1.88981 0.0910095 0
M  V30 2487 O 231.565 -1.59702 -0.907789 0
M  V30 2488 C 231.627 -2.71663 2.35456 0
M  V30 2489 C 231.291 -2.49175 3.83094 0
M  V30 2490 C 232.288 -2.1279 4.74359 0
M  V30 2491 C 229.973 -2.63691 4.27519 0
M  V30 2492 C 231.967 -1.9121 6.08044 0
M  V30 2493 C 229.654 -2.41726 5.61259 0
M  V30 2494 C 230.652 -2.0554 6.51339 0
M  V30 2495 O 230.34 -1.838 7.82606 0
M  V30 2496 H 230.072 -0.45064 0.503884 0
M  V30 2497 H 232.626 -0.816248 1.88485 0
M  V30 2498 H 230.856 -3.37089 1.89493 0
M  V30 2499 H 232.545 -3.33595 2.31235 0
M  V30 2500 H 233.311 -2.01157 4.41317 0
M  V30 2501 H 229.19 -2.90832 3.57684 0
M  V30 2502 H 232.734 -1.62889 6.78316 0
M  V30 2503 H 228.631 -2.52959 5.9387 0
M  V30 2504 H 229.399 -1.98275 7.94122 0
M  V30 2505 N 232.062 -1.29571 -0.897171 0
M  V30 2506 C 232.992 -1.17473 -2.01798 0
M  V30 2507 C 233.973 -0.068323 -1.69963 0
M  V30 2508 O 235.158 -0.248239 -1.92607 0
M  V30 2509 C 232.288 -0.853099 -3.36659 0
M  V30 2510 C 231.242 -1.9161 -3.82713 0
M  V30 2511 C 230.568 -1.44773 -5.14728 0
M  V30 2512 C 231.868 -3.32535 -4.02763 0
M  V30 2513 H 233.562 -2.11237 -2.12177 0
M  V30 2514 H 231.108 -1.01699 -1.01948 0
M  V30 2515 H 233.061 -0.755165 -4.14578 0
M  V30 2516 H 231.785 0.120236 -3.26379 0
M  V30 2517 H 230.444 -2.00346 -3.07013 0
M  V30 2518 H 230.092 -0.462995 -5.00865 0
M  V30 2519 H 229.792 -2.15865 -5.46513 0
M  V30 2520 H 231.316 -1.36334 -5.95185 0
M  V30 2521 H 232.73 -3.26626 -4.71156 0
M  V30 2522 H 231.127 -4.01607 -4.45905 0
M  V30 2523 H 232.197 -3.75326 -3.07016 0
M  V30 2524 N 233.54 1.10788 -1.12088 0
M  V30 2525 C 234.817 1.79136 -0.785476 0
M  V30 2526 C 235.197 1.98246 0.725377 0
M  V30 2527 O 234.545 1.57258 1.65778 0
M  V30 2528 C 234.755 3.12375 -1.55636 0
M  V30 2529 C 236.103 3.8731 -1.74001 0
M  V30 2530 O 237.127 3.22085 -1.52117 0
M  V30 2531 O 235.986 5.04369 -2.10415 0
M  V30 2532 H 233.08 0.776226 -0.285311 0
M  V30 2533 H 235.626 1.1747 -1.2247 0
M  V30 2534 H 234.398 2.93863 -2.5838 0
M  V30 2535 H 234.021 3.81758 -1.11114 0
M  V30 2536 N 235.018 0.912232 1.28515 0
M  V30 2537 C 235.965 0.397954 2.27343 0
M  V30 2538 C 236.935 -0.526766 1.57526 0
M  V30 2539 O 238.12 -0.449292 1.85435 0
M  V30 2540 C 235.26 -0.357263 3.43246 0
M  V30 2541 C 234.373 0.599788 4.27816 0
M  V30 2542 C 233.508 -0.173725 5.30916 0
M  V30 2543 C 232.547 0.777039 6.07148 0
M  V30 2544 N 231.684 0.0371398 7.0209 0
M  V30 2545 H 236.524 1.24577 2.70711 0
M  V30 2546 H 234.061 0.625612 1.33133 0
M  V30 2547 H 236.019 -0.8113 4.09236 0
M  V30 2548 H 234.649 -1.16943 3.00872 0
M  V30 2549 H 233.701 1.17235 3.61884 0
M  V30 2550 H 235.013 1.32704 4.80823 0
M  V30 2551 H 234.167 -0.688394 6.02782 0
M  V30 2552 H 232.906 -0.934041 4.78672 0
M  V30 2553 H 231.911 1.3031 5.34134 0
M  V30 2554 H 233.136 1.53689 6.61481 0
M  V30 2555 H 231.082 -0.705213 6.52198 0
M  V30 2556 H 230.999 0.704249 7.52713 0
M  V30 2557 H 232.267 -0.457383 7.78157 0
M  V30 2558 N 236.496 -1.42363 0.676048 0
M  V30 2559 C 237.773 -1.95183 0.127726 0
M  V30 2560 C 238.153 -1.61641 -1.35777 0
M  V30 2561 O 237.501 -0.913216 -2.09458 0
M  V30 2562 C 237.711 -3.46721 0.398199 0
M  V30 2563 C 239.059 -4.23427 0.315383 0
M  V30 2564 O 240.083 -3.54649 0.332016 0
M  V30 2565 O 238.942 -5.45888 0.25865 0
M  V30 2566 H 236.036 -0.826992 0.00359427 0
M  V30 2567 H 238.582 -1.52184 0.750864 0
M  V30 2568 H 237.354 -3.64344 1.4272 0
M  V30 2569 H 236.977 -3.96769 -0.256885 0
M  V30 2570 N 237.974 -0.419461 -1.51915 0
M  V30 2571 C 238.904 0.391813 -2.30189 0
M  V30 2572 C 239.885 1.03699 -1.34836 0
M  V30 2573 O 241.07 1.04403 -1.63748 0
M  V30 2574 C 238.2 1.50312 -3.13087 0
M  V30 2575 C 237.154 0.9824 -4.16573 0
M  V30 2576 C 236.48 2.18809 -4.8788 0
M  V30 2577 C 237.78 0.0292356 -5.22292 0
M  V30 2578 H 239.474 -0.26135 -2.98257 0
M  V30 2579 H 237.02 -0.127134 -1.43438 0
M  V30 2580 H 238.973 2.07773 -3.66617 0
M  V30 2581 H 237.697 2.18431 -2.42807 0
M  V30 2582 H 236.356 0.430119 -3.64068 0
M  V30 2583 H 236.004 2.85507 -4.14119 0
M  V30 2584 H 235.704 1.84615 -5.57845 0
M  V30 2585 H 237.228 2.76858 -5.44226 0
M  V30 2586 H 238.642 0.512976 -5.71 0
M  V30 2587 H 237.039 -0.2244 -5.9968 0
M  V30 2588 H 238.109 -0.912931 -4.76228 0
M  V30 2589 N 239.452 1.56882 -0.150215 0
M  V30 2590 C 240.682 2.00302 0.506213 0
M  V30 2591 C 241.09 1.02934 1.58749 0
M  V30 2592 O 240.433 0.0188384 1.8369 0
M  V30 2593 C 240.495 3.40156 1.16337 0
M  V30 2594 C 240.159 4.56439 0.226311 0
M  V30 2595 C 241.156 5.17012 -0.547265 0
M  V30 2596 C 238.841 5.02136 0.128279 0
M  V30 2597 C 240.835 6.21693 -1.40629 0
M  V30 2598 C 238.522 6.06672 -0.734345 0
M  V30 2599 C 239.52 6.6632 -1.50023 0
M  V30 2600 O 239.208 7.68831 -2.34848 0
M  V30 2601 H 238.94 0.662182 0.135984 0
M  V30 2602 H 241.494 2.03961 -0.242746 0
M  V30 2603 H 239.724 3.33346 1.96004 0
M  V30 2604 H 241.413 3.67663 1.71985 0
M  V30 2605 H 242.179 4.82603 -0.48158 0
M  V30 2606 H 238.058 4.55435 0.714157 0
M  V30 2607 H 241.602 6.68179 -2.00455 0
M  V30 2608 H 237.499 6.40507 -0.801309 0
M  V30 2609 H 238.267 7.86065 -2.28131 0
M  V30 2610 N 240.93 -0.123565 1.57115 0
M  V30 2611 C 242.341 -0.681198 1.73829 0
M  V30 2612 C 242.692 -1.80535 0.768214 0
M  V30 2613 O 241.817 -2.16317 -0.0599103 0
M  V30 2614 C 242.412 -1.24246 3.15196 0
M  V30 2615 C 240.971 -1.74643 3.33432 0
M  V30 2616 C 240.118 -0.644284 2.69711 0
M  V30 2617 H 243.069 0.102315 1.5837 0
M  V30 2618 H 243.09 -2.11216 3.16493 0
M  V30 2619 H 242.602 -0.424062 3.85776 0
M  V30 2620 H 240.703 -2.58974 2.67886 0
M  V30 2621 H 240.816 -1.85902 4.41562 0
M  V30 2622 H 239.18 -1.07676 2.3082 0
M  V30 2623 H 239.963 0.163058 3.42913 0
M  V30 2624 N 242.408 -1.52605 -0.393616 0
M  V30 2625 C 243.654 -1.67672 -1.14079 0
M  V30 2626 C 243.987 -0.413121 -1.89755 0
M  V30 2627 O 243.262 0.588952 -1.85369 0
M  V30 2628 C 243.545 -2.9088 -2.12276 0
M  V30 2629 C 243.398 -4.27329 -1.40394 0
M  V30 2630 C 244.717 -3.09628 -3.12759 0
M  V30 2631 H 241.836 -0.610168 -0.413356 0
M  V30 2632 H 244.478 -1.85193 -0.424696 0
M  V30 2633 H 242.628 -2.76073 -2.73342 0
M  V30 2634 H 244.3 -4.53894 -0.82327 0
M  V30 2635 H 242.543 -4.2802 -0.705801 0
M  V30 2636 H 243.214 -5.09615 -2.12123 0
M  V30 2637 H 245.69 -3.23436 -2.61779 0
M  V30 2638 H 244.566 -3.97322 -3.78717 0
M  V30 2639 H 244.827 -2.23637 -3.81365 0
M  V30 2640 N 243.887 0.651787 -1.4349 0
M  V30 2641 C 245.136 1.40754 -1.44469 0
M  V30 2642 C 245.449 1.95463 -0.0731845 0
M  V30 2643 O 246.655 2.71471 0.0395721 0
M  V30 2644 C 245.111 2.54735 -2.5424 0
M  V30 2645 C 244.719 2.06628 -3.97504 0
M  V30 2646 C 246.463 3.32092 -2.64414 0
M  V30 2647 C 244.37 3.17829 -4.98737 0
M  V30 2648 H 243.3 0.528862 -0.53742 0
M  V30 2649 H 245.951 0.703365 -1.69485 0
M  V30 2650 H 244.333 3.2763 -2.22428 0
M  V30 2651 H 245.507 1.40734 -4.38783 0
M  V30 2652 H 243.822 1.42146 -3.91387 0
M  V30 2653 H 246.419 4.14952 -3.37223 0
M  V30 2654 H 246.762 3.80217 -1.69532 0
M  V30 2655 H 247.295 2.66279 -2.95534 0
M  V30 2656 H 244.034 2.74671 -5.95177 0
M  V30 2657 H 243.554 3.82429 -4.62069 0
M  V30 2658 H 245.233 3.82937 -5.21505 0
M  V30 2659 N 245.365 1.30045 0.890287 0
M  V30 2660 C 246.313 1.15873 2.01683 0
M  V30 2661 C 247.307 0.0719403 1.69247 0
M  V30 2662 O 248.513 0.232414 1.78493 0
M  V30 2663 H 244.888 0.358203 0.661207 0
M  V30 2664 H 246.859 2.11229 2.10772 0
M  V30 2665 C 245.608 0.861842 3.36849 0
M  V30 2666 H 244.931 1.69016 3.62317 0
M  V30 2667 H 246.371 0.802762 4.16331 0
M  V30 2668 C 244.83 -0.435132 3.34078 0
M  V30 2669 O 245.36 -1.4583 3.74295 0
M  V30 2670 N 243.566 -0.444377 2.87182 0
M  V30 2671 H 243.113 0.388723 2.5465 0
M  V30 2672 H 243.071 -1.31213 2.85711 0
M  V30 2673 N 246.843 -1.10192 1.12674 0
M  V30 2674 C 248.091 -1.81845 0.881861 0
M  V30 2675 C 248.412 -1.85737 -0.593867 0
M  V30 2676 O 247.682 -1.33724 -1.4316 0
M  V30 2677 H 246.262 -0.673432 0.323261 0
M  V30 2678 H 248.924 -1.33316 1.42172 0
M  V30 2679 H 248.02 -2.85288 1.2656 0
M  V30 2680 N 248.321 -0.919034 -1.28029 0
M  V30 2681 C 249.569 -0.553838 -1.94363 0
M  V30 2682 C 249.89 0.906357 -1.72656 0
M  V30 2683 O 249.16 1.64143 -1.0693 0
M  V30 2684 H 247.74 -0.201834 -0.719216 0
M  V30 2685 H 250.402 -1.16954 -1.55909 0
M  V30 2686 H 249.498 -0.752758 -3.02886 0
M  V30 2687 N 249.799 1.42003 -0.683588 0
M  V30 2688 C 251.045 2.01712 -0.209825 0
M  V30 2689 C 251.378 1.53968 1.18353 0
M  V30 2690 O 250.653 0.745661 1.79639 0
M  V30 2691 C 250.936 3.59202 -0.254197 0
M  V30 2692 C 250.789 4.17102 -1.68363 0
M  V30 2693 C 252.108 4.38344 0.392709 0
M  V30 2694 H 249.227 0.732891 -0.0777189 0
M  V30 2695 H 251.869 1.68909 -0.87004 0
M  V30 2696 H 250.019 3.87278 0.307954 0
M  V30 2697 H 251.691 3.99946 -2.29871 0
M  V30 2698 H 249.934 3.72597 -2.22157 0
M  V30 2699 H 250.605 5.26249 -1.6663 0
M  V30 2700 H 253.081 4.16011 -0.0859162 0
M  V30 2701 H 251.957 5.47901 0.331063 0
M  V30 2702 H 252.218 4.16887 1.47164 0
M  V30 2703 N 251.277 0.427512 1.51691 0
M  V30 2704 C 252.688 -0.0378867 1.86662 0
M  V30 2705 C 253.039 -1.42819 1.34525 0
M  V30 2706 O 252.164 -2.05037 0.692014 0
M  V30 2707 C 252.759 -0.0755266 3.38716 0
M  V30 2708 C 251.318 -0.485309 3.73258 0
M  V30 2709 C 250.465 0.328399 2.75349 0
M  V30 2710 H 253.416 0.64379 1.45055 0
M  V30 2711 H 253.437 -0.887056 3.70016 0
M  V30 2712 H 252.949 0.936487 3.76632 0
M  V30 2713 H 251.05 -1.50329 3.40928 0
M  V30 2714 H 251.163 -0.21693 4.78609 0
M  V30 2715 H 249.527 -0.211905 2.53817 0
M  V30 2716 H 250.31 1.3391 3.16106 0
M  V30 2717 N 252.755 -1.56801 0.158532 0
M  V30 2718 C 253.665 -2.20916 -0.789518 0
M  V30 2719 C 254.681 -1.1969 -1.26294 0
M  V30 2720 O 255.857 -1.52308 -1.31773 0
M  V30 2721 C 252.922 -2.82727 -2.00665 0
M  V30 2722 C 251.983 -3.99114 -1.58134 0
M  V30 2723 C 251.216 -4.57968 -2.74045 0
M  V30 2724 O 251.439 -4.15704 -3.90572 0
M  V30 2725 O 250.373 -5.48047 -2.48855 0
M  V30 2726 H 254.199 -3.02464 -0.273681 0
M  V30 2727 H 251.784 -1.4924 -0.0690548 0
M  V30 2728 H 253.666 -3.21968 -2.71872 0
M  V30 2729 H 252.341 -2.04184 -2.51179 0
M  V30 2730 H 251.248 -3.64567 -0.839155 0
M  V30 2731 H 252.581 -4.79212 -1.12325 0
M  V30 2732 N 254.233 0.115231 -1.57178 0
M  V30 2733 C 255.461 0.836437 -1.89239 0
M  V30 2734 C 255.876 1.73256 -0.750175 0
M  V30 2735 O 255.233 1.80357 0.278832 0
M  V30 2736 C 255.284 1.66671 -3.20785 0
M  V30 2737 O 255.005 0.806652 -4.3061 0
M  V30 2738 C 256.506 2.49274 -3.66575 0
M  V30 2739 H 253.726 0.240253 -0.626514 0
M  V30 2740 H 256.27 0.0984932 -2.04263 0
M  V30 2741 H 254.425 2.35737 -3.0742 0
M  V30 2742 H 254.839 1.37969 -5.06028 0
M  V30 2743 H 256.313 3.03055 -4.6137 0
M  V30 2744 H 256.79 3.26807 -2.93417 0
M  V30 2745 H 257.396 1.85443 -3.82741 0
M  V30 2746 N 255.711 1.52812 0.385517 0
M  V30 2747 C 256.939 1.71907 1.15133 0
M  V30 2748 C 257.354 0.439004 1.83625 0
M  V30 2749 O 256.711 -0.586765 1.7281 0
M  V30 2750 C 256.762 2.87099 2.19673 0
M  V30 2751 O 256.483 4.10151 1.53973 0
M  V30 2752 C 257.984 3.17902 3.08955 0
M  V30 2753 H 255.204 0.575479 0.345057 0
M  V30 2754 H 257.748 1.99476 0.45052 0
M  V30 2755 H 255.903 2.61982 2.85384 0
M  V30 2756 H 256.317 4.74514 2.23465 0
M  V30 2757 H 257.791 4.01959 3.7833 0
M  V30 2758 H 258.268 2.3243 3.72657 0
M  V30 2759 H 258.874 3.44871 2.48885 0
M  V30 2760 N 257.189 -0.644168 1.43834 0
M  V30 2761 C 258.099 -1.78563 1.52159 0
M  V30 2762 C 259.115 -1.69147 0.408069 0
M  V30 2763 O 260.291 -1.90156 0.663524 0
M  V30 2764 C 257.356 -3.14888 1.45073 0
M  V30 2765 C 256.417 -3.36034 2.6717 0
M  V30 2766 C 255.65 -4.65855 2.60413 0
M  V30 2767 O 255.873 -5.45805 1.65689 0
M  V30 2768 O 254.807 -4.88918 3.5106 0
M  V30 2769 H 258.633 -1.74494 2.48567 0
M  V30 2770 H 256.218 -0.80378 1.25935 0
M  V30 2771 H 258.1 -3.96179 1.43597 0
M  V30 2772 H 256.775 -3.19528 0.518037 0
M  V30 2773 H 255.682 -2.54472 2.74217 0
M  V30 2774 H 257.015 -3.36247 3.59442 0
M  V30 2775 N 258.668 -1.30515 -0.883378 0
M  V30 2776 C 259.598 -1.19607 -2.00541 0
M  V30 2777 C 260.579 -0.086346 -1.69881 0
M  V30 2778 O 261.764 -0.268654 -1.92333 0
M  V30 2779 C 258.894 -0.888758 -3.35736 0
M  V30 2780 C 257.848 -1.95659 -3.8066 0
M  V30 2781 C 257.174 -1.50224 -5.13164 0
M  V30 2782 C 258.474 -3.36788 -3.99213 0
M  V30 2783 H 260.168 -2.13476 -2.09925 0
M  V30 2784 H 257.714 -1.02775 -1.00863 0
M  V30 2785 H 259.667 -0.799094 -4.13754 0
M  V30 2786 H 258.391 0.0856125 -3.26488 0
M  V30 2787 H 257.05 -2.03591 -3.04871 0
M  V30 2788 H 256.698 -0.516092 -5.00345 0
M  V30 2789 H 256.398 -2.2165 -5.44192 0
M  V30 2790 H 257.922 -1.42639 -5.93706 0
M  V30 2791 H 259.336 -3.31605 -4.67665 0
M  V30 2792 H 257.733 -4.06314 -4.41621 0
M  V30 2793 H 258.803 -3.78561 -3.03017 0
M  V30 2794 N 260.146 1.09593 -1.13257 0
M  V30 2795 C 261.076 2.18214 -0.830946 0
M  V30 2796 C 262.057 1.68812 0.208966 0
M  V30 2797 O 263.242 1.9408 0.0682666 0
M  V30 2798 C 260.372 3.46051 -0.294296 0
M  V30 2799 C 259.326 4.08778 -1.26826 0
M  V30 2800 C 258.652 5.31419 -0.591449 0
M  V30 2801 C 259.952 4.51476 -2.62615 0
M  V30 2802 H 261.646 2.43703 -1.73923 0
M  V30 2803 H 259.192 1.17128 -0.837675 0
M  V30 2804 H 261.145 4.2134 -0.0709606 0
M  V30 2805 H 259.869 3.20079 0.649366 0
M  V30 2806 H 258.528 3.35505 -1.47756 0
M  V30 2807 H 258.176 5.01727 0.357633 0
M  V30 2808 H 257.876 5.74341 -1.24123 0
M  V30 2809 H 259.4 6.09433 -0.377355 0
M  V30 2810 H 260.814 5.17999 -2.45663 0
M  V30 2811 H 259.211 5.05277 -3.23752 0
M  V30 2812 H 260.281 3.63962 -3.20406 0
M  V30 2813 N 261.624 0.925811 1.2754 0
M  V30 2814 C 262.571 0.422045 2.26908 0
M  V30 2815 C 263.541 -0.510029 1.58076 0
M  V30 2816 O 264.726 -0.429599 1.85901 0
M  V30 2817 C 261.866 -0.320837 3.43605 0
M  V30 2818 C 260.979 0.64513 4.27156 0
M  V30 2819 C 260.114 -0.117405 5.3107 0
M  V30 2820 C 259.153 0.841391 6.0629 0
M  V30 2821 N 258.29 0.111604 7.02011 0
M  V30 2822 H 263.13 1.27441 2.69375 0
M  V30 2823 H 260.667 0.639697 1.32462 0
M  V30 2824 H 262.625 -0.76785 4.10073 0
M  V30 2825 H 261.255 -1.13745 3.02096 0
M  V30 2826 H 260.307 1.21067 3.6062 0
M  V30 2827 H 261.619 1.37797 4.79389 0
M  V30 2828 H 260.773 -0.624422 6.03478 0
M  V30 2829 H 259.512 -0.883219 4.79636 0
M  V30 2830 H 258.517 1.35967 5.32722 0
M  V30 2831 H 259.742 1.60696 6.59813 0
M  V30 2832 H 257.688 -0.635999 6.5291 0
M  V30 2833 H 257.605 0.784044 7.51923 0
M  V30 2834 H 258.873 -0.374823 7.78598 0
M  V30 2835 N 263.102 -1.41638 0.69111 0
M  V30 2836 C 264.012 -2.34588 0.0233487 0
M  V30 2837 C 265.028 -1.55987 -0.770984 0
M  V30 2838 O 266.204 -1.88486 -0.709569 0
M  V30 2839 C 263.269 -3.34684 -0.904851 0
M  V30 2840 C 262.33 -4.29176 -0.103225 0
M  V30 2841 C 261.563 -5.2449 -0.987216 0
M  V30 2842 O 261.786 -5.2514 -2.22674 0
M  V30 2843 O 260.72 -6.00295 -0.439281 0
M  V30 2844 H 264.546 -2.93261 0.789416 0
M  V30 2845 H 262.131 -1.42417 0.45142 0
M  V30 2846 H 264.013 -3.96133 -1.43724 0
M  V30 2847 H 262.688 -2.78461 -1.65049 0
M  V30 2848 H 261.595 -3.71089 0.473655 0
M  V30 2849 H 262.928 -4.88484 0.60365 0
M  V30 2850 N 264.58 -0.43555 -1.51462 0
M  V30 2851 C 265.996 -0.0877501 -1.59359 0
M  V30 2852 C 266.196 1.4027 -1.4466 0
M  V30 2853 O 265.252 2.17243 -1.28693 0
M  V30 2854 C 266.565 -0.606264 -2.94525 0
M  V30 2855 C 268.113 -0.566548 -3.0783 0
M  V30 2856 C 268.588 -1.06201 -4.45517 0
M  V30 2857 N 270.079 -1.01992 -4.51832 0
M  V30 2858 C 270.814 -1.37417 -5.5669 0
M  V30 2859 N 270.31 -1.80119 -6.68976 0
M  V30 2860 N 272.103 -1.29245 -5.47039 0
M  V30 2861 H 264.254 -1.40533 -1.59261 0
M  V30 2862 H 266.517 -0.578992 -0.750648 0
M  V30 2863 H 266.223 -1.64901 -3.10645 0
M  V30 2864 H 266.097 -0.0302097 -3.77188 0
M  V30 2865 H 268.484 0.467208 -2.91378 0
M  V30 2866 H 268.565 -1.17898 -2.2701 0
M  V30 2867 H 268.209 -2.09422 -4.62715 0
M  V30 2868 H 268.139 -0.426127 -5.24873 0
M  V30 2869 H 270.63 -0.706308 -3.71241 0
M  V30 2870 H 270.943 -2.05392 -7.45006 0
M  V30 2871 H 269.288 -1.84044 -6.70189 0
M  V30 2872 H 272.479 -0.957522 -4.58202 0
M  V30 2873 H 272.652 -1.57182 -6.28648 0
M  V30 2874 N 266.058 1.56714 -0.166846 0
M  V30 2875 C 267.305 1.96747 0.479252 0
M  V30 2876 C 267.633 1.05263 1.63554 0
M  V30 2877 O 266.888 0.0858098 1.95512 0
M  V30 2878 C 267.187 3.42889 1.00806 0
M  V30 2879 C 266.853 4.50889 -0.0318574 0
M  V30 2880 C 265.515 4.8015 -0.317675 0
M  V30 2881 C 267.867 5.15949 -0.737956 0
M  V30 2882 C 265.195 5.71772 -1.31506 0
M  V30 2883 C 267.547 6.08647 -1.72429 0
M  V30 2884 C 266.211 6.36277 -2.0176 0
M  V30 2885 H 265.481 0.719949 0.175371 0
M  V30 2886 H 268.128 1.89756 -0.257864 0
M  V30 2887 H 266.433 3.4681 1.82291 0
M  V30 2888 H 268.13 3.71203 1.51689 0
M  V30 2889 H 264.72 4.28128 0.201088 0
M  V30 2890 H 268.904 4.93458 -0.530351 0
M  V30 2891 H 264.16 5.91465 -1.54853 0
M  V30 2892 H 268.334 6.58129 -2.27682 0
M  V30 2893 H 265.961 7.07075 -2.79194 0
M  V30 2894 N 267.536 -0.106894 1.57237 0
M  V30 2895 C 268.813 -0.843526 1.76477 0
M  V30 2896 C 269.193 -1.97499 0.745464 0
M  V30 2897 O 268.541 -2.27357 -0.228306 0
M  V30 2898 C 268.751 -1.34903 3.21873 0
M  V30 2899 C 270.099 -1.79654 3.8472 0
M  V30 2900 O 271.123 -1.44554 3.2555 0
M  V30 2901 O 269.982 -2.44515 4.88748 0
M  V30 2902 H 267.076 -0.401468 0.723016 0
M  V30 2903 H 269.622 -0.0896927 1.69463 0
M  V30 2904 H 268.394 -0.53781 3.87586 0
M  V30 2905 H 268.017 -2.16522 3.33473 0
M  V30 2906 N 269.014 -1.53014 -0.377408 0
M  V30 2907 C 269.964 -1.74996 -1.46152 0
M  V30 2908 C 270.948 -0.604236 -1.49123 0
M  V30 2909 O 272.14 -0.862489 -1.54564 0
M  V30 2910 C 269.269 -1.93267 -2.8373 0
M  V30 2911 C 268.355 -3.13807 -2.85283 0
M  V30 2912 N 268.746 -4.35941 -2.56493 0
M  V30 2913 C 267.044 -3.14288 -3.16448 0
M  V30 2914 C 267.745 -5.17615 -2.65424 0
M  V30 2915 N 266.721 -4.53559 -2.99641 0
M  V30 2916 H 270.523 -2.67044 -1.22738 0
M  V30 2917 H 268.037 -1.51479 -0.585479 0
M  V30 2918 H 270.034 -2.0714 -3.61799 0
M  V30 2919 H 268.694 -1.0244 -3.08117 0
M  V30 2920 H 269.705 -4.63876 -2.30302 0
M  V30 2921 H 266.382 -2.33312 -3.46225 0
M  V30 2922 H 267.772 -6.25006 -2.46612 0
M  V30 2923 N 270.492 0.636531 -1.44174 0
M  V30 2924 C 271.741 1.39213 -1.45954 0
M  V30 2925 C 272.054 1.95374 -0.0939119 0
M  V30 2926 O 273.26 2.71498 0.0107767 0
M  V30 2927 C 271.716 2.52025 -2.56927 0
M  V30 2928 C 271.324 2.024 -3.99673 0
M  V30 2929 C 273.068 3.29269 -2.67922 0
M  V30 2930 C 270.975 3.12521 -5.0208 0
M  V30 2931 H 269.905 0.523132 -0.542999 0
M  V30 2932 H 272.556 0.685349 -1.70221 0
M  V30 2933 H 270.938 3.25253 -2.25891 0
M  V30 2934 H 272.112 1.36073 -4.40251 0
M  V30 2935 H 270.427 1.37987 -3.92872 0
M  V30 2936 H 273.024 4.11352 -3.41605 0
M  V30 2937 H 273.367 3.78397 -1.73555 0
M  V30 2938 H 273.9 2.63129 -2.98342 0
M  V30 2939 H 270.639 2.68343 -5.98057 0
M  V30 2940 H 270.159 3.77507 -4.66099 0
M  V30 2941 H 271.838 3.77385 -5.25538 0
M  V30 2942 N 271.97 1.30982 0.876444 0
M  V30 2943 C 272.9 1.20668 1.99903 0
M  V30 2944 C 273.881 0.095354 1.69833 0
M  V30 2945 O 275.066 0.27885 1.92188 0
M  V30 2946 C 272.196 0.90655 3.3526 0
M  V30 2947 C 271.15 1.97675 3.79617 0
M  V30 2948 C 270.476 1.52943 5.1236 0
M  V30 2949 C 271.776 3.389 3.97422 0
M  V30 2950 H 273.47 2.14586 2.0879 0
M  V30 2951 H 271.016 1.03308 1.00317 0
M  V30 2952 H 272.969 0.821025 4.13324 0
M  V30 2953 H 271.693 -0.0682969 3.26529 0
M  V30 2954 H 270.352 2.05205 3.03787 0
M  V30 2955 H 270 0.54262 5.00065 0
M  V30 2956 H 269.7 2.24532 5.43009 0
M  V30 2957 H 271.224 1.45786 5.92941 0
M  V30 2958 H 272.638 3.34081 4.659 0
M  V30 2959 H 271.035 4.0865 4.3946 0
M  V30 2960 H 272.105 3.80163 3.01006 0
M  V30 2961 N 273.449 -1.08991 1.13837 0
M  V30 2962 C 274.679 -1.84743 0.924859 0
M  V30 2963 C 275.087 -1.81629 -0.529874 0
M  V30 2964 O 274.43 -1.21397 -1.37872 0
M  V30 2965 C 274.492 -3.33568 1.34061 0
M  V30 2966 C 274.156 -3.60425 2.80968 0
M  V30 2967 C 275.153 -3.55771 3.79108 0
M  V30 2968 C 272.838 -3.88627 3.18236 0
M  V30 2969 C 274.832 -3.78939 5.12527 0
M  V30 2970 C 272.519 -4.11449 4.51833 0
M  V30 2971 C 273.517 -4.06598 5.48787 0
M  V30 2972 O 273.205 -4.28826 6.79973 0
M  V30 2973 H 272.937 -0.590258 0.329502 0
M  V30 2974 H 275.491 -1.38598 1.51591 0
M  V30 2975 H 273.721 -3.80442 0.692853 0
M  V30 2976 H 275.41 -3.90743 1.09886 0
M  V30 2977 H 276.176 -3.34005 3.51661 0
M  V30 2978 H 272.055 -3.91526 2.43369 0
M  V30 2979 H 275.599 -3.75068 5.88192 0
M  V30 2980 H 271.496 -4.32698 4.79002 0
M  V30 2981 H 272.264 -4.46264 6.86142 0
M  V30 2982 N 274.927 -0.932562 -1.27047 0
M  V30 2983 C 276.155 -0.592031 -1.98249 0
M  V30 2984 C 276.57 0.831062 -1.69525 0
M  V30 2985 O 275.927 1.55299 -0.958561 0
M  V30 2986 C 275.978 -0.814279 -3.5221 0
M  V30 2987 O 275.699 -2.18139 -3.7993 0
M  V30 2988 C 277.2 -0.483121 -4.4066 0
M  V30 2989 H 274.42 -0.223896 -0.632544 0
M  V30 2990 H 276.964 -1.25091 -1.61779 0
M  V30 2991 H 275.119 -0.20213 -3.86872 0
M  V30 2992 H 275.533 -2.235 -4.74498 0
M  V30 2993 H 277.007 -0.689298 -5.47679 0
M  V30 2994 H 277.484 0.581546 -4.35333 0
M  V30 2995 H 278.09 -1.07362 -4.11526 0
M  V30 2996 N 276.405 1.4127 -0.698611 0
M  V30 2997 C 277.653 2.00782 -0.230409 0
M  V30 2998 C 277.974 1.5562 1.17505 0
M  V30 2999 O 277.244 0.78815 1.79346 0
M  V30 3000 H 275.824 0.742464 -0.0821944 0
M  V30 3001 H 278.486 1.72852 -0.90045 0
M  V30 3002 H 277.582 3.11095 -0.25021 0
M  V30 3003 N 277.883 0.443576 1.51229 0
M  V30 3004 C 279.108 -0.121648 2.07043 0
M  V30 3005 C 279.533 -1.35156 1.30823 0
M  V30 3006 O 278.891 -1.7793 0.347934 0
M  V30 3007 C 278.939 -0.41624 3.5819 0
M  V30 3008 O 278.043 -1.50163 3.8409 0
M  V30 3009 H 277.384 0.000871367 0.663999 0
M  V30 3010 H 279.914 0.626706 1.94765 0
M  V30 3011 H 279.924 -0.664867 4.02546 0
M  V30 3012 H 278.599 0.482653 4.1309 0
M  V30 3013 H 277.176 -1.24248 3.51592 0
M  V30 3014 N 279.361 -1.56624 0.175154 0
M  V30 3015 C 280.589 -2.01374 -0.474971 0
M  V30 3016 C 281.004 -1.05537 -1.56548 0
M  V30 3017 O 280.361 -0.0568668 -1.82411 0
M  V30 3018 C 280.412 -3.45923 -1.04975 0
M  V30 3019 O 280.133 -4.381 -0.00276605 0
M  V30 3020 C 281.634 -4.06093 -1.77773 0
M  V30 3021 H 278.854 -0.659962 -0.121206 0
M  V30 3022 H 281.398 -2.02601 0.27801 0
M  V30 3023 H 279.553 -3.45458 -1.75321 0
M  V30 3024 H 279.967 -5.22753 -0.427681 0
M  V30 3025 H 281.441 -5.09147 -2.13245 0
M  V30 3026 H 281.918 -3.48405 -2.67414 0
M  V30 3027 H 282.524 -4.10272 -1.12059 0
M  V30 3028 N 280.839 0.0985539 -1.57292 0
M  V30 3029 C 282.087 0.801092 -1.85545 0
M  V30 3030 C 282.408 1.79438 -0.763353 0
M  V30 3031 O 281.678 1.94763 0.21073 0
M  V30 3032 H 280.258 0.29884 -0.684619 0
M  V30 3033 H 282.92 0.0810064 -1.94732 0
M  V30 3034 H 282.016 1.3338 -2.82163 0
M  V30 3035 N 282.317 1.53212 0.369288 0
M  V30 3036 C 283.563 1.69466 1.11397 0
M  V30 3037 C 283.896 0.443257 1.89074 0
M  V30 3038 O 283.171 -0.559386 1.86282 0
M  V30 3039 C 283.454 2.9422 2.07621 0
M  V30 3040 C 283.307 4.29508 1.33577 0
M  V30 3041 C 284.626 3.14565 3.07794 0
M  V30 3042 H 281.745 0.616667 0.403597 0
M  V30 3043 H 284.387 1.85845 0.395179 0
M  V30 3044 H 282.537 2.80387 2.68916 0
M  V30 3045 H 284.209 4.55147 0.750955 0
M  V30 3046 H 282.452 4.29088 0.637618 0
M  V30 3047 H 283.123 5.12926 2.03989 0
M  V30 3048 H 285.599 3.2756 2.56601 0
M  V30 3049 H 284.475 4.03297 3.72348 0
M  V30 3050 H 284.736 2.29675 3.77759 0
M  V30 3051 N 283.795 -0.628877 1.44509 0
M  V30 3052 C 285.043 -1.38565 1.4712 0
M  V30 3053 C 285.364 -1.94712 0.105899 0
M  V30 3054 O 284.634 -1.75912 -0.862079 0
M  V30 3055 H 283.214 -0.514333 0.541729 0
M  V30 3056 H 285.876 -0.740018 1.80305 0
M  V30 3057 H 284.972 -2.21583 2.19789 0
M  V30 3058 N 285.273 -1.31445 -0.869486 0
M  V30 3059 C 286.22 -1.19135 -1.97675 0
M  V30 3060 C 287.19 -0.0770266 -1.65921 0
M  V30 3061 O 288.375 -0.249972 -1.89155 0
M  V30 3062 C 285.515 -0.905149 -3.33018 0
M  V30 3063 C 284.628 -2.10285 -3.77365 0
M  V30 3064 C 283.763 -1.75339 -5.01427 0
M  V30 3065 C 282.802 -2.91515 -5.38224 0
M  V30 3066 N 281.939 -2.56762 -6.53466 0
M  V30 3067 H 286.779 -2.13853 -2.07535 0
M  V30 3068 H 284.316 -1.06379 -1.01597 0
M  V30 3069 H 286.274 -0.719765 -4.10944 0
M  V30 3070 H 284.904 0.00519624 -3.228 0
M  V30 3071 H 283.956 -2.39899 -2.95216 0
M  V30 3072 H 285.268 -2.97237 -4.00564 0
M  V30 3073 H 284.422 -1.53266 -5.87022 0
M  V30 3074 H 283.161 -0.855801 -4.80133 0
M  V30 3075 H 282.166 -3.14237 -4.51149 0
M  V30 3076 H 283.391 -3.81985 -5.61484 0
M  V30 3077 H 281.337 -1.69526 -6.33717 0
M  V30 3078 H 281.254 -3.37243 -6.76612 0
M  V30 3079 H 282.522 -2.38083 -7.42251 0
M  V30 3080 N 286.751 1.08385 -1.14413 0
M  V30 3081 C 288 1.80153 -0.907076 0
M  V30 3082 C 288.313 1.87176 0.567851 0
M  V30 3083 O 289.519 2.55359 0.922172 0
M  V30 3084 C 287.975 3.23687 -1.57336 0
M  V30 3085 C 287.583 3.24897 -3.08457 0
M  V30 3086 C 289.327 4.00136 -1.41744 0
M  V30 3087 C 287.234 4.6302 -3.67921 0
M  V30 3088 H 286.164 0.675139 -0.335714 0
M  V30 3089 H 288.815 1.21733 -1.37307 0
M  V30 3090 H 287.197 3.82234 -1.03505 0
M  V30 3091 H 288.371 2.76055 -3.68958 0
M  V30 3092 H 286.686 2.61943 -3.2369 0
M  V30 3093 H 289.283 5.02201 -1.83572 0
M  V30 3094 H 289.626 4.14709 -0.363576 0
M  V30 3095 H 290.159 3.48058 -1.92614 0
M  V30 3096 H 286.898 4.5365 -4.73161 0
M  V30 3097 H 286.418 5.12143 -3.12201 0
M  V30 3098 H 288.097 5.31994 -3.68227 0
M  V30 3099 N 288.23 0.939286 1.26551 0
M  V30 3100 C 289.479 0.581601 1.93133 0
M  V30 3101 C 289.792 -0.883224 1.74524 0
M  V30 3102 O 290.998 -1.3502 2.35546 0
M  V30 3103 C 289.454 0.989425 3.46032 0
M  V30 3104 C 289.062 2.47573 3.73379 0
M  V30 3105 C 290.806 0.703544 4.18629 0
M  V30 3106 C 288.713 2.82235 5.19709 0
M  V30 3107 H 287.643 0.213803 0.723052 0
M  V30 3108 H 290.294 1.14167 1.4366 0
M  V30 3109 H 288.676 0.357902 3.94379 0
M  V30 3110 H 289.85 3.15614 3.35744 0
M  V30 3111 H 288.165 2.73471 3.1401 0
M  V30 3112 H 290.762 0.938869 5.26393 0
M  V30 3113 H 291.105 -0.359639 4.14744 0
M  V30 3114 H 291.638 1.2947 3.76141 0
M  V30 3115 H 288.377 3.87509 5.28694 0
M  V30 3116 H 287.897 2.18854 5.58447 0
M  V30 3117 H 289.576 2.70599 5.87695 0
M  V30 3118 N 289.708 -1.40897 0.706093 0
M  V30 3119 C 290.641 -2.282 -0.00328781 0
M  V30 3120 C 291.619 -1.42816 -0.77732 0
M  V30 3121 O 292.803 -1.72237 -0.765944 0
M  V30 3122 C 289.93 -3.23226 -1.01205 0
M  V30 3123 C 288.976 -4.25222 -0.329955 0
M  V30 3124 S 289.809 -5.27269 0.935298 0
M  V30 3125 C 290.965 -6.25859 -0.0716061 0
M  V30 3126 H 291.198 -2.88016 0.737143 0
M  V30 3127 H 288.731 -1.46191 0.496756 0
M  V30 3128 H 290.689 -3.78503 -1.58888 0
M  V30 3129 H 289.35 -2.62485 -1.72513 0
M  V30 3130 H 288.543 -4.92023 -1.09221 0
M  V30 3131 H 288.145 -3.73595 0.174069 0
M  V30 3132 H 290.437 -6.71204 -0.921521 0
M  V30 3133 H 291.38 -7.0586 0.562765 0
M  V30 3134 H 291.788 -5.62852 -0.431088 0
M  V30 3135 N 291.186 -0.45159 -1.50991 0
M  V30 3136 C 292.414 0.108334 -2.06616 0
M  V30 3137 C 292.829 1.35224 -1.31757 0
M  V30 3138 O 292.186 1.78475 -0.381174 0
M  V30 3139 C 292.237 0.41619 -3.59096 0
M  V30 3140 O 291.958 -0.778361 -4.3113 0
M  V30 3141 C 293.459 1.02523 -4.31282 0
M  V30 3142 H 290.679 0.00159995 -0.670998 0
M  V30 3143 H 293.223 -0.634771 -1.94399 0
M  V30 3144 H 291.378 1.10921 -3.71181 0
M  V30 3145 H 291.792 -0.511181 -5.22003 0
M  V30 3146 H 293.266 1.19053 -5.39009 0
M  V30 3147 H 293.743 2.01013 -3.905 0
M  V30 3148 H 294.349 0.371173 -4.23677 0
M  V30 3149 N 292.664 1.56529 -0.183458 0
M  V30 3150 C 293.627 2.17324 0.728223 0
M  V30 3151 C 294.627 1.12453 1.14939 0
M  V30 3152 O 295.817 1.37902 1.06437 0
M  V30 3153 C 292.949 2.76591 1.99274 0
M  V30 3154 H 294.142 2.99241 0.198772 0
M  V30 3155 H 291.695 1.5616 0.0661391 0
M  V30 3156 H 292.43 1.98441 2.56499 0
M  V30 3157 H 292.215 3.5335 1.69959 0
M  V30 3158 H 293.705 3.23311 2.6431 0
M  V30 3159 N 294.142 -0.090211 1.57342 0
M  V30 3160 C 295.105 -1.09335 2.01441 0
M  V30 3161 C 296.105 -1.32666 0.908641 0
M  V30 3162 O 297.295 -1.28697 1.174 0
M  V30 3163 C 294.427 -2.44136 2.3793 0
M  V30 3164 H 295.62 -0.713662 2.91285 0
M  V30 3165 H 293.173 -0.335404 1.52659 0
M  V30 3166 H 293.908 -2.86972 1.51055 0
M  V30 3167 H 293.693 -2.28548 3.18603 0
M  V30 3168 H 295.183 -3.16277 2.72688 0
M  V30 3169 N 295.62 -1.53406 -0.361157 0
M  V30 3170 C 296.583 -1.79479 -1.42548 0
M  V30 3171 C 297.583 -0.665327 -1.4639 0
M  V30 3172 O 298.773 -0.933549 -1.47073 0
M  V30 3173 C 295.905 -1.92087 -2.8163 0
M  V30 3174 H 297.098 -2.74538 -1.20701 0
M  V30 3175 H 294.651 -1.4455 -0.594546 0
M  V30 3176 H 295.386 -0.991099 -3.08784 0
M  V30 3177 H 295.171 -2.74241 -2.80239 0
M  V30 3178 H 296.661 -2.13836 -3.58697 0
M  V30 3179 N 297.098 0.621204 -1.44841 0
M  V30 3180 C 298.045 1.73267 -1.5247 0
M  V30 3181 C 299.015 1.6189 -0.371611 0
M  V30 3182 O 300.2 1.81668 -0.58321 0
M  V30 3183 C 297.34 3.11545 -1.48438 0
M  V30 3184 C 296.453 3.33827 -2.74196 0
M  V30 3185 C 295.588 4.62133 -2.61929 0
M  V30 3186 C 294.627 4.77627 -3.82804 0
M  V30 3187 N 293.764 5.97219 -3.69153 0
M  V30 3188 H 298.604 1.66082 -2.47428 0
M  V30 3189 H 296.141 0.810026 -1.22788 0
M  V30 3190 H 298.099 3.91528 -1.4409 0
M  V30 3191 H 296.729 3.1772 -0.570402 0
M  V30 3192 H 295.781 2.47715 -2.88689 0
M  V30 3193 H 297.093 3.41153 -3.6389 0
M  V30 3194 H 296.247 5.50291 -2.5547 0
M  V30 3195 H 294.986 4.57182 -1.69811 0
M  V30 3196 H 293.991 3.87896 -3.89637 0
M  V30 3197 H 295.216 4.84385 -4.75971 0
M  V30 3198 H 293.162 5.93339 -2.79794 0
M  V30 3199 H 293.079 6.05644 -4.52472 0
M  V30 3200 H 294.347 6.87912 -3.66603 0
M  V30 3201 N 298.576 1.31904 0.862503 0
M  V30 3202 C 299.526 1.16772 1.95827 0
M  V30 3203 C 300.51 0.0767098 1.60717 0
M  V30 3204 O 301.702 0.302407 1.74398 0
M  V30 3205 C 298.831 0.884858 3.317 0
M  V30 3206 C 297.917 2.0172 3.73055 0
M  V30 3207 N 298.308 3.265 3.86305 0
M  V30 3208 C 296.606 1.91861 4.02623 0
M  V30 3209 C 297.307 4.00616 4.2176 0
M  V30 3210 N 296.283 3.28847 4.32852 0
M  V30 3211 H 300.085 2.11382 2.04193 0
M  V30 3212 H 297.599 1.2357 1.05377 0
M  V30 3213 H 299.596 0.757419 4.09962 0
M  V30 3214 H 298.256 -0.0529448 3.24657 0
M  V30 3215 H 299.267 3.61529 3.70833 0
M  V30 3216 H 295.944 1.05593 4.03926 0
M  V30 3217 H 297.334 5.08182 4.39546 0
M  V30 3218 N 300.054 -1.07777 1.14986 0
M  V30 3219 C 300.984 -2.16865 0.865557 0
M  V30 3220 C 301.965 -1.69123 -0.182083 0
M  V30 3221 O 303.15 -1.94164 -0.0373815 0
M  V30 3222 C 300.28 -3.45539 0.349313 0
M  V30 3223 C 299.234 -4.06708 1.33313 0
M  V30 3224 C 298.56 -5.30411 0.675918 0
M  V30 3225 C 299.86 -4.47241 2.69764 0
M  V30 3226 H 301.554 -2.40905 1.77778 0
M  V30 3227 H 299.1 -1.15781 0.856203 0
M  V30 3228 H 301.053 -4.21174 0.137983 0
M  V30 3229 H 299.777 -3.21072 -0.598362 0
M  V30 3230 H 298.436 -3.33112 1.53075 0
M  V30 3231 H 298.084 -5.02232 -0.277767 0
M  V30 3232 H 297.784 -5.72293 1.33244 0
M  V30 3233 H 299.308 -6.08755 0.474262 0
M  V30 3234 H 300.722 -5.14025 2.53873 0
M  V30 3235 H 299.119 -5.00062 3.3175 0
M  V30 3236 H 300.189 -3.58818 3.26156 0
M  V30 3237 N 301.532 -0.945985 -1.26051 0
M  V30 3238 C 302.76 -0.613025 -1.9761 0
M  V30 3239 C 303.175 0.813035 -1.70397 0
M  V30 3240 O 302.532 1.54274 -0.974979 0
M  V30 3241 C 302.583 -0.85159 -3.51326 0
M  V30 3242 O 302.304 -2.22157 -3.77595 0
M  V30 3243 C 303.805 -0.529831 -4.40122 0
M  V30 3244 H 301.025 -0.230593 -0.630133 0
M  V30 3245 H 303.569 -1.268 -1.60443 0
M  V30 3246 H 301.724 -0.243151 -3.86636 0
M  V30 3247 H 302.138 -2.2852 -4.721 0
M  V30 3248 H 303.612 -0.747348 -5.46917 0
M  V30 3249 H 304.089 0.535341 -4.35925 0
M  V30 3250 H 304.695 -1.11721 -4.10364 0
M  V30 3251 N 303.011 1.40521 -0.713556 0
M  V30 3252 C 304.422 1.83853 -0.324807 0
M  V30 3253 C 304.773 1.59667 1.14021 0
M  V30 3254 O 303.898 1.07649 1.87725 0
M  V30 3255 C 304.493 3.33751 -0.582746 0
M  V30 3256 C 303.052 3.75584 -0.247727 0
M  V30 3257 C 302.199 2.63753 -0.856121 0
M  V30 3258 H 305.15 1.29817 -0.91286 0
M  V30 3259 H 305.171 3.80194 0.152682 0
M  V30 3260 H 304.683 3.51322 -1.64908 0
M  V30 3261 H 302.784 3.63608 0.813624 0
M  V30 3262 H 302.897 4.7373 -0.715307 0
M  V30 3263 H 301.261 2.53108 -0.28432 0
M  V30 3264 H 302.044 2.84137 -1.92668 0
M  V30 3265 N 304.489 0.459591 1.5075 0
M  V30 3266 C 305.735 -0.0994966 2.02556 0
M  V30 3267 C 306.068 -1.40399 1.3417 0
M  V30 3268 O 305.343 -1.88892 0.463683 0
M  V30 3269 C 305.626 -0.295242 3.58888 0
M  V30 3270 C 305.479 1.02947 4.37861 0
M  V30 3271 C 306.798 -1.05502 4.27267 0
M  V30 3272 H 303.917 -0.034686 0.736183 0
M  V30 3273 H 306.559 0.602938 1.8018 0
M  V30 3274 H 304.709 -0.893563 3.78084 0
M  V30 3275 H 306.381 1.66348 4.30263 0
M  V30 3276 H 304.624 1.62885 4.02058 0
M  V30 3277 H 305.295 0.846281 5.45474 0
M  V30 3278 H 307.771 -0.547993 4.12476 0
M  V30 3279 H 306.647 -1.16077 5.36486 0
M  V30 3280 H 306.908 -2.08875 3.89645 0
M  V30 3281 N 305.967 -1.56429 0.191757 0
M  V30 3282 C 307.195 -2.01867 -0.453586 0
M  V30 3283 C 307.61 -1.07191 -1.5542 0
M  V30 3284 O 306.967 -0.0762108 -1.82341 0
M  V30 3285 C 307.018 -3.47017 -1.013 0
M  V30 3286 O 306.739 -4.38078 0.0437005 0
M  V30 3287 C 308.24 -4.07956 -1.73456 0
M  V30 3288 H 305.46 -0.661211 -0.114199 0
M  V30 3289 H 308.004 -2.02295 0.299483 0
M  V30 3290 H 306.159 -3.47298 -1.71647 0
M  V30 3291 H 306.573 -5.23178 -0.372212 0
M  V30 3292 H 308.047 -5.1138 -2.07833 0
M  V30 3293 H 308.524 -3.51222 -2.63704 0
M  V30 3294 H 309.13 -4.11437 -1.07702 0
M  V30 3295 N 307.445 0.0818655 -1.57387 0
M  V30 3296 C 308.375 1.09885 -2.06028 0
M  V30 3297 C 309.356 1.4098 -0.951774 0
M  V30 3298 O 310.541 1.50781 -1.22387 0
M  V30 3299 C 307.671 2.4151 -2.4958 0
M  V30 3300 C 306.625 2.24792 -3.64215 0
M  V30 3301 C 305.951 3.61712 -3.93787 0
M  V30 3302 C 307.251 1.67749 -4.94629 0
M  V30 3303 H 308.945 0.694128 -2.91243 0
M  V30 3304 H 306.491 0.332448 -1.4011 0
M  V30 3305 H 308.444 3.12939 -2.82219 0
M  V30 3306 H 307.168 2.83943 -1.61381 0
M  V30 3307 H 305.827 1.55807 -3.31843 0
M  V30 3308 H 305.475 4.01697 -3.02735 0
M  V30 3309 H 305.175 3.51368 -4.70971 0
M  V30 3310 H 306.699 4.34587 -4.28913 0
M  V30 3311 H 308.113 2.29032 -5.25564 0
M  V30 3312 H 306.51 1.68128 -5.76067 0
M  V30 3313 H 307.58 0.638059 -4.80684 0
M  V30 3314 N 308.923 1.53595 0.353017 0
M  V30 3315 C 309.833 1.83897 1.45667 0
M  V30 3316 C 310.849 0.728334 1.58023 0
M  V30 3317 O 312.025 1.01968 1.73679 0
M  V30 3318 C 309.09 2.03383 2.80778 0
M  V30 3319 C 308.151 3.27262 2.77845 0
M  V30 3320 C 307.384 3.45809 4.06512 0
M  V30 3321 O 307.607 2.68387 5.03314 0
M  V30 3322 O 306.541 4.39207 4.11559 0
M  V30 3323 H 310.367 2.77686 1.2298 0
M  V30 3324 H 307.952 1.39132 0.544308 0
M  V30 3325 H 309.834 2.17698 3.60812 0
M  V30 3326 H 308.509 1.12783 3.03417 0
M  V30 3327 H 307.416 3.18359 1.96465 0
M  V30 3328 H 308.749 4.17824 2.60161 0
M  V30 3329 N 310.401 -0.613514 1.45168 0
M  V30 3330 C 311.331 -1.7354 1.56225 0
M  V30 3331 C 312.312 -1.64981 0.41414 0
M  V30 3332 O 313.497 -1.83472 0.636526 0
M  V30 3333 C 310.627 -3.12128 1.52295 0
M  V30 3334 C 309.581 -3.35491 2.65762 0
M  V30 3335 C 308.907 -4.74291 2.46885 0
M  V30 3336 C 310.207 -3.26325 4.0781 0
M  V30 3337 H 311.901 -1.64543 2.50132 0
M  V30 3338 H 309.447 -0.790185 1.20383 0
M  V30 3339 H 311.4 -3.90404 1.58628 0
M  V30 3340 H 310.124 -3.2195 0.549139 0
M  V30 3341 H 308.783 -2.59603 2.58847 0
M  V30 3342 H 308.431 -4.80839 1.47657 0
M  V30 3343 H 308.131 -4.9088 3.22972 0
M  V30 3344 H 309.655 -5.54775 2.55063 0
M  V30 3345 H 311.069 -3.94483 4.16 0
M  V30 3346 H 309.466 -3.54445 4.8424 0
M  V30 3347 H 310.536 -2.23855 4.30136 0
M  V30 3348 N 311.879 -1.3236 -0.855495 0
M  V30 3349 C 313.127 -1.22629 -1.60644 0
M  V30 3350 C 313.448 0.212136 -1.93843 0
M  V30 3351 O 312.718 1.13666 -1.59552 0
M  V30 3352 H 311.298 -0.450882 -0.595579 0
M  V30 3353 H 313.96 -1.65871 -1.02337 0
M  V30 3354 H 313.056 -1.80832 -2.54374 0
M  V30 3355 N 313.357 1.07166 -1.15556 0
M  V30 3356 C 314.605 1.79443 -0.929764 0
M  V30 3357 C 314.926 1.87246 0.544414 0
M  V30 3358 O 314.196 1.37473 1.39564 0
M  V30 3359 H 312.776 0.664625 -0.341003 0
M  V30 3360 H 315.438 1.29499 -1.45657 0
M  V30 3361 H 314.534 2.81832 -1.34079 0
M  V30 3362 N 314.835 0.952656 1.25548 0
M  V30 3363 C 315.782 0.47008 2.25962 0
M  V30 3364 C 316.752 -0.476384 1.59122 0
M  V30 3365 O 317.937 -0.39007 1.8677 0
M  V30 3366 C 315.077 -0.247881 3.44209 0
M  V30 3367 C 314.19 0.735591 4.25691 0
M  V30 3368 C 313.325 -0.0047306 5.312 0
M  V30 3369 C 312.364 0.969805 6.04368 0
M  V30 3370 N 311.501 0.260486 7.01617 0
M  V30 3371 H 316.341 1.33126 2.66611 0
M  V30 3372 H 313.878 0.66765 1.31076 0
M  V30 3373 H 315.836 -0.680695 4.1161 0
M  V30 3374 H 314.466 -1.07312 3.0444 0
M  V30 3375 H 313.518 1.28689 3.57971 0
M  V30 3376 H 314.83 1.47934 4.76358 0
M  V30 3377 H 313.984 -0.496275 6.04667 0
M  V30 3378 H 312.723 -0.781282 4.81401 0
M  V30 3379 H 311.728 1.47237 5.29718 0
M  V30 3380 H 312.953 1.74655 6.56256 0
M  V30 3381 H 310.899 -0.497364 6.54112 0
M  V30 3382 H 310.816 0.943362 7.50091 0
M  V30 3383 H 312.084 -0.209587 7.79218 0
M  V30 3384 N 316.313 -1.40141 0.720998 0
M  V30 3385 C 317.538 -2.05618 0.271258 0
M  V30 3386 C 317.963 -1.53978 -1.08039 0
M  V30 3387 O 317.321 -0.677463 -1.68167 0
M  V30 3388 C 317.369 -3.59609 0.267197 0
M  V30 3389 O 316.473 -4.05526 -0.749814 0
M  V30 3390 H 315.814 -0.651904 0.126162 0
M  V30 3391 H 318.344 -1.79439 0.982997 0
M  V30 3392 H 318.354 -4.0786 0.106744 0
M  V30 3393 H 317.029 -3.96559 1.25354 0
M  V30 3394 H 315.606 -3.68722 -0.556644 0
M  V30 3395 N 317.792 -0.46758 -1.50504 0
M  V30 3396 C 319.203 -0.0116166 -1.86696 0
M  V30 3397 C 319.554 1.39202 -1.38265 0
M  V30 3398 O 318.679 2.0313 -0.746132 0
M  V30 3399 C 319.274 -0.0143044 -3.38797 0
M  V30 3400 C 317.833 0.386175 -3.74414 0
M  V30 3401 C 316.98 -0.401287 -2.74381 0
M  V30 3402 H 319.931 -0.682022 -1.43297 0
M  V30 3403 H 319.952 0.788641 -3.72237 0
M  V30 3404 H 319.464 -1.03602 -3.74016 0
M  V30 3405 H 317.565 1.41237 -3.44794 0
M  V30 3406 H 317.678 0.0899596 -4.79016 0
M  V30 3407 H 316.042 0.144536 -2.5429 0
M  V30 3408 H 316.825 -1.42244 -3.12444 0
M  V30 3409 N 319.27 1.56325 -0.20005 0
M  V30 3410 C 320.51 1.99619 0.439519 0
M  V30 3411 C 320.874 1.08423 1.58456 0
M  V30 3412 O 322.075 1.40973 2.28867 0
M  V30 3413 C 320.346 3.46314 0.883258 0
M  V30 3414 S 321.905 4.11634 1.51997 0
M  V30 3415 H 318.723 0.697007 0.140363 0
M  V30 3416 H 321.325 1.93118 -0.304282 0
M  V30 3417 H 320.029 4.10381 0.0398967 0
M  V30 3418 H 319.56 3.56643 1.6604 0
M  V30 3419 H 321.575 4.09049 2.8088 0
M  V30 3420 N 320.748 -0.0735177 1.57428 0
M  V30 3421 C 321.978 -0.78483 1.91112 0
M  V30 3422 C 322.386 -1.71729 0.7941 0
M  V30 3423 O 321.729 -1.82105 -0.241542 0
M  V30 3424 C 321.791 -1.63346 3.20247 0
M  V30 3425 C 321.455 -0.870557 4.48632 0
M  V30 3426 C 322.452 -0.19058 5.19551 0
M  V30 3427 C 320.137 -0.838242 4.95256 0
M  V30 3428 C 322.131 0.511503 6.35344 0
M  V30 3429 C 319.818 -0.132386 6.10957 0
M  V30 3430 C 320.816 0.541288 6.80852 0
M  V30 3431 O 320.504 1.23578 7.94345 0
M  V30 3432 H 320.236 -0.228408 0.636244 0
M  V30 3433 H 322.79 -0.0486039 2.05342 0
M  V30 3434 H 321.02 -2.41245 3.02222 0
M  V30 3435 H 322.709 -2.22329 3.39595 0
M  V30 3436 H 323.475 -0.206864 4.84559 0
M  V30 3437 H 319.354 -1.35206 4.40727 0
M  V30 3438 H 322.898 1.03789 6.89836 0
M  V30 3439 H 318.795 -0.114023 6.45399 0
M  V30 3440 H 319.563 1.14487 8.10454 0
M  V30 3441 N 322.226 -1.5378 -0.344866 0
M  V30 3442 C 323.472 -1.71216 -1.08687 0
M  V30 3443 C 323.805 -0.473281 -1.88345 0
M  V30 3444 O 323.08 0.52968 -1.87149 0
M  V30 3445 C 323.363 -2.97486 -2.02914 0
M  V30 3446 C 323.216 -4.31579 -1.26727 0
M  V30 3447 C 324.535 -3.19422 -3.0275 0
M  V30 3448 H 321.654 -0.62301 -0.393735 0
M  V30 3449 H 324.296 -1.8645 -0.365563 0
M  V30 3450 H 322.446 -2.84629 -2.64421 0
M  V30 3451 H 324.118 -4.56284 -0.67845 0
M  V30 3452 H 322.361 -4.30049 -0.569273 0
M  V30 3453 H 323.032 -5.16106 -1.95803 0
M  V30 3454 H 325.508 -3.316 -2.51357 0
M  V30 3455 H 324.384 -4.09169 -3.65885 0
M  V30 3456 H 324.645 -2.35656 -3.74057 0
M  V30 3457 N 323.704 0.605807 -1.45491 0
M  V30 3458 C 324.981 1.36522 -1.40075 0
M  V30 3459 C 325.361 2.10976 -0.0722744 0
M  V30 3460 O 324.709 2.08007 0.945808 0
M  V30 3461 C 324.919 2.31056 -2.61561 0
M  V30 3462 C 326.267 2.93608 -3.06724 0
M  V30 3463 O 327.291 2.41376 -2.61946 0
M  V30 3464 O 326.15 3.88421 -3.84437 0
M  V30 3465 H 323.244 0.612248 -0.555951 0
M  V30 3466 H 325.79 0.628747 -1.57623 0
M  V30 3467 H 324.562 1.75311 -3.49831 0
M  V30 3468 H 324.185 3.12081 -2.46356 0
M  V30 3469 N 325.182 1.32811 0.848464 0
M  V30 3470 C 326.129 1.22265 1.95755 0
M  V30 3471 C 327.099 0.103413 1.65778 0
M  V30 3472 O 328.284 0.280033 1.88734 0
M  V30 3473 C 325.424 0.958014 3.31536 0
M  V30 3474 C 324.537 2.16262 3.73971 0
M  V30 3475 C 323.672 1.83295 4.98575 0
M  V30 3476 C 322.711 3.00041 5.33518 0
M  V30 3477 N 321.848 2.67125 6.49299 0
M  V30 3478 H 326.688 2.17128 2.04107 0
M  V30 3479 H 324.225 1.07982 0.998913 0
M  V30 3480 H 326.183 0.785052 4.09747 0
M  V30 3481 H 324.813 0.046159 3.22767 0
M  V30 3482 H 323.865 2.44565 2.91362 0
M  V30 3483 H 325.177 3.03572 3.95785 0
M  V30 3484 H 324.331 1.62586 5.84509 0
M  V30 3485 H 323.07 0.932078 4.7871 0
M  V30 3486 H 322.075 3.21374 4.46093 0
M  V30 3487 H 323.3 3.90869 5.55336 0
M  V30 3488 H 321.246 1.79586 6.3094 0
M  V30 3489 H 321.163 3.47965 6.71161 0
M  V30 3490 H 322.431 2.49861 7.3837 0
M  V30 3491 N 326.66 -1.06551 1.16123 0
M  V30 3492 C 327.608 -2.16063 0.861371 0
M  V30 3493 C 328.602 -1.6856 -0.168517 0
M  V30 3494 O 329.808 -1.79986 -0.0227579 0
M  V30 3495 H 326.183 -0.705278 0.260934 0
M  V30 3496 H 328.154 -2.38567 1.79244 0
M  V30 3497 C 326.903 -3.45661 0.376018 0
M  V30 3498 H 326.226 -3.82604 1.15992 0
M  V30 3499 H 327.666 -4.23504 0.204951 0
M  V30 3500 C 326.125 -3.24546 -0.903954 0
M  V30 3501 O 326.655 -3.49865 -1.97377 0
M  V30 3502 N 324.861 -2.77992 -0.846679 0
M  V30 3503 H 324.408 -2.57589 0.0241017 0
M  V30 3504 H 324.366 -2.64244 -1.70359 0
M  V30 3505 N 328.138 -0.959301 -1.25041 0
M  V30 3506 C 329.378 -0.624343 -1.94631 0
M  V30 3507 C 329.742 0.82403 -1.73418 0
M  V30 3508 O 330.943 1.26881 -2.3697 0
M  V30 3509 C 329.214 -0.978805 -3.43736 0
M  V30 3510 S 330.773 -0.757127 -4.32219 0
M  V30 3511 H 327.591 -0.229327 -0.673001 0
M  V30 3512 H 330.193 -1.23447 -1.51595 0
M  V30 3513 H 328.897 -2.02997 -3.56679 0
M  V30 3514 H 328.428 -0.359117 -3.91757 0
M  V30 3515 H 330.443 0.369759 -4.9482 0
M  V30 3516 N 329.616 1.39756 -0.72842 0
M  V30 3517 C 330.893 1.94574 -0.200079 0
M  V30 3518 C 331.273 1.66569 1.29684 0
M  V30 3519 O 330.621 0.990326 2.05924 0
M  V30 3520 C 330.831 3.45004 -0.526608 0
M  V30 3521 C 332.179 4.21965 -0.472318 0
M  V30 3522 O 333.203 3.53173 -0.463413 0
M  V30 3523 O 332.062 5.44552 -0.461075 0
M  V30 3524 H 329.156 0.826289 -0.0342851 0
M  V30 3525 H 331.702 1.49293 -0.806829 0
M  V30 3526 H 330.474 3.58796 -1.56144 0
M  V30 3527 H 330.097 3.97449 0.109449 0
M  V30 3528 N 331.094 0.475555 1.50254 0
M  V30 3529 C 332.024 -0.30611 2.31485 0
M  V30 3530 C 333.005 -0.986228 1.38591 0
M  V30 3531 O 334.19 -0.982541 1.67511 0
M  V30 3532 C 331.32 -1.38588 3.1845 0
M  V30 3533 C 330.274 -0.827115 4.19932 0
M  V30 3534 C 329.6 -2.00551 4.95665 0
M  V30 3535 C 330.9 0.16463 5.2204 0
M  V30 3536 H 332.594 0.371866 2.97082 0
M  V30 3537 H 330.14 0.180282 1.42867 0
M  V30 3538 H 332.093 -1.94023 3.74076 0
M  V30 3539 H 330.817 -2.09269 2.50747 0
M  V30 3540 H 329.476 -0.294702 3.65414 0
M  V30 3541 H 329.124 -2.6994 4.2443 0
M  V30 3542 H 328.824 -1.63784 5.64313 0
M  V30 3543 H 330.348 -2.56468 5.54127 0
M  V30 3544 H 331.762 -0.300699 5.72511 0
M  V30 3545 H 330.159 0.446813 5.98434 0
M  V30 3546 H 331.229 1.08905 4.72512 0
M  V30 3547 N 332.573 -1.56217 0.208337 0
M  V30 3548 C 333.85 -1.89739 -0.475234 0
M  V30 3549 C 334.23 -1.1238 -1.78701 0
M  V30 3550 O 333.578 -0.228979 -2.2735 0
M  V30 3551 C 333.788 -3.42289 -0.681101 0
M  V30 3552 C 335.136 -4.12789 -0.994507 0
M  V30 3553 O 336.16 -3.47814 -0.768357 0
M  V30 3554 O 335.019 -5.27649 -1.42299 0
M  V30 3555 H 332.113 -0.788478 -0.249461 0
M  V30 3556 H 334.659 -1.67855 0.249538 0
M  V30 3557 H 333.431 -3.90534 0.244722 0
M  V30 3558 H 333.054 -3.69909 -1.45785 0
M  V30 3559 N 334.051 0.0651679 -1.57465 0
M  V30 3560 C 335.297 0.764193 -1.87851 0
M  V30 3561 C 335.63 1.76889 -0.801495 0
M  V30 3562 O 334.905 1.93594 0.187528 0
M  V30 3563 C 335.188 1.46625 -3.28897 0
M  V30 3564 C 335.041 0.477515 -4.47258 0
M  V30 3565 C 336.36 2.4095 -3.68281 0
M  V30 3566 H 333.479 0.276351 -0.683227 0
M  V30 3567 H 336.121 0.0272868 -1.8998 0
M  V30 3568 H 334.271 2.09438 -3.27212 0
M  V30 3569 H 335.943 -0.145922 -4.61069 0
M  V30 3570 H 334.186 -0.206576 -4.33308 0
M  V30 3571 H 334.857 1.0065 -5.42746 0
M  V30 3572 H 337.333 1.88209 -3.71102 0
M  V30 3573 H 336.209 2.87072 -4.67847 0
M  V30 3574 H 336.47 3.26049 -2.98571 0
M  V30 3575 N 335.529 1.53961 0.336706 0
M  V30 3576 C 336.492 1.81724 1.39675 0
M  V30 3577 C 337.492 0.688532 1.45313 0
M  V30 3578 O 338.682 0.956829 1.45569 0
M  V30 3579 C 335.814 1.96543 2.78538 0
M  V30 3580 H 337.007 2.76424 1.16318 0
M  V30 3581 H 334.56 1.45478 0.571474 0
M  V30 3582 H 335.295 1.0401 3.07168 0
M  V30 3583 H 335.08 2.78665 2.75841 0
M  V30 3584 H 336.57 2.19516 3.5525 0
M  V30 3585 N 337.007 -0.598083 1.45811 0
M  V30 3586 C 338.247 -1.36802 1.5187 0
M  V30 3587 C 338.611 -1.9133 0.160224 0
M  V30 3588 O 339.812 -2.6863 0.0955302 0
M  V30 3589 C 338.083 -2.47835 2.57513 0
M  V30 3590 S 339.642 -3.35458 2.82866 0
M  V30 3591 H 336.46 -0.466278 0.536755 0
M  V30 3592 H 339.062 -0.689152 1.82951 0
M  V30 3593 H 337.766 -2.06141 3.54872 0
M  V30 3594 H 337.297 -3.20512 2.28114 0
M  V30 3595 H 339.312 -4.46251 2.16967 0
M  V30 3596 N 338.485 -1.33259 -0.841409 0
M  V30 3597 C 339.901 -1.12538 -1.13169 0
M  V30 3598 C 340.101 0.0854037 -2.01319 0
M  V30 3599 O 339.157 0.766417 -2.40587 0
M  V30 3600 C 340.47 -2.41156 -1.79623 0
M  V30 3601 C 342.018 -2.47038 -1.922 0
M  V30 3602 C 342.493 -3.7561 -2.6207 0
M  V30 3603 N 343.984 -3.76667 -2.69585 0
M  V30 3604 C 344.719 -4.72861 -3.2433 0
M  V30 3605 N 344.215 -5.79428 -3.79783 0
M  V30 3606 N 346.008 -4.6034 -3.22558 0
M  V30 3607 H 338.159 -2.10868 -0.254676 0
M  V30 3608 H 340.422 -0.931615 -0.175493 0
M  V30 3609 H 340.128 -3.29747 -1.22311 0
M  V30 3610 H 340.002 -2.53114 -2.79666 0
M  V30 3611 H 342.389 -1.58898 -2.48667 0
M  V30 3612 H 342.47 -2.39022 -0.911148 0
M  V30 3613 H 342.114 -4.64131 -2.06263 0
M  V30 3614 H 342.044 -3.80902 -3.63622 0
M  V30 3615 H 344.535 -2.99648 -2.30259 0
M  V30 3616 H 344.848 -6.48867 -4.19752 0
M  V30 3617 H 343.193 -5.83166 -3.78078 0
M  V30 3618 H 346.384 -3.76244 -2.78492 0
M  V30 3619 H 346.557 -5.35478 -3.64921 0
M  V30 3620 N 339.963 1.05934 -1.16686 0
M  V30 3621 C 341.379 1.30938 -0.912542 0
M  V30 3622 C 341.579 1.96803 0.432533 0
M  V30 3623 O 340.635 2.23693 1.17123 0
M  V30 3624 C 341.948 2.18649 -2.06429 0
M  V30 3625 C 343.496 2.32055 -2.10047 0
M  V30 3626 C 343.971 3.23122 -3.24586 0
M  V30 3627 N 345.462 3.30706 -3.24327 0
M  V30 3628 C 346.197 4.01273 -4.09594 0
M  V30 3629 N 345.693 4.74332 -5.04956 0
M  V30 3630 N 347.486 3.97361 -3.97569 0
M  V30 3631 H 339.637 0.615777 -2.03278 0
M  V30 3632 H 341.9 0.334077 -0.887185 0
M  V30 3633 H 341.606 1.77534 -3.03603 0
M  V30 3634 H 341.48 3.19252 -2.00894 0
M  V30 3635 H 343.867 2.72415 -1.13464 0
M  V30 3636 H 343.948 1.31107 -2.19647 0
M  V30 3637 H 343.592 2.83477 -4.2143 0
M  V30 3638 H 343.522 4.24057 -3.12223 0
M  V30 3639 H 346.013 2.78644 -2.55276 0
M  V30 3640 H 346.326 5.25716 -5.6643 0
M  V30 3641 H 344.671 4.733 -5.08933 0
M  V30 3642 H 347.862 3.39405 -3.22369 0
M  V30 3643 H 348.035 4.52089 -4.64241 0
M  V30 3644 N 341.441 0.965919 1.2453 0
M  V30 3645 C 342.69 0.622437 1.91856 0
M  V30 3646 C 343.003 -0.846006 1.76358 0
M  V30 3647 O 344.209 -1.29993 2.38357 0
M  V30 3648 C 342.665 1.0626 3.43856 0
M  V30 3649 C 342.273 2.55437 3.68043 0
M  V30 3650 C 344.017 0.792183 4.17043 0
M  V30 3651 C 341.924 2.93196 5.13605 0
M  V30 3652 H 340.854 0.229092 0.718354 0
M  V30 3653 H 343.505 1.17189 1.41206 0
M  V30 3654 H 341.887 0.441476 3.93531 0
M  V30 3655 H 343.061 3.22665 3.28974 0
M  V30 3656 H 341.376 2.8007 3.08139 0
M  V30 3657 H 343.973 1.05031 5.24283 0
M  V30 3658 H 344.316 -0.271584 4.15413 0
M  V30 3659 H 344.849 1.37419 3.73311 0
M  V30 3660 H 341.588 3.98636 5.20355 0
M  V30 3661 H 341.108 2.30651 5.53679 0
M  V30 3662 H 342.787 2.83004 5.81823 0
M  V30 3663 N 342.919 -1.39368 0.735821 0
M  V30 3664 C 343.882 -2.2896 0.104874 0
M  V30 3665 C 344.882 -1.46347 -0.666274 0
M  V30 3666 O 346.072 -1.67014 -0.49517 0
M  V30 3667 C 343.204 -3.29857 -0.860656 0
M  V30 3668 H 344.397 -2.86259 0.894205 0
M  V30 3669 H 341.95 -1.48029 0.501704 0
M  V30 3670 H 342.685 -2.77615 -1.67631 0
M  V30 3671 H 342.47 -3.9087 -0.310327 0
M  V30 3672 H 343.96 -3.96893 -1.29867 0
M  V30 3673 N 344.397 -0.483516 -1.5 0
M  V30 3674 C 345.643 0.0593261 -2.03313 0
M  V30 3675 C 345.998 1.36288 -1.35806 0
M  V30 3676 O 345.291 1.85519 -0.478897 0
M  V30 3677 C 345.485 0.286226 -3.56252 0
M  V30 3678 C 345.314 -0.993788 -4.38582 0
M  V30 3679 C 344.084 -1.54064 -4.81241 0
M  V30 3680 C 346.282 -1.89249 -4.78215 0
M  V30 3681 N 344.264 -2.76838 -5.47936 0
M  V30 3682 C 345.635 -2.96606 -5.44449 0
M  V30 3683 C 347.69 -1.90138 -4.60165 0
M  V30 3684 C 346.393 -4.04857 -5.94544 0
M  V30 3685 C 348.419 -2.97353 -5.1121 0
M  V30 3686 C 347.781 -4.03429 -5.77429 0
M  V30 3687 H 343.88 -0.0186322 -0.781778 0
M  V30 3688 H 346.464 -0.654489 -1.8337 0
M  V30 3689 H 344.635 0.969086 -3.76116 0
M  V30 3690 H 346.367 0.824515 -3.96212 0
M  V30 3691 H 343.122 -1.08813 -4.6093 0
M  V30 3692 H 343.546 -3.39221 -5.85882 0
M  V30 3693 H 348.188 -1.09441 -4.0839 0
M  V30 3694 H 345.906 -4.86363 -6.4535 0
M  V30 3695 H 349.492 -2.99039 -4.99066 0
M  V30 3696 H 348.372 -4.85025 -6.16214 0
M  V30 3697 N 345.875 1.56104 -0.216619 0
M  V30 3698 C 347.123 1.97781 0.415593 0
M  V30 3699 C 347.444 1.10536 1.60645 0
M  V30 3700 O 346.714 0.181303 1.95059 0
M  V30 3701 H 345.294 0.730415 0.156534 0
M  V30 3702 H 347.956 1.92445 -0.308366 0
M  V30 3703 H 347.052 3.03072 0.74525 0
M  V30 3704 N 347.353 -0.0568162 1.57498 0
M  V30 3705 C 348.3 -1.06591 2.04712 0
M  V30 3706 C 349.27 -1.3758 0.930644 0
M  V30 3707 O 350.455 -1.48392 1.19935 0
M  V30 3708 C 347.595 -2.3701 2.50839 0
M  V30 3709 C 346.708 -2.12421 3.76167 0
M  V30 3710 C 345.843 -3.36511 4.11015 0
M  V30 3711 C 344.882 -3.07353 5.2934 0
M  V30 3712 N 344.019 -4.23816 5.59754 0
M  V30 3713 H 348.859 -0.65631 2.90683 0
M  V30 3714 H 346.396 -0.312481 1.43743 0
M  V30 3715 H 348.354 -3.13175 2.7564 0
M  V30 3716 H 346.984 -2.75744 1.67825 0
M  V30 3717 H 346.036 -1.2688 3.58616 0
M  V30 3718 H 347.348 -1.86894 4.62463 0
M  V30 3719 H 346.502 -4.21062 4.36797 0
M  V30 3720 H 345.241 -3.65128 3.23315 0
M  V30 3721 H 344.246 -2.212 5.03339 0
M  V30 3722 H 345.471 -2.80043 6.1867 0
M  V30 3723 H 343.417 -4.52436 4.75014 0
M  V30 3724 H 343.334 -4.01614 6.40501 0
M  V30 3725 H 344.602 -5.0932 5.90096 0
M  V30 3726 N 348.832 -1.54138 -0.328536 0
M  V30 3727 C 350.079 -1.72105 -1.06706 0
M  V30 3728 C 350.407 -0.492111 -1.88171 0
M  V30 3729 O 349.662 0.526153 -1.88494 0
M  V30 3730 C 349.961 -2.9457 -2.02393 0
M  V30 3731 C 349.627 -4.29544 -1.37122 0
M  V30 3732 C 348.289 -4.6624 -1.19052 0
M  V30 3733 C 350.641 -5.1333 -0.902331 0
M  V30 3734 C 347.969 -5.84325 -0.527331 0
M  V30 3735 C 350.321 -6.32094 -0.252988 0
M  V30 3736 C 348.985 -6.67473 -0.0600901 0
M  V30 3737 H 348.255 -0.629775 -0.390466 0
M  V30 3738 H 350.902 -1.88372 -0.34473 0
M  V30 3739 H 349.207 -2.72969 -2.81061 0
M  V30 3740 H 350.904 -3.05665 -2.59557 0
M  V30 3741 H 347.494 -4.0067 -1.52188 0
M  V30 3742 H 351.678 -4.855 -1.02974 0
M  V30 3743 H 346.934 -6.103 -0.366634 0
M  V30 3744 H 351.108 -6.96299 0.118366 0
M  V30 3745 H 348.735 -7.58832 0.455828 0
M  V30 3746 N 350.31 0.590341 -1.46126 0
M  V30 3747 C 351.243 1.71434 -1.50617 0
M  V30 3748 C 352.221 1.58543 -0.360948 0
M  V30 3749 O 353.405 1.79865 -0.563985 0
M  V30 3750 C 350.532 3.09422 -1.37753 0
M  V30 3751 C 349.578 3.40854 -2.5636 0
M  V30 3752 S 350.411 3.33773 -4.18755 0
M  V30 3753 C 351.567 4.74312 -4.08386 0
M  V30 3754 H 351.8 1.67364 -2.45717 0
M  V30 3755 H 349.333 0.76845 -1.33919 0
M  V30 3756 H 351.291 3.8903 -1.31018 0
M  V30 3757 H 349.952 3.10989 -0.440949 0
M  V30 3758 H 349.145 4.41368 -2.43332 0
M  V30 3759 H 348.747 2.68798 -2.60046 0
M  V30 3760 H 351.039 5.64522 -3.74595 0
M  V30 3761 H 351.982 4.92397 -5.08872 0
M  V30 3762 H 352.39 4.50803 -3.3976 0
M  V30 3763 N 351.788 1.33704 0.83433 0
M  V30 3764 C 352.736 1.24323 1.96587 0
M  V30 3765 C 353.73 0.143659 1.6879 0
M  V30 3766 O 354.936 0.30791 1.77347 0
M  V30 3767 H 351.311 0.385925 0.645419 0
M  V30 3768 H 353.282 2.19978 2.01624 0
M  V30 3769 C 352.031 1.00394 3.32891 0
M  V30 3770 H 351.354 1.84231 3.54822 0
M  V30 3771 H 352.794 0.97862 4.12552 0
M  V30 3772 C 351.253 -0.293047 3.35623 0
M  V30 3773 O 351.783 -1.29823 3.80143 0
M  V30 3774 N 349.989 -0.322174 2.88809 0
M  V30 3775 H 349.536 0.496379 2.52772 0
M  V30 3776 H 349.494 -1.18977 2.91019 0
M  V30 3777 N 353.266 -1.05314 1.17247 0
M  V30 3778 C 354.491 -1.82509 0.985148 0
M  V30 3779 C 354.916 -1.82343 -0.461788 0
M  V30 3780 O 354.274 -1.23151 -1.33055 0
M  V30 3781 C 354.322 -3.26566 1.52929 0
M  V30 3782 O 353.426 -4.05666 0.742225 0
M  V30 3783 H 352.767 -0.564347 0.349869 0
M  V30 3784 H 355.297 -1.32718 1.55715 0
M  V30 3785 H 355.307 -3.77369 1.55103 0
M  V30 3786 H 353.982 -3.26001 2.58256 0
M  V30 3787 H 352.559 -3.64397 0.791794 0
M  V30 3788 N 354.744 -0.972509 -1.24016 0
M  V30 3789 C 355.992 -0.635776 -1.91839 0
M  V30 3790 C 356.313 0.832312 -1.76345 0
M  V30 3791 O 355.583 1.5946 -1.13795 0
M  V30 3792 H 354.163 -0.232157 -0.710009 0
M  V30 3793 H 356.825 -1.23462 -1.50809 0
M  V30 3794 H 355.921 -0.880545 -2.99421 0
M  V30 3795 N 356.222 1.38976 -0.743202 0
M  V30 3796 C 357.154 2.29096 -0.0689228 0
M  V30 3797 C 358.167 1.47229 0.694791 0
M  V30 3798 O 359.356 1.70212 0.537597 0
M  V30 3799 C 356.456 3.25988 0.926548 0
M  V30 3800 C 355.629 4.36833 0.222647 0
M  V30 3801 C 354.688 5.13981 1.12739 0
M  V30 3802 O 353.714 5.6601 0.601795 0
M  V30 3803 N 354.916 5.25966 2.45641 0
M  V30 3804 H 357.681 2.87604 -0.842846 0
M  V30 3805 H 355.242 1.50645 -0.593109 0
M  V30 3806 H 357.234 3.74476 1.5346 0
M  V30 3807 H 355.804 2.68453 1.60162 0
M  V30 3808 H 355.024 3.90116 -0.565983 0
M  V30 3809 H 356.312 5.0811 -0.264841 0
M  V30 3810 H 355.71 4.85228 2.9081 0
M  V30 3811 H 354.267 5.77865 3.01522 0
M  V30 3812 N 357.7 0.491464 1.49741 0
M  V30 3813 C 358.928 -0.0535151 2.06831 0
M  V30 3814 C 359.343 -1.31683 1.35296 0
M  V30 3815 O 358.7 -1.77402 0.42836 0
M  V30 3816 C 358.751 -0.320835 3.60073 0
M  V30 3817 O 358.472 0.892394 4.28915 0
M  V30 3818 C 359.973 -0.910519 4.33848 0
M  V30 3819 H 357.193 0.0161909 0.670805 0
M  V30 3820 H 359.737 0.68609 1.92647 0
M  V30 3821 H 357.892 -1.0104 3.73991 0
M  V30 3822 H 358.306 0.649401 5.20464 0
M  V30 3823 H 359.78 -1.04721 5.41976 0
M  V30 3824 H 360.257 -1.90589 3.95692 0
M  V30 3825 H 360.863 -0.258712 4.24512 0
M  V30 3826 N 359.178 -1.55987 0.224894 0
M  V30 3827 C 360.418 -2.00293 -0.407706 0
M  V30 3828 C 360.782 -1.1093 -1.56711 0
M  V30 3829 O 361.983 -1.44597 -2.26595 0
M  V30 3830 C 360.254 -3.47675 -0.82805 0
M  V30 3831 S 361.813 -4.14 -1.45429 0
M  V30 3832 H 358.631 -0.699152 -0.129256 0
M  V30 3833 H 361.233 -1.92609 0.334967 0
M  V30 3834 H 359.937 -4.10392 0.0253964 0
M  V30 3835 H 359.468 -3.59239 -1.60345 0
M  V30 3836 H 361.483 -4.13465 -2.74337 0
M  V30 3837 N 360.656 0.0484629 -1.57525 0
M  V30 3838 C 361.902 0.744226 -1.88651 0
M  V30 3839 C 362.235 1.76029 -0.820212 0
M  V30 3840 O 361.51 1.93782 0.166985 0
M  V30 3841 C 361.793 1.43128 -3.30434 0
M  V30 3842 C 361.646 0.43005 -4.47739 0
M  V30 3843 C 362.965 2.37031 -3.70816 0
M  V30 3844 H 360.084 0.269089 -0.68612 0
M  V30 3845 H 362.726 0.00713532 -1.89999 0
M  V30 3846 H 360.876 2.05956 -3.29415 0
M  V30 3847 H 362.548 -0.194816 -4.60888 0
M  V30 3848 H 360.791 -0.252522 -4.33064 0
M  V30 3849 H 361.462 0.948874 -5.43783 0
M  V30 3850 H 363.938 1.84263 -3.73077 0
M  V30 3851 H 362.814 2.82094 -4.70865 0
M  V30 3852 H 363.075 3.22864 -3.02012 0
M  V30 3853 N 362.134 1.5431 0.320358 0
M  V30 3854 C 363.097 1.83195 1.3774 0
M  V30 3855 C 364.097 0.703906 1.44575 0
M  V30 3856 O 365.287 0.972214 1.44546 0
M  V30 3857 C 362.419 1.99487 2.76438 0
M  V30 3858 H 363.612 2.77642 1.1338 0
M  V30 3859 H 361.165 1.46076 0.556012 0
M  V30 3860 H 361.9 1.07262 3.06048 0
M  V30 3861 H 361.685 2.81575 2.7287 0
M  V30 3862 H 363.175 2.23271 3.52902 0
M  V30 3863 N 363.613 -0.582584 1.46437 0
M  V30 3864 C 365.024 -1.1647 1.45916 0
M  V30 3865 C 365.375 -1.95177 0.200077 0
M  V30 3866 O 364.5 -2.04874 -0.696819 0
M  V30 3867 C 365.095 -2.11885 2.64367 0
M  V30 3868 C 363.654 -2.65421 2.66887 0
M  V30 3869 C 362.801 -1.41294 2.38603 0
M  V30 3870 H 365.752 -0.370514 1.54314 0
M  V30 3871 H 365.773 -2.9535 2.39892 0
M  V30 3872 H 365.285 -1.54573 3.5599 0
M  V30 3873 H 363.386 -3.26602 1.79338 0
M  V30 3874 H 363.499 -3.08147 3.66854 0
M  V30 3875 H 361.863 -1.71109 1.88663 0
M  V30 3876 H 362.646 -0.858125 3.32402 0
M  V30 3877 N 365.091 -1.34144 -0.827227 0
M  V30 3878 C 366.368 -1.16844 -1.56865 0
M  V30 3879 C 366.748 0.260654 -2.09485 0
M  V30 3880 O 366.096 1.26138 -1.9053 0
M  V30 3881 C 366.306 -2.21939 -2.6934 0
M  V30 3882 C 367.654 -2.56695 -3.3822 0
M  V30 3883 O 368.678 -2.20695 -2.79593 0
M  V30 3884 O 367.537 -3.18518 -4.44082 0
M  V30 3885 H 364.631 -0.452669 -0.692112 0
M  V30 3886 H 367.177 -1.45763 -0.868973 0
M  V30 3887 H 365.949 -3.17882 -2.28182 0
M  V30 3888 H 365.572 -1.94172 -3.46962 0
M  V30 3889 N 366.569 1.04691 -1.17803 0
M  V30 3890 C 367.799 1.81183 -0.992788 0
M  V30 3891 C 368.207 1.8347 0.462098 0
M  V30 3892 O 367.55 1.2643 1.33271 0
M  V30 3893 C 367.612 3.28363 -1.46349 0
M  V30 3894 C 367.276 3.49749 -2.94151 0
M  V30 3895 C 368.273 3.41456 -3.92051 0
M  V30 3896 C 365.958 3.76548 -3.32441 0
M  V30 3897 C 367.952 3.59656 -5.26238 0
M  V30 3898 C 365.639 3.94396 -4.66792 0
M  V30 3899 C 366.637 3.8595 -5.635 0
M  V30 3900 O 366.325 4.03294 -6.9542 0
M  V30 3901 H 366.057 0.577622 -0.351182 0
M  V30 3902 H 368.611 1.32876 -1.5663 0
M  V30 3903 H 366.841 3.77609 -0.833574 0
M  V30 3904 H 368.53 3.86395 -1.24313 0
M  V30 3905 H 369.296 3.20723 -3.63815 0
M  V30 3906 H 365.175 3.82224 -2.57732 0
M  V30 3907 H 368.719 3.52979 -6.01707 0
M  V30 3908 H 364.616 4.14622 -4.94731 0
M  V30 3909 H 365.384 4.2049 -7.02232 0
M  V30 3910 N 368.047 0.979072 1.23499 0
M  V30 3911 C 369.296 0.642751 1.91185 0
M  V30 3912 C 369.609 -0.827253 1.77245 0
M  V30 3913 O 370.815 -1.27458 2.39722 0
M  V30 3914 C 369.271 1.09901 3.42709 0
M  V30 3915 C 368.879 2.59327 3.65313 0
M  V30 3916 C 370.623 0.836371 4.16179 0
M  V30 3917 C 368.53 2.98627 5.10467 0
M  V30 3918 H 367.46 0.236698 0.715884 0
M  V30 3919 H 370.111 1.1868 1.39955 0
M  V30 3920 H 368.493 0.48319 3.93041 0
M  V30 3921 H 369.667 3.26136 3.25533 0
M  V30 3922 H 367.982 2.83323 3.05151 0
M  V30 3923 H 370.579 1.10586 5.23139 0
M  V30 3924 H 370.922 -0.227509 4.15678 0
M  V30 3925 H 371.455 1.41371 3.71832 0
M  V30 3926 H 368.194 4.04133 5.16098 0
M  V30 3927 H 367.714 2.3651 5.51201 0
M  V30 3928 H 369.393 2.89159 5.78788 0
M  V30 3929 N 369.525 -1.3858 0.750561 0
M  V30 3930 C 370.455 -2.33102 0.136237 0
M  V30 3931 C 371.436 -1.54713 -0.706965 0
M  V30 3932 O 372.621 -1.83043 -0.648769 0
M  V30 3933 C 369.751 -3.38882 -0.760017 0
M  V30 3934 C 368.705 -4.27995 -0.0197785 0
M  V30 3935 C 368.031 -5.24605 -1.03408 0
M  V30 3936 C 369.331 -5.09554 1.14684 0
M  V30 3937 H 371.025 -2.84726 0.925822 0
M  V30 3938 H 368.571 -1.36898 0.446654 0
M  V30 3939 H 370.524 -4.0397 -1.19943 0
M  V30 3940 H 369.248 -2.85734 -1.58189 0
M  V30 3941 H 367.907 -3.64409 0.400184 0
M  V30 3942 H 367.555 -4.67746 -1.84994 0
M  V30 3943 H 367.255 -5.85081 -0.543464 0
M  V30 3944 H 368.779 -5.9257 -1.47288 0
M  V30 3945 H 370.193 -5.67899 0.785118 0
M  V30 3946 H 368.59 -5.7925 1.56812 0
M  V30 3947 H 369.66 -4.4347 1.96118 0
M  V30 3948 N 371.003 -0.499398 -1.49478 0
M  V30 3949 C 372.243 0.0440751 -2.04352 0
M  V30 3950 C 372.607 1.34423 -1.37093 0
M  V30 3951 O 373.808 1.97184 -1.82679 0
M  V30 3952 C 372.079 0.194918 -3.56868 0
M  V30 3953 S 373.638 0.69287 -4.33295 0
M  V30 3954 H 370.456 0.00253458 -0.710995 0
M  V30 3955 H 373.058 -0.673 -1.83551 0
M  V30 3956 H 371.762 -0.756672 -4.03364 0
M  V30 3957 H 371.293 0.93728 -3.82071 0
M  V30 3958 H 373.308 1.96226 -4.55752 0
M  V30 3959 N 372.481 1.55866 -0.233164 0
M  V30 3960 C 373.758 1.90471 0.444988 0
M  V30 3961 C 374.138 1.15209 1.7689 0
M  V30 3962 O 373.486 0.265119 2.26957 0
M  V30 3963 C 373.696 3.4333 0.626559 0
M  V30 3964 C 375.044 4.14319 0.92871 0
M  V30 3965 O 376.068 3.48993 0.712926 0
M  V30 3966 O 374.927 5.29846 1.33887 0
M  V30 3967 H 372.021 0.792347 0.236885 0
M  V30 3968 H 374.567 1.67437 -0.276211 0
M  V30 3969 H 373.339 3.90095 -0.306822 0
M  V30 3970 H 372.962 3.72181 1.39881 0
M  V30 3971 N 373.959 -0.0401083 1.57549 0
M  V30 3972 C 375.37 -0.588097 1.77196 0
M  V30 3973 C 375.721 -1.76209 0.862832 0
M  V30 3974 O 374.846 -2.16331 0.0548389 0
M  V30 3975 C 375.441 -1.07363 3.21339 0
M  V30 3976 C 374 -1.56723 3.42221 0
M  V30 3977 C 373.147 -0.50041 2.72747 0
M  V30 3978 H 376.098 0.186119 1.57605 0
M  V30 3979 H 376.119 -1.94143 3.27244 0
M  V30 3980 H 375.631 -0.218975 3.87482 0
M  V30 3981 H 373.732 -2.4441 2.81237 0
M  V30 3982 H 373.845 -1.62234 4.50796 0
M  V30 3983 H 372.209 -0.952894 2.36203 0
M  V30 3984 H 372.992 0.344599 3.41566 0
M  V30 3985 N 375.437 -1.54477 -0.31217 0
M  V30 3986 C 376.662 -1.77526 -1.07235 0
M  V30 3987 C 377.087 -0.527775 -1.80544 0
M  V30 3988 O 376.445 0.52121 -1.73646 0
M  V30 3989 C 376.493 -2.97535 -2.03728 0
M  V30 3990 O 375.597 -2.69878 -3.11833 0
M  V30 3991 H 374.938 -0.58792 -0.30862 0
M  V30 3992 H 377.468 -2.01532 -0.352993 0
M  V30 3993 H 377.478 -3.25198 -2.46395 0
M  V30 3994 H 376.153 -3.87996 -1.49774 0
M  V30 3995 H 374.73 -2.53199 -2.7376 0
M  V30 3996 N 376.915 0.57481 -1.46744 0
M  V30 3997 C 378.164 1.32898 -1.51727 0
M  V30 3998 C 378.477 1.948 -0.176692 0
M  V30 3999 O 379.683 2.71299 -0.104385 0
M  V30 4000 C 378.139 2.40901 -2.67385 0
M  V30 4001 C 377.747 1.85266 -4.07898 0
M  V30 4002 C 379.491 3.17609 -2.81646 0
M  V30 4003 C 377.398 2.90945 -5.14883 0
M  V30 4004 H 376.328 0.499631 -0.564699 0
M  V30 4005 H 378.979 0.612536 -1.72975 0
M  V30 4006 H 377.361 3.15379 -2.39483 0
M  V30 4007 H 378.535 1.17278 -4.45626 0
M  V30 4008 H 376.85 1.21199 -3.98371 0
M  V30 4009 H 379.447 3.96493 -3.58744 0
M  V30 4010 H 379.79 3.70696 -1.89448 0
M  V30 4011 H 380.323 2.50239 -3.09233 0
M  V30 4012 H 377.062 2.42736 -6.089 0
M  V30 4013 H 376.582 3.57398 -4.81691 0
M  V30 4014 H 378.261 3.54755 -5.41071 0
M  V30 4015 N 378.394 1.34581 0.820102 0
M  V30 4016 C 379.326 1.22236 1.93884 0
M  V30 4017 C 380.339 0.148776 1.62119 0
M  V30 4018 O 381.528 0.400877 1.7394 0
M  V30 4019 C 378.628 0.856542 3.27897 0
M  V30 4020 C 377.801 2.02569 3.87666 0
M  V30 4021 C 376.86 1.63782 5.00062 0
M  V30 4022 O 375.886 2.35477 5.18208 0
M  V30 4023 N 377.088 0.553611 5.77854 0
M  V30 4024 H 379.853 2.18615 2.05006 0
M  V30 4025 H 377.414 1.27573 0.99683 0
M  V30 4026 H 379.406 0.578806 4.0054 0
M  V30 4027 H 377.976 -0.0171518 3.12595 0
M  V30 4028 H 377.196 2.468 3.07382 0
M  V30 4029 H 378.484 2.80752 4.24329 0
M  V30 4030 H 377.882 -0.0423528 5.65684 0
M  V30 4031 H 376.439 0.335614 6.50935 0
M  V30 4032 N 379.872 -1.04064 1.18357 0
M  V30 4033 C 380.82 -2.14187 0.907007 0
M  V30 4034 C 381.814 -1.68879 -0.132725 0
M  V30 4035 O 383.02 -1.79993 0.0154248 0
M  V30 4036 H 379.395 -0.699585 0.275835 0
M  V30 4037 H 381.366 -2.34711 1.84264 0
M  V30 4038 C 380.115 -3.44785 0.449254 0
M  V30 4039 H 379.438 -3.80058 1.24081 0
M  V30 4040 H 380.878 -4.22974 0.294737 0
M  V30 4041 C 379.337 -3.26391 -0.834909 0
M  V30 4042 O 379.867 -3.53973 -1.89911 0
M  V30 4043 N 378.073 -2.79726 -0.787523 0
M  V30 4044 H 377.62 -2.5748 0.0787347 0
M  V30 4045 H 377.578 -2.67798 -1.64716 0
M  V30 4046 N 381.35 -0.985608 -1.22978 0
M  V30 4047 C 382.282 -0.488154 -2.23941 0
M  V30 4048 C 383.295 0.41282 -1.57479 0
M  V30 4049 O 384.484 0.216121 -1.77187 0
M  V30 4050 C 381.584 0.312611 -3.37455 0
M  V30 4051 C 380.757 -0.582741 -4.33501 0
M  V30 4052 C 379.816 0.165064 -5.25941 0
M  V30 4053 O 378.842 -0.447077 -5.67442 0
M  V30 4054 N 380.044 1.44953 -5.62111 0
M  V30 4055 H 382.809 -1.3563 -2.67254 0
M  V30 4056 H 380.37 -0.859477 -1.37203 0
M  V30 4057 H 382.362 0.821357 -3.96277 0
M  V30 4058 H 380.932 1.0818 -2.93285 0
M  V30 4059 H 380.152 -1.27225 -3.73105 0
M  V30 4060 H 381.44 -1.19275 -4.94622 0
M  V30 4061 H 380.838 1.9683 -5.30353 0
M  V30 4062 H 379.395 1.90361 -6.23383 0
M  V30 4063 N 382.828 1.3818 -0.7579 0
M  V30 4064 C 384.077 1.99261 -0.312744 0
M  V30 4065 C 384.39 1.60846 1.11301 0
M  V30 4066 O 385.596 2.14929 1.65885 0
M  V30 4067 C 384.052 3.56294 -0.50821 0
M  V30 4068 C 383.66 4.03657 -1.94333 0
M  V30 4069 C 385.404 4.24313 -0.125982 0
M  V30 4070 C 383.311 5.53347 -2.08712 0
M  V30 4071 H 382.241 0.745456 -0.113185 0
M  V30 4072 H 384.892 1.57889 -0.935056 0
M  V30 4073 H 383.274 3.95575 0.183353 0
M  V30 4074 H 384.448 3.75655 -2.66871 0
M  V30 4075 H 382.763 3.48376 -2.28086 0
M  V30 4076 H 385.36 5.34279 -0.212125 0
M  V30 4077 H 385.703 4.05962 0.921964 0
M  V30 4078 H 386.236 3.90285 -0.769563 0
M  V30 4079 H 382.975 5.76607 -3.11777 0
M  V30 4080 H 382.495 5.83078 -1.4064 0
M  V30 4081 H 384.174 6.19111 -1.87912 0
M  V30 4082 N 384.306 0.507319 1.49211 0
M  V30 4083 C 385.552 -0.0350047 2.0277 0
M  V30 4084 C 385.885 -1.3606 1.38569 0
M  V30 4085 O 385.16 -1.87321 0.523542 0
M  V30 4086 C 385.443 -0.180916 3.59645 0
M  V30 4087 C 385.296 1.16825 4.34364 0
M  V30 4088 C 386.615 -0.918558 4.30407 0
M  V30 4089 H 383.734 -0.0112473 0.736914 0
M  V30 4090 H 386.376 0.659956 1.7817 0
M  V30 4091 H 384.526 -0.772826 3.80736 0
M  V30 4092 H 386.198 1.79952 4.24753 0
M  V30 4093 H 384.441 1.75594 3.96673 0
M  V30 4094 H 385.112 1.01939 5.42506 0
M  V30 4095 H 387.588 -0.41649 4.1401 0
M  V30 4096 H 386.464 -0.989505 5.39907 0
M  V30 4097 H 386.725 -1.96373 3.96093 0
M  V30 4098 N 385.784 -1.5574 0.241426 0
M  V30 4099 C 386.694 -2.2479 -0.671305 0
M  V30 4100 C 387.71 -1.26217 -1.19772 0
M  V30 4101 O 388.886 -1.59079 -1.23514 0
M  V30 4102 C 385.951 -2.92966 -1.85396 0
M  V30 4103 C 385.012 -4.06935 -1.36756 0
M  V30 4104 C 384.245 -4.71851 -2.49384 0
M  V30 4105 O 384.468 -4.35823 -3.67987 0
M  V30 4106 O 383.402 -5.60467 -2.19454 0
M  V30 4107 H 387.228 -3.0349 -0.112966 0
M  V30 4108 H 384.813 -1.49397 0.0101513 0
M  V30 4109 H 386.695 -3.35927 -2.54423 0
M  V30 4110 H 385.37 -2.17211 -2.40002 0
M  V30 4111 H 384.277 -3.68503 -0.644726 0
M  V30 4112 H 385.61 -4.84492 -0.867647 0
M  V30 4113 N 387.262 0.0317525 -1.57568 0
M  V30 4114 C 388.209 1.0332 -2.06382 0
M  V30 4115 C 389.179 1.36082 -0.952414 0
M  V30 4116 O 390.364 1.46466 -1.2228 0
M  V30 4117 C 387.504 2.32989 -2.54578 0
M  V30 4118 C 386.617 2.0641 -3.79498 0
M  V30 4119 C 385.752 3.2993 -4.16317 0
M  V30 4120 C 384.791 2.98893 -5.34162 0
M  V30 4121 N 383.928 4.14857 -5.66426 0
M  V30 4122 H 388.768 0.609982 -2.9169 0
M  V30 4123 H 386.305 0.289573 -1.44222 0
M  V30 4124 H 388.263 3.0875 -2.80587 0
M  V30 4125 H 386.893 2.73039 -1.7219 0
M  V30 4126 H 385.945 1.21158 -3.6059 0
M  V30 4127 H 387.257 1.79513 -4.65378 0
M  V30 4128 H 386.411 4.1406 -4.4344 0
M  V30 4129 H 385.15 3.59938 -3.29083 0
M  V30 4130 H 384.155 2.13164 -5.06795 0
M  V30 4131 H 385.38 2.70165 -6.23047 0
M  V30 4132 H 383.326 4.44821 -4.82151 0
M  V30 4133 H 383.243 3.91374 -6.4681 0
M  V30 4134 H 384.511 4.99868 -5.98124 0
M  V30 4135 N 388.74 1.54641 0.303973 0
M  V30 4136 C 389.67 1.88386 1.3796 0
M  V30 4137 C 390.651 0.742485 1.5304 0
M  V30 4138 O 391.836 0.997959 1.66597 0
M  V30 4139 C 388.966 2.12854 2.74427 0
M  V30 4140 C 387.92 3.28702 2.74115 0
M  V30 4141 C 387.246 3.38582 4.13844 0
M  V30 4142 C 388.546 4.65881 2.3612 0
M  V30 4143 H 390.24 2.78474 1.09966 0
M  V30 4144 H 387.786 1.33988 0.527556 0
M  V30 4145 H 389.739 2.35047 3.49758 0
M  V30 4146 H 388.463 1.19535 3.03939 0
M  V30 4147 H 387.122 3.06428 2.0124 0
M  V30 4148 H 386.77 2.42784 4.40528 0
M  V30 4149 H 386.47 4.16453 4.14537 0
M  V30 4150 H 387.994 3.63031 4.90959 0
M  V30 4151 H 389.408 4.87823 3.01167 0
M  V30 4152 H 387.805 5.46444 2.48031 0
M  V30 4153 H 388.875 4.66799 1.3125 0
M  V30 4154 N 390.218 -0.567019 1.47046 0
M  V30 4155 C 391.165 -1.67489 1.58796 0
M  V30 4156 C 392.135 -1.60399 0.43144 0
M  V30 4157 O 393.32 -1.79378 0.650233 0
M  V30 4158 C 390.46 -3.05821 1.59899 0
M  V30 4159 C 389.573 -3.2342 2.86397 0
M  V30 4160 C 388.708 -4.52093 2.789 0
M  V30 4161 C 387.747 -4.6309 4.00267 0
M  V30 4162 N 386.884 -5.83106 3.91064 0
M  V30 4163 H 391.724 -1.56785 2.53422 0
M  V30 4164 H 389.261 -0.763896 1.2571 0
M  V30 4165 H 391.219 -3.8591 1.58522 0
M  V30 4166 H 389.849 -3.15384 0.687929 0
M  V30 4167 H 388.901 -2.3683 2.97684 0
M  V30 4168 H 390.213 -3.27412 3.76301 0
M  V30 4169 H 389.367 -5.4043 2.75718 0
M  V30 4170 H 388.106 -4.50565 1.86662 0
M  V30 4171 H 387.111 -3.73168 4.03765 0
M  V30 4172 H 388.336 -4.66386 4.93621 0
M  V30 4173 H 386.282 -5.82546 3.01623 0
M  V30 4174 H 386.199 -5.88434 4.74638 0
M  V30 4175 H 387.467 -6.73831 3.91882 0
M  V30 4176 N 391.696 -1.35014 -0.812953 0
M  V30 4177 C 392.643 -1.27412 -1.92444 0
M  V30 4178 C 393.613 -0.14733 -1.65445 0
M  V30 4179 O 394.798 -0.329974 -1.87925 0
M  V30 4180 C 391.938 -1.04558 -3.28879 0
M  V30 4181 C 391.051 -2.26101 -3.68106 0
M  V30 4182 C 390.186 -1.96449 -4.9354 0
M  V30 4183 C 389.225 -3.14081 -5.25376 0
M  V30 4184 N 388.362 -2.84246 -6.41988 0
M  V30 4185 H 393.202 -2.22463 -1.98278 0
M  V30 4186 H 390.739 -1.10593 -0.969933 0
M  V30 4187 H 392.697 -0.893413 -4.07522 0
M  V30 4188 H 391.327 -0.131719 -3.22531 0
M  V30 4189 H 390.379 -2.52204 -2.84775 0
M  V30 4190 H 391.691 -3.13959 -3.87597 0
M  V30 4191 H 390.845 -1.78026 -5.79993 0
M  V30 4192 H 389.584 -1.05867 -4.76071 0
M  V30 4193 H 388.589 -3.33089 -4.37415 0
M  V30 4194 H 389.814 -4.05455 -5.44778 0
M  V30 4195 H 387.76 -1.96252 -6.25956 0
M  V30 4196 H 387.677 -3.65637 -6.61699 0
M  V30 4197 H 388.945 -2.6935 -7.31485 0
M  V30 4198 N 393.175 1.03435 -1.18907 0
M  V30 4199 C 394.4 1.80919 -1.01406 0
M  V30 4200 C 394.825 1.83055 0.432721 0
M  V30 4201 O 394.183 1.25252 1.31079 0
M  V30 4202 C 394.231 3.24091 -1.58105 0
M  V30 4203 O 393.335 4.04434 -0.806669 0
M  V30 4204 H 392.676 0.558709 -0.358803 0
M  V30 4205 H 395.206 1.30223 -1.57807 0
M  V30 4206 H 395.216 3.74853 -1.61087 0
M  V30 4207 H 393.891 3.21851 -2.6341 0
M  V30 4208 H 392.468 3.63091 -0.849666 0
M  V30 4209 N 394.653 0.992116 1.22453 0
M  V30 4210 C 395.583 0.561677 2.26644 0
M  V30 4211 C 396.564 -0.411055 1.65059 0
M  V30 4212 O 397.749 -0.301861 1.9184 0
M  V30 4213 C 394.879 -0.125247 3.47074 0
M  V30 4214 C 393.833 0.765948 4.21091 0
M  V30 4215 C 393.159 -0.0538484 5.34673 0
M  V30 4216 C 394.459 2.06242 4.79856 0
M  V30 4217 H 396.153 1.43259 2.62902 0
M  V30 4218 H 393.699 0.690283 1.26377 0
M  V30 4219 H 395.652 -0.437764 4.1912 0
M  V30 4220 H 394.376 -1.03069 3.0991 0
M  V30 4221 H 393.035 1.0621 3.50878 0
M  V30 4222 H 392.683 -0.960188 4.9375 0
M  V30 4223 H 392.383 0.539415 5.85119 0
M  V30 4224 H 393.907 -0.360477 6.09535 0
M  V30 4225 H 395.321 1.8139 5.43848 0
M  V30 4226 H 393.718 2.60444 5.40638 0
M  V30 4227 H 394.788 2.74167 3.99951 0
M  V30 4228 N 396.131 -1.37776 0.765217 0
M  V30 4229 C 397.078 -2.30342 0.145274 0
M  V30 4230 C 398.048 -1.5077 -0.696971 0
M  V30 4231 O 399.233 -1.79362 -0.650689 0
M  V30 4232 C 396.373 -3.37227 -0.732939 0
M  V30 4233 C 395.486 -4.31819 0.125199 0
M  V30 4234 C 394.621 -5.25777 -0.757107 0
M  V30 4235 C 393.66 -6.12012 0.103963 0
M  V30 4236 N 392.797 -6.98232 -0.735953 0
M  V30 4237 H 397.637 -2.8278 0.940195 0
M  V30 4238 H 395.174 -1.39211 0.475255 0
M  V30 4239 H 397.132 -3.97818 -1.25686 0
M  V30 4240 H 395.762 -2.86171 -1.49353 0
M  V30 4241 H 394.814 -3.7259 0.766865 0
M  V30 4242 H 396.126 -4.92509 0.789683 0
M  V30 4243 H 395.28 -5.91541 -1.34776 0
M  V30 4244 H 394.019 -4.65481 -1.45529 0
M  V30 4245 H 393.024 -5.45233 0.707197 0
M  V30 4246 H 394.249 -6.74379 0.799381 0
M  V30 4247 H 392.195 -6.40472 -1.41887 0
M  V30 4248 H 392.112 -7.55891 -0.128624 0
M  V30 4249 H 393.38 -7.68393 -1.31121 0
M  V30 4250 N 397.609 -0.515225 -1.4894 0
M  V30 4251 C 398.519 0.259774 -2.33157 0
M  V30 4252 C 399.535 0.953501 -1.45548 0
M  V30 4253 O 400.711 0.931735 -1.78552 0
M  V30 4254 C 397.776 1.30193 -3.21326 0
M  V30 4255 C 396.837 0.620129 -4.24797 0
M  V30 4256 C 396.07 1.61263 -5.08753 0
M  V30 4257 O 396.293 2.84389 -4.94448 0
M  V30 4258 O 395.227 1.16013 -5.90614 0
M  V30 4259 H 399.053 -0.429932 -3.00641 0
M  V30 4260 H 396.638 -0.276346 -1.46822 0
M  V30 4261 H 398.52 1.90455 -3.75905 0
M  V30 4262 H 397.195 1.97431 -2.56521 0
M  V30 4263 H 396.102 -0.0226019 -3.74093 0
M  V30 4264 H 397.435 -0.0100493 -4.92199 0
M  V30 4265 N 399.087 1.5561 -0.249682 0
M  V30 4266 C 400.334 1.99011 0.374287 0
M  V30 4267 C 400.662 1.13785 1.57744 0
M  V30 4268 O 399.917 0.189326 1.94782 0
M  V30 4269 C 400.216 3.4775 0.824887 0
M  V30 4270 C 399.882 4.50086 -0.270819 0
M  V30 4271 C 398.544 4.77791 -0.571746 0
M  V30 4272 C 400.896 5.11312 -1.01041 0
M  V30 4273 C 398.224 5.63997 -1.61629 0
M  V30 4274 C 400.576 5.98651 -2.0445 0
M  V30 4275 C 399.24 6.24688 -2.35204 0
M  V30 4276 H 398.51 0.728233 0.136961 0
M  V30 4277 H 401.157 1.88122 -0.358087 0
M  V30 4278 H 399.462 3.55985 1.63651 0
M  V30 4279 H 401.159 3.78721 1.31799 0
M  V30 4280 H 397.749 4.28592 -0.026136 0
M  V30 4281 H 401.933 4.89953 -0.791177 0
M  V30 4282 H 397.189 5.82425 -1.85988 0
M  V30 4283 H 401.363 6.45135 -2.62248 0
M  V30 4284 H 398.99 6.91281 -3.16282 0
M  V30 4285 N 400.565 -0.0233959 1.57583 0
M  V30 4286 C 401.795 -0.723631 1.93513 0
M  V30 4287 C 402.203 -1.69115 0.848333 0
M  V30 4288 O 401.546 -1.82781 -0.183484 0
M  V30 4289 C 401.608 -1.53075 3.25282 0
M  V30 4290 C 401.272 -0.727388 4.51174 0
M  V30 4291 C 402.269 -0.0251924 5.19894 0
M  V30 4292 C 399.954 -0.680256 4.97672 0
M  V30 4293 C 401.948 0.713374 6.33395 0
M  V30 4294 C 399.635 0.0620523 6.11068 0
M  V30 4295 C 400.633 0.757622 6.78785 0
M  V30 4296 O 400.321 1.48787 7.90011 0
M  V30 4297 H 400.053 -0.208051 0.643188 0
M  V30 4298 H 402.607 0.0167489 2.05393 0
M  V30 4299 H 400.837 -2.31508 3.09744 0
M  V30 4300 H 402.526 -2.11413 3.46496 0
M  V30 4301 H 403.292 -0.0526003 4.84971 0
M  V30 4302 H 399.171 -1.21116 4.44805 0
M  V30 4303 H 402.715 1.25683 6.86185 0
M  V30 4304 H 398.612 0.0913634 6.45435 0
M  V30 4305 H 399.38 1.40213 8.06401 0
M  V30 4306 N 402.043 -1.548 -0.295768 0
M  V30 4307 C 403.291 -1.73985 -1.02828 0
M  V30 4308 C 403.612 -0.531406 -1.87619 0
M  V30 4309 O 402.882 0.454221 -1.90561 0
M  V30 4310 H 401.462 -0.641556 -0.382642 0
M  V30 4311 H 404.124 -1.92163 -0.325489 0
M  V30 4312 H 403.22 -2.63129 -1.67838 0
M  V30 4313 N 403.521 0.559213 -1.47345 0
M  V30 4314 C 404.431 1.69388 -1.62311 0
M  V30 4315 C 405.447 1.6648 -0.505993 0
M  V30 4316 O 406.623 1.85964 -0.773262 0
M  V30 4317 C 403.688 3.05894 -1.63185 0
M  V30 4318 C 402.749 3.19885 -2.86307 0
M  V30 4319 C 401.982 4.49879 -2.87131 0
M  V30 4320 O 402.205 5.35217 -1.97229 0
M  V30 4321 O 401.139 4.67618 -3.78968 0
M  V30 4322 H 404.965 1.59706 -2.58317 0
M  V30 4323 H 402.55 0.728989 -1.30407 0
M  V30 4324 H 404.432 3.87133 -1.66451 0
M  V30 4325 H 403.107 3.15964 -0.70345 0
M  V30 4326 H 402.014 2.38052 -2.88587 0
M  V30 4327 H 403.347 3.14718 -3.78435 0
M  V30 4328 N 404.999 1.35443 0.805782 0
M  V30 4329 C 406.276 1.19325 1.54987 0
M  V30 4330 C 406.656 -0.227294 2.09873 0
M  V30 4331 O 406.004 -1.2309 1.92512 0
M  V30 4332 C 406.214 2.26196 2.65775 0
M  V30 4333 C 407.562 2.62043 3.34094 0
M  V30 4334 O 408.586 2.25115 2.76046 0
M  V30 4335 O 407.445 3.25542 4.38958 0
M  V30 4336 H 404.539 0.463623 0.684823 0
M  V30 4337 H 407.085 1.47127 0.845674 0
M  V30 4338 H 405.857 3.21471 2.23096 0
M  V30 4339 H 405.48 1.99667 3.43829 0
M  V30 4340 N 406.477 -1.02803 1.19454 0
M  V30 4341 C 407.44 -2.09264 0.934955 0
M  V30 4342 C 408.44 -1.60576 -0.0849015 0
M  V30 4343 O 409.63 -1.73554 0.149933 0
M  V30 4344 C 406.762 -3.38482 0.40531 0
M  V30 4345 H 407.955 -2.33726 1.87916 0
M  V30 4346 H 405.508 -1.19426 1.00832 0
M  V30 4347 H 406.243 -3.19689 -0.544899 0
M  V30 4348 H 406.028 -3.75142 1.14065 0
M  V30 4349 H 407.518 -4.16894 0.242806 0
M  V30 4350 N 407.956 -0.998596 -1.21925 0
M  V30 4351 C 408.903 -0.553621 -2.24062 0
M  V30 4352 C 409.873 0.416999 -1.6078 0
M  V30 4353 O 411.058 0.320482 -1.88089 0
M  V30 4354 C 408.198 0.119959 -3.44891 0
M  V30 4355 C 407.311 -0.893077 -4.22668 0
M  V30 4356 C 406.446 -0.192424 -5.30851 0
M  V30 4357 C 405.485 -1.19344 -6.00353 0
M  V30 4358 N 404.622 -0.520707 -7.00166 0
M  V30 4359 H 409.462 -1.4293 -2.61486 0
M  V30 4360 H 406.999 -0.715838 -1.28507 0
M  V30 4361 H 408.957 0.527459 -4.13852 0
M  V30 4362 H 407.587 0.959389 -3.08214 0
M  V30 4363 H 406.639 -1.41886 -3.52948 0
M  V30 4364 H 407.951 -1.65512 -4.70539 0
M  V30 4365 H 407.105 0.271515 -6.06092 0
M  V30 4366 H 405.844 0.602075 -4.83969 0
M  V30 4367 H 404.849 -1.66795 -5.23889 0
M  V30 4368 H 406.074 -1.98891 -6.49322 0
M  V30 4369 H 404.02 0.254252 -6.55507 0
M  V30 4370 H 403.937 -1.2211 -7.46073 0
M  V30 4371 H 405.205 -0.0797596 -7.79459 0
M  V30 4372 N 409.434 1.37368 -0.772513 0
M  V30 4373 C 410.381 2.30262 -0.157488 0
M  V30 4374 C 411.351 1.51137 0.688965 0
M  V30 4375 O 412.536 1.79704 0.641168 0
M  V30 4376 C 409.676 3.37611 0.715045 0
M  V30 4377 C 408.789 4.31746 -0.148098 0
M  V30 4378 C 407.924 5.26171 0.729213 0
M  V30 4379 C 406.963 6.11948 -0.136418 0
M  V30 4380 N 406.1 6.98613 0.698914 0
M  V30 4381 H 410.94 2.82277 -0.955179 0
M  V30 4382 H 408.477 1.38957 -0.482631 0
M  V30 4383 H 410.435 3.98479 1.23575 0
M  V30 4384 H 409.065 2.86959 1.47833 0
M  V30 4385 H 408.117 3.72178 -0.786613 0
M  V30 4386 H 409.429 4.92084 -0.81579 0
M  V30 4387 H 408.583 5.92247 1.31637 0
M  V30 4388 H 407.322 4.66246 1.43059 0
M  V30 4389 H 406.327 5.4485 -0.736102 0
M  V30 4390 H 407.552 6.73945 -0.835134 0
M  V30 4391 H 405.498 6.41215 1.38489 0
M  V30 4392 H 405.415 7.55948 0.0885358 0
M  V30 4393 H 406.683 7.69077 1.27044 0
M  V30 4394 N 410.912 0.523116 1.48665 0
M  V30 4395 C 412.137 -0.0117284 2.07397 0
M  V30 4396 C 412.562 -1.28031 1.37803 0
M  V30 4397 O 411.92 -1.75836 0.441762 0
M  V30 4398 C 411.968 -0.225786 3.59892 0
M  V30 4399 O 411.072 -1.29592 3.91509 0
M  V30 4400 H 410.413 0.0360673 0.66302 0
M  V30 4401 H 412.943 0.729066 1.9117 0
M  V30 4402 H 412.953 -0.450552 4.05505 0
M  V30 4403 H 411.628 0.700944 4.09951 0
M  V30 4404 H 410.205 -1.05436 3.57684 0
M  V30 4405 N 412.39 -1.55475 0.257931 0
M  V30 4406 C 413.806 -1.59307 -0.0966563 0
M  V30 4407 C 414.006 -1.27514 -1.5602 0
M  V30 4408 O 413.062 -1.02774 -2.30637 0
M  V30 4409 C 414.375 -2.99552 0.262481 0
M  V30 4410 C 415.923 -3.1231 0.207683 0
M  V30 4411 C 416.398 -4.54793 0.541012 0
M  V30 4412 N 417.889 -4.6058 0.491921 0
M  V30 4413 C 418.624 -5.68825 0.722857 0
M  V30 4414 N 418.12 -6.85287 1.0175 0
M  V30 4415 N 419.913 -5.58296 0.652815 0
M  V30 4416 H 412.064 -1.74409 1.21224 0
M  V30 4417 H 414.327 -0.812424 0.48854 0
M  V30 4418 H 414.033 -3.27593 1.27967 0
M  V30 4419 H 413.907 -3.75019 -0.40508 0
M  V30 4420 H 416.294 -2.84044 -0.800195 0
M  V30 4421 H 416.375 -2.39095 0.909255 0
M  V30 4422 H 416.019 -4.83783 1.5465 0
M  V30 4423 H 415.949 -5.26285 -0.18216 0
M  V30 4424 H 418.44 -3.7691 0.273366 0
M  V30 4425 H 418.753 -7.63725 1.18084 0
M  V30 4426 H 417.098 -6.86945 1.05509 0
M  V30 4427 H 420.289 -4.66189 0.422592 0
M  V30 4428 H 420.462 -6.42582 0.836182 0
M  V30 4429 N 413.868 0.0150385 -1.57593 0
M  V30 4430 C 415.145 0.7392 -1.81094 0
M  V30 4431 C 415.525 1.92817 -0.859344 0
M  V30 4432 O 414.873 2.28301 0.095362 0
M  V30 4433 C 415.083 1.15907 -3.29191 0
M  V30 4434 C 416.431 1.56918 -3.9454 0
M  V30 4435 O 417.455 1.25328 -3.33424 0
M  V30 4436 O 416.314 2.15604 -5.02173 0
M  V30 4437 H 413.408 0.358631 -0.745193 0
M  V30 4438 H 415.954 -0.00926156 -1.69697 0
M  V30 4439 H 414.726 0.310921 -3.90063 0
M  V30 4440 H 414.349 1.96711 -3.45529 0
M  V30 4441 N 415.346 1.54954 0.287554 0
M  V30 4442 C 416.576 1.78622 1.03816 0
M  V30 4443 C 416.984 0.552451 1.80955 0
M  V30 4444 O 416.327 -0.487665 1.77109 0
M  V30 4445 C 416.389 2.94975 2.055 0
M  V30 4446 C 416.053 4.32565 1.47433 0
M  V30 4447 C 417.05 5.12096 0.897436 0
M  V30 4448 C 414.735 4.79195 1.50591 0
M  V30 4449 C 416.729 6.36383 0.359851 0
M  V30 4450 C 414.416 6.03441 0.964459 0
M  V30 4451 C 415.414 6.81872 0.392413 0
M  V30 4452 O 415.102 8.03777 -0.140788 0
M  V30 4453 H 414.834 0.599144 0.313053 0
M  V30 4454 H 417.388 2.02761 0.328225 0
M  V30 4455 H 415.618 2.66493 2.80211 0
M  V30 4456 H 417.307 3.06097 2.6657 0
M  V30 4457 H 418.073 4.77209 0.865841 0
M  V30 4458 H 413.952 4.18167 1.94055 0
M  V30 4459 H 417.496 6.97545 -0.0872951 0
M  V30 4460 H 413.393 6.37813 0.993246 0
M  V30 4461 H 414.161 8.18495 -0.0287617 0
M  V30 4462 N 416.824 -0.551391 1.4764 0
M  V30 4463 C 418.072 -1.30572 1.54258 0
M  V30 4464 C 418.393 -1.93877 0.208963 0
M  V30 4465 O 417.663 -1.80234 -0.767619 0
M  V30 4466 H 416.243 -0.484894 0.568231 0
M  V30 4467 H 418.905 -0.643402 1.83974 0
M  V30 4468 H 418.001 -2.09621 2.31226 0
M  V30 4469 N 418.302 -1.35869 -0.798587 0
M  V30 4470 C 419.718 -1.16082 -1.09532 0
M  V30 4471 C 419.918 0.0213124 -2.01489 0
M  V30 4472 O 418.974 0.689488 -2.42904 0
M  V30 4473 C 420.287 -2.46748 -1.7186 0
M  V30 4474 C 421.835 -2.53028 -1.84244 0
M  V30 4475 C 422.31 -3.83758 -2.49988 0
M  V30 4476 N 423.801 -3.85053 -2.57465 0
M  V30 4477 C 424.536 -4.8294 -3.09122 0
M  V30 4478 N 424.032 -5.91217 -3.61157 0
M  V30 4479 N 425.825 -4.70369 -3.0775 0
M  V30 4480 H 417.976 -2.11571 -0.187461 0
M  V30 4481 H 420.239 -0.936726 -0.145765 0
M  V30 4482 H 419.945 -3.33471 -1.11759 0
M  V30 4483 H 419.819 -2.61883 -2.71472 0
M  V30 4484 H 422.206 -1.66729 -2.43486 0
M  V30 4485 H 422.287 -2.418 -0.834643 0
M  V30 4486 H 421.931 -4.70459 -1.91393 0
M  V30 4487 H 421.861 -3.92278 -3.5132 0
M  V30 4488 H 424.352 -3.06822 -2.20609 0
M  V30 4489 H 424.665 -6.61892 -3.98896 0
M  V30 4490 H 423.01 -5.94899 -3.59333 0
M  V30 4491 H 426.201 -3.84914 -2.66381 0
M  V30 4492 H 426.374 -5.46816 -3.47701 0
M  V30 4493 N 419.78 1.02168 -1.19998 0
M  V30 4494 C 421.029 1.75091 -1.0013 0
M  V30 4495 C 421.342 1.89923 0.467835 0
M  V30 4496 O 422.548 2.59888 0.785515 0
M  V30 4497 C 421.004 3.14892 -1.74273 0
M  V30 4498 C 420.612 3.0809 -3.25245 0
M  V30 4499 C 422.356 3.9206 -1.62755 0
M  V30 4500 C 420.263 4.42867 -3.91948 0
M  V30 4501 H 419.193 0.656394 -0.37103 0
M  V30 4502 H 421.844 1.14284 -1.43567 0
M  V30 4503 H 420.226 3.7621 -1.2362 0
M  V30 4504 H 421.4 2.5611 -3.83072 0
M  V30 4505 H 419.715 2.44416 -3.3712 0
M  V30 4506 H 422.312 4.91764 -2.09934 0
M  V30 4507 H 422.655 4.12199 -0.582894 0
M  V30 4508 H 423.188 3.37359 -2.10793 0
M  V30 4509 H 419.927 4.27931 -4.96543 0
M  V30 4510 H 419.447 4.94874 -3.3891 0
M  V30 4511 H 421.126 5.11728 -3.95909 0
M  V30 4512 N 421.258 1.00505 1.21394 0
M  V30 4513 C 422.507 0.683159 1.89778 0
M  V30 4514 C 422.82 -0.789471 1.7896 0
M  V30 4515 O 424.026 -1.22344 2.42372 0
M  V30 4516 C 422.482 1.17146 3.40301 0
M  V30 4517 C 422.09 2.67017 3.5973 0
M  V30 4518 C 423.834 0.924461 4.14311 0
M  V30 4519 C 421.741 3.09387 5.04017 0
M  V30 4520 H 420.671 0.25183 0.710702 0
M  V30 4521 H 423.322 1.21622 1.37406 0
M  V30 4522 H 421.704 0.566451 3.91928 0
M  V30 4523 H 422.878 3.32968 3.18542 0
M  V30 4524 H 421.193 2.89732 2.99073 0
M  V30 4525 H 423.79 1.21658 5.20676 0
M  V30 4526 H 424.133 -0.139286 4.16067 0
M  V30 4527 H 424.666 1.49226 3.6875 0
M  V30 4528 H 421.405 4.14989 5.07409 0
M  V30 4529 H 420.925 2.48149 5.46061 0
M  V30 4530 H 422.604 3.01371 5.72525 0
M  V30 4531 N 422.737 -1.36956 0.779787 0
M  V30 4532 C 423.962 -2.04283 0.358224 0
M  V30 4533 C 424.387 -1.58422 -1.01411 0
M  V30 4534 O 423.745 -0.748179 -1.65142 0
M  V30 4535 C 423.793 -3.58152 0.419479 0
M  V30 4536 O 422.897 -4.08342 -0.577142 0
M  V30 4537 H 422.238 -0.645967 0.153698 0
M  V30 4538 H 424.768 -1.75108 1.05822 0
M  V30 4539 H 424.778 -4.07041 0.279636 0
M  V30 4540 H 423.453 -3.90886 1.42061 0
M  V30 4541 H 422.03 -3.70751 -0.399755 0
M  V30 4542 N 424.215 -0.530993 -1.48385 0
M  V30 4543 C 425.178 0.220497 -2.28137 0
M  V30 4544 C 426.178 0.866851 -1.35434 0
M  V30 4545 O 427.368 0.726746 -1.58316 0
M  V30 4546 C 424.5 1.31921 -3.1434 0
M  V30 4547 H 425.693 -0.479714 -2.96038 0
M  V30 4548 H 423.246 -0.286968 -1.53643 0
M  V30 4549 H 423.981 2.05264 -2.51072 0
M  V30 4550 H 423.766 0.86085 -3.82533 0
M  V30 4551 H 425.256 1.84776 -3.74497 0
M  V30 4552 N 425.693 1.55336 -0.266172 0
M  V30 4553 C 427.109 1.59356 0.0882065 0
M  V30 4554 C 427.309 1.2834 1.55342 0
M  V30 4555 O 426.365 1.03996 2.30089 0
M  V30 4556 C 427.678 2.99409 -0.278364 0
M  V30 4557 C 429.226 3.12196 -0.224243 0
M  V30 4558 C 429.701 4.545 -0.565123 0
M  V30 4559 N 431.192 4.60313 -0.51634 0
M  V30 4560 C 431.927 5.68434 -0.753013 0
M  V30 4561 N 431.423 6.84738 -1.05383 0
M  V30 4562 N 433.216 5.57942 -0.682414 0
M  V30 4563 H 425.367 1.73764 -1.22147 0
M  V30 4564 H 427.63 0.809822 -0.492841 0
M  V30 4565 H 427.336 3.2691 -1.29703 0
M  V30 4566 H 427.21 3.75228 0.385186 0
M  V30 4567 H 429.597 2.84464 0.78512 0
M  V30 4568 H 429.678 2.38609 -0.921922 0
M  V30 4569 H 429.322 4.82956 -1.57213 0
M  V30 4570 H 429.252 5.26374 0.154248 0
M  V30 4571 H 431.743 3.7676 -0.29335 0
M  V30 4572 H 432.056 7.63088 -1.22133 0
M  V30 4573 H 430.401 6.86375 -1.09151 0
M  V30 4574 H 433.592 4.65958 -0.44731 0
M  V30 4575 H 433.765 6.4213 -0.870248 0
M  V30 4576 N 427.171 -0.0066808 1.57599 0
M  V30 4577 C 428.121 -1.0086 2.04478 0
M  V30 4578 C 429.105 -1.30714 0.938231 0
M  V30 4579 O 430.297 -1.29924 1.20203 0
M  V30 4580 C 427.426 -2.30273 2.54615 0
M  V30 4581 C 426.512 -2.03413 3.72134 0
M  V30 4582 N 426.903 -1.46688 4.84062 0
M  V30 4583 C 425.201 -2.33589 3.79937 0
M  V30 4584 C 425.902 -1.36146 5.65543 0
M  V30 4585 N 424.878 -1.84477 5.1134 0
M  V30 4586 H 428.68 -0.564402 2.8843 0
M  V30 4587 H 426.194 -0.212521 1.61003 0
M  V30 4588 H 428.191 -3.02885 2.86472 0
M  V30 4589 H 426.851 -2.75352 1.72079 0
M  V30 4590 H 427.862 -1.14658 5.05049 0
M  V30 4591 H 424.539 -2.81589 3.08243 0
M  V30 4592 H 425.929 -0.925873 6.6549 0
M  V30 4593 N 428.649 -1.55105 -0.279332 0
M  V30 4594 C 429.896 -1.75412 -1.01177 0
M  V30 4595 C 430.224 -0.551728 -1.86511 0
M  V30 4596 O 429.479 0.465919 -1.90073 0
M  V30 4597 C 429.778 -3.0086 -1.92919 0
M  V30 4598 C 429.444 -4.33689 -1.23387 0
M  V30 4599 C 428.106 -4.69792 -1.04159 0
M  V30 4600 C 430.458 -5.15941 -0.738562 0
M  V30 4601 C 427.786 -5.85707 -0.341166 0
M  V30 4602 C 430.138 -6.32579 -0.0517636 0
M  V30 4603 C 428.802 -6.67326 0.152292 0
M  V30 4604 H 428.072 -0.641879 -0.370233 0
M  V30 4605 H 430.719 -1.89373 -0.284627 0
M  V30 4606 H 429.024 -2.81773 -2.72234 0
M  V30 4607 H 430.721 -3.13768 -2.49701 0
M  V30 4608 H 427.311 -4.05309 -1.39364 0
M  V30 4609 H 431.495 -4.8853 -0.874764 0
M  V30 4610 H 426.751 -6.11157 -0.172287 0
M  V30 4611 H 430.925 -6.9557 0.339828 0
M  V30 4612 H 428.552 -7.56998 0.697014 0
M  V30 4613 N 430.127 0.543554 -1.4793 0
M  V30 4614 C 431.059 1.665 -1.57513 0
M  V30 4615 C 432.072 1.56156 -0.460333 0
M  V30 4616 O 433.261 1.62865 -0.730573 0
M  V30 4617 C 430.361 3.05063 -1.47614 0
M  V30 4618 C 429.534 3.41024 -2.739 0
M  V30 4619 C 428.593 4.58809 -2.57645 0
M  V30 4620 O 427.619 4.62707 -3.31498 0
M  V30 4621 N 428.821 5.56149 -1.66368 0
M  V30 4622 H 431.586 1.5872 -2.5422 0
M  V30 4623 H 429.147 0.730517 -1.44482 0
M  V30 4624 H 431.139 3.81712 -1.34455 0
M  V30 4625 H 429.709 3.06994 -0.589359 0
M  V30 4626 H 428.929 2.53687 -3.01723 0
M  V30 4627 H 430.217 3.61831 -3.57709 0
M  V30 4628 H 429.615 5.55767 -1.05543 0
M  V30 4629 H 428.172 6.32071 -1.59154 0
M  V30 4630 N 431.605 1.3629 0.791371 0
M  V30 4631 C 433.021 1.16661 1.08914 0
M  V30 4632 C 433.221 -0.0106266 2.01497 0
M  V30 4633 O 432.277 -0.676596 2.43266 0
M  V30 4634 C 433.59 2.47656 1.70549 0
M  V30 4635 C 435.138 2.54002 1.82899 0
M  V30 4636 C 435.613 3.85078 2.47949 0
M  V30 4637 N 437.104 3.86413 2.5542 0
M  V30 4638 C 437.839 4.84572 3.06557 0
M  V30 4639 N 437.335 5.93124 3.58016 0
M  V30 4640 N 439.128 4.71994 3.05251 0
M  V30 4641 H 431.279 2.11668 0.176238 0
M  V30 4642 H 433.542 0.937486 0.140796 0
M  V30 4643 H 433.248 3.34059 1.09989 0
M  V30 4644 H 433.122 2.63319 2.70079 0
M  V30 4645 H 435.509 1.68018 2.42598 0
M  V30 4646 H 435.59 2.42239 0.821808 0
M  V30 4647 H 435.234 4.71467 1.88895 0
M  V30 4648 H 435.164 3.94135 3.49235 0
M  V30 4649 H 437.655 3.07988 2.18979 0
M  V30 4650 H 437.968 6.63999 3.95381 0
M  V30 4651 H 436.313 5.96796 3.56173 0
M  V30 4652 H 439.504 3.86321 2.64336 0
M  V30 4653 H 439.677 5.48653 3.44796 0
M  V30 4654 N 433.083 -1.0153 1.20538 0
M  V30 4655 C 434.329 -1.75408 1.01783 0
M  V30 4656 C 434.662 -1.88943 -0.448814 0
M  V30 4657 O 433.937 -1.4162 -1.33319 0
M  V30 4658 C 434.22 -3.17255 1.70356 0
M  V30 4659 C 434.073 -3.11508 3.24473 0
M  V30 4660 C 435.392 -4.15955 1.43769 0
M  V30 4661 H 432.511 -0.636713 0.371167 0
M  V30 4662 H 435.153 -1.18436 1.4857 0
M  V30 4663 H 433.303 -3.65898 1.30578 0
M  V30 4664 H 434.975 -2.70658 3.73553 0
M  V30 4665 H 433.218 -2.4887 3.55311 0
M  V30 4666 H 433.889 -4.11784 3.67611 0
M  V30 4667 H 436.365 -3.75973 1.7828 0
M  V30 4668 H 435.241 -5.13368 1.94279 0
M  V30 4669 H 435.502 -4.40586 0.365564 0
M  V30 4670 N 434.561 -1.01147 -1.20859 0
M  V30 4671 C 435.494 -0.522108 -2.22147 0
M  V30 4672 C 436.472 0.427686 -1.56874 0
M  V30 4673 O 437.656 0.34889 -1.85243 0
M  V30 4674 C 434.783 0.240819 -3.37843 0
M  V30 4675 C 433.829 -0.657752 -4.21398 0
M  V30 4676 S 434.662 -2.12393 -4.91578 0
M  V30 4677 C 435.818 -1.37102 -6.10699 0
M  V30 4678 H 436.051 -1.38035 -2.63313 0
M  V30 4679 H 433.584 -0.819941 -1.30829 0
M  V30 4680 H 435.542 0.674908 -4.04914 0
M  V30 4681 H 434.203 1.07457 -2.95147 0
M  V30 4682 H 433.396 -0.0697456 -5.03952 0
M  V30 4683 H 432.998 -1.0294 -3.59555 0
M  V30 4684 H 435.29 -0.648315 -6.74391 0
M  V30 4685 H 436.233 -2.17252 -6.73949 0
M  V30 4686 H 436.641 -0.876154 -5.57659 0
M  V30 4687 N 436.039 1.36541 -0.78704 0
M  V30 4688 C 437.287 1.98911 -0.357633 0
M  V30 4689 C 437.608 1.62778 1.07371 0
M  V30 4690 O 436.878 0.900612 1.73971 0
M  V30 4691 H 435.458 0.735734 -0.129246 0
M  V30 4692 H 438.12 1.66776 -1.00855 0
M  V30 4693 H 437.216 3.08874 -0.447549 0
M  V30 4694 N 437.518 0.538854 1.48102 0
M  V30 4695 C 438.448 -0.207654 2.32575 0
M  V30 4696 C 439.429 -0.926559 1.4265 0
M  V30 4697 O 440.614 -0.91061 1.71527 0
M  V30 4698 C 437.744 -1.24957 3.24042 0
M  V30 4699 C 436.698 -0.648263 4.23062 0
M  V30 4700 C 436.024 -1.79348 5.03725 0
M  V30 4701 C 437.324 0.385897 5.20872 0
M  V30 4702 H 439.018 0.497534 2.95237 0
M  V30 4703 H 436.564 0.240715 1.41974 0
M  V30 4704 H 438.517 -1.77983 3.81969 0
M  V30 4705 H 437.241 -1.98446 2.59397 0
M  V30 4706 H 435.9 -0.139452 3.66335 0
M  V30 4707 H 435.548 -2.51696 4.35498 0
M  V30 4708 H 435.248 -1.39702 5.70751 0
M  V30 4709 H 436.772 -2.32735 5.64506 0
M  V30 4710 H 438.186 -0.057607 5.73271 0
M  V30 4711 H 436.583 0.700227 5.96001 0
M  V30 4712 H 437.653 1.28848 4.67468 0
M  V30 4713 N 438.996 -1.55193 0.274407 0
M  V30 4714 C 440.245 -1.98758 -0.343213 0
M  V30 4715 C 440.558 -1.16624 -1.5703 0
M  V30 4716 O 441.764 -1.5033 -2.26082 0
M  V30 4717 C 440.22 -3.53759 -0.661996 0
M  V30 4718 C 439.828 -4.4467 0.54524 0
M  V30 4719 C 441.572 -4.05916 -1.24228 0
M  V30 4720 C 439.479 -5.91058 0.201084 0
M  V30 4721 H 438.409 -0.742353 -0.132014 0
M  V30 4722 H 441.06 -1.79545 0.378948 0
M  V30 4723 H 439.442 -3.68772 -1.44304 0
M  V30 4724 H 440.616 -4.41426 1.32212 0
M  V30 4725 H 438.931 -4.03143 1.04232 0
M  V30 4726 H 441.528 -5.12831 -1.51357 0
M  V30 4727 H 441.871 -3.54908 -2.17592 0
M  V30 4728 H 442.404 -3.9434 -0.523542 0
M  V30 4729 H 439.143 -6.46161 1.10258 0
M  V30 4730 H 438.663 -5.97373 -0.539045 0
M  V30 4731 H 440.342 -6.46669 -0.206954 0
M  V30 4732 N 440.474 -0.00167713 -1.576 0
M  V30 4733 C 441.384 1.00548 -2.1196 0
M  V30 4734 C 442.4 1.3758 -1.06526 0
M  V30 4735 O 443.576 1.46278 -1.38436 0
M  V30 4736 C 440.641 2.27809 -2.6135 0
M  V30 4737 C 439.702 1.97074 -3.81393 0
M  V30 4738 C 438.935 3.18267 -4.28417 0
M  V30 4739 O 439.158 4.30009 -3.74765 0
M  V30 4740 O 438.092 3.02167 -5.20556 0
M  V30 4741 H 441.918 0.573373 -2.98238 0
M  V30 4742 H 439.503 0.217255 -1.47812 0
M  V30 4743 H 441.385 3.02568 -2.93309 0
M  V30 4744 H 440.06 2.70254 -1.78169 0
M  V30 4745 H 438.967 1.19785 -3.54404 0
M  V30 4746 H 440.3 1.59464 -4.65652 0
M  V30 4747 N 441.952 1.55251 0.271103 0
M  V30 4748 C 443.2 1.75599 1.00047 0
M  V30 4749 C 443.521 0.561188 1.8675 0
M  V30 4750 O 442.791 -0.423846 1.9126 0
M  V30 4751 H 441.371 0.647562 0.372387 0
M  V30 4752 H 444.033 1.92656 0.294876 0
M  V30 4753 H 443.129 2.65766 1.6363 0
M  V30 4754 N 443.43 -0.535701 1.48216 0
M  V30 4755 C 444.362 -1.65662 1.58394 0
M  V30 4756 C 445.375 -1.5591 0.468607 0
M  V30 4757 O 446.564 -1.62475 0.7392 0
M  V30 4758 C 443.664 -3.04276 1.4923 0
M  V30 4759 C 442.837 -3.39567 2.75705 0
M  V30 4760 C 441.896 -4.57436 2.60075 0
M  V30 4761 O 440.922 -4.60942 3.33948 0
M  V30 4762 N 442.124 -5.55259 1.69315 0
M  V30 4763 H 444.889 -1.5737 2.55058 0
M  V30 4764 H 442.45 -0.722845 1.44867 0
M  V30 4765 H 444.442 -3.80994 1.36477 0
M  V30 4766 H 443.012 -3.06677 0.605632 0
M  V30 4767 H 442.232 -2.52083 3.03064 0
M  V30 4768 H 443.52 -3.59929 3.59623 0
M  V30 4769 H 442.918 -5.552 1.08489 0
M  V30 4770 H 441.475 -6.31218 1.62504 0
M  V30 4771 N 444.908 -1.36708 -0.784132 0
M  V30 4772 C 445.855 -1.31466 -1.89698 0
M  V30 4773 C 446.825 -0.18239 -1.65096 0
M  V30 4774 O 448.01 -0.369762 -1.87183 0
M  V30 4775 C 445.15 -1.1151 -3.26588 0
M  V30 4776 C 444.263 -2.33859 -3.63227 0
M  V30 4777 C 443.398 -2.06873 -4.89262 0
M  V30 4778 C 442.437 -3.25154 -5.18595 0
M  V30 4779 N 441.574 -2.978 -6.35814 0
M  V30 4780 H 446.414 -2.26619 -1.93515 0
M  V30 4781 H 443.951 -1.12625 -0.946256 0
M  V30 4782 H 445.909 -0.979653 -4.05535 0
M  V30 4783 H 444.539 -0.200103 -3.22179 0
M  V30 4784 H 443.591 -2.58188 -2.79362 0
M  V30 4785 H 444.903 -3.22109 -3.8085 0
M  V30 4786 H 444.057 -1.90289 -5.76086 0
M  V30 4787 H 442.796 -1.15942 -4.73718 0
M  V30 4788 H 441.801 -3.42292 -4.30251 0
M  V30 4789 H 443.026 -4.1692 -5.36055 0
M  V30 4790 H 440.972 -2.09485 -6.21653 0
M  V30 4791 H 440.889 -3.7959 -6.53794 0
M  V30 4792 H 442.157 -2.84805 -7.25607 0
M  V30 4793 N 446.386 1.0089 -1.21074 0
M  V30 4794 C 447.632 1.74866 -1.02712 0
M  V30 4795 C 447.965 1.89178 0.438787 0
M  V30 4796 O 447.24 1.42325 1.32567 0
M  V30 4797 C 447.523 3.16347 -1.72036 0
M  V30 4798 C 447.376 3.09782 -3.26121 0
M  V30 4799 C 448.695 4.15187 -1.45973 0
M  V30 4800 H 445.814 0.634736 -0.374539 0
M  V30 4801 H 448.456 1.17646 -1.49196 0
M  V30 4802 H 446.606 3.65201 -1.32517 0
M  V30 4803 H 448.278 2.68673 -3.74983 0
M  V30 4804 H 446.521 2.46982 -3.56626 0
M  V30 4805 H 447.192 4.09829 -3.6979 0
M  V30 4806 H 449.668 3.75022 -1.80272 0
M  V30 4807 H 448.544 5.12331 -1.96999 0
M  V30 4808 H 448.805 4.40386 -0.388924 0
M  V30 4809 N 447.864 1.01787 1.20321 0
M  V30 4810 C 448.827 0.593972 2.2137 0
M  V30 4811 C 449.827 -0.336553 1.57239 0
M  V30 4812 O 451.017 -0.125069 1.7375 0
M  V30 4813 C 448.149 -0.132433 3.40643 0
M  V30 4814 H 449.342 1.48791 2.60387 0
M  V30 4815 H 446.895 0.807803 1.33807 0
M  V30 4816 H 447.63 -1.04123 3.0713 0
M  V30 4817 H 447.415 0.53605 3.88418 0
M  V30 4818 H 448.905 -0.416314 4.1552 0
M  V30 4819 N 449.342 -1.36122 0.79427 0
M  V30 4820 C 450.572 -2.03067 0.380437 0
M  V30 4821 C 450.98 -1.60018 -1.00949 0
M  V30 4822 O 450.323 -0.787425 -1.65968 0
M  V30 4823 C 450.385 -3.57587 0.37034 0
M  V30 4824 C 450.049 -4.23855 1.70867 0
M  V30 4825 C 451.046 -4.46404 2.66496 0
M  V30 4826 C 448.731 -4.61229 1.9893 0
M  V30 4827 C 450.725 -5.05412 3.88378 0
M  V30 4828 C 448.412 -5.19953 3.21079 0
M  V30 4829 C 449.41 -5.41985 4.15621 0
M  V30 4830 O 449.098 -5.99475 5.35616 0
M  V30 4831 H 448.83 -0.658168 0.154243 0
M  V30 4832 H 451.384 -1.7498 1.0757 0
M  V30 4833 H 449.614 -3.84814 -0.381444 0
M  V30 4834 H 451.303 -4.05895 -0.0194894 0
M  V30 4835 H 452.069 -4.17921 2.46103 0
M  V30 4836 H 447.948 -4.43402 1.26158 0
M  V30 4837 H 451.492 -5.22524 4.62185 0
M  V30 4838 H 447.389 -5.47862 3.41347 0
M  V30 4839 H 448.157 -6.17937 5.36745 0
M  V30 4840 N 450.82 -0.546701 -1.47814 0
M  V30 4841 C 452.068 -0.0187037 -2.02091 0
M  V30 4842 C 452.389 1.33168 -1.42447 0
M  V30 4843 O 451.659 1.86619 -0.595839 0
M  V30 4844 H 450.239 -0.00392531 -0.74699 0
M  V30 4845 H 452.901 -0.714327 -1.81338 0
M  V30 4846 H 451.997 0.0772219 -3.12004 0
M  V30 4847 N 452.299 1.55045 -0.282633 0
M  V30 4848 C 453.547 1.99365 0.331334 0
M  V30 4849 C 453.868 1.1725 1.55812 0
M  V30 4850 O 453.138 0.263871 1.94115 0
M  V30 4851 H 451.718 0.736397 0.125414 0
M  V30 4852 H 454.38 1.90964 -0.389711 0
M  V30 4853 H 453.476 3.0596 0.616036 0
M  V30 4854 N 453.777 0.010035 1.57597 0
M  V30 4855 C 455.005 -0.683413 1.95287 0
M  V30 4856 C 455.42 -1.66747 0.885481 0
M  V30 4857 O 454.777 -1.82003 -0.134629 0
M  V30 4858 C 454.828 -1.40652 3.33015 0
M  V30 4859 O 454.549 -0.461916 4.35658 0
M  V30 4860 C 456.05 -2.19356 3.85225 0
M  V30 4861 H 453.27 -0.189708 0.643624 0
M  V30 4862 H 455.814 0.0641359 2.04399 0
M  V30 4863 H 453.969 -2.10562 3.2518 0
M  V30 4864 H 454.383 -0.973215 5.15392 0
M  V30 4865 H 455.857 -2.65433 4.83993 0
M  V30 4866 H 456.334 -3.02457 3.18459 0
M  V30 4867 H 456.94 -1.54442 3.96267 0
M  V30 4868 N 455.255 -1.55392 -0.262866 0
M  V30 4869 C 456.503 -1.76127 -0.991147 0
M  V30 4870 C 456.824 -0.571083 -1.8645 0
M  V30 4871 O 456.094 0.413698 -1.91482 0
M  V30 4872 H 454.674 -0.649528 -0.368948 0
M  V30 4873 H 457.336 -1.9281 -0.284655 0
M  V30 4874 H 456.432 -2.6663 -1.62219 0
M  V30 4875 N 456.733 0.527833 -1.48498 0
M  V30 4876 C 458.01 1.28905 -1.47115 0
M  V30 4877 C 458.39 2.10297 -0.184007 0
M  V30 4878 O 457.738 2.12728 0.834218 0
M  V30 4879 C 457.948 2.16866 -2.73441 0
M  V30 4880 C 459.296 2.76936 -3.21857 0
M  V30 4881 O 460.32 2.27152 -2.74373 0
M  V30 4882 O 459.179 3.67496 -4.04486 0
M  V30 4883 H 456.273 0.581918 -0.587623 0
M  V30 4884 H 458.819 0.544311 -1.60734 0
M  V30 4885 H 457.591 1.56521 -3.58632 0
M  V30 4886 H 457.214 2.98583 -2.62553 0
M  V30 4887 N 458.211 1.37122 0.776871 0
M  V30 4888 C 459.174 1.32301 1.8716 0
M  V30 4889 C 460.174 0.228099 1.59174 0
M  V30 4890 O 461.364 0.483642 1.67352 0
M  V30 4891 C 458.496 1.054 3.24197 0
M  V30 4892 H 459.689 2.29673 1.92848 0
M  V30 4893 H 457.242 1.22077 0.97606 0
M  V30 4894 H 457.977 0.0853872 3.24188 0
M  V30 4895 H 457.762 1.84648 3.45901 0
M  V30 4896 H 459.252 1.04664 4.04271 0
M  V30 4897 N 459.689 -1.00246 1.21608 0
M  V30 4898 C 460.652 -2.07233 0.979133 0
M  V30 4899 C 461.652 -1.6072 -0.0508219 0
M  V30 4900 O 462.842 -1.73196 0.186712 0
M  V30 4901 C 459.974 -3.37546 0.477016 0
M  V30 4902 H 461.167 -2.29687 1.92831 0
M  V30 4903 H 458.72 -1.17261 1.03342 0
M  V30 4904 H 459.455 -3.20773 -0.476966 0
M  V30 4905 H 459.24 -3.72638 1.21997 0
M  V30 4906 H 460.73 -4.16285 0.331181 0
M  V30 4907 N 461.167 -1.02423 -1.1978 0
M  V30 4908 C 462.395 -0.737456 -1.93311 0
M  V30 4909 C 462.81 0.703023 -1.75223 0
M  V30 4910 O 462.167 1.47761 -1.07112 0
M  V30 4911 C 462.218 -1.0733 -3.45199 0
M  V30 4912 O 461.939 -2.4572 -3.62702 0
M  V30 4913 C 463.44 -0.80866 -4.35862 0
M  V30 4914 H 460.66 -0.2702 -0.614193 0
M  V30 4915 H 463.204 -1.36747 -1.52054 0
M  V30 4916 H 461.359 -0.488545 -3.84307 0
M  V30 4917 H 461.773 -2.58081 -4.56612 0
M  V30 4918 H 463.247 -1.09365 -5.41057 0
M  V30 4919 H 463.724 0.257025 -4.38447 0
M  V30 4920 H 464.33 -1.37592 -4.02428 0
M  V30 4921 N 462.645 1.35699 -0.801477 0
M  V30 4922 C 464.061 1.52065 -0.484596 0
M  V30 4923 C 464.261 1.75215 0.995084 0
M  V30 4924 O 463.317 1.79061 1.78026 0
M  V30 4925 C 464.63 2.69908 -1.32552 0
M  V30 4926 C 466.178 2.83784 -1.32044 0
M  V30 4927 C 466.653 4.04646 -2.14536 0
M  V30 4928 N 468.144 4.11814 -2.12046 0
M  V30 4929 C 468.879 5.04437 -2.72636 0
M  V30 4930 N 468.375 6.02426 -3.42133 0
M  V30 4931 N 470.168 4.97144 -2.62305 0
M  V30 4932 H 462.319 1.18928 -1.75983 0
M  V30 4933 H 464.582 0.581455 -0.748741 0
M  V30 4934 H 464.288 2.59363 -2.37537 0
M  V30 4935 H 464.162 3.64376 -0.975181 0
M  V30 4936 H 466.549 2.93783 -0.27846 0
M  V30 4937 H 466.63 1.90188 -1.71062 0
M  V30 4938 H 466.274 3.95407 -3.18772 0
M  V30 4939 H 466.204 4.97413 -1.72882 0
M  V30 4940 H 468.695 3.41664 -1.61476 0
M  V30 4941 H 469.008 6.69688 -3.85666 0
M  V30 4942 H 467.353 6.02615 -3.46237 0
M  V30 4943 H 470.544 4.19546 -2.07603 0
M  V30 4944 H 470.717 5.69138 -3.09815 0
M  V30 4945 N 464.123 0.554532 1.47522 0
M  V30 4946 C 465.353 0.0342074 2.06572 0
M  V30 4947 C 465.761 -1.26375 1.40805 0
M  V30 4948 O 465.104 -1.7683 0.49769 0
M  V30 4949 C 465.166 -0.235096 3.5873 0
M  V30 4950 C 464.83 0.973024 4.46521 0
M  V30 4951 C 465.827 1.8779 4.848 0
M  V30 4952 C 463.512 1.18694 4.88075 0
M  V30 4953 C 465.506 2.98039 5.63428 0
M  V30 4954 C 463.193 2.29254 5.66468 0
M  V30 4955 C 464.191 3.18757 6.04055 0
M  V30 4956 O 463.879 4.27401 6.8087 0
M  V30 4957 H 463.611 0.041587 0.67472 0
M  V30 4958 H 466.165 0.766748 1.90552 0
M  V30 4959 H 464.395 -1.02191 3.72953 0
M  V30 4960 H 466.084 -0.700477 3.9981 0
M  V30 4961 H 466.85 1.72467 4.53299 0
M  V30 4962 H 462.729 0.49947 4.58286 0
M  V30 4963 H 466.273 3.67926 5.92685 0
M  V30 4964 H 462.17 2.4455 5.97382 0
M  V30 4965 H 462.938 4.25415 6.9926 0
M  V30 4966 N 465.601 -1.54893 0.290851 0
M  V30 4967 C 466.85 -1.99111 -0.322113 0
M  V30 4968 C 467.163 -1.18283 -1.55784 0
M  V30 4969 O 468.369 -1.5272 -2.24475 0
M  V30 4970 C 466.825 -3.54442 -0.624438 0
M  V30 4971 C 466.433 -4.44066 0.592373 0
M  V30 4972 C 468.177 -4.07211 -1.19916 0
M  V30 4973 C 466.084 -5.90812 0.263762 0
M  V30 4974 H 465.014 -0.743712 -0.124133 0
M  V30 4975 H 467.665 -1.79132 0.39797 0
M  V30 4976 H 466.047 -3.70281 -1.40384 0
M  V30 4977 H 467.221 -4.39999 1.36886 0
M  V30 4978 H 465.536 -4.02015 1.08502 0
M  V30 4979 H 468.133 -5.14407 -1.45909 0
M  V30 4980 H 468.476 -3.57196 -2.13815 0
M  V30 4981 H 469.009 -3.94873 -0.481687 0
M  V30 4982 H 465.748 -6.44955 1.17105 0
M  V30 4983 H 465.268 -5.97911 -0.475655 0
M  V30 4984 H 466.947 -6.46852 -0.138354 0
M  V30 4985 N 467.08 -0.0183926 -1.57589 0
M  V30 4986 C 468.043 0.951986 -2.08494 0
M  V30 4987 C 469.043 1.26092 -0.997874 0
M  V30 4988 O 470.233 1.20304 -1.25987 0
M  V30 4989 C 467.365 2.27165 -2.54182 0
M  V30 4990 H 468.558 0.511307 -2.95509 0
M  V30 4991 H 466.111 0.229444 -1.54607 0
M  V30 4992 H 466.846 2.75884 -1.70465 0
M  V30 4993 H 466.631 2.06057 -3.33591 0
M  V30 4994 H 468.121 2.9674 -2.93828 0
M  V30 4995 N 468.558 1.5553 0.254621 0
M  V30 4996 C 469.969 1.67518 0.824286 0
M  V30 4997 C 470.32 0.614429 1.86331 0
M  V30 4998 O 469.445 -0.240736 2.15057 0
M  V30 4999 C 470.04 3.03692 1.50189 0
M  V30 5000 C 468.599 3.17646 2.01935 0
M  V30 5001 C 467.746 2.63373 0.867746 0
M  V30 5002 H 470.697 1.58671 0.0305843 0
M  V30 5003 H 470.718 2.97706 2.36962 0
M  V30 5004 H 470.23 3.80874 0.745431 0
M  V30 5005 H 468.331 2.45273 2.80485 0
M  V30 5006 H 468.444 4.24455 2.22204 0
M  V30 5007 H 466.808 2.20999 1.26616 0
M  V30 5008 H 467.591 3.43074 0.124498 0
M  V30 5009 N 470.036 -0.519951 1.48776 0
M  V30 5010 C 471.264 -1.29971 1.60982 0
M  V30 5011 C 471.679 -1.86803 0.273885 0
M  V30 5012 O 471.036 -1.66904 -0.738193 0
M  V30 5013 C 471.087 -2.44346 2.66415 0
M  V30 5014 O 470.808 -1.89855 3.94825 0
M  V30 5015 C 472.309 -3.36014 2.89153 0
M  V30 5016 H 469.529 -0.394891 0.542496 0
M  V30 5017 H 472.073 -0.626214 1.94676 0
M  V30 5018 H 470.228 -3.07562 2.35552 0
M  V30 5019 H 470.642 -2.64798 4.5275 0
M  V30 5020 H 472.116 -4.12593 3.66703 0
M  V30 5021 H 472.593 -3.91859 1.98351 0
M  V30 5022 H 473.199 -2.78582 3.21359 0
M  V30 5023 N 471.514 -1.37532 -0.769588 0
M  V30 5024 C 472.763 -1.32183 -1.5235 0
M  V30 5025 C 473.076 0.0906555 -1.9539 0
M  V30 5026 O 474.282 0.266628 -2.70188 0
M  V30 5027 C 472.738 -2.32029 -2.75119 0
M  V30 5028 C 472.346 -3.78816 -2.3917 0
M  V30 5029 C 474.09 -2.35694 -3.53056 0
M  V30 5030 C 471.997 -4.70388 -3.58453 0
M  V30 5031 H 470.927 -0.491275 -0.571984 0
M  V30 5032 H 473.578 -1.63004 -0.842739 0
M  V30 5033 H 471.96 -1.94229 -3.45096 0
M  V30 5034 H 473.134 -4.25466 -1.76962 0
M  V30 5035 H 471.449 -3.78117 -1.74402 0
M  V30 5036 H 474.046 -3.01312 -4.41718 0
M  V30 5037 H 474.389 -1.37117 -3.93071 0
M  V30 5038 H 474.922 -2.72212 -2.90078 0
M  V30 5039 H 471.661 -5.70102 -3.23518 0
M  V30 5040 H 471.181 -4.28442 -4.19758 0
M  V30 5041 H 472.86 -4.87628 -4.25239 0
M  V30 5042 N 472.992 0.995999 -1.22138 0
M  V30 5043 C 473.922 2.10387 -1.01289 0
M  V30 5044 C 474.903 1.69975 0.0651454 0
M  V30 5045 O 476.088 1.9396 -0.0964628 0
M  V30 5046 C 473.218 3.42312 -0.586517 0
M  V30 5047 C 472.172 3.96558 -1.61014 0
M  V30 5048 C 471.498 5.24494 -1.0397 0
M  V30 5049 C 472.798 4.27595 -2.99933 0
M  V30 5050 H 474.492 2.28086 -1.93951 0
M  V30 5051 H 472.038 1.09607 -0.933928 0
M  V30 5052 H 473.991 4.19223 -0.427793 0
M  V30 5053 H 472.715 3.24431 0.375761 0
M  V30 5054 H 471.374 3.21776 -1.75658 0
M  V30 5055 H 471.022 5.02953 -0.0688703 0
M  V30 5056 H 470.722 5.61755 -1.72352 0
M  V30 5057 H 472.246 6.04042 -0.892494 0
M  V30 5058 H 473.66 4.95315 -2.8868 0
M  V30 5059 H 472.057 4.76021 -3.6541 0
M  V30 5060 H 473.127 3.35498 -3.50099 0
M  V30 5061 N 474.47 1.03057 1.19235 0
M  V30 5062 C 475.698 0.747697 1.92917 0
M  V30 5063 C 476.113 -0.69372 1.75593 0
M  V30 5064 O 475.47 -1.47191 1.07894 0
M  V30 5065 C 475.521 1.09159 3.44625 0
M  V30 5066 O 475.242 2.47641 3.61394 0
M  V30 5067 C 476.743 0.831763 4.35427 0
M  V30 5068 H 473.963 0.273453 0.612751 0
M  V30 5069 H 476.507 1.37552 1.51327 0
M  V30 5070 H 474.662 0.508919 3.84043 0
M  V30 5071 H 475.076 2.60499 4.55237 0
M  V30 5072 H 476.55 1.12233 5.4047 0
M  V30 5073 H 477.027 -0.233769 4.38577 0
M  V30 5074 H 477.633 1.39725 4.01693 0
M  V30 5075 N 475.948 -1.35272 0.808662 0
M  V30 5076 C 477.225 -1.93077 0.313181 0
M  V30 5077 C 477.605 -1.73847 -1.19752 0
M  V30 5078 O 476.953 -1.1087 -1.998 0
M  V30 5079 C 477.163 -3.41347 0.726859 0
M  V30 5080 C 478.511 -4.18493 0.717532 0
M  V30 5081 O 479.535 -3.4987 0.668535 0
M  V30 5082 O 478.394 -5.40937 0.777779 0
M  V30 5083 H 475.488 -0.822885 0.0824018 0
M  V30 5084 H 478.034 -1.44335 0.892499 0
M  V30 5085 H 476.806 -3.49082 1.76797 0
M  V30 5086 H 476.429 -3.97411 0.122461 0
M  V30 5087 N 477.426 -0.562348 -1.47226 0
M  V30 5088 C 478.672 -0.0402761 -2.0276 0
M  V30 5089 C 479.005 1.30823 -1.43523 0
M  V30 5090 O 478.28 1.85249 -0.592705 0
M  V30 5091 C 478.563 0.047311 -3.60069 0
M  V30 5092 C 478.416 -1.32865 -4.29729 0
M  V30 5093 C 479.735 0.758182 -4.3352 0
M  V30 5094 H 476.854 -0.0161105 -0.736824 0
M  V30 5095 H 479.496 -0.725628 -1.75598 0
M  V30 5096 H 477.646 0.630986 -3.83342 0
M  V30 5097 H 479.318 -1.95593 -4.17781 0
M  V30 5098 H 477.561 -1.90195 -3.89882 0
M  V30 5099 H 478.232 -1.22004 -5.38349 0
M  V30 5100 H 480.708 0.262546 -4.15271 0
M  V30 5101 H 479.584 0.78844 -5.43208 0
M  V30 5102 H 479.845 1.81537 -4.03109 0
M  V30 5103 N 478.904 1.54736 -0.299062 0
M  V30 5104 C 480.181 1.92187 0.363802 0
M  V30 5105 C 480.561 1.22607 1.71845 0
M  V30 5106 O 479.909 0.361141 2.25628 0
M  V30 5107 C 480.119 3.45678 0.480377 0
M  V30 5108 C 481.467 4.17885 0.752147 0
M  V30 5109 O 482.491 3.51702 0.564264 0
M  V30 5110 O 481.35 5.35048 1.11294 0
M  V30 5111 H 478.444 0.801681 0.203066 0
M  V30 5112 H 480.99 1.66115 -0.346978 0
M  V30 5113 H 479.762 3.88443 -0.471999 0
M  V30 5114 H 479.385 3.77779 1.2397 0
M  V30 5115 N 480.382 0.0267497 1.57577 0
M  V30 5116 C 481.793 -0.512413 1.79531 0
M  V30 5117 C 482.144 -1.72391 0.936791 0
M  V30 5118 O 481.269 -2.15903 0.146543 0
M  V30 5119 C 481.864 -0.936378 3.25603 0
M  V30 5120 C 480.423 -1.42067 3.4856 0
M  V30 5121 C 479.57 -0.384278 2.74624 0
M  V30 5122 H 482.521 0.252797 1.56674 0
M  V30 5123 H 482.542 -1.80088 3.35184 0
M  V30 5124 H 482.054 -0.0544332 3.88062 0
M  V30 5125 H 480.155 -2.32262 2.9135 0
M  V30 5126 H 480.268 -1.42968 4.57271 0
M  V30 5127 H 478.632 -0.851855 2.40032 0
M  V30 5128 H 479.415 0.489159 3.39797 0
M  V30 5129 N 481.861 -1.55662 -0.24637 0
M  V30 5130 C 482.793 -1.86811 -1.32794 0
M  V30 5131 C 483.806 -0.754413 -1.44265 0
M  V30 5132 O 484.995 -1.03253 -1.45606 0
M  V30 5133 C 482.095 -2.0397 -2.70646 0
M  V30 5134 C 481.268 -3.34832 -2.81436 0
M  V30 5135 C 480.327 -3.41727 -4.00136 0
M  V30 5136 O 479.353 -4.14934 -3.89639 0
M  V30 5137 N 480.555 -2.71058 -5.1333 0
M  V30 5138 H 483.32 -2.80174 -1.06409 0
M  V30 5139 H 480.881 -1.55906 -0.43647 0
M  V30 5140 H 482.873 -2.05924 -3.48393 0
M  V30 5141 H 481.443 -1.1735 -2.89738 0
M  V30 5142 H 480.663 -3.4519 -1.90361 0
M  V30 5143 H 481.951 -4.21085 -2.85595 0
M  V30 5144 H 481.349 -2.11314 -5.2475 0
M  V30 5145 H 479.906 -2.78704 -5.89209 0
M  V30 5146 N 483.339 0.512053 -1.4905 0
M  V30 5147 C 484.564 1.2959 -1.6193 0
M  V30 5148 C 484.989 1.85906 -0.286454 0
M  V30 5149 O 484.347 1.65312 0.744426 0
M  V30 5150 C 484.395 2.40987 -2.68249 0
M  V30 5151 O 483.499 3.44531 -2.26654 0
M  V30 5152 H 482.84 0.383053 -0.542371 0
M  V30 5153 H 485.37 0.614231 -1.95162 0
M  V30 5154 H 485.38 2.86913 -2.90078 0
M  V30 5155 H 484.055 1.99361 -3.65004 0
M  V30 5156 H 482.632 3.046 -2.15112 0
M  V30 5157 N 484.817 1.37938 0.762283 0
M  V30 5158 C 486.228 1.30094 1.33912 0
M  V30 5159 C 486.579 -0.0472026 1.96143 0
M  V30 5160 O 485.704 -0.94917 1.94473 0
M  V30 5161 C 486.299 2.35592 2.43478 0
M  V30 5162 C 484.858 2.31353 2.96905 0
M  V30 5163 C 484.005 2.18919 1.70205 0
M  V30 5164 H 486.956 1.48423 0.561816 0
M  V30 5165 H 486.977 2.00806 3.23199 0
M  V30 5166 H 486.489 3.33701 1.98155 0
M  V30 5167 H 484.59 1.36799 3.46579 0
M  V30 5168 H 484.703 3.25147 3.51875 0
M  V30 5169 H 483.067 1.65624 1.93496 0
M  V30 5170 H 483.85 3.18956 1.26973 0
M  V30 5171 N 486.295 -0.989507 1.22664 0
M  V30 5172 C 487.541 -1.7321 1.05481 0
M  V30 5173 C 487.874 -1.89852 -0.408635 0
M  V30 5174 O 487.149 -1.44416 -1.30285 0
M  V30 5175 C 487.432 -3.1357 1.77047 0
M  V30 5176 C 487.285 -3.04555 3.31008 0
M  V30 5177 C 488.604 -4.12812 1.5256 0
M  V30 5178 H 485.723 -0.628697 0.384589 0
M  V30 5179 H 488.365 -1.15258 1.51049 0
M  V30 5180 H 486.515 -3.63046 1.3831 0
M  V30 5181 H 488.187 -2.62674 3.7921 0
M  V30 5182 H 486.43 -2.41278 3.6051 0
M  V30 5183 H 487.101 -4.03894 3.76263 0
M  V30 5184 H 489.577 -3.72106 1.86215 0
M  V30 5185 H 488.453 -5.09132 2.05124 0
M  V30 5186 H 488.714 -4.39711 0.458936 0
M  V30 5187 N 487.773 -1.03688 -1.18687 0
M  V30 5188 C 488.706 -0.569112 -2.2099 0
M  V30 5189 C 489.684 0.394315 -1.57746 0
M  V30 5190 O 490.868 0.309519 -1.85941 0
M  V30 5191 C 487.995 0.169104 -3.38278 0
M  V30 5192 C 487.041 -0.746989 -4.19908 0
M  V30 5193 S 487.874 -2.22773 -4.86963 0
M  V30 5194 C 489.03 -1.50025 -6.07654 0
M  V30 5195 H 489.263 -1.43589 -2.60326 0
M  V30 5196 H 486.796 -0.847507 -1.29061 0
M  V30 5197 H 488.754 0.588868 -4.06254 0
M  V30 5198 H 487.415 1.01172 -2.9736 0
M  V30 5199 H 486.608 -0.176626 -5.0369 0
M  V30 5200 H 486.21 -1.10543 -3.5729 0
M  V30 5201 H 488.502 -0.791217 -6.72864 0
M  V30 5202 H 489.445 -2.31498 -6.69189 0
M  V30 5203 H 489.853 -0.994245 -5.55675 0
M  V30 5204 N 489.251 1.34841 -0.815825 0
M  V30 5205 C 490.183 2.28409 -0.190265 0
M  V30 5206 C 491.196 1.50705 0.615771 0
M  V30 5207 O 492.385 1.72822 0.446616 0
M  V30 5208 C 489.485 3.30441 0.752446 0
M  V30 5209 C 488.658 4.37399 -0.00922152 0
M  V30 5210 C 487.717 5.19234 0.853351 0
M  V30 5211 O 486.743 5.68404 0.300919 0
M  V30 5212 N 487.945 5.38248 2.17416 0
M  V30 5213 H 490.71 2.82732 -0.994114 0
M  V30 5214 H 488.271 1.47289 -0.672129 0
M  V30 5215 H 490.263 3.82084 1.33394 0
M  V30 5216 H 488.833 2.76565 1.45707 0
M  V30 5217 H 488.053 3.86567 -0.771979 0
M  V30 5218 H 489.341 5.05992 -0.533807 0
M  V30 5219 H 488.739 4.99961 2.6468 0
M  V30 5220 H 487.296 5.93035 2.70467 0
M  V30 5221 N 490.729 0.570148 1.46925 0
M  V30 5222 C 491.639 -0.173061 2.33961 0
M  V30 5223 C 492.655 -0.898825 1.48987 0
M  V30 5224 O 493.831 -0.864825 1.81887 0
M  V30 5225 C 490.896 -1.18177 3.25937 0
M  V30 5226 C 489.957 -0.462041 4.26806 0
M  V30 5227 C 489.19 -1.4227 5.14388 0
M  V30 5228 O 489.413 -2.65842 5.04662 0
M  V30 5229 O 488.347 -0.940127 5.94513 0
M  V30 5230 H 492.173 0.541216 2.98839 0
M  V30 5231 H 489.758 0.330647 1.45695 0
M  V30 5232 H 491.64 -1.76372 3.82715 0
M  V30 5233 H 490.315 -1.87774 2.63671 0
M  V30 5234 H 489.222 0.161429 3.73752 0
M  V30 5235 H 490.555 0.192719 4.91823 0
M  V30 5236 N 492.207 -1.54576 0.307264 0
M  V30 5237 C 493.117 -2.27435 -0.57536 0
M  V30 5238 C 494.133 -1.31183 -1.14311 0
M  V30 5239 O 495.309 -1.64175 -1.16656 0
M  V30 5240 C 492.374 -3.00566 -1.72803 0
M  V30 5241 C 491.435 -4.12369 -1.19373 0
M  V30 5242 C 490.668 -4.82003 -2.29147 0
M  V30 5243 O 490.891 -4.51038 -3.49171 0
M  V30 5244 O 489.825 -5.69271 -1.95485 0
M  V30 5245 H 493.651 -3.03696 0.0158558 0
M  V30 5246 H 491.236 -1.49219 0.0735064 0
M  V30 5247 H 493.118 -3.46416 -2.39946 0
M  V30 5248 H 491.793 -2.27195 -2.30574 0
M  V30 5249 H 490.7 -3.70905 -0.487851 0
M  V30 5250 H 492.033 -4.87736 -0.661376 0
M  V30 5251 N 493.685 -0.035106 -1.57561 0
M  V30 5252 C 494.934 0.641604 -1.91223 0
M  V30 5253 C 495.247 1.72944 -0.913761 0
M  V30 5254 O 496.453 2.46321 -1.14185 0
M  V30 5255 C 494.909 1.19249 -3.3957 0
M  V30 5256 C 494.517 0.137616 -4.47789 0
M  V30 5257 C 496.261 1.84537 -3.82291 0
M  V30 5258 C 494.168 0.700478 -5.87237 0
M  V30 5259 H 493.098 0.243417 -0.713627 0
M  V30 5260 H 495.749 -0.101382 -1.8322 0
M  V30 5261 H 494.131 1.98728 -3.42525 0
M  V30 5262 H 495.305 -0.635153 -4.56402 0
M  V30 5263 H 493.62 -0.416855 -4.14308 0
M  V30 5264 H 496.217 2.27616 -4.83834 0
M  V30 5265 H 496.56 2.69054 -3.17672 0
M  V30 5266 H 497.093 1.11739 -3.81784 0
M  V30 5267 H 493.832 -0.106693 -6.55413 0
M  V30 5268 H 493.352 1.4416 -5.82218 0
M  V30 5269 H 495.031 1.18837 -6.35993 0
M  V30 5270 N 495.163 1.55791 0.238111 0
M  V30 5271 C 496.41 1.78033 0.964907 0
M  V30 5272 C 496.738 0.600984 1.84982 0
M  V30 5273 O 495.993 -0.41536 1.91241 0
M  V30 5274 C 496.292 3.05869 1.84875 0
M  V30 5275 C 495.958 4.36808 1.11846 0
M  V30 5276 C 494.62 4.72388 0.916662 0
M  V30 5277 C 496.972 5.17717 0.60151 0
M  V30 5278 C 494.3 5.86406 0.185756 0
M  V30 5279 C 496.652 6.32494 -0.115972 0
M  V30 5280 C 495.316 6.66688 -0.329168 0
M  V30 5281 H 494.586 0.651469 0.353085 0
M  V30 5282 H 497.233 1.90061 0.234318 0
M  V30 5283 H 495.538 2.88891 2.64668 0
M  V30 5284 H 497.235 3.20278 2.41294 0
M  V30 5285 H 493.825 4.08862 1.28569 0
M  V30 5286 H 498.009 4.90678 0.744932 0
M  V30 5287 H 493.265 6.11399 0.0101886 0
M  V30 5288 H 497.439 6.94425 -0.524127 0
M  V30 5289 H 495.066 7.54884 -0.897474 0
M  V30 5290 N 496.642 -0.504142 1.49319 0
M  V30 5291 C 497.89 -1.25598 1.58334 0
M  V30 5292 C 498.211 -1.93114 0.270538 0
M  V30 5293 O 497.481 -1.82585 -0.709891 0
M  V30 5294 H 496.061 -0.466571 0.58337 0
M  V30 5295 H 498.723 -0.584547 1.85928 0
M  V30 5296 H 497.819 -2.02159 2.37778 0
M  V30 5297 N 498.12 -1.38341 -0.754957 0
M  V30 5298 C 499.531 -1.30803 -1.3322 0
M  V30 5299 C 499.882 0.0368 -1.96165 0
M  V30 5300 O 499.007 0.938844 -1.94974 0
M  V30 5301 C 499.602 -2.3688 -2.42225 0
M  V30 5302 C 498.161 -2.32925 -2.95674 0
M  V30 5303 C 497.308 -2.19819 -1.69042 0
M  V30 5304 H 500.259 -1.48719 -0.553937 0
M  V30 5305 H 500.28 -2.02517 -3.22129 0
M  V30 5306 H 499.792 -3.34747 -1.96383 0
M  V30 5307 H 497.893 -1.38635 -3.45848 0
M  V30 5308 H 498.006 -3.27008 -3.50146 0
M  V30 5309 H 496.37 -1.66648 -1.92615 0
M  V30 5310 H 497.153 -3.19625 -1.25279 0
M  V30 5311 N 499.598 0.982988 -1.23187 0
M  V30 5312 C 500.844 1.72648 -1.06398 0
M  V30 5313 C 501.177 1.90066 0.398561 0
M  V30 5314 O 500.452 1.45105 1.29518 0
M  V30 5315 C 500.735 3.12627 -1.78707 0
M  V30 5316 C 500.588 3.02795 -3.32618 0
M  V30 5317 C 501.907 4.11997 -1.54747 0
M  V30 5318 H 499.026 0.626649 -0.387918 0
M  V30 5319 H 501.668 1.14455 -1.51658 0
M  V30 5320 H 499.818 3.62308 -1.40234 0
M  V30 5321 H 501.49 2.60659 -3.80598 0
M  V30 5322 H 499.733 2.39362 -3.61785 0
M  V30 5323 H 500.404 4.01893 -3.78399 0
M  V30 5324 H 502.88 3.71114 -1.88186 0
M  V30 5325 H 501.756 5.08037 -2.07821 0
M  V30 5326 H 502.017 4.39462 -0.482249 0
M  V30 5327 N 501.076 1.04316 1.18135 0
M  V30 5328 C 502.006 0.657299 2.24058 0
M  V30 5329 C 502.987 -0.340678 1.66654 0
M  V30 5330 O 504.172 -0.220223 1.92947 0
M  V30 5331 C 501.302 0.0220715 3.47293 0
M  V30 5332 C 500.256 0.943857 4.17463 0
M  V30 5333 C 499.582 0.172973 5.3442 0
M  V30 5334 C 500.882 2.26409 4.70677 0
M  V30 5335 H 502.576 1.5428 2.56589 0
M  V30 5336 H 500.122 0.743263 1.23335 0
M  V30 5337 H 502.075 -0.259607 4.206 0
M  V30 5338 H 500.799 -0.898323 3.14003 0
M  V30 5339 H 499.458 1.20996 3.46057 0
M  V30 5340 H 499.106 -0.749907 4.97379 0
M  V30 5341 H 498.806 0.787098 5.82304 0
M  V30 5342 H 500.33 -0.101628 6.10515 0
M  V30 5343 H 501.744 2.04294 5.35665 0
M  V30 5344 H 500.141 2.8314 5.29105 0
M  V30 5345 H 501.211 2.90883 3.87962 0
M  V30 5346 N 502.554 -1.34406 0.822964 0
M  V30 5347 C 503.965 -1.8069 0.469879 0
M  V30 5348 C 504.316 -1.68223 -1.00972 0
M  V30 5349 O 503.441 -1.22226 -1.78577 0
M  V30 5350 C 504.036 -3.28064 0.846118 0
M  V30 5351 C 502.595 -3.72428 0.545402 0
M  V30 5352 C 501.742 -2.56116 1.06301 0
M  V30 5353 H 504.693 -1.22153 1.01313 0
M  V30 5354 H 504.714 -3.80205 0.149922 0
M  V30 5355 H 504.226 -3.37107 1.92304 0
M  V30 5356 H 502.327 -3.68924 -0.522109 0
M  V30 5357 H 502.44 -4.66548 1.0895 0
M  V30 5358 H 500.804 -2.50048 0.484554 0
M  V30 5359 H 501.587 -2.67928 2.14638 0
M  V30 5360 N 504.032 -0.577932 -1.46621 0
M  V30 5361 C 505.281 -0.0594281 -2.01612 0
M  V30 5362 C 505.594 1.30663 -1.45556 0
M  V30 5363 O 506.8 1.91621 -1.92337 0
M  V30 5364 C 505.256 -0.0556666 -3.59857 0
M  V30 5365 C 504.864 -1.41975 -4.24908 0
M  V30 5366 C 506.608 0.409143 -4.22524 0
M  V30 5367 C 504.515 -1.37397 -5.75218 0
M  V30 5368 H 503.445 -0.0184469 -0.753774 0
M  V30 5369 H 506.096 -0.728869 -1.68404 0
M  V30 5370 H 504.478 0.679843 -3.90121 0
M  V30 5371 H 505.652 -2.17461 -4.0626 0
M  V30 5372 H 503.967 -1.82419 -3.74316 0
M  V30 5373 H 506.564 0.46211 -5.32699 0
M  V30 5374 H 506.907 1.42565 -3.91128 0
M  V30 5375 H 507.44 -0.272152 -3.96868 0
M  V30 5376 H 504.179 -2.36714 -6.11267 0
M  V30 5377 H 503.699 -0.661239 -5.96144 0
M  V30 5378 H 505.378 -1.08484 -6.3784 0
M  V30 5379 N 505.51 1.54411 -0.315457 0
M  V30 5380 C 506.756 2.00716 0.289972 0
M  V30 5381 C 507.089 1.2034 1.5242 0
M  V30 5382 O 506.364 0.283579 1.92422 0
M  V30 5383 C 506.647 3.54507 0.632196 0
M  V30 5384 C 506.5 4.45615 -0.61218 0
M  V30 5385 C 507.819 4.15421 1.45305 0
M  V30 5386 H 504.938 0.729637 0.10392 0
M  V30 5387 H 507.58 1.8506 -0.430427 0
M  V30 5388 H 505.73 3.67979 1.24595 0
M  V30 5389 H 507.402 4.44026 -1.25053 0
M  V30 5390 H 505.645 4.15621 -1.24264 0
M  V30 5391 H 506.316 5.51022 -0.328379 0
M  V30 5392 H 508.792 4.05474 0.934331 0
M  V30 5393 H 507.668 5.23157 1.66127 0
M  V30 5394 H 507.929 3.68223 2.44671 0
M  V30 5395 N 506.988 0.0434614 1.5754 0
M  V30 5396 C 508.228 -0.636023 1.94253 0
M  V30 5397 C 508.592 -1.68461 0.921132 0
M  V30 5398 O 509.793 -2.41762 1.17494 0
M  V30 5399 C 508.064 -1.22357 3.35803 0
M  V30 5400 S 509.623 -1.92213 3.94461 0
M  V30 5401 H 506.441 -0.209041 0.679575 0
M  V30 5402 H 509.043 0.110556 1.95187 0
M  V30 5403 H 507.747 -0.448162 4.07946 0
M  V30 5404 H 507.278 -2.00713 3.38346 0
M  V30 5405 H 509.293 -3.20199 3.79061 0
M  V30 5406 N 508.466 -1.55915 -0.229846 0
M  V30 5407 C 509.712 -1.78807 -0.956868 0
M  V30 5408 C 510.045 -0.611687 -1.84315 0
M  V30 5409 O 509.32 0.389398 -1.90562 0
M  V30 5410 C 509.603 -3.11718 -1.80288 0
M  V30 5411 C 509.456 -4.3979 -0.943649 0
M  V30 5412 C 510.775 -3.40999 -2.78222 0
M  V30 5413 H 507.894 -0.6505 -0.346437 0
M  V30 5414 H 510.536 -1.88648 -0.226252 0
M  V30 5415 H 508.686 -3.03459 -2.42579 0
M  V30 5416 H 510.358 -4.60059 -0.338121 0
M  V30 5417 H 508.601 -4.33086 -0.248705 0
M  V30 5418 H 509.272 -5.29208 -1.5698 0
M  V30 5419 H 511.748 -3.49332 -2.26067 0
M  V30 5420 H 510.624 -4.35183 -3.34526 0
M  V30 5421 H 510.885 -2.62754 -3.55546 0
M  V30 5422 N 509.944 0.496216 -1.49584 0
M  V30 5423 C 511.36 0.827814 -1.36453 0
M  V30 5424 C 511.56 1.97464 -0.401285 0
M  V30 5425 O 510.616 2.51958 0.165296 0
M  V30 5426 C 511.929 1.16352 -2.77277 0
M  V30 5427 C 513.477 1.27145 -2.86013 0
M  V30 5428 C 513.952 1.64042 -4.27615 0
M  V30 5429 N 515.443 1.71082 -4.30448 0
M  V30 5430 C 516.178 2.01085 -5.36984 0
M  V30 5431 N 515.674 2.2928 -6.5376 0
M  V30 5432 N 517.467 2.02376 -5.24405 0
M  V30 5433 H 509.618 -0.259947 -2.10803 0
M  V30 5434 H 511.881 -0.0537163 -0.946477 0
M  V30 5435 H 511.587 0.394153 -3.49484 0
M  V30 5436 H 511.461 2.10582 -3.12946 0
M  V30 5437 H 513.848 2.03152 -2.1404 0
M  V30 5438 H 513.929 0.309542 -2.5392 0
M  V30 5439 H 513.573 0.88583 -5.00115 0
M  V30 5440 H 513.503 2.6134 -4.57175 0
M  V30 5441 H 515.994 1.51434 -3.46232 0
M  V30 5442 H 516.307 2.51376 -7.30774 0
M  V30 5443 H 514.652 2.26726 -6.56978 0
M  V30 5444 H 517.843 1.79829 -4.32179 0
M  V30 5445 H 518.016 2.25425 -6.07526 0
M  V30 5446 N 511.423 1.38739 0.74761 0
M  V30 5447 C 512.648 1.38702 1.54197 0
M  V30 5448 C 513.073 -0.019664 1.8809 0
M  V30 5449 O 512.431 -1.00333 1.51006 0
M  V30 5450 C 512.479 2.25492 2.814 0
M  V30 5451 O 511.583 1.67613 3.76802 0
M  V30 5452 H 510.924 0.472863 0.466151 0
M  V30 5453 H 513.454 1.82577 0.923413 0
M  V30 5454 H 513.464 2.39561 3.30264 0
M  V30 5455 H 512.139 3.27727 2.56062 0
M  V30 5456 H 510.716 1.62718 3.35526 0
M  V30 5457 N 512.901 -0.976442 1.23707 0
M  V30 5458 C 513.831 -2.08749 1.04624 0
M  V30 5459 C 514.812 -1.70057 -0.0380956 0
M  V30 5460 O 515.997 -1.93782 0.127308 0
M  V30 5461 C 513.127 -3.41335 0.640902 0
M  V30 5462 C 512.081 -3.93947 1.67302 0
M  V30 5463 C 511.407 -5.22774 1.12301 0
M  V30 5464 C 512.707 -4.22769 3.06697 0
M  V30 5465 H 514.401 -2.24972 1.97555 0
M  V30 5466 H 511.947 -1.08108 0.951247 0
M  V30 5467 H 513.9 -4.18489 0.494434 0
M  V30 5468 H 512.624 -3.24988 -0.324099 0
M  V30 5469 H 511.283 -3.18941 1.80755 0
M  V30 5470 H 510.931 -5.0278 0.148877 0
M  V30 5471 H 510.631 -5.58942 1.81267 0
M  V30 5472 H 512.155 -6.02546 0.988479 0
M  V30 5473 H 513.569 -4.90659 2.96524 0
M  V30 5474 H 511.966 -4.70147 3.72937 0
M  V30 5475 H 513.036 -3.29885 3.55392 0
M  V30 5476 N 514.379 -1.04941 -1.1758 0
M  V30 5477 C 515.289 -0.658826 -2.25159 0
M  V30 5478 C 516.305 0.318941 -1.71052 0
M  V30 5479 O 517.481 0.171669 -2.00667 0
M  V30 5480 C 514.546 -0.0369522 -3.4668 0
M  V30 5481 C 513.607 -1.06484 -4.15884 0
M  V30 5482 C 512.84 -0.472551 -5.31604 0
M  V30 5483 O 513.063 0.718736 -5.65854 0
M  V30 5484 O 511.997 -1.20557 -5.89703 0
M  V30 5485 H 515.823 -1.55533 -2.60851 0
M  V30 5486 H 513.408 -0.820819 -1.24832 0
M  V30 5487 H 515.29 0.308784 -4.20267 0
M  V30 5488 H 513.965 0.833238 -3.12792 0
M  V30 5489 H 512.872 -1.46253 -3.44327 0
M  V30 5490 H 514.205 -1.9061 -4.53794 0
M  V30 5491 N 515.857 1.33968 -0.830081 0
M  V30 5492 C 516.767 2.33164 -0.259207 0
M  V30 5493 C 517.783 1.62951 0.610164 0
M  V30 5494 O 518.959 1.94668 0.516369 0
M  V30 5495 C 516.024 3.42088 0.563598 0
M  V30 5496 C 515.085 4.28037 -0.329014 0
M  V30 5497 C 514.318 5.3176 0.454616 0
M  V30 5498 O 514.541 5.44876 1.6872 0
M  V30 5499 O 513.475 6.01669 -0.166794 0
M  V30 5500 H 517.301 2.83832 -1.08041 0
M  V30 5501 H 514.886 1.37154 -0.59239 0
M  V30 5502 H 516.768 4.08581 1.03147 0
M  V30 5503 H 515.443 2.93651 1.36201 0
M  V30 5504 H 514.35 3.64443 -0.844538 0
M  V30 5505 H 515.683 4.79934 -1.09196 0
M  V30 5506 N 517.335 0.585699 1.46312 0
M  V30 5507 C 518.298 -0.135673 2.28798 0
M  V30 5508 C 519.298 -0.815988 1.38558 0
M  V30 5509 O 520.488 -0.667487 1.60904 0
M  V30 5510 C 517.62 -1.20163 3.1902 0
M  V30 5511 H 518.813 0.589257 2.94054 0
M  V30 5512 H 516.366 0.343794 1.52472 0
M  V30 5513 H 517.101 -1.95804 2.58517 0
M  V30 5514 H 516.886 -0.718282 3.85465 0
M  V30 5515 H 518.376 -1.70749 3.81096 0
M  V30 5516 N 518.813 -1.54241 0.323641 0
M  V30 5517 C 520.062 -1.9975 -0.279806 0
M  V30 5518 C 520.375 -1.2156 -1.5324 0
M  V30 5519 O 521.581 -1.57447 -2.21185 0
M  V30 5520 C 520.037 -3.55686 -0.549115 0
M  V30 5521 C 519.645 -4.4271 0.686432 0
M  V30 5522 C 521.389 -4.09663 -1.11251 0
M  V30 5523 C 519.296 -5.90119 0.389022 0
M  V30 5524 H 518.226 -0.746177 -0.10833 0
M  V30 5525 H 520.877 -1.78248 0.435877 0
M  V30 5526 H 519.259 -3.73176 -1.32499 0
M  V30 5527 H 520.433 -4.36996 1.46188 0
M  V30 5528 H 518.748 -3.99623 1.17005 0
M  V30 5529 H 521.345 -5.17386 -1.34965 0
M  V30 5530 H 521.688 -3.61651 -2.06191 0
M  V30 5531 H 522.221 -3.95806 -0.39782 0
M  V30 5532 H 518.96 -6.42326 1.30759 0
M  V30 5533 H 518.48 -5.98785 -0.348722 0
M  V30 5534 H 520.159 -6.47 -0.0011164 0
M  V30 5535 N 520.291 -0.0518155 -1.57515 0
M  V30 5536 C 521.223 0.951542 -2.08515 0
M  V30 5537 C 522.236 1.27436 -1.01311 0
M  V30 5538 O 523.425 1.23504 -1.28876 0
M  V30 5539 C 520.525 2.27291 -2.5138 0
M  V30 5540 C 519.698 2.13191 -3.81927 0
M  V30 5541 C 518.757 3.28458 -4.11098 0
M  V30 5542 O 517.783 3.04334 -4.81009 0
M  V30 5543 N 518.985 4.52954 -3.63061 0
M  V30 5544 H 521.75 0.516242 -2.9522 0
M  V30 5545 H 519.311 0.13441 -1.61341 0
M  V30 5546 H 521.303 3.03272 -2.67971 0
M  V30 5547 H 519.873 2.62386 -1.69919 0
M  V30 5548 H 519.093 1.21798 -3.74912 0
M  V30 5549 H 520.381 2.00999 -4.67415 0
M  V30 5550 H 519.779 4.75444 -3.06545 0
M  V30 5551 H 518.336 5.26026 -3.84889 0
M  V30 5552 N 521.769 1.56035 0.221574 0
M  V30 5553 C 523.016 1.79047 0.94597 0
M  V30 5554 C 523.344 0.62057 1.84334 0
M  V30 5555 O 522.599 -0.395053 1.91671 0
M  V30 5556 C 522.898 3.07813 1.8162 0
M  V30 5557 C 522.564 4.3797 1.07206 0
M  V30 5558 C 521.226 4.73334 0.866508 0
M  V30 5559 C 523.578 5.18326 0.546565 0
M  V30 5560 C 520.906 5.8657 0.123549 0
M  V30 5561 C 523.258 6.32335 -0.18305 0
M  V30 5562 C 521.922 6.66301 -0.399861 0
M  V30 5563 H 521.192 0.655178 0.346155 0
M  V30 5564 H 523.839 1.90299 0.214146 0
M  V30 5565 H 522.144 2.91682 2.61589 0
M  V30 5566 H 523.841 3.2282 2.37884 0
M  V30 5567 H 520.431 4.10202 1.24226 0
M  V30 5568 H 524.615 4.9144 0.692847 0
M  V30 5569 H 519.871 6.11376 -0.0546591 0
M  V30 5570 H 524.045 6.9383 -0.59775 0
M  V30 5571 H 521.672 7.53889 -0.977489 0
M  V30 5572 N 523.247 -0.488276 1.49845 0
M  V30 5573 C 524.496 -1.23826 1.59217 0
M  V30 5574 C 524.809 -1.93439 0.289966 0
M  V30 5575 O 526.015 -2.70229 0.262382 0
M  V30 5576 C 524.471 -2.24902 2.80976 0
M  V30 5577 C 524.079 -1.6117 4.18005 0
M  V30 5578 C 525.823 -3.00648 2.99685 0
M  V30 5579 C 523.73 -2.60431 5.3097 0
M  V30 5580 H 522.66 -0.465858 0.592868 0
M  V30 5581 H 525.311 -0.510645 1.76252 0
M  V30 5582 H 523.693 -3.0088 2.57463 0
M  V30 5583 H 524.867 -0.910968 4.51706 0
M  V30 5584 H 523.182 -0.97767 4.0476 0
M  V30 5585 H 525.779 -3.74903 3.81251 0
M  V30 5586 H 526.122 -3.5902 2.10738 0
M  V30 5587 H 526.655 -2.31784 3.23297 0
M  V30 5588 H 523.394 -2.06823 6.22017 0
M  V30 5589 H 522.914 -3.28707 5.01709 0
M  V30 5590 H 524.593 -3.22606 5.60834 0
M  V30 5591 N 524.725 -1.39134 -0.740242 0
M  V30 5592 C 525.673 -1.3757 -1.87556 0
M  V30 5593 C 526.667 -0.259593 -1.67399 0
M  V30 5594 O 527.873 -0.429349 -1.74804 0
M  V30 5595 H 524.248 -0.42947 -0.6173 0
M  V30 5596 H 526.219 -2.33345 -1.85991 0
M  V30 5597 C 524.968 -1.23087 -3.25184 0
M  V30 5598 H 524.291 -2.08237 -3.41288 0
M  V30 5599 H 525.731 -1.26049 -4.0483 0
M  V30 5600 C 524.19 0.0611471 -3.36845 0
M  V30 5601 O 524.72 1.03328 -3.88183 0
M  V30 5602 N 522.926 0.122454 -2.90342 0
M  V30 5603 H 522.473 -0.669329 -2.48752 0
M  V30 5604 H 522.431 0.986463 -2.98523 0
M  V30 5605 N 526.204 0.969867 -1.24223 0
M  V30 5606 C 527.136 2.0669 -0.99055 0
M  V30 5607 C 528.149 1.62753 0.0392222 0
M  V30 5608 O 529.338 1.77403 -0.197561 0
M  V30 5609 C 526.438 3.35589 -0.472594 0
M  V30 5610 C 525.611 4.08444 -1.56499 0
M  V30 5611 C 524.67 5.15616 -1.05007 0
M  V30 5612 O 523.696 5.41911 -1.7413 0
M  V30 5613 N 524.898 5.80383 0.116641 0
M  V30 5614 H 527.663 2.28855 -1.93508 0
M  V30 5615 H 525.224 1.13733 -1.15223 0
M  V30 5616 H 527.216 4.04542 -0.112919 0
M  V30 5617 H 525.786 3.10311 0.377617 0
M  V30 5618 H 525.006 3.33798 -2.09696 0
M  V30 5619 H 526.294 4.53882 -2.29932 0
M  V30 5620 H 525.692 5.6142 0.694589 0
M  V30 5621 H 524.249 6.50462 0.417483 0
M  V30 5622 N 527.682 1.05563 1.17022 0
M  V30 5623 C 529.098 0.777684 1.39371 0
M  V30 5624 C 529.298 -0.626269 1.91521 0
M  V30 5625 O 528.354 -1.38806 2.10924 0
M  V30 5626 C 529.667 1.83642 2.3811 0
M  V30 5627 C 531.215 1.85907 2.51809 0
M  V30 5628 C 531.69 2.90813 3.53824 0
M  V30 5629 N 533.181 2.898 3.61345 0
M  V30 5630 C 533.916 3.6762 4.40049 0
M  V30 5631 N 533.412 4.55237 5.22237 0
M  V30 5632 N 535.205 3.56044 4.34959 0
M  V30 5633 H 527.356 1.9614 0.815047 0
M  V30 5634 H 529.619 0.849527 0.420722 0
M  V30 5635 H 529.325 2.84425 2.06871 0
M  V30 5636 H 529.199 1.6812 3.37662 0
M  V30 5637 H 531.586 0.857865 2.82356 0
M  V30 5638 H 531.667 2.05506 1.52318 0
M  V30 5639 H 531.311 3.91122 3.24015 0
M  V30 5640 H 531.241 2.68465 4.53028 0
M  V30 5641 H 533.732 2.26274 3.02669 0
M  V30 5642 H 534.045 5.11291 5.79484 0
M  V30 5643 H 532.39 4.59296 5.21605 0
M  V30 5644 H 535.581 2.86986 3.69806 0
M  V30 5645 H 535.754 4.16938 4.96051 0
M  V30 5646 N 529.16 -1.33526 0.837174 0
M  V30 5647 C 530.07 -2.33023 0.271568 0
M  V30 5648 C 531.086 -1.63272 -0.601514 0
M  V30 5649 O 532.262 -1.94939 -0.506038 0
M  V30 5650 C 529.327 -3.42382 -0.545448 0
M  V30 5651 C 528.388 -4.27857 0.351709 0
M  V30 5652 C 527.621 -5.31994 -0.426409 0
M  V30 5653 O 527.844 -5.45763 -1.65828 0
M  V30 5654 O 526.778 -6.01572 0.1987 0
M  V30 5655 H 530.604 -2.83256 1.09545 0
M  V30 5656 H 528.189 -1.36837 0.599655 0
M  V30 5657 H 530.071 -4.09122 -1.00979 0
M  V30 5658 H 528.746 -2.94369 -1.34641 0
M  V30 5659 H 527.653 -3.6399 0.863853 0
M  V30 5660 H 528.986 -4.79349 1.1174 0
M  V30 5661 N 530.638 -0.59345 -1.46 0
M  V30 5662 C 531.585 0.133618 -2.30413 0
M  V30 5663 C 532.555 0.873736 -1.41262 0
M  V30 5664 O 533.74 0.862279 -1.70204 0
M  V30 5665 C 530.88 1.13434 -3.25924 0
M  V30 5666 C 529.993 0.39656 -4.30176 0
M  V30 5667 C 529.128 1.38575 -5.12806 0
M  V30 5668 C 528.167 0.634984 -6.08797 0
M  V30 5669 N 527.304 1.57276 -6.84258 0
M  V30 5670 H 532.144 -0.592252 -2.92055 0
M  V30 5671 H 529.681 -0.303874 -1.43927 0
M  V30 5672 H 531.639 1.72752 -3.79753 0
M  V30 5673 H 530.269 1.82779 -2.66067 0
M  V30 5674 H 529.321 -0.311861 -3.79119 0
M  V30 5675 H 530.633 -0.189869 -4.98438 0
M  V30 5676 H 529.787 2.05141 -5.70966 0
M  V30 5677 H 528.526 2.00611 -4.44529 0
M  V30 5678 H 527.531 -0.0443925 -5.49782 0
M  V30 5679 H 528.756 0.0198678 -6.79097 0
M  V30 5680 H 526.702 2.18103 -6.18682 0
M  V30 5681 H 526.619 1.03941 -7.48821 0
M  V30 5682 H 527.887 2.22844 -7.46968 0
M  V30 5683 N 532.116 1.54067 -0.331816 0
M  V30 5684 C 533.527 1.86059 0.15454 0
M  V30 5685 C 533.878 1.25331 1.50952 0
M  V30 5686 O 533.003 0.562441 2.08963 0
M  V30 5687 C 533.598 3.37581 0.287192 0
M  V30 5688 C 532.157 3.69493 0.717773 0
M  V30 5689 C 531.304 2.76863 -0.155569 0
M  V30 5690 H 534.255 1.48797 -0.55182 0
M  V30 5691 H 534.276 3.63744 1.11671 0
M  V30 5692 H 533.788 3.81751 -0.699131 0
M  V30 5693 H 531.889 3.3086 1.71354 0
M  V30 5694 H 532.002 4.76315 0.5158 0
M  V30 5695 H 530.366 2.51995 0.370213 0
M  V30 5696 H 531.149 3.23861 -1.13881 0
M  V30 5697 N 533.594 0.0601682 1.57485 0
M  V30 5698 C 534.524 -0.90889 2.15085 0
M  V30 5699 C 535.505 -1.31838 1.07484 0
M  V30 5700 O 536.69 -1.3915 1.35466 0
M  V30 5701 C 533.82 -2.18059 2.7031 0
M  V30 5702 C 532.774 -1.91088 3.82974 0
M  V30 5703 C 532.1 -3.24789 4.24754 0
M  V30 5704 C 533.4 -1.22535 5.07723 0
M  V30 5705 H 535.094 -0.429093 2.96309 0
M  V30 5706 H 532.64 -0.204952 1.42534 0
M  V30 5707 H 534.593 -2.86258 3.09248 0
M  V30 5708 H 533.317 -2.6826 1.8629 0
M  V30 5709 H 531.976 -1.25297 3.44523 0
M  V30 5710 H 531.624 -3.72809 3.37672 0
M  V30 5711 H 531.324 -3.07538 5.00694 0
M  V30 5712 H 532.848 -3.94205 4.66299 0
M  V30 5713 H 534.262 -1.80783 5.4405 0
M  V30 5714 H 532.659 -1.1558 5.88864 0
M  V30 5715 H 533.729 -0.202692 4.84476 0
M  V30 5716 N 535.072 -1.5615 -0.213296 0
M  V30 5717 C 536.035 -1.92249 -1.24792 0
M  V30 5718 C 537.035 -0.801828 -1.39382 0
M  V30 5719 O 538.225 -1.06948 -1.37506 0
M  V30 5720 C 535.357 -2.18056 -2.62039 0
M  V30 5721 H 536.55 -2.84793 -0.939845 0
M  V30 5722 H 534.103 -1.49559 -0.454062 0
M  V30 5723 H 534.838 -1.2809 -2.97932 0
M  V30 5724 H 534.623 -2.99703 -2.52825 0
M  V30 5725 H 536.113 -2.47051 -3.36683 0
M  V30 5726 N 536.55 0.480323 -1.50102 0
M  V30 5727 C 537.48 1.58769 -1.71215 0
M  V30 5728 C 538.461 1.60583 -0.560997 0
M  V30 5729 O 539.646 1.76996 -0.799127 0
M  V30 5730 C 536.776 2.97148 -1.79778 0
M  V30 5731 C 535.73 3.10201 -2.94888 0
M  V30 5732 C 535.056 4.50137 -2.88584 0
M  V30 5733 C 536.356 2.88283 -4.35534 0
M  V30 5734 H 538.05 1.41354 -2.6393 0
M  V30 5735 H 535.596 0.678591 -1.27008 0
M  V30 5736 H 537.549 3.74536 -1.93133 0
M  V30 5737 H 536.273 3.15699 -0.836772 0
M  V30 5738 H 534.932 2.35244 -2.81169 0
M  V30 5739 H 534.58 4.65593 -1.90349 0
M  V30 5740 H 534.28 4.59808 -3.65856 0
M  V30 5741 H 535.804 5.29558 -3.03976 0
M  V30 5742 H 537.218 3.55427 -4.49827 0
M  V30 5743 H 535.615 3.09408 -5.14186 0
M  V30 5744 H 536.685 1.84219 -4.48544 0
M  V30 5745 N 538.028 1.39524 0.732853 0
M  V30 5746 C 539.258 1.3994 1.51988 0
M  V30 5747 C 539.666 -0.00727973 1.89199 0
M  V30 5748 O 539.009 -0.989521 1.54771 0
M  V30 5749 C 539.071 2.21026 2.83527 0
M  V30 5750 C 538.735 3.69633 2.68738 0
M  V30 5751 C 539.732 4.62665 2.37143 0
M  V30 5752 C 537.417 4.13244 2.85542 0
M  V30 5753 C 539.411 5.97291 2.22536 0
M  V30 5754 C 537.098 5.47945 2.70554 0
M  V30 5755 C 538.096 6.39783 2.39097 0
M  V30 5756 O 537.784 7.72002 2.24204 0
M  V30 5757 H 537.516 0.479795 0.476206 0
M  V30 5758 H 540.07 1.8399 0.913054 0
M  V30 5759 H 538.3 1.71728 3.46477 0
M  V30 5760 H 539.989 2.13594 3.45156 0
M  V30 5761 H 540.755 4.30272 2.2381 0
M  V30 5762 H 536.634 3.42094 3.09019 0
M  V30 5763 H 540.178 6.68939 1.97905 0
M  V30 5764 H 536.075 5.79928 2.83466 0
M  V30 5765 H 536.843 7.8275 2.39258 0
M  V30 5766 N 539.506 -0.963266 1.24736 0
M  V30 5767 C 540.439 -2.05758 0.986852 0
M  V30 5768 C 541.417 -1.62398 -0.0809272 0
M  V30 5769 O 542.601 -1.88414 0.0569347 0
M  V30 5770 C 539.728 -3.35135 0.490095 0
M  V30 5771 C 538.774 -3.97451 1.54709 0
M  V30 5772 S 539.607 -4.34519 3.12976 0
M  V30 5773 C 540.763 -5.67026 2.65014 0
M  V30 5774 H 540.996 -2.27539 1.91346 0
M  V30 5775 H 538.529 -1.10176 1.08169 0
M  V30 5776 H 540.487 -4.09962 0.21012 0
M  V30 5777 H 539.148 -3.11335 -0.415873 0
M  V30 5778 H 538.341 -4.90704 1.15003 0
M  V30 5779 H 537.943 -3.29071 1.77731 0
M  V30 5780 H 540.235 -6.44748 2.08102 0
M  V30 5781 H 541.178 -6.11594 3.56873 0
M  V30 5782 H 541.586 -5.25847 2.05294 0
M  V30 5783 N 540.985 -1.06182 -1.16461 0
M  V30 5784 C 542.232 -0.777863 -1.86964 0
M  V30 5785 C 542.56 0.695602 -1.81636 0
M  V30 5786 O 541.815 1.52532 -1.22607 0
M  V30 5787 C 542.114 -1.21633 -3.36066 0
M  V30 5788 C 541.78 -2.69371 -3.61594 0
M  V30 5789 C 540.442 -3.09727 -3.6827 0
M  V30 5790 C 542.794 -3.64791 -3.7226 0
M  V30 5791 C 540.122 -4.44345 -3.83112 0
M  V30 5792 C 542.474 -4.99155 -3.88623 0
M  V30 5793 C 541.138 -5.39149 -3.93541 0
M  V30 5794 H 540.408 -0.28464 -0.68415 0
M  V30 5795 H 543.055 -1.33071 -1.37711 0
M  V30 5796 H 541.36 -0.582651 -3.87443 0
M  V30 5797 H 543.057 -0.973682 -3.88999 0
M  V30 5798 H 539.647 -2.37124 -3.57029 0
M  V30 5799 H 543.831 -3.34746 -3.66413 0
M  V30 5800 H 539.087 -4.74819 -3.85172 0
M  V30 5801 H 543.261 -5.72976 -3.95817 0
M  V30 5802 H 540.888 -6.43464 -4.04794 0
M  V30 5803 N 542.463 1.3308 -0.844243 0
M  V30 5804 C 543.688 2.02341 -0.455282 0
M  V30 5805 C 544.113 1.6308 0.93737 0
M  V30 5806 O 543.471 0.826118 1.61385 0
M  V30 5807 C 543.519 3.55743 -0.58988 0
M  V30 5808 O 542.623 4.1063 0.38166 0
M  V30 5809 H 541.964 0.637898 -0.184343 0
M  V30 5810 H 544.494 1.6986 -1.14056 0
M  V30 5811 H 544.504 4.05243 -0.473522 0
M  V30 5812 H 543.179 3.83662 -1.60549 0
M  V30 5813 H 541.756 3.72236 0.22241 0
M  V30 5814 N 543.941 0.601185 1.45683 0
M  V30 5815 C 545.166 0.0982245 2.07167 0
M  V30 5816 C 545.591 -1.20546 1.44396 0
M  V30 5817 O 544.949 -1.73247 0.534347 0
M  V30 5818 C 544.997 -0.0346976 3.60583 0
M  V30 5819 O 544.101 -1.08657 3.97828 0
M  V30 5820 H 543.442 0.0711618 0.660176 0
M  V30 5821 H 545.972 0.829376 1.87036 0
M  V30 5822 H 545.982 -0.234969 4.07323 0
M  V30 5823 H 544.657 0.917265 4.05659 0
M  V30 5824 H 543.234 -0.863275 3.6277 0
M  V30 5825 N 545.419 -1.53889 0.339982 0
M  V30 5826 C 546.367 -2.26391 -0.533822 0
M  V30 5827 C 547.361 -1.28404 -1.10493 0
M  V30 5828 O 548.567 -1.46124 -1.05108 0
M  V30 5829 H 544.942 -0.727385 -0.190828 0
M  V30 5830 H 546.913 -2.98233 0.0997484 0
M  V30 5831 C 545.662 -3.04707 -1.67479 0
M  V30 5832 H 544.985 -3.79934 -1.2446 0
M  V30 5833 H 546.425 -3.58657 -2.26144 0
M  V30 5834 C 544.884 -2.13989 -2.60212 0
M  V30 5835 O 545.414 -1.73361 -3.62366 0
M  V30 5836 N 543.62 -1.79141 -2.28816 0
M  V30 5837 H 543.167 -2.12378 -1.45785 0
M  V30 5838 H 543.125 -1.18725 -2.91121 0
M  V30 5839 N 546.897 -0.0685191 -1.57451 0
M  V30 5840 C 548.174 0.642167 -1.84758 0
M  V30 5841 C 548.554 1.87991 -0.960344 0
M  V30 5842 O 547.902 2.28485 -0.0257894 0
M  V30 5843 C 548.112 0.982946 -3.34872 0
M  V30 5844 C 549.46 1.35784 -4.02303 0
M  V30 5845 O 550.484 1.07477 -3.39598 0
M  V30 5846 O 549.343 1.88681 -5.12895 0
M  V30 5847 H 546.437 0.318625 -0.763156 0
M  V30 5848 H 548.983 -0.0992015 -1.6941 0
M  V30 5849 H 547.755 0.10372 -3.91163 0
M  V30 5850 H 547.378 1.78119 -3.55471 0
M  V30 5851 N 548.375 1.56261 0.205012 0
M  V30 5852 C 549.322 1.93754 1.25411 0
M  V30 5853 C 550.292 0.796826 1.45739 0
M  V30 5854 O 551.477 1.05414 1.59036 0
M  V30 5855 C 548.617 2.27383 2.59598 0
M  V30 5856 C 547.73 3.5447 2.46931 0
M  V30 5857 C 546.865 3.77468 3.73753 0
M  V30 5858 C 545.904 4.98014 3.55877 0
M  V30 5859 N 545.041 5.17316 4.74688 0
M  V30 5860 H 549.881 2.83203 0.92737 0
M  V30 5861 H 547.418 1.40158 0.446574 0
M  V30 5862 H 549.376 2.44895 3.37761 0
M  V30 5863 H 548.006 1.41088 2.90335 0
M  V30 5864 H 547.058 3.45061 1.60116 0
M  V30 5865 H 548.37 4.42789 2.29651 0
M  V30 5866 H 547.524 3.95165 4.60358 0
M  V30 5867 H 546.263 2.87461 3.93976 0
M  V30 5868 H 545.268 4.80249 2.67657 0
M  V30 5869 H 546.493 5.8952 3.37109 0
M  V30 5870 H 544.439 4.30255 4.95194 0
M  V30 5871 H 544.356 5.99796 4.60197 0
M  V30 5872 H 545.624 5.39463 5.62672 0
M  V30 5873 N 549.853 -0.472356 1.50355 0
M  V30 5874 C 551.099 -1.22634 1.6152 0
M  V30 5875 C 551.432 -1.91645 0.313995 0
M  V30 5876 O 550.707 -1.82059 -0.684446 0
M  V30 5877 C 550.99 -2.27099 2.7946 0
M  V30 5878 C 550.843 -1.62402 4.19459 0
M  V30 5879 C 552.162 -3.28421 2.92964 0
M  V30 5880 H 549.281 -0.444494 0.587873 0
M  V30 5881 H 551.923 -0.520321 1.82737 0
M  V30 5882 H 550.073 -2.87314 2.61501 0
M  V30 5883 H 551.745 -1.05793 4.49005 0
M  V30 5884 H 549.988 -0.927184 4.23776 0
M  V30 5885 H 550.659 -2.38309 4.97909 0
M  V30 5886 H 553.135 -2.78227 3.09401 0
M  V30 5887 H 552.011 -3.98845 3.77113 0
M  V30 5888 H 552.272 -3.92467 2.03525 0
M  V30 5889 N 551.331 -1.39911 -0.725443 0
M  V30 5890 C 552.58 -1.36963 -1.48068 0
M  V30 5891 C 552.893 0.0284478 -1.95579 0
M  V30 5892 O 554.099 0.180535 -2.70899 0
M  V30 5893 C 552.555 -2.40664 -2.67598 0
M  V30 5894 C 552.163 -3.86234 -2.26997 0
M  V30 5895 C 553.907 -2.46807 -3.45379 0
M  V30 5896 C 551.814 -4.81554 -3.43307 0
M  V30 5897 H 550.744 -0.509223 -0.556065 0
M  V30 5898 H 553.395 -1.65602 -0.790454 0
M  V30 5899 H 551.777 -2.05109 -3.38742 0
M  V30 5900 H 552.951 -4.3088 -1.63337 0
M  V30 5901 H 551.266 -3.83475 -1.62284 0
M  V30 5902 H 553.863 -3.15213 -4.31909 0
M  V30 5903 H 554.206 -1.49552 -3.8851 0
M  V30 5904 H 554.739 -2.81303 -2.81271 0
M  V30 5905 H 551.478 -5.80106 -3.05217 0
M  V30 5906 H 550.998 -4.4158 -4.05915 0
M  V30 5907 H 552.677 -5.0091 -4.0951 0
M  V30 5908 N 552.809 0.956637 -1.25245 0
M  V30 5909 C 553.756 2.053 -1.05454 0
M  V30 5910 C 554.726 1.66062 0.0356889 0
M  V30 5911 O 555.911 1.90415 -0.121099 0
M  V30 5912 C 553.051 3.38391 -0.677191 0
M  V30 5913 C 552.164 3.90758 -1.84206 0
M  V30 5914 C 551.299 5.12165 -1.40926 0
M  V30 5915 C 550.338 5.56757 -2.54338 0
M  V30 5916 N 549.475 6.69376 -2.11848 0
M  V30 5917 H 554.315 2.21562 -1.99284 0
M  V30 5918 H 551.852 1.08578 -0.992434 0
M  V30 5919 H 553.81 4.1488 -0.43938 0
M  V30 5920 H 552.44 3.22021 0.224127 0
M  V30 5921 H 551.492 3.10808 -2.19323 0
M  V30 5922 H 552.804 4.19802 -2.69383 0
M  V30 5923 H 551.958 5.96065 -1.13098 0
M  V30 5924 H 550.697 4.84832 -0.528175 0
M  V30 5925 H 549.702 4.71423 -2.82913 0
M  V30 5926 H 550.927 5.861 -3.43022 0
M  V30 5927 H 548.873 6.43756 -1.26153 0
M  V30 5928 H 548.79 6.97927 -2.90574 0
M  V30 5929 H 550.058 7.5669 -1.87191 0
M  V30 5930 N 554.287 1.06798 1.15896 0
M  V30 5931 C 555.234 0.683314 2.20453 0
M  V30 5932 C 556.204 -0.32255 1.62938 0
M  V30 5933 O 557.389 -0.210276 1.89638 0
M  V30 5934 C 554.529 0.0813266 3.45004 0
M  V30 5935 C 553.642 1.13799 4.16742 0
M  V30 5936 C 552.777 0.501598 5.28826 0
M  V30 5937 C 551.816 1.54144 5.92373 0
M  V30 5938 N 550.953 0.928038 6.9594 0
M  V30 5939 H 555.793 1.57932 2.52708 0
M  V30 5940 H 553.33 0.789544 1.24115 0
M  V30 5941 H 555.288 -0.285274 4.16224 0
M  V30 5942 H 553.918 -0.77806 3.13283 0
M  V30 5943 H 552.97 1.62223 3.44075 0
M  V30 5944 H 554.282 1.92664 4.60089 0
M  V30 5945 H 553.436 0.0823162 6.06644 0
M  V30 5946 H 552.175 -0.318883 4.86656 0
M  V30 5947 H 551.18 1.97056 5.13273 0
M  V30 5948 H 552.405 2.3641 6.36621 0
M  V30 5949 H 550.351 0.12836 6.55874 0
M  V30 5950 H 550.268 1.65401 7.37685 0
M  V30 5951 H 551.536 0.534071 7.77668 0
M  V30 5952 N 555.766 -1.3263 0.851289 0
M  V30 5953 C 556.699 -2.26952 0.238318 0
M  V30 5954 C 557.677 -1.50243 -0.621757 0
M  V30 5955 O 558.861 -1.79378 -0.579298 0
M  V30 5956 C 555.988 -3.32124 -0.664178 0
M  V30 5957 C 555.034 -4.26325 0.122067 0
M  V30 5958 S 555.867 -5.14404 1.48824 0
M  V30 5959 C 557.023 -6.231 0.591372 0
M  V30 5960 H 557.256 -2.78594 1.03791 0
M  V30 5961 H 554.789 -1.4011 0.648731 0
M  V30 5962 H 556.747 -3.93197 -1.17924 0
M  V30 5963 H 555.408 -2.79273 -1.43755 0
M  V30 5964 H 554.601 -5.00821 -0.565181 0
M  V30 5965 H 554.203 -3.69652 0.568602 0
M  V30 5966 H 556.495 -6.77187 -0.205762 0
M  V30 5967 H 557.438 -6.95936 1.30687 0
M  V30 5968 H 557.846 -5.64252 0.167206 0
M  V30 5969 N 557.244 -0.608902 -1.45362 0
M  V30 5970 C 558.493 -0.10218 -2.01441 0
M  V30 5971 C 558.806 1.27546 -1.48295 0
M  V30 5972 O 560.012 1.87498 -1.96359 0
M  V30 5973 C 558.468 -0.131985 -3.59658 0
M  V30 5974 C 558.076 -1.50956 -4.21801 0
M  V30 5975 C 559.82 0.319427 -4.23296 0
M  V30 5976 C 557.727 -1.49568 -5.72174 0
M  V30 5977 H 556.657 -0.0344314 -0.753213 0
M  V30 5978 H 559.308 -0.764426 -1.6682 0
M  V30 5979 H 557.69 0.596939 -3.91475 0
M  V30 5980 H 558.864 -2.26029 -4.01556 0
M  V30 5981 H 557.179 -1.90318 -3.70362 0
M  V30 5982 H 559.776 0.349013 -5.3356 0
M  V30 5983 H 560.119 1.34237 -3.94064 0
M  V30 5984 H 560.652 -0.356273 -3.96201 0
M  V30 5985 H 557.391 -2.49626 -6.06108 0
M  V30 5986 H 556.911 -0.787542 -5.94607 0
M  V30 5987 H 558.59 -1.21989 -6.35396 0
M  V30 5988 N 558.722 1.53707 -0.348139 0
M  V30 5989 C 559.685 2.23812 0.494058 0
M  V30 5990 C 560.685 1.23989 1.02388 0
M  V30 5991 O 561.875 1.48395 0.912396 0
M  V30 5992 C 559.007 2.96133 1.68872 0
M  V30 5993 H 560.2 2.99663 -0.119141 0
M  V30 5994 H 557.753 1.55983 -0.0995539 0
M  V30 5995 H 558.488 2.24481 2.34049 0
M  V30 5996 H 558.273 3.69357 1.31596 0
M  V30 5997 H 559.763 3.49475 2.28597 0
M  V30 5998 N 560.2 0.0768682 1.57412 0
M  V30 5999 C 561.11 -0.903207 2.16516 0
M  V30 6000 C 562.126 -1.32341 1.12968 0
M  V30 6001 O 563.302 -1.39507 1.45258 0
M  V30 6002 C 560.367 -2.1508 2.71922 0
M  V30 6003 C 559.428 -1.78653 3.90361 0
M  V30 6004 C 558.661 -2.97465 4.43114 0
M  V30 6005 O 558.884 -4.11638 3.94854 0
M  V30 6006 O 557.818 -2.76987 5.3438 0
M  V30 6007 H 561.644 -0.430427 3.00634 0
M  V30 6008 H 559.229 -0.146485 1.4868 0
M  V30 6009 H 561.111 -2.8823 3.07411 0
M  V30 6010 H 559.786 -2.61446 1.9086 0
M  V30 6011 H 558.693 -1.0274 3.59716 0
M  V30 6012 H 560.026 -1.37066 4.7273 0
M  V30 6013 N 561.678 -1.56367 -0.196722 0
M  V30 6014 C 562.906 -1.84639 -0.933608 0
M  V30 6015 C 563.321 -0.659164 -1.76919 0
M  V30 6016 O 562.678 0.372142 -1.78665 0
M  V30 6017 C 562.729 -3.11694 -1.83109 0
M  V30 6018 O 562.45 -4.25838 -1.02924 0
M  V30 6019 C 563.951 -3.53132 -2.67979 0
M  V30 6020 H 561.171 -0.613188 -0.272473 0
M  V30 6021 H 563.715 -2.03475 -0.204465 0
M  V30 6022 H 561.87 -2.94759 -2.51387 0
M  V30 6023 H 562.284 -4.98178 -1.64069 0
M  V30 6024 H 563.758 -4.45005 -3.26611 0
M  V30 6025 H 564.235 -2.76045 -3.41608 0
M  V30 6026 H 564.841 -3.72592 -2.05074 0
M  V30 6027 N 563.156 0.464375 -1.50603 0
M  V30 6028 C 564.381 1.24372 -1.65971 0
M  V30 6029 C 564.806 1.84901 -0.345453 0
M  V30 6030 O 564.164 1.67596 0.691457 0
M  V30 6031 C 564.212 2.32331 -2.7578 0
M  V30 6032 O 563.316 3.37146 -2.375 0
M  V30 6033 H 562.657 0.365604 -0.554283 0
M  V30 6034 H 565.187 0.55183 -1.97018 0
M  V30 6035 H 565.197 2.77539 -2.99059 0
M  V30 6036 H 563.872 1.87648 -3.71162 0
M  V30 6037 H 562.449 2.97602 -2.24694 0
M  V30 6038 N 564.634 1.40294 0.718013 0
M  V30 6039 C 565.859 1.41941 1.5122 0
M  V30 6040 C 566.284 0.0202371 1.88089 0
M  V30 6041 O 565.642 -0.971078 1.53101 0
M  V30 6042 C 565.69 2.3141 2.76554 0
M  V30 6043 O 564.794 1.75567 3.73162 0
M  V30 6044 H 564.135 0.482644 0.456016 0
M  V30 6045 H 566.665 1.84494 0.884478 0
M  V30 6046 H 566.675 2.46513 3.25108 0
M  V30 6047 H 565.35 3.33085 2.49053 0
M  V30 6048 H 563.927 1.69798 3.31999 0
M  V30 6049 N 566.112 -0.949982 1.2575 0
M  V30 6050 C 567.36 -1.6918 1.10555 0
M  V30 6051 C 567.681 -1.91773 -0.353298 0
M  V30 6052 O 566.951 -1.50814 -1.25027 0
M  V30 6053 H 565.531 -0.626952 0.406129 0
M  V30 6054 H 568.193 -1.1419 1.57945 0
M  V30 6055 H 567.289 -2.66915 1.61749 0
M  V30 6056 N 567.59 -1.07411 -1.15328 0
M  V30 6057 C 568.838 -0.796073 -1.85761 0
M  V30 6058 C 569.159 0.679864 -1.82764 0
M  V30 6059 O 568.429 1.49242 -1.269 0
M  V30 6060 H 567.009 -0.291495 -0.687779 0
M  V30 6061 H 569.671 -1.35799 -1.39802 0
M  V30 6062 H 568.767 -1.13114 -2.90881 0
M  V30 6063 N 569.068 1.32177 -0.85831 0
M  V30 6064 C 570.314 1.97417 -0.46417 0
M  V30 6065 C 570.647 1.67746 0.978514 0
M  V30 6066 O 569.922 0.967654 1.68721 0
M  V30 6067 C 570.205 3.53069 -0.708094 0
M  V30 6068 C 570.058 3.92357 -2.19946 0
M  V30 6069 C 571.377 4.39783 -0.166881 0
M  V30 6070 H 568.496 0.717097 -0.17012 0
M  V30 6071 H 571.138 1.56499 -1.07741 0
M  V30 6072 H 569.288 3.88054 -0.186128 0
M  V30 6073 H 570.96 3.67533 -2.78779 0
M  V30 6074 H 569.203 3.41384 -2.67656 0
M  V30 6075 H 569.874 5.00841 -2.32082 0
M  V30 6076 H 572.35 4.11556 -0.613285 0
M  V30 6077 H 571.226 5.47671 -0.367093 0
M  V30 6078 H 571.487 4.32196 0.930559 0
M  V30 6079 N 570.547 0.616602 1.45037 0
M  V30 6080 C 571.51 -0.0871112 2.29034 0
M  V30 6081 C 572.51 -0.786414 1.40258 0
M  V30 6082 O 573.7 -0.633207 1.62284 0
M  V30 6083 C 570.832 -1.13369 3.21497 0
M  V30 6084 H 572.025 0.651497 2.92738 0
M  V30 6085 H 569.578 0.376058 1.51709 0
M  V30 6086 H 570.313 -1.90277 2.62612 0
M  V30 6087 H 570.098 -0.636358 3.86902 0
M  V30 6088 H 571.588 -1.62627 3.84633 0
M  V30 6089 N 572.025 -1.5352 0.356285 0
M  V30 6090 C 572.988 -2.24071 -0.482182 0
M  V30 6091 C 573.988 -1.24531 -1.01729 0
M  V30 6092 O 575.178 -1.48876 -0.904513 0
M  V30 6093 C 572.31 -2.97025 -1.67299 0
M  V30 6094 H 573.503 -2.99596 0.135031 0
M  V30 6095 H 571.056 -1.55928 0.107825 0
M  V30 6096 H 571.791 -2.25719 -2.32855 0
M  V30 6097 H 571.576 -3.7005 -1.29636 0
M  V30 6098 H 573.066 -3.50683 -2.26741 0
M  V30 6099 N 573.503 -0.0852151 -1.57369 0
M  V30 6100 C 574.451 0.894856 -2.14698 0
M  V30 6101 C 575.445 1.29903 -1.08727 0
M  V30 6102 O 576.651 1.27471 -1.27088 0
M  V30 6103 H 573.026 0.306569 -0.686673 0
M  V30 6104 H 574.997 0.386542 -2.95886 0
M  V30 6105 C 573.746 2.14798 -2.73417 0
M  V30 6106 H 573.069 1.84585 -3.54638 0
M  V30 6107 H 574.509 2.81456 -3.1711 0
M  V30 6108 C 572.968 2.91546 -1.68828 0
M  V30 6109 O 573.498 3.85733 -1.12129 0
M  V30 6110 N 571.704 2.54901 -1.39549 0
M  V30 6111 H 571.251 1.7838 -1.85845 0
M  V30 6112 H 571.209 3.06553 -0.698054 0
M  V30 6113 N 574.981 1.5647 0.188427 0
M  V30 6114 C 576.258 1.71857 0.934058 0
M  V30 6115 C 576.638 0.641867 2.01105 0
M  V30 6116 O 575.986 -0.346098 2.25864 0
M  V30 6117 C 576.196 3.14431 1.5144 0
M  V30 6118 C 577.544 3.74869 1.99396 0
M  V30 6119 O 578.568 3.17601 1.61269 0
M  V30 6120 O 577.427 4.75387 2.69573 0
M  V30 6121 H 574.521 0.701186 0.438483 0
M  V30 6122 H 577.067 1.68768 0.177599 0
M  V30 6123 H 575.839 3.8427 0.738416 0
M  V30 6124 H 575.462 3.21775 2.33552 0
M  V30 6125 N 576.459 -0.456382 1.50847 0
M  V30 6126 C 577.705 -1.20914 1.62811 0
M  V30 6127 C 578.038 -1.91301 0.334304 0
M  V30 6128 O 577.313 -1.82775 -0.665098 0
M  V30 6129 C 577.596 -2.24122 2.81853 0
M  V30 6130 C 577.449 -1.57944 4.21158 0
M  V30 6131 C 578.768 -3.25295 2.96431 0
M  V30 6132 H 575.887 -0.438233 0.592554 0
M  V30 6133 H 578.529 -0.50091 1.83278 0
M  V30 6134 H 576.679 -2.84524 2.64534 0
M  V30 6135 H 578.351 -1.01025 4.50102 0
M  V30 6136 H 576.594 -0.882185 4.24735 0
M  V30 6137 H 577.265 -2.33014 5.00408 0
M  V30 6138 H 579.741 -2.7493 3.12335 0
M  V30 6139 H 578.617 -3.94822 3.81322 0
M  V30 6140 H 578.878 -3.90286 2.07676 0
M  V30 6141 N 577.937 -1.40673 -0.710563 0
M  V30 6142 C 579.186 -1.38525 -1.46607 0
M  V30 6143 C 579.499 0.0077024 -1.95598 0
M  V30 6144 O 580.705 0.151792 -2.71075 0
M  V30 6145 C 579.161 -2.43489 -2.6503 0
M  V30 6146 C 578.769 -3.88619 -2.22888 0
M  V30 6147 C 580.513 -2.50456 -3.42742 0
M  V30 6148 C 578.42 -4.85168 -3.3818 0
M  V30 6149 H 577.35 -0.515092 -0.550632 0
M  V30 6150 H 580.001 -1.66431 -0.772846 0
M  V30 6151 H 578.383 -2.0869 -3.36548 0
M  V30 6152 H 579.557 -4.32588 -1.58758 0
M  V30 6153 H 577.872 -3.85174 -1.58208 0
M  V30 6154 H 580.469 -3.19776 -4.28541 0
M  V30 6155 H 580.812 -1.53665 -3.86902 0
M  V30 6156 H 581.345 -2.84271 -2.78271 0
M  V30 6157 H 578.084 -5.8331 -2.99047 0
M  V30 6158 H 577.604 -4.4586 -4.01209 0
M  V30 6159 H 579.283 -5.05225 -4.04174 0
M  V30 6160 N 579.415 0.9433 -1.26252 0
M  V30 6161 C 580.661 1.69175 -1.11837 0
M  V30 6162 C 580.994 1.91238 0.337891 0
M  V30 6163 O 580.269 1.49152 1.24836 0
M  V30 6164 C 580.552 3.06783 -1.88563 0
M  V30 6165 C 580.405 2.9206 -3.42083 0
M  V30 6166 C 581.724 4.06865 -1.67776 0
M  V30 6167 H 578.843 0.61399 -0.407658 0
M  V30 6168 H 581.485 1.09572 -1.55222 0
M  V30 6169 H 579.635 3.57663 -1.51689 0
M  V30 6170 H 581.307 2.48419 -3.88698 0
M  V30 6171 H 579.55 2.27731 -3.69217 0
M  V30 6172 H 580.221 3.89651 -3.90994 0
M  V30 6173 H 582.697 3.64939 -1.99897 0
M  V30 6174 H 581.573 5.01168 -2.23879 0
M  V30 6175 H 581.834 4.37705 -0.621816 0
M  V30 6176 N 580.893 1.08022 1.14757 0
M  V30 6177 C 581.843 0.676345 2.17737 0
M  V30 6178 C 582.827 -0.302018 1.5804 0
M  V30 6179 O 584.019 -0.11466 1.76628 0
M  V30 6180 C 581.148 0.082984 3.432 0
M  V30 6181 C 580.234 1.0869 4.09936 0
M  V30 6182 N 580.625 2.26891 4.52055 0
M  V30 6183 C 578.923 0.921768 4.36371 0
M  V30 6184 C 579.624 2.90636 5.0389 0
M  V30 6185 N 578.6 2.18266 4.97856 0
M  V30 6186 H 582.402 1.5765 2.4804 0
M  V30 6187 H 579.916 0.954374 1.31398 0
M  V30 6188 H 581.913 -0.224289 4.16296 0
M  V30 6189 H 580.573 -0.812206 3.14378 0
M  V30 6190 H 581.584 2.6457 4.45223 0
M  V30 6191 H 578.261 0.0800499 4.17423 0
M  V30 6192 H 579.651 3.9104 5.46386 0
M  V30 6193 N 582.371 -1.3172 0.865308 0
M  V30 6194 C 583.62 -1.96145 0.470098 0
M  V30 6195 C 583.933 -1.69182 -0.981674 0
M  V30 6196 O 585.139 -2.27431 -1.48281 0
M  V30 6197 C 583.595 -3.51129 0.789732 0
M  V30 6198 C 583.203 -3.86938 2.25795 0
M  V30 6199 C 584.947 -4.2197 0.462765 0
M  V30 6200 C 582.854 -5.35012 2.52024 0
M  V30 6201 H 581.784 -0.734105 0.172065 0
M  V30 6202 H 584.435 -1.49959 1.05757 0
M  V30 6203 H 582.817 -3.95781 0.131571 0
M  V30 6204 H 583.991 -3.5326 2.95879 0
M  V30 6205 H 582.306 -3.29149 2.55049 0
M  V30 6206 H 584.903 -5.30904 0.636019 0
M  V30 6207 H 585.246 -4.12005 -0.59645 0
M  V30 6208 H 585.779 -3.82936 1.07727 0
M  V30 6209 H 582.518 -5.50008 3.56611 0
M  V30 6210 H 582.038 -5.70058 1.8653 0
M  V30 6211 H 583.717 -6.0222 2.36515 0
M  V30 6212 N 583.85 -0.624285 -1.44708 0
M  V30 6213 C 585.077 -0.132919 -2.06473 0
M  V30 6214 C 585.493 1.18967 -1.46602 0
M  V30 6215 O 584.85 1.72824 -0.586341 0
M  V30 6216 C 584.901 -0.00465418 -3.615 0
M  V30 6217 O 584.622 -1.27494 -4.19138 0
M  V30 6218 C 586.123 0.516213 -4.40284 0
M  V30 6219 H 583.343 -0.0765201 -0.666623 0
M  V30 6220 H 585.887 -0.856751 -1.85688 0
M  V30 6221 H 584.042 0.669583 -3.8157 0
M  V30 6222 H 584.456 -1.11536 -5.12504 0
M  V30 6223 H 585.93 0.554994 -5.49203 0
M  V30 6224 H 586.407 1.5419 -4.11245 0
M  V30 6225 H 587.013 -0.124542 -4.25118 0
M  V30 6226 N 585.328 1.53329 -0.364422 0
M  V30 6227 C 586.258 2.28627 0.474543 0
M  V30 6228 C 587.239 1.31009 1.08492 0
M  V30 6229 O 588.424 1.59878 1.10239 0
M  V30 6230 C 585.554 3.07465 1.61501 0
M  V30 6231 C 584.508 4.1276 1.13194 0
M  V30 6232 C 583.834 4.79674 2.36255 0
M  V30 6233 C 585.134 5.21847 0.217507 0
M  V30 6234 H 586.828 2.99005 -0.153656 0
M  V30 6235 H 584.374 1.43803 -0.0753406 0
M  V30 6236 H 586.327 3.58889 2.20855 0
M  V30 6237 H 585.051 2.34775 2.27042 0
M  V30 6238 H 583.71 3.62281 0.56109 0
M  V30 6239 H 583.358 4.03557 3.00251 0
M  V30 6240 H 583.058 5.50827 2.04606 0
M  V30 6241 H 584.582 5.33892 2.96297 0
M  V30 6242 H 585.996 5.6878 0.718493 0
M  V30 6243 H 584.393 6.00099 -0.00806408 0
M  V30 6244 H 585.463 4.7921 -0.740653 0
M  V30 6245 N 586.806 0.0935595 1.57322 0
M  V30 6246 C 587.756 -0.876521 2.10478 0
M  V30 6247 C 588.74 -1.24482 1.01946 0
M  V30 6248 O 589.932 -1.22016 1.28223 0
M  V30 6249 C 587.061 -2.13615 2.68745 0
M  V30 6250 C 586.147 -1.79335 3.84317 0
M  V30 6251 N 586.538 -1.15606 4.92411 0
M  V30 6252 C 584.836 -2.08954 3.94023 0
M  V30 6253 C 585.537 -0.999036 5.73057 0
M  V30 6254 N 584.513 -1.51585 5.22037 0
M  V30 6255 H 588.315 -0.379829 2.91435 0
M  V30 6256 H 585.829 -0.109699 1.62029 0
M  V30 6257 H 587.826 -2.84053 3.05155 0
M  V30 6258 H 586.486 -2.63851 1.89242 0
M  V30 6259 H 587.497 -0.823063 5.11318 0
M  V30 6260 H 584.174 -2.61416 3.25527 0
M  V30 6261 H 585.564 -0.500772 6.70031 0
M  V30 6262 N 588.284 -1.56567 -0.180126 0
M  V30 6263 C 589.509 -1.85975 -0.918041 0
M  V30 6264 C 589.934 -0.678888 -1.75422 0
M  V30 6265 O 589.292 0.372168 -1.77439 0
M  V30 6266 C 589.34 -3.13731 -1.77779 0
M  V30 6267 O 588.444 -2.95335 -2.87838 0
M  V30 6268 H 587.785 -0.61196 -0.257683 0
M  V30 6269 H 590.315 -2.03798 -0.180923 0
M  V30 6270 H 590.325 -3.4491 -2.17948 0
M  V30 6271 H 589 -3.99293 -1.16352 0
M  V30 6272 H 587.577 -2.7549 -2.51316 0
M  V30 6273 N 589.762 0.448376 -1.51087 0
M  V30 6274 C 590.692 1.55102 -1.74544 0
M  V30 6275 C 591.673 1.59357 -0.594932 0
M  V30 6276 O 592.858 1.75261 -0.836491 0
M  V30 6277 C 589.988 2.93268 -1.86041 0
M  V30 6278 C 588.942 3.03877 -3.01402 0
M  V30 6279 C 588.268 4.43914 -2.98068 0
M  V30 6280 C 589.568 2.7898 -4.41551 0
M  V30 6281 H 591.262 1.35724 -2.66869 0
M  V30 6282 H 588.808 0.651498 -1.28419 0
M  V30 6283 H 590.761 3.70356 -2.01034 0
M  V30 6284 H 589.485 3.13853 -0.903548 0
M  V30 6285 H 588.144 2.29227 -2.86096 0
M  V30 6286 H 587.792 4.6145 -2.00182 0
M  V30 6287 H 587.492 4.51944 -3.75527 0
M  V30 6288 H 589.016 5.22991 -3.1514 0
M  V30 6289 H 590.43 3.45805 -4.57265 0
M  V30 6290 H 588.827 2.98431 -5.20633 0
M  V30 6291 H 589.897 1.74663 -4.5235 0
M  V30 6292 N 591.24 1.41047 0.703093 0
M  V30 6293 C 592.651 1.35657 1.28274 0
M  V30 6294 C 593.002 0.0360309 1.96167 0
M  V30 6295 O 592.127 -0.865833 1.98324 0
M  V30 6296 C 592.722 2.45707 2.33267 0
M  V30 6297 C 591.281 2.43738 2.86825 0
M  V30 6298 C 590.428 2.25941 1.60767 0
M  V30 6299 H 593.379 1.50672 0.49836 0
M  V30 6300 H 593.4 2.14333 3.14391 0
M  V30 6301 H 592.912 3.41805 1.83824 0
M  V30 6302 H 591.013 1.51375 3.40465 0
M  V30 6303 H 591.126 3.39779 3.37768 0
M  V30 6304 H 589.49 1.73681 1.86298 0
M  V30 6305 H 590.273 3.24054 1.1333 0
M  V30 6306 N 592.718 -0.936591 1.26751 0
M  V30 6307 C 593.965 -1.68331 1.12566 0
M  V30 6308 C 594.293 -1.91677 -0.330168 0
M  V30 6309 O 593.548 -1.49859 -1.2586 0
M  V30 6310 C 593.847 -3.06099 1.84494 0
M  V30 6311 C 593.513 -3.02493 3.34378 0
M  V30 6312 C 592.175 -3.01217 3.75262 0
M  V30 6313 C 594.527 -2.94453 4.30055 0
M  V30 6314 C 591.855 -2.89672 5.10203 0
M  V30 6315 C 594.207 -2.84449 5.65041 0
M  V30 6316 C 592.871 -2.81518 6.0523 0
M  V30 6317 H 592.141 -0.615965 0.411907 0
M  V30 6318 H 594.788 -1.09292 1.5725 0
M  V30 6319 H 593.093 -3.6879 1.32292 0
M  V30 6320 H 594.79 -3.62733 1.70955 0
M  V30 6321 H 591.38 -3.04269 3.01858 0
M  V30 6322 H 595.564 -2.94544 3.99447 0
M  V30 6323 H 590.82 -2.85783 5.40498 0
M  V30 6324 H 594.994 -2.77192 6.38856 0
M  V30 6325 H 592.621 -2.72329 7.09747 0
M  V30 6326 N 594.196 -1.08629 -1.14182 0
M  V30 6327 C 595.444 -0.815731 -1.84906 0
M  V30 6328 C 595.765 0.660441 -1.83475 0
M  V30 6329 O 595.035 1.47888 -1.28476 0
M  V30 6330 H 593.615 -0.298773 -0.684648 0
M  V30 6331 H 596.277 -1.37274 -1.38354 0
M  V30 6332 H 595.373 -1.16193 -2.89665 0
M  V30 6333 N 595.674 1.31259 -0.872281 0
M  V30 6334 C 596.922 1.96233 -0.483409 0
M  V30 6335 C 597.243 1.69276 0.968012 0
M  V30 6336 O 596.513 1.00943 1.67891 0
M  V30 6337 H 595.093 0.726025 -0.175774 0
M  V30 6338 H 597.755 1.60024 -1.11258 0
M  V30 6339 H 596.851 3.05403 -0.643075 0
M  V30 6340 N 597.152 0.631951 1.44375 0
M  V30 6341 C 598.398 0.13697 2.02337 0
M  V30 6342 C 598.731 -1.23826 1.49602 0
M  V30 6343 O 598.006 -1.8221 0.680415 0
M  V30 6344 C 598.289 0.124536 3.59885 0
M  V30 6345 C 598.142 1.53217 4.229 0
M  V30 6346 C 599.461 -0.550481 4.36644 0
M  V30 6347 H 596.58 0.051247 0.735216 0
M  V30 6348 H 599.222 0.808581 1.71936 0
M  V30 6349 H 597.372 -0.44737 3.85916 0
M  V30 6350 H 599.044 2.15303 4.07973 0
M  V30 6351 H 597.287 2.0858 3.80364 0
M  V30 6352 H 597.958 1.4755 5.31914 0
M  V30 6353 H 600.434 -0.0641154 4.16051 0
M  V30 6354 H 599.31 -0.528371 5.46351 0
M  V30 6355 H 599.571 -1.62097 4.11311 0
M  V30 6356 N 598.631 -1.53133 0.372548 0
M  V30 6357 C 599.879 -2.00958 -0.214534 0
M  V30 6358 C 600.2 -1.26135 -1.48711 0
M  V30 6359 O 599.47 -0.376597 -1.92246 0
M  V30 6360 H 598.05 -0.742456 -0.0822664 0
M  V30 6361 H 600.712 -1.88367 0.500385 0
M  V30 6362 H 599.808 -3.09031 -0.436605 0
M  V30 6363 N 600.109 -0.101901 -1.5727 0
M  V30 6364 C 601.057 0.872034 -2.15635 0
M  V30 6365 C 602.051 1.28742 -1.10099 0
M  V30 6366 O 603.257 1.26116 -1.28432 0
M  V30 6367 H 599.632 0.299269 -0.689886 0
M  V30 6368 H 601.603 0.355137 -2.96279 0
M  V30 6369 C 600.352 2.11886 -2.7568 0
M  V30 6370 H 599.675 1.80813 -3.56576 0
M  V30 6371 H 601.115 2.78077 -3.20077 0
M  V30 6372 C 599.574 2.89739 -1.7191 0
M  V30 6373 O 600.104 3.84522 -1.16213 0
M  V30 6374 N 598.31 2.53407 -1.42245 0
M  V30 6375 H 597.857 1.76398 -1.87727 0
M  V30 6376 H 597.815 3.05795 -0.730529 0
M  V30 6377 N 601.587 1.56661 0.17182 0
M  V30 6378 C 602.812 1.86459 0.908165 0
M  V30 6379 C 603.237 0.688181 1.75059 0
M  V30 6380 O 602.595 -0.362753 1.77634 0
M  V30 6381 C 602.643 3.14669 1.76112 0
M  V30 6382 O 601.747 2.96858 2.86268 0
M  V30 6383 H 601.088 0.613318 0.254434 0
M  V30 6384 H 603.618 2.03892 0.170113 0
M  V30 6385 H 603.628 3.46061 2.16115 0
M  V30 6386 H 602.303 3.99905 1.14233 0
M  V30 6387 H 600.88 2.76819 2.49852 0
M  V30 6388 N 603.065 -0.440357 1.51323 0
M  V30 6389 C 604.313 -1.18769 1.63518 0
M  V30 6390 C 604.634 -1.91793 0.352201 0
M  V30 6391 O 603.904 -1.85432 -0.631811 0
M  V30 6392 H 602.484 -0.441408 0.602634 0
M  V30 6393 H 605.146 -0.505162 1.8824 0
M  V30 6394 H 604.242 -1.91892 2.46138 0
M  V30 6395 N 604.543 -1.41418 -0.695603 0
M  V30 6396 C 605.476 -1.3768 -1.81988 0
M  V30 6397 C 606.454 -0.244061 -1.60758 0
M  V30 6398 O 607.638 -0.430965 -1.83507 0
M  V30 6399 C 604.765 -1.1476 -3.18666 0
M  V30 6400 C 603.811 -2.30752 -3.58686 0
M  V30 6401 S 604.644 -3.9323 -3.63498 0
M  V30 6402 C 605.8 -3.72613 -5.02902 0
M  V30 6403 H 606.033 -2.32822 -1.84882 0
M  V30 6404 H 603.566 -1.27942 -0.86431 0
M  V30 6405 H 605.524 -1.02223 -3.97569 0
M  V30 6406 H 604.185 -0.212385 -3.13381 0
M  V30 6407 H 603.378 -2.10409 -4.57978 0
M  V30 6408 H 602.98 -2.39696 -2.87092 0
M  V30 6409 H 605.272 -3.32317 -5.904 0
M  V30 6410 H 606.215 -4.71507 -5.28286 0
M  V30 6411 H 606.623 -3.0589 -4.74438 0
M  V30 6412 N 606.021 0.929856 -1.27246 0
M  V30 6413 C 607.269 1.674 -1.13233 0
M  V30 6414 C 607.59 1.92311 0.322744 0
M  V30 6415 O 606.86 1.52784 1.22612 0
M  V30 6416 H 605.44 0.620411 -0.416052 0
M  V30 6417 H 608.102 1.11663 -1.59741 0
M  V30 6418 H 607.198 2.64308 -1.65975 0
M  V30 6419 N 607.499 1.09233 1.13605 0
M  V30 6420 C 608.724 0.849067 1.89224 0
M  V30 6421 C 609.149 -0.593875 1.78479 0
M  V30 6422 O 608.507 -1.41703 1.13092 0
M  V30 6423 C 608.555 1.28642 3.36873 0
M  V30 6424 O 607.659 0.44363 4.10007 0
M  V30 6425 H 607 0.30767 0.588417 0
M  V30 6426 H 609.53 1.45595 1.43748 0
M  V30 6427 H 609.54 1.27096 3.87699 0
M  V30 6428 H 608.215 2.33729 3.44011 0
M  V30 6429 H 606.792 0.523241 3.69211 0
M  V30 6430 N 608.977 -1.30795 0.87923 0
M  V30 6431 C 610.207 -2.00237 0.50881 0
M  V30 6432 C 610.615 -1.66115 -0.905682 0
M  V30 6433 O 609.958 -0.89138 -1.60624 0
M  V30 6434 C 610.02 -3.54508 0.597003 0
M  V30 6435 C 609.684 -4.12131 1.97477 0
M  V30 6436 C 610.681 -4.28552 2.94346 0
M  V30 6437 C 608.366 -4.47644 2.2786 0
M  V30 6438 C 610.36 -4.79689 4.19735 0
M  V30 6439 C 608.047 -4.98481 3.53496 0
M  V30 6440 C 609.045 -5.14456 4.49248 0
M  V30 6441 O 608.733 -5.64199 5.72656 0
M  V30 6442 H 608.465 -0.647026 0.195788 0
M  V30 6443 H 611.019 -1.67785 1.1848 0
M  V30 6444 H 609.249 -3.86461 -0.135945 0
M  V30 6445 H 610.938 -4.05198 0.238684 0
M  V30 6446 H 611.704 -4.01424 2.72183 0
M  V30 6447 H 607.583 -4.34481 1.54102 0
M  V30 6448 H 611.127 -4.92073 4.9448 0
M  V30 6449 H 607.024 -5.25044 3.75498 0
M  V30 6450 H 607.792 -5.82551 5.74957 0
M  V30 6451 N 610.455 -0.639598 -1.44038 0
M  V30 6452 C 611.405 0.0823038 -2.27851 0
M  V30 6453 C 612.389 0.807991 -1.39141 0
M  V30 6454 O 613.581 0.692702 -1.62882 0
M  V30 6455 C 610.71 1.05742 -3.26609 0
M  V30 6456 C 609.796 0.330911 -4.22807 0
M  V30 6457 N 610.187 -0.645126 -5.01669 0
M  V30 6458 C 608.485 0.574214 -4.42288 0
M  V30 6459 C 609.186 -1.07513 -5.71678 0
M  V30 6460 N 608.162 -0.412164 -5.42035 0
M  V30 6461 H 611.964 -0.666861 -2.86234 0
M  V30 6462 H 609.478 -0.465777 -1.55577 0
M  V30 6463 H 611.475 1.58927 -3.85419 0
M  V30 6464 H 610.135 1.80679 -2.69787 0
M  V30 6465 H 611.146 -1.02329 -5.0769 0
M  V30 6466 H 607.823 1.30581 -3.96554 0
M  V30 6467 H 609.213 -1.88196 -6.45005 0
M  V30 6468 N 611.933 1.52934 -0.380664 0
M  V30 6469 C 613.181 2.01069 0.203874 0
M  V30 6470 C 613.502 1.26922 1.4804 0
M  V30 6471 O 612.772 0.386787 1.92044 0
M  V30 6472 H 611.352 0.742882 0.0783279 0
M  V30 6473 H 614.014 1.88099 -0.510368 0
M  V30 6474 H 613.11 3.09258 0.42021 0
M  V30 6475 N 613.412 0.11024 1.57214 0
M  V30 6476 C 614.359 -0.843195 2.14846 0
M  V30 6477 C 615.329 -1.26954 1.07107 0
M  V30 6478 O 616.514 -1.34861 1.34971 0
M  V30 6479 C 613.654 -2.09123 2.74521 0
M  V30 6480 C 612.767 -1.71404 3.96541 0
M  V30 6481 C 611.902 -2.91107 4.44331 0
M  V30 6482 C 610.941 -2.49586 5.58903 0
M  V30 6483 N 610.078 -3.62175 6.01477 0
M  V30 6484 H 614.918 -0.344886 2.95998 0
M  V30 6485 H 612.455 -0.15855 1.46243 0
M  V30 6486 H 614.413 -2.82234 3.07246 0
M  V30 6487 H 613.043 -2.56427 1.96074 0
M  V30 6488 H 612.095 -0.88201 3.70033 0
M  V30 6489 H 613.407 -1.36884 4.7965 0
M  V30 6490 H 612.561 -3.72454 4.78919 0
M  V30 6491 H 611.3 -3.28848 3.60153 0
M  V30 6492 H 610.305 -1.6667 5.23929 0
M  V30 6493 H 611.53 -2.12973 6.4484 0
M  V30 6494 H 609.476 -3.99605 5.20242 0
M  V30 6495 H 609.393 -3.3155 6.79419 0
M  V30 6496 H 610.661 -4.43987 6.407 0
M  V30 6497 N 614.89 -1.56749 -0.16351 0
M  V30 6498 C 615.837 -1.97011 -1.2023 0
M  V30 6499 C 616.807 -0.835186 -1.43575 0
M  V30 6500 O 617.992 -1.09594 -1.56185 0
M  V30 6501 C 615.132 -2.34186 -2.53478 0
M  V30 6502 C 614.245 -3.60893 -2.37446 0
M  V30 6503 C 613.38 -3.87245 -3.63614 0
M  V30 6504 C 612.419 -5.07274 -3.42548 0
M  V30 6505 N 611.556 -5.29719 -4.60806 0
M  V30 6506 H 616.396 -2.85562 -0.851958 0
M  V30 6507 H 613.933 -1.41292 -0.409257 0
M  V30 6508 H 615.891 -2.53764 -3.31149 0
M  V30 6509 H 614.521 -1.48736 -2.86492 0
M  V30 6510 H 613.573 -3.49185 -1.50911 0
M  V30 6511 H 614.885 -4.48722 -2.1783 0
M  V30 6512 H 614.039 -4.07232 -4.49719 0
M  V30 6513 H 612.778 -2.97806 -3.86216 0
M  V30 6514 H 611.783 -4.87177 -2.5483 0
M  V30 6515 H 613.008 -5.98251 -3.2136 0
M  V30 6516 H 610.954 -4.43233 -4.83612 0
M  V30 6517 H 610.871 -6.11786 -4.44132 0
M  V30 6518 H 612.139 -5.54192 -5.48171 0
M  V30 6519 N 616.368 0.432326 -1.51554 0
M  V30 6520 C 617.593 1.20824 -1.68571 0
M  V30 6521 C 618.018 1.84126 -0.384596 0
M  V30 6522 O 617.376 1.69025 0.655751 0
M  V30 6523 C 617.424 2.26429 -2.80646 0
M  V30 6524 O 616.528 3.32032 -2.44598 0
M  V30 6525 H 615.869 0.353765 -0.561913 0
M  V30 6526 H 618.399 0.509916 -1.98144 0
M  V30 6527 H 618.409 2.71133 -3.04878 0
M  V30 6528 H 617.084 1.79733 -3.75058 0
M  V30 6529 H 615.661 2.92769 -2.30956 0
M  V30 6530 N 617.846 1.41785 0.688094 0
M  V30 6531 C 619.093 1.41544 1.44816 0
M  V30 6532 C 619.421 0.0271746 1.94481 0
M  V30 6533 O 618.676 -0.962235 1.7041 0
M  V30 6534 C 618.975 2.37532 2.67046 0
M  V30 6535 C 618.641 3.84209 2.35996 0
M  V30 6536 C 617.303 4.24165 2.27239 0
M  V30 6537 C 619.655 4.76785 2.10536 0
M  V30 6538 C 616.983 5.54695 1.91128 0
M  V30 6539 C 619.335 6.07644 1.75931 0
M  V30 6540 C 617.999 6.46613 1.65675 0
M  V30 6541 H 617.269 0.517945 0.529919 0
M  V30 6542 H 619.916 1.74635 0.785797 0
M  V30 6543 H 618.221 1.9772 3.38251 0
M  V30 6544 H 619.918 2.34615 3.25203 0
M  V30 6545 H 616.508 3.52567 2.4371 0
M  V30 6546 H 620.692 4.46714 2.16242 0
M  V30 6547 H 615.948 5.83762 1.81746 0
M  V30 6548 H 620.122 6.78874 1.55252 0
M  V30 6549 H 617.749 7.47668 1.37463 0
M  V30 6550 N 619.324 -0.923095 1.27737 0
M  V30 6551 C 620.234 -2.05765 1.12685 0
M  V30 6552 C 621.25 -1.73911 0.0557197 0
M  V30 6553 O 622.426 -1.99674 0.263137 0
M  V30 6554 C 619.491 -3.37804 0.780363 0
M  V30 6555 C 618.552 -3.83326 1.93286 0
M  V30 6556 C 617.785 -5.09064 1.60281 0
M  V30 6557 O 618.008 -5.6809 0.512828 0
M  V30 6558 O 616.942 -5.50071 2.44347 0
M  V30 6559 H 620.768 -2.21378 2.07907 0
M  V30 6560 H 618.353 -1.04299 1.06968 0
M  V30 6561 H 620.235 -4.17097 0.600668 0
M  V30 6562 H 618.91 -3.23387 -0.142291 0
M  V30 6563 H 617.817 -3.049 2.16764 0
M  V30 6564 H 619.15 -4.02292 2.83588 0
M  V30 6565 N 620.802 -1.09834 -1.13024 0
M  V30 6566 C 622.03 -0.858902 -1.8823 0
M  V30 6567 C 622.445 0.590164 -1.79339 0
M  V30 6568 O 621.802 1.4065 -1.16292 0
M  V30 6569 C 621.853 -1.29066 -3.37675 0
M  V30 6570 O 621.574 -2.6829 -3.46341 0
M  V30 6571 C 623.075 -1.08421 -4.29837 0
M  V30 6572 H 620.295 -0.308713 -0.595766 0
M  V30 6573 H 622.839 -1.4614 -1.4305 0
M  V30 6574 H 620.994 -0.731961 -3.80422 0
M  V30 6575 H 621.408 -2.86598 -4.39274 0
M  V30 6576 H 622.882 -1.43553 -5.33007 0
M  V30 6577 H 623.359 -0.0223315 -4.39194 0
M  V30 6578 H 623.965 -1.62907 -3.92863 0
M  V30 6579 N 622.28 1.30327 -0.886154 0
M  V30 6580 C 623.527 1.96097 -0.505192 0
M  V30 6581 C 623.855 1.69952 0.945868 0
M  V30 6582 O 623.11 0.997653 1.68361 0
M  V30 6583 C 623.409 3.49906 -0.728042 0
M  V30 6584 C 623.075 3.96103 -2.15437 0
M  V30 6585 C 621.737 4.08428 -2.5444 0
M  V30 6586 C 624.089 4.20177 -3.08384 0
M  V30 6587 C 621.417 4.42189 -3.85598 0
M  V30 6588 C 623.769 4.55407 -4.39075 0
M  V30 6589 C 622.433 4.65941 -4.7797 0
M  V30 6590 H 621.703 0.71757 -0.184863 0
M  V30 6591 H 624.35 1.55171 -1.12223 0
M  V30 6592 H 622.655 3.9179 -0.027978 0
M  V30 6593 H 624.352 3.98869 -0.412862 0
M  V30 6594 H 620.942 3.87017 -1.84162 0
M  V30 6595 H 625.126 4.10134 -2.7947 0
M  V30 6596 H 620.382 4.48544 -4.15473 0
M  V30 6597 H 624.556 4.72986 -5.11133 0
M  V30 6598 H 622.183 4.91856 -5.79639 0
M  V30 6599 N 623.758 0.647228 1.43697 0
M  V30 6600 C 624.983 0.164083 2.0675 0
M  V30 6601 C 625.408 -1.15892 1.48158 0
M  V30 6602 O 624.766 -1.71459 0.589194 0
M  V30 6603 C 624.814 0.0800368 3.60511 0
M  V30 6604 O 623.918 -0.959453 4.01084 0
M  V30 6605 H 623.259 0.0921288 0.657578 0
M  V30 6606 H 625.789 0.88846 1.84303 0
M  V30 6607 H 625.799 -0.105263 4.07864 0
M  V30 6608 H 624.474 1.04586 4.02535 0
M  V30 6609 H 623.051 -0.747425 3.65333 0
M  V30 6610 N 625.236 -1.5273 0.388769 0
M  V30 6611 C 626.186 -2.23238 -0.463567 0
M  V30 6612 C 627.17 -1.23606 -1.03007 0
M  V30 6613 O 628.362 -1.48945 -0.956261 0
M  V30 6614 C 625.491 -3.04228 -1.5906 0
M  V30 6615 C 624.577 -4.11255 -1.03587 0
M  V30 6616 N 624.968 -5.0538 -0.206038 0
M  V30 6617 C 623.266 -4.26376 -1.30841 0
M  V30 6618 C 623.967 -5.81613 0.100359 0
M  V30 6619 N 622.943 -5.41264 -0.503447 0
M  V30 6620 H 626.745 -2.93367 0.176978 0
M  V30 6621 H 624.259 -1.61188 0.198046 0
M  V30 6622 H 626.256 -3.53277 -2.21362 0
M  V30 6623 H 624.916 -2.35634 -2.23398 0
M  V30 6624 H 625.927 -5.17663 0.156659 0
M  V30 6625 H 622.604 -3.69011 -1.95287 0
M  V30 6626 H 623.994 -6.67442 0.772676 0
M  V30 6627 N 626.714 -0.118576 -1.57153 0
M  V30 6628 C 628.13 0.238014 -1.57815 0
M  V30 6629 C 628.33 1.66747 -1.13127 0
M  V30 6630 O 627.386 2.38867 -0.818462 0
M  V30 6631 C 628.699 0.00508207 -3.007 0
M  V30 6632 C 630.247 0.0710139 -3.12919 0
M  V30 6633 C 630.722 -0.13422 -4.57803 0
M  V30 6634 N 632.213 -0.0801755 -4.63131 0
M  V30 6635 C 632.948 -0.213885 -5.73001 0
M  V30 6636 N 632.444 -0.403742 -6.91623 0
M  V30 6637 N 634.237 -0.15349 -5.6189 0
M  V30 6638 H 626.388 -1.05226 -1.84503 0
M  V30 6639 H 628.651 -0.414318 -0.852669 0
M  V30 6640 H 628.357 -0.983125 -3.3768 0
M  V30 6641 H 628.231 0.73714 -3.69927 0
M  V30 6642 H 630.618 1.04975 -2.75798 0
M  V30 6643 H 630.699 -0.692918 -2.46236 0
M  V30 6644 H 630.343 -1.10992 -4.95624 0
M  V30 6645 H 630.273 0.649692 -5.22577 0
M  V30 6646 H 632.764 0.0630689 -3.77847 0
M  V30 6647 H 633.077 -0.496645 -7.71202 0
M  V30 6648 H 631.422 -0.43971 -6.93608 0
M  V30 6649 H 634.613 -0.00613174 -4.681 0
M  V30 6650 H 634.786 -0.261138 -6.47474 0
M  V30 6651 N 628.193 1.56834 0.155195 0
M  V30 6652 C 629.609 1.51315 0.50755 0
M  V30 6653 C 629.809 0.825614 1.83809 0
M  V30 6654 O 628.865 0.39271 2.49427 0
M  V30 6655 C 630.178 2.96074 0.52542 0
M  V30 6656 C 631.726 3.06968 0.611505 0
M  V30 6657 C 632.201 4.53218 0.660115 0
M  V30 6658 N 633.692 4.5753 0.722564 0
M  V30 6659 C 634.427 5.68056 0.781023 0
M  V30 6660 N 633.923 6.88173 0.799327 0
M  V30 6661 N 635.716 5.56068 0.821278 0
M  V30 6662 H 627.867 1.9993 -0.717063 0
M  V30 6663 H 630.13 0.911507 -0.260496 0
M  V30 6664 H 629.836 3.49599 -0.383875 0
M  V30 6665 H 629.71 3.51587 1.36624 0
M  V30 6666 H 632.097 2.53468 1.51122 0
M  V30 6667 H 632.178 2.54513 -0.256306 0
M  V30 6668 H 631.822 5.07354 -0.23541 0
M  V30 6669 H 631.752 5.03447 1.5443 0
M  V30 6670 H 634.243 3.71054 0.716049 0
M  V30 6671 H 634.556 7.6816 0.845553 0
M  V30 6672 H 632.901 6.90751 0.767337 0
M  V30 6673 H 636.092 4.61142 0.804091 0
M  V30 6674 H 636.265 6.42223 0.863372 0
M  V30 6675 N 629.671 -0.424282 1.51781 0
M  V30 6676 C 630.896 -1.19928 1.6921 0
M  V30 6677 C 631.321 -1.8392 0.394355 0
M  V30 6678 O 630.679 -1.69371 -0.646778 0
M  V30 6679 C 630.727 -2.24937 2.81843 0
M  V30 6680 O 629.831 -3.3073 2.46356 0
M  V30 6681 H 629.172 -0.35078 0.563781 0
M  V30 6682 H 631.702 -0.499401 1.98412 0
M  V30 6683 H 631.712 -2.69512 3.06312 0
M  V30 6684 H 630.387 -1.77742 3.76006 0
M  V30 6685 H 628.964 -2.9154 2.32505 0
M  V30 6686 N 631.149 -1.42148 -0.680565 0
M  V30 6687 C 632.389 -1.4379 -1.45271 0
M  V30 6688 C 632.753 -0.0504426 -1.91934 0
M  V30 6689 O 633.954 0.0583916 -2.68737 0
M  V30 6690 C 632.225 -2.42904 -2.62168 0
M  V30 6691 S 633.784 -2.63201 -3.51099 0
M  V30 6692 H 630.602 -0.509185 -0.496237 0
M  V30 6693 H 633.204 -1.78706 -0.792744 0
M  V30 6694 H 631.908 -3.4249 -2.26116 0
M  V30 6695 H 631.439 -2.09394 -3.33043 0
M  V30 6696 H 633.454 -1.91068 -4.57938 0
M  V30 6697 N 632.627 0.916307 -1.28225 0
M  V30 6698 C 633.557 2.0352 -1.14464 0
M  V30 6699 C 634.538 1.70045 -0.0430844 0
M  V30 6700 O 635.723 1.92954 -0.219619 0
M  V30 6701 C 632.853 3.37889 -0.803027 0
M  V30 6702 C 631.807 3.85516 -1.85908 0
M  V30 6703 C 631.133 5.1682 -1.37116 0
M  V30 6704 C 632.433 4.07655 -3.26519 0
M  V30 6705 H 634.127 2.1529 -2.08064 0
M  V30 6706 H 631.673 1.03446 -1.00174 0
M  V30 6707 H 633.626 4.15654 -0.693537 0
M  V30 6708 H 632.35 3.26164 0.168674 0
M  V30 6709 H 631.009 3.09953 -1.95767 0
M  V30 6710 H 630.657 5.01497 -0.38859 0
M  V30 6711 H 630.357 5.49657 -2.07728 0
M  V30 6712 H 631.881 5.97143 -1.27484 0
M  V30 6713 H 633.295 4.75953 -3.19596 0
M  V30 6714 H 631.692 4.51818 -3.94943 0
M  V30 6715 H 632.762 3.12553 -3.70727 0
M  V30 6716 N 634.105 1.10431 1.1244 0
M  V30 6717 C 635.351 0.847972 1.84221 0
M  V30 6718 C 635.684 -0.624903 1.83871 0
M  V30 6719 O 634.959 -1.46074 1.28423 0
M  V30 6720 C 635.242 1.39695 3.319 0
M  V30 6721 C 635.095 2.93668 3.40704 0
M  V30 6722 C 636.414 1.03924 4.27654 0
M  V30 6723 H 633.533 0.309502 0.668863 0
M  V30 6724 H 636.175 1.36745 1.31912 0
M  V30 6725 H 634.325 0.955095 3.76577 0
M  V30 6726 H 635.997 3.46379 3.04662 0
M  V30 6727 H 634.24 3.30272 2.81252 0
M  V30 6728 H 634.911 3.27162 4.446 0
M  V30 6729 H 637.387 1.42049 3.91102 0
M  V30 6730 H 636.263 1.45027 5.29394 0
M  V30 6731 H 636.524 -0.051336 4.4207 0
M  V30 6732 N 635.583 -1.29855 0.893053 0
M  V30 6733 C 636.999 -1.48366 0.588199 0
M  V30 6734 C 637.199 -1.81654 -0.872018 0
M  V30 6735 O 636.255 -1.909 -1.65268 0
M  V30 6736 C 637.568 -2.60136 1.5083 0
M  V30 6737 C 639.116 -2.74014 1.51279 0
M  V30 6738 C 639.591 -3.88905 2.41902 0
M  V30 6739 N 641.082 -3.96228 2.39911 0
M  V30 6740 C 641.817 -4.84458 3.06738 0
M  V30 6741 N 641.313 -5.77426 3.8282 0
M  V30 6742 N 643.106 -4.77894 2.95929 0
M  V30 6743 H 635.257 -1.06522 1.83757 0
M  V30 6744 H 637.52 -0.528495 0.787018 0
M  V30 6745 H 637.226 -2.42383 2.54839 0
M  V30 6746 H 637.1 -3.56793 1.22388 0
M  V30 6747 H 639.487 -2.91167 0.480179 0
M  V30 6748 H 639.568 -1.77952 1.83757 0
M  V30 6749 H 639.212 -3.72508 3.45253 0
M  V30 6750 H 639.142 -4.84322 2.06737 0
M  V30 6751 H 641.633 -3.29728 1.84629 0
M  V30 6752 H 641.946 -6.41529 4.30883 0
M  V30 6753 H 640.291 -5.77332 3.86927 0
M  V30 6754 H 643.482 -4.04248 2.36012 0
M  V30 6755 H 643.655 -5.46444 3.48286 0
M  V30 6756 N 637.061 -0.65484 -1.43351 0
M  V30 6757 C 638.472 -0.248506 -1.85039 0
M  V30 6758 C 638.823 1.20526 -1.54816 0
M  V30 6759 O 637.948 1.92016 -0.99794 0
M  V30 6760 C 638.543 -0.444241 -3.35875 0
M  V30 6761 C 637.102 -0.0922108 -3.76287 0
M  V30 6762 C 636.249 -0.746327 -2.67068 0
M  V30 6763 H 639.2 -0.8584 -1.33481 0
M  V30 6764 H 639.221 0.309762 -3.79237 0
M  V30 6765 H 638.733 -1.50239 -3.5784 0
M  V30 6766 H 636.834 0.96328 -3.59933 0
M  V30 6767 H 636.947 -0.518807 -4.76283 0
M  V30 6768 H 635.311 -0.179416 -2.54067 0
M  V30 6769 H 636.094 -1.80754 -2.91861 0
M  V30 6770 N 638.539 1.52521 -0.396863 0
M  V30 6771 C 639.469 2.29582 0.425941 0
M  V30 6772 C 640.45 1.33281 1.05689 0
M  V30 6773 O 641.635 1.62181 1.06823 0
M  V30 6774 C 638.765 3.10821 1.54943 0
M  V30 6775 C 637.719 4.15069 1.04413 0
M  V30 6776 C 637.045 4.84578 2.26028 0
M  V30 6777 C 638.345 5.22191 0.106767 0
M  V30 6778 H 640.039 2.98612 -0.217045 0
M  V30 6779 H 637.585 1.43611 -0.105826 0
M  V30 6780 H 639.538 3.63492 2.13193 0
M  V30 6781 H 638.262 2.39538 2.22011 0
M  V30 6782 H 636.921 3.63389 0.484118 0
M  V30 6783 H 636.569 4.09835 2.91623 0
M  V30 6784 H 636.269 5.55043 1.92876 0
M  V30 6785 H 637.793 5.40056 2.84906 0
M  V30 6786 H 639.207 5.70176 0.597685 0
M  V30 6787 H 637.604 5.99947 -0.135352 0
M  V30 6788 H 638.674 4.77531 -0.842134 0
M  V30 6789 N 640.017 0.126909 1.57088 0
M  V30 6790 C 640.95 -0.857844 2.11462 0
M  V30 6791 C 641.928 -1.25569 1.03301 0
M  V30 6792 O 643.112 -1.35535 1.31006 0
M  V30 6793 C 640.239 -2.14912 2.61784 0
M  V30 6794 C 639.285 -1.89874 3.81903 0
M  V30 6795 S 640.118 -1.10785 5.23915 0
M  V30 6796 C 641.274 -2.41075 5.7761 0
M  V30 6797 H 641.507 -0.395384 2.94659 0
M  V30 6798 H 639.04 -0.0870151 1.54155 0
M  V30 6799 H 640.998 -2.89101 2.91429 0
M  V30 6800 H 639.659 -2.58275 1.78754 0
M  V30 6801 H 638.852 -2.85572 4.15289 0
M  V30 6802 H 638.454 -1.23802 3.52915 0
M  V30 6803 H 640.746 -3.36864 5.87817 0
M  V30 6804 H 641.689 -2.12223 6.75549 0
M  V30 6805 H 642.097 -2.50804 5.05725 0
M  V30 6806 N 641.495 -1.56914 -0.146875 0
M  V30 6807 C 642.443 -1.99224 -1.20053 0
M  V30 6808 C 643.437 -0.884661 -1.44465 0
M  V30 6809 O 644.643 -1.06984 -1.44756 0
M  V30 6810 H 641.018 -0.634191 -0.404112 0
M  V30 6811 H 642.989 -2.86998 -0.816987 0
M  V30 6812 C 641.738 -2.38899 -2.52632 0
M  V30 6813 H 641.061 -3.23677 -2.34677 0
M  V30 6814 H 642.501 -2.72326 -3.24984 0
M  V30 6815 C 640.96 -1.2417 -3.13183 0
M  V30 6816 O 641.49 -0.542503 -3.9802 0
M  V30 6817 N 639.696 -1.00592 -2.72635 0
M  V30 6818 H 639.243 -1.57627 -2.03744 0
M  V30 6819 H 639.201 -0.240174 -3.13481 0
M  V30 6820 N 642.974 0.416227 -1.52004 0
M  V30 6821 C 644.251 1.17637 -1.56272 0
M  V30 6822 C 644.631 2.08352 -0.339493 0
M  V30 6823 O 643.979 2.1833 0.674124 0
M  V30 6824 C 644.189 1.95986 -2.88774 0
M  V30 6825 C 645.537 2.52299 -3.41512 0
M  V30 6826 O 646.561 2.06174 -2.90467 0
M  V30 6827 O 645.42 3.3648 -4.30631 0
M  V30 6828 H 642.514 0.536726 -0.629169 0
M  V30 6829 H 645.06 0.423583 -1.64329 0
M  V30 6830 H 643.832 1.29487 -3.69254 0
M  V30 6831 H 643.455 2.78285 -2.83978 0
M  V30 6832 N 644.452 1.42507 0.673017 0
M  V30 6833 C 645.362 1.4853 1.81593 0
M  V30 6834 C 646.378 0.373907 1.69935 0
M  V30 6835 O 647.554 0.625078 1.91454 0
M  V30 6836 C 644.619 1.387 3.17747 0
M  V30 6837 C 643.68 2.60346 3.41348 0
M  V30 6838 C 642.913 2.50975 4.71007 0
M  V30 6839 O 643.136 1.54659 5.49033 0
M  V30 6840 O 642.07 3.41138 4.95892 0
M  V30 6841 H 645.896 2.45001 1.79467 0
M  V30 6842 H 643.481 1.2429 0.82899 0
M  V30 6843 H 645.363 1.35586 3.98992 0
M  V30 6844 H 644.038 0.453555 3.20507 0
M  V30 6845 H 642.945 2.69034 2.59945 0
M  V30 6846 H 644.278 3.52595 3.43421 0
M  V30 6847 N 645.93 -0.909495 1.28709 0
M  V30 6848 C 647.178 -1.65577 1.15882 0
M  V30 6849 C 647.499 -1.928 -0.292108 0
M  V30 6850 O 646.769 -1.54716 -1.20166 0
M  V30 6851 H 645.349 -0.613714 0.425869 0
M  V30 6852 H 648.011 -1.09108 1.61498 0
M  V30 6853 H 647.107 -2.61634 1.70159 0
M  V30 6854 N 647.408 -1.11026 -1.11852 0
M  V30 6855 C 648.338 -0.786812 -2.19844 0
M  V30 6856 C 649.319 0.242935 -1.68356 0
M  V30 6857 O 650.504 0.107355 -1.93903 0
M  V30 6858 C 647.634 -0.224516 -3.46574 0
M  V30 6859 C 646.588 -1.18564 -4.1125 0
M  V30 6860 C 645.914 -0.484261 -5.32503 0
M  V30 6861 C 647.214 -2.53465 -4.56676 0
M  V30 6862 H 648.908 -1.68978 -2.47158 0
M  V30 6863 H 646.454 -0.813906 -1.18792 0
M  V30 6864 H 648.407 0.0139435 -4.21398 0
M  V30 6865 H 647.131 0.713722 -3.18706 0
M  V30 6866 H 645.79 -1.40966 -3.38414 0
M  V30 6867 H 645.438 0.458646 -5.00905 0
M  V30 6868 H 645.138 -1.12526 -5.76725 0
M  V30 6869 H 646.662 -0.254492 -6.10069 0
M  V30 6870 H 648.076 -2.35177 -5.22843 0
M  V30 6871 H 646.473 -3.13507 -5.11697 0
M  V30 6872 H 647.543 -3.13008 -3.70343 0
M  V30 6873 N 648.886 1.2938 -0.899927 0
M  V30 6874 C 649.833 2.27713 -0.376243 0
M  V30 6875 C 650.803 1.57016 0.541774 0
M  V30 6876 O 651.988 1.84997 0.466966 0
M  V30 6877 C 649.128 3.42889 0.39 0
M  V30 6878 C 648.241 4.28369 -0.558938 0
M  V30 6879 C 647.376 5.30726 0.224379 0
M  V30 6880 C 646.415 6.07862 -0.719068 0
M  V30 6881 N 645.552 7.02094 0.0298569 0
M  V30 6882 H 650.392 2.71888 -1.21988 0
M  V30 6883 H 647.929 1.33724 -0.612879 0
M  V30 6884 H 649.887 4.08443 0.850314 0
M  V30 6885 H 648.517 2.99743 1.19809 0
M  V30 6886 H 647.569 3.62986 -1.13777 0
M  V30 6887 H 648.881 4.82068 -1.2811 0
M  V30 6888 H 648.035 6.02098 0.745881 0
M  V30 6889 H 646.774 4.77759 0.979674 0
M  V30 6890 H 645.779 5.35353 -1.25207 0
M  V30 6891 H 647.004 6.62917 -1.4737 0
M  V30 6892 H 644.95 6.51496 0.767415 0
M  V30 6893 H 644.867 7.5335 -0.632391 0
M  V30 6894 H 646.135 7.77685 0.531615 0
M  V30 6895 N 650.364 0.662433 1.43002 0
M  V30 6896 C 651.61 0.179857 2.02001 0
M  V30 6897 C 651.943 -1.20625 1.52195 0
M  V30 6898 O 651.218 -1.80726 0.718911 0
M  V30 6899 C 651.501 0.200845 3.59539 0
M  V30 6900 C 651.354 1.62153 4.19555 0
M  V30 6901 C 652.673 -0.457738 4.37713 0
M  V30 6902 H 649.792 0.0668305 0.733964 0
M  V30 6903 H 652.434 0.84487 1.70182 0
M  V30 6904 H 650.584 -0.365411 3.86778 0
M  V30 6905 H 652.256 2.23908 4.03315 0
M  V30 6906 H 650.499 2.16601 3.75854 0
M  V30 6907 H 651.17 1.58799 5.28665 0
M  V30 6908 H 653.646 0.0241495 4.16093 0
M  V30 6909 H 652.522 -0.412363 5.47349 0
M  V30 6910 H 652.783 -1.53336 4.14657 0
M  V30 6911 N 651.842 -1.52309 0.404946 0
M  V30 6912 C 653.258 -1.59503 0.0556255 0
M  V30 6913 C 653.458 -1.41805 -1.43156 0
M  V30 6914 O 652.514 -1.2429 -2.19792 0
M  V30 6915 C 653.827 -2.95687 0.546801 0
M  V30 6916 C 655.375 -3.08909 0.504413 0
M  V30 6917 C 655.85 -4.47566 0.97203 0
M  V30 6918 N 657.341 -4.53795 0.928679 0
M  V30 6919 C 658.076 -5.59346 1.26174 0
M  V30 6920 N 657.572 -6.72469 1.66604 0
M  V30 6921 N 659.365 -5.49532 1.18198 0
M  V30 6922 H 651.516 -1.6206 1.37296 0
M  V30 6923 H 653.779 -0.762161 0.563751 0
M  V30 6924 H 653.485 -3.13905 1.58609 0
M  V30 6925 H 653.359 -3.77172 -0.0457905 0
M  V30 6926 H 655.746 -2.90378 -0.525819 0
M  V30 6927 H 655.827 -2.2934 1.13301 0
M  V30 6928 H 655.471 -4.6684 2.00057 0
M  V30 6929 H 655.401 -5.25625 0.320292 0
M  V30 6930 H 657.892 -3.72588 0.631369 0
M  V30 6931 H 658.205 -7.48993 1.9034 0
M  V30 6932 H 656.55 -6.73761 1.70504 0
M  V30 6933 H 659.741 -4.60038 0.865011 0
M  V30 6934 H 659.914 -6.31687 1.44485 0
M  V30 6935 N 653.32 -0.135238 -1.57019 0
M  V30 6936 C 654.55 0.525303 -1.9981 0
M  V30 6937 C 654.958 1.59724 -1.01415 0
M  V30 6938 O 654.301 1.837 -0.00130938 0
M  V30 6939 C 654.363 1.19578 -3.3903 0
M  V30 6940 C 654.027 0.269855 -4.56203 0
M  V30 6941 C 655.024 -0.497905 -5.1751 0
M  V30 6942 C 652.709 0.176188 -5.01991 0
M  V30 6943 C 654.703 -1.3469 -6.23007 0
M  V30 6944 C 652.39 -0.676422 -6.07345 0
M  V30 6945 C 653.388 -1.43658 -6.67721 0
M  V30 6946 O 653.076 -2.27501 -7.71037 0
M  V30 6947 H 652.808 0.142296 -0.660854 0
M  V30 6948 H 655.362 -0.223272 -2.04183 0
M  V30 6949 H 653.592 1.99176 -3.3146 0
M  V30 6950 H 655.281 1.75486 -3.66005 0
M  V30 6951 H 656.047 -0.435507 -4.83041 0
M  V30 6952 H 651.926 0.757583 -4.54733 0
M  V30 6953 H 655.47 -1.9407 -6.70062 0
M  V30 6954 H 651.367 -0.740154 -6.41243 0
M  V30 6955 H 652.135 -2.20619 -7.88206 0
M  V30 6956 N 654.798 1.5699 0.138552 0
M  V30 6957 C 656.209 1.73171 0.697754 0
M  V30 6958 C 656.56 0.750952 1.8126 0
M  V30 6959 O 655.685 -0.080549 2.1625 0
M  V30 6960 C 656.28 3.13996 1.27248 0
M  V30 6961 C 654.839 3.3175 1.77816 0
M  V30 6962 C 653.986 2.69084 0.669991 0
M  V30 6963 H 656.937 1.5846 -0.0871979 0
M  V30 6964 H 656.958 3.14463 2.14227 0
M  V30 6965 H 656.47 3.85354 0.460855 0
M  V30 6966 H 654.571 2.65403 2.61519 0
M  V30 6967 H 654.684 4.39768 1.90107 0
M  V30 6968 H 653.048 2.29782 1.09874 0
M  V30 6969 H 653.831 3.43053 -0.130329 0
M  V30 6970 N 656.276 -0.40816 1.52223 0
M  V30 6971 C 657.687 -0.986929 1.58482 0
M  V30 6972 C 658.038 -1.91521 0.425917 0
M  V30 6973 O 657.163 -2.11593 -0.453593 0
M  V30 6974 C 657.758 -1.7967 2.87235 0
M  V30 6975 C 656.317 -2.32549 2.9597 0
M  V30 6976 C 655.464 -1.12558 2.53428 0
M  V30 6977 H 658.415 -0.188362 1.57578 0
M  V30 6978 H 658.436 -2.65417 2.72642 0
M  V30 6979 H 657.948 -1.12082 3.71563 0
M  V30 6980 H 656.049 -3.03505 2.16137 0
M  V30 6981 H 656.162 -2.63348 4.00231 0
M  V30 6982 H 654.526 -1.47984 2.07299 0
M  V30 6983 H 655.309 -0.465351 3.40131 0
M  V30 6984 N 657.755 -1.42862 -0.66545 0
M  V30 6985 C 658.98 -1.47456 -1.45848 0
M  V30 6986 C 659.405 -0.0900312 -1.87884 0
M  V30 6987 O 658.763 0.913587 -1.56599 0
M  V30 6988 C 658.811 -2.41514 -2.67774 0
M  V30 6989 O 657.915 -1.89296 -3.66389 0
M  V30 6990 H 657.256 -0.499236 -0.437789 0
M  V30 6991 H 659.786 -1.8765 -0.815394 0
M  V30 6992 H 659.796 -2.58409 -3.15735 0
M  V30 6993 H 658.471 -3.42099 -2.36519 0
M  V30 6994 H 657.048 -1.82003 -3.25468 0
M  V30 6995 N 659.233 0.902656 -1.29189 0
M  V30 6996 C 660.644 1.46809 -1.15343 0
M  V30 6997 C 660.995 1.94568 0.252517 0
M  V30 6998 O 660.12 1.83454 1.14777 0
M  V30 6999 C 660.715 2.66829 -2.08776 0
M  V30 7000 C 659.274 3.19518 -1.98961 0
M  V30 7001 C 658.421 1.92212 -1.99874 0
M  V30 7002 H 661.372 0.714282 -1.41717 0
M  V30 7003 H 661.393 3.42465 -1.65826 0
M  V30 7004 H 660.905 2.32039 -3.11094 0
M  V30 7005 H 659.006 3.59008 -0.99721 0
M  V30 7006 H 659.119 3.84016 -2.86477 0
M  V30 7007 H 657.483 2.0979 -1.44431 0
M  V30 7008 H 658.266 1.59702 -3.03891 0
M  V30 7009 N 660.711 1.11618 1.11262 0
M  V30 7010 C 661.674 0.779447 2.15539 0
M  V30 7011 C 662.674 -0.202081 1.59525 0
M  V30 7012 O 663.864 0.0226356 1.74185 0
M  V30 7013 C 660.996 0.15674 3.40539 0
M  V30 7014 H 662.189 1.70324 2.4684 0
M  V30 7015 H 659.742 0.918298 1.26479 0
M  V30 7016 H 660.477 -0.777186 3.1485 0
M  V30 7017 H 660.262 0.863308 3.82478 0
M  V30 7018 H 661.752 -0.062661 4.17553 0
M  V30 7019 N 662.189 -1.289 0.906776 0
M  V30 7020 C 663.136 -2.2751 0.388313 0
M  V30 7021 C 664.106 -1.57301 -0.533439 0
M  V30 7022 O 665.291 -1.85243 -0.457148 0
M  V30 7023 C 662.431 -3.43091 -0.37181 0
M  V30 7024 C 661.544 -4.28066 0.581647 0
M  V30 7025 C 660.679 -5.30837 -0.19623 0
M  V30 7026 C 659.718 -6.07472 0.751294 0
M  V30 7027 N 658.855 -7.021 0.00737727 0
M  V30 7028 H 663.695 -2.71237 1.23428 0
M  V30 7029 H 661.232 -1.33397 0.619962 0
M  V30 7030 H 663.19 -4.08888 -0.828641 0
M  V30 7031 H 661.82 -3.00374 -1.18218 0
M  V30 7032 H 660.872 -3.62378 1.157 0
M  V30 7033 H 662.184 -4.81382 1.30665 0
M  V30 7034 H 661.338 -6.02485 -0.71394 0
M  V30 7035 H 660.077 -4.78272 -0.954324 0
M  V30 7036 H 659.082 -5.34682 1.28044 0
M  V30 7037 H 660.307 -6.62126 1.50883 0
M  V30 7038 H 658.253 -6.51894 -0.732854 0
M  V30 7039 H 658.17 -7.53004 0.672334 0
M  V30 7040 H 659.438 -7.77956 -0.490365 0
M  V30 7041 N 663.667 -0.670007 -1.42649 0
M  V30 7042 C 664.6 0.0613623 -2.28117 0
M  V30 7043 C 665.578 0.813414 -1.40792 0
M  V30 7044 O 666.762 0.809529 -1.70232 0
M  V30 7045 C 663.889 1.09399 -3.20546 0
M  V30 7046 C 662.935 0.438064 -4.24244 0
M  V30 7047 S 663.768 -0.800808 -5.29478 0
M  V30 7048 C 664.924 0.23086 -6.25474 0
M  V30 7049 H 665.157 -0.663606 -2.89799 0
M  V30 7050 H 662.69 -0.45939 -1.47407 0
M  V30 7051 H 664.648 1.68469 -3.74337 0
M  V30 7052 H 663.309 1.79137 -2.58009 0
M  V30 7053 H 662.502 1.21707 -4.89084 0
M  V30 7054 H 662.104 -0.0789346 -3.73917 0
M  V30 7055 H 664.396 1.09204 -6.68641 0
M  V30 7056 H 665.339 -0.382945 -7.07064 0
M  V30 7057 H 665.747 0.574191 -5.61572 0
M  V30 7058 N 665.145 1.52092 -0.413018 0
M  V30 7059 C 666.373 2.06274 0.160881 0
M  V30 7060 C 666.788 1.28273 1.38533 0
M  V30 7061 O 666.145 0.33563 1.79387 0
M  V30 7062 C 666.196 3.57921 0.507443 0
M  V30 7063 O 665.917 4.32971 -0.668388 0
M  V30 7064 C 667.418 4.28533 1.13465 0
M  V30 7065 H 664.638 0.67074 0.0186759 0
M  V30 7066 H 667.182 1.95951 -0.585092 0
M  V30 7067 H 665.337 3.68238 1.20331 0
M  V30 7068 H 665.751 5.23135 -0.378169 0
M  V30 7069 H 667.225 5.35804 1.32732 0
M  V30 7070 H 667.702 3.85258 2.10886 0
M  V30 7071 H 668.308 4.22595 0.478876 0
M  V30 7072 N 666.623 0.143563 1.56945 0
M  V30 7073 C 667.555 -0.828353 2.13708 0
M  V30 7074 C 668.568 -1.21313 1.08568 0
M  V30 7075 O 669.757 -1.1578 1.35857 0
M  V30 7076 C 666.857 -2.12248 2.64204 0
M  V30 7077 C 666.03 -1.90561 3.93707 0
M  V30 7078 C 665.089 -3.03931 4.29549 0
M  V30 7079 O 664.115 -2.75772 4.97934 0
M  V30 7080 N 665.317 -4.31016 3.88852 0
M  V30 7081 H 668.082 -0.343242 2.97728 0
M  V30 7082 H 665.643 -0.0401152 1.6185 0
M  V30 7083 H 667.635 -2.87132 2.85197 0
M  V30 7084 H 666.205 -2.52033 1.84928 0
M  V30 7085 H 665.425 -0.997327 3.81375 0
M  V30 7086 H 666.713 -1.73405 4.78339 0
M  V30 7087 H 666.111 -4.56762 3.33743 0
M  V30 7088 H 664.668 -5.02691 4.14903 0
M  V30 7089 N 668.101 -1.57061 -0.130224 0
M  V30 7090 C 669.051 -1.95941 -1.16582 0
M  V30 7091 C 670.035 -0.832858 -1.37667 0
M  V30 7092 O 671.227 -1.09647 -1.38948 0
M  V30 7093 C 668.356 -2.35777 -2.49528 0
M  V30 7094 C 667.442 -3.5504 -2.31964 0
M  V30 7095 N 667.833 -4.71071 -1.84189 0
M  V30 7096 C 666.131 -3.60453 -2.62659 0
M  V30 7097 C 666.832 -5.53128 -1.80068 0
M  V30 7098 N 665.808 -4.95303 -2.24001 0
M  V30 7099 H 669.61 -2.83117 -0.788806 0
M  V30 7100 H 667.124 -1.58842 -0.3381 0
M  V30 7101 H 669.121 -2.61843 -3.24413 0
M  V30 7102 H 667.781 -1.49961 -2.87996 0
M  V30 7103 H 668.792 -4.94504 -1.53903 0
M  V30 7104 H 665.469 -2.85217 -3.0489 0
M  V30 7105 H 666.859 -6.56182 -1.4448 0
M  V30 7106 O 669.618 0.274706 -1.59147 0
M  V30 7107 H 670.309 0.920013 -1.70457 0
M  V30 END ATOM
M  V30 BEGIN BOND
M  V30 END BOND
M  V30 END CTAB
M  END
$$$$
