drugbank_target|P30872 Somatostatin receptor type 1 (DB06663; DB09099; DB13985; DB15494)
 OpenBabel12092119323D

  0  0  0     0  0            999 V3000
M  V30 BEGIN CTAB
M  V30 COUNTS 6047 6111 0 0 0
M  V30 BEGIN ATOM
M  V30 1 H -0.908 1.98254 -0.117106 0
M  V30 2 N 0 1.576 0 0
M  V30 3 C 0.933 2.03868 1.02534 0
M  V30 4 C 1.911 0.928543 1.3348 0
M  V30 5 O 3.095 1.19667 1.45644 0
M  V30 6 C 0.222 2.43627 2.35294 0
M  V30 7 C -0.732 3.65373 2.2001 0
M  V30 8 S 0.101 5.13292 1.52614 0
M  V30 9 C 1.257 5.56322 2.86805 0
M  V30 10 H 1.49 2.90518 0.631377 0
M  V30 11 H -0.977 1.52953 0.210867 0
M  V30 12 H 0.981 2.67203 3.11629 0
M  V30 13 H -0.358 1.57376 2.7183 0
M  V30 14 H -1.165 3.90944 3.18086 0
M  V30 15 H -1.563 3.418 1.51819 0
M  V30 16 H 0.729 5.58782 3.83104 0
M  V30 17 H 1.672 6.56266 2.65933 0
M  V30 18 H 2.08 4.83886 2.90714 0
M  V30 19 N 1.4781 -0.272755 1.55222 0
M  V30 20 C 2.7251 -1.00433 1.7584 0
M  V30 21 C 3.0531 -1.86275 0.559629 0
M  V30 22 O 2.3081 -1.90269 -0.457857 0
M  V30 23 C 2.6071 -1.91642 3.01675 0
M  V30 24 C 2.2731 -1.21548 4.34208 0
M  V30 25 C 0.9351 -1.02166 4.70229 0
M  V30 26 C 3.2871 -0.716684 5.16249 0
M  V30 27 C 0.6151 -0.316334 5.85847 0
M  V30 28 C 2.9671 -0.0249476 6.32595 0
M  V30 29 C 1.6311 0.180579 6.67256 0
M  V30 30 H 0.9011 -0.367509 0.643443 0
M  V30 31 H 3.5481 -0.276596 1.89492 0
M  V30 32 H 1.8531 -2.71037 2.82924 0
M  V30 33 H 3.5501 -2.48369 3.14824 0
M  V30 34 H 0.1401 -1.37645 4.05896 0
M  V30 35 H 4.3241 -0.854047 4.88896 0
M  V30 36 H -0.4199 -0.146378 6.11225 0
M  V30 37 H 3.7541 0.369311 6.9542 0
M  V30 38 H 1.3811 0.729098 7.56696 0
M  V30 39 N 2.9562 -1.48159 -0.537278 0
M  V30 40 C 4.3672 -1.49429 -1.11928 0
M  V30 41 C 4.7182 -0.26 -1.9447 0
M  V30 42 O 3.8432 0.633489 -2.0692 0
M  V30 43 C 4.4382 -2.70758 -2.03656 0
M  V30 44 C 2.9972 -2.74923 -2.57088 0
M  V30 45 C 2.1442 -2.42835 -1.3389 0
M  V30 46 H 5.0952 -1.55381 -0.322886 0
M  V30 47 H 5.1162 -2.48861 -2.87834 0
M  V30 48 H 4.6282 -3.60575 -1.43553 0
M  V30 49 H 2.7292 -1.89296 -3.20933 0
M  V30 50 H 2.8422 -3.76157 -2.9672 0
M  V30 51 H 1.2062 -1.93836 -1.65226 0
M  V30 52 H 1.9892 -3.34884 -0.755504 0
M  V30 53 N 4.4343 0.785586 -1.36625 0
M  V30 54 C 5.3823 1.91978 -1.31329 0
M  V30 55 C 6.3763 1.68162 -0.204416 0
M  V30 56 O 7.5823 1.76122 -0.371645 0
M  V30 57 H 3.9573 0.631087 -0.408942 0
M  V30 58 H 5.9283 1.93562 -2.27104 0
M  V30 59 C 4.6773 3.29055 -1.12329 0
M  V30 60 H 4.0003 3.4795 -1.96903 0
M  V30 61 H 5.4403 4.08756 -1.12671 0
M  V30 62 C 3.8993 3.36461 0.171861 0
M  V30 63 O 4.4293 3.84576 1.16035 0
M  V30 64 N 2.6353 2.89782 0.217846 0
M  V30 65 H 2.1823 2.50819 -0.587183 0
M  V30 66 H 2.1403 2.95119 1.08408 0
M  V30 67 N 5.9124 1.20967 1.01018 0
M  V30 68 C 7.1604 1.02172 1.74371 0
M  V30 69 C 7.4814 -0.446414 1.89821 0
M  V30 70 O 6.7514 -1.32234 1.44537 0
M  V30 71 H 5.3314 0.375066 0.646014 0
M  V30 72 H 7.9934 1.52187 1.21758 0
M  V30 73 H 7.0894 1.48538 2.74487 0
M  V30 74 N 7.3905 -1.2043 1.01659 0
M  V30 75 C 8.6185 -1.93777 0.725132 0
M  V30 76 C 9.0335 -1.74772 -0.714166 0
M  V30 77 O 8.3905 -1.06169 -1.4844 0
M  V30 78 C 8.4415 -3.45876 1.05129 0
M  V30 79 O 8.1625 -3.6426 2.43406 0
M  V30 80 C 9.6635 -4.36368 0.780891 0
M  V30 81 H 6.8835 -0.615901 0.266284 0
M  V30 82 H 9.4275 -1.52922 1.35776 0
M  V30 83 H 7.5825 -3.8461 0.464065 0
M  V30 84 H 7.9965 -4.58246 2.55169 0
M  V30 85 H 9.4705 -5.41743 1.05918 0
M  V30 86 H 9.9475 -4.38275 -0.284937 0
M  V30 87 H 10.5535 -4.03296 1.35027 0
M  V30 88 N 8.8686 -0.792821 -1.36206 0
M  V30 89 C 9.8316 -0.199459 -2.2833 0
M  V30 90 C 10.8316 0.605189 -1.48977 0
M  V30 91 O 12.0216 0.425685 -1.68919 0
M  V30 92 C 9.1536 0.723523 -3.33134 0
M  V30 93 H 10.3466 -1.01181 -2.82316 0
M  V30 94 H 7.8996 -0.562485 -1.45828 0
M  V30 95 H 8.6346 1.56008 -2.84309 0
M  V30 96 H 8.4196 0.148436 -3.91819 0
M  V30 97 H 9.9096 1.13344 -4.01924 0
M  V30 98 N 10.3467 1.47872 -0.545128 0
M  V30 99 C 11.5717 2.07391 -0.0190611 0
M  V30 100 C 11.9967 1.39688 1.25971 0
M  V30 101 O 11.3547 0.467816 1.7516 0
M  V30 102 C 11.4027 3.60188 0.172335 0
M  V30 103 O 10.5067 3.9339 1.23766 0
M  V30 104 H 9.8477 0.662411 -0.0459059 0
M  V30 105 H 12.3777 1.90066 -0.757365 0
M  V30 106 H 12.3877 4.06129 0.390305 0
M  V30 107 H 11.0627 4.08865 -0.761725 0
M  V30 108 H 9.6397 3.5921 1.00114 0
M  V30 109 N 11.8248 0.280983 1.55075 0
M  V30 110 C 13.0498 -0.340154 2.04592 0
M  V30 111 C 13.4748 -1.48246 1.15779 0
M  V30 112 O 12.8328 -1.80614 0.15761 0
M  V30 113 C 12.8808 -0.793104 3.5177 0
M  V30 114 O 11.9848 -1.89981 3.66034 0
M  V30 115 H 11.3258 -0.0694289 0.66036 0
M  V30 116 H 13.8558 0.416993 2.00306 0
M  V30 117 H 13.8658 -1.08729 3.93245 0
M  V30 118 H 12.5408 0.0426163 4.15878 0
M  V30 119 H 11.1178 -1.60771 3.36463 0
M  V30 120 N 13.3029 -1.57598 0.00835791 0
M  V30 121 C 14.7139 -1.7892 -0.53333 0
M  V30 122 C 15.0649 -0.916609 -1.73473 0
M  V30 123 O 14.1899 -0.121336 -2.1606 0
M  V30 124 C 14.7849 -3.24488 -0.974313 0
M  V30 125 C 13.3439 -3.46878 -1.46125 0
M  V30 126 C 12.4909 -2.74157 -0.416302 0
M  V30 127 H 15.4419 -1.56958 0.234495 0
M  V30 128 H 15.4629 -3.3306 -1.83988 0
M  V30 129 H 14.9749 -3.87972 -0.099718 0
M  V30 130 H 13.0759 -2.8862 -2.35646 0
M  V30 131 H 13.1889 -4.55572 -1.48295 0
M  V30 132 H 11.5529 -2.39022 -0.87981 0
M  V30 133 H 12.3359 -3.40345 0.44947 0
M  V30 134 N 14.781 0.264519 -1.55364 0
M  V30 135 C 16.006 1.01726 -1.80739 0
M  V30 136 C 16.431 1.78836 -0.583044 0
M  V30 137 O 15.789 1.75167 0.467566 0
M  V30 138 C 15.837 1.94482 -3.03659 0
M  V30 139 O 14.941 3.03386 -2.7934 0
M  V30 140 H 14.282 0.290395 -0.597132 0
M  V30 141 H 16.812 0.290854 -2.02522 0
M  V30 142 H 16.822 2.36278 -3.32621 0
M  V30 143 H 15.497 1.37772 -3.92418 0
M  V30 144 H 14.074 2.65844 -2.61498 0
M  V30 145 N 16.2591 1.48442 0.529413 0
M  V30 146 C 17.4841 1.60406 1.31471 0
M  V30 147 C 17.9091 0.264738 1.86228 0
M  V30 148 O 17.2671 -0.763668 1.64432 0
M  V30 149 C 17.3151 2.65419 2.44101 0
M  V30 150 O 16.4191 2.22618 3.47153 0
M  V30 151 H 15.7601 0.537863 0.389357 0
M  V30 152 H 18.2901 1.94432 0.636965 0
M  V30 153 H 18.3001 2.86709 2.90279 0
M  V30 154 H 16.9751 3.62652 2.03608 0
M  V30 155 H 15.5521 2.11543 3.0709 0
M  V30 156 N 17.7372 -0.778329 1.37039 0
M  V30 157 C 18.9622 -1.57248 1.35233 0
M  V30 158 C 19.3872 -1.87999 -0.0615568 0
M  V30 159 O 18.7452 -1.48734 -1.03672 0
M  V30 160 C 18.7932 -2.86353 2.19167 0
M  V30 161 O 17.8972 -3.80442 1.59178 0
M  V30 162 H 17.2382 -0.476569 0.462362 0
M  V30 163 H 19.7682 -0.963853 1.80474 0
M  V30 164 H 19.7782 -3.35519 2.32145 0
M  V30 165 H 18.4532 -2.63299 3.21942 0
M  V30 166 H 17.0302 -3.39067 1.55203 0
M  V30 167 N 19.2153 -1.21501 -1.00376 0
M  V30 168 C 20.6263 -1.03146 -1.55621 0
M  V30 169 C 20.9773 0.408375 -1.91903 0
M  V30 170 O 20.1023 1.29177 -1.73616 0
M  V30 171 C 20.6973 -1.86612 -2.82775 0
M  V30 172 C 19.2563 -1.72586 -3.34501 0
M  V30 173 C 18.4033 -1.83747 -2.07683 0
M  V30 174 H 21.3543 -1.35505 -0.826081 0
M  V30 175 H 21.3753 -1.3771 -3.54706 0
M  V30 176 H 20.8873 -2.91399 -2.56336 0
M  V30 177 H 18.9883 -0.704877 -3.65872 0
M  V30 178 H 19.1013 -2.54623 -4.05837 0
M  V30 179 H 17.4653 -1.27069 -2.20739 0
M  V30 180 H 18.2483 -2.90044 -1.83655 0
M  V30 181 N 20.6934 1.19889 -1.02296 0
M  V30 182 C 21.9184 1.9393 -0.735237 0
M  V30 183 C 22.3434 1.74639 0.698782 0
M  V30 184 O 21.7014 1.04481 1.48167 0
M  V30 185 C 21.7494 3.43916 -1.08417 0
M  V30 186 O 20.8534 4.11917 -0.199446 0
M  V30 187 H 20.1944 0.605645 -0.272196 0
M  V30 188 H 22.7244 1.52137 -1.36804 0
M  V30 189 H 22.7344 3.9456 -1.03856 0
M  V30 190 H 21.4094 3.5728 -2.12894 0
M  V30 191 H 19.9864 3.71666 -0.303136 0
M  V30 192 N 22.1715 0.800033 1.35784 0
M  V30 193 C 23.5825 0.439142 1.81462 0
M  V30 194 C 23.9335 -1.03813 1.66485 0
M  V30 195 O 23.0585 -1.80626 1.19177 0
M  V30 196 C 23.6535 0.790314 3.29453 0
M  V30 197 C 22.2125 0.482111 3.733 0
M  V30 198 C 21.3595 1.01938 2.57883 0
M  V30 199 H 24.3105 0.992254 1.23855 0
M  V30 200 H 24.3315 0.0853677 3.80404 0
M  V30 201 H 23.8435 1.86554 3.40322 0
M  V30 202 H 21.9445 -0.584652 3.67984 0
M  V30 203 H 22.0575 1.01015 4.6833 0
M  V30 204 H 20.4215 0.442043 2.50835 0
M  V30 205 H 21.2045 2.10059 2.71533 0
M  V30 206 N 23.6496 -1.47581 0.552962 0
M  V30 207 C 24.8746 -2.07378 0.0300593 0
M  V30 208 C 25.2996 -1.40355 -1.25229 0
M  V30 209 O 24.6576 -0.477099 -1.7491 0
M  V30 210 C 24.7056 -3.60274 -0.153231 0
M  V30 211 O 23.8096 -3.94041 -1.21678 0
M  V30 212 H 23.1506 -0.662158 0.0494182 0
M  V30 213 H 25.6806 -1.89662 0.767434 0
M  V30 214 H 25.6906 -4.0633 -0.368761 0
M  V30 215 H 24.3656 -4.08455 0.783397 0
M  V30 216 H 22.9426 -3.59735 -0.982079 0
M  V30 217 N 25.1277 -0.289203 -1.54924 0
M  V30 218 C 26.5387 0.205791 -1.85562 0
M  V30 219 C 26.8897 1.54351 -1.2112 0
M  V30 220 O 26.0147 2.10435 -0.504601 0
M  V30 221 C 26.6097 0.380177 -3.3666 0
M  V30 222 C 25.1687 0.819395 -3.67373 0
M  V30 223 C 24.3157 -0.079159 -2.77187 0
M  V30 224 H 27.2667 -0.510577 -1.50262 0
M  V30 225 H 27.2877 1.21659 -3.60526 0
M  V30 226 H 26.7997 -0.593589 -3.83534 0
M  V30 227 H 24.9007 1.80413 -3.26009 0
M  V30 228 H 25.0137 0.646957 -4.74712 0
M  V30 229 H 23.3777 0.439565 -2.50878 0
M  V30 230 H 24.1607 -1.04906 -3.26878 0
M  V30 231 N 26.6058 1.57591 -0.0167156 0
M  V30 232 C 27.8538 1.90906 0.663285 0
M  V30 233 C 28.1748 0.892509 1.73376 0
M  V30 234 O 27.4448 -0.0677623 1.95783 0
M  V30 235 H 26.0248 0.704637 0.247983 0
M  V30 236 H 28.6868 1.94803 -0.0615909 0
M  V30 237 H 27.7828 2.9116 1.12393 0
M  V30 238 N 28.0839 -0.256276 1.55502 0
M  V30 239 C 29.3089 -1.00766 1.81276 0
M  V30 240 C 29.7339 -1.78524 0.59252 0
M  V30 241 O 29.0919 -1.75413 -0.45827 0
M  V30 242 C 29.1399 -1.92869 3.04687 0
M  V30 243 O 28.2439 -3.019 2.80945 0
M  V30 244 H 27.5849 -0.287224 0.598664 0
M  V30 245 H 30.1149 -0.280109 2.02674 0
M  V30 246 H 30.1249 -2.34511 3.33869 0
M  V30 247 H 28.7999 -1.35689 3.93143 0
M  V30 248 H 27.3769 -2.64454 2.62904 0
M  V30 249 N 29.562 -1.4872 -0.521534 0
M  V30 250 C 30.802 -1.58771 -1.28729 0
M  V30 251 C 31.166 -0.259394 -1.9024 0
M  V30 252 O 32.367 -0.234942 -2.67771 0
M  V30 253 C 30.638 -2.70039 -2.34124 0
M  V30 254 S 32.197 -2.9991 -3.20312 0
M  V30 255 H 29.015 -0.560251 -0.437767 0
M  V30 256 H 31.617 -1.86283 -0.593188 0
M  V30 257 H 30.321 -3.65101 -1.87429 0
M  V30 258 H 29.852 -2.44455 -3.08229 0
M  V30 259 H 31.867 -2.39855 -4.34378 0
M  V30 260 N 31.0401 0.771051 -1.3745 0
M  V30 261 C 32.2881 1.52661 -1.32435 0
M  V30 262 C 32.6091 1.9479 0.0905024 0
M  V30 263 O 31.8791 1.66348 1.03466 0
M  V30 264 H 30.4591 0.566218 -0.487244 0
M  V30 265 H 33.1211 0.917636 -1.71946 0
M  V30 266 H 32.2171 2.42568 -1.96385 0
M  V30 267 N 32.5182 1.22032 0.997298 0
M  V30 268 C 33.4282 1.00271 2.12092 0
M  V30 269 C 34.4442 -0.047621 1.73935 0
M  V30 270 O 35.6202 0.144136 2.00884 0
M  V30 271 C 32.6852 0.578449 3.4184 0
M  V30 272 C 31.7462 1.70189 3.94125 0
M  V30 273 C 30.9792 1.29778 5.17681 0
M  V30 274 O 31.2022 0.174676 5.70132 0
M  V30 275 O 30.1362 2.11261 5.63607 0
M  V30 276 H 33.9622 1.94398 2.3333 0
M  V30 277 H 31.5472 1.00587 1.10465 0
M  V30 278 H 33.4292 0.351998 4.19927 0
M  V30 279 H 32.1042 -0.334019 3.21972 0
M  V30 280 H 31.0112 1.98282 3.1723 0
M  V30 281 H 32.3442 2.59206 4.18417 0
M  V30 282 N 33.9963 -1.19345 1.0293 0
M  V30 283 C 35.2443 -1.88665 0.724574 0
M  V30 284 C 35.5653 -1.80036 -0.749144 0
M  V30 285 O 34.8353 -1.2111 -1.53978 0
M  V30 286 H 33.4153 -0.698406 0.265025 0
M  V30 287 H 36.0773 -1.44885 1.30362 0
M  V30 288 H 35.1733 -2.94987 1.01926 0
M  V30 289 N 35.4744 -0.807222 -1.35358 0
M  V30 290 C 36.7224 -0.387122 -1.98358 0
M  V30 291 C 37.0434 1.04942 -1.64354 0
M  V30 292 O 36.3134 1.72615 -0.926339 0
M  V30 293 H 34.8934 -0.140154 -0.733734 0
M  V30 294 H 37.5554 -1.0332 -1.6526 0
M  V30 295 H 36.6514 -0.493352 -3.08176 0
M  V30 296 N 36.9525 1.47285 -0.560781 0
M  V30 297 C 38.2005 2.02064 -0.0379868 0
M  V30 298 C 38.5215 1.43711 1.31803 0
M  V30 299 O 37.7915 0.61362 1.86042 0
M  V30 300 H 36.3715 0.746918 -0.0110531 0
M  V30 301 H 39.0335 1.80648 -0.731598 0
M  V30 302 H 38.1295 3.12064 0.0474463 0
M  V30 303 N 38.4306 0.297415 1.54768 0
M  V30 304 C 39.6556 -0.318435 2.04941 0
M  V30 305 C 40.0806 -1.4701 1.17345 0
M  V30 306 O 39.4386 -1.80436 0.176758 0
M  V30 307 C 39.4866 -0.755749 3.52592 0
M  V30 308 O 38.5906 -1.86088 3.68028 0
M  V30 309 H 37.9316 -0.062421 0.661059 0
M  V30 310 H 40.4616 0.438215 1.99852 0
M  V30 311 H 40.4716 -1.04552 3.94376 0
M  V30 312 H 39.1466 0.0867233 4.1581 0
M  V30 313 H 37.7236 -1.57193 3.38149 0
M  V30 314 N 39.9087 -1.5758 0.0250728 0
M  V30 315 C 41.3247 -1.56124 -0.331282 0
M  V30 316 C 41.5247 -1.03029 -1.73169 0
M  V30 317 O 40.5807 -0.675215 -2.43305 0
M  V30 318 C 41.8937 -3.00139 -0.183584 0
M  V30 319 C 43.4417 -3.11946 -0.256654 0
M  V30 320 C 43.9167 -4.57793 -0.137792 0
M  V30 321 N 45.4077 -4.6279 -0.194904 0
M  V30 322 C 46.1427 -5.7326 -0.126655 0
M  V30 323 N 45.6387 -6.928 -0.00755288 0
M  V30 324 N 47.4317 -5.61811 -0.180348 0
M  V30 325 H 39.5827 -1.90424 0.94087 0
M  V30 326 H 41.8457 -0.875761 0.362968 0
M  V30 327 H 41.5517 -3.4292 0.780927 0
M  V30 328 H 41.4257 -3.64899 -0.955448 0
M  V30 329 H 43.8127 -2.69079 -1.21162 0
M  V30 330 H 43.8937 -2.49915 0.545517 0
M  V30 331 H 43.5377 -5.01339 0.813739 0
M  V30 332 H 43.4677 -5.17798 -0.958775 0
M  V30 333 H 45.9587 -3.76807 -0.287267 0
M  V30 334 H 46.2717 -7.72791 0.0379428 0
M  V30 335 H 44.6167 -6.94995 0.0271731 0
M  V30 336 H 47.8077 -4.6731 -0.271767 0
M  V30 337 H 47.9807 -6.47882 -0.123697 0
M  V30 338 N 41.3868 0.248026 -1.55636 0
M  V30 339 C 42.6348 0.974295 -1.77065 0
M  V30 340 C 42.9558 1.85897 -0.588849 0
M  V30 341 O 42.2258 1.91868 0.395407 0
M  V30 342 H 40.8058 0.362733 -0.653019 0
M  V30 343 H 43.4678 0.266244 -1.93073 0
M  V30 344 H 42.5638 1.59667 -2.68166 0
M  V30 345 N 42.8649 1.48995 0.513639 0
M  V30 346 C 44.2759 1.5119 1.09537 0
M  V30 347 C 44.6269 0.290906 1.94031 0
M  V30 348 O 43.7519 -0.60049 2.07902 0
M  V30 349 C 44.3469 2.73964 1.99322 0
M  V30 350 C 42.9059 2.78978 2.52682 0
M  V30 351 C 42.0529 2.44934 1.30009 0
M  V30 352 H 45.0039 1.55875 0.298125 0
M  V30 353 H 45.0249 2.53409 2.83838 0
M  V30 354 H 44.5369 3.62813 1.37799 0
M  V30 355 H 42.6379 1.94378 3.1788 0
M  V30 356 H 42.7509 3.8083 2.90698 0
M  V30 357 H 41.1149 1.9644 1.62122 0
M  V30 358 H 41.8979 3.36043 0.702131 0
M  V30 359 N 44.343 -0.763751 1.37857 0
M  V30 360 C 45.591 -1.51957 1.33243 0
M  V30 361 C 45.912 -1.94835 -0.0801709 0
M  V30 362 O 45.182 -1.66894 -1.02582 0
M  V30 363 H 43.762 -0.563626 0.49024 0
M  V30 364 H 46.424 -0.908504 1.7243 0
M  V30 365 H 45.52 -2.41523 1.97669 0
M  V30 366 N 45.8211 -1.22559 -0.990812 0
M  V30 367 C 46.7841 -0.998863 -2.0629 0
M  V30 368 C 47.7841 0.0354834 -1.60761 0
M  V30 369 O 48.9741 -0.203231 -1.7301 0
M  V30 370 C 46.1061 -0.509203 -3.37076 0
M  V30 371 H 47.2991 -1.95014 -2.27837 0
M  V30 372 H 44.8521 -1.04456 -1.16269 0
M  V30 373 H 45.5871 0.446335 -3.21214 0
M  V30 374 H 45.3721 -1.25547 -3.71457 0
M  V30 375 H 46.8621 -0.370888 -4.1595 0
M  V30 376 N 47.2992 1.18797 -1.03562 0
M  V30 377 C 48.5472 1.88278 -0.734569 0
M  V30 378 C 48.8682 1.8043 0.739586 0
M  V30 379 O 48.1382 1.21925 1.53333 0
M  V30 380 H 46.7182 0.696991 -0.268725 0
M  V30 381 H 49.3802 1.44192 -1.31129 0
M  V30 382 H 48.4762 2.94443 -1.03489 0
M  V30 383 N 48.7773 0.814389 1.34928 0
M  V30 384 C 49.7403 0.235759 2.27984 0
M  V30 385 C 50.7403 -0.581412 1.49921 0
M  V30 386 O 51.9303 -0.398758 1.69575 0
M  V30 387 C 49.0623 -0.670433 3.34242 0
M  V30 388 H 50.2553 1.05659 2.80671 0
M  V30 389 H 47.8083 0.585614 1.44915 0
M  V30 390 H 48.5433 -1.51466 2.86755 0
M  V30 391 H 48.3283 -0.0860822 3.92005 0
M  V30 392 H 49.8183 -1.06935 4.03676 0
M  V30 393 N 50.2554 -1.46986 0.568584 0
M  V30 394 C 51.2184 -2.28624 -0.162366 0
M  V30 395 C 52.2184 -1.37596 -0.832103 0
M  V30 396 O 53.4084 -1.60115 -0.68622 0
M  V30 397 C 50.5404 -3.17596 -1.23878 0
M  V30 398 H 51.7334 -2.94722 0.554899 0
M  V30 399 H 49.2864 -1.52863 0.325976 0
M  V30 400 H 50.0214 -2.56214 -1.98808 0
M  V30 401 H 49.8064 -3.846 -0.763219 0
M  V30 402 H 51.2964 -3.79078 -1.75185 0
M  V30 403 N 51.7335 -0.305618 -1.54608 0
M  V30 404 C 53.0105 0.355652 -1.92339 0
M  V30 405 C 53.3905 1.71324 -1.23335 0
M  V30 406 O 52.7385 2.25473 -0.370702 0
M  V30 407 C 52.9485 0.46572 -3.45879 0
M  V30 408 C 54.2965 0.734426 -4.182 0
M  V30 409 O 55.3205 0.54935 -3.51938 0
M  V30 410 O 54.1795 1.09024 -5.35515 0
M  V30 411 H 51.2735 0.199666 -0.802535 0
M  V30 412 H 53.8195 -0.354017 -1.65966 0
M  V30 413 H 52.5915 -0.488461 -3.88239 0
M  V30 414 H 52.2145 1.22367 -3.78301 0
M  V30 415 N 53.2116 1.57565 -0.0334293 0
M  V30 416 C 54.4596 1.91598 0.642999 0
M  V30 417 C 54.7806 0.910847 1.7242 0
M  V30 418 O 54.0506 -0.0469931 1.95844 0
M  V30 419 H 52.6306 0.707228 0.240496 0
M  V30 420 H 55.2926 1.94726 -0.0822488 0
M  V30 421 H 54.3886 2.92336 1.09298 0
M  V30 422 N 54.6897 -0.239769 1.55765 0
M  V30 423 C 55.6227 -1.32356 1.85895 0
M  V30 424 C 56.6007 -1.46053 0.714662 0
M  V30 425 O 57.7847 -1.62154 0.961157 0
M  V30 426 C 54.9117 -2.6962 2.04994 0
M  V30 427 C 53.9577 -2.73036 3.27648 0
M  V30 428 S 54.7907 -2.28929 4.84099 0
M  V30 429 C 55.9467 -3.68103 5.06212 0
M  V30 430 H 56.1797 -1.06601 2.77531 0
M  V30 431 H 53.7127 -0.441112 1.47965 0
M  V30 432 H 55.6707 -3.48653 2.16682 0
M  V30 433 H 54.3317 -2.92609 1.14188 0
M  V30 434 H 53.5247 -3.7386 3.38 0
M  V30 435 H 53.1267 -2.02052 3.14723 0
M  V30 436 H 55.4187 -4.63656 4.93993 0
M  V30 437 H 56.3617 -3.6268 6.08168 0
M  V30 438 H 56.7697 -3.60947 4.34025 0
M  V30 439 N 56.1678 -1.49265 -0.50573 0
M  V30 440 C 57.0778 -1.68312 -1.63427 0
M  V30 441 C 58.0938 -0.565682 -1.64548 0
M  V30 442 O 59.2698 -0.839801 -1.83055 0
M  V30 443 C 56.3348 -1.74107 -2.99813 0
M  V30 444 C 55.3958 -2.97653 -3.09356 0
M  V30 445 C 54.6288 -3.03163 -4.39236 0
M  V30 446 O 54.8518 -2.16396 -5.27758 0
M  V30 447 O 53.7858 -3.9558 -4.53652 0
M  V30 448 H 57.6118 -2.63907 -1.50289 0
M  V30 449 H 55.1968 -1.32951 -0.681502 0
M  V30 450 H 57.0788 -1.803 -3.80881 0
M  V30 451 H 55.7538 -0.816901 -3.13223 0
M  V30 452 H 54.6608 -2.96981 -2.27493 0
M  V30 453 H 55.9938 -3.89535 -3.00871 0
M  V30 454 N 57.6459 0.756429 -1.3826 0
M  V30 455 C 58.5559 1.9009 -1.37488 0
M  V30 456 C 59.5719 1.71855 -0.272366 0
M  V30 457 O 60.7479 1.94827 -0.510318 0
M  V30 458 C 57.8129 3.25421 -1.19592 0
M  V30 459 C 56.8739 3.56202 -2.39622 0
M  V30 460 C 56.1069 4.85075 -2.2257 0
M  V30 461 O 56.3299 5.57246 -1.21793 0
M  V30 462 O 55.2639 5.15269 -3.11098 0
M  V30 463 H 59.0899 1.93695 -2.33914 0
M  V30 464 H 56.6749 0.901313 -1.1915 0
M  V30 465 H 58.5569 4.06337 -1.11661 0
M  V30 466 H 57.2319 3.22634 -0.262486 0
M  V30 467 H 56.1389 2.75458 -2.53128 0
M  V30 468 H 57.4719 3.63747 -3.31586 0
M  V30 469 N 59.124 1.23083 0.984299 0
M  V30 470 C 60.535 1.05609 1.5396 0
M  V30 471 C 60.886 -0.377793 1.92528 0
M  V30 472 O 60.011 -1.26398 1.75649 0
M  V30 473 C 60.606 1.91087 2.7977 0
M  V30 474 C 59.165 1.77885 3.31713 0
M  V30 475 C 58.312 1.87028 2.04733 0
M  V30 476 H 61.263 1.36802 0.804419 0
M  V30 477 H 61.284 1.43336 3.5247 0
M  V30 478 H 60.796 2.9544 2.51668 0
M  V30 479 H 58.897 0.762995 3.64704 0
M  V30 480 H 59.01 2.61047 4.01735 0
M  V30 481 H 57.374 1.30565 2.18689 0
M  V30 482 H 58.157 2.92929 1.79017 0
M  V30 483 N 60.6021 -1.18246 1.0419 0
M  V30 484 C 61.8501 -1.87886 0.744543 0
M  V30 485 C 62.1711 -1.8082 -0.730006 0
M  V30 486 O 61.4411 -1.22736 -1.52685 0
M  V30 487 H 60.0211 -0.695556 0.272417 0
M  V30 488 H 62.6831 -1.43494 1.31892 0
M  V30 489 H 61.7791 -2.9389 1.05049 0
M  V30 490 N 62.0802 -0.821533 -1.34494 0
M  V30 491 C 63.4962 -0.507117 -1.51329 0
M  V30 492 C 63.6962 0.968964 -1.76673 0
M  V30 493 O 62.7522 1.75348 -1.81685 0
M  V30 494 C 64.0652 -1.36544 -2.67911 0
M  V30 495 C 65.6132 -1.36242 -2.81793 0
M  V30 496 C 66.0882 -2.2052 -4.01416 0
M  V30 497 N 67.5792 -2.18136 -4.08621 0
M  V30 498 C 68.3142 -2.80095 -5.00334 0
M  V30 499 N 67.8102 -3.51039 -5.9728 0
M  V30 500 N 69.6032 -2.69656 -4.93196 0
M  V30 501 H 61.7542 -1.77729 -1.16302 0
M  V30 502 H 64.0172 -0.757291 -0.570276 0
M  V30 503 H 63.7232 -2.41361 -2.55808 0
M  V30 504 H 63.5972 -1.02917 -3.62888 0
M  V30 505 H 65.9842 -0.322041 -2.93338 0
M  V30 506 H 66.0652 -1.73866 -1.87628 0
M  V30 507 H 65.7092 -3.24607 -3.90631 0
M  V30 508 H 65.6392 -1.80247 -4.94791 0
M  V30 509 H 68.1302 -1.6653 -3.39229 0
M  V30 510 H 68.4432 -3.95565 -6.63889 0
M  V30 511 H 66.7882 -3.55145 -5.97409 0
M  V30 512 H 69.9792 -2.13808 -4.16418 0
M  V30 513 H 70.1522 -3.1823 -5.64476 0
M  V30 514 N 63.5583 1.46682 -0.576371 0
M  V30 515 C 64.5063 2.31953 0.17335 0
M  V30 516 C 65.5003 1.44098 0.89062 0
M  V30 517 O 66.7063 1.60759 0.809728 0
M  V30 518 H 63.0813 0.748273 0.0747727 0
M  V30 519 H 65.0523 2.93007 -0.564738 0
M  V30 520 C 63.8013 3.27142 1.17786 0
M  V30 521 H 63.1243 3.94719 0.635361 0
M  V30 522 H 64.5643 3.896 1.67296 0
M  V30 523 C 63.0233 2.52036 2.23561 0
M  V30 524 O 63.5533 2.27877 3.3081 0
M  V30 525 N 61.7593 2.12709 1.97998 0
M  V30 526 H 61.3063 2.32557 1.10792 0
M  V30 527 H 61.2643 1.62776 2.68982 0
M  V30 528 N 65.0364 0.313813 1.54444 0
M  V30 529 C 65.9994 -0.54379 2.22656 0
M  V30 530 C 66.9994 -1.05124 1.21678 0
M  V30 531 O 68.1894 -0.945225 1.46325 0
M  V30 532 C 65.3214 -1.75427 2.92298 0
M  V30 533 H 66.5144 0.0523599 2.99854 0
M  V30 534 H 64.0674 0.0647834 1.56166 0
M  V30 535 H 64.8024 -2.38991 2.19211 0
M  V30 536 H 64.5874 -1.39791 3.66334 0
M  V30 537 H 66.0774 -2.36325 3.44297 0
M  V30 538 N 66.5145 -1.57545 0.0417849 0
M  V30 539 C 67.7395 -1.97035 -0.647455 0
M  V30 540 C 68.1645 -0.918775 -1.64135 0
M  V30 541 O 67.5225 0.119006 -1.80909 0
M  V30 542 C 67.5705 -3.35609 -1.31905 0
M  V30 543 O 66.6745 -3.3287 -2.43457 0
M  V30 544 H 66.0155 -0.64211 -0.169086 0
M  V30 545 H 68.5455 -2.04318 0.107399 0
M  V30 546 H 68.5555 -3.72126 -1.67291 0
M  V30 547 H 67.2305 -4.11685 -0.590586 0
M  V30 548 H 65.8075 -3.08087 -2.10088 0
M  V30 549 N 67.9926 0.231505 -1.5589 0
M  V30 550 C 68.9246 1.31006 -1.8807 0
M  V30 551 C 69.9376 1.43539 -0.768145 0
M  V30 552 O 71.1266 1.44614 -1.04638 0
M  V30 553 C 68.2266 2.68688 -2.06543 0
M  V30 554 C 67.3996 2.78228 -3.37502 0
M  V30 555 C 66.4586 3.96857 -3.4553 0
M  V30 556 O 65.4846 3.85662 -4.18633 0
M  V30 557 N 66.6866 5.1072 -2.75944 0
M  V30 558 H 69.4516 1.03731 -2.81176 0
M  V30 559 H 67.0126 0.421573 -1.56315 0
M  V30 560 H 69.0046 3.46412 -2.09239 0
M  V30 561 H 67.5746 2.88605 -1.20109 0
M  V30 562 H 66.7946 1.87059 -3.46991 0
M  V30 563 H 68.0826 2.81564 -4.23791 0
M  V30 564 H 67.4806 5.2271 -2.16311 0
M  V30 565 H 66.0376 5.86523 -2.84314 0
M  V30 566 N 69.4707 1.49531 0.497807 0
M  V30 567 C 70.4187 1.66926 1.61983 0
M  V30 568 C 71.4127 0.535167 1.60724 0
M  V30 569 O 72.6187 0.714896 1.65195 0
M  V30 570 H 68.9937 0.526415 0.537021 0
M  V30 571 H 70.9647 2.61098 1.44465 0
M  V30 572 C 69.7137 1.75602 3.00099 0
M  V30 573 H 69.0367 2.62244 3.01775 0
M  V30 574 H 70.4767 1.91807 3.78135 0
M  V30 575 C 68.9357 0.501543 3.33146 0
M  V30 576 O 69.4657 -0.371342 3.9998 0
M  V30 577 N 67.6717 0.363531 2.88317 0
M  V30 578 H 67.2187 1.07485 2.34104 0
M  V30 579 H 67.1767 -0.474728 3.10795 0
M  V30 580 N 70.9488 -0.749086 1.3866 0
M  V30 581 C 72.1968 -1.50535 1.34847 0
M  V30 582 C 72.5178 -1.94909 -0.0595016 0
M  V30 583 O 71.7878 -1.67973 -1.00806 0
M  V30 584 H 70.3678 -0.558395 0.49619 0
M  V30 585 H 73.0298 -0.890165 1.73384 0
M  V30 586 H 72.1258 -2.39413 2.00219 0
M  V30 587 N 72.4269 -1.23603 -0.977757 0
M  V30 588 C 73.6549 -1.09646 -1.75458 0
M  V30 589 C 74.0699 0.351859 -1.85492 0
M  V30 590 O 73.4269 1.24327 -1.336 0
M  V30 591 C 73.4779 -1.71895 -3.18016 0
M  V30 592 O 73.1989 -3.11063 -3.08498 0
M  V30 593 C 74.6999 -1.63415 -4.12081 0
M  V30 594 H 71.9199 -0.38359 -0.550545 0
M  V30 595 H 74.4639 -1.63507 -1.22824 0
M  V30 596 H 72.6189 -1.22061 -3.67668 0
M  V30 597 H 73.0329 -3.41305 -3.9826 0
M  V30 598 H 74.5069 -2.11669 -5.09804 0
M  V30 599 H 74.9839 -0.593462 -4.35172 0
M  V30 600 H 75.5899 -2.12628 -3.68334 0
M  V30 601 N 73.905 1.17692 -1.04816 0
M  V30 602 C 74.835 2.23777 -0.666791 0
M  V30 603 C 75.816 1.66796 0.33361 0
M  V30 604 O 77.001 1.93039 0.212042 0
M  V30 605 C 74.131 3.47281 -0.0367933 0
M  V30 606 C 73.085 4.17059 -0.961546 0
M  V30 607 C 72.411 5.34342 -0.195626 0
M  V30 608 C 73.711 4.69713 -2.28402 0
M  V30 609 H 75.405 2.55933 -1.55367 0
M  V30 610 H 72.951 1.23019 -0.748484 0
M  V30 611 H 74.904 4.20706 0.241775 0
M  V30 612 H 73.628 3.14381 0.885004 0
M  V30 613 H 72.287 3.45541 -1.22462 0
M  V30 614 H 71.935 4.97692 0.728816 0
M  V30 615 H 71.635 5.81966 -0.811775 0
M  V30 616 H 73.159 6.10553 0.0757473 0
M  V30 617 H 74.573 5.34794 -2.06563 0
M  V30 618 H 72.97 5.279 -2.8538 0
M  V30 619 H 74.04 3.86726 -2.92525 0
M  V30 620 N 75.3831 0.828654 1.34056 0
M  V30 621 C 76.6081 0.431637 2.02859 0
M  V30 622 C 77.0331 -0.956339 1.61975 0
M  V30 623 O 76.3911 -1.62338 0.807228 0
M  V30 624 C 76.4391 0.548323 3.56407 0
M  V30 625 O 75.5431 -0.429556 4.10157 0
M  V30 626 H 74.8841 0.176886 0.640006 0
M  V30 627 H 77.4141 1.12066 1.71179 0
M  V30 628 H 77.4241 0.426196 4.05768 0
M  V30 629 H 76.0991 1.5606 3.8551 0
M  V30 630 H 74.6761 -0.265836 3.71951 0
M  V30 631 N 76.8612 -1.46375 0.584142 0
M  V30 632 C 77.7712 -2.34115 -0.150728 0
M  V30 633 C 78.7872 -1.49838 -0.884567 0
M  V30 634 O 79.9632 -1.82704 -0.847429 0
M  V30 635 C 77.0282 -3.2705 -1.15062 0
M  V30 636 C 76.0892 -4.27228 -0.421293 0
M  V30 637 C 75.3222 -5.15722 -1.37355 0
M  V30 638 O 75.5452 -5.07176 -2.61014 0
M  V30 639 O 74.4792 -5.95383 -0.883355 0
M  V30 640 H 78.3052 -2.98309 0.569708 0
M  V30 641 H 75.8902 -1.45373 0.344535 0
M  V30 642 H 77.7722 -3.84381 -1.72712 0
M  V30 643 H 76.4472 -2.65451 -1.8525 0
M  V30 644 H 75.3542 -3.7358 0.197085 0
M  V30 645 H 76.6872 -4.91616 0.239641 0
M  V30 646 N 78.3393 -0.321999 -1.54275 0
M  V30 647 C 79.5873 0.280489 -2.00144 0
M  V30 648 C 79.9083 1.52777 -1.21178 0
M  V30 649 O 79.1783 1.9338 -0.313187 0
M  V30 650 H 77.7583 0.106632 -0.73935 0
M  V30 651 H 80.4203 -0.438184 -1.8991 0
M  V30 652 H 79.5163 0.537972 -3.07428 0
M  V30 653 N 79.8174 1.5752 -0.0501392 0
M  V30 654 C 80.7494 2.08413 0.95376 0
M  V30 655 C 81.7624 1.01175 1.27544 0
M  V30 656 O 82.9514 1.28744 1.23641 0
M  V30 657 C 80.0514 2.51138 2.27559 0
M  V30 658 C 79.2244 3.817 2.13598 0
M  V30 659 C 78.2834 4.10749 3.28895 0
M  V30 660 O 77.3094 4.80685 3.04845 0
M  V30 661 N 78.5114 3.62579 4.5334 0
M  V30 662 H 81.2764 2.95165 0.519383 0
M  V30 663 H 78.8374 1.61327 0.136127 0
M  V30 664 H 80.8294 2.67648 3.03557 0
M  V30 665 H 79.3994 1.6964 2.62567 0
M  V30 666 H 78.6194 3.74782 1.22197 0
M  V30 667 H 79.9074 4.67201 2.01496 0
M  V30 668 H 79.3054 3.06039 4.75769 0
M  V30 669 H 77.8624 3.84329 5.26436 0
M  V30 670 N 81.2955 -0.223234 1.56011 0
M  V30 671 C 82.5435 -0.946003 1.78592 0
M  V30 672 C 82.8645 -1.84936 0.618349 0
M  V30 673 O 82.1345 -1.92473 -0.364833 0
M  V30 674 H 80.7145 -0.352298 0.658707 0
M  V30 675 H 83.3765 -0.235494 1.93472 0
M  V30 676 H 82.4725 -1.55381 2.70672 0
M  V30 677 N 82.7736 -1.49793 -0.48987 0
M  V30 678 C 83.9986 -1.63836 -1.27172 0
M  V30 679 C 84.4236 -0.31402 -1.8546 0
M  V30 680 O 83.7816 0.719803 -1.66399 0
M  V30 681 C 83.8296 -2.71797 -2.36978 0
M  V30 682 O 82.9336 -2.31744 -3.41128 0
M  V30 683 H 82.2746 -0.547997 -0.37496 0
M  V30 684 H 84.8046 -1.96053 -0.585191 0
M  V30 685 H 84.8146 -2.94305 -2.82575 0
M  V30 686 H 83.4896 -3.67923 -1.93921 0
M  V30 687 H 82.0666 -2.1961 -3.01373 0
M  V30 688 N 84.2517 0.741722 -1.39055 0
M  V30 689 C 85.2147 1.83733 -1.37021 0
M  V30 690 C 86.2147 1.58542 -0.268534 0
M  V30 691 O 87.4047 1.66067 -0.526076 0
M  V30 692 C 84.5367 3.2141 -1.13617 0
M  V30 693 H 85.7297 1.86941 -2.34506 0
M  V30 694 H 83.2827 0.944676 -1.24521 0
M  V30 695 H 84.0177 3.23865 -0.167863 0
M  V30 696 H 83.8027 3.4109 -1.93391 0
M  V30 697 H 85.2927 4.01477 -1.14918 0
M  V30 698 N 85.7298 1.2412 0.971189 0
M  V30 699 C 86.9788 1.07284 1.70801 0
M  V30 700 C 87.2918 -0.388902 1.91695 0
M  V30 701 O 88.4978 -0.677379 2.62914 0
M  V30 702 C 86.9538 1.87145 3.07416 0
M  V30 703 C 86.5618 3.37707 2.94377 0
M  V30 704 C 88.3058 1.78828 3.84995 0
M  V30 705 C 86.2128 4.09925 4.26281 0
M  V30 706 H 85.1428 0.397854 0.64049 0
M  V30 707 H 87.7938 1.4817 1.0825 0
M  V30 708 H 86.1758 1.39071 3.70777 0
M  V30 709 H 87.3498 3.93335 2.4005 0
M  V30 710 H 85.6648 3.46938 2.30267 0
M  V30 711 H 88.2618 2.30089 4.82662 0
M  V30 712 H 88.6048 0.75284 4.09436 0
M  V30 713 H 89.1378 2.24563 3.28354 0
M  V30 714 H 85.8768 5.13813 4.07033 0
M  V30 715 H 85.3968 3.59083 4.80437 0
M  V30 716 H 87.0758 4.1673 4.94919 0
M  V30 717 N 87.2079 -1.17134 1.05439 0
M  V30 718 C 88.1379 -2.2342 0.678649 0
M  V30 719 C 89.1189 -1.66971 -0.32476 0
M  V30 720 O 90.3039 -1.93149 -0.201802 0
M  V30 721 C 87.4339 -3.47256 0.0552099 0
M  V30 722 C 86.3879 -4.16543 0.98365 0
M  V30 723 C 85.7139 -5.34231 0.223961 0
M  V30 724 C 87.0139 -4.68495 2.3089 0
M  V30 725 H 88.7079 -2.55105 1.56722 0
M  V30 726 H 86.2539 -1.2262 0.754998 0
M  V30 727 H 88.2069 -4.20828 -0.21946 0
M  V30 728 H 86.9309 -3.14846 -0.868319 0
M  V30 729 H 85.5899 -3.44887 1.24293 0
M  V30 730 H 85.2379 -4.98071 -0.702412 0
M  V30 731 H 84.9379 -5.81527 0.842627 0
M  V30 732 H 86.4619 -6.10585 -0.0433671 0
M  V30 733 H 87.8759 -5.33691 2.09396 0
M  V30 734 H 86.2729 -5.26379 2.88176 0
M  V30 735 H 87.3429 -3.85169 2.94572 0
M  V30 736 N 88.686 -0.835752 -1.33615 0
M  V30 737 C 89.935 -0.426289 -1.97144 0
M  V30 738 C 90.248 1.01912 -1.66953 0
M  V30 739 O 91.454 1.53311 -2.24072 0
M  V30 740 C 89.91 -0.711321 -3.52801 0
M  V30 741 C 89.518 -2.1712 -3.91871 0
M  V30 742 C 91.262 -0.368654 -4.22896 0
M  V30 743 C 89.169 -2.40044 -5.40493 0
M  V30 744 H 88.099 -0.15567 -0.737755 0
M  V30 745 H 90.75 -1.0239 -1.52278 0
M  V30 746 H 89.132 -0.0433766 -3.95976 0
M  V30 747 H 90.306 -2.87936 -3.59763 0
M  V30 748 H 88.621 -2.47654 -3.34749 0
M  V30 749 H 91.218 -0.517601 -5.32189 0
M  V30 750 H 91.561 0.688078 -4.10574 0
M  V30 751 H 92.094 -0.991702 -3.8524 0
M  V30 752 H 88.833 -3.44271 -5.57815 0
M  V30 753 H 88.353 -1.73785 -5.74072 0
M  V30 754 H 90.032 -2.23042 -6.0734 0
M  V30 755 N 90.1641 1.46063 -0.591896 0
M  V30 756 C 91.3891 2.07226 -0.0850314 0
M  V30 757 C 91.8141 1.43625 1.21463 0
M  V30 758 O 91.1721 0.523305 1.73583 0
M  V30 759 C 91.2201 3.60554 0.0576567 0
M  V30 760 O 90.3241 3.97128 1.11188 0
M  V30 761 H 89.6651 0.660615 -0.0669568 0
M  V30 762 H 92.1951 1.8756 -0.81745 0
M  V30 763 H 92.2051 4.07165 0.2609 0
M  V30 764 H 90.8801 4.06235 -0.891416 0
M  V30 765 H 89.4571 3.62213 0.886356 0
M  V30 766 N 91.6422 0.330177 1.54103 0
M  V30 767 C 92.8892 -0.270405 2.00686 0
M  V30 768 C 93.2172 -1.51621 1.21825 0
M  V30 769 O 92.4722 -1.93536 0.29025 0
M  V30 770 C 92.7712 -0.643134 3.51566 0
M  V30 771 C 92.4372 0.504251 4.48072 0
M  V30 772 C 91.0992 0.819163 4.74176 0
M  V30 773 C 93.4512 1.27465 5.05373 0
M  V30 774 C 90.7792 1.90708 5.5484 0
M  V30 775 C 93.1312 2.35271 5.87223 0
M  V30 776 C 91.7952 2.67336 6.11627 0
M  V30 777 H 91.0652 -0.0989482 0.734364 0
M  V30 778 H 93.7122 0.455324 1.86008 0
M  V30 779 H 92.0172 -1.44938 3.64006 0
M  V30 780 H 93.7142 -1.11949 3.85056 0
M  V30 781 H 90.3042 0.248733 4.27878 0
M  V30 782 H 94.4882 1.04462 4.85182 0
M  V30 783 H 89.7442 2.15991 5.71977 0
M  V30 784 H 93.9182 2.95405 6.30641 0
M  V30 785 H 91.5452 3.51763 6.73919 0
M  V30 786 N 93.1203 -1.57491 0.0584922 0
M  V30 787 C 94.3693 -1.92155 -0.613146 0
M  V30 788 C 94.6823 -0.939334 -1.71569 0
M  V30 789 O 95.8883 -1.17829 -2.44599 0
M  V30 790 C 94.3443 -3.41303 -1.14195 0
M  V30 791 C 93.9523 -4.47944 -0.0711265 0
M  V30 792 C 95.6963 -3.84988 -1.78841 0
M  V30 793 C 93.6033 -5.88212 -0.613225 0
M  V30 794 H 92.5333 -0.717162 -0.232796 0
M  V30 795 H 95.1843 -1.83049 0.12857 0
M  V30 796 H 93.5663 -3.45437 -1.93621 0
M  V30 797 H 94.7403 -4.55408 0.702836 0
M  V30 798 H 93.0553 -4.13644 0.478313 0
M  V30 799 H 95.6523 -4.87159 -2.20408 0
M  V30 800 H 95.9953 -3.21632 -2.64308 0
M  V30 801 H 96.5283 -3.83401 -1.06059 0
M  V30 802 H 93.2673 -6.55183 0.203978 0
M  V30 803 H 92.7873 -5.84294 -1.35501 0
M  V30 804 H 94.4663 -6.37687 -1.09383 0
M  V30 805 N 94.5984 0.214957 -1.56127 0
M  V30 806 C 95.8284 0.953707 -1.8327 0
M  V30 807 C 96.2364 1.78181 -0.636262 0
M  V30 808 O 95.5794 1.79191 0.404516 0
M  V30 809 C 95.6414 1.91516 -3.0424 0
M  V30 810 C 95.3054 1.27094 -4.38972 0
M  V30 811 C 96.3024 0.657575 -5.15725 0
M  V30 812 C 93.9874 1.28073 -4.85698 0
M  V30 813 C 95.9814 0.0625968 -6.37369 0
M  V30 814 C 93.6684 0.681914 -6.07283 0
M  V30 815 C 94.6664 0.0739046 -6.8296 0
M  V30 816 O 94.3544 -0.515582 -8.02245 0
M  V30 817 H 94.0864 0.284764 -0.613095 0
M  V30 818 H 96.6404 0.233283 -2.04071 0
M  V30 819 H 94.8704 2.67475 -2.79274 0
M  V30 820 H 96.5594 2.52001 -3.18198 0
M  V30 821 H 97.3254 0.642288 -4.80728 0
M  V30 822 H 93.2044 1.74337 -4.26764 0
M  V30 823 H 96.7484 -0.412593 -6.96379 0
M  V30 824 H 92.6454 0.694636 -6.41752 0
M  V30 825 H 93.4134 -0.410544 -8.1747 0
M  V30 826 N 96.0765 1.50051 0.48192 0
M  V30 827 C 97.3015 1.64508 1.26301 0
M  V30 828 C 97.7265 0.323851 1.85291 0
M  V30 829 O 97.0845 -0.710969 1.66778 0
M  V30 830 C 97.1325 2.7305 2.35533 0
M  V30 831 O 96.2365 2.3355 3.39895 0
M  V30 832 H 95.5775 0.549978 0.372048 0
M  V30 833 H 98.1075 1.9636 0.574786 0
M  V30 834 H 98.1175 2.95799 2.8101 0
M  V30 835 H 96.7925 3.68946 1.91967 0
M  V30 836 H 95.3695 2.21205 3.00204 0
M  V30 837 N 97.5546 -0.734337 1.39446 0
M  V30 838 C 98.8006 -1.49613 1.36908 0
M  V30 839 C 99.1336 -1.94169 -0.0347829 0
M  V30 840 O 98.4086 -1.66833 -0.999847 0
M  V30 841 C 98.6916 -2.73534 2.34203 0
M  V30 842 C 98.5446 -2.34993 3.83534 0
M  V30 843 C 99.8636 -3.75635 2.29317 0
M  V30 844 H 96.9826 -0.542714 0.498629 0
M  V30 845 H 99.6246 -0.839597 1.70443 0
M  V30 846 H 97.7746 -3.29553 2.05736 0
M  V30 847 H 99.4466 -1.84601 4.22753 0
M  V30 848 H 97.6896 -1.67213 4.00278 0
M  V30 849 H 98.3606 -3.23738 4.47099 0
M  V30 850 H 100.837 -3.29203 2.54489 0
M  V30 851 H 99.7126 -4.60008 2.99472 0
M  V30 852 H 99.9736 -4.22603 1.29842 0
M  V30 853 N 99.0327 -1.24633 -0.964593 0
M  V30 854 C 100.279 -1.08949 -1.71049 0
M  V30 855 C 100.612 0.370302 -1.90637 0
M  V30 856 O 99.8867 1.27349 -1.47011 0
M  V30 857 C 100.17 -1.83329 -3.0994 0
M  V30 858 C 100.023 -3.37077 -2.97824 0
M  V30 859 C 101.342 -1.60846 -4.09654 0
M  V30 860 H 98.4607 -0.397178 -0.620821 0
M  V30 861 H 101.103 -1.5334 -1.12191 0
M  V30 862 H 99.2527 -1.45597 -3.60186 0
M  V30 863 H 100.925 -3.84425 -2.5498 0
M  V30 864 H 99.1677 -3.65298 -2.33965 0
M  V30 865 H 99.8387 -3.84324 -3.96231 0
M  V30 866 H 102.315 -1.93674 -3.68279 0
M  V30 867 H 101.191 -2.1534 -5.04896 0
M  V30 868 H 101.452 -0.547434 -4.38698 0
M  V30 869 N 100.511 1.16574 -1.06058 0
M  V30 870 C 101.751 1.88723 -0.78504 0
M  V30 871 C 102.115 1.79706 0.676006 0
M  V30 872 O 103.316 2.46757 1.06603 0
M  V30 873 C 101.587 3.34338 -1.26304 0
M  V30 874 S 103.146 4.24366 -1.1162 0
M  V30 875 H 99.9638 0.651448 -0.284846 0
M  V30 876 H 102.566 1.40732 -1.35701 0
M  V30 877 H 101.27 3.38439 -2.32136 0
M  V30 878 H 100.801 3.87378 -0.685719 0
M  V30 879 H 102.816 4.96179 -0.0456539 0
M  V30 880 N 101.989 0.842826 1.3317 0
M  V30 881 C 102.919 0.294028 2.31641 0
M  V30 882 C 103.9 -0.600401 1.59151 0
M  V30 883 O 105.085 -0.523124 1.87022 0
M  V30 884 C 102.215 -0.528416 3.43257 0
M  V30 885 C 101.169 0.27056 4.27144 0
M  V30 886 C 100.495 -0.675881 5.30411 0
M  V30 887 C 101.795 1.48981 5.00602 0
M  V30 888 H 103.489 1.11681 2.77791 0
M  V30 889 H 101.035 0.538478 1.33553 0
M  V30 890 H 102.988 -0.922674 4.11175 0
M  V30 891 H 101.712 -1.38445 2.95805 0
M  V30 892 H 100.371 0.646427 3.60856 0
M  V30 893 H 100.019 -1.52842 4.79216 0
M  V30 894 H 99.7189 -0.145374 5.8742 0
M  V30 895 H 101.243 -1.06757 6.01195 0
M  V30 896 H 102.657 1.16849 5.61266 0
M  V30 897 H 101.054 1.95739 5.6728 0
M  V30 898 H 102.124 2.25746 4.29147 0
M  V30 899 N 103.467 -1.45747 0.599634 0
M  V30 900 C 104.713 -2.02592 0.0918643 0
M  V30 901 C 105.046 -1.46806 -1.27128 0
M  V30 902 O 104.321 -0.639658 -1.83681 0
M  V30 903 C 104.604 -3.60073 0.0443398 0
M  V30 904 C 104.457 -4.26208 1.43759 0
M  V30 905 C 105.776 -4.35309 -0.647608 0
M  V30 906 H 102.895 -0.736175 0.034857 0
M  V30 907 H 105.537 -1.73694 0.770081 0
M  V30 908 H 103.687 -3.84823 -0.533224 0
M  V30 909 H 105.359 -4.12668 2.06162 0
M  V30 910 H 103.602 -3.84916 2.00056 0
M  V30 911 H 104.273 -5.35069 1.35665 0
M  V30 912 H 106.749 -4.15805 -0.156776 0
M  V30 913 H 105.625 -5.45038 -0.649942 0
M  V30 914 H 105.886 -4.07598 -1.71219 0
M  V30 915 N 104.945 -0.338344 -1.53925 0
M  V30 916 C 106.193 0.259245 -2.0043 0
M  V30 917 C 106.514 1.51484 -1.22791 0
M  V30 918 O 105.784 1.93037 -0.33368 0
M  V30 919 H 104.364 0.0987845 -0.740439 0
M  V30 920 H 107.026 -0.458302 -1.89435 0
M  V30 921 H 106.122 0.505334 -3.07982 0
M  V30 922 N 106.423 1.57458 -0.0668435 0
M  V30 923 C 107.353 2.15468 0.899764 0
M  V30 924 C 108.334 1.08042 1.31381 0
M  V30 925 O 109.519 1.36054 1.38574 0
M  V30 926 C 106.649 2.71232 2.16911 0
M  V30 927 C 105.603 3.83781 1.89463 0
M  V30 928 C 104.929 4.26127 3.22986 0
M  V30 929 C 106.229 5.08238 1.20381 0
M  V30 930 H 107.923 2.96488 0.416529 0
M  V30 931 H 105.469 1.4262 0.198908 0
M  V30 932 H 107.422 3.10458 2.84945 0
M  V30 933 H 106.146 1.87426 2.67468 0
M  V30 934 H 104.805 3.45051 1.23836 0
M  V30 935 H 104.453 3.39249 3.71374 0
M  V30 936 H 104.153 5.01993 3.05413 0
M  V30 937 H 105.677 4.67966 3.92225 0
M  V30 938 H 107.091 5.44811 1.78475 0
M  V30 939 H 105.488 5.89349 1.13083 0
M  V30 940 H 106.558 4.84558 0.182153 0
M  V30 941 N 107.901 -0.206675 1.56239 0
M  V30 942 C 109.141 -0.93574 1.81723 0
M  V30 943 C 109.505 -1.80927 0.642609 0
M  V30 944 O 110.706 -2.57323 0.777081 0
M  V30 945 C 108.977 -1.74012 3.12177 0
M  V30 946 S 110.536 -2.52279 3.59028 0
M  V30 947 H 107.354 -0.314065 0.637875 0
M  V30 948 H 109.956 -0.200071 1.94474 0
M  V30 949 H 108.66 -1.0888 3.95693 0
M  V30 950 H 108.191 -2.51782 3.02274 0
M  V30 951 H 110.206 -3.76209 3.23545 0
M  V30 952 N 109.379 -1.50304 -0.473955 0
M  V30 953 C 110.627 -1.60832 -1.22382 0
M  V30 954 C 110.948 -0.30939 -1.9253 0
M  V30 955 O 110.218 0.67296 -1.83978 0
M  V30 956 H 108.798 -0.592652 -0.454723 0
M  V30 957 H 111.46 -1.87068 -0.546968 0
M  V30 958 H 110.556 -2.41803 -1.97327 0
M  V30 959 N 110.857 0.726932 -1.39834 0
M  V30 960 C 111.805 1.86235 -1.39353 0
M  V30 961 C 112.799 1.67144 -0.275555 0
M  V30 962 O 114.005 1.74387 -0.44601 0
M  V30 963 H 110.38 0.613174 -0.43534 0
M  V30 964 H 112.351 1.83756 -2.35109 0
M  V30 965 C 111.1 3.23995 -1.26185 0
M  V30 966 H 110.423 3.39285 -2.11484 0
M  V30 967 H 111.863 4.03609 -1.29907 0
M  V30 968 C 110.322 3.36888 0.0290018 0
M  V30 969 O 110.852 3.89152 0.99619 0
M  V30 970 N 109.058 2.90446 0.0947437 0
M  V30 971 H 108.605 2.48102 -0.693035 0
M  V30 972 H 108.563 2.99451 0.957932 0
M  V30 973 N 112.336 1.25143 0.95797 0
M  V30 974 C 113.561 1.12521 1.74223 0
M  V30 975 C 113.986 -0.317402 1.85403 0
M  V30 976 O 113.344 -1.2299 1.33204 0
M  V30 977 C 113.392 1.78062 3.1357 0
M  V30 978 O 112.496 1.058 3.98598 0
M  V30 979 H 111.837 0.39304 0.535178 0
M  V30 980 H 114.367 1.65641 1.201 0
M  V30 981 H 114.377 1.84213 3.64046 0
M  V30 982 H 113.052 2.83021 3.04749 0
M  V30 983 H 111.629 1.07506 3.57067 0
M  V30 984 N 113.814 -1.1601 1.06675 0
M  V30 985 C 114.747 -2.1947 0.625168 0
M  V30 986 C 115.725 -1.58699 -0.354041 0
M  V30 987 O 116.909 -1.86669 -0.262098 0
M  V30 988 C 114.036 -3.38598 -0.0829593 0
M  V30 989 C 113.082 -4.1787 0.853611 0
M  V30 990 S 113.915 -4.81135 2.35094 0
M  V30 991 C 115.071 -6.03639 1.65441 0
M  V30 992 H 115.304 -2.56587 1.50168 0
M  V30 993 H 112.837 -1.26862 0.880078 0
M  V30 994 H 114.795 -4.07621 -0.485288 0
M  V30 995 H 113.456 -2.99839 -0.935716 0
M  V30 996 H 112.649 -5.03078 0.304755 0
M  V30 997 H 112.251 -3.54361 1.196 0
M  V30 998 H 114.543 -6.70632 0.962201 0
M  V30 999 H 115.486 -6.63081 2.48454 0
M  V30 1000 H 115.894 -5.52965 1.13534 0
M  V30 1001 N 115.292 -0.849877 -1.32721 0
M  V30 1002 C 116.538 -0.451591 -1.97708 0
M  V30 1003 C 116.871 0.989175 -1.6712 0
M  V30 1004 O 116.146 1.69334 -0.956891 0
M  V30 1005 C 116.429 -0.685598 -3.53513 0
M  V30 1006 C 116.282 -2.17444 -3.93749 0
M  V30 1007 C 117.601 -0.138874 -4.39881 0
M  V30 1008 H 114.72 -0.16555 -0.718166 0
M  V30 1009 H 117.362 -1.06742 -1.57182 0
M  V30 1010 H 115.512 -0.161416 -3.88165 0
M  V30 1011 H 117.184 -2.76433 -3.693 0
M  V30 1012 H 115.427 -2.65476 -3.43081 0
M  V30 1013 H 116.098 -2.28888 -5.02309 0
M  V30 1014 H 118.574 -0.587068 -4.11938 0
M  V30 1015 H 117.45 -0.332213 -5.47894 0
M  V30 1016 H 117.711 0.95806 -4.31594 0
M  V30 1017 N 116.77 1.45427 -0.607355 0
M  V30 1018 C 118.019 2.01452 -0.100036 0
M  V30 1019 C 118.332 1.48159 1.27704 0
M  V30 1020 O 119.538 1.96159 1.87707 0
M  V30 1021 C 117.994 3.59672 -0.128158 0
M  V30 1022 C 117.602 4.21962 -1.50507 0
M  V30 1023 C 119.346 4.23262 0.323932 0
M  V30 1024 C 117.253 5.72333 -1.48959 0
M  V30 1025 H 116.183 0.75325 -0.0336299 0
M  V30 1026 H 118.834 1.66901 -0.76265 0
M  V30 1027 H 117.216 3.91411 0.601105 0
M  V30 1028 H 118.39 4.01796 -2.25602 0
M  V30 1029 H 116.705 3.70565 -1.89923 0
M  V30 1030 H 119.302 5.33522 0.354691 0
M  V30 1031 H 119.645 3.93921 1.34656 0
M  V30 1032 H 120.178 3.96239 -0.352056 0
M  V30 1033 H 116.917 6.06373 -2.48981 0
M  V30 1034 H 116.437 5.94691 -0.781214 0
M  V30 1035 H 118.116 6.35525 -1.21313 0
M  V30 1036 N 118.248 0.346503 1.53744 0
M  V30 1037 C 119.478 -0.250047 2.05081 0
M  V30 1038 C 119.886 -1.44529 1.22098 0
M  V30 1039 O 119.229 -1.81992 0.249917 0
M  V30 1040 C 119.291 -0.725934 3.52094 0
M  V30 1041 C 118.955 0.350053 4.55657 0
M  V30 1042 C 119.952 1.19372 5.0601 0
M  V30 1043 C 117.637 0.504827 4.99757 0
M  V30 1044 C 119.631 2.17768 5.99046 0
M  V30 1045 C 117.318 1.49218 5.92602 0
M  V30 1046 C 118.316 2.32706 6.42135 0
M  V30 1047 O 118.004 3.2976 7.33153 0
M  V30 1048 H 117.736 -0.0515469 0.674032 0
M  V30 1049 H 120.29 0.497559 1.99282 0
M  V30 1050 H 118.52 -1.52483 3.55367 0
M  V30 1051 H 120.209 -1.24336 3.86388 0
M  V30 1052 H 120.975 1.08525 4.72702 0
M  V30 1053 H 116.854 -0.135178 4.60802 0
M  V30 1054 H 120.398 2.82971 6.37631 0
M  V30 1055 H 116.295 1.6012 6.25325 0
M  V30 1056 H 117.063 3.25265 7.51096 0
M  V30 1057 N 119.726 -1.57421 0.075193 0
M  V30 1058 C 120.972 -1.93905 -0.594025 0
M  V30 1059 C 121.305 -0.955701 -1.69056 0
M  V30 1060 O 120.58 0.0145373 -1.94495 0
M  V30 1061 C 120.863 -3.40638 -1.1678 0
M  V30 1062 C 120.716 -4.49733 -0.0776792 0
M  V30 1063 C 122.035 -3.88259 -2.07228 0
M  V30 1064 H 119.154 -0.705105 -0.214466 0
M  V30 1065 H 121.796 -1.8947 0.141854 0
M  V30 1066 H 119.946 -3.44549 -1.79494 0
M  V30 1067 H 121.618 -4.57942 0.555573 0
M  V30 1068 H 119.861 -4.29751 0.591286 0
M  V30 1069 H 120.532 -5.49549 -0.519603 0
M  V30 1070 H 123.008 -3.86376 -1.54445 0
M  V30 1071 H 121.884 -4.91533 -2.44308 0
M  V30 1072 H 122.145 -3.26396 -2.98191 0
M  V30 1073 N 121.204 0.198386 -1.56346 0
M  V30 1074 C 122.453 0.917451 -1.79627 0
M  V30 1075 C 122.766 1.8456 -0.64784 0
M  V30 1076 O 123.972 2.60504 -0.764859 0
M  V30 1077 C 122.428 1.68175 -3.18191 0
M  V30 1078 C 122.036 0.798589 -4.40825 0
M  V30 1079 C 123.78 2.39065 -3.50782 0
M  V30 1080 C 121.687 1.56157 -5.70411 0
M  V30 1081 H 120.617 0.346317 -0.669762 0
M  V30 1082 H 123.268 0.170801 -1.82703 0
M  V30 1083 H 121.65 2.47216 -3.09354 0
M  V30 1084 H 122.824 0.0470665 -4.60776 0
M  V30 1085 H 121.139 0.200686 -4.15916 0
M  V30 1086 H 123.736 2.96692 -4.44835 0
M  V30 1087 H 124.079 3.13091 -2.74371 0
M  V30 1088 H 124.612 1.66993 -3.61052 0
M  V30 1089 H 121.351 0.864142 -6.49779 0
M  V30 1090 H 120.871 2.2871 -5.54483 0
M  V30 1091 H 122.55 2.11622 -6.11412 0
M  V30 1092 N 122.682 1.50554 0.465978 0
M  V30 1093 C 123.612 1.72722 1.57128 0
M  V30 1094 C 124.593 0.576294 1.6004 0
M  V30 1095 O 125.778 0.81598 1.76225 0
M  V30 1096 C 122.908 1.82605 2.95419 0
M  V30 1097 C 121.862 2.97835 3.07373 0
M  V30 1098 C 121.188 2.92867 4.47363 0
M  V30 1099 C 122.488 4.38265 2.84114 0
M  V30 1100 H 124.182 2.65267 1.38829 0
M  V30 1101 H 121.728 1.2765 0.666441 0
M  V30 1102 H 123.681 1.96698 3.72677 0
M  V30 1103 H 122.405 0.866858 3.14886 0
M  V30 1104 H 121.064 2.83401 2.3255 0
M  V30 1105 H 120.712 1.94783 4.63755 0
M  V30 1106 H 120.412 3.70227 4.56296 0
M  V30 1107 H 121.936 3.09015 5.26633 0
M  V30 1108 H 123.35 4.53198 3.51118 0
M  V30 1109 H 121.747 5.17115 3.04487 0
M  V30 1110 H 122.817 4.50281 1.7993 0
M  V30 1111 N 124.16 -0.719506 1.40217 0
M  V30 1112 C 125.576 -1.02707 1.22161 0
M  V30 1113 C 125.776 -2.0128 0.0940557 0
M  V30 1114 O 124.832 -2.46452 -0.549318 0
M  V30 1115 C 126.145 -1.57454 2.56181 0
M  V30 1116 C 127.693 -1.69458 2.63159 0
M  V30 1117 C 128.168 -2.27611 3.97438 0
M  V30 1118 N 129.659 -2.35002 3.99159 0
M  V30 1119 C 130.394 -2.80972 4.99842 0
M  V30 1120 N 129.89 -3.26723 6.10921 0
M  V30 1121 N 131.683 -2.80321 4.87213 0
M  V30 1122 H 123.834 -0.0660492 2.12297 0
M  V30 1123 H 126.097 -0.0919077 0.943534 0
M  V30 1124 H 125.803 -0.924873 3.39321 0
M  V30 1125 H 125.677 -2.56036 2.76993 0
M  V30 1126 H 128.064 -2.33543 1.80393 0
M  V30 1127 H 128.145 -0.694867 2.46181 0
M  V30 1128 H 127.789 -1.6415 4.80643 0
M  V30 1129 H 127.719 -3.2829 4.11744 0
M  V30 1130 H 130.21 -2.02685 3.18947 0
M  V30 1131 H 130.523 -3.60355 6.8364 0
M  V30 1132 H 128.868 -3.24692 6.14492 0
M  V30 1133 H 132.059 -2.43912 3.9953 0
M  V30 1134 H 132.232 -3.15831 5.65822 0
M  V30 1135 N 125.638 -1.25649 -0.95132 0
M  V30 1136 C 126.868 -1.13179 -1.72841 0
M  V30 1137 C 127.276 0.316827 -1.86528 0
M  V30 1138 O 126.619 1.22948 -1.3649 0
M  V30 1139 C 126.681 -1.71644 -3.15878 0
M  V30 1140 C 126.345 -3.20667 -3.25609 0
M  V30 1141 C 127.342 -4.17616 -3.09666 0
M  V30 1142 C 125.027 -3.6094 -3.49324 0
M  V30 1143 C 127.021 -5.52817 -3.17289 0
M  V30 1144 C 124.708 -4.96278 -3.56584 0
M  V30 1145 C 125.706 -5.92025 -3.40581 0
M  V30 1146 O 125.394 -7.24899 -3.47528 0
M  V30 1147 H 125.126 -0.395389 -0.54831 0
M  V30 1148 H 127.68 -1.66566 -1.20187 0
M  V30 1149 H 125.91 -1.12707 -3.69911 0
M  V30 1150 H 127.599 -1.54225 -3.75459 0
M  V30 1151 H 128.365 -3.87842 -2.91211 0
M  V30 1152 H 124.244 -2.86907 -3.6084 0
M  V30 1153 H 127.788 -6.2753 -3.04716 0
M  V30 1154 H 123.685 -5.25716 -3.74556 0
M  V30 1155 H 124.453 -7.33039 -3.64138 0
M  V30 1156 N 127.117 1.15442 -1.07289 0
M  V30 1157 C 128.08 2.18358 -0.696591 0
M  V30 1158 C 129.08 1.58637 0.262837 0
M  V30 1159 O 130.27 1.74145 0.0438809 0
M  V30 1160 C 127.402 3.4089 -0.0266151 0
M  V30 1161 H 128.595 2.53162 -1.60776 0
M  V30 1162 H 126.148 1.29893 -0.869342 0
M  V30 1163 H 126.883 3.11653 0.896822 0
M  V30 1164 H 126.668 3.85495 -0.716657 0
M  V30 1165 H 128.158 4.17009 0.222028 0
M  V30 1166 N 128.595 0.856903 1.32268 0
M  V30 1167 C 129.542 0.301172 2.28827 0
M  V30 1168 C 130.512 -0.593104 1.5515 0
M  V30 1169 O 131.697 -0.527537 1.83362 0
M  V30 1170 C 128.837 -0.502523 3.41422 0
M  V30 1171 C 127.95 0.417797 4.29975 0
M  V30 1172 C 127.085 -0.398749 5.29701 0
M  V30 1173 C 126.124 0.518827 6.09897 0
M  V30 1174 N 125.261 -0.260674 7.01616 0
M  V30 1175 H 130.101 1.12983 2.75751 0
M  V30 1176 H 127.638 0.568582 1.35667 0
M  V30 1177 H 129.596 -0.984141 4.05426 0
M  V30 1178 H 128.226 -1.29599 2.95642 0
M  V30 1179 H 127.278 1.01781 3.66531 0
M  V30 1180 H 128.59 1.12191 4.86019 0
M  V30 1181 H 127.744 -0.943435 5.9932 0
M  V30 1182 H 126.483 -1.13622 4.7428 0
M  V30 1183 H 125.488 1.07538 5.39181 0
M  V30 1184 H 126.713 1.25495 6.67404 0
M  V30 1185 H 124.659 -0.981198 6.4862 0
M  V30 1186 H 124.576 0.384364 7.55022 0
M  V30 1187 H 125.844 -0.787014 7.75517 0
M  V30 1188 N 130.073 -1.45103 0.615059 0
M  V30 1189 C 131.006 -2.27717 -0.148408 0
M  V30 1190 C 131.984 -1.37584 -0.866572 0
M  V30 1191 O 133.168 -1.67017 -0.87393 0
M  V30 1192 C 130.295 -3.16136 -1.21557 0
M  V30 1193 C 129.341 -4.22263 -0.599712 0
M  V30 1194 S 130.174 -5.3215 0.598081 0
M  V30 1195 C 131.33 -6.24137 -0.469484 0
M  V30 1196 H 131.563 -2.92121 0.552483 0
M  V30 1197 H 129.096 -1.49054 0.402778 0
M  V30 1198 H 131.054 -3.67633 -1.82638 0
M  V30 1199 H 129.715 -2.50982 -1.88857 0
M  V30 1200 H 128.908 -4.84081 -1.4029 0
M  V30 1201 H 128.51 -3.73945 -0.063876 0
M  V30 1202 H 130.802 -6.63984 -1.34652 0
M  V30 1203 H 131.745 -7.0801 0.112725 0
M  V30 1204 H 132.153 -5.58971 -0.788168 0
M  V30 1205 N 131.551 -0.354651 -1.53558 0
M  V30 1206 C 132.498 0.496968 -2.25386 0
M  V30 1207 C 133.468 1.0865 -1.25636 0
M  V30 1208 O 134.653 1.12104 -1.54394 0
M  V30 1209 C 131.793 1.63637 -3.03837 0
M  V30 1210 C 130.906 1.07307 -4.18461 0
M  V30 1211 C 130.041 2.18068 -4.84376 0
M  V30 1212 C 129.08 1.59147 -5.91049 0
M  V30 1213 N 128.217 2.63695 -6.50699 0
M  V30 1214 H 133.057 -0.122075 -2.9775 0
M  V30 1215 H 130.594 -0.0720154 -1.46924 0
M  V30 1216 H 132.552 2.30734 -3.47589 0
M  V30 1217 H 131.182 2.22623 -2.33749 0
M  V30 1218 H 130.234 0.292708 -3.79272 0
M  V30 1219 H 131.546 0.602193 -4.95152 0
M  V30 1220 H 130.7 2.93007 -5.31255 0
M  V30 1221 H 129.439 2.68504 -4.07133 0
M  V30 1222 H 128.444 0.827175 -5.43542 0
M  V30 1223 H 129.669 1.09549 -6.70206 0
M  V30 1224 H 127.615 3.13365 -5.76315 0
M  V30 1225 H 127.532 2.21263 -7.22896 0
M  V30 1226 H 128.8 3.3837 -7.02229 0
M  V30 1227 N 133.029 1.57378 -0.0835403 0
M  V30 1228 C 134.257 1.98263 0.59157 0
M  V30 1229 C 134.672 0.962302 1.62435 0
M  V30 1230 O 134.029 -0.049581 1.82433 0
M  V30 1231 C 134.08 3.39214 1.24965 0
M  V30 1232 O 133.801 4.37339 0.258186 0
M  V30 1233 C 135.302 3.95038 2.01147 0
M  V30 1234 H 132.522 0.651773 0.159477 0
M  V30 1235 H 135.066 2.03878 -0.159415 0
M  V30 1236 H 133.221 3.34649 1.95164 0
M  V30 1237 H 133.635 5.19371 0.731734 0
M  V30 1238 H 135.109 4.95848 2.42567 0
M  V30 1239 H 135.586 3.32222 2.87272 0
M  V30 1240 H 136.192 4.0304 1.35789 0
M  V30 1241 N 134.507 -0.190092 1.56449 0
M  V30 1242 C 135.47 -1.21925 1.9408 0
M  V30 1243 C 136.47 -1.38176 0.822431 0
M  V30 1244 O 137.66 -1.35903 1.08977 0
M  V30 1245 C 134.792 -2.58773 2.21922 0
M  V30 1246 H 135.985 -0.897464 2.86157 0
M  V30 1247 H 133.538 -0.43181 1.50217 0
M  V30 1248 H 134.273 -2.95998 1.32499 0
M  V30 1249 H 134.058 -2.48348 3.03424 0
M  V30 1250 H 135.548 -3.32978 2.52022 0
M  V30 1251 N 135.985 -1.50799 -0.457987 0
M  V30 1252 C 137.213 -1.66218 -1.23203 0
M  V30 1253 C 137.628 -0.350894 -1.85511 0
M  V30 1254 O 136.985 0.668546 -1.69814 0
M  V30 1255 C 137.036 -2.76291 -2.33121 0
M  V30 1256 O 136.757 -4.02338 -1.73366 0
M  V30 1257 C 138.258 -3.028 -3.2377 0
M  V30 1258 H 135.478 -0.558361 -0.372121 0
M  V30 1259 H 138.022 -1.97099 -0.545179 0
M  V30 1260 H 136.177 -2.48068 -2.97558 0
M  V30 1261 H 136.591 -4.63312 -2.4585 0
M  V30 1262 H 138.065 -3.8345 -3.97077 0
M  V30 1263 H 138.542 -2.14385 -3.83322 0
M  V30 1264 H 139.148 -3.32604 -2.65056 0
M  V30 1265 N 137.463 0.71206 -1.40597 0
M  V30 1266 C 138.411 1.84746 -1.41321 0
M  V30 1267 C 139.405 1.66842 -0.293268 0
M  V30 1268 O 140.611 1.73904 -0.464481 0
M  V30 1269 H 136.986 0.608522 -0.441819 0
M  V30 1270 H 138.957 1.81252 -2.37045 0
M  V30 1271 C 137.706 3.22638 -1.29614 0
M  V30 1272 H 137.029 3.37023 -2.15071 0
M  V30 1273 H 138.469 4.02209 -1.3418 0
M  V30 1274 C 136.928 3.36899 -0.00673121 0
M  V30 1275 O 137.458 3.90186 0.954859 0
M  V30 1276 N 135.664 2.9053 0.0639327 0
M  V30 1277 H 135.211 2.47353 -0.719311 0
M  V30 1278 H 135.169 3.0045 0.926118 0
M  V30 1279 N 138.941 1.26152 0.944643 0
M  V30 1280 C 140.19 1.10883 1.68487 0
M  V30 1281 C 140.503 -0.348153 1.92477 0
M  V30 1282 O 141.709 -0.621459 2.64292 0
M  V30 1283 C 140.165 1.93624 3.03377 0
M  V30 1284 C 139.773 3.43875 2.87148 0
M  V30 1285 C 141.517 1.86954 3.81115 0
M  V30 1286 C 139.424 4.18875 4.1749 0
M  V30 1287 H 138.354 0.41135 0.631907 0
M  V30 1288 H 141.005 1.50433 1.05082 0
M  V30 1289 H 139.387 1.46904 3.67743 0
M  V30 1290 H 140.561 3.98338 2.31653 0
M  V30 1291 H 138.876 3.51744 2.22856 0
M  V30 1292 H 141.473 2.40275 4.77673 0
M  V30 1293 H 141.816 0.839518 4.07747 0
M  V30 1294 H 142.349 2.31477 3.23517 0
M  V30 1295 H 139.088 5.22332 3.96043 0
M  V30 1296 H 138.608 3.69193 4.72712 0
M  V30 1297 H 140.287 4.27134 4.85968 0
M  V30 1298 N 140.419 -1.14872 1.07899 0
M  V30 1299 C 141.649 -1.89386 0.825631 0
M  V30 1300 C 142.057 -1.78565 -0.625406 0
M  V30 1301 O 141.4 -1.13918 -1.44113 0
M  V30 1302 C 141.462 -3.40206 1.16191 0
M  V30 1303 C 141.126 -3.74812 2.61467 0
M  V30 1304 C 142.123 -3.75367 3.59716 0
M  V30 1305 C 139.808 -4.0495 2.97189 0
M  V30 1306 C 141.802 -4.05574 4.9172 0
M  V30 1307 C 139.489 -4.34821 4.29388 0
M  V30 1308 C 140.487 -4.35116 5.26463 0
M  V30 1309 O 140.175 -4.64267 6.56286 0
M  V30 1310 H 139.907 -0.606894 0.297751 0
M  V30 1311 H 142.461 -1.46438 1.44031 0
M  V30 1312 H 140.691 -3.8358 0.490214 0
M  V30 1313 H 142.38 -3.96018 0.890193 0
M  V30 1314 H 143.146 -3.52176 3.33462 0
M  V30 1315 H 139.025 -4.03876 2.22273 0
M  V30 1316 H 142.569 -4.05719 5.67484 0
M  V30 1317 H 138.466 -4.5748 4.55392 0
M  V30 1318 H 139.234 -4.82007 6.61522 0
M  V30 1319 N 141.898 -0.863906 -1.31812 0
M  V30 1320 C 143.147 -0.46801 -1.96195 0
M  V30 1321 C 143.46 0.983474 -1.69077 0
M  V30 1322 O 144.666 1.48523 -2.27273 0
M  V30 1323 C 143.122 -0.785995 -3.51212 0
M  V30 1324 C 142.73 -2.25383 -3.87178 0
M  V30 1325 C 144.474 -0.458274 -4.22019 0
M  V30 1326 C 142.381 -2.51455 -5.3528 0
M  V30 1327 H 141.311 -0.171283 -0.734287 0
M  V30 1328 H 143.962 -1.05597 -1.50072 0
M  V30 1329 H 142.344 -0.127359 -3.95795 0
M  V30 1330 H 143.518 -2.95502 -3.53575 0
M  V30 1331 H 141.833 -2.54698 -3.2942 0
M  V30 1332 H 144.43 -0.630369 -5.30971 0
M  V30 1333 H 144.773 0.600834 -4.11941 0
M  V30 1334 H 145.306 -1.07319 -3.8305 0
M  V30 1335 H 142.045 -3.56025 -5.50387 0
M  V30 1336 H 141.565 -1.85923 -5.70257 0
M  V30 1337 H 143.244 -2.35874 -6.02472 0
M  V30 1338 N 143.376 1.44774 -0.622745 0
M  V30 1339 C 144.306 2.33382 0.0741861 0
M  V30 1340 C 145.287 1.47719 0.843387 0
M  V30 1341 O 146.472 1.76458 0.810934 0
M  V30 1342 C 143.602 3.30663 1.06204 0
M  V30 1343 C 142.556 4.26079 0.405037 0
M  V30 1344 C 141.882 5.13165 1.5022 0
M  V30 1345 C 143.182 5.1781 -0.683414 0
M  V30 1346 H 144.876 2.91905 -0.665713 0
M  V30 1347 H 142.422 1.40363 -0.321587 0
M  V30 1348 H 144.375 3.9153 1.55827 0
M  V30 1349 H 143.099 2.70331 1.83272 0
M  V30 1350 H 141.758 3.66532 -0.0704683 0
M  V30 1351 H 141.406 4.49191 2.26355 0
M  V30 1352 H 141.106 5.77812 1.06803 0
M  V30 1353 H 142.63 5.76902 2.00041 0
M  V30 1354 H 144.044 5.72661 -0.270631 0
M  V30 1355 H 142.441 5.91015 -1.04023 0
M  V30 1356 H 143.511 4.59326 -1.55395 0
M  V30 1357 N 144.854 0.36279 1.53368 0
M  V30 1358 C 145.802 -0.500155 2.27159 0
M  V30 1359 C 146.796 -1.08575 1.3003 0
M  V30 1360 O 148.002 -1.02927 1.47668 0
M  V30 1361 H 144.377 -0.180009 0.730138 0
M  V30 1362 H 146.348 0.14401 2.98052 0
M  V30 1363 C 145.097 -1.62937 3.07159 0
M  V30 1364 H 144.42 -1.18806 3.8174 0
M  V30 1365 H 145.86 -2.20795 3.61975 0
M  V30 1366 C 144.319 -2.57007 2.17829 0
M  V30 1367 O 144.849 -3.59752 1.78721 0
M  V30 1368 N 143.055 -2.26131 1.82518 0
M  V30 1369 H 142.602 -1.42616 2.14519 0
M  V30 1370 H 142.56 -2.89327 1.23034 0
M  V30 1371 N 146.332 -1.57332 0.0918853 0
M  V30 1372 C 147.262 -2.16872 -0.865371 0
M  V30 1373 C 148.243 -1.10118 -1.29646 0
M  V30 1374 O 149.428 -1.38242 -1.36392 0
M  V30 1375 C 146.558 -2.74649 -2.12569 0
M  V30 1376 C 145.512 -3.86747 -1.83333 0
M  V30 1377 C 144.838 -4.31212 -3.16166 0
M  V30 1378 C 146.138 -5.10089 -1.1228 0
M  V30 1379 H 147.832 -2.97114 -0.369307 0
M  V30 1380 H 145.378 -1.42918 -0.176194 0
M  V30 1381 H 147.331 -3.14952 -2.7997 0
M  V30 1382 H 146.055 -1.91657 -2.64452 0
M  V30 1383 H 144.714 -3.46978 -1.18331 0
M  V30 1384 H 144.362 -3.45115 -3.6593 0
M  V30 1385 H 144.062 -5.06788 -2.97388 0
M  V30 1386 H 145.586 -4.74146 -3.84731 0
M  V30 1387 H 147 -5.47582 -1.69785 0
M  V30 1388 H 145.397 -5.91073 -1.03693 0
M  V30 1389 H 146.467 -4.84786 -0.105041 0
M  V30 1390 N 147.81 0.181792 -1.56548 0
M  V30 1391 C 148.773 1.20894 -1.94724 0
M  V30 1392 C 149.773 1.37738 -0.829747 0
M  V30 1393 O 150.963 1.35323 -1.09697 0
M  V30 1394 C 148.095 2.57593 -2.23291 0
M  V30 1395 H 149.288 0.882275 -2.86629 0
M  V30 1396 H 146.841 0.423838 -1.50444 0
M  V30 1397 H 147.576 2.95291 -1.34067 0
M  V30 1398 H 147.361 2.46735 -3.04736 0
M  V30 1399 H 148.851 3.31637 -2.53785 0
M  V30 1400 N 149.288 1.51039 0.449983 0
M  V30 1401 C 150.537 1.62317 1.19733 0
M  V30 1402 C 150.85 0.339101 1.92638 0
M  V30 1403 O 152.056 0.331069 2.69474 0
M  V30 1404 C 150.512 2.86608 2.17678 0
M  V30 1405 C 150.12 4.21972 1.50479 0
M  V30 1406 C 151.864 3.07239 2.92924 0
M  V30 1407 C 149.771 5.37426 2.46834 0
M  V30 1408 H 148.701 0.604532 0.450619 0
M  V30 1409 H 151.352 1.77494 0.465625 0
M  V30 1410 H 149.734 2.65037 2.94231 0
M  V30 1411 H 150.908 4.53878 0.795716 0
M  V30 1412 H 149.223 4.07117 0.874344 0
M  V30 1413 H 151.82 3.90668 3.65079 0
M  V30 1414 H 152.163 2.19807 3.5354 0
M  V30 1415 H 152.696 3.29091 2.23481 0
M  V30 1416 H 149.435 6.27079 1.90926 0
M  V30 1417 H 148.955 5.09912 3.15832 0
M  V30 1418 H 150.634 5.68862 3.08228 0
M  V30 1419 N 150.766 -0.704594 1.40972 0
M  V30 1420 C 151.729 -1.80035 1.41845 0
M  V30 1421 C 152.729 -1.57774 0.310474 0
M  V30 1422 O 153.919 -1.64613 0.56992 0
M  V30 1423 C 151.051 -3.18284 1.22098 0
M  V30 1424 H 152.244 -1.80658 2.3938 0
M  V30 1425 H 149.797 -0.911329 1.26982 0
M  V30 1426 H 150.532 -3.23306 0.253672 0
M  V30 1427 H 150.317 -3.35843 2.02366 0
M  V30 1428 H 151.807 -3.98289 1.25522 0
M  V30 1429 N 152.244 -1.26651 -0.937939 0
M  V30 1430 C 153.521 -1.0313 -1.66204 0
M  V30 1431 C 153.901 0.437256 -2.06522 0
M  V30 1432 O 153.249 1.41831 -1.79154 0
M  V30 1433 C 153.459 -1.98314 -2.87181 0
M  V30 1434 C 154.807 -2.27107 -3.58758 0
M  V30 1435 O 155.831 -1.96205 -2.97291 0
M  V30 1436 O 154.69 -2.79736 -4.69479 0
M  V30 1437 H 151.784 -0.392384 -0.727986 0
M  V30 1438 H 154.33 -1.37874 -0.989382 0
M  V30 1439 H 153.102 -2.97399 -2.54302 0
M  V30 1440 H 152.725 -1.64068 -3.6217 0
M  V30 1441 N 153.722 1.14298 -1.08507 0
M  V30 1442 C 154.632 2.23027 -0.727753 0
M  V30 1443 C 155.648 1.71952 0.26619 0
M  V30 1444 O 156.824 2.011 0.109882 0
M  V30 1445 C 153.889 3.46403 -0.143541 0
M  V30 1446 C 152.95 4.12413 -1.19223 0
M  V30 1447 C 152.183 5.29899 -0.635798 0
M  V30 1448 O 152.406 5.67796 0.544393 0
M  V30 1449 O 151.34 5.85717 -1.38634 0
M  V30 1450 H 155.166 2.55945 -1.63481 0
M  V30 1451 H 152.751 1.22248 -0.858817 0
M  V30 1452 H 154.633 4.21018 0.179404 0
M  V30 1453 H 153.308 3.15206 0.736659 0
M  V30 1454 H 152.215 3.39667 -1.56772 0
M  V30 1455 H 153.548 4.47718 -2.04474 0
M  V30 1456 N 155.201 0.870884 1.31352 0
M  V30 1457 C 156.131 0.343096 2.30966 0
M  V30 1458 C 157.112 -0.566507 1.60389 0
M  V30 1459 O 158.297 -0.483336 1.88089 0
M  V30 1460 C 155.427 -0.455487 3.443 0
M  V30 1461 C 154.381 0.361103 4.26474 0
M  V30 1462 C 153.707 -0.563221 5.31725 0
M  V30 1463 C 155.007 1.59566 4.97329 0
M  V30 1464 H 156.701 1.17548 2.75359 0
M  V30 1465 H 154.247 0.566686 1.32381 0
M  V30 1466 H 156.2 -0.83525 4.13039 0
M  V30 1467 H 154.924 -1.32139 2.98675 0
M  V30 1468 H 153.583 0.722825 3.59403 0
M  V30 1469 H 153.231 -1.42643 4.82351 0
M  V30 1470 H 152.931 -0.0207409 5.87596 0
M  V30 1471 H 154.455 -0.939808 6.03324 0
M  V30 1472 H 155.869 1.28728 5.58661 0
M  V30 1473 H 154.266 2.07728 5.63 0
M  V30 1474 H 155.336 2.34798 4.24262 0
M  V30 1475 N 156.679 -1.44442 0.630414 0
M  V30 1476 C 157.609 -2.33418 -0.0618083 0
M  V30 1477 C 158.59 -1.48165 -0.835541 0
M  V30 1478 O 159.775 -1.76886 -0.801564 0
M  V30 1479 C 156.905 -3.31222 -1.04449 0
M  V30 1480 C 155.859 -4.26288 -0.382436 0
M  V30 1481 C 155.185 -5.13954 -1.47497 0
M  V30 1482 C 156.485 -5.1744 0.710865 0
M  V30 1483 H 158.179 -2.91548 0.681184 0
M  V30 1484 H 155.725 -1.40191 0.329026 0
M  V30 1485 H 157.678 -3.92351 -1.53748 0
M  V30 1486 H 156.402 -2.71299 -1.81836 0
M  V30 1487 H 155.061 -3.6649 0.0899054 0
M  V30 1488 H 154.709 -4.50385 -2.2397 0
M  V30 1489 H 154.409 -5.7837 -1.03737 0
M  V30 1490 H 155.933 -5.77955 -1.96979 0
M  V30 1491 H 157.347 -5.72509 0.300996 0
M  V30 1492 H 155.744 -5.90455 1.07156 0
M  V30 1493 H 156.814 -4.58496 1.57829 0
M  V30 1494 N 158.157 -0.370918 -1.53173 0
M  V30 1495 C 159.09 0.516727 -2.22273 0
M  V30 1496 C 160.068 1.07877 -1.21661 0
M  V30 1497 O 161.252 1.13389 -1.50583 0
M  V30 1498 C 158.379 1.71346 -2.92161 0
M  V30 1499 C 157.425 1.27838 -4.0689 0
M  V30 1500 S 158.258 0.275217 -5.34792 0
M  V30 1501 C 159.414 1.47816 -6.08195 0
M  V30 1502 H 159.647 -0.0701054 -2.97217 0
M  V30 1503 H 157.18 -0.155038 -1.5362 0
M  V30 1504 H 159.138 2.39988 -3.3304 0
M  V30 1505 H 157.799 2.27156 -2.16931 0
M  V30 1506 H 156.992 2.17141 -4.54825 0
M  V30 1507 H 156.594 0.671105 -3.6793 0
M  V30 1508 H 158.886 2.40831 -6.33251 0
M  V30 1509 H 159.829 1.04008 -7.0042 0
M  V30 1510 H 160.237 1.68663 -5.38714 0
M  V30 1511 N 159.635 1.57281 -0.100228 0
M  V30 1512 C 160.565 2.17328 0.853857 0
M  V30 1513 C 161.546 1.10804 1.2906 0
M  V30 1514 O 162.731 1.38963 1.35657 0
M  V30 1515 C 159.861 2.75772 2.11109 0
M  V30 1516 C 158.815 3.87713 1.81279 0
M  V30 1517 C 158.141 4.32882 3.13874 0
M  V30 1518 C 159.441 5.10677 1.09574 0
M  V30 1519 H 161.135 2.97305 0.353545 0
M  V30 1520 H 158.681 1.43009 0.168612 0
M  V30 1521 H 160.634 3.16433 2.78296 0
M  V30 1522 H 159.358 1.93057 2.63432 0
M  V30 1523 H 158.017 3.476 1.16489 0
M  V30 1524 H 157.665 3.47051 3.64095 0
M  V30 1525 H 157.365 5.08358 2.94696 0
M  V30 1526 H 158.889 4.7618 3.82211 0
M  V30 1527 H 160.303 5.48474 1.66879 0
M  V30 1528 H 158.7 5.91615 1.00557 0
M  V30 1529 H 159.77 4.84835 0.0793299 0
M  V30 1530 N 161.113 -0.173488 1.56642 0
M  V30 1531 C 162.338 -0.910149 1.86363 0
M  V30 1532 C 162.763 -1.75132 0.686318 0
M  V30 1533 O 162.121 -1.77595 -0.364643 0
M  V30 1534 C 162.169 -1.76447 3.14482 0
M  V30 1535 O 161.273 -2.86584 2.96553 0
M  V30 1536 H 160.614 -0.255086 0.613047 0
M  V30 1537 H 163.144 -0.172283 2.03873 0
M  V30 1538 H 163.154 -2.16483 3.45831 0
M  V30 1539 H 161.829 -1.14658 3.99783 0
M  V30 1540 H 160.406 -2.50146 2.76553 0
M  V30 1541 N 162.591 -1.51276 -0.441967 0
M  V30 1542 C 163.837 -1.63958 -1.19355 0
M  V30 1543 C 164.17 -0.352543 -1.90973 0
M  V30 1544 O 163.445 0.647627 -1.83401 0
M  V30 1545 C 163.728 -2.83979 -2.21422 0
M  V30 1546 C 163.581 -4.22646 -1.53918 0
M  V30 1547 C 164.9 -2.99521 -3.22451 0
M  V30 1548 H 162.019 -0.596709 -0.432559 0
M  V30 1549 H 164.661 -1.83748 -0.483398 0
M  V30 1550 H 162.811 -2.67237 -2.81987 0
M  V30 1551 H 164.483 -4.51045 -0.967256 0
M  V30 1552 H 162.726 -4.25558 -0.841615 0
M  V30 1553 H 163.397 -5.02609 -2.28229 0
M  V30 1554 H 165.873 -3.14944 -2.71937 0
M  V30 1555 H 164.749 -3.85072 -3.91166 0
M  V30 1556 H 165.01 -2.11391 -3.88287 0
M  V30 1557 N 164.069 0.697108 -1.41344 0
M  V30 1558 C 165.48 1.27697 -1.36199 0
M  V30 1559 C 165.831 1.9615 -0.0443463 0
M  V30 1560 O 164.956 1.98689 0.857419 0
M  V30 1561 C 165.551 2.32223 -2.46694 0
M  V30 1562 C 164.11 2.8579 -2.44952 0
M  V30 1563 C 163.257 1.59807 -2.26621 0
M  V30 1564 H 166.208 0.491968 -1.50882 0
M  V30 1565 H 166.229 3.1348 -2.15664 0
M  V30 1566 H 165.741 1.82373 -3.42581 0
M  V30 1567 H 163.842 3.3982 -1.52817 0
M  V30 1568 H 163.955 3.36325 -3.41207 0
M  V30 1569 H 162.319 1.8556 -1.7447 0
M  V30 1570 H 163.102 1.11956 -3.24532 0
M  V30 1571 N 165.547 1.27147 0.931209 0
M  V30 1572 C 166.794 1.13278 1.67852 0
M  V30 1573 C 167.122 -0.32204 1.91815 0
M  V30 1574 O 166.377 -1.25224 1.50391 0
M  V30 1575 C 166.676 1.8579 3.05314 0
M  V30 1576 C 166.342 3.35657 3.01073 0
M  V30 1577 C 165.004 3.76536 2.99623 0
M  V30 1578 C 167.356 4.31299 2.92627 0
M  V30 1579 C 164.684 5.11426 2.87506 0
M  V30 1580 C 167.036 5.66242 2.82051 0
M  V30 1581 C 165.7 6.06418 2.7895 0
M  V30 1582 H 164.97 0.414515 0.614214 0
M  V30 1583 H 167.617 1.57712 1.08624 0
M  V30 1584 H 165.922 1.33854 3.68226 0
M  V30 1585 H 167.619 1.72491 3.62005 0
M  V30 1586 H 164.209 3.03146 3.02986 0
M  V30 1587 H 168.393 4.00692 2.92848 0
M  V30 1588 H 163.649 5.41705 2.83489 0
M  V30 1589 H 167.823 6.40026 2.74481 0
M  V30 1590 H 165.45 7.10895 2.69318 0
M  V30 1591 N 167.025 -1.13721 1.09112 0
M  V30 1592 C 167.955 -2.21148 0.749385 0
M  V30 1593 C 168.936 -1.6792 -0.271475 0
M  V30 1594 O 170.121 -1.93693 -0.140251 0
M  V30 1595 C 167.251 -3.46905 0.165659 0
M  V30 1596 C 166.205 -4.13203 1.11567 0
M  V30 1597 C 165.531 -5.33248 0.393809 0
M  V30 1598 C 166.831 -4.60912 2.45678 0
M  V30 1599 H 168.525 -2.4999 1.64758 0
M  V30 1600 H 166.071 -1.20156 0.793626 0
M  V30 1601 H 168.024 -4.21313 -0.085466 0
M  V30 1602 H 166.748 -3.17449 -0.767714 0
M  V30 1603 H 165.407 -3.40758 1.35202 0
M  V30 1604 H 165.055 -5.00054 -0.543599 0
M  V30 1605 H 164.755 -5.78552 1.02721 0
M  V30 1606 H 166.279 -6.10413 0.150908 0
M  V30 1607 H 167.693 -5.26759 2.26269 0
M  V30 1608 H 166.09 -5.16944 3.04776 0
M  V30 1609 H 167.16 -3.75603 3.06677 0
M  V30 1610 N 168.503 -0.877838 -1.30888 0
M  V30 1611 C 169.749 -0.493426 -1.96706 0
M  V30 1612 C 170.082 0.953504 -1.6918 0
M  V30 1613 O 169.357 1.67266 -0.992594 0
M  V30 1614 C 169.64 -0.760429 -3.51979 0
M  V30 1615 C 169.493 -2.25747 -3.89048 0
M  V30 1616 C 170.812 -0.232148 -4.39487 0
M  V30 1617 H 167.931 -0.180746 -0.714493 0
M  V30 1618 H 170.573 -1.10052 -1.54882 0
M  V30 1619 H 168.723 -0.243715 -3.87735 0
M  V30 1620 H 170.395 -2.84204 -3.63354 0
M  V30 1621 H 168.638 -2.72694 -3.37373 0
M  V30 1622 H 169.309 -2.39491 -4.97341 0
M  V30 1623 H 171.785 -0.674314 -4.106 0
M  V30 1624 H 170.661 -0.448355 -5.47066 0
M  V30 1625 H 170.922 0.866297 -4.33529 0
M  V30 1626 N 169.982 1.44106 -0.638065 0
M  V30 1627 C 171.21 2.06336 -0.152615 0
M  V30 1628 C 171.625 1.47731 1.17563 0
M  V30 1629 O 170.982 0.602806 1.72257 0
M  V30 1630 C 171.033 3.61479 -0.0391491 0
M  V30 1631 O 170.754 4.17903 -1.31487 0
M  V30 1632 C 172.255 4.40757 0.474176 0
M  V30 1633 H 169.475 0.665862 -0.0828776 0
M  V30 1634 H 172.019 1.84862 -0.87443 0
M  V30 1635 H 170.174 3.82191 0.633142 0
M  V30 1636 H 170.588 5.11416 -1.16421 0
M  V30 1637 H 172.062 5.49707 0.502562 0
M  V30 1638 H 172.539 4.12697 1.50258 0
M  V30 1639 H 173.145 4.24979 -0.165102 0
M  V30 1640 N 171.46 0.379036 1.52974 0
M  V30 1641 C 172.685 -0.209353 2.06341 0
M  V30 1642 C 173.11 -1.40583 1.24972 0
M  V30 1643 O 172.468 -1.79246 0.272155 0
M  V30 1644 C 172.516 -0.567786 3.56102 0
M  V30 1645 O 171.62 -1.66318 3.77375 0
M  V30 1646 H 170.961 -0.0272919 0.663439 0
M  V30 1647 H 173.491 0.543536 1.97248 0
M  V30 1648 H 173.501 -0.835003 3.99364 0
M  V30 1649 H 172.176 0.307013 4.14765 0
M  V30 1650 H 170.753 -1.39048 3.46006 0
M  V30 1651 N 172.938 -1.57226 0.108567 0
M  V30 1652 C 174.166 -1.99179 -0.559954 0
M  V30 1653 C 174.581 -0.988022 -1.60884 0
M  V30 1654 O 173.938 0.0205512 -1.82488 0
M  V30 1655 C 173.989 -3.41159 -1.19552 0
M  V30 1656 O 173.71 -4.37694 -0.188577 0
M  V30 1657 C 175.211 -3.98188 -1.94837 0
M  V30 1658 H 172.431 -0.654228 -0.149088 0
M  V30 1659 H 174.975 -2.03598 0.19183 0
M  V30 1660 H 173.13 -3.37711 -1.89815 0
M  V30 1661 H 173.544 -5.20469 -0.649014 0
M  V30 1662 H 175.018 -4.99644 -2.34648 0
M  V30 1663 H 175.495 -3.3675 -2.81951 0
M  V30 1664 H 176.101 -4.0515 -1.2936 0
M  V30 1665 N 174.416 0.165178 -1.56732 0
M  V30 1666 C 175.346 1.20651 -1.99914 0
M  V30 1667 C 176.327 1.45827 -0.875705 0
M  V30 1668 O 177.512 1.57057 -1.14223 0
M  V30 1669 C 174.642 2.54401 -2.36427 0
M  V30 1670 C 173.596 2.43782 -3.51787 0
M  V30 1671 C 172.922 3.82078 -3.7406 0
M  V30 1672 C 174.222 1.93732 -4.85041 0
M  V30 1673 H 175.916 0.847534 -2.87154 0
M  V30 1674 H 173.462 0.40625 -1.38151 0
M  V30 1675 H 175.415 3.27458 -2.65234 0
M  V30 1676 H 174.139 2.92098 -1.46103 0
M  V30 1677 H 172.798 1.73178 -3.23117 0
M  V30 1678 H 172.446 4.17179 -2.81017 0
M  V30 1679 H 172.146 3.7584 -4.51684 0
M  V30 1680 H 173.67 4.56712 -4.05274 0
M  V30 1681 H 175.084 2.56569 -5.12684 0
M  V30 1682 H 173.481 1.98428 -5.66345 0
M  V30 1683 H 174.551 0.891962 -4.76626 0
M  V30 1684 N 175.894 1.51508 0.433938 0
M  V30 1685 C 176.824 1.76016 1.53429 0
M  V30 1686 C 177.805 0.610112 1.58782 0
M  V30 1687 O 178.99 0.853177 1.74455 0
M  V30 1688 C 176.12 1.88831 2.9148 0
M  V30 1689 C 175.074 3.04288 3.00987 0
M  V30 1690 C 174.4 3.0229 4.4105 0
M  V30 1691 C 175.7 4.44193 2.74754 0
M  V30 1692 H 177.394 2.68152 1.33171 0
M  V30 1693 H 174.94 1.29035 0.639214 0
M  V30 1694 H 176.893 2.04559 3.6842 0
M  V30 1695 H 175.617 0.933455 3.12976 0
M  V30 1696 H 174.276 2.8827 2.26486 0
M  V30 1697 H 173.924 2.04576 4.59519 0
M  V30 1698 H 173.624 3.79822 4.4834 0
M  V30 1699 H 175.148 3.20116 5.1996 0
M  V30 1700 H 176.562 4.60544 3.41426 0
M  V30 1701 H 174.959 5.23457 2.9345 0
M  V30 1702 H 176.029 4.53996 1.70339 0
M  V30 1703 N 177.372 -0.689602 1.41712 0
M  V30 1704 C 178.788 -1.00093 1.24312 0
M  V30 1705 C 178.988 -2.01036 0.136729 0
M  V30 1706 O 178.044 -2.47562 -0.496918 0
M  V30 1707 C 179.357 -1.51985 2.59463 0
M  V30 1708 C 180.905 -1.63838 2.66695 0
M  V30 1709 C 181.38 -2.1913 4.02177 0
M  V30 1710 N 182.871 -2.26483 4.04054 0
M  V30 1711 C 183.606 -2.70306 5.0569 0
M  V30 1712 N 183.102 -3.13691 6.17713 0
M  V30 1713 N 184.895 -2.69923 4.9305 0
M  V30 1714 H 177.046 -0.0210029 2.1239 0
M  V30 1715 H 179.309 -0.0718733 0.945272 0
M  V30 1716 H 179.015 -0.85269 3.41207 0
M  V30 1717 H 178.889 -2.50103 2.82362 0
M  V30 1718 H 181.276 -2.29664 1.85306 0
M  V30 1719 H 181.357 -0.642492 2.476 0
M  V30 1720 H 181.001 -1.53918 4.84016 0
M  V30 1721 H 180.931 -3.19482 4.18615 0
M  V30 1722 H 183.422 -1.95874 3.23174 0
M  V30 1723 H 183.735 -3.45773 6.9113 0
M  V30 1724 H 182.08 -3.11585 6.21241 0
M  V30 1725 H 185.271 -2.35382 4.04614 0
M  V30 1726 H 185.444 -3.03758 5.72394 0
M  V30 1727 N 178.85 -1.27639 -0.924453 0
M  V30 1728 C 179.8 -1.07295 -2.01176 0
M  V30 1729 C 180.784 5.77352e-05 -1.609 0
M  V30 1730 O 181.976 -0.218855 -1.75642 0
M  V30 1731 C 179.105 -0.725592 -3.35544 0
M  V30 1732 C 178.191 -1.83691 -3.82254 0
M  V30 1733 N 178.582 -3.07697 -4.01443 0
M  V30 1734 C 176.88 -1.72433 -4.11319 0
M  V30 1735 C 177.581 -3.80037 -4.40394 0
M  V30 1736 N 176.557 -3.0782 -4.48049 0
M  V30 1737 H 180.359 -2.01399 -2.14046 0
M  V30 1738 H 177.873 -1.18401 -1.11153 0
M  V30 1739 H 179.87 -0.560959 -4.13109 0
M  V30 1740 H 178.53 0.207782 -3.24034 0
M  V30 1741 H 179.541 -3.43424 -3.8766 0
M  V30 1742 H 176.218 -0.862005 -4.08504 0
M  V30 1743 H 177.608 -4.86632 -4.63291 0
M  V30 1744 N 180.328 1.1314 -1.09713 0
M  V30 1745 C 181.574 1.84967 -0.846104 0
M  V30 1746 C 181.929 1.82082 0.621601 0
M  V30 1747 O 181.222 1.2501 1.452 0
M  V30 1748 C 181.416 3.32167 -1.3191 0
M  V30 1749 C 181.245 3.49386 -2.83125 0
M  V30 1750 C 180.015 3.63456 -3.51038 0
M  V30 1751 C 182.213 3.45179 -3.81256 0
M  V30 1752 N 180.195 3.68966 -4.9065 0
M  V30 1753 C 181.566 3.57094 -5.06837 0
M  V30 1754 C 183.621 3.28598 -3.74069 0
M  V30 1755 C 182.324 3.5414 -6.26081 0
M  V30 1756 C 184.35 3.26953 -4.92804 0
M  V30 1757 C 183.712 3.39422 -6.17229 0
M  V30 1758 H 179.811 0.692899 -0.362512 0
M  V30 1759 H 182.395 1.35506 -1.39808 0
M  V30 1760 H 180.566 3.80186 -0.794535 0
M  V30 1761 H 182.298 3.91815 -1.01308 0
M  V30 1762 H 179.053 3.65256 -3.01471 0
M  V30 1763 H 179.477 3.75404 -5.63383 0
M  V30 1764 H 184.119 3.17858 -2.78794 0
M  V30 1765 H 181.837 3.63653 -7.21653 0
M  V30 1766 H 185.423 3.15316 -4.88945 0
M  V30 1767 H 184.303 3.38114 -7.07565 0
M  V30 1768 N 181.806 0.884767 1.30421 0
M  V30 1769 C 183.217 0.553656 1.78302 0
M  V30 1770 C 183.568 -0.930153 1.7275 0
M  V30 1771 O 182.693 -1.72681 1.30423 0
M  V30 1772 C 183.288 0.998234 3.2376 0
M  V30 1773 C 181.847 0.71854 3.69478 0
M  V30 1774 C 180.994 1.18132 2.50879 0
M  V30 1775 H 183.945 1.06901 1.17294 0
M  V30 1776 H 183.966 0.327118 3.79091 0
M  V30 1777 H 183.478 2.0782 3.27769 0
M  V30 1778 H 181.579 -0.349444 3.70958 0
M  V30 1779 H 181.692 1.30595 4.60958 0
M  V30 1780 H 180.056 0.600669 2.47516 0
M  V30 1781 H 180.839 2.26902 2.57624 0
M  V30 1782 N 183.284 -1.43765 0.645699 0
M  V30 1783 C 184.531 -2.01898 0.15604 0
M  V30 1784 C 184.859 -1.50887 -1.22733 0
M  V30 1785 O 184.114 -0.689271 -1.8316 0
M  V30 1786 C 184.413 -3.57238 0.107679 0
M  V30 1787 C 184.079 -4.27564 1.43178 0
M  V30 1788 C 182.741 -4.46492 1.7944 0
M  V30 1789 C 185.093 -4.67454 2.30513 0
M  V30 1790 C 182.421 -5.02573 3.02716 0
M  V30 1791 C 184.773 -5.24901 3.53074 0
M  V30 1792 C 183.437 -5.42046 3.89541 0
M  V30 1793 H 182.707 -0.738797 0.057099 0
M  V30 1794 H 185.354 -1.72341 0.834912 0
M  V30 1795 H 183.659 -3.86293 -0.654618 0
M  V30 1796 H 185.356 -3.99965 -0.287938 0
M  V30 1797 H 181.946 -4.13171 1.13963 0
M  V30 1798 H 186.13 -4.5253 2.0379 0
M  V30 1799 H 181.386 -5.14033 3.31028 0
M  V30 1800 H 185.56 -5.54758 4.20971 0
M  V30 1801 H 183.187 -5.85268 4.85145 0
M  V30 1802 N 184.763 -0.387143 -1.52771 0
M  V30 1803 C 186.011 0.195349 -2.01154 0
M  V30 1804 C 186.332 1.475 -1.27549 0
M  V30 1805 O 185.602 1.91878 -0.394924 0
M  V30 1806 H 184.182 0.075178 -0.743207 0
M  V30 1807 H 186.844 -0.518337 -1.87881 0
M  V30 1808 H 185.94 0.407096 -3.09434 0
M  V30 1809 N 186.241 1.57166 -0.116904 0
M  V30 1810 C 187.204 2.14039 0.819742 0
M  V30 1811 C 188.204 1.07477 1.19605 0
M  V30 1812 O 189.394 1.33263 1.1219 0
M  V30 1813 C 186.526 2.67891 2.10826 0
M  V30 1814 H 187.719 2.98128 0.325511 0
M  V30 1815 H 185.272 1.55739 0.132312 0
M  V30 1816 H 186.007 1.87384 2.64685 0
M  V30 1817 H 185.792 3.45823 1.84793 0
M  V30 1818 H 187.282 3.11809 2.77785 0
M  V30 1819 N 187.719 -0.156864 1.56817 0
M  V30 1820 C 188.649 -1.19589 2.00551 0
M  V30 1821 C 189.63 -1.4536 0.883426 0
M  V30 1822 O 190.815 -1.56449 1.15054 0
M  V30 1823 C 187.945 -2.53143 2.37773 0
M  V30 1824 C 186.899 -2.41913 3.53075 0
M  V30 1825 C 186.225 -3.80088 3.76081 0
M  V30 1826 C 187.525 -1.91157 4.86062 0
M  V30 1827 H 189.219 -0.832293 2.87599 0
M  V30 1828 H 186.765 -0.398918 1.38364 0
M  V30 1829 H 188.718 -3.26047 2.66967 0
M  V30 1830 H 187.442 -2.91319 1.4765 0
M  V30 1831 H 186.101 -1.71462 3.24031 0
M  V30 1832 H 185.749 -4.15683 2.83225 0
M  V30 1833 H 185.449 -3.73439 4.53671 0
M  V30 1834 H 186.973 -4.54556 4.0769 0
M  V30 1835 H 188.387 -2.53846 5.14038 0
M  V30 1836 H 186.784 -1.95422 5.67389 0
M  V30 1837 H 187.854 -0.866673 4.77092 0
M  V30 1838 N 189.197 -1.51736 -0.425897 0
M  V30 1839 C 190.127 -1.76827 -1.52494 0
M  V30 1840 C 191.108 -0.618524 -1.58456 0
M  V30 1841 O 192.293 -0.862416 -1.74 0
M  V30 1842 C 189.423 -1.90374 -2.90474 0
M  V30 1843 C 188.377 -3.0588 -2.99369 0
M  V30 1844 C 187.703 -3.04625 -4.3944 0
M  V30 1845 C 189.003 -4.45644 -2.72394 0
M  V30 1846 H 190.697 -2.68855 -1.31748 0
M  V30 1847 H 188.243 -1.29372 -0.632362 0
M  V30 1848 H 190.196 -2.0651 -3.6733 0
M  V30 1849 H 188.92 -0.95004 -3.12477 0
M  V30 1850 H 187.579 -2.89467 -2.24954 0
M  V30 1851 H 187.227 -2.0701 -4.58428 0
M  V30 1852 H 186.927 -3.82195 -4.46319 0
M  V30 1853 H 188.451 -3.22869 -5.18255 0
M  V30 1854 H 189.865 -4.62348 -3.38979 0
M  V30 1855 H 188.262 -5.25006 -2.9067 0
M  V30 1856 H 189.332 -4.54893 -1.67929 0
M  V30 1857 N 190.675 0.682077 -1.42076 0
M  V30 1858 C 191.915 1.45424 -1.43636 0
M  V30 1859 C 192.279 1.91939 -0.0484001 0
M  V30 1860 O 193.48 2.6873 0.0612514 0
M  V30 1861 C 191.751 2.62427 -2.42625 0
M  V30 1862 S 193.31 3.51379 -2.62827 0
M  V30 1863 H 190.128 0.496779 -0.508657 0
M  V30 1864 H 192.73 0.794645 -1.78621 0
M  V30 1865 H 191.434 2.26481 -3.42249 0
M  V30 1866 H 190.965 3.33266 -2.09039 0
M  V30 1867 H 192.98 4.58141 -1.9058 0
M  V30 1868 N 192.153 1.28127 0.917671 0
M  V30 1869 C 193.569 1.05749 1.19538 0
M  V30 1870 C 193.769 -0.202633 2.00479 0
M  V30 1871 O 192.825 -0.905382 2.3571 0
M  V30 1872 C 194.138 2.30273 1.93378 0
M  V30 1873 C 195.686 2.35412 2.06277 0
M  V30 1874 C 196.161 3.59692 2.83524 0
M  V30 1875 N 197.652 3.60309 2.91087 0
M  V30 1876 C 198.387 4.53147 3.51348 0
M  V30 1877 N 197.883 5.563 4.12919 0
M  V30 1878 N 199.676 4.40751 3.48849 0
M  V30 1879 H 191.827 2.09024 0.377184 0
M  V30 1880 H 194.09 0.919798 0.22951 0
M  V30 1881 H 193.796 3.22055 1.41328 0
M  V30 1882 H 193.67 2.36378 2.93947 0
M  V30 1883 H 196.057 1.4413 2.57508 0
M  V30 1884 H 196.138 2.33304 1.04895 0
M  V30 1885 H 195.782 4.51316 2.32973 0
M  V30 1886 H 195.712 3.59054 3.85211 0
M  V30 1887 H 198.203 2.85714 2.47338 0
M  V30 1888 H 198.516 6.2329 4.56869 0
M  V30 1889 H 196.861 5.60131 4.11435 0
M  V30 1890 H 200.052 3.59367 2.99955 0
M  V30 1891 H 200.225 5.13291 3.9552 0
M  V30 1892 N 193.631 -1.12557 1.10312 0
M  V30 1893 C 194.561 -2.20341 0.772798 0
M  V30 1894 C 195.542 -1.68198 -0.25365 0
M  V30 1895 O 196.727 -1.93831 -0.119699 0
M  V30 1896 C 193.857 -3.46709 0.202443 0
M  V30 1897 C 192.811 -4.11996 1.15943 0
M  V30 1898 C 192.137 -5.328 0.450345 0
M  V30 1899 C 193.437 -4.5828 2.50552 0
M  V30 1900 H 195.131 -2.48229 1.674 0
M  V30 1901 H 192.677 -1.19308 0.806326 0
M  V30 1902 H 194.63 -4.2138 -0.0407752 0
M  V30 1903 H 193.354 -3.18245 -0.734001 0
M  V30 1904 H 192.013 -3.39305 1.38808 0
M  V30 1905 H 191.661 -5.00602 -0.490531 0
M  V30 1906 H 191.361 -5.7743 1.08851 0
M  V30 1907 H 192.885 -6.10219 0.215642 0
M  V30 1908 H 194.299 -5.2433 2.31843 0
M  V30 1909 H 192.696 -5.13683 3.10242 0
M  V30 1910 H 193.766 -3.72329 3.10643 0
M  V30 1911 N 195.109 -0.891671 -1.2995 0
M  V30 1912 C 196.355 -0.514261 -1.96171 0
M  V30 1913 C 196.688 0.935506 -1.70182 0
M  V30 1914 O 195.963 1.66204 -1.01028 0
M  V30 1915 C 196.246 -0.797719 -3.51153 0
M  V30 1916 C 196.099 -2.2986 -3.86632 0
M  V30 1917 C 197.418 -0.278749 -4.39216 0
M  V30 1918 H 194.537 -0.188314 -0.712535 0
M  V30 1919 H 197.179 -1.11689 -1.53706 0
M  V30 1920 H 195.329 -0.284826 -3.87455 0
M  V30 1921 H 197.001 -2.88042 -3.60319 0
M  V30 1922 H 195.244 -2.76257 -3.34462 0
M  V30 1923 H 195.915 -2.44753 -4.94773 0
M  V30 1924 H 198.391 -0.717825 -4.09862 0
M  V30 1925 H 197.267 -0.506353 -5.46559 0
M  V30 1926 H 197.528 0.820266 -4.34424 0
M  V30 1927 N 196.587 1.43421 -0.653314 0
M  V30 1928 C 197.517 2.33487 0.0246656 0
M  V30 1929 C 198.498 1.49475 0.811863 0
M  V30 1930 O 199.683 1.78139 0.773322 0
M  V30 1931 C 196.813 3.32841 0.99166 0
M  V30 1932 C 195.767 4.26842 0.314568 0
M  V30 1933 C 195.093 5.16236 1.39302 0
M  V30 1934 C 196.393 5.16243 -0.793095 0
M  V30 1935 H 198.087 2.90427 -0.727481 0
M  V30 1936 H 195.633 1.39649 -0.351287 0
M  V30 1937 H 197.586 3.94747 1.47487 0
M  V30 1938 H 196.31 2.74158 1.77497 0
M  V30 1939 H 194.969 3.663 -0.148199 0
M  V30 1940 H 194.617 4.53891 2.16776 0
M  V30 1941 H 194.317 5.79948 0.945223 0
M  V30 1942 H 195.841 5.81015 1.87759 0
M  V30 1943 H 197.255 5.71958 -0.392039 0
M  V30 1944 H 195.652 5.88676 -1.16536 0
M  V30 1945 H 196.722 4.55927 -1.65103 0
M  V30 1946 N 198.065 0.39524 1.52563 0
M  V30 1947 C 199.29 -0.187456 2.06551 0
M  V30 1948 C 199.715 -1.39249 1.26457 0
M  V30 1949 O 199.073 -1.78947 0.291151 0
M  V30 1950 C 199.121 -0.529985 3.56684 0
M  V30 1951 O 198.225 -1.62307 3.79118 0
M  V30 1952 H 197.566 -0.0202537 0.663691 0
M  V30 1953 H 200.096 0.564426 1.96661 0
M  V30 1954 H 200.106 -0.792598 4.00227 0
M  V30 1955 H 198.781 0.350987 4.14416 0
M  V30 1956 H 197.358 -1.3537 3.47461 0
M  V30 1957 N 199.544 -1.57102 0.125237 0
M  V30 1958 C 200.79 -1.95697 -0.532035 0
M  V30 1959 C 201.123 -1.009 -1.6593 0
M  V30 1960 O 200.398 -0.047347 -1.94442 0
M  V30 1961 C 200.681 -3.44181 -1.05884 0
M  V30 1962 C 200.534 -4.49752 0.0654392 0
M  V30 1963 C 201.853 -3.94655 -1.9477 0
M  V30 1964 H 198.972 -0.711571 -0.191925 0
M  V30 1965 H 201.614 -1.88923 0.20206 0
M  V30 1966 H 199.764 -3.50085 -1.68442 0
M  V30 1967 H 201.436 -4.55943 0.700982 0
M  V30 1968 H 199.679 -4.27653 0.727709 0
M  V30 1969 H 200.35 -5.50924 -0.344505 0
M  V30 1970 H 202.826 -3.91094 -1.42074 0
M  V30 1971 H 201.702 -4.99057 -2.28546 0
M  V30 1972 H 201.963 -3.35718 -2.87656 0
M  V30 1973 N 201.022 0.148545 -1.56898 0
M  V30 1974 C 202.299 0.890019 -1.74178 0
M  V30 1975 C 202.679 1.99407 -0.692839 0
M  V30 1976 O 202.027 2.26671 0.288505 0
M  V30 1977 C 202.237 1.43389 -3.18183 0
M  V30 1978 C 203.585 1.89791 -3.79822 0
M  V30 1979 O 204.609 1.53134 -3.21603 0
M  V30 1980 O 203.468 2.57387 -4.82093 0
M  V30 1981 H 200.562 0.420496 -0.712118 0
M  V30 1982 H 203.108 0.134591 -1.69165 0
M  V30 1983 H 201.88 0.640383 -3.86024 0
M  V30 1984 H 201.503 2.25287 -3.27615 0
M  V30 1985 N 202.5 1.5196 0.417844 0
M  V30 1986 C 203.463 1.74065 1.49111 0
M  V30 1987 C 204.463 0.610537 1.48758 0
M  V30 1988 O 205.653 0.87832 1.50437 0
M  V30 1989 C 202.785 1.81502 2.88565 0
M  V30 1990 H 203.978 2.69869 1.30807 0
M  V30 1991 H 201.531 1.42244 0.647785 0
M  V30 1992 H 202.266 0.875813 3.1225 0
M  V30 1993 H 202.051 2.63651 2.90225 0
M  V30 1994 H 203.541 2.00376 3.66387 0
M  V30 1995 N 203.978 -0.674533 1.42435 0
M  V30 1996 C 205.224 -1.43671 1.43131 0
M  V30 1997 C 205.557 -1.94142 0.0476021 0
M  V30 1998 O 204.832 -1.70924 -0.928188 0
M  V30 1999 C 205.115 -2.63355 2.45594 0
M  V30 2000 C 204.968 -2.18514 3.93156 0
M  V30 2001 C 206.287 -3.65571 2.45043 0
M  V30 2002 H 203.406 -0.521077 0.521198 0
M  V30 2003 H 206.048 -0.766551 1.7385 0
M  V30 2004 H 204.198 -3.2053 2.19528 0
M  V30 2005 H 205.87 -1.66504 4.30202 0
M  V30 2006 H 204.113 -1.50086 4.07009 0
M  V30 2007 H 204.784 -3.04484 4.60428 0
M  V30 2008 H 207.26 -3.18113 2.68223 0
M  V30 2009 H 206.136 -4.46893 3.18713 0
M  V30 2010 H 206.397 -4.16716 1.47649 0
M  V30 2011 N 205.456 -1.28612 -0.910864 0
M  V30 2012 C 206.404 -1.1265 -2.03501 0
M  V30 2013 C 207.398 -0.0450054 -1.6934 0
M  V30 2014 O 208.604 -0.203988 -1.7884 0
M  V30 2015 H 204.979 -0.347639 -0.666822 0
M  V30 2016 H 206.95 -2.07849 -2.14106 0
M  V30 2017 C 205.699 -0.808143 -3.38178 0
M  V30 2018 H 205.022 -1.63231 -3.6496 0
M  V30 2019 H 206.462 -0.736426 -4.17556 0
M  V30 2020 C 204.921 0.488226 -3.33344 0
M  V30 2021 O 205.451 1.51766 -3.71927 0
M  V30 2022 N 203.657 0.490009 -2.86439 0
M  V30 2023 H 203.204 -0.348161 -2.55236 0
M  V30 2024 H 203.162 1.35741 -2.83587 0
M  V30 2025 N 206.934 1.1197 -1.10907 0
M  V30 2026 C 207.867 2.16998 -0.706192 0
M  V30 2027 C 208.845 1.59903 0.294897 0
M  V30 2028 O 210.029 1.87513 0.192636 0
M  V30 2029 C 207.156 3.38673 -0.0427664 0
M  V30 2030 C 206.202 4.14414 -1.00811 0
M  V30 2031 S 207.035 4.72079 -2.52789 0
M  V30 2032 C 208.191 5.97083 -1.87731 0
M  V30 2033 H 208.424 2.50837 -1.59587 0
M  V30 2034 H 205.957 1.23508 -0.926555 0
M  V30 2035 H 207.915 4.09142 0.333668 0
M  V30 2036 H 206.576 3.03105 0.823788 0
M  V30 2037 H 205.769 5.016 -0.491259 0
M  V30 2038 H 205.371 3.49678 -1.3267 0
M  V30 2039 H 207.663 6.66599 -1.21044 0
M  V30 2040 H 208.606 6.53403 -2.72892 0
M  V30 2041 H 209.014 5.4837 -1.33979 0
M  V30 2042 N 208.412 0.89855 1.29475 0
M  V30 2043 C 209.659 0.523882 1.95606 0
M  V30 2044 C 209.987 -0.929608 1.70847 0
M  V30 2045 O 209.242 -1.67401 1.01367 0
M  V30 2046 C 209.541 0.761398 3.49195 0
M  V30 2047 C 209.207 2.19207 3.94029 0
M  V30 2048 C 207.869 2.58326 4.05982 0
M  V30 2049 C 210.221 3.12379 4.17216 0
M  V30 2050 C 207.549 3.898 4.38489 0
M  V30 2051 C 209.901 4.43401 4.51197 0
M  V30 2052 C 208.565 4.82394 4.61359 0
M  V30 2053 H 207.835 0.191702 0.715773 0
M  V30 2054 H 210.482 1.13699 1.54094 0
M  V30 2055 H 208.787 0.0653622 3.91745 0
M  V30 2056 H 210.484 0.450904 3.98457 0
M  V30 2057 H 207.074 1.87846 3.85242 0
M  V30 2058 H 211.258 2.83371 4.07449 0
M  V30 2059 H 206.514 4.19734 4.44559 0
M  V30 2060 H 210.688 5.15623 4.68087 0
M  V30 2061 H 208.315 5.84306 4.86303 0
M  V30 2062 N 209.89 -1.43072 0.660911 0
M  V30 2063 C 211.118 -2.06067 0.185422 0
M  V30 2064 C 211.533 -1.49582 -1.15198 0
M  V30 2065 O 210.89 -0.630134 -1.71276 0
M  V30 2066 C 210.941 -3.61371 0.0966523 0
M  V30 2067 O 210.662 -4.15758 1.38119 0
M  V30 2068 C 212.163 -4.41455 -0.403996 0
M  V30 2069 H 209.383 -0.664459 0.0934604 0
M  V30 2070 H 211.927 -1.83447 0.90373 0
M  V30 2071 H 210.082 -3.8315 -0.572259 0
M  V30 2072 H 210.496 -5.09499 1.24542 0
M  V30 2073 H 211.97 -5.50437 -0.415045 0
M  V30 2074 H 212.447 -4.15036 -1.43674 0
M  V30 2075 H 213.053 -4.24663 0.232691 0
M  V30 2076 N 211.368 -0.403325 -1.52352 0
M  V30 2077 C 212.593 0.176499 -2.06648 0
M  V30 2078 C 213.018 1.38577 -1.27193 0
M  V30 2079 O 212.376 1.7879 -0.300637 0
M  V30 2080 C 212.424 0.511061 -3.5696 0
M  V30 2081 O 211.528 1.60294 -3.79973 0
M  V30 2082 H 210.869 0.0167337 -0.663789 0
M  V30 2083 H 213.399 -0.574848 -1.96359 0
M  V30 2084 H 213.409 0.771362 -4.00642 0
M  V30 2085 H 212.084 -0.37296 -4.14224 0
M  V30 2086 H 210.661 1.33526 -3.48174 0
M  V30 2087 N 212.846 1.57033 -0.133567 0
M  V30 2088 C 214.095 1.94861 0.520768 0
M  V30 2089 C 214.408 1.02012 1.66892 0
M  V30 2090 O 215.614 1.29365 2.38699 0
M  V30 2091 C 214.07 3.46362 0.977809 0
M  V30 2092 C 213.678 4.47773 -0.142674 0
M  V30 2093 C 215.422 3.93083 1.60269 0
M  V30 2094 C 213.329 5.90468 0.331883 0
M  V30 2095 H 212.259 0.727453 0.198315 0
M  V30 2096 H 214.91 1.82227 -0.215759 0
M  V30 2097 H 213.292 3.54282 1.7692 0
M  V30 2098 H 214.466 4.51536 -0.919317 0
M  V30 2099 H 212.781 4.10891 -0.675124 0
M  V30 2100 H 215.378 4.97121 1.96914 0
M  V30 2101 H 215.721 3.33876 2.48662 0
M  V30 2102 H 216.254 3.88025 0.876453 0
M  V30 2103 H 212.993 6.53463 -0.516341 0
M  V30 2104 H 212.513 5.90094 1.07469 0
M  V30 2105 H 214.192 6.42179 0.788332 0
M  V30 2106 N 214.325 -0.140222 1.56975 0
M  V30 2107 C 215.555 -0.865181 1.87612 0
M  V30 2108 C 215.963 -1.74942 0.72055 0
M  V30 2109 O 215.306 -1.80917 -0.318561 0
M  V30 2110 C 215.368 -1.76782 3.13031 0
M  V30 2111 C 215.032 -1.06005 4.44536 0
M  V30 2112 C 216.029 -0.410768 5.18275 0
M  V30 2113 C 213.714 -1.04754 4.91255 0
M  V30 2114 C 215.708 0.241572 6.36942 0
M  V30 2115 C 213.395 -0.391394 6.09845 0
M  V30 2116 C 214.393 0.252029 6.82535 0
M  V30 2117 O 214.081 0.897757 7.98871 0
M  V30 2118 H 213.813 -0.255188 0.625983 0
M  V30 2119 H 216.367 -0.135653 2.04952 0
M  V30 2120 H 214.597 -2.53846 2.91718 0
M  V30 2121 H 216.286 -2.36533 3.29859 0
M  V30 2122 H 217.052 -0.412195 4.83245 0
M  V30 2123 H 212.931 -1.53777 4.34596 0
M  V30 2124 H 216.475 0.744375 6.93617 0
M  V30 2125 H 212.372 -0.387656 6.44335 0
M  V30 2126 H 213.14 0.800102 8.1458 0
M  V30 2127 N 215.803 -1.52179 -0.40978 0
M  V30 2128 C 217.043 -1.67882 -1.16597 0
M  V30 2129 C 217.407 -0.399795 -1.87791 0
M  V30 2130 O 218.608 -0.43292 -2.65291 0
M  V30 2131 C 216.879 -2.86662 -2.13448 0
M  V30 2132 S 218.438 -3.22843 -2.97183 0
M  V30 2133 H 215.256 -0.59118 -0.395002 0
M  V30 2134 H 217.858 -1.9017 -0.453373 0
M  V30 2135 H 216.562 -3.77998 -1.59831 0
M  V30 2136 H 216.093 -2.66645 -2.89247 0
M  V30 2137 H 218.108 -2.71415 -4.15389 0
M  V30 2138 N 217.281 0.66697 -1.42791 0
M  V30 2139 C 218.211 1.79218 -1.49677 0
M  V30 2140 C 219.192 1.66405 -0.352623 0
M  V30 2141 O 220.377 1.85708 -0.567993 0
M  V30 2142 C 217.507 3.17565 -1.40605 0
M  V30 2143 C 216.461 3.45124 -2.53127 0
M  V30 2144 C 215.787 4.83127 -2.29112 0
M  V30 2145 C 217.087 3.41236 -3.95418 0
M  V30 2146 H 218.781 1.73713 -2.43853 0
M  V30 2147 H 216.327 0.83432 -1.17367 0
M  V30 2148 H 218.28 3.96022 -1.44029 0
M  V30 2149 H 217.004 3.23767 -0.429271 0
M  V30 2150 H 215.663 2.69031 -2.49034 0
M  V30 2151 H 215.311 4.85988 -1.29709 0
M  V30 2152 H 215.011 5.02528 -3.04531 0
M  V30 2153 H 216.535 5.63859 -2.34297 0
M  V30 2154 H 217.949 4.09651 -4.01073 0
M  V30 2155 H 216.346 3.72173 -4.70752 0
M  V30 2156 H 217.416 2.39665 -4.21532 0
M  V30 2157 N 218.759 1.29093 0.90403 0
M  V30 2158 C 219.987 1.19689 1.68766 0
M  V30 2159 C 220.402 -0.243113 1.87228 0
M  V30 2160 O 219.759 -1.16326 1.40621 0
M  V30 2161 C 219.81 1.90144 3.07453 0
M  V30 2162 O 219.531 3.2852 2.89838 0
M  V30 2163 C 221.032 1.87162 4.01852 0
M  V30 2164 H 218.252 0.415035 0.527244 0
M  V30 2165 H 220.796 1.7039 1.13082 0
M  V30 2166 H 218.951 1.43289 3.59926 0
M  V30 2167 H 219.365 3.63944 3.77684 0
M  V30 2168 H 220.839 2.41032 4.96596 0
M  V30 2169 H 221.316 0.84617 4.30972 0
M  V30 2170 H 221.922 2.33741 3.5531 0
M  V30 2171 N 220.237 -1.11381 1.11499 0
M  V30 2172 C 221.483 -1.83403 0.865512 0
M  V30 2173 C 221.816 -1.84459 -0.607329 0
M  V30 2174 O 221.091 -1.29811 -1.44842 0
M  V30 2175 C 221.374 -3.30552 1.42855 0
M  V30 2176 C 221.227 -3.37886 2.96906 0
M  V30 2177 C 222.546 -4.26643 1.08 0
M  V30 2178 H 219.665 -0.665879 0.31587 0
M  V30 2179 H 222.307 -1.30601 1.37998 0
M  V30 2180 H 220.457 -3.75648 0.990985 0
M  V30 2181 H 222.129 -3.01343 3.49271 0
M  V30 2182 H 220.372 -2.78088 3.32941 0
M  V30 2183 H 221.043 -4.41458 3.31389 0
M  V30 2184 H 223.519 -3.89729 1.45775 0
M  V30 2185 H 222.395 -5.27986 1.50072 0
M  V30 2186 H 222.656 -4.42099 -0.00915037 0
M  V30 2187 N 221.715 -0.905404 -1.28997 0
M  V30 2188 C 222.645 -0.404212 -2.29975 0
M  V30 2189 C 223.626 0.523784 -1.61835 0
M  V30 2190 O 224.811 0.433298 -1.89304 0
M  V30 2191 C 221.941 0.364042 -3.45387 0
M  V30 2192 C 220.895 -0.474048 -4.25367 0
M  V30 2193 C 220.221 0.422045 -5.33032 0
M  V30 2194 C 221.521 -1.72696 -4.92923 0
M  V30 2195 H 223.215 -1.24807 -2.72146 0
M  V30 2196 H 220.761 -0.601585 -1.30832 0
M  V30 2197 H 222.714 0.725447 -4.15109 0
M  V30 2198 H 221.438 1.24174 -3.02074 0
M  V30 2199 H 220.097 -0.81786 -3.57361 0
M  V30 2200 H 219.745 1.29804 -4.85963 0
M  V30 2201 H 219.445 -0.135057 -5.87445 0
M  V30 2202 H 220.969 0.779517 -6.05604 0
M  V30 2203 H 222.383 -1.43495 -5.55051 0
M  V30 2204 H 220.78 -2.22582 -5.57295 0
M  V30 2205 H 221.85 -2.45964 -4.17887 0
M  V30 2206 N 223.193 1.4272 -0.668489 0
M  V30 2207 C 224.418 2.06484 -0.194758 0
M  V30 2208 C 224.843 1.49862 1.13679 0
M  V30 2209 O 224.201 0.614582 1.70565 0
M  V30 2210 C 224.249 3.60353 -0.133546 0
M  V30 2211 O 223.353 4.02464 0.899806 0
M  V30 2212 H 222.694 0.656137 -0.10188 0
M  V30 2213 H 225.224 1.82964 -0.915722 0
M  V30 2214 H 225.234 4.07976 0.0447041 0
M  V30 2215 H 223.909 4.00938 -1.1055 0
M  V30 2216 H 222.486 3.66402 0.693109 0
M  V30 2217 N 224.671 0.411399 1.52136 0
M  V30 2218 C 225.917 -0.163888 2.02137 0
M  V30 2219 C 226.25 -1.44597 1.29636 0
M  V30 2220 O 225.525 -1.90272 0.403353 0
M  V30 2221 C 225.808 -0.40927 3.57767 0
M  V30 2222 C 225.661 0.889643 4.40914 0
M  V30 2223 C 226.98 -1.19042 4.23694 0
M  V30 2224 H 224.099 -0.0580896 0.734707 0
M  V30 2225 H 226.741 0.54531 1.82007 0
M  V30 2226 H 224.891 -1.0134 3.7505 0
M  V30 2227 H 226.563 1.52575 4.35337 0
M  V30 2228 H 224.806 1.50011 4.07037 0
M  V30 2229 H 225.477 0.672314 5.4789 0
M  V30 2230 H 227.953 -0.678942 4.10524 0
M  V30 2231 H 226.829 -1.33086 5.32522 0
M  V30 2232 H 227.09 -2.21166 3.82803 0
M  V30 2233 N 226.149 -1.5696 0.141893 0
M  V30 2234 C 227.426 -1.87553 -0.555281 0
M  V30 2235 C 227.806 -1.04699 -1.83306 0
M  V30 2236 O 227.154 -0.132346 -2.28116 0
M  V30 2237 C 227.364 -3.39093 -0.825664 0
M  V30 2238 C 228.712 -4.08199 -1.16869 0
M  V30 2239 O 229.736 -3.44242 -0.915185 0
M  V30 2240 O 228.595 -5.21139 -1.6455 0
M  V30 2241 H 225.689 -0.777188 -0.282679 0
M  V30 2242 H 228.235 -1.68763 0.17812 0
M  V30 2243 H 227.007 -3.91221 0.0788633 0
M  V30 2244 H 226.63 -3.63393 -1.61343 0
M  V30 2245 N 227.627 0.131896 -1.57047 0
M  V30 2246 C 229.043 0.485031 -1.52051 0
M  V30 2247 C 229.243 1.82563 -0.85281 0
M  V30 2248 O 228.299 2.48817 -0.429694 0
M  V30 2249 C 229.612 0.481409 -2.96821 0
M  V30 2250 C 231.16 0.565868 -3.07842 0
M  V30 2251 C 231.635 0.592762 -4.54148 0
M  V30 2252 N 233.126 0.654564 -4.58552 0
M  V30 2253 C 233.861 0.696608 -5.69153 0
M  V30 2254 N 233.357 0.697078 -6.89284 0
M  V30 2255 N 235.15 0.738639 -5.57226 0
M  V30 2256 H 227.301 -0.746664 -1.98843 0
M  V30 2257 H 229.564 -0.273999 -0.90754 0
M  V30 2258 H 229.27 -0.435731 -3.4899 0
M  V30 2259 H 229.144 1.3139 -3.53577 0
M  V30 2260 H 231.531 1.47343 -2.55684 0
M  V30 2261 H 231.612 -0.29406 -2.54104 0
M  V30 2262 H 231.256 -0.310701 -5.06949 0
M  V30 2263 H 231.186 1.46939 -5.05684 0
M  V30 2264 H 233.677 0.660887 -3.72076 0
M  V30 2265 H 233.99 0.731426 -7.69331 0
M  V30 2266 H 232.335 0.66471 -6.91814 0
M  V30 2267 H 235.526 0.735545 -4.62285 0
M  V30 2268 H 235.699 0.767938 -6.43434 0
M  V30 2269 N 229.106 1.52395 0.401703 0
M  V30 2270 C 230.336 1.70429 1.1678 0
M  V30 2271 C 230.744 0.416702 1.84554 0
M  V30 2272 O 230.087 -0.617697 1.73003 0
M  V30 2273 C 230.149 2.78919 2.26814 0
M  V30 2274 C 229.813 4.20437 1.79113 0
M  V30 2275 C 230.81 5.04028 1.27482 0
M  V30 2276 C 228.495 4.66704 1.85722 0
M  V30 2277 C 230.489 6.31961 0.830913 0
M  V30 2278 C 228.176 5.94625 1.40942 0
M  V30 2279 C 229.174 6.77082 0.897128 0
M  V30 2280 O 228.862 8.02607 0.455822 0
M  V30 2281 H 228.594 0.574272 0.356634 0
M  V30 2282 H 231.148 1.99767 0.477724 0
M  V30 2283 H 229.378 2.44973 2.99207 0
M  V30 2284 H 231.067 2.8548 2.88541 0
M  V30 2285 H 231.833 4.69471 1.21744 0
M  V30 2286 H 227.712 4.0262 2.24539 0
M  V30 2287 H 231.256 6.96271 0.430368 0
M  V30 2288 H 227.153 6.28688 1.46362 0
M  V30 2289 H 227.921 8.16453 0.578457 0
M  V30 2290 N 230.584 -0.659388 1.43143 0
M  V30 2291 C 231.83 -1.42145 1.44647 0
M  V30 2292 C 232.163 -1.9408 0.0681907 0
M  V30 2293 O 231.438 -1.71899 -0.910007 0
M  V30 2294 C 231.721 -2.60735 2.48373 0
M  V30 2295 C 231.574 -2.14332 3.95451 0
M  V30 2296 C 232.893 -3.62951 2.48906 0
M  V30 2297 H 230.012 -0.51552 0.526696 0
M  V30 2298 H 232.654 -0.748069 1.74654 0
M  V30 2299 H 230.804 -3.18184 2.22916 0
M  V30 2300 H 232.476 -1.61932 4.31944 0
M  V30 2301 H 230.719 -1.4576 4.08578 0
M  V30 2302 H 231.39 -2.99583 4.63631 0
M  V30 2303 H 233.866 -3.1525 2.71582 0
M  V30 2304 H 232.742 -4.43487 3.23435 0
M  V30 2305 H 233.003 -4.15126 1.52061 0
M  V30 2306 N 232.062 -1.29571 -0.897171 0
M  V30 2307 C 233.025 -1.14913 -1.98312 0
M  V30 2308 C 234.025 -0.0838629 -1.60581 0
M  V30 2309 O 235.215 -0.331006 -1.71026 0
M  V30 2310 C 232.347 -0.757835 -3.3237 0
M  V30 2311 H 233.54 -2.11377 -2.12743 0
M  V30 2312 H 231.093 -1.12793 -1.08201 0
M  V30 2313 H 231.828 0.206837 -3.2364 0
M  V30 2314 H 231.613 -1.52755 -3.61121 0
M  V30 2315 H 233.103 -0.678408 -4.12053 0
M  V30 2316 N 233.54 1.10788 -1.12088 0
M  V30 2317 C 234.786 1.82942 -0.875226 0
M  V30 2318 C 235.119 1.84779 0.597538 0
M  V30 2319 O 234.394 1.30578 1.44152 0
M  V30 2320 C 234.677 3.29789 -1.44606 0
M  V30 2321 C 234.53 3.36307 -2.98693 0
M  V30 2322 C 235.849 4.26064 -1.10261 0
M  V30 2323 H 232.968 0.664195 -0.319397 0
M  V30 2324 H 235.61 1.29867 -1.38689 0
M  V30 2325 H 233.76 3.75118 -1.01089 0
M  V30 2326 H 235.432 2.99487 -3.50864 0
M  V30 2327 H 233.675 2.76318 -3.34411 0
M  V30 2328 H 234.346 4.39694 -3.33726 0
M  V30 2329 H 236.822 3.88951 -1.4784 0
M  V30 2330 H 235.698 5.27183 -1.52869 0
M  V30 2331 H 235.959 4.42098 -0.0142953 0
M  V30 2332 N 235.018 0.912232 1.28515 0
M  V30 2333 C 236.264 0.545405 1.95328 0
M  V30 2334 C 236.597 -0.908313 1.71649 0
M  V30 2335 O 235.872 -1.64575 1.03659 0
M  V30 2336 C 236.155 0.853483 3.4984 0
M  V30 2337 C 236.008 2.35982 3.82926 0
M  V30 2338 C 237.327 0.348589 4.38717 0
M  V30 2339 H 234.446 0.199626 0.709449 0
M  V30 2340 H 237.088 1.1412 1.5191 0
M  V30 2341 H 235.238 0.34643 3.86952 0
M  V30 2342 H 236.91 2.93738 3.55691 0
M  V30 2343 H 235.153 2.81543 3.30024 0
M  V30 2344 H 235.824 2.52593 4.90816 0
M  V30 2345 H 238.3 0.78294 4.08668 0
M  V30 2346 H 237.176 0.593242 5.45685 0
M  V30 2347 H 237.437 -0.751049 4.35674 0
M  V30 2348 N 236.496 -1.42363 0.676048 0
M  V30 2349 C 237.446 -2.27987 -0.0242903 0
M  V30 2350 C 238.43 -1.41153 -0.772319 0
M  V30 2351 O 239.622 -1.64592 -0.651025 0
M  V30 2352 C 236.751 -3.29195 -0.973953 0
M  V30 2353 C 235.837 -4.23512 -0.223202 0
M  V30 2354 N 236.228 -4.99865 0.772589 0
M  V30 2355 C 234.526 -4.43606 -0.461469 0
M  V30 2356 C 235.227 -5.68757 1.22027 0
M  V30 2357 N 234.203 -5.40811 0.549975 0
M  V30 2358 H 238.005 -2.84445 0.73949 0
M  V30 2359 H 235.519 -1.54341 0.50522 0
M  V30 2360 H 237.516 -3.89339 -1.49067 0
M  V30 2361 H 236.176 -2.74298 -1.73755 0
M  V30 2362 H 237.187 -5.04921 1.15217 0
M  V30 2363 H 233.864 -3.99749 -1.20446 0
M  V30 2364 H 235.254 -6.40007 2.0455 0
M  V30 2365 N 237.974 -0.419461 -1.51915 0
M  V30 2366 C 239.385 0.0477853 -1.86639 0
M  V30 2367 C 239.736 1.43531 -1.33766 0
M  V30 2368 O 238.861 2.05401 -0.68113 0
M  V30 2369 C 239.456 0.0934885 -3.38671 0
M  V30 2370 C 238.015 0.505097 -3.72996 0
M  V30 2371 C 237.162 -0.313792 -2.75519 0
M  V30 2372 H 240.113 -0.636088 -1.45395 0
M  V30 2373 H 240.134 0.906667 -3.6954 0
M  V30 2374 H 239.646 -0.916501 -3.77123 0
M  V30 2375 H 237.747 1.52135 -3.40126 0
M  V30 2376 H 237.86 0.242309 -4.78487 0
M  V30 2377 H 236.224 0.225363 -2.53701 0
M  V30 2378 H 237.007 -1.32232 -3.16812 0
M  V30 2379 N 239.452 1.56882 -0.150215 0
M  V30 2380 C 240.701 1.95403 0.500071 0
M  V30 2381 C 241.014 1.03777 1.658 0
M  V30 2382 O 242.22 1.31889 2.37313 0
M  V30 2383 C 240.676 3.4738 0.941018 0
M  V30 2384 C 240.284 4.47596 -0.190158 0
M  V30 2385 C 242.028 3.9476 1.56091 0
M  V30 2386 C 239.935 5.90787 0.269237 0
M  V30 2387 H 238.865 0.729515 0.190588 0
M  V30 2388 H 241.516 1.81988 -0.235074 0
M  V30 2389 H 239.898 3.56138 1.73152 0
M  V30 2390 H 241.072 4.50536 -0.967157 0
M  V30 2391 H 239.387 4.10151 -0.718666 0
M  V30 2392 H 241.984 4.99181 1.9163 0
M  V30 2393 H 242.327 3.36494 2.45107 0
M  V30 2394 H 242.86 3.88932 0.835249 0
M  V30 2395 H 239.599 6.52879 -0.585621 0
M  V30 2396 H 239.119 5.912 1.01204 0
M  V30 2397 H 240.798 6.42979 0.720176 0
M  V30 2398 N 240.93 -0.123565 1.57115 0
M  V30 2399 C 241.877 -1.15177 2.00007 0
M  V30 2400 C 242.847 -1.41403 0.871454 0
M  V30 2401 O 244.032 -1.53346 1.13533 0
M  V30 2402 C 241.172 -2.47436 2.40561 0
M  V30 2403 C 240.285 -2.28184 3.66819 0
M  V30 2404 C 239.42 -3.53641 3.96373 0
M  V30 2405 C 238.459 -3.29528 5.15827 0
M  V30 2406 N 237.596 -4.47175 5.41275 0
M  V30 2407 H 242.436 -0.779008 2.87638 0
M  V30 2408 H 239.973 -0.373166 1.42288 0
M  V30 2409 H 241.931 -3.24584 2.62109 0
M  V30 2410 H 240.561 -2.82614 1.55978 0
M  V30 2411 H 239.613 -1.41976 3.52912 0
M  V30 2412 H 240.925 -2.0634 4.5412 0
M  V30 2413 H 240.079 -4.39209 4.18545 0
M  V30 2414 H 238.818 -3.78512 3.07538 0
M  V30 2415 H 237.823 -2.42349 4.93505 0
M  V30 2416 H 239.048 -3.06031 6.06236 0
M  V30 2417 H 236.994 -4.72175 4.55397 0
M  V30 2418 H 236.911 -4.28419 6.22891 0
M  V30 2419 H 238.179 -5.3389 5.67963 0
M  V30 2420 N 242.408 -1.52605 -0.393616 0
M  V30 2421 C 243.371 -1.76415 -1.46323 0
M  V30 2422 C 244.371 -0.634126 -1.47768 0
M  V30 2423 O 245.561 -0.902142 -1.4902 0
M  V30 2424 C 242.693 -1.8607 -2.85641 0
M  V30 2425 H 243.886 -2.71916 -1.26498 0
M  V30 2426 H 241.439 -1.43257 -0.625073 0
M  V30 2427 H 242.174 -0.925378 -3.10817 0
M  V30 2428 H 241.959 -2.68235 -2.85993 0
M  V30 2429 H 243.449 -2.06179 -3.63153 0
M  V30 2430 N 243.887 0.651787 -1.4349 0
M  V30 2431 C 244.85 1.74647 -1.48429 0
M  V30 2432 C 245.85 1.56513 -0.368817 0
M  V30 2433 O 247.04 1.62385 -0.630623 0
M  V30 2434 C 244.172 3.13533 -1.33827 0
M  V30 2435 H 245.365 1.71649 -2.4592 0
M  V30 2436 H 242.918 0.863573 -1.30277 0
M  V30 2437 H 243.653 3.22142 -0.37349 0
M  V30 2438 H 243.438 3.28101 -2.14691 0
M  V30 2439 H 244.928 3.93356 -1.40218 0
M  V30 2440 N 245.365 1.30045 0.890287 0
M  V30 2441 C 246.781 1.08261 1.17268 0
M  V30 2442 C 246.981 -0.160063 2.00863 0
M  V30 2443 O 246.037 -0.855181 2.37577 0
M  V30 2444 C 247.35 2.34323 1.8845 0
M  V30 2445 C 248.898 2.39735 2.01237 0
M  V30 2446 C 249.373 3.65625 2.7583 0
M  V30 2447 N 250.864 3.66402 2.83379 0
M  V30 2448 C 251.599 4.60498 3.41657 0
M  V30 2449 N 251.095 5.64933 4.01026 0
M  V30 2450 N 252.888 4.48051 3.39421 0
M  V30 2451 H 245.039 2.09777 0.332762 0
M  V30 2452 H 247.302 0.92446 0.209948 0
M  V30 2453 H 247.008 3.2498 1.34465 0
M  V30 2454 H 246.882 2.4256 2.88867 0
M  V30 2455 H 249.269 1.4956 2.54393 0
M  V30 2456 H 249.35 2.35476 0.999232 0
M  V30 2457 H 248.994 4.56156 2.23347 0
M  V30 2458 H 248.924 3.67144 3.77509 0
M  V30 2459 H 251.415 2.90896 2.41222 0
M  V30 2460 H 251.728 6.32841 4.43545 0
M  V30 2461 H 250.073 5.68732 3.99461 0
M  V30 2462 H 253.264 3.65649 2.92264 0
M  V30 2463 H 253.437 5.21565 3.84544 0
M  V30 2464 N 246.843 -1.10192 1.12674 0
M  V30 2465 C 248.073 -1.85713 0.905213 0
M  V30 2466 C 248.481 -1.81056 -0.549108 0
M  V30 2467 O 247.824 -1.19927 -1.39151 0
M  V30 2468 C 247.886 -3.34972 1.30516 0
M  V30 2469 C 247.55 -3.63385 2.77129 0
M  V30 2470 C 248.547 -3.59772 3.75313 0
M  V30 2471 C 246.232 -3.91981 3.14096 0
M  V30 2472 C 248.226 -3.84354 5.08479 0
M  V30 2473 C 245.913 -4.16218 4.47443 0
M  V30 2474 C 246.911 -4.12395 5.44444 0
M  V30 2475 O 246.599 -4.36014 6.75387 0
M  V30 2476 H 246.331 -0.593719 0.323223 0
M  V30 2477 H 248.885 -1.40198 1.50112 0
M  V30 2478 H 247.115 -3.81156 0.652463 0
M  V30 2479 H 248.804 -3.91886 1.05736 0
M  V30 2480 H 249.57 -3.37716 3.48099 0
M  V30 2481 H 245.449 -3.94085 2.39202 0
M  V30 2482 H 248.993 -3.81285 5.84181 0
M  V30 2483 H 244.89 -4.37754 4.74386 0
M  V30 2484 H 245.658 -4.53516 6.8137 0
M  V30 2485 N 248.321 -0.919034 -1.28029 0
M  V30 2486 C 249.737 -0.617972 -1.4715 0
M  V30 2487 C 249.937 0.835242 -1.83374 0
M  V30 2488 O 248.993 1.61388 -1.94191 0
M  V30 2489 C 250.306 -1.56041 -2.57044 0
M  V30 2490 C 251.854 -1.56769 -2.7091 0
M  V30 2491 C 252.329 -2.49688 -3.83953 0
M  V30 2492 N 253.82 -2.47845 -3.91314 0
M  V30 2493 C 254.555 -3.16437 -4.78179 0
M  V30 2494 N 254.051 -3.94376 -5.69596 0
M  V30 2495 N 255.844 -3.05498 -4.71834 0
M  V30 2496 H 247.995 -1.85866 -1.02798 0
M  V30 2497 H 250.258 -0.797506 -0.512531 0
M  V30 2498 H 249.964 -2.59671 -2.372 0
M  V30 2499 H 249.838 -1.29551 -3.54255 0
M  V30 2500 H 252.225 -0.538745 -2.90141 0
M  V30 2501 H 252.306 -1.87305 -1.74214 0
M  V30 2502 H 251.95 -3.52688 -3.65477 0
M  V30 2503 H 251.88 -2.16453 -4.80058 0
M  V30 2504 H 254.371 -1.91234 -3.25941 0
M  V30 2505 H 254.684 -4.43721 -6.32718 0
M  V30 2506 H 253.029 -3.98481 -5.69419 0
M  V30 2507 H 256.22 -2.44108 -3.99411 0
M  V30 2508 H 256.393 -3.59225 -5.39316 0
M  V30 2509 N 249.799 1.42003 -0.683588 0
M  V30 2510 C 251.215 1.55625 -0.353976 0
M  V30 2511 C 251.415 1.66151 1.14 0
M  V30 2512 O 250.471 1.63329 1.92561 0
M  V30 2513 C 251.784 2.80171 -1.092 0
M  V30 2514 C 253.332 2.93954 -1.07518 0
M  V30 2515 C 253.807 4.21372 -1.79471 0
M  V30 2516 N 255.298 4.28303 -1.76381 0
M  V30 2517 C 256.033 5.25729 -2.28904 0
M  V30 2518 N 255.529 6.29254 -2.89846 0
M  V30 2519 N 257.322 5.17586 -2.19228 0
M  V30 2520 H 249.473 1.33415 -1.6527 0
M  V30 2521 H 251.736 0.64282 -0.696769 0
M  V30 2522 H 251.442 2.78561 -2.14701 0
M  V30 2523 H 251.316 3.7133 -0.662862 0
M  V30 2524 H 253.703 2.95086 -0.028475 0
M  V30 2525 H 253.784 2.04002 -1.54328 0
M  V30 2526 H 253.428 4.21001 -2.84114 0
M  V30 2527 H 253.358 5.10275 -1.30104 0
M  V30 2528 H 255.849 3.54119 -1.31939 0
M  V30 2529 H 256.162 6.99964 -3.27522 0
M  V30 2530 H 254.507 6.29791 -2.93919 0
M  V30 2531 H 257.698 4.35631 -1.71299 0
M  V30 2532 H 257.871 5.93348 -2.60466 0
M  V30 2533 N 251.277 0.427512 1.51691 0
M  V30 2534 C 252.688 -0.0378867 1.86662 0
M  V30 2535 C 253.039 -1.42819 1.34525 0
M  V30 2536 O 252.164 -2.05037 0.692014 0
M  V30 2537 C 252.759 -0.0755266 3.38716 0
M  V30 2538 C 251.318 -0.485309 3.73258 0
M  V30 2539 C 250.465 0.328399 2.75349 0
M  V30 2540 H 253.416 0.64379 1.45055 0
M  V30 2541 H 253.437 -0.887056 3.70016 0
M  V30 2542 H 252.949 0.936487 3.76632 0
M  V30 2543 H 251.05 -1.50329 3.40928 0
M  V30 2544 H 251.163 -0.21693 4.78609 0
M  V30 2545 H 249.527 -0.211905 2.53817 0
M  V30 2546 H 250.31 1.3391 3.16106 0
M  V30 2547 N 252.755 -1.56801 0.158532 0
M  V30 2548 C 253.983 -2.00859 -0.496303 0
M  V30 2549 C 254.398 -1.03871 -1.57659 0
M  V30 2550 O 253.755 -0.0375165 -1.82461 0
M  V30 2551 C 253.806 -3.4479 -1.08638 0
M  V30 2552 O 253.527 -4.38072 -0.0492322 0
M  V30 2553 C 255.028 -4.04185 -1.8207 0
M  V30 2554 H 252.248 -0.65864 -0.128199 0
M  V30 2555 H 254.792 -2.02885 0.256506 0
M  V30 2556 H 252.947 -3.43579 -1.78975 0
M  V30 2557 H 253.361 -5.2227 -0.483102 0
M  V30 2558 H 254.835 -5.06857 -2.18633 0
M  V30 2559 H 255.312 -3.45549 -2.71095 0
M  V30 2560 H 255.918 -4.0906 -1.16405 0
M  V30 2561 N 254.233 0.115231 -1.57178 0
M  V30 2562 C 255.479 0.82357 -1.85325 0
M  V30 2563 C 255.812 1.79349 -0.744814 0
M  V30 2564 O 255.087 1.92899 0.249024 0
M  V30 2565 C 255.37 1.57014 -3.24066 0
M  V30 2566 C 255.223 0.619565 -4.45513 0
M  V30 2567 C 256.542 2.52545 -3.60429 0
M  V30 2568 H 253.661 0.297948 -0.674089 0
M  V30 2569 H 256.303 0.0877138 -1.89797 0
M  V30 2570 H 254.453 2.19742 -3.20383 0
M  V30 2571 H 256.125 0.000837639 -4.613 0
M  V30 2572 H 254.368 -0.0686174 -4.33746 0
M  V30 2573 H 255.039 1.17866 -5.3927 0
M  V30 2574 H 257.515 1.9992 -3.64926 0
M  V30 2575 H 256.391 3.01811 -4.58477 0
M  V30 2576 H 256.652 3.35383 -2.88047 0
M  V30 2577 N 255.711 1.52812 0.385517 0
M  V30 2578 C 256.674 1.77188 1.45386 0
M  V30 2579 C 257.674 0.641953 1.4743 0
M  V30 2580 O 258.864 0.910033 1.4854 0
M  V30 2581 C 255.996 1.87582 2.8465 0
M  V30 2582 H 257.189 2.72583 1.25054 0
M  V30 2583 H 254.742 1.43586 0.617467 0
M  V30 2584 H 255.477 0.941849 3.10322 0
M  V30 2585 H 255.262 2.69748 2.84567 0
M  V30 2586 H 256.752 2.08102 3.62054 0
M  V30 2587 N 257.189 -0.644168 1.43834 0
M  V30 2588 C 258.136 -1.75671 1.49694 0
M  V30 2589 C 259.106 -1.6246 0.345809 0
M  V30 2590 O 260.291 -1.82573 0.554234 0
M  V30 2591 C 257.431 -3.13867 1.43463 0
M  V30 2592 C 256.544 -3.38147 2.6885 0
M  V30 2593 C 255.679 -4.66241 2.54544 0
M  V30 2594 C 254.718 -4.83657 3.75157 0
M  V30 2595 N 253.855 -6.03016 3.59605 0
M  V30 2596 H 258.695 -1.69998 2.44754 0
M  V30 2597 H 256.232 -0.829458 1.21484 0
M  V30 2598 H 258.19 -3.9377 1.37843 0
M  V30 2599 H 256.82 -3.18588 0.519783 0
M  V30 2600 H 255.872 -2.52276 2.84712 0
M  V30 2601 H 257.184 -3.46899 3.58417 0
M  V30 2602 H 256.338 -5.54285 2.46683 0
M  V30 2603 H 255.077 -4.59826 1.62516 0
M  V30 2604 H 254.082 -3.94046 3.83416 0
M  V30 2605 H 255.307 -4.91896 4.68204 0
M  V30 2606 H 253.253 -5.97715 2.7032 0
M  V30 2607 H 253.17 -6.12766 4.42779 0
M  V30 2608 H 254.438 -6.93657 3.55613 0
M  V30 2609 N 258.668 -1.30515 -0.883378 0
M  V30 2610 C 259.914 -1.19607 -1.63774 0
M  V30 2611 C 260.247 0.248314 -1.92606 0
M  V30 2612 O 259.522 1.17742 -1.54813 0
M  V30 2613 C 259.805 -2.02669 -2.97653 0
M  V30 2614 C 259.658 -3.55335 -2.75784 0
M  V30 2615 C 260.977 -1.86573 -3.98596 0
M  V30 2616 H 258.096 -0.435856 -0.594305 0
M  V30 2617 H 260.738 -1.60165 -1.02212 0
M  V30 2618 H 258.888 -1.68208 -3.50197 0
M  V30 2619 H 260.56 -3.99863 -2.30016 0
M  V30 2620 H 258.803 -3.79438 -2.1026 0
M  V30 2621 H 259.474 -4.08745 -3.70988 0
M  V30 2622 H 261.95 -2.16703 -3.55217 0
M  V30 2623 H 260.826 -2.47014 -4.90179 0
M  V30 2624 H 261.087 -0.825321 -4.34328 0
M  V30 2625 N 260.146 1.09593 -1.13257 0
M  V30 2626 C 261.392 1.82003 -0.89458 0
M  V30 2627 C 261.725 1.85402 0.577906 0
M  V30 2628 O 261 1.32099 1.42759 0
M  V30 2629 C 261.283 3.28237 -1.48096 0
M  V30 2630 C 261.136 3.3312 -3.02244 0
M  V30 2631 C 262.455 4.24871 -1.14774 0
M  V30 2632 H 259.574 0.66077 -0.326424 0
M  V30 2633 H 262.216 1.28389 -1.40058 0
M  V30 2634 H 260.366 3.74024 -1.05062 0
M  V30 2635 H 262.038 2.95748 -3.54021 0
M  V30 2636 H 260.281 2.72756 -3.37323 0
M  V30 2637 H 260.952 4.3613 -3.38371 0
M  V30 2638 H 263.428 3.87361 -1.51957 0
M  V30 2639 H 262.304 5.25532 -1.58452 0
M  V30 2640 H 262.565 4.42058 -0.0611849 0
M  V30 2641 N 261.624 0.925811 1.2754 0
M  V30 2642 C 262.572 0.413897 2.28888 0
M  V30 2643 C 263.566 -0.500779 1.61829 0
M  V30 2644 O 264.772 -0.38069 1.75928 0
M  V30 2645 H 261.147 0.115274 0.743112 0
M  V30 2646 H 263.118 1.28151 2.69481 0
M  V30 2647 C 261.867 -0.319792 3.46226 0
M  V30 2648 H 261.19 0.374846 3.98039 0
M  V30 2649 H 262.63 -0.642435 4.19105 0
M  V30 2650 C 261.089 -1.53209 3.00048 0
M  V30 2651 O 261.619 -2.6309 3.03557 0
M  V30 2652 N 259.825 -1.38326 2.55566 0
M  V30 2653 H 259.372 -0.489292 2.5291 0
M  V30 2654 H 259.33 -2.19564 2.25031 0
M  V30 2655 N 263.102 -1.41638 0.69111 0
M  V30 2656 C 264.032 -2.3347 0.037248 0
M  V30 2657 C 265.013 -1.51575 -0.771947 0
M  V30 2658 O 266.198 -1.80126 -0.72582 0
M  V30 2659 C 263.328 -3.35354 -0.903064 0
M  V30 2660 C 262.282 -4.27526 -0.201288 0
M  V30 2661 C 261.608 -5.19747 -1.25565 0
M  V30 2662 C 262.908 -5.13959 0.929689 0
M  V30 2663 H 264.602 -2.88397 0.804227 0
M  V30 2664 H 262.148 -1.38669 0.388189 0
M  V30 2665 H 264.101 -3.98519 -1.36969 0
M  V30 2666 H 262.825 -2.78767 -1.70166 0
M  V30 2667 H 261.484 -3.65779 0.245265 0
M  V30 2668 H 261.132 -4.59479 -2.04666 0
M  V30 2669 H 260.832 -5.8225 -0.791128 0
M  V30 2670 H 262.356 -5.85789 -1.72288 0
M  V30 2671 H 263.77 -5.70718 0.543546 0
M  V30 2672 H 262.167 -5.85379 1.32103 0
M  V30 2673 H 263.237 -4.51389 1.77133 0
M  V30 2674 N 264.58 -0.43555 -1.51462 0
M  V30 2675 C 265.828 0.131254 -2.01673 0
M  V30 2676 C 266.149 1.43368 -1.32177 0
M  V30 2677 O 265.419 1.90524 -0.455769 0
M  V30 2678 H 263.999 0.0514954 -0.745223 0
M  V30 2679 H 266.661 -0.577847 -1.86137 0
M  V30 2680 H 265.757 0.308446 -3.10572 0
M  V30 2681 N 266.058 1.56714 -0.166846 0
M  V30 2682 C 267.304 1.97039 0.479962 0
M  V30 2683 C 267.637 1.05264 1.63197 0
M  V30 2684 O 266.912 0.0988833 1.94248 0
M  V30 2685 C 267.195 3.46867 0.967212 0
M  V30 2686 C 267.048 4.49421 -0.18466 0
M  V30 2687 C 268.367 3.9968 1.84238 0
M  V30 2688 H 265.486 0.71641 0.172992 0
M  V30 2689 H 268.128 1.8832 -0.252079 0
M  V30 2690 H 266.278 3.54428 1.59101 0
M  V30 2691 H 267.95 4.53924 -0.821621 0
M  V30 2692 H 266.193 4.25573 -0.840837 0
M  V30 2693 H 266.864 5.51644 0.198317 0
M  V30 2694 H 269.34 3.94723 1.31655 0
M  V30 2695 H 268.216 5.04941 2.15234 0
M  V30 2696 H 268.477 3.43226 2.78654 0
M  V30 2697 N 267.536 -0.106894 1.57237 0
M  V30 2698 C 268.782 -0.808678 1.86633 0
M  V30 2699 C 269.137 -1.76917 0.756178 0
M  V30 2700 O 268.43 -1.90055 -0.242834 0
M  V30 2701 C 268.624 -1.58628 3.20268 0
M  V30 2702 C 268.453 -0.702592 4.44178 0
M  V30 2703 C 267.223 -0.352808 5.04067 0
M  V30 2704 C 269.421 -0.0148031 5.14298 0
M  V30 2705 N 267.403 0.540279 6.11518 0
M  V30 2706 C 268.774 0.736809 6.15606 0
M  V30 2707 C 270.829 0.0603524 4.97863 0
M  V30 2708 C 269.532 1.55654 7.02257 0
M  V30 2709 C 271.558 0.866942 5.85011 0
M  V30 2710 C 270.92 1.60671 6.85831 0
M  V30 2711 H 267.019 -0.27246 0.733001 0
M  V30 2712 H 269.603 -0.0717858 1.94568 0
M  V30 2713 H 267.774 -2.29413 3.13408 0
M  V30 2714 H 269.506 -2.23434 3.3743 0
M  V30 2715 H 266.261 -0.697802 4.68431 0
M  V30 2716 H 266.685 0.979029 6.69884 0
M  V30 2717 H 271.327 -0.497236 4.19866 0
M  V30 2718 H 269.045 2.12524 7.79653 0
M  V30 2719 H 272.631 0.927612 5.74358 0
M  V30 2720 H 271.511 2.2208 7.52097 0
M  V30 2721 N 269.014 -1.53014 -0.377408 0
M  V30 2722 C 270.26 -1.68872 -1.12294 0
M  V30 2723 C 270.593 -0.433224 -1.89306 0
M  V30 2724 O 269.868 0.569258 -1.85983 0
M  V30 2725 C 270.151 -2.93115 -2.09179 0
M  V30 2726 C 270.004 -4.28794 -1.35853 0
M  V30 2727 C 271.323 -3.12928 -3.09458 0
M  V30 2728 H 268.442 -0.614518 -0.406862 0
M  V30 2729 H 271.084 -1.85633 -0.40503 0
M  V30 2730 H 269.234 -2.78956 -2.70399 0
M  V30 2731 H 270.906 -4.54742 -0.775082 0
M  V30 2732 H 269.149 -4.28744 -0.660364 0
M  V30 2733 H 269.82 -5.11837 -2.06706 0
M  V30 2734 H 272.296 -3.26194 -2.58334 0
M  V30 2735 H 271.172 -4.01316 -3.74482 0
M  V30 2736 H 271.433 -2.27669 -3.78971 0
M  V30 2737 N 270.492 0.636531 -1.44174 0
M  V30 2738 C 271.422 1.76003 -1.53444 0
M  V30 2739 C 272.403 1.65619 -0.387841 0
M  V30 2740 O 273.588 1.84461 -0.607257 0
M  V30 2741 C 270.718 3.14511 -1.4731 0
M  V30 2742 C 269.672 3.39677 -2.60391 0
M  V30 2743 C 268.998 4.78159 -2.39308 0
M  V30 2744 C 270.298 3.32772 -4.02567 0
M  V30 2745 H 271.992 1.68501 -2.47483 0
M  V30 2746 H 269.538 0.809237 -1.19111 0
M  V30 2747 H 271.491 3.92878 -1.52397 0
M  V30 2748 H 270.215 3.22783 -0.49785 0
M  V30 2749 H 268.874 2.63688 -2.54684 0
M  V30 2750 H 268.522 4.83128 -1.39988 0
M  V30 2751 H 268.222 4.95956 -3.15122 0
M  V30 2752 H 269.746 5.58762 -2.46205 0
M  V30 2753 H 271.16 4.01051 -4.09672 0
M  V30 2754 H 269.557 3.62104 -4.7854 0
M  V30 2755 H 270.627 2.30669 -4.2652 0
M  V30 2756 N 271.97 1.30982 0.876444 0
M  V30 2757 C 273.195 1.23373 1.66715 0
M  V30 2758 C 273.62 -0.19885 1.87046 0
M  V30 2759 O 272.978 -1.1427 1.40756 0
M  V30 2760 C 273.026 1.97644 3.01611 0
M  V30 2761 O 272.13 1.30935 3.91062 0
M  V30 2762 H 271.471 0.426279 0.509099 0
M  V30 2763 H 274.001 1.72944 1.09323 0
M  V30 2764 H 274.011 2.06992 3.51594 0
M  V30 2765 H 272.686 3.01829 2.86133 0
M  V30 2766 H 271.263 1.29996 3.49507 0
M  V30 2767 N 273.449 -1.08991 1.13837 0
M  V30 2768 C 274.379 -2.17771 0.842507 0
M  V30 2769 C 275.36 -1.6892 -0.20001 0
M  V30 2770 O 276.545 -1.94113 -0.0579731 0
M  V30 2771 C 273.675 -3.4589 0.312644 0
M  V30 2772 C 272.629 -4.08099 1.28992 0
M  V30 2773 C 271.955 -5.31098 0.619623 0
M  V30 2774 C 273.255 -4.50077 2.65005 0
M  V30 2775 H 274.949 -2.42777 1.75213 0
M  V30 2776 H 272.495 -1.16682 0.843875 0
M  V30 2777 H 274.448 -4.21297 0.0933043 0
M  V30 2778 H 273.172 -3.20419 -0.632382 0
M  V30 2779 H 271.831 -3.34717 1.49533 0
M  V30 2780 H 271.479 -5.0191 -0.33102 0
M  V30 2781 H 271.179 -5.73674 1.27167 0
M  V30 2782 H 272.703 -6.09224 0.409669 0
M  V30 2783 H 274.117 -5.16688 2.48407 0
M  V30 2784 H 272.514 -5.03553 3.26427 0
M  V30 2785 H 273.584 -3.62257 3.22332 0
M  V30 2786 N 274.927 -0.932562 -1.27047 0
M  V30 2787 C 275.857 -0.452902 -2.29066 0
M  V30 2788 C 276.838 0.489338 -1.62909 0
M  V30 2789 O 278.023 0.393046 -1.90181 0
M  V30 2790 C 275.153 0.290698 -3.46081 0
M  V30 2791 C 274.107 -0.564168 -4.24265 0
M  V30 2792 C 273.433 0.308886 -5.33807 0
M  V30 2793 C 274.733 -1.83112 -4.89149 0
M  V30 2794 H 276.427 -1.30552 -2.69437 0
M  V30 2795 H 273.973 -0.629201 -1.29526 0
M  V30 2796 H 275.926 0.637233 -4.16554 0
M  V30 2797 H 274.65 1.17738 -3.0464 0
M  V30 2798 H 273.309 -0.893477 -3.55545 0
M  V30 2799 H 272.957 1.19467 -4.88607 0
M  V30 2800 H 272.657 -0.259633 -5.87026 0
M  V30 2801 H 274.181 0.650884 -6.07121 0
M  V30 2802 H 275.595 -1.55236 -5.51883 0
M  V30 2803 H 273.992 -2.34353 -5.52448 0
M  V30 2804 H 275.062 -2.54772 -4.12576 0
M  V30 2805 N 276.405 1.4127 -0.698611 0
M  V30 2806 C 277.651 2.01478 -0.231207 0
M  V30 2807 C 277.984 1.55215 1.16713 0
M  V30 2808 O 277.259 0.764672 1.78838 0
M  V30 2809 C 277.542 3.58912 -0.292281 0
M  V30 2810 C 277.395 4.15293 -1.72778 0
M  V30 2811 C 278.714 4.38736 0.346194 0
M  V30 2812 H 275.833 0.732025 -0.0854878 0
M  V30 2813 H 278.475 1.67977 -0.887906 0
M  V30 2814 H 276.625 3.87582 0.26686 0
M  V30 2815 H 278.297 3.97486 -2.341 0
M  V30 2816 H 276.54 3.7022 -2.26096 0
M  V30 2817 H 277.211 5.24452 -1.72202 0
M  V30 2818 H 279.687 4.15897 -0.130035 0
M  V30 2819 H 278.563 5.48221 0.272932 0
M  V30 2820 H 278.824 4.18425 1.42734 0
M  V30 2821 N 277.883 0.443576 1.51229 0
M  V30 2822 C 279.132 -0.122332 2.01329 0
M  V30 2823 C 279.445 -1.43237 1.33201 0
M  V30 2824 O 280.651 -2.0816 1.74304 0
M  V30 2825 C 279.107 -0.268551 3.58897 0
M  V30 2826 C 278.715 1.03142 4.35965 0
M  V30 2827 C 280.459 -0.787894 4.17124 0
M  V30 2828 C 278.366 0.850504 5.85252 0
M  V30 2829 H 277.296 -0.0494929 0.752374 0
M  V30 2830 H 279.947 0.574289 1.74282 0
M  V30 2831 H 278.329 -1.02832 3.82415 0
M  V30 2832 H 279.503 1.80001 4.24189 0
M  V30 2833 H 277.818 1.47977 3.89219 0
M  V30 2834 H 280.415 -0.939841 5.26375 0
M  V30 2835 H 280.758 -1.77201 3.76703 0
M  V30 2836 H 281.291 -0.0862669 3.97706 0
M  V30 2837 H 278.03 1.80718 6.30096 0
M  V30 2838 H 277.55 0.121825 5.99676 0
M  V30 2839 H 279.229 0.506163 6.45017 0
M  V30 2840 N 279.361 -1.56624 0.175154 0
M  V30 2841 C 280.291 -2.21155 -0.749195 0
M  V30 2842 C 281.272 -1.16836 -1.23626 0
M  V30 2843 O 282.457 -1.45277 -1.28873 0
M  V30 2844 C 279.587 -2.8553 -1.97711 0
M  V30 2845 C 278.541 -3.95921 -1.62575 0
M  V30 2846 C 277.867 -4.47365 -2.92864 0
M  V30 2847 C 279.167 -5.15323 -0.850838 0
M  V30 2848 H 280.861 -2.98653 -0.211295 0
M  V30 2849 H 278.407 -1.43651 -0.100188 0
M  V30 2850 H 280.36 -3.2935 -2.62881 0
M  V30 2851 H 279.084 -2.05406 -2.53921 0
M  V30 2852 H 277.743 -3.52762 -0.997719 0
M  V30 2853 H 277.391 -3.64027 -3.47122 0
M  V30 2854 H 277.091 -5.21839 -2.70106 0
M  V30 2855 H 278.615 -4.93873 -3.59056 0
M  V30 2856 H 280.029 -5.55812 -1.40521 0
M  V30 2857 H 278.426 -5.95739 -0.722154 0
M  V30 2858 H 279.496 -4.84661 0.152082 0
M  V30 2859 N 280.839 0.0985539 -1.57292 0
M  V30 2860 C 282.25 0.653457 -1.74891 0
M  V30 2861 C 282.601 1.7929 -0.796838 0
M  V30 2862 O 281.726 2.16385 0.0254886 0
M  V30 2863 C 282.321 1.19216 -3.17133 0
M  V30 2864 C 280.88 1.69316 -3.36168 0
M  V30 2865 C 280.027 0.601294 -2.70702 0
M  V30 2866 H 282.978 -0.127497 -1.58187 0
M  V30 2867 H 282.999 2.06154 -3.19814 0
M  V30 2868 H 282.511 0.362635 -3.86402 0
M  V30 2869 H 280.612 2.5468 -2.71972 0
M  V30 2870 H 280.725 1.78853 -4.44464 0
M  V30 2871 H 279.089 1.0399 -2.32504 0
M  V30 2872 H 279.872 -0.217592 -3.4261 0
M  V30 2873 N 282.317 1.53212 0.369288 0
M  V30 2874 C 283.566 1.68436 1.10961 0
M  V30 2875 C 283.879 0.440738 1.9057 0
M  V30 2876 O 285.085 0.473446 2.6734 0
M  V30 2877 C 283.541 2.97744 2.0218 0
M  V30 2878 C 283.149 4.29355 1.279 0
M  V30 2879 C 284.893 3.22334 2.76226 0
M  V30 2880 C 282.8 5.49755 2.17999 0
M  V30 2881 H 281.73 0.627568 0.41794 0
M  V30 2882 H 284.381 1.79713 0.370884 0
M  V30 2883 H 282.763 2.8026 2.79768 0
M  V30 2884 H 283.937 4.57458 0.554007 0
M  V30 2885 H 282.252 4.11179 0.657311 0
M  V30 2886 H 284.849 4.09471 3.43857 0
M  V30 2887 H 285.192 2.38238 3.41392 0
M  V30 2888 H 285.725 3.40475 2.05723 0
M  V30 2889 H 282.464 6.36318 1.57417 0
M  V30 2890 H 281.984 5.25937 2.88359 0
M  V30 2891 H 283.663 5.84401 2.77641 0
M  V30 2892 N 283.795 -0.628877 1.44509 0
M  V30 2893 C 285.041 -1.39045 1.47629 0
M  V30 2894 C 285.374 -1.93892 0.109343 0
M  V30 2895 O 284.649 -1.7379 -0.87334 0
M  V30 2896 C 284.932 -2.55408 2.53848 0
M  V30 2897 C 284.785 -2.05896 3.99909 0
M  V30 2898 C 286.104 -3.5759 2.56549 0
M  V30 2899 H 283.223 -0.504232 0.537512 0
M  V30 2900 H 285.865 -0.710854 1.76201 0
M  V30 2901 H 284.015 -3.13384 2.29615 0
M  V30 2902 H 285.687 -1.52734 4.35282 0
M  V30 2903 H 283.93 -1.37061 4.11578 0
M  V30 2904 H 284.601 -2.89681 4.69882 0
M  V30 2905 H 287.077 -3.09419 2.78207 0
M  V30 2906 H 285.953 -4.36527 3.32769 0
M  V30 2907 H 286.214 -4.11808 1.60832 0
M  V30 2908 N 285.273 -1.31445 -0.869486 0
M  V30 2909 C 286.519 -1.21337 -1.62496 0
M  V30 2910 C 286.852 0.227872 -1.92858 0
M  V30 2911 O 286.127 1.16094 -1.56053 0
M  V30 2912 C 286.41 -2.05814 -2.95487 0
M  V30 2913 C 286.263 -3.5824 -2.72 0
M  V30 2914 C 287.582 -1.9079 -3.96594 0
M  V30 2915 H 284.701 -0.442135 -0.589649 0
M  V30 2916 H 287.343 -1.6124 -1.00507 0
M  V30 2917 H 285.493 -1.71913 -3.48394 0
M  V30 2918 H 287.165 -4.0228 -2.25762 0
M  V30 2919 H 285.408 -3.81647 -2.06224 0
M  V30 2920 H 286.079 -4.12657 -3.66631 0
M  V30 2921 H 288.555 -2.20459 -3.52898 0
M  V30 2922 H 287.431 -2.52199 -4.87531 0
M  V30 2923 H 287.692 -0.871341 -4.33428 0
M  V30 2924 N 286.751 1.08385 -1.14413 0
M  V30 2925 C 287.998 1.80776 -0.912482 0
M  V30 2926 C 288.326 1.86236 0.560934 0
M  V30 2927 O 287.581 1.33431 1.43159 0
M  V30 2928 C 287.88 3.26273 -1.45879 0
M  V30 2929 C 287.546 3.4093 -2.95089 0
M  V30 2930 C 286.208 3.44638 -3.35824 0
M  V30 2931 C 288.56 3.44591 -3.91033 0
M  V30 2932 C 285.888 3.49597 -4.71167 0
M  V30 2933 C 288.24 3.51086 -5.26233 0
M  V30 2934 C 286.904 3.53067 -5.6648 0
M  V30 2935 H 286.174 0.661507 -0.333901 0
M  V30 2936 H 288.821 1.27613 -1.42784 0
M  V30 2937 H 287.126 3.82146 -0.864376 0
M  V30 2938 H 288.823 3.80839 -1.2555 0
M  V30 2939 H 285.413 3.38736 -2.62594 0
M  V30 2940 H 289.597 3.40957 -3.60641 0
M  V30 2941 H 284.853 3.49424 -5.0171 0
M  V30 2942 H 289.027 3.52864 -6.00383 0
M  V30 2943 H 286.654 3.56662 -6.71339 0
M  V30 2944 N 288.23 0.939286 1.26551 0
M  V30 2945 C 289.455 0.602008 1.98471 0
M  V30 2946 C 289.88 -0.815624 1.69497 0
M  V30 2947 O 289.238 -1.54912 0.941905 0
M  V30 2948 C 289.286 0.848407 3.50477 0
M  V30 2949 O 288.39 -0.0804009 4.12322 0
M  V30 2950 H 287.731 0.23049 0.622712 0
M  V30 2951 H 290.261 1.2617 1.61066 0
M  V30 2952 H 290.271 0.768553 4.00696 0
M  V30 2953 H 288.946 1.88171 3.70897 0
M  V30 2954 H 287.523 0.0503508 3.72866 0
M  V30 2955 N 289.708 -1.40897 0.706093 0
M  V30 2956 C 291.124 -1.55042 0.37869 0
M  V30 2957 C 291.324 -1.67944 -1.11342 0
M  V30 2958 O 290.38 -1.66372 -1.89938 0
M  V30 2959 C 291.693 -2.78398 1.13643 0
M  V30 2960 C 293.241 -2.92206 1.12181 0
M  V30 2961 C 293.716 -4.18463 1.86152 0
M  V30 2962 N 295.207 -4.25443 1.83173 0
M  V30 2963 C 295.942 -5.2202 2.37239 0
M  V30 2964 N 295.438 -6.24563 2.99821 0
M  V30 2965 N 297.231 -5.14033 2.27435 0
M  V30 2966 H 289.382 -1.30769 1.67372 0
M  V30 2967 H 291.645 -0.631653 0.706907 0
M  V30 2968 H 291.351 -2.7511 2.19106 0
M  V30 2969 H 291.225 -3.70228 0.721853 0
M  V30 2970 H 293.612 -2.95004 0.0754171 0
M  V30 2971 H 293.693 -2.01521 1.57554 0
M  V30 2972 H 293.337 -4.16427 2.90776 0
M  V30 2973 H 293.267 -5.08141 1.38206 0
M  V30 2974 H 295.758 -3.51976 1.37556 0
M  V30 2975 H 296.071 -6.94665 3.38616 0
M  V30 2976 H 294.416 -6.25035 3.03902 0
M  V30 2977 H 297.607 -4.3285 1.78208 0
M  V30 2978 H 297.78 -5.89129 2.69873 0
M  V30 2979 N 291.186 -0.45159 -1.50991 0
M  V30 2980 C 292.414 0.108334 -2.06616 0
M  V30 2981 C 292.829 1.35224 -1.31757 0
M  V30 2982 O 292.186 1.78475 -0.381174 0
M  V30 2983 C 292.237 0.41619 -3.59096 0
M  V30 2984 O 291.958 -0.778361 -4.3113 0
M  V30 2985 C 293.459 1.02523 -4.31282 0
M  V30 2986 H 290.679 0.00159995 -0.670998 0
M  V30 2987 H 293.223 -0.634771 -1.94399 0
M  V30 2988 H 291.378 1.10921 -3.71181 0
M  V30 2989 H 291.792 -0.511181 -5.22003 0
M  V30 2990 H 293.266 1.19053 -5.39009 0
M  V30 2991 H 293.743 2.01013 -3.905 0
M  V30 2992 H 294.349 0.371173 -4.23677 0
M  V30 2993 N 292.664 1.56529 -0.183458 0
M  V30 2994 C 293.627 2.17324 0.728223 0
M  V30 2995 C 294.627 1.12453 1.14939 0
M  V30 2996 O 295.817 1.37902 1.06437 0
M  V30 2997 C 292.949 2.76591 1.99274 0
M  V30 2998 H 294.142 2.99241 0.198772 0
M  V30 2999 H 291.695 1.5616 0.0661391 0
M  V30 3000 H 292.43 1.98441 2.56499 0
M  V30 3001 H 292.215 3.5335 1.69959 0
M  V30 3002 H 293.705 3.23311 2.6431 0
M  V30 3003 N 294.142 -0.090211 1.57342 0
M  V30 3004 C 295.105 -1.09335 2.01441 0
M  V30 3005 C 296.105 -1.32666 0.908641 0
M  V30 3006 O 297.295 -1.28697 1.174 0
M  V30 3007 C 294.427 -2.44136 2.3793 0
M  V30 3008 H 295.62 -0.713662 2.91285 0
M  V30 3009 H 293.173 -0.335404 1.52659 0
M  V30 3010 H 293.908 -2.86972 1.51055 0
M  V30 3011 H 293.693 -2.28548 3.18603 0
M  V30 3012 H 295.183 -3.16277 2.72688 0
M  V30 3013 N 295.62 -1.53406 -0.361157 0
M  V30 3014 C 296.568 -1.80832 -1.46296 0
M  V30 3015 C 297.562 -0.677699 -1.55253 0
M  V30 3016 O 298.768 -0.860723 -1.58087 0
M  V30 3017 H 295.143 -0.572627 -0.487445 0
M  V30 3018 H 297.114 -2.73045 -1.20371 0
M  V30 3019 C 295.863 -2.01907 -2.8307 0
M  V30 3020 H 295.186 -2.88349 -2.76938 0
M  V30 3021 H 296.626 -2.25072 -3.59331 0
M  V30 3022 C 295.085 -0.799449 -3.27277 0
M  V30 3023 O 295.615 0.00971761 -4.01699 0
M  V30 3024 N 293.821 -0.621637 -2.83873 0
M  V30 3025 H 293.368 -1.28126 -2.23476 0
M  V30 3026 H 293.326 0.19298 -3.13807 0
M  V30 3027 N 297.098 0.621204 -1.44841 0
M  V30 3028 C 298.323 1.41244 -1.51871 0
M  V30 3029 C 298.748 1.87519 -0.147764 0
M  V30 3030 O 298.106 1.59334 0.865 0
M  V30 3031 C 298.154 2.60221 -2.49634 0
M  V30 3032 O 297.258 3.60395 -2.00473 0
M  V30 3033 H 296.599 0.42223 -0.512463 0
M  V30 3034 H 299.129 0.757305 -1.90069 0
M  V30 3035 H 299.139 3.0764 -2.67996 0
M  V30 3036 H 297.814 2.25887 -3.4921 0
M  V30 3037 H 296.391 3.19717 -1.91925 0
M  V30 3038 N 298.576 1.31904 0.862503 0
M  V30 3039 C 299.853 1.12644 1.59908 0
M  V30 3040 C 300.233 -0.316104 2.0872 0
M  V30 3041 O 299.581 -1.31145 1.87118 0
M  V30 3042 C 299.791 2.1472 2.7513 0
M  V30 3043 C 301.139 2.47637 3.44907 0
M  V30 3044 O 302.163 2.13205 2.85346 0
M  V30 3045 O 301.022 3.06632 4.52371 0
M  V30 3046 H 298.116 0.43416 0.703871 0
M  V30 3047 H 300.662 1.43408 0.907314 0
M  V30 3048 H 299.434 3.1172 2.3653 0
M  V30 3049 H 299.057 1.84905 3.51989 0
M  V30 3050 N 300.054 -1.07777 1.14986 0
M  V30 3051 C 301.302 -1.79934 0.920235 0
M  V30 3052 C 301.623 -1.86955 -0.554336 0
M  V30 3053 O 300.893 -1.36731 -1.40291 0
M  V30 3054 H 299.473 -0.666424 0.337473 0
M  V30 3055 H 302.135 -1.3027 1.44968 0
M  V30 3056 H 301.231 -2.82539 1.32583 0
M  V30 3057 N 301.532 -0.945985 -1.26051 0
M  V30 3058 C 302.76 -0.613025 -1.9761 0
M  V30 3059 C 303.175 0.813035 -1.70397 0
M  V30 3060 O 302.532 1.54274 -0.974979 0
M  V30 3061 C 302.583 -0.85159 -3.51326 0
M  V30 3062 O 302.304 -2.22157 -3.77595 0
M  V30 3063 C 303.805 -0.529831 -4.40122 0
M  V30 3064 H 301.025 -0.230593 -0.630133 0
M  V30 3065 H 303.569 -1.268 -1.60443 0
M  V30 3066 H 301.724 -0.243151 -3.86636 0
M  V30 3067 H 302.138 -2.2852 -4.721 0
M  V30 3068 H 303.612 -0.747348 -5.46917 0
M  V30 3069 H 304.089 0.535341 -4.35925 0
M  V30 3070 H 304.695 -1.11721 -4.10364 0
M  V30 3071 N 303.011 1.40521 -0.713556 0
M  V30 3072 C 304.257 2.01221 -0.252564 0
M  V30 3073 C 304.59 1.56444 1.1506 0
M  V30 3074 O 303.865 0.783597 1.78017 0
M  V30 3075 C 304.148 3.58582 -0.330332 0
M  V30 3076 C 304.001 4.13437 -1.77173 0
M  V30 3077 C 305.32 4.39079 0.299641 0
M  V30 3078 H 302.439 0.731077 -0.0932471 0
M  V30 3079 H 305.081 1.67026 -0.905673 0
M  V30 3080 H 303.231 3.87844 0.225737 0
M  V30 3081 H 304.903 3.9498 -2.38303 0
M  V30 3082 H 303.146 3.67801 -2.3001 0
M  V30 3083 H 303.817 5.22597 -1.77755 0
M  V30 3084 H 306.293 4.15735 -0.174139 0
M  V30 3085 H 305.169 5.4848 0.214771 0
M  V30 3086 H 305.43 4.19915 1.38288 0
M  V30 3087 N 304.489 0.459591 1.5075 0
M  V30 3088 C 305.452 -0.329093 2.26825 0
M  V30 3089 C 306.452 -0.930481 1.31144 0
M  V30 3090 O 307.642 -0.801453 1.54669 0
M  V30 3091 C 304.774 -1.46768 3.07688 0
M  V30 3092 H 305.967 0.337924 2.9799 0
M  V30 3093 H 303.52 0.213336 1.54837 0
M  V30 3094 H 304.255 -2.17009 2.40993 0
M  V30 3095 H 304.04 -1.04238 3.77991 0
M  V30 3096 H 305.53 -2.02433 3.65254 0
M  V30 3097 N 305.967 -1.56429 0.191757 0
M  V30 3098 C 307.207 -1.99383 -0.450099 0
M  V30 3099 C 307.571 -1.07581 -1.59029 0
M  V30 3100 O 308.772 -1.39758 -2.29611 0
M  V30 3101 C 307.043 -3.45841 -0.901611 0
M  V30 3102 S 308.602 -4.10822 -1.54177 0
M  V30 3103 H 305.42 -0.696253 -0.144057 0
M  V30 3104 H 308.022 -1.93276 0.294036 0
M  V30 3105 H 306.726 -4.10354 -0.0616596 0
M  V30 3106 H 306.257 -3.55757 -1.67929 0
M  V30 3107 H 308.272 -4.07553 -2.83046 0
M  V30 3108 N 307.445 0.0818655 -1.57387 0
M  V30 3109 C 308.393 1.11712 -2.04018 0
M  V30 3110 C 309.387 1.40683 -0.94364 0
M  V30 3111 O 310.593 1.40209 -1.12878 0
M  V30 3112 H 306.968 0.377542 -0.650358 0
M  V30 3113 H 308.939 0.697614 -2.90131 0
M  V30 3114 C 307.688 2.42537 -2.49141 0
M  V30 3115 H 307.011 2.21092 -3.33104 0
M  V30 3116 H 308.451 3.13446 -2.85531 0
M  V30 3117 C 306.91 3.0778 -1.37014 0
M  V30 3118 O 307.44 3.95436 -0.706621 0
M  V30 3119 N 305.646 2.68242 -1.11779 0
M  V30 3120 H 305.193 1.97052 -1.65917 0
M  V30 3121 H 305.151 3.1222 -0.369594 0
M  V30 3122 N 308.923 1.53595 0.353017 0
M  V30 3123 C 309.856 1.7572 1.45594 0
M  V30 3124 C 310.834 0.605961 1.50887 0
M  V30 3125 O 312.018 0.840023 1.68748 0
M  V30 3126 C 309.145 1.84732 2.83887 0
M  V30 3127 C 308.191 3.06808 2.96262 0
M  V30 3128 S 309.024 4.66065 2.63711 0
M  V30 3129 C 310.18 4.77943 4.04131 0
M  V30 3130 H 310.413 2.68994 1.26608 0
M  V30 3131 H 307.946 1.44343 0.548117 0
M  V30 3132 H 309.904 1.9061 3.63563 0
M  V30 3133 H 308.565 0.92488 3.00175 0
M  V30 3134 H 307.758 3.09761 3.97573 0
M  V30 3135 H 307.36 2.99108 2.24523 0
M  V30 3136 H 309.652 4.5877 4.98534 0
M  V30 3137 H 310.595 5.80022 4.06177 0
M  V30 3138 H 311.003 4.06472 3.91715 0
M  V30 3139 N 310.401 -0.613514 1.45168 0
M  V30 3140 C 311.331 -1.7354 1.56225 0
M  V30 3141 C 312.312 -1.64981 0.41414 0
M  V30 3142 O 313.497 -1.83472 0.636526 0
M  V30 3143 C 310.627 -3.12128 1.52295 0
M  V30 3144 C 309.581 -3.35491 2.65762 0
M  V30 3145 C 308.907 -4.74291 2.46885 0
M  V30 3146 C 310.207 -3.26325 4.0781 0
M  V30 3147 H 311.901 -1.64543 2.50132 0
M  V30 3148 H 309.447 -0.790185 1.20383 0
M  V30 3149 H 311.4 -3.90404 1.58628 0
M  V30 3150 H 310.124 -3.2195 0.549139 0
M  V30 3151 H 308.783 -2.59603 2.58847 0
M  V30 3152 H 308.431 -4.80839 1.47657 0
M  V30 3153 H 308.131 -4.9088 3.22972 0
M  V30 3154 H 309.655 -5.54775 2.55063 0
M  V30 3155 H 311.069 -3.94483 4.16 0
M  V30 3156 H 309.466 -3.54445 4.8424 0
M  V30 3157 H 310.536 -2.23855 4.30136 0
M  V30 3158 N 311.879 -1.3236 -0.855495 0
M  V30 3159 C 312.812 -1.15559 -1.96777 0
M  V30 3160 C 313.79 -0.0552681 -1.62506 0
M  V30 3161 O 314.974 -0.214419 -1.87277 0
M  V30 3162 C 312.101 -0.768851 -3.29858 0
M  V30 3163 C 311.147 -1.87429 -3.83109 0
M  V30 3164 S 311.98 -3.48243 -4.06801 0
M  V30 3165 C 313.136 -3.11539 -5.42858 0
M  V30 3166 H 313.369 -2.09717 -2.10727 0
M  V30 3167 H 310.902 -1.17011 -1.00737 0
M  V30 3168 H 312.86 -0.55248 -4.06765 0
M  V30 3169 H 311.521 0.153857 -3.13723 0
M  V30 3170 H 310.714 -1.55667 -4.79358 0
M  V30 3171 H 310.316 -2.04647 -3.13042 0
M  V30 3172 H 312.608 -2.61331 -6.2507 0
M  V30 3173 H 313.551 -4.06806 -5.79582 0
M  V30 3174 H 313.959 -2.48582 -5.06821 0
M  V30 3175 N 313.357 1.07166 -1.15556 0
M  V30 3176 C 314.768 1.6127 -0.940693 0
M  V30 3177 C 315.119 1.89251 0.517551 0
M  V30 3178 O 314.244 1.65937 1.38903 0
M  V30 3179 C 314.839 2.92993 -1.7012 0
M  V30 3180 C 313.398 3.43832 -1.53156 0
M  V30 3181 C 312.545 2.1786 -1.71558 0
M  V30 3182 H 315.496 0.90229 -1.30554 0
M  V30 3183 H 315.517 3.62007 -1.17181 0
M  V30 3184 H 315.029 2.72596 -2.76248 0
M  V30 3185 H 313.13 3.69307 -0.494294 0
M  V30 3186 H 313.243 4.19747 -2.30975 0
M  V30 3187 H 311.607 2.2765 -1.14225 0
M  V30 3188 H 312.39 1.99956 -2.79056 0
M  V30 3189 N 314.835 0.952656 1.25548 0
M  V30 3190 C 315.745 0.47782 2.29682 0
M  V30 3191 C 316.761 -0.453859 1.67977 0
M  V30 3192 O 317.937 -0.330587 1.98668 0
M  V30 3193 C 315.002 -0.238655 3.45878 0
M  V30 3194 C 314.063 0.730994 4.23031 0
M  V30 3195 C 313.296 0.0486165 5.33678 0
M  V30 3196 O 313.519 -1.16612 5.58353 0
M  V30 3197 O 312.453 0.733152 5.97418 0
M  V30 3198 H 316.279 1.34312 2.72386 0
M  V30 3199 H 313.864 0.719026 1.30959 0
M  V30 3200 H 315.746 -0.641774 4.16484 0
M  V30 3201 H 314.421 -1.07916 3.05181 0
M  V30 3202 H 313.328 1.18428 3.5486 0
M  V30 3203 H 314.661 1.53946 4.67506 0
M  V30 3204 N 316.313 -1.40141 0.720998 0
M  V30 3205 C 317.724 -1.83678 0.334553 0
M  V30 3206 C 318.075 -1.6027 -1.13173 0
M  V30 3207 O 317.2 -1.08643 -1.87152 0
M  V30 3208 C 317.795 -3.33437 0.600437 0
M  V30 3209 C 316.354 -3.75447 0.267642 0
M  V30 3210 C 315.501 -2.63296 0.870097 0
M  V30 3211 H 318.452 -1.29331 0.919732 0
M  V30 3212 H 318.473 -3.80269 -0.132517 0
M  V30 3213 H 317.985 -3.50442 1.66768 0
M  V30 3214 H 316.086 -3.64035 -0.794329 0
M  V30 3215 H 316.199 -4.73344 0.74042 0
M  V30 3216 H 314.563 -2.52954 0.297739 0
M  V30 3217 H 315.346 -2.83112 1.94172 0
M  V30 3218 N 317.792 -0.46758 -1.50504 0
M  V30 3219 C 318.755 0.317059 -2.26996 0
M  V30 3220 C 319.755 0.923513 -1.31635 0
M  V30 3221 O 320.945 0.793239 -1.55091 0
M  V30 3222 C 318.077 1.45134 -3.08462 0
M  V30 3223 H 319.27 -0.353723 -2.97807 0
M  V30 3224 H 316.823 -0.221545 -1.54722 0
M  V30 3225 H 317.558 2.15728 -2.4214 0
M  V30 3226 H 317.343 1.02232 -3.78538 0
M  V30 3227 H 318.833 2.00493 -3.66323 0
M  V30 3228 N 319.27 1.56325 -0.20005 0
M  V30 3229 C 320.202 2.16555 0.750771 0
M  V30 3230 C 321.215 1.12871 1.1732 0
M  V30 3231 O 322.404 1.39943 1.10807 0
M  V30 3232 C 319.504 2.71684 2.02586 0
M  V30 3233 C 318.677 4.00321 1.76244 0
M  V30 3234 C 317.736 4.40227 2.88248 0
M  V30 3235 O 316.762 5.07552 2.57642 0
M  V30 3236 N 317.964 4.04138 4.16717 0
M  V30 3237 H 320.729 2.98772 0.235685 0
M  V30 3238 H 318.29 1.6189 -0.0182594 0
M  V30 3239 H 320.282 2.95363 2.76664 0
M  V30 3240 H 318.852 1.93893 2.45202 0
M  V30 3241 H 318.072 3.84723 0.85919 0
M  V30 3242 H 319.36 4.84279 1.56048 0
M  V30 3243 H 318.758 3.49993 4.44434 0
M  V30 3244 H 317.315 4.32756 4.87407 0
M  V30 3245 N 320.748 -0.0735177 1.57428 0
M  V30 3246 C 322.164 -0.428264 1.53747 0
M  V30 3247 C 322.364 -1.79272 0.91998 0
M  V30 3248 O 321.42 -2.47051 0.521745 0
M  V30 3249 C 322.733 -0.370914 2.98404 0
M  V30 3250 C 324.281 -0.451224 3.0973 0
M  V30 3251 C 324.756 -0.4238 4.56035 0
M  V30 3252 N 326.247 -0.483925 4.60665 0
M  V30 3253 C 326.982 -0.484891 5.71346 0
M  V30 3254 N 326.478 -0.440775 6.91396 0
M  V30 3255 N 328.271 -0.531319 5.59583 0
M  V30 3256 H 320.422 0.819949 1.95935 0
M  V30 3257 H 322.685 0.307493 0.896745 0
M  V30 3258 H 322.391 0.564956 3.47133 0
M  V30 3259 H 322.265 -1.18176 3.5821 0
M  V30 3260 H 324.652 -1.37752 2.60976 0
M  V30 3261 H 324.733 0.388167 2.52838 0
M  V30 3262 H 324.377 0.498638 5.05446 0
M  V30 3263 H 324.307 -1.2807 5.10789 0
M  V30 3264 H 326.798 -0.522338 3.74273 0
M  V30 3265 H 327.111 -0.44539 7.71515 0
M  V30 3266 H 325.456 -0.40749 6.93804 0
M  V30 3267 H 328.647 -0.563464 4.64696 0
M  V30 3268 H 328.82 -0.528603 6.4584 0
M  V30 3269 N 322.226 -1.5378 -0.344866 0
M  V30 3270 C 323.472 -1.72158 -1.0832 0
M  V30 3271 C 323.827 -0.478218 -1.86362 0
M  V30 3272 O 323.12 0.529152 -1.84148 0
M  V30 3273 C 323.314 -2.92407 -2.05506 0
M  V30 3274 C 323.143 -4.28318 -1.37017 0
M  V30 3275 C 321.913 -4.92832 -1.11558 0
M  V30 3276 C 324.111 -5.08086 -0.797071 0
M  V30 3277 N 322.093 -6.12619 -0.396358 0
M  V30 3278 C 323.464 -6.1965 -0.208336 0
M  V30 3279 C 325.519 -4.92986 -0.697787 0
M  V30 3280 C 324.222 -7.17763 0.470023 0
M  V30 3281 C 326.248 -5.91391 -0.033171 0
M  V30 3282 C 325.61 -7.02292 0.544599 0
M  V30 3283 H 321.709 -0.683017 -0.380805 0
M  V30 3284 H 324.293 -1.91211 -0.366961 0
M  V30 3285 H 322.464 -2.74857 -2.74423 0
M  V30 3286 H 324.196 -2.9951 -2.72169 0
M  V30 3287 H 320.951 -4.52362 -1.40234 0
M  V30 3288 H 321.375 -6.7698 -0.0515119 0
M  V30 3289 H 326.017 -4.07414 -1.13022 0
M  V30 3290 H 323.735 -8.0291 0.914351 0
M  V30 3291 H 327.321 -5.81784 0.0430009 0
M  V30 3292 H 326.201 -7.77129 1.05073 0
M  V30 3293 N 323.704 0.605807 -1.45491 0
M  V30 3294 C 324.634 1.72709 -1.57143 0
M  V30 3295 C 325.615 1.6476 -0.422884 0
M  V30 3296 O 326.8 1.83132 -0.646247 0
M  V30 3297 C 323.93 3.11316 -1.53948 0
M  V30 3298 C 322.884 3.34077 -2.67537 0
M  V30 3299 C 322.21 4.72975 -2.49397 0
M  V30 3300 C 323.51 3.24158 -4.09535 0
M  V30 3301 H 325.204 1.63214 -2.51001 0
M  V30 3302 H 322.75 0.78379 -1.208 0
M  V30 3303 H 324.703 3.89557 -1.60696 0
M  V30 3304 H 323.427 3.21655 -0.566205 0
M  V30 3305 H 322.086 2.58227 -2.6022 0
M  V30 3306 H 321.734 4.8005 -1.50205 0
M  V30 3307 H 321.434 4.8916 -3.25571 0
M  V30 3308 H 322.958 5.53414 -2.58002 0
M  V30 3309 H 324.372 3.92271 -4.18086 0
M  V30 3310 H 322.769 3.51872 -4.86113 0
M  V30 3311 H 323.839 2.2157 -4.31317 0
M  V30 3312 N 325.182 1.32811 0.848464 0
M  V30 3313 C 326.428 1.23907 1.60546 0
M  V30 3314 C 326.761 -0.197161 1.93197 0
M  V30 3315 O 326.036 -1.13596 1.5788 0
M  V30 3316 C 326.319 2.10489 2.92175 0
M  V30 3317 C 326.172 3.62522 2.66266 0
M  V30 3318 C 327.491 1.97075 3.93509 0
M  V30 3319 H 324.61 0.451459 0.58254 0
M  V30 3320 H 327.252 1.62818 0.979296 0
M  V30 3321 H 325.402 1.77434 3.45614 0
M  V30 3322 H 327.074 4.05821 2.19334 0
M  V30 3323 H 325.317 3.84879 2.00126 0
M  V30 3324 H 325.988 4.18437 3.6002 0
M  V30 3325 H 328.464 2.26045 3.49346 0
M  V30 3326 H 327.34 2.59923 4.83457 0
M  V30 3327 H 327.601 0.940186 4.31987 0
M  V30 3328 N 326.66 -1.06551 1.16123 0
M  V30 3329 C 327.908 -1.78947 0.939267 0
M  V30 3330 C 328.229 -1.87532 -0.534476 0
M  V30 3331 O 327.499 -1.38211 -1.38833 0
M  V30 3332 H 326.079 -0.662807 0.344523 0
M  V30 3333 H 328.741 -1.28725 1.46342 0
M  V30 3334 H 327.837 -2.81117 1.35572 0
M  V30 3335 N 328.138 -0.959301 -1.25041 0
M  V30 3336 C 329.385 -0.616611 -1.92884 0
M  V30 3337 C 329.713 0.847036 -1.75087 0
M  V30 3338 O 328.968 1.62374 -1.09239 0
M  V30 3339 C 329.267 -0.927136 -3.45165 0
M  V30 3340 C 328.933 -2.37757 -3.83122 0
M  V30 3341 C 327.595 -2.77402 -3.93194 0
M  V30 3342 C 329.947 -3.31929 -4.01836 0
M  V30 3343 C 327.275 -4.10277 -4.19392 0
M  V30 3344 C 329.627 -4.64423 -4.29528 0
M  V30 3345 C 328.291 -5.03857 -4.37818 0
M  V30 3346 H 327.561 -0.225634 -0.705812 0
M  V30 3347 H 330.208 -1.20921 -1.48493 0
M  V30 3348 H 328.513 -0.252195 -3.90987 0
M  V30 3349 H 330.21 -0.6405 -3.95852 0
M  V30 3350 H 326.8 -2.06013 -3.75841 0
M  V30 3351 H 330.984 -3.02488 -3.93465 0
M  V30 3352 H 326.24 -4.40467 -4.24027 0
M  V30 3353 H 330.414 -5.37369 -4.42953 0
M  V30 3354 H 328.041 -6.06843 -4.57871 0
M  V30 3355 N 329.616 1.39756 -0.72842 0
M  V30 3356 C 330.862 2.00942 -0.273892 0
M  V30 3357 C 331.195 1.57656 1.13394 0
M  V30 3358 O 330.47 0.802434 1.77176 0
M  V30 3359 C 330.753 3.58211 -0.368346 0
M  V30 3360 C 330.606 4.11534 -1.81548 0
M  V30 3361 C 331.925 4.39372 0.253054 0
M  V30 3362 H 329.044 0.730047 -0.100996 0
M  V30 3363 H 331.686 1.66056 -0.923337 0
M  V30 3364 H 329.836 3.88061 0.184588 0
M  V30 3365 H 331.508 3.92431 -2.42478 0
M  V30 3366 H 329.751 3.65341 -2.33898 0
M  V30 3367 H 330.422 5.20682 -1.83288 0
M  V30 3368 H 332.898 4.15527 -0.218224 0
M  V30 3369 H 331.774 5.48677 0.156585 0
M  V30 3370 H 332.035 4.21358 1.33826 0
M  V30 3371 N 331.094 0.475555 1.50254 0
M  V30 3372 C 332.024 -0.30611 2.31485 0
M  V30 3373 C 333.005 -0.986228 1.38591 0
M  V30 3374 O 334.19 -0.982541 1.67511 0
M  V30 3375 C 331.32 -1.38588 3.1845 0
M  V30 3376 C 330.274 -0.827115 4.19932 0
M  V30 3377 C 329.6 -2.00551 4.95665 0
M  V30 3378 C 330.9 0.16463 5.2204 0
M  V30 3379 H 332.594 0.371866 2.97082 0
M  V30 3380 H 330.14 0.180282 1.42867 0
M  V30 3381 H 332.093 -1.94023 3.74076 0
M  V30 3382 H 330.817 -2.09269 2.50747 0
M  V30 3383 H 329.476 -0.294702 3.65414 0
M  V30 3384 H 329.124 -2.6994 4.2443 0
M  V30 3385 H 328.824 -1.63784 5.64313 0
M  V30 3386 H 330.348 -2.56468 5.54127 0
M  V30 3387 H 331.762 -0.300699 5.72511 0
M  V30 3388 H 330.159 0.446813 5.98434 0
M  V30 3389 H 331.229 1.08905 4.72512 0
M  V30 3390 N 332.573 -1.56217 0.208337 0
M  V30 3391 C 333.803 -2.02043 -0.431523 0
M  V30 3392 C 334.211 -1.08755 -1.54819 0
M  V30 3393 O 333.554 -0.0870009 -1.83494 0
M  V30 3394 C 333.616 -3.44239 -1.03633 0
M  V30 3395 C 333.28 -4.56965 -0.0567502 0
M  V30 3396 C 334.277 -5.14624 0.738773 0
M  V30 3397 C 331.962 -5.02266 0.0581736 0
M  V30 3398 C 333.956 -6.16045 1.63605 0
M  V30 3399 C 331.643 -6.03528 0.959001 0
M  V30 3400 C 332.641 -6.60293 1.7465 0
M  V30 3401 O 332.329 -7.59586 2.6322 0
M  V30 3402 H 332.061 -0.666772 -0.111313 0
M  V30 3403 H 334.615 -2.02919 0.318277 0
M  V30 3404 H 332.845 -3.40391 -1.83497 0
M  V30 3405 H 334.534 -3.73793 -1.58221 0
M  V30 3406 H 335.3 -4.80483 0.660364 0
M  V30 3407 H 331.179 -4.57771 -0.544633 0
M  V30 3408 H 334.723 -6.60279 2.25116 0
M  V30 3409 H 330.62 -6.37092 1.03848 0
M  V30 3410 H 331.388 -7.77057 2.57148 0
M  V30 3411 N 334.051 0.0651679 -1.57465 0
M  V30 3412 C 335.279 0.775808 -1.91804 0
M  V30 3413 C 335.694 1.70782 -0.804916 0
M  V30 3414 O 335.051 1.81153 0.221311 0
M  V30 3415 C 335.102 1.56381 -3.25925 0
M  V30 3416 O 334.823 0.669248 -4.32958 0
M  V30 3417 C 336.324 2.37485 -3.7432 0
M  V30 3418 H 333.544 0.2202 -0.63384 0
M  V30 3419 H 336.088 0.0334587 -2.04473 0
M  V30 3420 H 334.243 2.25837 -3.14764 0
M  V30 3421 H 334.657 1.21801 -5.10162 0
M  V30 3422 H 336.131 2.88223 -4.70778 0
M  V30 3423 H 336.608 3.17307 -3.03666 0
M  V30 3424 H 337.214 1.73173 -3.88447 0
M  V30 3425 N 335.529 1.53961 0.336706 0
M  V30 3426 C 336.776 1.71536 1.07618 0
M  V30 3427 C 337.104 0.482125 1.8843 0
M  V30 3428 O 336.359 -0.536142 1.88213 0
M  V30 3429 C 336.658 2.93493 2.03953 0
M  V30 3430 C 336.324 4.28811 1.39399 0
M  V30 3431 C 334.986 4.65602 1.21523 0
M  V30 3432 C 337.338 5.12844 0.929541 0
M  V30 3433 C 334.666 5.84037 0.558312 0
M  V30 3434 C 337.018 6.31951 0.286505 0
M  V30 3435 C 335.682 6.67432 0.0954869 0
M  V30 3436 H 334.952 0.627696 0.393801 0
M  V30 3437 H 337.599 1.88186 0.354715 0
M  V30 3438 H 335.904 2.71475 2.82504 0
M  V30 3439 H 337.601 3.04285 2.61174 0
M  V30 3440 H 334.191 3.99858 1.54311 0
M  V30 3441 H 338.375 4.84947 1.05548 0
M  V30 3442 H 333.631 6.10097 0.398995 0
M  V30 3443 H 337.805 6.96352 -0.0814376 0
M  V30 3444 H 335.432 7.59063 -0.415579 0
M  V30 3445 N 337.007 -0.598083 1.45811 0
M  V30 3446 C 337.937 -1.71873 1.58057 0
M  V30 3447 C 338.918 -1.64533 0.431615 0
M  V30 3448 O 340.103 -1.82787 0.65595 0
M  V30 3449 C 337.233 -3.10495 1.55597 0
M  V30 3450 C 336.187 -3.32654 2.69305 0
M  V30 3451 C 335.513 -4.71646 2.51902 0
M  V30 3452 C 336.813 -3.21981 4.11248 0
M  V30 3453 H 338.507 -1.61881 2.51863 0
M  V30 3454 H 336.053 -0.777372 1.21214 0
M  V30 3455 H 338.006 -3.88699 1.6276 0
M  V30 3456 H 336.73 -3.2135 0.583255 0
M  V30 3457 H 335.389 -2.56843 2.61586 0
M  V30 3458 H 335.037 -4.79246 1.52748 0
M  V30 3459 H 334.737 -4.87426 3.2816 0
M  V30 3460 H 336.261 -5.52038 2.60933 0
M  V30 3461 H 337.675 -3.90049 4.20161 0
M  V30 3462 H 336.072 -3.49289 4.87972 0
M  V30 3463 H 337.142 -2.1928 4.32486 0
M  V30 3464 N 338.485 -1.33259 -0.841409 0
M  V30 3465 C 339.418 -1.1764 -1.95541 0
M  V30 3466 C 340.396 -0.072501 -1.62438 0
M  V30 3467 O 341.58 -0.23427 -1.87039 0
M  V30 3468 C 338.707 -0.803794 -3.29024 0
M  V30 3469 C 337.753 -1.91482 -3.81099 0
M  V30 3470 S 338.586 -3.52538 -4.03085 0
M  V30 3471 C 339.742 -3.17279 -5.39523 0
M  V30 3472 H 339.975 -2.11941 -2.08491 0
M  V30 3473 H 337.508 -1.18072 -0.9949 0
M  V30 3474 H 339.466 -0.595592 -4.06156 0
M  V30 3475 H 338.127 0.120574 -3.13868 0
M  V30 3476 H 337.32 -1.60742 -4.7768 0
M  V30 3477 H 336.922 -2.07956 -3.10854 0
M  V30 3478 H 339.214 -2.67946 -6.22263 0
M  V30 3479 H 340.157 -4.1293 -5.75234 0
M  V30 3480 H 340.565 -2.53943 -5.04156 0
M  V30 3481 N 339.963 1.05934 -1.16686 0
M  V30 3482 C 341.211 1.78447 -0.948744 0
M  V30 3483 C 341.532 1.87813 0.524523 0
M  V30 3484 O 340.802 1.38945 1.38098 0
M  V30 3485 H 339.382 0.660971 -0.348033 0
M  V30 3486 H 342.044 1.27947 -1.47022 0
M  V30 3487 H 341.14 2.80394 -1.37061 0
M  V30 3488 N 341.441 0.965919 1.2453 0
M  V30 3489 C 342.688 0.626831 1.92554 0
M  V30 3490 C 343.016 -0.837739 1.75534 0
M  V30 3491 O 342.271 -1.61793 1.10098 0
M  V30 3492 C 342.57 0.945428 3.44669 0
M  V30 3493 C 342.236 2.39785 3.81856 0
M  V30 3494 C 340.898 2.79483 3.91718 0
M  V30 3495 C 343.25 3.34055 4.00071 0
M  V30 3496 C 340.578 4.12496 4.1721 0
M  V30 3497 C 342.93 4.66694 4.27059 0
M  V30 3498 C 341.594 5.06172 4.3514 0
M  V30 3499 H 340.864 0.229374 0.704605 0
M  V30 3500 H 343.511 1.21707 1.4785 0
M  V30 3501 H 341.816 0.272926 3.90848 0
M  V30 3502 H 343.513 0.661484 3.95507 0
M  V30 3503 H 340.103 2.08003 3.74743 0
M  V30 3504 H 344.287 3.04571 3.91855 0
M  V30 3505 H 339.543 4.42709 4.21685 0
M  V30 3506 H 343.717 5.3971 4.40097 0
M  V30 3507 H 341.344 6.09262 4.54646 0
M  V30 3508 N 342.919 -1.39368 0.735821 0
M  V30 3509 C 343.849 -2.33234 0.111506 0
M  V30 3510 C 344.83 -1.53954 -0.723334 0
M  V30 3511 O 346.015 -1.82344 -0.668147 0
M  V30 3512 C 343.145 -3.38057 -0.795917 0
M  V30 3513 C 342.099 -4.2795 -0.065172 0
M  V30 3514 C 341.425 -5.23479 -1.08967 0
M  V30 3515 C 342.725 -5.10741 1.09273 0
M  V30 3516 H 344.419 -2.85692 0.895571 0
M  V30 3517 H 341.965 -1.37364 0.432109 0
M  V30 3518 H 343.918 -4.02675 -1.24221 0
M  V30 3519 H 342.642 -2.8404 -1.61211 0
M  V30 3520 H 341.301 -3.64813 0.361511 0
M  V30 3521 H 340.949 -4.65758 -1.89944 0
M  V30 3522 H 340.649 -5.84472 -0.605489 0
M  V30 3523 H 342.173 -5.90974 -1.53565 0
M  V30 3524 H 343.587 -5.68699 0.724841 0
M  V30 3525 H 341.984 -5.8088 1.50659 0
M  V30 3526 H 343.054 -4.45525 1.91404 0
M  V30 3527 N 344.397 -0.483516 -1.5 0
M  V30 3528 C 345.327 0.293829 -2.31644 0
M  V30 3529 C 346.308 0.978864 -1.39112 0
M  V30 3530 O 347.493 0.973644 -1.68029 0
M  V30 3531 C 344.623 1.36897 -3.19181 0
M  V30 3532 C 343.577 0.804833 -4.20365 0
M  V30 3533 C 342.903 1.9792 -4.96721 0
M  V30 3534 C 344.203 -0.192313 -5.21946 0
M  V30 3535 H 345.897 -0.387616 -2.9688 0
M  V30 3536 H 343.443 -0.187856 -1.42769 0
M  V30 3537 H 345.396 1.92037 -3.751 0
M  V30 3538 H 344.12 2.07936 -2.51853 0
M  V30 3539 H 342.779 0.275319 -3.65565 0
M  V30 3540 H 342.427 2.67686 -4.25856 0
M  V30 3541 H 342.127 1.60789 -5.65173 0
M  V30 3542 H 343.651 2.53526 -5.55479 0
M  V30 3543 H 345.065 0.270333 -5.72662 0
M  V30 3544 H 343.462 -0.478543 -5.98189 0
M  V30 3545 H 344.532 -1.11409 -4.71928 0
M  V30 3546 N 345.875 1.56104 -0.216619 0
M  V30 3547 C 347.286 1.844 0.292128 0
M  V30 3548 C 347.637 1.13788 1.59833 0
M  V30 3549 O 346.762 0.405888 2.12559 0
M  V30 3550 C 347.357 3.3452 0.53681 0
M  V30 3551 C 345.916 3.63151 0.989876 0
M  V30 3552 C 345.063 2.77255 0.0502302 0
M  V30 3553 H 348.014 1.52481 -0.439926 0
M  V30 3554 H 348.035 3.54459 1.38345 0
M  V30 3555 H 347.547 3.85885 -0.414031 0
M  V30 3556 H 345.648 3.17238 1.95425 0
M  V30 3557 H 345.761 4.71177 0.867698 0
M  V30 3558 H 344.125 2.48555 0.556117 0
M  V30 3559 H 344.908 3.31416 -0.89544 0
M  V30 3560 N 347.353 -0.0568162 1.57498 0
M  V30 3561 C 348.599 -0.75422 1.88253 0
M  V30 3562 C 348.932 -1.76461 0.810865 0
M  V30 3563 O 348.207 -1.93691 -0.177259 0
M  V30 3564 C 348.49 -1.44878 3.2967 0
M  V30 3565 C 348.343 -0.453789 4.47505 0
M  V30 3566 C 349.662 -2.38994 3.69554 0
M  V30 3567 H 346.781 -0.272724 0.684683 0
M  V30 3568 H 349.423 -0.0172113 1.89992 0
M  V30 3569 H 347.573 -2.077 3.28318 0
M  V30 3570 H 349.245 0.170371 4.60985 0
M  V30 3571 H 347.488 0.229552 4.33192 0
M  V30 3572 H 348.159 -0.977699 5.43273 0
M  V30 3573 H 350.635 -1.86239 3.72095 0
M  V30 3574 H 349.511 -2.84587 4.69363 0
M  V30 3575 H 349.772 -3.24461 3.00296 0
M  V30 3576 N 348.832 -1.54138 -0.328536 0
M  V30 3577 C 350.08 -1.71765 -1.06496 0
M  V30 3578 C 350.401 -0.49149 -1.88704 0
M  V30 3579 O 349.671 0.494539 -1.89555 0
M  V30 3580 H 348.251 -0.633295 -0.396164 0
M  V30 3581 H 350.913 -1.91429 -0.366176 0
M  V30 3582 H 350.009 -2.5951 -1.73381 0
M  V30 3583 N 350.31 0.590341 -1.46126 0
M  V30 3584 C 351.273 1.68194 -1.55703 0
M  V30 3585 C 352.273 1.54808 -0.434868 0
M  V30 3586 O 353.463 1.59564 -0.698928 0
M  V30 3587 C 350.595 3.07575 -1.47005 0
M  V30 3588 H 351.788 1.61064 -2.52979 0
M  V30 3589 H 349.341 0.807541 -1.33823 0
M  V30 3590 H 350.076 3.20268 -0.509785 0
M  V30 3591 H 349.861 3.187 -2.28414 0
M  V30 3592 H 351.351 3.87055 -1.56776 0
M  V30 3593 N 351.788 1.33704 0.83433 0
M  V30 3594 C 353.037 1.24763 1.58484 0
M  V30 3595 C 353.35 -0.183775 1.94735 0
M  V30 3596 O 354.556 -0.395234 2.68608 0
M  V30 3597 C 353.012 2.18638 2.85876 0
M  V30 3598 C 352.62 3.66974 2.56971 0
M  V30 3599 C 354.364 2.18581 3.63899 0
M  V30 3600 C 352.271 4.5275 3.80488 0
M  V30 3601 H 351.201 0.463425 0.594772 0
M  V30 3602 H 353.852 1.58797 0.919551 0
M  V30 3603 H 352.234 1.77542 3.5397 0
M  V30 3604 H 353.408 4.16538 1.9706 0
M  V30 3605 H 351.723 3.69366 1.92244 0
M  V30 3606 H 354.32 2.79894 4.55591 0
M  V30 3607 H 354.663 1.18207 3.99165 0
M  V30 3608 H 355.196 2.58062 3.02735 0
M  V30 3609 H 351.935 5.54017 3.5035 0
M  V30 3610 H 351.455 4.07927 4.39722 0
M  V30 3611 H 353.134 4.66784 4.4802 0
M  V30 3612 N 353.266 -1.05314 1.17247 0
M  V30 3613 C 354.506 -1.79869 0.970898 0
M  V30 3614 C 354.87 -1.85594 -0.491808 0
M  V30 3615 O 356.071 -2.56229 -0.812409 0
M  V30 3616 C 354.342 -3.19937 1.59295 0
M  V30 3617 S 355.901 -4.10986 1.53741 0
M  V30 3618 H 352.719 -0.61949 0.348931 0
M  V30 3619 H 355.321 -1.26368 1.49169 0
M  V30 3620 H 354.025 -3.13372 2.65003 0
M  V30 3621 H 353.556 -3.78515 1.07191 0
M  V30 3622 H 355.571 -4.93203 0.544537 0
M  V30 3623 N 354.744 -0.972509 -1.24016 0
M  V30 3624 C 355.674 -0.525548 -2.27509 0
M  V30 3625 C 356.655 0.437262 -1.64384 0
M  V30 3626 O 357.84 0.332343 -1.91335 0
M  V30 3627 C 354.97 0.180448 -3.46831 0
M  V30 3628 C 353.924 -0.698859 -4.22256 0
M  V30 3629 C 353.25 0.138903 -5.3452 0
M  V30 3630 C 354.55 -1.98582 -4.83076 0
M  V30 3631 H 356.244 -1.39058 -2.65148 0
M  V30 3632 H 353.79 -0.67009 -1.27459 0
M  V30 3633 H 355.743 0.504387 -4.18371 0
M  V30 3634 H 354.467 1.07987 -3.08231 0
M  V30 3635 H 353.126 -1.00614 -3.52523 0
M  V30 3636 H 352.774 1.03862 -4.9216 0
M  V30 3637 H 352.474 -0.446259 -5.85903 0
M  V30 3638 H 353.998 0.457404 -6.08884 0
M  V30 3639 H 355.412 -1.72715 -5.46665 0
M  V30 3640 H 353.809 -2.5181 -5.44713 0
M  V30 3641 H 354.879 -2.67769 -4.04262 0
M  V30 3642 N 356.222 1.38976 -0.743202 0
M  V30 3643 C 357.462 2.02193 -0.29954 0
M  V30 3644 C 357.826 1.5771 1.09506 0
M  V30 3645 O 359.027 2.13184 1.63726 0
M  V30 3646 C 357.298 3.55077 -0.406822 0
M  V30 3647 S 358.857 4.38778 -0.0442109 0
M  V30 3648 H 355.675 0.701335 -0.116836 0
M  V30 3649 H 358.277 1.69651 -0.971529 0
M  V30 3650 H 356.981 3.84942 -1.42295 0
M  V30 3651 H 356.512 3.92383 0.282707 0
M  V30 3652 H 358.527 4.82222 1.16947 0
M  V30 3653 N 357.7 0.491464 1.49741 0
M  V30 3654 C 358.93 -0.0534375 2.06531 0
M  V30 3655 C 359.338 -1.32233 1.35318 0
M  V30 3656 O 358.681 -1.78781 0.422243 0
M  V30 3657 C 358.743 -0.387034 3.57411 0
M  V30 3658 C 358.407 0.782764 4.50246 0
M  V30 3659 C 359.404 1.67059 4.92329 0
M  V30 3660 C 357.089 0.978866 4.9267 0
M  V30 3661 C 359.083 2.73874 5.75562 0
M  V30 3662 C 356.77 2.05022 5.75682 0
M  V30 3663 C 357.768 2.92851 6.17031 0
M  V30 3664 O 357.456 3.98138 6.98385 0
M  V30 3665 H 357.188 0.0129324 0.675876 0
M  V30 3666 H 359.742 0.685238 1.93633 0
M  V30 3667 H 357.972 -1.17918 3.68283 0
M  V30 3668 H 359.661 -0.869419 3.96479 0
M  V30 3669 H 360.427 1.53086 4.60206 0
M  V30 3670 H 356.306 0.304646 4.59992 0
M  V30 3671 H 359.85 3.42458 6.07757 0
M  V30 3672 H 355.747 2.18993 6.07217 0
M  V30 3673 H 356.515 3.95374 7.16674 0
M  V30 3674 N 359.178 -1.55987 0.224894 0
M  V30 3675 C 360.424 -1.98684 -0.406502 0
M  V30 3676 C 360.757 -1.11248 -1.59177 0
M  V30 3677 O 360.032 -0.170909 -1.93748 0
M  V30 3678 C 360.315 -3.50218 -0.837808 0
M  V30 3679 C 360.168 -4.48426 0.351332 0
M  V30 3680 C 361.487 -4.06243 -1.69278 0
M  V30 3681 H 358.606 -0.722337 -0.146283 0
M  V30 3682 H 361.248 -1.87255 0.321799 0
M  V30 3683 H 359.398 -3.60089 -1.45837 0
M  V30 3684 H 361.07 -4.50562 0.989526 0
M  V30 3685 H 359.313 -4.22159 0.998207 0
M  V30 3686 H 359.984 -5.52 0.00655905 0
M  V30 3687 H 362.46 -3.99337 -1.16914 0
M  V30 3688 H 361.336 -5.12581 -1.96346 0
M  V30 3689 H 361.597 -3.53332 -2.65723 0
M  V30 3690 N 360.656 0.0484629 -1.57525 0
M  V30 3691 C 361.586 1.0549 -2.08313 0
M  V30 3692 C 362.567 1.38929 -0.981463 0
M  V30 3693 O 363.752 1.48151 -1.25558 0
M  V30 3694 C 360.882 2.36162 -2.54646 0
M  V30 3695 C 359.836 2.17016 -3.68901 0
M  V30 3696 C 359.162 3.53278 -4.01371 0
M  V30 3697 C 360.462 1.57219 -4.98076 0
M  V30 3698 H 362.156 0.632195 -2.92649 0
M  V30 3699 H 359.702 0.302654 -1.40784 0
M  V30 3700 H 361.655 3.06882 -2.88793 0
M  V30 3701 H 360.379 2.80456 -1.67368 0
M  V30 3702 H 359.038 1.48733 -3.35073 0
M  V30 3703 H 358.686 3.95185 -3.11188 0
M  V30 3704 H 358.386 3.41299 -4.78318 0
M  V30 3705 H 359.91 4.25391 -4.38035 0
M  V30 3706 H 361.324 2.17832 -5.30304 0
M  V30 3707 H 359.721 1.55871 -5.79503 0
M  V30 3708 H 360.791 0.535956 -4.81929 0
M  V30 3709 N 362.134 1.5431 0.320358 0
M  V30 3710 C 363.383 1.7188 1.05546 0
M  V30 3711 C 363.696 0.501143 1.89071 0
M  V30 3712 O 364.902 0.558258 2.65699 0
M  V30 3713 C 363.358 3.04025 1.92605 0
M  V30 3714 C 362.966 4.33207 1.14176 0
M  V30 3715 C 364.71 3.30959 2.65832 0
M  V30 3716 C 362.617 5.56412 2.00399 0
M  V30 3717 H 361.547 0.640547 0.397763 0
M  V30 3718 H 364.198 1.80802 0.313522 0
M  V30 3719 H 362.58 2.89019 2.7071 0
M  V30 3720 H 363.754 4.58989 0.40819 0
M  V30 3721 H 362.069 4.13062 0.526165 0
M  V30 3722 H 364.666 4.20203 3.30656 0
M  V30 3723 H 365.009 2.48979 3.33639 0
M  V30 3724 H 365.542 3.46847 1.94787 0
M  V30 3725 H 362.281 6.41004 1.37094 0
M  V30 3726 H 361.801 5.34844 2.7148 0
M  V30 3727 H 363.48 5.92938 2.58908 0
M  V30 3728 N 363.613 -0.582584 1.46437 0
M  V30 3729 C 364.862 -1.337 1.5102 0
M  V30 3730 C 365.175 -1.94891 0.166359 0
M  V30 3731 O 366.381 -2.71351 0.0899954 0
M  V30 3732 C 364.837 -2.42315 2.66104 0
M  V30 3733 C 364.445 -1.87427 4.06909 0
M  V30 3734 C 366.189 -3.19099 2.79958 0
M  V30 3735 C 364.096 -2.93672 5.13333 0
M  V30 3736 H 363.026 -0.502619 0.562041 0
M  V30 3737 H 365.677 -0.621701 1.72647 0
M  V30 3738 H 364.059 -3.16645 2.37807 0
M  V30 3739 H 365.233 -1.19639 4.44998 0
M  V30 3740 H 363.548 -1.2331 3.97723 0
M  V30 3741 H 366.145 -3.9839 3.56636 0
M  V30 3742 H 366.488 -3.71695 1.87479 0
M  V30 3743 H 367.021 -2.51875 3.07902 0
M  V30 3744 H 363.76 -2.45962 6.07604 0
M  V30 3745 H 363.28 -3.59948 4.79789 0
M  V30 3746 H 364.959 -3.5762 5.39182 0
M  V30 3747 N 365.091 -1.34144 -0.827227 0
M  V30 3748 C 366.054 -1.25264 -1.91942 0
M  V30 3749 C 367.054 -0.168866 -1.59911 0
M  V30 3750 O 368.244 -0.421198 -1.69031 0
M  V30 3751 C 365.376 -0.932952 -3.27885 0
M  V30 3752 H 366.569 -2.22357 -2.0124 0
M  V30 3753 H 364.122 -1.1837 -1.0207 0
M  V30 3754 H 364.857 0.0349917 -3.24281 0
M  V30 3755 H 364.642 -1.71682 -3.52516 0
M  V30 3756 H 366.132 -0.895874 -4.07877 0
M  V30 3757 N 366.569 1.04691 -1.17803 0
M  V30 3758 C 367.516 2.12557 -0.899343 0
M  V30 3759 C 368.486 1.65339 0.158771 0
M  V30 3760 O 369.671 1.90789 0.0204797 0
M  V30 3761 C 366.811 3.42481 -0.424315 0
M  V30 3762 C 365.924 4.03346 -1.54713 0
M  V30 3763 C 365.059 5.21208 -1.02546 0
M  V30 3764 C 364.098 5.74089 -2.12339 0
M  V30 3765 N 363.235 6.83247 -1.61612 0
M  V30 3766 H 368.075 2.35734 -1.823 0
M  V30 3767 H 365.612 1.1564 -0.909159 0
M  V30 3768 H 367.57 4.16996 -0.130421 0
M  V30 3769 H 366.2 3.19471 0.462377 0
M  V30 3770 H 365.252 3.2622 -1.95664 0
M  V30 3771 H 366.564 4.38628 -2.37501 0
M  V30 3772 H 365.718 6.02812 -0.685718 0
M  V30 3773 H 364.457 4.87414 -0.167084 0
M  V30 3774 H 363.462 4.91111 -2.47165 0
M  V30 3775 H 364.687 6.0993 -2.98601 0
M  V30 3776 H 362.633 6.5134 -0.780533 0
M  V30 3777 H 362.55 7.17559 -2.38003 0
M  V30 3778 H 363.818 7.68491 -1.30545 0
M  V30 3779 N 368.047 0.979072 1.23499 0
M  V30 3780 C 368.98 0.463027 2.23453 0
M  V30 3781 C 369.958 -0.469128 1.55685 0
M  V30 3782 O 371.142 -0.397882 1.84253 0
M  V30 3783 C 368.269 -0.330308 3.37086 0
M  V30 3784 C 367.315 0.545795 4.22993 0
M  V30 3785 S 368.148 1.99285 4.97037 0
M  V30 3786 C 369.304 1.20862 6.1412 0
M  V30 3787 H 369.537 1.31005 2.6688 0
M  V30 3788 H 367.07 0.784965 1.32957 0
M  V30 3789 H 369.028 -0.782027 4.02982 0
M  V30 3790 H 367.689 -1.15244 2.92194 0
M  V30 3791 H 366.882 -0.0638928 5.03959 0
M  V30 3792 H 366.484 0.933705 3.62157 0
M  V30 3793 H 368.776 0.469284 6.75873 0
M  V30 3794 H 369.719 1.99307 6.79472 0
M  V30 3795 H 370.127 0.727992 5.59786 0
M  V30 3796 N 369.525 -1.3858 0.750561 0
M  V30 3797 C 370.941 -1.53759 0.427824 0
M  V30 3798 C 371.141 -1.71401 -1.05943 0
M  V30 3799 O 370.197 -1.72331 -1.84549 0
M  V30 3800 C 371.51 -2.74642 1.22443 0
M  V30 3801 C 373.058 -2.88489 1.2142 0
M  V30 3802 C 373.533 -4.12329 1.9937 0
M  V30 3803 N 375.024 -4.194 1.96616 0
M  V30 3804 C 375.759 -5.14209 2.53727 0
M  V30 3805 N 375.255 -6.14709 3.19539 0
M  V30 3806 N 377.048 -5.06537 2.43673 0
M  V30 3807 H 369.199 -1.25377 1.71447 0
M  V30 3808 H 371.462 -0.608844 0.726645 0
M  V30 3809 H 371.168 -2.68 2.27747 0
M  V30 3810 H 371.042 -3.67745 0.839273 0
M  V30 3811 H 373.429 -2.94614 0.169232 0
M  V30 3812 H 373.51 -1.96406 1.63885 0
M  V30 3813 H 373.154 -4.06966 3.03877 0
M  V30 3814 H 373.084 -5.03486 1.54302 0
M  V30 3815 H 375.575 -3.47421 1.48684 0
M  V30 3816 H 375.888 -6.8354 3.60545 0
M  V30 3817 H 374.233 -6.1505 3.23633 0
M  V30 3818 H 377.424 -4.26962 1.91889 0
M  V30 3819 H 377.597 -5.80245 2.88479 0
M  V30 3820 N 371.003 -0.499398 -1.49478 0
M  V30 3821 C 371.936 0.326491 -2.25852 0
M  V30 3822 C 372.914 0.971776 -1.30366 0
M  V30 3823 O 374.098 1.00219 -1.59651 0
M  V30 3824 C 371.225 1.45969 -3.05632 0
M  V30 3825 C 370.271 0.928938 -4.16261 0
M  V30 3826 S 371.104 -0.179012 -5.35201 0
M  V30 3827 C 372.26 0.957389 -6.18534 0
M  V30 3828 H 372.493 -0.321746 -2.95554 0
M  V30 3829 H 370.026 -0.284674 -1.51753 0
M  V30 3830 H 371.984 2.109 -3.52181 0
M  V30 3831 H 370.645 2.07953 -2.35402 0
M  V30 3832 H 369.838 1.77813 -4.71592 0
M  V30 3833 H 369.44 0.356869 -3.72293 0
M  V30 3834 H 371.732 1.86296 -6.51383 0
M  V30 3835 H 372.675 0.442733 -7.06715 0
M  V30 3836 H 373.083 1.224 -5.5107 0
M  V30 3837 N 372.481 1.55866 -0.233164 0
M  V30 3838 C 373.727 1.98897 0.395959 0
M  V30 3839 C 374.06 1.12091 1.58585 0
M  V30 3840 O 373.335 0.181182 1.93654 0
M  V30 3841 C 373.618 3.50658 0.819224 0
M  V30 3842 C 373.471 4.48233 -0.375109 0
M  V30 3843 C 374.79 4.07135 1.67121 0
M  V30 3844 H 371.909 0.723102 0.142451 0
M  V30 3845 H 374.551 1.87082 -0.331725 0
M  V30 3846 H 372.701 3.60857 1.43925 0
M  V30 3847 H 374.373 4.50031 -1.01341 0
M  V30 3848 H 372.616 4.21624 -1.02058 0
M  V30 3849 H 373.287 5.51988 -0.0358328 0
M  V30 3850 H 375.763 3.99952 1.14795 0
M  V30 3851 H 374.639 5.13615 1.93625 0
M  V30 3852 H 374.9 3.54736 2.63846 0
M  V30 3853 N 373.959 -0.0401083 1.57549 0
M  V30 3854 C 374.922 -1.02871 2.04817 0
M  V30 3855 C 375.922 -1.29708 0.950388 0
M  V30 3856 O 377.112 -1.24897 1.21435 0
M  V30 3857 C 374.244 -2.36443 2.45576 0
M  V30 3858 H 375.437 -0.620631 2.93408 0
M  V30 3859 H 372.99 -0.286667 1.53649 0
M  V30 3860 H 373.725 -2.82021 1.60108 0
M  V30 3861 H 373.51 -2.18296 3.25713 0
M  V30 3862 H 375 -3.07441 2.82612 0
M  V30 3863 N 375.437 -1.54477 -0.31217 0
M  V30 3864 C 376.367 -1.87652 -1.38957 0
M  V30 3865 C 377.348 -0.734358 -1.53431 0
M  V30 3866 O 378.533 -0.98911 -1.67123 0
M  V30 3867 C 375.663 -2.11396 -2.75552 0
M  V30 3868 C 374.617 -3.27243 -2.75855 0
M  V30 3869 C 373.943 -3.36382 -4.15633 0
M  V30 3870 C 375.243 -4.64622 -2.38587 0
M  V30 3871 H 376.937 -2.77887 -1.11442 0
M  V30 3872 H 374.483 -1.33707 -0.534655 0
M  V30 3873 H 376.436 -2.33189 -3.51 0
M  V30 3874 H 375.16 -1.17921 -3.04569 0
M  V30 3875 H 373.819 -3.05356 -2.02863 0
M  V30 3876 H 373.467 -2.40445 -4.41809 0
M  V30 3877 H 373.167 -4.14249 -4.1674 0
M  V30 3878 H 374.691 -3.60422 -4.92877 0
M  V30 3879 H 376.105 -4.86219 -3.03749 0
M  V30 3880 H 374.502 -5.45121 -2.50925 0
M  V30 3881 H 375.572 -4.66097 -1.33723 0
M  V30 3882 N 376.915 0.57481 -1.46744 0
M  V30 3883 C 377.862 1.68329 -1.57905 0
M  V30 3884 C 378.832 1.60625 -0.422927 0
M  V30 3885 O 380.017 1.79721 -0.640711 0
M  V30 3886 C 377.157 3.06665 -1.58274 0
M  V30 3887 C 376.27 3.24935 -2.84678 0
M  V30 3888 C 375.405 4.53566 -2.76499 0
M  V30 3889 C 374.444 4.65207 -3.97806 0
M  V30 3890 N 373.581 5.85172 -3.87967 0
M  V30 3891 H 378.421 1.58127 -2.52587 0
M  V30 3892 H 375.958 0.770552 -1.25303 0
M  V30 3893 H 377.916 3.86745 -1.56473 0
M  V30 3894 H 376.546 3.15745 -0.671194 0
M  V30 3895 H 375.598 2.38405 -2.96424 0
M  V30 3896 H 376.91 3.29403 -3.7456 0
M  V30 3897 H 376.064 5.41885 -2.72848 0
M  V30 3898 H 374.803 4.51548 -1.8427 0
M  V30 3899 H 373.808 3.75304 -4.0178 0
M  V30 3900 H 375.033 4.68997 -4.9114 0
M  V30 3901 H 372.979 5.84137 -2.98529 0
M  V30 3902 H 372.896 5.90943 -4.71511 0
M  V30 3903 H 374.164 6.759 -3.88303 0
M  V30 3904 N 378.394 1.34581 0.820102 0
M  V30 3905 C 379.357 1.2628 1.91275 0
M  V30 3906 C 380.357 0.177344 1.59819 0
M  V30 3907 O 381.547 0.430156 1.68806 0
M  V30 3908 C 378.679 0.950327 3.27386 0
M  V30 3909 H 379.872 2.23421 2.00057 0
M  V30 3910 H 377.425 1.1891 1.0144 0
M  V30 3911 H 378.16 -0.0177938 3.24295 0
M  V30 3912 H 377.945 1.73549 3.51601 0
M  V30 3913 H 379.435 0.917492 4.07396 0
M  V30 3914 N 379.872 -1.04064 1.18357 0
M  V30 3915 C 381.12 -1.76915 0.977013 0
M  V30 3916 C 381.441 -1.88624 -0.494577 0
M  V30 3917 O 380.711 -1.41125 -1.3587 0
M  V30 3918 H 379.291 -0.65535 0.358504 0
M  V30 3919 H 381.953 -1.25592 1.49039 0
M  V30 3920 H 381.049 -2.78178 1.41504 0
M  V30 3921 N 381.35 -0.985608 -1.22978 0
M  V30 3922 C 382.596 -0.667998 -1.92118 0
M  V30 3923 C 382.951 0.790454 -1.75413 0
M  V30 3924 O 382.244 1.56336 -1.10768 0
M  V30 3925 C 382.438 -1.00014 -3.43121 0
M  V30 3926 C 382.267 -2.48933 -3.74516 0
M  V30 3927 C 381.037 -3.15218 -3.94925 0
M  V30 3928 C 383.235 -3.47024 -3.79577 0
M  V30 3929 N 381.217 -4.53689 -4.13569 0
M  V30 3930 C 382.588 -4.70923 -4.03276 0
M  V30 3931 C 384.643 -3.41432 -3.62393 0
M  V30 3932 C 383.346 -5.89914 -4.11574 0
M  V30 3933 C 385.372 -4.59793 -3.71947 0
M  V30 3934 C 384.734 -5.82489 -3.96088 0
M  V30 3935 H 380.833 -0.295589 -0.723983 0
M  V30 3936 H 383.417 -1.26413 -1.4808 0
M  V30 3937 H 381.588 -0.432655 -3.85983 0
M  V30 3938 H 383.32 -0.63927 -3.99619 0
M  V30 3939 H 380.075 -2.65702 -3.92045 0
M  V30 3940 H 380.499 -5.25492 -4.26834 0
M  V30 3941 H 385.141 -2.47594 -3.4272 0
M  V30 3942 H 382.859 -6.84164 -4.30053 0
M  V30 3943 H 386.445 -4.57048 -3.59998 0
M  V30 3944 H 385.325 -6.72546 -4.033 0
M  V30 3945 N 382.828 1.3818 -0.7579 0
M  V30 3946 C 383.76 2.2901 -0.0932177 0
M  V30 3947 C 384.773 1.47958 0.679136 0
M  V30 3948 O 385.962 1.70773 0.519514 0
M  V30 3949 C 383.062 3.26953 0.89192 0
M  V30 3950 C 382.235 4.37045 0.176303 0
M  V30 3951 C 381.294 5.15148 1.07281 0
M  V30 3952 O 380.32 5.66616 0.541728 0
M  V30 3953 N 381.522 5.28542 2.40049 0
M  V30 3954 H 384.287 2.86694 -0.873303 0
M  V30 3955 H 381.848 1.50007 -0.609054 0
M  V30 3956 H 383.84 3.76083 1.49479 0
M  V30 3957 H 382.41 2.70136 1.57306 0
M  V30 3958 H 381.63 3.89493 -0.607328 0
M  V30 3959 H 382.918 5.07801 -0.318718 0
M  V30 3960 H 382.316 4.88285 2.85647 0
M  V30 3961 H 380.873 5.8103 2.95376 0
M  V30 3962 N 384.306 0.507319 1.49211 0
M  V30 3963 C 385.238 -0.304532 2.27168 0
M  V30 3964 C 386.251 -0.924956 1.33972 0
M  V30 3965 O 387.44 -0.807227 1.59205 0
M  V30 3966 C 384.54 -1.44431 3.06583 0
M  V30 3967 C 383.713 -0.930026 4.27398 0
M  V30 3968 C 382.772 -1.94817 4.88807 0
M  V30 3969 O 381.798 -1.51418 5.4869 0
M  V30 3970 N 383 -3.279 4.79022 0
M  V30 3971 H 385.765 0.36395 2.97482 0
M  V30 3972 H 383.326 0.340249 1.58284 0
M  V30 3973 H 385.318 -2.12311 3.44537 0
M  V30 3974 H 383.888 -2.01684 2.38835 0
M  V30 3975 H 383.108 -0.0759244 3.94127 0
M  V30 3976 H 384.396 -0.564932 5.05654 0
M  V30 3977 H 383.794 -3.65843 4.3148 0
M  V30 3978 H 382.351 -3.91476 5.21142 0
M  V30 3979 N 385.784 -1.5574 0.241426 0
M  V30 3980 C 387.2 -1.59196 -0.113548 0
M  V30 3981 C 387.4 -1.25852 -1.57364 0
M  V30 3982 O 386.456 -1.00322 -2.31715 0
M  V30 3983 C 387.769 -2.99814 0.230695 0
M  V30 3984 C 389.317 -3.12513 0.174547 0
M  V30 3985 C 389.792 -4.55342 0.492744 0
M  V30 3986 N 391.283 -4.61076 0.443043 0
M  V30 3987 C 392.018 -5.6956 0.662484 0
M  V30 3988 N 391.514 -6.86328 0.944761 0
M  V30 3989 N 393.307 -5.58957 0.593564 0
M  V30 3990 H 385.458 -1.75685 1.19368 0
M  V30 3991 H 387.721 -0.81756 0.479896 0
M  V30 3992 H 387.427 -3.28932 1.24485 0
M  V30 3993 H 387.301 -3.74568 -0.444833 0
M  V30 3994 H 389.688 -2.83179 -0.830277 0
M  V30 3995 H 389.769 -2.40045 0.883845 0
M  V30 3996 H 389.413 -4.85396 1.4951 0
M  V30 3997 H 389.343 -5.26062 -0.23797 0
M  V30 3998 H 391.834 -3.77179 0.233374 0
M  V30 3999 H 392.147 -7.64935 1.09977 0
M  V30 4000 H 390.492 -6.88025 0.982175 0
M  V30 4001 H 393.683 -4.66611 0.373123 0
M  V30 4002 H 393.856 -6.43433 0.767981 0
M  V30 4003 N 387.262 0.0317525 -1.57568 0
M  V30 4004 C 388.209 1.0332 -2.06382 0
M  V30 4005 C 389.179 1.36082 -0.952414 0
M  V30 4006 O 390.364 1.46466 -1.2228 0
M  V30 4007 C 387.504 2.32989 -2.54578 0
M  V30 4008 C 386.617 2.0641 -3.79498 0
M  V30 4009 C 385.752 3.2993 -4.16317 0
M  V30 4010 C 384.791 2.98893 -5.34162 0
M  V30 4011 N 383.928 4.14857 -5.66426 0
M  V30 4012 H 388.768 0.609982 -2.9169 0
M  V30 4013 H 386.305 0.289573 -1.44222 0
M  V30 4014 H 388.263 3.0875 -2.80587 0
M  V30 4015 H 386.893 2.73039 -1.7219 0
M  V30 4016 H 385.945 1.21158 -3.6059 0
M  V30 4017 H 387.257 1.79513 -4.65378 0
M  V30 4018 H 386.411 4.1406 -4.4344 0
M  V30 4019 H 385.15 3.59938 -3.29083 0
M  V30 4020 H 384.155 2.13164 -5.06795 0
M  V30 4021 H 385.38 2.70165 -6.23047 0
M  V30 4022 H 383.326 4.44821 -4.82151 0
M  V30 4023 H 383.243 3.91374 -6.4681 0
M  V30 4024 H 384.511 4.99868 -5.98124 0
M  V30 4025 N 388.74 1.54641 0.303973 0
M  V30 4026 C 390.156 1.45788 0.649463 0
M  V30 4027 C 390.356 0.64666 1.90842 0
M  V30 4028 O 389.412 0.153183 2.52035 0
M  V30 4029 C 390.725 2.89718 0.805227 0
M  V30 4030 C 392.273 2.99742 0.901305 0
M  V30 4031 C 392.748 4.44863 1.08909 0
M  V30 4032 N 394.239 4.48559 1.15536 0
M  V30 4033 C 394.974 5.58026 1.3189 0
M  V30 4034 N 394.47 6.77422 1.45161 0
M  V30 4035 N 396.263 5.45708 1.34755 0
M  V30 4036 H 388.414 2.05854 -0.523237 0
M  V30 4037 H 390.677 0.932186 -0.172431 0
M  V30 4038 H 390.383 3.51666 -0.0489108 0
M  V30 4039 H 390.257 3.36964 1.69513 0
M  V30 4040 H 392.644 2.3791 1.74593 0
M  V30 4041 H 392.725 2.55797 -0.0125531 0
M  V30 4042 H 392.369 5.07288 0.249241 0
M  V30 4043 H 392.299 4.86436 2.01713 0
M  V30 4044 H 394.79 3.6254 1.06646 0
M  V30 4045 H 395.103 7.56604 1.57387 0
M  V30 4046 H 393.448 6.80292 1.42223 0
M  V30 4047 H 396.639 4.51378 1.23996 0
M  V30 4048 H 396.812 6.3107 1.47157 0
M  V30 4049 N 390.218 -0.567019 1.47046 0
M  V30 4050 C 391.443 -1.3551 1.57009 0
M  V30 4051 C 391.868 -1.86841 0.217259 0
M  V30 4052 O 391.226 -1.62435 -0.805268 0
M  V30 4053 C 391.274 -2.50777 2.5912 0
M  V30 4054 O 390.378 -3.52706 2.13711 0
M  V30 4055 H 389.719 -0.402919 0.52778 0
M  V30 4056 H 392.249 -0.686241 1.92748 0
M  V30 4057 H 392.259 -2.97481 2.79229 0
M  V30 4058 H 390.934 -2.12771 3.57353 0
M  V30 4059 H 389.511 -3.12374 2.03659 0
M  V30 4060 N 391.696 -1.35014 -0.812953 0
M  V30 4061 C 392.606 -1.2951 -1.95613 0
M  V30 4062 C 393.622 -0.20107 -1.72834 0
M  V30 4063 O 394.798 -0.42932 -1.96771 0
M  V30 4064 C 391.863 -1.06033 -3.30088 0
M  V30 4065 C 390.924 -2.24688 -3.65805 0
M  V30 4066 C 390.157 -2.02322 -4.93864 0
M  V30 4067 O 390.38 -0.986464 -5.61805 0
M  V30 4068 O 389.314 -2.89525 -5.27692 0
M  V30 4069 H 393.14 -2.25705 -2.03202 0
M  V30 4070 H 390.725 -1.15321 -0.949811 0
M  V30 4071 H 392.607 -0.94763 -4.10607 0
M  V30 4072 H 391.282 -0.128852 -3.23443 0
M  V30 4073 H 390.189 -2.41521 -2.85689 0
M  V30 4074 H 391.522 -3.16261 -3.77147 0
M  V30 4075 N 393.175 1.03435 -1.18907 0
M  V30 4076 C 394.591 1.28973 -0.940111 0
M  V30 4077 C 394.791 1.97676 0.390691 0
M  V30 4078 O 393.847 2.26127 1.12352 0
M  V30 4079 C 395.16 2.14221 -2.11021 0
M  V30 4080 C 396.708 2.27547 -2.14922 0
M  V30 4081 C 397.183 3.16164 -3.31367 0
M  V30 4082 N 398.674 3.23752 -3.31269 0
M  V30 4083 C 399.409 3.92495 -4.18014 0
M  V30 4084 N 398.905 4.63515 -5.14904 0
M  V30 4085 N 400.698 3.88838 -4.05908 0
M  V30 4086 H 392.849 0.57252 -2.04538 0
M  V30 4087 H 395.112 0.315184 -0.894071 0
M  V30 4088 H 394.818 1.71054 -3.073 0
M  V30 4089 H 394.692 3.14919 -2.0762 0
M  V30 4090 H 397.079 2.69947 -1.19217 0
M  V30 4091 H 397.16 1.26418 -2.22378 0
M  V30 4092 H 396.804 2.74474 -4.27348 0
M  V30 4093 H 396.734 4.17339 -3.21148 0
M  V30 4094 H 399.225 2.73167 -2.61129 0
M  V30 4095 H 399.538 5.13583 -5.77453 0
M  V30 4096 H 397.883 4.62398 -5.18857 0
M  V30 4097 H 401.074 3.32491 -3.29495 0
M  V30 4098 H 401.247 4.4214 -4.73726 0
M  V30 4099 N 394.653 0.992116 1.22453 0
M  V30 4100 C 395.6 0.541731 2.24352 0
M  V30 4101 C 396.57 -0.425519 1.60557 0
M  V30 4102 O 397.755 -0.330453 1.87917 0
M  V30 4103 C 394.895 -0.138248 3.44823 0
M  V30 4104 C 394.008 0.870649 4.23136 0
M  V30 4105 C 393.143 0.164269 5.30946 0
M  V30 4106 C 392.182 1.16159 6.00977 0
M  V30 4107 N 391.319 0.483568 7.00433 0
M  V30 4108 H 396.159 1.41541 2.62241 0
M  V30 4109 H 393.696 0.709013 1.28885 0
M  V30 4110 H 395.654 -0.5494 4.13567 0
M  V30 4111 H 394.284 -0.975721 3.077 0
M  V30 4112 H 393.336 1.40013 3.53696 0
M  V30 4113 H 394.648 1.63014 4.7141 0
M  V30 4114 H 393.802 -0.303653 6.0594 0
M  V30 4115 H 392.541 -0.627733 4.83643 0
M  V30 4116 H 391.546 1.64015 5.24766 0
M  V30 4117 H 392.771 1.95445 6.50368 0
M  V30 4118 H 390.717 -0.289012 6.55363 0
M  V30 4119 H 390.634 1.18152 7.4671 0
M  V30 4120 H 391.902 0.0384219 7.79491 0
M  V30 4121 N 396.131 -1.37776 0.765217 0
M  V30 4122 C 397.38 -1.99092 0.323307 0
M  V30 4123 C 397.693 -1.61434 -1.10446 0
M  V30 4124 O 398.899 -2.15805 -1.64743 0
M  V30 4125 C 397.355 -3.56019 0.527098 0
M  V30 4126 C 396.963 -4.0262 1.96471 0
M  V30 4127 C 398.707 -4.2424 0.148483 0
M  V30 4128 C 396.614 -5.52233 2.11644 0
M  V30 4129 H 395.544 -0.744846 0.117137 0
M  V30 4130 H 398.195 -1.57391 0.943417 0
M  V30 4131 H 396.577 -3.95667 -0.162372 0
M  V30 4132 H 397.751 -3.74234 2.68859 0
M  V30 4133 H 396.066 -3.47161 2.29931 0
M  V30 4134 H 398.663 -5.34159 0.240456 0
M  V30 4135 H 399.006 -4.06446 -0.900422 0
M  V30 4136 H 399.539 -3.89872 0.79025 0
M  V30 4137 H 396.278 -5.74945 3.1483 0
M  V30 4138 H 395.798 -5.82324 1.4373 0
M  V30 4139 H 397.477 -6.18106 1.91193 0
M  V30 4140 N 397.609 -0.515225 -1.4894 0
M  V30 4141 C 398.837 0.0206034 -2.0689 0
M  V30 4142 C 399.252 1.29514 -1.37374 0
M  V30 4143 O 398.609 1.76698 -0.456529 0
M  V30 4144 C 398.66 0.26351 -3.60538 0
M  V30 4145 O 398.381 -0.960517 -4.27441 0
M  V30 4146 C 399.882 0.841383 -4.35242 0
M  V30 4147 H 397.102 -0.0268608 -0.670462 0
M  V30 4148 H 399.646 -0.716651 -1.91532 0
M  V30 4149 H 397.801 0.950777 -3.75552 0
M  V30 4150 H 398.215 -0.73212 -5.19365 0
M  V30 4151 H 399.689 0.96085 -5.43573 0
M  V30 4152 H 400.166 1.8427 -3.98674 0
M  V30 4153 H 400.772 0.191143 -4.2487 0
M  V30 4154 N 399.087 1.5561 -0.249682 0
M  V30 4155 C 400.017 2.24477 0.642826 0
M  V30 4156 C 400.998 1.22601 1.17911 0
M  V30 4157 O 402.183 1.5126 1.21795 0
M  V30 4158 C 399.313 2.94638 1.83863 0
M  V30 4159 C 398.267 4.03227 1.435 0
M  V30 4160 C 397.593 4.60828 2.71186 0
M  V30 4161 C 398.893 5.18796 0.604002 0
M  V30 4162 H 400.587 2.99321 0.0685625 0
M  V30 4163 H 398.133 1.43965 0.0315363 0
M  V30 4164 H 400.086 3.41517 2.46868 0
M  V30 4165 H 398.81 2.17287 2.43832 0
M  V30 4166 H 397.469 3.57121 0.828275 0
M  V30 4167 H 397.117 3.80174 3.29358 0
M  V30 4168 H 396.817 5.34132 2.44901 0
M  V30 4169 H 398.341 5.10442 3.35084 0
M  V30 4170 H 399.755 5.61883 1.13842 0
M  V30 4171 H 398.152 5.98506 0.437097 0
M  V30 4172 H 399.222 4.83384 -0.383147 0
M  V30 4173 N 400.565 -0.0233959 1.57583 0
M  V30 4174 C 401.498 -1.05549 2.02323 0
M  V30 4175 C 402.476 -1.34843 0.908626 0
M  V30 4176 O 403.66 -1.47404 1.17491 0
M  V30 4177 C 400.787 -2.38885 2.40108 0
M  V30 4178 C 399.833 -2.2541 3.62067 0
M  V30 4179 S 400.666 -1.60217 5.1097 0
M  V30 4180 C 401.822 -2.95032 5.52003 0
M  V30 4181 H 402.055 -0.674435 2.89549 0
M  V30 4182 H 399.588 -0.23355 1.52623 0
M  V30 4183 H 401.546 -3.15562 2.62547 0
M  V30 4184 H 400.207 -2.74137 1.53323 0
M  V30 4185 H 399.4 -3.23854 3.86179 0
M  V30 4186 H 399.002 -1.56876 3.39508 0
M  V30 4187 H 401.294 -3.91357 5.53033 0
M  V30 4188 H 402.237 -2.75646 6.52246 0
M  V30 4189 H 402.645 -2.97865 4.79517 0
M  V30 4190 N 402.043 -1.548 -0.295768 0
M  V30 4191 C 403.289 -1.74588 -1.03184 0
M  V30 4192 C 403.622 -0.532962 -1.86744 0
M  V30 4193 O 402.897 0.469872 -1.88739 0
M  V30 4194 C 403.18 -3.03791 -1.93347 0
M  V30 4195 C 403.033 -4.35392 -1.12933 0
M  V30 4196 C 404.352 -3.28892 -2.92435 0
M  V30 4197 H 401.471 -0.635221 -0.373715 0
M  V30 4198 H 404.113 -1.87519 -0.30606 0
M  V30 4199 H 402.263 -2.92898 -2.55232 0
M  V30 4200 H 403.935 -4.58211 -0.532943 0
M  V30 4201 H 402.178 -4.31642 -0.432168 0
M  V30 4202 H 402.849 -5.22074 -1.79284 0
M  V30 4203 H 405.325 -3.39429 -2.4068 0
M  V30 4204 H 404.201 -4.20603 -3.52682 0
M  V30 4205 H 404.462 -2.47437 -3.6637 0
M  V30 4206 N 403.521 0.559213 -1.47345 0
M  V30 4207 C 404.454 1.68201 -1.5422 0
M  V30 4208 C 405.432 1.57742 -0.394497 0
M  V30 4209 O 406.616 1.78628 -0.60201 0
M  V30 4210 C 403.743 3.0643 -1.44285 0
M  V30 4211 C 402.789 3.3534 -2.63532 0
M  V30 4212 S 403.622 3.24816 -4.25741 0
M  V30 4213 C 404.778 4.65542 -4.18355 0
M  V30 4214 H 405.011 1.62114 -2.49211 0
M  V30 4215 H 402.544 0.739871 -1.35519 0
M  V30 4216 H 404.502 3.86164 -1.3924 0
M  V30 4217 H 403.163 3.09984 -0.506816 0
M  V30 4218 H 402.356 4.36107 -2.52639 0
M  V30 4219 H 401.958 2.63221 -2.65689 0
M  V30 4220 H 404.25 5.56449 -3.86485 0
M  V30 4221 H 405.193 4.81493 -5.19202 0
M  V30 4222 H 405.601 4.43495 -3.49246 0
M  V30 4223 N 404.999 1.35443 0.805782 0
M  V30 4224 C 405.932 1.22783 1.92353 0
M  V30 4225 C 406.91 0.115543 1.62189 0
M  V30 4226 O 408.094 0.283778 1.86352 0
M  V30 4227 C 405.221 0.890746 3.26777 0
M  V30 4228 C 404.267 2.01519 3.75889 0
M  V30 4229 S 405.1 3.63101 3.93596 0
M  V30 4230 C 406.256 3.31472 5.30921 0
M  V30 4231 H 406.489 2.17394 2.02798 0
M  V30 4232 H 404.022 1.20669 0.963245 0
M  V30 4233 H 405.98 0.703068 4.04434 0
M  V30 4234 H 404.641 -0.0373152 3.14078 0
M  V30 4235 H 403.834 1.7335 4.7325 0
M  V30 4236 H 403.436 2.16124 3.05231 0
M  V30 4237 H 405.728 2.8435 6.1494 0
M  V30 4238 H 406.671 4.28036 5.64084 0
M  V30 4239 H 407.079 2.67221 4.97246 0
M  V30 4240 N 406.477 -1.02803 1.19454 0
M  V30 4241 C 407.723 -1.76478 0.999171 0
M  V30 4242 C 408.056 -1.88456 -0.468828 0
M  V30 4243 O 407.331 -1.40198 -1.34814 0
M  V30 4244 C 407.614 -3.19044 1.66981 0
M  V30 4245 C 407.467 -3.14932 3.21151 0
M  V30 4246 C 408.786 -4.17456 1.39349 0
M  V30 4247 H 405.905 -0.640614 0.364393 0
M  V30 4248 H 408.547 -1.20005 1.47305 0
M  V30 4249 H 406.697 -3.67263 1.2669 0
M  V30 4250 H 408.369 -2.74605 3.70661 0
M  V30 4251 H 406.612 -2.52625 3.52652 0
M  V30 4252 H 407.283 -4.1566 3.63223 0
M  V30 4253 H 409.759 -3.77842 1.74283 0
M  V30 4254 H 408.635 -5.154 1.88823 0
M  V30 4255 H 408.896 -4.40949 0.318813 0
M  V30 4256 N 407.956 -0.998596 -1.21925 0
M  V30 4257 C 409.202 -0.678667 -1.91107 0
M  V30 4258 C 409.535 0.78791 -1.77498 0
M  V30 4259 O 408.81 1.57043 -1.1475 0
M  V30 4260 C 409.093 -1.09245 -3.43129 0
M  V30 4261 C 408.946 -2.61801 -3.6576 0
M  V30 4262 C 410.265 -0.649984 -4.35274 0
M  V30 4263 H 407.384 -0.248025 -0.694012 0
M  V30 4264 H 410.026 -1.24314 -1.43688 0
M  V30 4265 H 408.176 -0.612171 -3.83647 0
M  V30 4266 H 409.848 -3.17543 -3.34611 0
M  V30 4267 H 408.091 -3.03609 -3.09845 0
M  V30 4268 H 408.762 -2.85804 -4.7225 0
M  V30 4269 H 411.238 -1.0626 -4.02303 0
M  V30 4270 H 410.114 -0.967743 -5.40302 0
M  V30 4271 H 410.375 0.449139 -4.39813 0
M  V30 4272 N 409.434 1.37368 -0.772513 0
M  V30 4273 C 410.367 2.27956 -0.105593 0
M  V30 4274 C 411.345 1.46362 0.708295 0
M  V30 4275 O 412.529 1.75695 0.682895 0
M  V30 4276 C 409.656 3.27687 0.856686 0
M  V30 4277 C 408.702 4.26312 0.1267 0
M  V30 4278 S 409.535 5.22206 -1.1858 0
M  V30 4279 C 410.691 6.25488 -0.227081 0
M  V30 4280 H 410.924 2.84171 -0.87372 0
M  V30 4281 H 408.457 1.43654 -0.565939 0
M  V30 4282 H 410.415 3.85653 1.40648 0
M  V30 4283 H 409.076 2.70417 1.59793 0
M  V30 4284 H 408.269 4.96674 0.856212 0
M  V30 4285 H 407.871 3.72339 -0.352117 0
M  V30 4286 H 410.163 6.74836 0.600231 0
M  V30 4287 H 411.106 7.02371 -0.898899 0
M  V30 4288 H 411.514 5.64267 0.162053 0
M  V30 4289 N 410.912 0.523116 1.48665 0
M  V30 4290 C 412.158 -0.0134963 2.02796 0
M  V30 4291 C 412.491 -1.34582 1.40004 0
M  V30 4292 O 411.766 -1.86756 0.543381 0
M  V30 4293 C 412.049 -0.14276 3.59817 0
M  V30 4294 C 411.902 1.21425 4.331 0
M  V30 4295 C 413.221 -0.872856 4.31357 0
M  V30 4296 H 410.34 -0.00343074 0.736992 0
M  V30 4297 H 412.982 0.678816 1.7746 0
M  V30 4298 H 411.132 -0.732401 3.81534 0
M  V30 4299 H 412.804 1.84447 4.2282 0
M  V30 4300 H 411.047 1.79791 3.94788 0
M  V30 4301 H 411.718 1.07687 5.41394 0
M  V30 4302 H 414.194 -0.372555 4.14429 0
M  V30 4303 H 413.07 -0.932185 5.40927 0
M  V30 4304 H 413.331 -1.92161 3.98154 0
M  V30 4305 N 412.39 -1.55475 0.257931 0
M  V30 4306 C 413.637 -1.99207 -0.363728 0
M  V30 4307 C 413.965 -1.1462 -1.57139 0
M  V30 4308 O 413.22 -0.199653 -1.94679 0
M  V30 4309 C 413.519 -3.48183 -0.806433 0
M  V30 4310 C 413.185 -4.49936 0.294684 0
M  V30 4311 C 411.847 -4.77481 0.597076 0
M  V30 4312 C 414.199 -5.10769 1.03751 0
M  V30 4313 C 411.527 -5.63132 1.64618 0
M  V30 4314 C 413.879 -5.97558 2.07622 0
M  V30 4315 C 412.543 -6.23432 2.38514 0
M  V30 4316 H 411.813 -0.728949 -0.133097 0
M  V30 4317 H 414.46 -1.8793 0.368059 0
M  V30 4318 H 412.765 -3.56848 -1.61761 0
M  V30 4319 H 414.462 -3.79415 -1.29789 0
M  V30 4320 H 411.052 -4.28572 0.0488649 0
M  V30 4321 H 415.236 -4.89527 0.817149 0
M  V30 4322 H 410.492 -5.8143 1.89074 0
M  V30 4323 H 414.666 -6.43735 2.65666 0
M  V30 4324 H 412.293 -6.89594 3.19943 0
M  V30 4325 N 413.868 0.0150385 -1.57593 0
M  V30 4326 C 415.114 0.704043 -1.90187 0
M  V30 4327 C 415.447 1.74249 -0.857366 0
M  V30 4328 O 414.722 1.94092 0.125843 0
M  V30 4329 C 415.005 1.36087 -3.33395 0
M  V30 4330 C 414.858 0.334981 -4.48551 0
M  V30 4331 C 416.177 2.29112 -3.7576 0
M  V30 4332 H 413.296 0.254475 -0.691673 0
M  V30 4333 H 415.938 -0.0331678 -1.89971 0
M  V30 4334 H 414.088 1.98922 -3.3371 0
M  V30 4335 H 415.76 -0.292534 -4.60372 0
M  V30 4336 H 414.003 -0.344325 -4.32431 0
M  V30 4337 H 414.674 0.833316 -5.45674 0
M  V30 4338 H 417.15 1.76308 -3.76902 0
M  V30 4339 H 416.026 2.72043 -4.76743 0
M  V30 4340 H 416.287 3.16385 -3.08793 0
M  V30 4341 N 415.346 1.54954 0.287554 0
M  V30 4342 C 416.595 1.74081 1.01877 0
M  V30 4343 C 416.908 0.541135 1.87966 0
M  V30 4344 O 418.114 0.614491 2.64455 0
M  V30 4345 C 416.57 3.08042 1.86113 0
M  V30 4346 C 416.178 4.35531 1.04961 0
M  V30 4347 C 417.922 3.36523 2.58752 0
M  V30 4348 C 415.829 5.60538 1.88551 0
M  V30 4349 H 414.759 0.64884 0.384087 0
M  V30 4350 H 417.41 1.81426 0.275101 0
M  V30 4351 H 415.792 2.94696 2.64519 0
M  V30 4352 H 416.966 4.59751 0.31074 0
M  V30 4353 H 415.281 4.14085 0.43843 0
M  V30 4354 H 417.878 4.27122 3.21668 0
M  V30 4355 H 418.221 2.56 3.28283 0
M  V30 4356 H 418.754 3.50901 1.87386 0
M  V30 4357 H 415.493 6.43767 1.23466 0
M  V30 4358 H 415.013 5.40483 2.60074 0
M  V30 4359 H 416.692 5.98297 2.46273 0
M  V30 4360 N 416.824 -0.551391 1.4764 0
M  V30 4361 C 418.064 -1.31901 1.56145 0
M  V30 4362 C 418.428 -1.90724 0.221013 0
M  V30 4363 O 419.629 -2.6819 0.180945 0
M  V30 4364 C 417.9 -2.39517 2.65267 0
M  V30 4365 S 419.459 -3.26289 2.93395 0
M  V30 4366 H 416.277 -0.448965 0.551318 0
M  V30 4367 H 418.879 -0.630599 1.85051 0
M  V30 4368 H 417.583 -1.94747 3.6125 0
M  V30 4369 H 417.114 -3.13092 2.38195 0
M  V30 4370 H 419.129 -4.39122 2.31055 0
M  V30 4371 N 418.302 -1.35869 -0.798587 0
M  V30 4372 C 419.548 -1.30788 -1.55775 0
M  V30 4373 C 419.903 0.114558 -1.92059 0
M  V30 4374 O 419.196 1.06691 -1.59147 0
M  V30 4375 C 419.39 -2.1556 -2.85077 0
M  V30 4376 C 419.219 -3.65904 -2.61428 0
M  V30 4377 C 417.989 -4.35112 -2.56915 0
M  V30 4378 C 420.187 -4.59375 -2.31255 0
M  V30 4379 N 418.169 -5.71155 -2.25068 0
M  V30 4380 C 419.54 -5.83598 -2.09316 0
M  V30 4381 C 421.595 -4.48035 -2.17185 0
M  V30 4382 C 420.298 -6.97755 -1.74731 0
M  V30 4383 C 422.324 -5.62049 -1.83998 0
M  V30 4384 C 421.686 -6.85305 -1.629 0
M  V30 4385 H 417.785 -0.533855 -0.571422 0
M  V30 4386 H 420.369 -1.7083 -0.934079 0
M  V30 4387 H 418.54 -1.77776 -3.45326 0
M  V30 4388 H 420.272 -2.01938 -3.50718 0
M  V30 4389 H 417.027 -3.87812 -2.71843 0
M  V30 4390 H 417.451 -6.42978 -2.11916 0
M  V30 4391 H 422.093 -3.53338 -2.3219 0
M  V30 4392 H 419.811 -7.92411 -1.58464 0
M  V30 4393 H 423.397 -5.55232 -1.73808 0
M  V30 4394 H 422.277 -7.72034 -1.37596 0
M  V30 4395 N 419.78 1.02168 -1.19998 0
M  V30 4396 C 420.713 2.10232 -0.887558 0
M  V30 4397 C 421.691 1.61827 0.158317 0
M  V30 4398 O 422.875 1.88471 0.0330249 0
M  V30 4399 C 420.002 3.37092 -0.32964 0
M  V30 4400 C 419.048 4.0438 -1.3557 0
M  V30 4401 S 419.881 4.48956 -2.91888 0
M  V30 4402 C 421.037 5.79024 -2.37658 0
M  V30 4403 H 421.27 2.36409 -1.80272 0
M  V30 4404 H 418.803 1.15211 -1.0279 0
M  V30 4405 H 420.761 4.10498 -0.0142824 0
M  V30 4406 H 419.422 3.08996 0.563941 0
M  V30 4407 H 418.615 4.95632 -0.9146 0
M  V30 4408 H 418.217 3.37176 -1.61828 0
M  V30 4409 H 420.509 6.53942 -1.77103 0
M  V30 4410 H 421.452 6.27924 -3.27287 0
M  V30 4411 H 421.86 5.35043 -1.79971 0
M  V30 4412 N 421.258 1.00505 1.21394 0
M  V30 4413 C 422.669 0.721082 1.72213 0
M  V30 4414 C 423.02 -0.761263 1.80829 0
M  V30 4415 O 422.145 -1.59464 1.46288 0
M  V30 4416 C 422.74 1.30228 3.12772 0
M  V30 4417 C 421.299 1.06743 3.60947 0
M  V30 4418 C 420.446 1.41507 2.38477 0
M  V30 4419 H 423.397 1.17594 1.06571 0
M  V30 4420 H 423.418 0.686955 3.74247 0
M  V30 4421 H 422.93 2.38115 3.06468 0
M  V30 4422 H 421.031 0.00572162 3.726 0
M  V30 4423 H 421.144 1.73936 4.46411 0
M  V30 4424 H 419.508 0.833852 2.40664 0
M  V30 4425 H 420.291 2.50424 2.34824 0
M  V30 4426 N 422.737 -1.36956 0.779787 0
M  V30 4427 C 423.984 -1.99491 0.347766 0
M  V30 4428 C 424.312 -1.61898 -1.07793 0
M  V30 4429 O 423.567 -0.86071 -1.75756 0
M  V30 4430 C 423.866 -3.54585 0.447686 0
M  V30 4431 C 423.532 -4.1197 1.83279 0
M  V30 4432 C 422.194 -4.27356 2.2118 0
M  V30 4433 C 424.546 -4.43354 2.74019 0
M  V30 4434 C 421.874 -4.71432 3.4924 0
M  V30 4435 C 424.226 -4.88858 4.01497 0
M  V30 4436 C 422.89 -5.0245 4.39432 0
M  V30 4437 H 422.16 -0.729991 0.127257 0
M  V30 4438 H 424.807 -1.63599 0.995376 0
M  V30 4439 H 423.112 -3.90773 -0.283447 0
M  V30 4440 H 424.809 -4.00888 0.0945948 0
M  V30 4441 H 421.399 -4.00428 1.52825 0
M  V30 4442 H 425.583 -4.31045 2.45995 0
M  V30 4443 H 420.839 -4.80141 3.78516 0
M  V30 4444 H 425.013 -5.12108 4.71931 0
M  V30 4445 H 422.64 -5.36362 5.38721 0
M  V30 4446 N 424.215 -0.530993 -1.48385 0
M  V30 4447 C 425.445 -0.00133928 -2.066 0
M  V30 4448 C 425.853 1.28599 -1.38777 0
M  V30 4449 O 425.196 1.77599 -0.469495 0
M  V30 4450 C 425.258 0.292137 -3.58311 0
M  V30 4451 C 424.922 -0.901864 -4.48013 0
M  V30 4452 C 425.919 -1.80053 -4.87726 0
M  V30 4453 C 423.604 -1.10915 -4.89901 0
M  V30 4454 C 425.598 -2.89038 -5.68098 0
M  V30 4455 C 423.285 -2.20213 -5.70043 0
M  V30 4456 C 424.283 -3.09107 -6.0905 0
M  V30 4457 O 423.971 -4.16514 -6.87583 0
M  V30 4458 H 423.703 -0.0308475 -0.675296 0
M  V30 4459 H 426.257 -0.736335 -1.91748 0
M  V30 4460 H 424.487 1.08112 -3.7128 0
M  V30 4461 H 426.176 0.763994 -3.98645 0
M  V30 4462 H 426.942 -1.65234 -4.55986 0
M  V30 4463 H 422.821 -0.426498 -4.59023 0
M  V30 4464 H 426.365 -3.58451 -5.98464 0
M  V30 4465 H 422.262 -2.35016 -6.01197 0
M  V30 4466 H 423.03 -4.14237 -7.05939 0
M  V30 4467 N 425.693 1.55336 -0.266172 0
M  V30 4468 C 426.939 1.99692 0.353681 0
M  V30 4469 C 427.272 1.1543 1.56172 0
M  V30 4470 O 426.547 0.222218 1.93226 0
M  V30 4471 C 426.83 3.52316 0.74466 0
M  V30 4472 C 426.683 4.47337 -0.470101 0
M  V30 4473 C 428.002 4.10588 1.58447 0
M  V30 4474 H 425.121 0.725961 0.12708 0
M  V30 4475 H 427.763 1.86336 -0.371333 0
M  V30 4476 H 425.913 3.63829 1.36239 0
M  V30 4477 H 427.585 4.4778 -1.10864 0
M  V30 4478 H 425.828 4.19364 -1.10978 0
M  V30 4479 H 426.499 5.51788 -0.15291 0
M  V30 4480 H 428.975 4.02297 1.06286 0
M  V30 4481 H 427.851 5.17607 1.82686 0
M  V30 4482 H 428.112 3.60253 2.56262 0
M  V30 4483 N 427.171 -0.0066808 1.57599 0
M  V30 4484 C 428.417 -0.693947 1.90558 0
M  V30 4485 C 428.75 -1.73792 0.866594 0
M  V30 4486 O 428.025 -1.94156 -0.115548 0
M  V30 4487 C 428.308 -1.34317 3.34112 0
M  V30 4488 C 428.161 -0.311189 4.48722 0
M  V30 4489 C 429.48 -2.27116 3.7697 0
M  V30 4490 H 426.599 -0.250803 0.693013 0
M  V30 4491 H 429.241 0.043242 1.89951 0
M  V30 4492 H 427.391 -1.9715 3.3476 0
M  V30 4493 H 429.063 0.316944 4.6021 0
M  V30 4494 H 427.306 0.367253 4.32243 0
M  V30 4495 H 427.977 -0.804366 5.46108 0
M  V30 4496 H 430.453 -1.74306 3.77831 0
M  V30 4497 H 429.329 -2.69511 4.78179 0
M  V30 4498 H 429.59 -3.14743 3.10466 0
M  V30 4499 N 428.649 -1.55105 -0.279332 0
M  V30 4500 C 429.581 -1.83952 -1.36727 0
M  V30 4501 C 430.594 -0.723642 -1.45833 0
M  V30 4502 O 431.783 -1.00141 -1.47763 0
M  V30 4503 C 428.883 -1.98183 -2.74912 0
M  V30 4504 C 428.056 -3.28787 -2.88475 0
M  V30 4505 C 427.115 -3.33162 -4.07295 0
M  V30 4506 O 426.141 -4.06576 -3.98353 0
M  V30 4507 N 427.343 -2.60109 -5.18964 0
M  V30 4508 H 430.108 -2.77853 -1.12328 0
M  V30 4509 H 427.669 -1.54945 -0.469442 0
M  V30 4510 H 429.661 -1.98488 -3.52682 0
M  V30 4511 H 428.231 -1.11177 -2.92162 0
M  V30 4512 H 427.451 -3.41075 -1.97641 0
M  V30 4513 H 428.739 -4.14933 -2.94463 0
M  V30 4514 H 428.137 -2.00136 -5.29115 0
M  V30 4515 H 426.694 -2.66143 -5.94988 0
M  V30 4516 N 430.127 0.543554 -1.4793 0
M  V30 4517 C 431.057 1.65888 -1.64327 0
M  V30 4518 C 432.038 1.62818 -0.492383 0
M  V30 4519 O 433.223 1.80226 -0.723338 0
M  V30 4520 C 430.353 3.04506 -1.67013 0
M  V30 4521 C 429.307 3.2243 -2.81466 0
M  V30 4522 C 428.633 4.61972 -2.69233 0
M  V30 4523 C 429.933 3.06496 -4.22915 0
M  V30 4524 H 431.627 1.52421 -2.57698 0
M  V30 4525 H 429.173 0.731849 -1.24016 0
M  V30 4526 H 431.126 3.82391 -1.77074 0
M  V30 4527 H 429.85 3.18964 -0.70212 0
M  V30 4528 H 428.509 2.46957 -2.70938 0
M  V30 4529 H 428.157 4.73247 -1.7043 0
M  V30 4530 H 427.857 4.74911 -3.46025 0
M  V30 4531 H 429.381 5.41974 -2.81242 0
M  V30 4532 H 430.795 3.74186 -4.34348 0
M  V30 4533 H 429.192 3.30938 -5.006 0
M  V30 4534 H 430.262 2.03077 -4.40327 0
M  V30 4535 N 431.605 1.3629 0.791371 0
M  V30 4536 C 432.851 1.30605 1.55146 0
M  V30 4537 C 433.184 -0.115042 1.93859 0
M  V30 4538 O 432.459 -1.06798 1.62556 0
M  V30 4539 C 432.742 2.22692 2.82985 0
M  V30 4540 C 432.595 3.73489 2.50651 0
M  V30 4541 C 433.914 2.13588 3.84796 0
M  V30 4542 H 431.033 0.475761 0.562868 0
M  V30 4543 H 433.675 1.66825 0.909358 0
M  V30 4544 H 431.825 1.91933 3.37778 0
M  V30 4545 H 433.497 4.14758 2.01924 0
M  V30 4546 H 431.74 3.93021 1.83622 0
M  V30 4547 H 432.411 4.3333 3.41949 0
M  V30 4548 H 434.887 2.40659 3.39445 0
M  V30 4549 H 433.763 2.80195 4.71998 0
M  V30 4550 H 434.024 1.12256 4.27611 0
M  V30 4551 N 433.083 -1.0153 1.20538 0
M  V30 4552 C 434.031 -2.12215 0.952235 0
M  V30 4553 C 435.025 -1.69123 -0.0968735 0
M  V30 4554 O 436.231 -1.7992 0.0536006 0
M  V30 4555 H 432.606 -0.693576 0.290613 0
M  V30 4556 H 434.577 -2.3075 1.89201 0
M  V30 4557 C 433.326 -3.43755 0.522287 0
M  V30 4558 H 432.649 -3.7734 1.32115 0
M  V30 4559 H 434.089 -4.22254 0.384389 0
M  V30 4560 C 432.548 -3.28088 -0.765489 0
M  V30 4561 O 433.078 -3.57921 -1.8236 0
M  V30 4562 N 431.284 -2.81333 -0.728011 0
M  V30 4563 H 430.831 -2.57255 0.133332 0
M  V30 4564 H 430.789 -2.71232 -1.58999 0
M  V30 4565 N 434.561 -1.01147 -1.20859 0
M  V30 4566 C 435.807 -0.698899 -1.90377 0
M  V30 4567 C 436.14 0.76904 -1.78324 0
M  V30 4568 O 435.415 1.55817 -1.16409 0
M  V30 4569 C 435.698 -1.12878 -3.41951 0
M  V30 4570 C 435.551 -2.65665 -3.62963 0
M  V30 4571 C 436.87 -0.696114 -4.3456 0
M  V30 4572 H 433.989 -0.255372 -0.691342 0
M  V30 4573 H 436.631 -1.25831 -1.42361 0
M  V30 4574 H 434.781 -0.652827 -3.82976 0
M  V30 4575 H 436.453 -3.21074 -3.31224 0
M  V30 4576 H 434.696 -3.06878 -3.06608 0
M  V30 4577 H 435.367 -2.90797 -4.69192 0
M  V30 4578 H 437.843 -1.10521 -4.01154 0
M  V30 4579 H 436.719 -1.025 -5.39245 0
M  V30 4580 H 436.98 0.402465 -4.40264 0
M  V30 4581 N 436.039 1.36541 -0.78704 0
M  V30 4582 C 437.286 1.99304 -0.358341 0
M  V30 4583 C 437.614 1.62467 1.06933 0
M  V30 4584 O 436.869 0.870019 1.75297 0
M  V30 4585 C 437.168 3.54343 -0.466485 0
M  V30 4586 C 436.834 4.10993 -1.85461 0
M  V30 4587 C 435.496 4.26177 -2.23443 0
M  V30 4588 C 437.848 4.41895 -2.76366 0
M  V30 4589 C 435.176 4.69573 -3.51736 0
M  V30 4590 C 437.528 4.86722 -4.04084 0
M  V30 4591 C 436.192 5.00112 -4.42091 0
M  V30 4592 H 435.462 0.729306 -0.131126 0
M  V30 4593 H 438.109 1.63068 -1.00404 0
M  V30 4594 H 436.414 3.90918 0.262719 0
M  V30 4595 H 438.111 4.00833 -0.115854 0
M  V30 4596 H 434.701 3.99612 -1.54946 0
M  V30 4597 H 438.885 4.29735 -2.48277 0
M  V30 4598 H 434.141 4.78127 -3.81057 0
M  V30 4599 H 438.315 5.09598 -4.7464 0
M  V30 4600 H 435.942 5.33498 -5.41557 0
M  V30 4601 N 437.518 0.538854 1.48102 0
M  V30 4602 C 438.481 -0.208395 2.28251 0
M  V30 4603 C 439.481 -0.859656 1.35892 0
M  V30 4604 O 440.671 -0.71834 1.58699 0
M  V30 4605 C 437.803 -1.30252 3.15035 0
M  V30 4606 H 438.996 0.495407 2.9578 0
M  V30 4607 H 436.549 0.295112 1.53489 0
M  V30 4608 H 437.284 -2.0393 2.52157 0
M  V30 4609 H 437.069 -0.840551 3.82985 0
M  V30 4610 H 438.559 -1.82787 3.75471 0
M  V30 4611 N 438.996 -1.55193 0.274407 0
M  V30 4612 C 439.906 -2.26164 -0.623473 0
M  V30 4613 C 440.922 -1.28729 -1.17068 0
M  V30 4614 O 442.098 -1.61663 -1.20112 0
M  V30 4615 C 439.163 -2.96833 -1.7914 0
M  V30 4616 C 438.224 -4.09745 -1.28093 0
M  V30 4617 C 437.457 -4.77034 -2.3932 0
M  V30 4618 O 437.68 -4.4353 -3.5866 0
M  V30 4619 O 436.614 -5.64996 -2.07516 0
M  V30 4620 H 440.44 -3.03661 -0.0485661 0
M  V30 4621 H 438.025 -1.49341 0.0418382 0
M  V30 4622 H 439.907 -3.41248 -2.4724 0
M  V30 4623 H 438.582 -2.22253 -2.35341 0
M  V30 4624 H 437.489 -3.69787 -0.566416 0
M  V30 4625 H 438.822 -4.86224 -0.764683 0
M  V30 4626 N 440.474 -0.00167713 -1.576 0
M  V30 4627 C 441.406 1.0174 -2.05382 0
M  V30 4628 C 442.419 1.30595 -0.972052 0
M  V30 4629 O 443.608 1.27542 -1.24882 0
M  V30 4630 C 440.708 2.35174 -2.44022 0
M  V30 4631 C 439.881 2.25234 -3.74951 0
M  V30 4632 C 438.94 3.4137 -4.00441 0
M  V30 4633 O 437.966 3.19483 -4.71083 0
M  V30 4634 N 439.168 4.64275 -3.48467 0
M  V30 4635 H 441.933 0.609902 -2.93428 0
M  V30 4636 H 439.494 0.185672 -1.60832 0
M  V30 4637 H 441.486 3.11643 -2.58187 0
M  V30 4638 H 440.056 2.67659 -1.61485 0
M  V30 4639 H 439.276 1.33664 -3.70847 0
M  V30 4640 H 440.564 2.15767 -4.60784 0
M  V30 4641 H 439.962 4.84955 -2.91264 0
M  V30 4642 H 438.519 5.38005 -3.67959 0
M  V30 4643 N 441.952 1.55251 0.271103 0
M  V30 4644 C 443.229 1.66664 1.02384 0
M  V30 4645 C 443.609 0.534363 2.04225 0
M  V30 4646 O 442.957 -0.465337 2.23712 0
M  V30 4647 C 443.167 3.05961 1.67895 0
M  V30 4648 C 444.515 3.63772 2.18986 0
M  V30 4649 O 445.539 3.08606 1.77878 0
M  V30 4650 O 444.398 4.60429 2.94393 0
M  V30 4651 H 441.492 0.676957 0.475035 0
M  V30 4652 H 444.038 1.67589 0.26681 0
M  V30 4653 H 442.81 3.79815 0.941071 0
M  V30 4654 H 442.433 3.08943 2.5028 0
M  V30 4655 N 443.43 -0.535701 1.48216 0
M  V30 4656 C 444.707 -1.29683 1.46429 0
M  V30 4657 C 445.087 -2.10391 0.172852 0
M  V30 4658 O 444.435 -2.12282 -0.845488 0
M  V30 4659 C 444.645 -2.18313 2.72287 0
M  V30 4660 C 445.993 -2.78639 3.20383 0
M  V30 4661 O 447.017 -2.28604 2.73164 0
M  V30 4662 O 445.876 -3.69636 4.02531 0
M  V30 4663 H 442.97 -0.585026 0.584529 0
M  V30 4664 H 445.516 -0.552827 1.60443 0
M  V30 4665 H 444.288 -1.58421 3.57797 0
M  V30 4666 H 443.911 -2.99971 2.60966 0
M  V30 4667 N 444.908 -1.36708 -0.784132 0
M  V30 4668 C 445.871 -1.31307 -1.87859 0
M  V30 4669 C 446.871 -0.219654 -1.59293 0
M  V30 4670 O 448.061 -0.47476 -1.67606 0
M  V30 4671 C 445.193 -1.03679 -3.24751 0
M  V30 4672 H 446.386 -2.28647 -1.94064 0
M  V30 4673 H 443.939 -1.21558 -0.98252 0
M  V30 4674 H 444.674 -0.0681936 -3.24228 0
M  V30 4675 H 444.459 -1.82811 -3.46876 0
M  V30 4676 H 445.949 -1.02518 -4.04821 0
M  V30 4677 N 446.386 1.0089 -1.21074 0
M  V30 4678 C 447.614 1.78191 -1.05145 0
M  V30 4679 C 448.029 1.84537 0.398952 0
M  V30 4680 O 447.386 1.30393 1.27687 0
M  V30 4681 C 447.437 3.22288 -1.63746 0
M  V30 4682 O 447.158 3.16315 -3.03111 0
M  V30 4683 C 448.659 4.16106 -1.52875 0
M  V30 4684 H 445.879 0.560129 -0.369454 0
M  V30 4685 H 448.423 1.26945 -1.60328 0
M  V30 4686 H 446.578 3.70655 -1.12664 0
M  V30 4687 H 446.992 4.06817 -3.31059 0
M  V30 4688 H 448.466 5.15026 -1.98626 0
M  V30 4689 H 448.943 4.36541 -0.482521 0
M  V30 4690 H 449.549 3.73625 -2.03185 0
M  V30 4691 N 447.864 1.01787 1.20321 0
M  V30 4692 C 449.11 0.708985 1.90003 0
M  V30 4693 C 449.443 -0.759572 1.78729 0
M  V30 4694 O 448.718 -1.55198 1.17234 0
M  V30 4695 C 449.001 1.1469 3.41348 0
M  V30 4696 C 448.854 2.67586 3.61549 0
M  V30 4697 C 450.173 0.71915 4.34185 0
M  V30 4698 H 447.292 0.259034 0.689978 0
M  V30 4699 H 449.934 1.26584 1.41692 0
M  V30 4700 H 448.084 0.673128 3.82624 0
M  V30 4701 H 449.756 3.22826 3.29517 0
M  V30 4702 H 447.999 3.085 3.04976 0
M  V30 4703 H 448.67 2.93281 4.67643 0
M  V30 4704 H 451.146 1.12647 4.00562 0
M  V30 4705 H 450.022 1.05358 5.38694 0
M  V30 4706 H 450.283 -0.379111 4.40472 0
M  V30 4707 N 449.342 -1.36122 0.79427 0
M  V30 4708 C 450.567 -2.03891 0.379871 0
M  V30 4709 C 450.992 -1.59488 -0.997251 0
M  V30 4710 O 450.35 -0.765652 -1.64339 0
M  V30 4711 C 450.398 -3.57687 0.457442 0
M  V30 4712 O 449.502 -4.08931 -0.5338 0
M  V30 4713 H 448.843 -0.6443 0.160541 0
M  V30 4714 H 451.373 -1.73976 1.07673 0
M  V30 4715 H 451.383 -4.06721 0.322792 0
M  V30 4716 H 450.058 -3.89357 1.46199 0
M  V30 4717 H 448.635 -3.71154 -0.360409 0
M  V30 4718 N 450.82 -0.546701 -1.47814 0
M  V30 4719 C 451.752 0.244196 -2.27895 0
M  V30 4720 C 452.765 0.88911 -1.36377 0
M  V30 4721 O 453.954 0.764733 -1.61289 0
M  V30 4722 C 451.054 1.36252 -3.10304 0
M  V30 4723 C 450.227 0.816382 -4.29714 0
M  V30 4724 C 449.286 1.81789 -4.93801 0
M  V30 4725 O 448.312 1.36818 -5.52512 0
M  V30 4726 N 449.514 3.15085 -4.87547 0
M  V30 4727 H 452.279 -0.442694 -2.96412 0
M  V30 4728 H 449.84 -0.382095 -1.57327 0
M  V30 4729 H 451.832 2.03102 -3.50045 0
M  V30 4730 H 450.402 1.95281 -2.44099 0
M  V30 4731 H 449.622 -0.0285981 -3.9419 0
M  V30 4732 H 450.91 0.430668 -5.06974 0
M  V30 4733 H 450.308 3.54275 -4.41028 0
M  V30 4734 H 448.865 3.77522 -5.31339 0
M  V30 4735 N 452.299 1.55045 -0.282633 0
M  V30 4736 C 453.229 2.2579 0.595066 0
M  V30 4737 C 454.21 1.25074 1.15284 0
M  V30 4738 O 455.395 1.5381 1.18559 0
M  V30 4739 C 452.525 2.98472 1.77572 0
M  V30 4740 C 451.479 4.0618 1.34914 0
M  V30 4741 C 450.805 4.66477 2.6135 0
M  V30 4742 C 452.105 5.1996 0.493821 0
M  V30 4743 H 453.799 2.994 0.00505653 0
M  V30 4744 H 451.345 1.44 0.000992001 0
M  V30 4745 H 453.298 3.46677 2.39568 0
M  V30 4746 H 452.022 2.2241 2.39168 0
M  V30 4747 H 450.681 3.58797 0.752338 0
M  V30 4748 H 450.329 3.87074 3.2122 0
M  V30 4749 H 450.029 5.39207 2.33516 0
M  V30 4750 H 451.553 5.17435 3.24181 0
M  V30 4751 H 452.967 5.64172 1.01898 0
M  V30 4752 H 451.364 5.99299 0.310047 0
M  V30 4753 H 452.434 4.82462 -0.485593 0
M  V30 4754 N 453.777 0.010035 1.57597 0
M  V30 4755 C 455.002 -0.687021 1.95691 0
M  V30 4756 C 455.427 -1.65952 0.885519 0
M  V30 4757 O 454.785 -1.80633 -0.15543 0
M  V30 4758 C 454.833 -1.3864 3.32884 0
M  V30 4759 O 453.937 -2.50115 3.27897 0
M  V30 4760 H 453.278 -0.181989 0.638573 0
M  V30 4761 H 455.808 0.0662122 2.04493 0
M  V30 4762 H 455.818 -1.74754 3.6868 0
M  V30 4763 H 454.493 -0.673411 4.10412 0
M  V30 4764 H 453.07 -2.16253 3.03791 0
M  V30 4765 N 455.255 -1.55392 -0.262866 0
M  V30 4766 C 456.501 -1.76737 -0.99458 0
M  V30 4767 C 456.834 -0.572453 -1.85571 0
M  V30 4768 O 456.109 0.429732 -1.89693 0
M  V30 4769 C 456.392 -3.07824 -1.8686 0
M  V30 4770 C 456.245 -4.3769 -1.03672 0
M  V30 4771 C 457.564 -3.35021 -2.85393 0
M  V30 4772 H 454.683 -0.643005 -0.360157 0
M  V30 4773 H 457.325 -1.88126 -0.266216 0
M  V30 4774 H 455.475 -2.98245 -2.48962 0
M  V30 4775 H 457.147 -4.59238 -0.43563 0
M  V30 4776 H 455.39 -4.32461 -0.340513 0
M  V30 4777 H 456.061 -5.25759 -1.6817 0
M  V30 4778 H 458.537 -3.44458 -2.33426 0
M  V30 4779 H 457.413 -4.27989 -3.43681 0
M  V30 4780 H 457.674 -2.55153 -3.61039 0
M  V30 4781 N 456.733 0.527833 -1.48498 0
M  V30 4782 C 457.982 1.28003 -1.55878 0
M  V30 4783 C 458.295 1.9414 -0.238577 0
M  V30 4784 O 459.501 2.7083 -0.190643 0
M  V30 4785 C 457.957 2.32272 -2.74914 0
M  V30 4786 C 457.565 1.72196 -4.13585 0
M  V30 4787 C 459.309 3.08488 -2.91608 0
M  V30 4788 C 457.216 2.74417 -5.23879 0
M  V30 4789 H 456.146 0.481413 -0.580308 0
M  V30 4790 H 458.797 0.557195 -1.74836 0
M  V30 4791 H 457.179 3.07601 -2.49395 0
M  V30 4792 H 458.353 1.03041 -4.49132 0
M  V30 4793 H 456.668 1.08464 -4.02025 0
M  V30 4794 H 459.265 3.84879 -3.71177 0
M  V30 4795 H 459.608 3.64481 -2.01145 0
M  V30 4796 H 460.141 2.40274 -3.17038 0
M  V30 4797 H 456.88 2.23242 -6.16314 0
M  V30 4798 H 456.4 3.41893 -4.92818 0
M  V30 4799 H 458.079 3.37362 -5.52083 0
M  V30 4800 N 458.211 1.37122 0.776871 0
M  V30 4801 C 459.141 1.35164 1.90402 0
M  V30 4802 C 460.122 0.221069 1.68657 0
M  V30 4803 O 461.307 0.420642 1.8959 0
M  V30 4804 C 458.437 1.15274 3.27611 0
M  V30 4805 C 457.391 2.25289 3.63908 0
M  V30 4806 C 456.717 1.90527 4.99603 0
M  V30 4807 C 458.017 3.67446 3.71188 0
M  V30 4808 H 459.711 2.29482 1.92297 0
M  V30 4809 H 457.257 1.10465 0.923773 0
M  V30 4810 H 459.21 1.12536 4.06096 0
M  V30 4811 H 457.934 0.174102 3.26136 0
M  V30 4812 H 456.593 2.27174 2.87728 0
M  V30 4813 H 456.241 0.91206 4.94662 0
M  V30 4814 H 455.941 2.64193 5.24858 0
M  V30 4815 H 457.465 1.89367 5.80493 0
M  V30 4816 H 458.879 3.67719 4.39836 0
M  V30 4817 H 457.276 4.40123 4.07936 0
M  V30 4818 H 458.346 4.01443 2.71977 0
M  V30 4819 N 459.689 -1.00246 1.21608 0
M  V30 4820 C 460.937 -1.73717 1.0328 0
M  V30 4821 C 461.258 -1.90102 -0.434318 0
M  V30 4822 O 460.528 -1.45376 -1.31311 0
M  V30 4823 H 459.108 -0.643613 0.379172 0
M  V30 4824 H 461.77 -1.20787 1.52959 0
M  V30 4825 H 460.866 -2.73535 1.50283 0
M  V30 4826 N 461.167 -1.02423 -1.1978 0
M  V30 4827 C 462.397 -0.736387 -1.93031 0
M  V30 4828 C 462.805 0.708023 -1.75453 0
M  V30 4829 O 462.148 1.4927 -1.07071 0
M  V30 4830 C 462.21 -1.00194 -3.45255 0
M  V30 4831 C 461.874 -2.43698 -3.86601 0
M  V30 4832 C 462.871 -3.41814 -3.91738 0
M  V30 4833 C 460.556 -2.77975 -4.18372 0
M  V30 4834 C 462.55 -4.72265 -4.28071 0
M  V30 4835 C 460.237 -4.08636 -4.54378 0
M  V30 4836 C 461.235 -5.05592 -4.59201 0
M  V30 4837 O 460.923 -6.33914 -4.94376 0
M  V30 4838 H 460.655 -0.269116 -0.620123 0
M  V30 4839 H 463.209 -1.37043 -1.52998 0
M  V30 4840 H 461.439 -0.310747 -3.85449 0
M  V30 4841 H 463.128 -0.704488 -3.9974 0
M  V30 4842 H 463.894 -3.16671 -3.67348 0
M  V30 4843 H 459.773 -2.0319 -4.13805 0
M  V30 4844 H 463.317 -5.4794 -4.3175 0
M  V30 4845 H 459.214 -4.33556 -4.78226 0
M  V30 4846 H 459.982 -6.38317 -5.12341 0
M  V30 4847 N 462.645 1.35699 -0.801477 0
M  V30 4848 C 463.608 2.28199 -0.213994 0
M  V30 4849 C 464.608 1.49359 0.595691 0
M  V30 4850 O 465.798 1.69186 0.414921 0
M  V30 4851 C 462.93 3.33587 0.702297 0
M  V30 4852 H 464.123 2.81666 -1.02976 0
M  V30 4853 H 461.676 1.45467 -0.571759 0
M  V30 4854 H 462.411 2.85297 1.54195 0
M  V30 4855 H 462.196 3.91906 0.123484 0
M  V30 4856 H 463.686 4.02638 1.10783 0
M  V30 4857 N 464.123 0.554532 1.47522 0
M  V30 4858 C 465.071 -0.207765 2.3167 0
M  V30 4859 C 466.065 -0.911914 1.4276 0
M  V30 4860 O 467.271 -0.833504 1.59539 0
M  V30 4861 H 463.646 -0.0858726 0.747081 0
M  V30 4862 H 465.617 0.521178 2.93813 0
M  V30 4863 C 464.366 -1.2263 3.25357 0
M  V30 4864 H 463.689 -0.693887 3.93732 0
M  V30 4865 H 465.129 -1.73062 3.87073 0
M  V30 4866 C 463.588 -2.27278 2.4869 0
M  V30 4867 O 464.118 -3.34156 2.22941 0
M  V30 4868 N 462.324 -2.01134 2.09746 0
M  V30 4869 H 461.871 -1.14232 2.30887 0
M  V30 4870 H 461.829 -2.71369 1.58765 0
M  V30 4871 N 465.601 -1.54893 0.290851 0
M  V30 4872 C 466.826 -2.04804 -0.32712 0
M  V30 4873 C 467.251 -1.16721 -1.47506 0
M  V30 4874 O 466.609 -0.169107 -1.8051 0
M  V30 4875 C 466.657 -3.52268 -0.770689 0
M  V30 4876 O 465.761 -3.67236 -1.87647 0
M  V30 4877 H 465.102 -0.660789 -0.0652227 0
M  V30 4878 H 467.632 -2.00036 0.429739 0
M  V30 4879 H 467.642 -3.9393 -1.06223 0
M  V30 4880 H 466.317 -4.15843 0.069096 0
M  V30 4881 H 464.894 -3.37479 -1.58626 0
M  V30 4882 N 467.08 -0.0183926 -1.57589 0
M  V30 4883 C 468.32 0.666846 -1.93216 0
M  V30 4884 C 468.684 1.69905 -0.894215 0
M  V30 4885 O 469.885 2.436 -1.13633 0
M  V30 4886 C 468.156 1.27684 -3.33814 0
M  V30 4887 S 469.715 1.98464 -3.91353 0
M  V30 4888 H 466.533 0.219826 -0.676164 0
M  V30 4889 H 469.135 -0.0794893 -1.95338 0
M  V30 4890 H 467.839 0.513006 -4.07181 0
M  V30 4891 H 467.37 2.06071 -3.3511 0
M  V30 4892 H 469.385 3.26189 -3.73918 0
M  V30 4893 N 468.558 1.5553 0.254621 0
M  V30 4894 C 469.521 1.88872 1.29846 0
M  V30 4895 C 470.521 0.764591 1.41459 0
M  V30 4896 O 471.711 1.03265 1.40293 0
M  V30 4897 C 468.843 2.11032 2.67728 0
M  V30 4898 H 470.036 2.82201 1.01502 0
M  V30 4899 H 467.589 1.48303 0.493556 0
M  V30 4900 H 468.324 1.20146 3.01223 0
M  V30 4901 H 468.109 2.92895 2.60682 0
M  V30 4902 H 469.599 2.38038 3.43115 0
M  V30 4903 N 470.036 -0.519951 1.48776 0
M  V30 4904 C 470.984 -1.64443 1.64503 0
M  V30 4905 C 471.978 -1.61501 0.511248 0
M  V30 4906 O 473.184 -1.66238 0.690294 0
M  V30 4907 H 469.559 -0.544776 0.518385 0
M  V30 4908 H 471.53 -1.48325 2.58925 0
M  V30 4909 C 470.279 -3.02673 1.71127 0
M  V30 4910 H 469.602 -3.05635 2.57735 0
M  V30 4911 H 471.042 -3.80941 1.86172 0
M  V30 4912 C 469.501 -3.33854 0.452032 0
M  V30 4913 O 470.031 -3.99385 -0.430678 0
M  V30 4914 N 468.237 -2.88825 0.32069 0
M  V30 4915 H 467.784 -2.35674 1.03998 0
M  V30 4916 H 467.742 -3.10056 -0.520814 0
M  V30 4917 N 471.514 -1.37532 -0.769588 0
M  V30 4918 C 472.925 -1.29382 -1.346 0
M  V30 4919 C 473.276 0.0576039 -1.96115 0
M  V30 4920 O 472.401 0.95947 -1.93967 0
M  V30 4921 C 472.996 -2.34298 -2.44724 0
M  V30 4922 C 471.555 -2.29776 -2.98128 0
M  V30 4923 C 470.702 -2.18013 -1.71364 0
M  V30 4924 H 473.653 -1.48123 -0.56968 0
M  V30 4925 H 473.674 -1.99089 -3.24259 0
M  V30 4926 H 473.186 -3.32645 -1.99922 0
M  V30 4927 H 471.287 -1.34959 -3.47299 0
M  V30 4928 H 471.4 -3.23276 -3.53595 0
M  V30 4929 H 469.764 -1.64595 -1.94372 0
M  V30 4930 H 470.547 -3.18278 -1.28662 0
M  V30 4931 N 472.992 0.995999 -1.22138 0
M  V30 4932 C 474.241 1.72928 -1.03821 0
M  V30 4933 C 474.554 1.90872 0.427444 0
M  V30 4934 O 475.76 2.61496 0.730212 0
M  V30 4935 C 474.216 3.11124 -1.80913 0
M  V30 4936 C 473.824 3.01122 -3.31707 0
M  V30 4937 C 475.568 3.8852 -1.71035 0
M  V30 4938 C 473.475 4.34453 -4.01253 0
M  V30 4939 H 472.405 0.648376 -0.384869 0
M  V30 4940 H 475.056 1.11213 -1.45959 0
M  V30 4941 H 473.438 3.73503 -1.31573 0
M  V30 4942 H 474.612 2.47926 -3.88419 0
M  V30 4943 H 472.927 2.3721 -3.42228 0
M  V30 4944 H 475.524 4.872 -2.20318 0
M  V30 4945 H 475.867 4.1087 -0.670196 0
M  V30 4946 H 476.4 3.32812 -2.17902 0
M  V30 4947 H 473.139 4.17303 -5.05508 0
M  V30 4948 H 472.659 4.87574 -3.49331 0
M  V30 4949 H 474.338 5.03215 -4.06674 0
M  V30 4950 N 474.47 1.03057 1.19235 0
M  V30 4951 C 475.4 0.633497 2.24742 0
M  V30 4952 C 476.381 -0.358335 1.66283 0
M  V30 4953 O 477.566 -0.240676 1.92703 0
M  V30 4954 C 474.696 -0.0147648 3.47297 0
M  V30 4955 C 473.65 0.899527 4.18441 0
M  V30 4956 C 472.976 0.116281 5.34574 0
M  V30 4957 C 474.276 2.21404 4.73051 0
M  V30 4958 H 475.97 1.5155 2.58211 0
M  V30 4959 H 473.516 0.73014 1.24117 0
M  V30 4960 H 475.469 -0.304202 4.20301 0
M  V30 4961 H 474.193 -0.931577 3.13032 0
M  V30 4962 H 472.852 1.17319 3.47321 0
M  V30 4963 H 472.5 -0.802619 4.96555 0
M  V30 4964 H 472.2 0.725293 5.83107 0
M  V30 4965 H 473.724 -0.166376 6.10373 0
M  V30 4966 H 475.138 1.98601 5.37802 0
M  V30 4967 H 473.535 2.77512 5.32078 0
M  V30 4968 H 474.605 2.86752 3.91026 0
M  V30 4969 N 475.948 -1.35272 0.808662 0
M  V30 4970 C 477.178 -2.02652 0.401953 0
M  V30 4971 C 477.586 -1.6108 -0.992462 0
M  V30 4972 O 476.929 -0.804984 -1.65123 0
M  V30 4973 C 476.991 -3.57174 0.408246 0
M  V30 4974 C 476.655 -4.22019 1.75353 0
M  V30 4975 C 477.652 -4.43552 2.71215 0
M  V30 4976 C 475.337 -4.59093 2.03811 0
M  V30 4977 C 477.331 -5.01264 3.93717 0
M  V30 4978 C 475.018 -5.16519 3.26576 0
M  V30 4979 C 476.016 -5.37546 4.21347 0
M  V30 4980 O 475.704 -5.93761 5.41944 0
M  V30 4981 H 475.436 -0.656495 0.161216 0
M  V30 4982 H 477.99 -1.73829 1.0942 0
M  V30 4983 H 476.22 -3.85197 -0.340608 0
M  V30 4984 H 477.909 -4.05893 0.0235623 0
M  V30 4985 H 478.675 -4.15288 2.50522 0
M  V30 4986 H 474.554 -4.42039 1.30854 0
M  V30 4987 H 478.098 -5.17592 4.67701 0
M  V30 4988 H 473.995 -5.4421 3.47139 0
M  V30 4989 H 474.763 -6.1221 5.43269 0
M  V30 4990 N 477.426 -0.562348 -1.47226 0
M  V30 4991 C 478.674 -0.0401371 -2.0206 0
M  V30 4992 C 478.995 1.3165 -1.43852 0
M  V30 4993 O 478.265 1.85976 -0.615599 0
M  V30 4994 H 476.845 -0.0118479 -0.746906 0
M  V30 4995 H 479.507 -0.73352 -1.8057 0
M  V30 4996 H 478.603 0.0441254 -3.12069 0
M  V30 4997 N 478.904 1.54736 -0.299062 0
M  V30 4998 C 480.151 2.00101 0.310784 0
M  V30 4999 C 480.479 1.18746 1.54045 0
M  V30 5000 O 479.734 0.251198 1.94081 0
M  V30 5001 C 480.033 3.50199 0.713835 0
M  V30 5002 C 479.699 4.48997 -0.413873 0
M  V30 5003 C 478.361 4.7573 -0.723462 0
M  V30 5004 C 480.713 5.07839 -1.17257 0
M  V30 5005 C 478.041 5.5857 -1.79491 0
M  V30 5006 C 480.393 5.91844 -2.23392 0
M  V30 5007 C 479.057 6.16889 -2.54959 0
M  V30 5008 H 478.327 0.732221 0.113724 0
M  V30 5009 H 480.974 1.86888 -0.417756 0
M  V30 5010 H 479.279 3.61012 1.52243 0
M  V30 5011 H 480.976 3.82723 1.19684 0
M  V30 5012 H 477.566 4.28292 -0.162476 0
M  V30 5013 H 481.75 4.87188 -0.946651 0
M  V30 5014 H 477.006 5.76213 -2.04423 0
M  V30 5015 H 481.18 6.36465 -2.8264 0
M  V30 5016 H 478.807 6.80869 -3.38114 0
M  V30 5017 N 480.382 0.0267497 1.57577 0
M  V30 5018 C 481.312 -0.954308 2.13108 0
M  V30 5019 C 482.293 -1.34088 1.04663 0
M  V30 5020 O 483.478 -1.41992 1.32484 0
M  V30 5021 C 480.608 -2.23744 2.65624 0
M  V30 5022 C 479.562 -1.99168 3.78835 0
M  V30 5023 C 478.888 -3.33726 4.17769 0
M  V30 5024 C 480.188 -1.33277 5.0501 0
M  V30 5025 H 481.882 -0.491848 2.95332 0
M  V30 5026 H 479.428 -0.23514 1.42067 0
M  V30 5027 H 481.381 -2.92754 3.03106 0
M  V30 5028 H 480.105 -2.72151 1.80558 0
M  V30 5029 H 478.764 -1.32577 3.41788 0
M  V30 5030 H 478.412 -3.79888 3.29688 0
M  V30 5031 H 478.112 -3.18089 4.94058 0
M  V30 5032 H 479.636 -4.04008 4.57832 0
M  V30 5033 H 481.05 -1.92283 5.40093 0
M  V30 5034 H 479.447 -1.28045 5.8628 0
M  V30 5035 H 480.517 -0.305411 4.83937 0
M  V30 5036 N 481.861 -1.55662 -0.24637 0
M  V30 5037 C 483.086 -1.81914 -0.996093 0
M  V30 5038 C 483.511 -0.603875 -1.78143 0
M  V30 5039 O 482.869 0.447091 -1.75701 0
M  V30 5040 C 482.917 -3.05908 -1.90925 0
M  V30 5041 O 482.021 -2.82861 -3.00105 0
M  V30 5042 H 481.362 -0.600481 -0.283406 0
M  V30 5043 H 483.892 -2.02848 -0.267199 0
M  V30 5044 H 483.902 -3.35356 -2.3238 0
M  V30 5045 H 482.577 -3.93999 -1.33183 0
M  V30 5046 H 481.154 -2.64583 -2.62775 0
M  V30 5047 N 483.339 0.512053 -1.4905 0
M  V30 5048 C 484.616 1.27337 -1.48474 0
M  V30 5049 C 484.996 2.1009 -0.206301 0
M  V30 5050 O 484.344 2.136 0.811609 0
M  V30 5051 C 484.554 2.13954 -2.75726 0
M  V30 5052 C 485.902 2.73507 -3.24776 0
M  V30 5053 O 486.926 2.24229 -2.76767 0
M  V30 5054 O 485.785 3.63186 -4.08361 0
M  V30 5055 H 482.879 0.575652 -0.593762 0
M  V30 5056 H 485.425 0.527232 -1.61302 0
M  V30 5057 H 484.197 1.52709 -3.60272 0
M  V30 5058 H 483.82 2.95782 -2.65705 0
M  V30 5059 N 484.817 1.37938 0.762283 0
M  V30 5060 C 485.765 1.34569 1.89721 0
M  V30 5061 C 486.759 0.232929 1.67791 0
M  V30 5062 O 487.965 0.401485 1.75465 0
M  V30 5063 H 484.34 0.419594 0.624055 0
M  V30 5064 H 486.311 2.30357 1.8968 0
M  V30 5065 C 485.06 1.17898 3.27101 0
M  V30 5066 H 484.383 2.02781 3.44558 0
M  V30 5067 H 485.823 1.19593 4.06784 0
M  V30 5068 C 484.282 -0.114728 3.36705 0
M  V30 5069 O 484.812 -1.0949 3.8649 0
M  V30 5070 N 483.018 -0.16863 2.9011 0
M  V30 5071 H 482.565 0.62967 2.49786 0
M  V30 5072 H 482.523 -1.03383 2.96916 0
M  V30 5073 N 486.295 -0.989507 1.22664 0
M  V30 5074 C 487.542 -1.72953 1.05325 0
M  V30 5075 C 487.87 -1.90104 -0.411168 0
M  V30 5076 O 487.125 -1.44386 -1.32103 0
M  V30 5077 C 487.424 -3.13649 1.71345 0
M  V30 5078 C 487.09 -3.16403 3.21248 0
M  V30 5079 C 485.752 -3.16862 3.62149 0
M  V30 5080 C 488.104 -3.12428 4.17179 0
M  V30 5081 C 485.432 -3.11051 4.97458 0
M  V30 5082 C 487.784 -3.08159 5.52468 0
M  V30 5083 C 486.448 -3.06935 5.92746 0
M  V30 5084 H 485.718 -0.632881 0.385412 0
M  V30 5085 H 488.365 -1.15863 1.52473 0
M  V30 5086 H 486.67 -3.74069 1.16532 0
M  V30 5087 H 488.367 -3.69658 1.55416 0
M  V30 5088 H 484.957 -3.16798 2.88682 0
M  V30 5089 H 489.141 -3.11221 3.86595 0
M  V30 5090 H 484.397 -3.0845 5.27891 0
M  V30 5091 H 488.571 -3.04039 6.26525 0
M  V30 5092 H 486.198 -3.02186 6.97558 0
M  V30 5093 N 487.773 -1.03688 -1.18687 0
M  V30 5094 C 488.72 -0.624624 -2.22187 0
M  V30 5095 C 489.69 0.365636 -1.62026 0
M  V30 5096 O 490.875 0.260481 -1.89014 0
M  V30 5097 C 488.015 0.0101738 -3.45099 0
M  V30 5098 C 487.128 -1.02709 -4.19613 0
M  V30 5099 C 486.263 -0.361213 -5.2997 0
M  V30 5100 C 485.302 -1.38384 -5.96252 0
M  V30 5101 N 484.439 -0.743196 -6.98155 0
M  V30 5102 H 489.279 -1.51176 -2.56807 0
M  V30 5103 H 486.816 -0.75636 -1.26165 0
M  V30 5104 H 488.774 0.395528 -4.15321 0
M  V30 5105 H 487.404 0.860848 -3.1111 0
M  V30 5106 H 486.456 -1.53043 -3.48256 0
M  V30 5107 H 487.768 -1.80398 -4.65036 0
M  V30 5108 H 486.922 0.0785537 -6.06649 0
M  V30 5109 H 485.661 0.447799 -4.8564 0
M  V30 5110 H 484.666 -1.83378 -5.18317 0
M  V30 5111 H 485.891 -2.19448 -6.42666 0
M  V30 5112 H 483.837 0.0455789 -6.55984 0
M  V30 5113 H 483.754 -1.45784 -7.41811 0
M  V30 5114 H 485.022 -0.327698 -7.78811 0
M  V30 5115 N 489.251 1.34841 -0.815825 0
M  V30 5116 C 490.667 1.51543 -0.500697 0
M  V30 5117 C 490.867 1.76261 0.976444 0
M  V30 5118 O 489.923 1.8094 1.76117 0
M  V30 5119 C 491.236 2.68487 -1.35407 0
M  V30 5120 C 492.784 2.82368 -1.35046 0
M  V30 5121 C 493.259 4.02347 -2.18816 0
M  V30 5122 N 494.75 4.09542 -2.16402 0
M  V30 5123 C 495.485 5.01517 -2.77971 0
M  V30 5124 N 494.981 5.98763 -3.48503 0
M  V30 5125 N 496.774 4.94334 -2.67563 0
M  V30 5126 H 488.925 1.17055 -1.77234 0
M  V30 5127 H 491.188 0.573481 -0.754866 0
M  V30 5128 H 490.894 2.56829 -2.40274 0
M  V30 5129 H 490.768 3.63321 -1.01377 0
M  V30 5130 H 493.155 2.93471 -0.309604 0
M  V30 5131 H 493.236 1.88363 -1.73069 0
M  V30 5132 H 492.88 3.92004 -3.22948 0
M  V30 5133 H 492.81 4.95551 -1.78148 0
M  V30 5134 H 495.301 3.39932 -1.65091 0
M  V30 5135 H 495.614 6.6556 -3.92747 0
M  V30 5136 H 493.959 5.98909 -3.52609 0
M  V30 5137 H 497.15 4.1732 -2.12041 0
M  V30 5138 H 497.323 5.6582 -3.15834 0
M  V30 5139 N 490.729 0.570148 1.46925 0
M  V30 5140 C 491.954 0.0542592 2.07329 0
M  V30 5141 C 492.379 -1.23582 1.41806 0
M  V30 5142 O 491.737 -1.74341 0.497479 0
M  V30 5143 C 491.785 -0.111175 3.60429 0
M  V30 5144 O 490.889 -1.17071 3.95434 0
M  V30 5145 H 490.23 0.0571425 0.661537 0
M  V30 5146 H 492.76 0.789516 1.88753 0
M  V30 5147 H 492.77 -0.321315 4.06733 0
M  V30 5148 H 491.445 0.831012 4.07513 0
M  V30 5149 H 490.022 -0.940029 3.60857 0
M  V30 5150 N 492.207 -1.54576 0.307264 0
M  V30 5151 C 493.454 -2.00263 -0.300167 0
M  V30 5152 C 493.782 -1.19561 -1.53413 0
M  V30 5153 O 493.037 -0.261487 -1.93945 0
M  V30 5154 C 493.336 -3.50572 -0.695253 0
M  V30 5155 C 493.002 -4.48771 0.437679 0
M  V30 5156 C 491.664 -4.7534 0.748681 0
M  V30 5157 C 494.016 -5.0721 1.19949 0
M  V30 5158 C 491.344 -5.5761 1.8245 0
M  V30 5159 C 493.696 -5.90651 2.26527 0
M  V30 5160 C 492.36 -6.15528 2.58227 0
M  V30 5161 H 491.63 -0.732814 -0.109839 0
M  V30 5162 H 494.277 -1.86664 0.427661 0
M  V30 5163 H 492.582 -3.61814 -1.50326 0
M  V30 5164 H 494.279 -3.83352 -1.17653 0
M  V30 5165 H 490.869 -4.282 0.185187 0
M  V30 5166 H 495.053 -4.86679 0.972474 0
M  V30 5167 H 490.309 -5.75121 2.07476 0
M  V30 5168 H 494.483 -6.34957 2.86011 0
M  V30 5169 H 492.11 -6.79066 3.4172 0
M  V30 5170 N 493.685 -0.035106 -1.57561 0
M  V30 5171 C 494.617 0.973604 -2.07494 0
M  V30 5172 C 495.63 1.28504 -0.999534 0
M  V30 5173 O 496.819 1.24864 -1.27559 0
M  V30 5174 C 493.919 2.29945 -2.48955 0
M  V30 5175 C 493.092 2.1723 -3.79644 0
M  V30 5176 C 492.151 3.328 -4.07592 0
M  V30 5177 O 491.177 3.09418 -4.77754 0
M  V30 5178 N 492.379 4.56779 -3.58236 0
M  V30 5179 H 495.144 0.547525 -2.94656 0
M  V30 5180 H 492.705 0.151515 -1.61189 0
M  V30 5181 H 494.697 3.06097 -2.64739 0
M  V30 5182 H 493.267 2.64173 -1.67126 0
M  V30 5183 H 492.487 1.25768 -3.73599 0
M  V30 5184 H 493.775 2.05945 -4.65257 0
M  V30 5185 H 493.173 4.78668 -3.01485 0
M  V30 5186 H 491.73 5.30079 -3.79288 0
M  V30 5187 N 495.163 1.55791 0.238111 0
M  V30 5188 C 496.579 1.48411 0.587045 0
M  V30 5189 C 496.779 0.72702 1.87927 0
M  V30 5190 O 495.835 0.259942 2.51158 0
M  V30 5191 C 497.148 2.92873 0.681623 0
M  V30 5192 C 498.696 3.03295 0.773363 0
M  V30 5193 C 499.171 4.49082 0.899428 0
M  V30 5194 N 500.662 4.53056 0.964075 0
M  V30 5195 C 501.397 5.63117 1.08104 0
M  V30 5196 N 500.893 6.82969 1.16299 0
M  V30 5197 N 502.686 5.50933 1.11488 0
M  V30 5198 H 494.837 2.0345 -0.610076 0
M  V30 5199 H 497.1 0.924034 -0.211813 0
M  V30 5200 H 496.806 3.51142 -0.19802 0
M  V30 5201 H 496.68 3.43851 1.55069 0
M  V30 5202 H 499.067 2.45101 1.64346 0
M  V30 5203 H 499.148 2.55513 -0.121034 0
M  V30 5204 H 498.792 5.07889 0.0338586 0
M  V30 5205 H 498.722 4.94553 1.809 0
M  V30 5206 H 501.213 3.66737 0.91173 0
M  V30 5207 H 501.526 7.62598 1.25155 0
M  V30 5208 H 499.871 6.85712 1.13241 0
M  V30 5209 H 503.062 4.56231 1.0474 0
M  V30 5210 H 503.235 6.36743 1.20259 0
M  V30 5211 N 496.642 -0.504142 1.49319 0
M  V30 5212 C 497.891 -1.25507 1.57895 0
M  V30 5213 C 498.204 -1.93735 0.269433 0
M  V30 5214 O 499.41 -2.70492 0.233706 0
M  V30 5215 C 497.866 -2.27869 2.78574 0
M  V30 5216 C 497.474 -1.65594 4.16272 0
M  V30 5217 C 499.218 -3.0381 2.96479 0
M  V30 5218 C 497.125 -2.66048 5.28178 0
M  V30 5219 H 496.055 -0.47212 0.587894 0
M  V30 5220 H 498.706 -0.52931 1.757 0
M  V30 5221 H 497.088 -3.03594 2.54257 0
M  V30 5222 H 498.262 -0.958826 4.50714 0
M  V30 5223 H 496.577 -1.02055 4.037 0
M  V30 5224 H 499.174 -3.78925 3.77253 0
M  V30 5225 H 499.517 -3.61235 2.06918 0
M  V30 5226 H 500.05 -2.352 3.20821 0
M  V30 5227 H 496.789 -2.13408 6.19788 0
M  V30 5228 H 496.309 -3.34009 4.98195 0
M  V30 5229 H 497.988 -3.28536 5.57381 0
M  V30 5230 N 498.12 -1.38341 -0.754957 0
M  V30 5231 C 499.05 -1.38176 -1.88227 0
M  V30 5232 C 500.031 -0.247873 -1.68284 0
M  V30 5233 O 501.216 -0.45075 -1.88896 0
M  V30 5234 C 498.346 -1.20471 -3.25736 0
M  V30 5235 C 497.3 -2.3105 -3.60278 0
M  V30 5236 C 496.626 -1.98452 -4.96509 0
M  V30 5237 C 497.926 -3.73305 -3.65295 0
M  V30 5238 H 499.62 -2.32512 -1.88622 0
M  V30 5239 H 497.166 -1.1192 -0.906082 0
M  V30 5240 H 499.119 -1.18982 -4.04254 0
M  V30 5241 H 497.843 -0.225965 -3.25817 0
M  V30 5242 H 496.502 -2.31723 -2.84078 0
M  V30 5243 H 496.15 -0.990641 -4.93148 0
M  V30 5244 H 495.85 -2.7251 -5.20588 0
M  V30 5245 H 497.374 -1.98578 -5.77407 0
M  V30 5246 H 498.788 -3.7467 -4.3393 0
M  V30 5247 H 497.185 -4.46557 -4.00883 0
M  V30 5248 H 498.255 -4.05719 -2.65556 0
M  V30 5249 N 499.598 0.982988 -1.23187 0
M  V30 5250 C 500.838 1.73903 -1.07412 0
M  V30 5251 C 501.202 1.88146 0.382764 0
M  V30 5252 O 502.403 2.6053 0.661638 0
M  V30 5253 C 500.674 3.10105 -1.77678 0
M  V30 5254 S 502.233 4.01323 -1.77441 0
M  V30 5255 H 499.051 0.598093 -0.384456 0
M  V30 5256 H 501.653 1.17456 -1.56283 0
M  V30 5257 H 500.357 2.97388 -2.82822 0
M  V30 5258 H 499.888 3.71622 -1.29077 0
M  V30 5259 H 501.903 4.89189 -0.831162 0
M  V30 5260 N 501.076 1.04316 1.18135 0
M  V30 5261 C 502.006 0.657299 2.24058 0
M  V30 5262 C 502.987 -0.340678 1.66654 0
M  V30 5263 O 504.172 -0.220223 1.92947 0
M  V30 5264 C 501.302 0.0220715 3.47293 0
M  V30 5265 C 500.256 0.943857 4.17463 0
M  V30 5266 C 499.582 0.172973 5.3442 0
M  V30 5267 C 500.882 2.26409 4.70677 0
M  V30 5268 H 502.576 1.5428 2.56589 0
M  V30 5269 H 500.122 0.743263 1.23335 0
M  V30 5270 H 502.075 -0.259607 4.206 0
M  V30 5271 H 500.799 -0.898323 3.14003 0
M  V30 5272 H 499.458 1.20996 3.46057 0
M  V30 5273 H 499.106 -0.749907 4.97379 0
M  V30 5274 H 498.806 0.787098 5.82304 0
M  V30 5275 H 500.33 -0.101628 6.10515 0
M  V30 5276 H 501.744 2.04294 5.35665 0
M  V30 5277 H 500.141 2.8314 5.29105 0
M  V30 5278 H 501.211 2.90883 3.87962 0
M  V30 5279 N 502.554 -1.34406 0.822964 0
M  V30 5280 C 503.779 -2.0304 0.423034 0
M  V30 5281 C 504.204 -1.61568 -0.963196 0
M  V30 5282 O 503.562 -0.800339 -1.62678 0
M  V30 5283 C 503.61 -3.56636 0.53321 0
M  V30 5284 O 502.714 -4.09971 -0.446939 0
M  V30 5285 H 502.055 -0.64075 0.174171 0
M  V30 5286 H 504.585 -1.71653 1.11339 0
M  V30 5287 H 504.595 -4.05945 0.408991 0
M  V30 5288 H 503.27 -3.86168 1.54425 0
M  V30 5289 H 501.847 -3.71835 -0.281601 0
M  V30 5290 N 504.032 -0.577932 -1.46621 0
M  V30 5291 C 505.278 -0.0700937 -2.03279 0
M  V30 5292 C 505.633 1.27376 -1.44198 0
M  V30 5293 O 504.926 1.82097 -0.595911 0
M  V30 5294 C 505.12 0.0590832 -3.57351 0
M  V30 5295 C 504.949 -1.2707 -4.31374 0
M  V30 5296 C 503.719 -1.84357 -4.70469 0
M  V30 5297 C 505.917 -2.19278 -4.65211 0
M  V30 5298 N 503.899 -3.11124 -5.29221 0
M  V30 5299 C 505.27 -3.30631 -5.24484 0
M  V30 5300 C 507.325 -2.19018 -4.47142 0
M  V30 5301 C 506.028 -4.41849 -5.67593 0
M  V30 5302 C 508.054 -3.29262 -4.91264 0
M  V30 5303 C 507.416 -4.39335 -5.50604 0
M  V30 5304 H 503.515 -0.0683127 -0.779011 0
M  V30 5305 H 506.099 -0.76978 -1.78836 0
M  V30 5306 H 504.27 0.727929 -3.81518 0
M  V30 5307 H 506.002 0.57087 -4.00653 0
M  V30 5308 H 502.757 -1.37906 -4.53077 0
M  V30 5309 H 503.181 -3.75794 -5.63123 0
M  V30 5310 H 507.823 -1.35191 -4.00604 0
M  V30 5311 H 505.541 -5.26421 -6.13112 0
M  V30 5312 H 509.127 -3.30172 -4.79038 0
M  V30 5313 H 508.007 -5.23233 -5.84121 0
M  V30 5314 N 505.51 1.54411 -0.315457 0
M  V30 5315 C 506.443 2.20265 0.596522 0
M  V30 5316 C 507.421 1.17693 1.12192 0
M  V30 5317 O 508.605 1.46397 1.18744 0
M  V30 5318 C 505.732 2.85794 1.81767 0
M  V30 5319 C 504.778 4.02017 1.42424 0
M  V30 5320 S 505.611 5.33452 0.467836 0
M  V30 5321 C 506.767 6.02471 1.69645 0
M  V30 5322 H 507 2.97277 0.0370896 0
M  V30 5323 H 504.533 1.54079 -0.0995562 0
M  V30 5324 H 506.491 3.24172 2.51839 0
M  V30 5325 H 505.152 2.08601 2.34828 0
M  V30 5326 H 504.345 4.46701 2.33396 0
M  V30 5327 H 503.947 3.65271 0.803311 0
M  V30 5328 H 506.239 6.24157 2.63504 0
M  V30 5329 H 507.182 6.96215 1.29192 0
M  V30 5330 H 507.59 5.32284 1.87974 0
M  V30 5331 N 506.988 0.0434614 1.5754 0
M  V30 5332 C 508.265 -0.671479 1.83713 0
M  V30 5333 C 508.645 -1.89495 0.930315 0
M  V30 5334 O 507.993 -2.28498 -0.0105639 0
M  V30 5335 C 508.203 -1.0361 3.33266 0
M  V30 5336 C 509.551 -1.42167 4.00092 0
M  V30 5337 O 510.575 -1.12866 3.37846 0
M  V30 5338 O 509.434 -1.96817 5.09829 0
M  V30 5339 H 506.528 -0.330726 0.75799 0
M  V30 5340 H 509.074 0.0722373 1.69546 0
M  V30 5341 H 507.846 -0.165938 3.90948 0
M  V30 5342 H 507.469 -1.83751 3.52592 0
M  V30 5343 N 508.466 -1.55915 -0.229846 0
M  V30 5344 C 509.414 -1.9258 -1.30444 0
M  V30 5345 C 510.408 -0.806839 -1.48951 0
M  V30 5346 O 511.614 -0.991606 -1.50224 0
M  V30 5347 H 507.989 -0.611878 -0.437161 0
M  V30 5348 H 509.96 -2.82264 -0.96797 0
M  V30 5349 C 508.709 -2.25171 -2.6494 0
M  V30 5350 H 508.032 -3.10782 -2.51504 0
M  V30 5351 H 509.472 -2.54716 -3.38963 0
M  V30 5352 C 507.931 -1.07394 -3.19324 0
M  V30 5353 O 508.461 -0.330759 -4.00336 0
M  V30 5354 N 506.667 -0.859984 -2.77584 0
M  V30 5355 H 506.214 -1.46605 -2.11813 0
M  V30 5356 H 506.172 -0.0736671 -3.14314 0
M  V30 5357 N 509.944 0.496216 -1.49584 0
M  V30 5358 C 510.907 1.57952 -1.66084 0
M  V30 5359 C 511.907 1.51729 -0.53244 0
M  V30 5360 O 513.097 1.54796 -0.79899 0
M  V30 5361 C 510.229 2.97604 -1.66268 0
M  V30 5362 H 511.422 1.44649 -2.6271 0
M  V30 5363 H 508.975 0.7208 -1.38687 0
M  V30 5364 H 509.71 3.16378 -0.712432 0
M  V30 5365 H 509.495 3.03528 -2.4822 0
M  V30 5366 H 510.985 3.76301 -1.81073 0
M  V30 5367 N 511.423 1.38739 0.74761 0
M  V30 5368 C 512.386 1.36241 1.84312 0
M  V30 5369 C 513.386 0.261811 1.58654 0
M  V30 5370 O 514.576 0.519031 1.66288 0
M  V30 5371 C 511.708 1.12253 3.21888 0
M  V30 5372 H 512.901 2.33712 1.87933 0
M  V30 5373 H 510.454 1.2412 0.949946 0
M  V30 5374 H 511.189 0.154133 3.23934 0
M  V30 5375 H 510.974 1.91943 3.41907 0
M  V30 5376 H 512.464 1.13215 4.0196 0
M  V30 5377 N 512.901 -0.976442 1.23707 0
M  V30 5378 C 513.811 -2.10359 1.03856 0
M  V30 5379 C 514.827 -1.73991 -0.0180919 0
M  V30 5380 O 516.003 -2.0061 0.178211 0
M  V30 5381 C 513.068 -3.40809 0.636387 0
M  V30 5382 C 512.129 -3.91179 1.76854 0
M  V30 5383 C 511.362 -5.15404 1.38546 0
M  V30 5384 O 511.585 -5.69754 0.27142 0
M  V30 5385 O 510.519 -5.5994 2.20797 0
M  V30 5386 H 514.345 -2.29997 1.98331 0
M  V30 5387 H 511.93 -1.08742 1.02448 0
M  V30 5388 H 513.812 -4.19269 0.423223 0
M  V30 5389 H 512.487 -3.22493 -0.279322 0
M  V30 5390 H 511.394 -3.13819 2.03638 0
M  V30 5391 H 512.727 -4.13958 2.6627 0
M  V30 5392 N 514.379 -1.04941 -1.1758 0
M  V30 5393 C 515.289 -0.658826 -2.25159 0
M  V30 5394 C 516.305 0.318941 -1.71052 0
M  V30 5395 O 517.481 0.171669 -2.00667 0
M  V30 5396 C 514.546 -0.0369522 -3.4668 0
M  V30 5397 C 513.607 -1.06484 -4.15884 0
M  V30 5398 C 512.84 -0.472551 -5.31604 0
M  V30 5399 O 513.063 0.718736 -5.65854 0
M  V30 5400 O 511.997 -1.20557 -5.89703 0
M  V30 5401 H 515.823 -1.55533 -2.60851 0
M  V30 5402 H 513.408 -0.820819 -1.24832 0
M  V30 5403 H 515.29 0.308784 -4.20267 0
M  V30 5404 H 513.965 0.833238 -3.12792 0
M  V30 5405 H 512.872 -1.46253 -3.44327 0
M  V30 5406 H 514.205 -1.9061 -4.53794 0
M  V30 5407 N 515.857 1.33968 -0.830081 0
M  V30 5408 C 517.268 1.80439 -0.479455 0
M  V30 5409 C 517.619 1.68756 1.00079 0
M  V30 5410 O 516.744 1.23171 1.77927 0
M  V30 5411 C 517.339 3.27611 -0.863505 0
M  V30 5412 C 515.898 3.72133 -0.565145 0
M  V30 5413 C 515.045 2.55549 -1.07657 0
M  V30 5414 H 517.996 1.21614 -1.0196 0
M  V30 5415 H 518.017 3.8012 -0.170083 0
M  V30 5416 H 517.529 3.36082 -1.94089 0
M  V30 5417 H 515.63 3.69196 0.502536 0
M  V30 5418 H 515.743 4.65963 -1.11422 0
M  V30 5419 H 514.107 2.49788 -0.497807 0
M  V30 5420 H 514.89 2.66786 -2.16055 0
M  V30 5421 N 517.335 0.585699 1.46312 0
M  V30 5422 C 518.581 0.0725284 2.0267 0
M  V30 5423 C 518.914 -1.28523 1.45586 0
M  V30 5424 O 518.189 -1.84283 0.622101 0
M  V30 5425 C 518.472 0.0099788 3.60099 0
M  V30 5426 C 518.325 1.39685 4.27561 0
M  V30 5427 C 519.644 -0.689117 4.34671 0
M  V30 5428 H 516.763 0.0278307 0.736474 0
M  V30 5429 H 519.405 0.753472 1.74421 0
M  V30 5430 H 517.555 -0.56992 3.84297 0
M  V30 5431 H 519.227 2.02215 4.14617 0
M  V30 5432 H 517.47 1.96374 3.86807 0
M  V30 5433 H 518.141 1.30553 5.36339 0
M  V30 5434 H 520.617 -0.196446 4.15636 0
M  V30 5435 H 519.493 -0.701921 5.44393 0
M  V30 5436 H 519.754 -1.75101 4.05946 0
M  V30 5437 N 518.813 -1.54241 0.323641 0
M  V30 5438 C 520.09 -1.92741 -0.333181 0
M  V30 5439 C 520.47 -1.25326 -1.69872 0
M  V30 5440 O 519.818 -0.396991 -2.25025 0
M  V30 5441 C 520.028 -3.46399 -0.425322 0
M  V30 5442 C 521.376 -4.19029 -0.68557 0
M  V30 5443 O 522.4 -3.52555 -0.50824 0
M  V30 5444 O 521.259 -5.36751 -1.02767 0
M  V30 5445 H 518.353 -0.804811 -0.190286 0
M  V30 5446 H 520.899 -1.65542 0.373361 0
M  V30 5447 H 519.671 -3.87643 0.533737 0
M  V30 5448 H 519.294 -3.79704 -1.17944 0
M  V30 5449 N 520.291 -0.0518155 -1.57515 0
M  V30 5450 C 521.521 0.63048 -1.96745 0
M  V30 5451 C 521.929 1.64875 -0.928054 0
M  V30 5452 O 521.272 1.83449 0.0960678 0
M  V30 5453 C 521.334 1.37381 -3.32215 0
M  V30 5454 C 520.998 0.511298 -4.54131 0
M  V30 5455 C 521.995 -0.222884 -5.19422 0
M  V30 5456 C 519.68 0.442035 -5.00351 0
M  V30 5457 C 521.674 -1.01476 -6.2927 0
M  V30 5458 C 519.361 -0.35353 -6.10077 0
M  V30 5459 C 520.359 -1.08062 -6.74397 0
M  V30 5460 O 520.047 -1.8631 -7.82013 0
M  V30 5461 H 519.779 0.177126 -0.652382 0
M  V30 5462 H 522.333 -0.114726 -2.05079 0
M  V30 5463 H 520.563 2.16466 -3.20436 0
M  V30 5464 H 522.252 1.9464 -3.56188 0
M  V30 5465 H 523.018 -0.178846 -4.8467 0
M  V30 5466 H 518.897 0.997562 -4.50077 0
M  V30 5467 H 522.441 -1.58279 -6.79407 0
M  V30 5468 H 518.338 -0.399205 -6.44264 0
M  V30 5469 H 519.106 -1.78528 -7.98793 0
M  V30 5470 N 521.769 1.56035 0.221574 0
M  V30 5471 C 522.999 1.82864 0.961468 0
M  V30 5472 C 523.407 0.628703 1.78449 0
M  V30 5473 O 522.75 -0.412109 1.79018 0
M  V30 5474 C 522.812 3.03425 1.92804 0
M  V30 5475 C 522.476 4.38429 1.28954 0
M  V30 5476 C 523.473 5.15441 0.679431 0
M  V30 5477 C 521.158 4.85151 1.30131 0
M  V30 5478 C 523.152 6.37337 0.0896148 0
M  V30 5479 C 520.839 6.06989 0.707651 0
M  V30 5480 C 521.837 6.82923 0.102855 0
M  V30 5481 O 521.525 8.02456 -0.48157 0
M  V30 5482 H 521.257 0.611883 0.28736 0
M  V30 5483 H 523.811 2.0397 0.241932 0
M  V30 5484 H 522.041 2.78138 2.68656 0
M  V30 5485 H 523.73 3.17127 2.53348 0
M  V30 5486 H 524.496 4.80452 0.662661 0
M  V30 5487 H 520.375 4.26021 1.76145 0
M  V30 5488 H 523.919 6.96547 -0.383069 0
M  V30 5489 H 519.816 6.41451 0.721834 0
M  V30 5490 H 520.584 8.17636 -0.375887 0
M  V30 5491 N 523.247 -0.488276 1.49845 0
M  V30 5492 C 524.21 -1.57069 1.66919 0
M  V30 5493 C 525.21 -1.51445 0.540479 0
M  V30 5494 O 526.4 -1.5437 0.807188 0
M  V30 5495 C 523.532 -2.96718 1.67844 0
M  V30 5496 H 524.725 -1.43254 2.63474 0
M  V30 5497 H 522.278 -0.713435 1.39068 0
M  V30 5498 H 523.013 -3.15996 0.7292 0
M  V30 5499 H 522.798 -3.02208 2.49826 0
M  V30 5500 H 524.288 -3.75335 1.83066 0
M  V30 5501 N 524.725 -1.39134 -0.740242 0
M  V30 5502 C 525.953 -1.39334 -1.5295 0
M  V30 5503 C 526.368 0.0135008 -1.88795 0
M  V30 5504 O 525.725 0.983524 -1.5373 0
M  V30 5505 C 525.776 -2.2614 -2.82034 0
M  V30 5506 O 525.497 -3.61345 -2.47712 0
M  V30 5507 C 526.998 -2.34666 -3.76094 0
M  V30 5508 H 524.218 -0.476103 -0.472828 0
M  V30 5509 H 526.762 -1.82883 -0.9151 0
M  V30 5510 H 524.917 -1.86018 -3.39818 0
M  V30 5511 H 525.331 -4.07194 -3.30595 0
M  V30 5512 H 526.805 -2.99663 -4.63579 0
M  V30 5513 H 527.282 -1.36426 -4.17474 0
M  V30 5514 H 527.888 -2.75236 -3.2423 0
M  V30 5515 N 526.204 0.969867 -1.24223 0
M  V30 5516 C 527.167 2.04564 -1.03373 0
M  V30 5517 C 528.167 1.60798 0.00819206 0
M  V30 5518 O 529.357 1.72641 -0.232567 0
M  V30 5519 C 526.489 3.36163 -0.566343 0
M  V30 5520 H 527.682 2.24494 -1.98853 0
M  V30 5521 H 525.235 1.1448 -1.06415 0
M  V30 5522 H 525.97 3.21925 0.391751 0
M  V30 5523 H 525.755 3.69273 -1.31834 0
M  V30 5524 H 527.245 4.1526 -0.441435 0
M  V30 5525 N 527.682 1.05563 1.17022 0
M  V30 5526 C 528.612 0.681026 2.23348 0
M  V30 5527 C 529.593 -0.322983 1.67005 0
M  V30 5528 O 530.778 -0.199746 1.9317 0
M  V30 5529 C 527.908 0.0589053 3.4725 0
M  V30 5530 C 526.862 0.988082 4.16438 0
M  V30 5531 C 526.188 0.229646 5.34207 0
M  V30 5532 C 527.488 2.31388 4.68249 0
M  V30 5533 H 529.182 1.56993 2.54938 0
M  V30 5534 H 526.728 0.756302 1.2254 0
M  V30 5535 H 528.681 -0.214982 4.20851 0
M  V30 5536 H 527.405 -0.864968 3.14938 0
M  V30 5537 H 526.064 1.24659 3.44754 0
M  V30 5538 H 525.712 -0.697111 4.98146 0
M  V30 5539 H 525.412 0.848815 5.81437 0
M  V30 5540 H 526.936 -0.0368694 6.10589 0
M  V30 5541 H 528.35 2.09964 5.33468 0
M  V30 5542 H 526.747 2.88736 5.26072 0
M  V30 5543 H 527.817 2.94982 3.84855 0
M  V30 5544 N 529.16 -1.33526 0.837174 0
M  V30 5545 C 530.107 -2.29248 0.267169 0
M  V30 5546 C 531.077 -1.54252 -0.616071 0
M  V30 5547 O 532.262 -1.82559 -0.554699 0
M  V30 5548 C 529.402 -3.40638 -0.553152 0
M  V30 5549 C 528.515 -4.30548 0.353921 0
M  V30 5550 C 527.65 -5.29051 -0.477339 0
M  V30 5551 C 526.689 -6.106 0.42823 0
M  V30 5552 N 525.826 -7.01152 -0.364801 0
M  V30 5553 H 530.666 -2.77398 1.08877 0
M  V30 5554 H 528.203 -1.36496 0.54838 0
M  V30 5555 H 530.161 -4.03921 -1.04422 0
M  V30 5556 H 528.791 -2.93685 -1.33973 0
M  V30 5557 H 527.843 -3.68001 0.963289 0
M  V30 5558 H 529.155 -4.87631 1.04964 0
M  V30 5559 H 528.309 -5.97853 -1.0323 0
M  V30 5560 H 527.048 -4.72541 -1.2065 0
M  V30 5561 H 526.053 -5.40718 0.995219 0
M  V30 5562 H 527.278 -6.69193 1.15573 0
M  V30 5563 H 525.224 -6.47092 -1.07738 0
M  V30 5564 H 525.141 -7.5551 0.272238 0
M  V30 5565 H 526.409 -7.74263 -0.902054 0
M  V30 5566 N 530.638 -0.59345 -1.46 0
M  V30 5567 C 531.863 -0.0872365 -2.07216 0
M  V30 5568 C 532.288 1.2131 -1.43755 0
M  V30 5569 O 531.646 1.73528 -0.525152 0
M  V30 5570 C 531.694 0.0538197 -3.6056 0
M  V30 5571 O 530.798 1.10765 -3.97247 0
M  V30 5572 H 530.139 -0.0676598 -0.660544 0
M  V30 5573 H 532.669 -0.819445 -1.87473 0
M  V30 5574 H 532.679 0.256567 -4.07193 0
M  V30 5575 H 531.354 -0.895739 -4.0614 0
M  V30 5576 H 529.931 0.882501 -3.62307 0
M  V30 5577 N 532.116 1.54067 -0.331816 0
M  V30 5578 C 533.532 1.59587 0.0205388 0
M  V30 5579 C 533.732 1.34813 1.49759 0
M  V30 5580 O 532.788 1.13661 2.25471 0
M  V30 5581 C 534.101 2.97959 -0.405103 0
M  V30 5582 C 535.649 3.10964 -0.356454 0
M  V30 5583 C 536.124 4.51694 -0.757384 0
M  V30 5584 N 537.615 4.57709 -0.71111 0
M  V30 5585 C 538.35 5.64729 -0.993427 0
M  V30 5586 N 537.846 6.79652 -1.3433 0
M  V30 5587 N 539.639 5.54546 -0.918442 0
M  V30 5588 H 531.79 1.68426 -1.29407 0
M  V30 5589 H 534.053 0.78819 -0.526745 0
M  V30 5590 H 533.759 3.21115 -1.43451 0
M  V30 5591 H 533.633 3.76524 0.225692 0
M  V30 5592 H 536.02 2.87538 0.663763 0
M  V30 5593 H 536.101 2.34484 -1.02229 0
M  V30 5594 H 535.745 4.75853 -1.77555 0
M  V30 5595 H 535.675 5.26555 -0.0691444 0
M  V30 5596 H 538.166 3.75176 -0.452883 0
M  V30 5597 H 538.479 7.57221 -1.54388 0
M  V30 5598 H 536.824 6.81128 -1.38164 0
M  V30 5599 H 540.015 4.63641 -0.644536 0
M  V30 5600 H 540.188 6.37861 -1.14181 0
M  V30 5601 N 533.594 0.0601682 1.57485 0
M  V30 5602 C 534.557 -0.896373 2.10945 0
M  V30 5603 C 535.557 -1.23402 1.03095 0
M  V30 5604 O 536.747 -1.16921 1.29132 0
M  V30 5605 C 533.879 -2.20346 2.60116 0
M  V30 5606 H 535.072 -0.432778 2.96761 0
M  V30 5607 H 532.625 -0.188372 1.55161 0
M  V30 5608 H 533.36 -2.71268 1.7772 0
M  V30 5609 H 533.145 -1.9714 3.38937 0
M  V30 5610 H 534.635 -2.88846 3.01592 0
M  V30 5611 N 535.072 -1.5615 -0.213296 0
M  V30 5612 C 536.302 -1.83372 -0.951757 0
M  V30 5613 C 536.71 -0.638158 -1.78113 0
M  V30 5614 O 536.053 0.402609 -1.79234 0
M  V30 5615 C 536.115 -3.04444 -1.91192 0
M  V30 5616 C 535.779 -4.39107 -1.26627 0
M  V30 5617 C 536.776 -5.15794 -0.652087 0
M  V30 5618 C 534.461 -4.85834 -1.27556 0
M  V30 5619 C 536.455 -6.37376 -0.055814 0
M  V30 5620 C 534.142 -6.07356 -0.675451 0
M  V30 5621 C 535.14 -6.82967 -0.0666367 0
M  V30 5622 O 534.828 -8.0219 0.524119 0
M  V30 5623 H 534.56 -0.613398 -0.284111 0
M  V30 5624 H 537.114 -2.04096 -0.231112 0
M  V30 5625 H 535.344 -2.79559 -2.67178 0
M  V30 5626 H 537.033 -3.18466 -2.51662 0
M  V30 5627 H 537.799 -4.80796 -0.637172 0
M  V30 5628 H 533.678 -4.26949 -1.73883 0
M  V30 5629 H 537.222 -6.96334 0.420004 0
M  V30 5630 H 533.119 -6.41825 -0.687806 0
M  V30 5631 H 533.887 -8.17426 0.419243 0
M  V30 5632 N 536.55 0.480323 -1.50102 0
M  V30 5633 C 537.775 1.26126 -1.64642 0
M  V30 5634 C 538.2 1.85257 -0.325823 0
M  V30 5635 O 537.558 1.66854 0.709194 0
M  V30 5636 C 537.606 2.35243 -2.73301 0
M  V30 5637 O 536.71 3.39646 -2.33911 0
M  V30 5638 H 536.051 0.371463 -0.550374 0
M  V30 5639 H 538.581 0.572696 -1.96421 0
M  V30 5640 H 538.591 2.80695 -2.96098 0
M  V30 5641 H 537.266 1.91574 -3.6915 0
M  V30 5642 H 535.843 2.99969 -2.21525 0
M  V30 5643 N 538.028 1.39524 0.732853 0
M  V30 5644 C 539.274 1.37068 1.49467 0
M  V30 5645 C 539.607 -0.0327166 1.94172 0
M  V30 5646 O 538.882 -0.998071 1.66939 0
M  V30 5647 C 539.165 2.34494 2.73285 0
M  V30 5648 C 539.018 3.83784 2.34585 0
M  V30 5649 C 540.337 2.29717 3.75391 0
M  V30 5650 H 537.456 0.499206 0.542183 0
M  V30 5651 H 540.098 1.70532 0.837783 0
M  V30 5652 H 538.248 2.06087 3.29333 0
M  V30 5653 H 539.92 4.22949 1.84151 0
M  V30 5654 H 538.163 4.00455 1.66787 0
M  V30 5655 H 538.834 4.47444 3.23262 0
M  V30 5656 H 541.31 2.54839 3.28932 0
M  V30 5657 H 540.186 2.99962 4.59689 0
M  V30 5658 H 540.447 1.30291 4.22465 0
M  V30 5659 N 539.506 -0.963266 1.24736 0
M  V30 5660 C 540.416 -2.09246 1.06082 0
M  V30 5661 C 541.432 -1.74 0.000363101 0
M  V30 5662 O 542.608 -2.0041 0.199479 0
M  V30 5663 C 539.673 -3.40115 0.672498 0
M  V30 5664 C 538.734 -3.89282 1.80993 0
M  V30 5665 C 537.967 -5.13905 1.44004 0
M  V30 5666 O 538.19 -5.69434 0.331835 0
M  V30 5667 O 537.124 -5.57566 2.26723 0
M  V30 5668 H 540.95 -2.27881 2.00759 0
M  V30 5669 H 538.535 -1.07649 1.03595 0
M  V30 5670 H 540.417 -4.18797 0.467668 0
M  V30 5671 H 539.092 -3.22771 -0.245102 0
M  V30 5672 H 537.999 -3.11642 2.06955 0
M  V30 5673 H 539.332 -4.1111 2.70646 0
M  V30 5674 N 540.985 -1.06182 -1.16461 0
M  V30 5675 C 542.262 -0.691364 -1.82974 0
M  V30 5676 C 542.642 0.827377 -1.9421 0
M  V30 5677 O 541.99 1.73723 -1.48434 0
M  V30 5678 C 542.2 -1.39199 -3.20038 0
M  V30 5679 C 543.548 -1.53647 -3.95825 0
M  V30 5680 O 544.572 -1.35181 -3.29552 0
M  V30 5681 O 543.431 -1.83932 -5.14618 0
M  V30 5682 H 540.525 -0.244605 -0.789998 0
M  V30 5683 H 543.071 -1.16203 -1.23673 0
M  V30 5684 H 541.843 -2.42766 -3.06888 0
M  V30 5685 H 541.466 -0.911335 -3.87015 0
M  V30 5686 N 542.463 1.3308 -0.844243 0
M  V30 5687 C 543.71 1.97605 -0.44255 0
M  V30 5688 C 544.038 1.66856 0.999458 0
M  V30 5689 O 543.293 0.943586 1.7145 0
M  V30 5690 C 543.592 3.52045 -0.616354 0
M  V30 5691 C 543.258 4.02757 -2.02726 0
M  V30 5692 C 541.92 4.16316 -2.41317 0
M  V30 5693 C 544.272 4.29776 -2.9486 0
M  V30 5694 C 541.6 4.54232 -3.71335 0
M  V30 5695 C 543.952 4.69146 -4.24364 0
M  V30 5696 C 542.616 4.80911 -4.62904 0
M  V30 5697 H 541.886 0.723088 -0.161941 0
M  V30 5698 H 544.533 1.58663 -1.0723 0
M  V30 5699 H 542.838 3.91681 0.0966812 0
M  V30 5700 H 544.535 3.99981 -0.285756 0
M  V30 5701 H 541.125 3.9268 -1.71756 0
M  V30 5702 H 545.309 4.18818 -2.6628 0
M  V30 5703 H 540.565 4.61535 -4.00993 0
M  V30 5704 H 544.739 4.89008 -4.95827 0
M  V30 5705 H 542.366 5.10048 -5.63698 0
M  V30 5706 N 543.941 0.601185 1.45683 0
M  V30 5707 C 544.873 -0.159446 2.28645 0
M  V30 5708 C 545.886 -0.837882 1.39583 0
M  V30 5709 O 547.075 -0.704344 1.64016 0
M  V30 5710 C 544.175 -1.24641 3.15147 0
M  V30 5711 C 543.348 -0.656334 4.32448 0
M  V30 5712 C 542.407 -1.63337 5.00208 0
M  V30 5713 O 541.433 -1.16217 5.57209 0
M  V30 5714 N 542.635 -2.96773 4.98905 0
M  V30 5715 H 545.4 0.5524 2.94565 0
M  V30 5716 H 542.961 0.440223 1.558 0
M  V30 5717 H 544.953 -1.8997 3.57342 0
M  V30 5718 H 543.523 -1.86087 2.51178 0
M  V30 5719 H 542.743 0.174879 3.93812 0
M  V30 5720 H 544.031 -0.242211 5.08223 0
M  V30 5721 H 543.429 -3.37662 4.53873 0
M  V30 5722 H 541.986 -3.57541 5.44984 0
M  V30 5723 N 545.419 -1.53889 0.339982 0
M  V30 5724 C 546.83 -1.86139 -0.144671 0
M  V30 5725 C 547.181 -1.2613 -1.50285 0
M  V30 5726 O 546.306 -0.573515 -2.08662 0
M  V30 5727 C 546.901 -3.37728 -0.269285 0
M  V30 5728 C 545.46 -3.69868 -0.698168 0
M  V30 5729 C 544.607 -2.76777 0.170249 0
M  V30 5730 H 547.558 -1.48503 0.559704 0
M  V30 5731 H 547.579 -3.64331 -1.0974 0
M  V30 5732 H 547.091 -3.81375 0.719366 0
M  V30 5733 H 545.192 -3.31764 -1.69597 0
M  V30 5734 H 545.305 -4.76582 -0.490533 0
M  V30 5735 H 543.669 -2.52188 -0.356844 0
M  V30 5736 H 544.452 -3.23253 1.15597 0
M  V30 5737 N 546.897 -0.0685191 -1.57451 0
M  V30 5738 C 547.807 0.914677 -2.16034 0
M  V30 5739 C 548.823 1.32938 -1.12265 0
M  V30 5740 O 549.999 1.40275 -1.44516 0
M  V30 5741 C 547.064 2.16519 -2.70777 0
M  V30 5742 C 546.125 1.80721 -3.89408 0
M  V30 5743 C 545.358 2.9981 -4.41531 0
M  V30 5744 O 545.581 4.13727 -3.92666 0
M  V30 5745 O 544.515 2.79817 -5.32903 0
M  V30 5746 H 548.341 0.446364 -3.00402 0
M  V30 5747 H 545.926 0.154367 -1.486 0
M  V30 5748 H 547.808 2.89856 -3.05878 0
M  V30 5749 H 546.483 2.62454 -1.89471 0
M  V30 5750 H 545.39 1.04646 -3.59166 0
M  V30 5751 H 546.723 1.39571 -4.71997 0
M  V30 5752 N 548.375 1.56261 0.205012 0
M  V30 5753 C 549.323 1.94631 1.27364 0
M  V30 5754 C 550.317 0.830434 1.47649 0
M  V30 5755 O 551.523 1.01538 1.48627 0
M  V30 5756 H 547.898 0.618755 0.427371 0
M  V30 5757 H 549.869 2.83768 0.922941 0
M  V30 5758 C 548.618 2.29358 2.61324 0
M  V30 5759 H 547.941 3.14744 2.46528 0
M  V30 5760 H 549.381 2.60076 3.34868 0
M  V30 5761 C 547.84 1.12461 3.17575 0
M  V30 5762 O 548.37 0.394407 3.99759 0
M  V30 5763 N 546.576 0.904036 2.7618 0
M  V30 5764 H 546.123 1.49956 2.09454 0
M  V30 5765 H 546.081 0.123662 3.14157 0
M  V30 5766 N 549.853 -0.472356 1.50355 0
M  V30 5767 C 550.783 -1.57859 1.72055 0
M  V30 5768 C 551.764 -1.60283 0.569505 0
M  V30 5769 O 552.949 -1.7657 0.808503 0
M  V30 5770 C 550.079 -2.96191 1.81351 0
M  V30 5771 C 549.033 -3.08633 2.96529 0
M  V30 5772 C 548.359 -4.486 2.90968 0
M  V30 5773 C 549.659 -2.85969 4.37057 0
M  V30 5774 H 551.353 -1.39953 2.64676 0
M  V30 5775 H 548.899 -0.671846 1.27367 0
M  V30 5776 H 550.852 -3.73507 1.95117 0
M  V30 5777 H 549.576 -3.15251 0.853502 0
M  V30 5778 H 548.235 -2.33749 2.82413 0
M  V30 5779 H 547.883 -4.64577 1.92815 0
M  V30 5780 H 547.583 -4.57861 3.68289 0
M  V30 5781 H 549.107 -5.27938 3.0678 0
M  V30 5782 H 550.521 -3.53036 4.51706 0
M  V30 5783 H 548.918 -3.06677 5.15819 0
M  V30 5784 H 549.988 -1.81838 4.49514 0
M  V30 5785 N 551.331 -1.39911 -0.725443 0
M  V30 5786 C 552.241 -1.41688 -1.8698 0
M  V30 5787 C 553.257 -0.310579 -1.71206 0
M  V30 5788 O 554.433 -0.55359 -1.93642 0
M  V30 5789 C 551.498 -1.26811 -3.22676 0
M  V30 5790 C 550.559 -2.47497 -3.50776 0
M  V30 5791 C 549.792 -2.3332 -4.79997 0
M  V30 5792 O 550.015 -1.34175 -5.54394 0
M  V30 5793 O 548.949 -3.22498 -5.08211 0
M  V30 5794 H 552.775 -2.38171 -1.88436 0
M  V30 5795 H 550.36 -1.21128 -0.874548 0
M  V30 5796 H 552.242 -1.20684 -4.03749 0
M  V30 5797 H 550.917 -0.334289 -3.21969 0
M  V30 5798 H 549.824 -2.59201 -2.69751 0
M  V30 5799 H 551.157 -3.39606 -3.5627 0
M  V30 5800 N 552.809 0.956637 -1.25245 0
M  V30 5801 C 554.034 1.74104 -1.12706 0
M  V30 5802 C 554.459 1.85436 0.315429 0
M  V30 5803 O 553.817 1.33334 1.22848 0
M  V30 5804 C 553.865 3.1338 -1.78396 0
M  V30 5805 O 552.969 3.98485 -1.06224 0
M  V30 5806 H 552.31 0.53476 -0.393609 0
M  V30 5807 H 554.84 1.19924 -1.65769 0
M  V30 5808 H 554.85 3.6385 -1.846 0
M  V30 5809 H 553.525 3.04448 -2.83345 0
M  V30 5810 H 552.102 3.56952 -1.07886 0
M  V30 5811 N 554.287 1.06798 1.15896 0
M  V30 5812 C 555.535 0.786211 1.8618 0
M  V30 5813 C 555.856 -0.689547 1.82401 0
M  V30 5814 O 555.126 -1.49913 1.26107 0
M  V30 5815 H 553.706 0.287843 0.689315 0
M  V30 5816 H 556.368 1.35055 1.40521 0
M  V30 5817 H 555.464 1.1157 2.91477 0
M  V30 5818 N 555.766 -1.3263 0.851289 0
M  V30 5819 C 557.014 -1.96978 0.452128 0
M  V30 5820 C 557.335 -1.67715 -0.99482 0
M  V30 5821 O 556.605 -0.98259 -1.69476 0
M  V30 5822 H 555.185 -0.72873 0.164202 0
M  V30 5823 H 557.847 -1.61774 1.08698 0
M  V30 5824 H 556.943 -3.06387 0.594407 0
M  V30 5825 N 557.244 -0.608902 -1.45362 0
M  V30 5826 C 558.49 -0.104762 -2.02529 0
M  V30 5827 C 558.823 1.26191 -1.47613 0
M  V30 5828 O 558.098 1.8327 -0.65134 0
M  V30 5829 C 558.381 -0.0672661 -3.60037 0
M  V30 5830 C 558.234 -1.4647 -4.25284 0
M  V30 5831 C 559.553 0.619877 -4.35713 0
M  V30 5832 H 556.672 -0.0395438 -0.735938 0
M  V30 5833 H 559.314 -0.781126 -1.73201 0
M  V30 5834 H 557.464 0.50871 -3.85155 0
M  V30 5835 H 559.136 -2.08785 -4.11347 0
M  V30 5836 H 557.379 -2.02502 -3.83634 0
M  V30 5837 H 558.05 -1.39069 -5.34195 0
M  V30 5838 H 560.526 0.130297 -4.15896 0
M  V30 5839 H 559.402 0.615224 -5.45441 0
M  V30 5840 H 559.663 1.68621 -4.0868 0
M  V30 5841 N 558.722 1.53707 -0.348139 0
M  V30 5842 C 559.969 2.00988 0.246966 0
M  V30 5843 C 560.297 1.23586 1.50189 0
M  V30 5844 O 559.552 0.312817 1.93184 0
M  V30 5845 C 559.851 3.52292 0.602061 0
M  V30 5846 C 559.517 4.47453 -0.556509 0
M  V30 5847 C 558.179 4.73188 -0.874446 0
M  V30 5848 C 560.531 5.03851 -1.33354 0
M  V30 5849 C 557.859 5.52577 -1.9717 0
M  V30 5850 C 560.211 5.84437 -2.42108 0
M  V30 5851 C 558.875 6.08465 -2.74456 0
M  V30 5852 H 558.145 0.735469 0.0903712 0
M  V30 5853 H 560.792 1.85464 -0.477001 0
M  V30 5854 H 559.097 3.65672 1.40681 0
M  V30 5855 H 560.794 3.86337 1.07447 0
M  V30 5856 H 557.384 4.27558 -0.298652 0
M  V30 5857 H 561.568 4.8393 -1.10117 0
M  V30 5858 H 556.824 5.69418 -2.22651 0
M  V30 5859 H 560.998 6.27151 -3.02745 0
M  V30 5860 H 558.625 6.69768 -3.59604 0
M  V30 5861 N 560.2 0.0768682 1.57412 0
M  V30 5862 C 561.616 -0.279772 1.57129 0
M  V30 5863 C 561.816 -1.69688 1.08666 0
M  V30 5864 O 560.872 -2.40953 0.754843 0
M  V30 5865 C 562.185 -0.0848055 3.0058 0
M  V30 5866 C 563.733 -0.153954 3.12621 0
M  V30 5867 C 564.208 0.0127946 4.57998 0
M  V30 5868 N 565.699 -0.0426435 4.6318 0
M  V30 5869 C 566.434 0.0618892 5.73367 0
M  V30 5870 N 565.93 0.220229 6.9245 0
M  V30 5871 N 567.723 0.00446072 5.621 0
M  V30 5872 H 559.874 1.00297 1.87228 0
M  V30 5873 H 562.137 0.391565 0.863354 0
M  V30 5874 H 561.843 0.89325 3.40168 0
M  V30 5875 H 561.717 -0.834961 3.67843 0
M  V30 5876 H 564.104 -1.1225 2.72917 0
M  V30 5877 H 564.185 0.627389 2.47987 0
M  V30 5878 H 563.829 0.978128 4.98392 0
M  V30 5879 H 563.759 -0.788016 5.20671 0
M  V30 5880 H 566.25 -0.163226 3.77547 0
M  V30 5881 H 566.563 0.291999 7.72248 0
M  V30 5882 H 564.908 0.255658 6.9453 0
M  V30 5883 H 568.099 -0.117979 4.67951 0
M  V30 5884 H 568.272 0.0893796 6.47938 0
M  V30 5885 N 561.678 -1.56367 -0.196722 0
M  V30 5886 C 562.626 -1.95304 -1.2633 0
M  V30 5887 C 563.62 -0.838252 -1.47206 0
M  V30 5888 O 564.826 -1.02325 -1.48087 0
M  V30 5889 H 561.201 -0.621013 -0.424083 0
M  V30 5890 H 563.172 -2.84254 -0.907879 0
M  V30 5891 C 561.921 -2.3074 -2.60104 0
M  V30 5892 H 561.244 -3.16047 -2.44856 0
M  V30 5893 H 562.684 -2.61849 -3.33484 0
M  V30 5894 C 561.143 -1.14143 -3.16975 0
M  V30 5895 O 561.673 -0.415602 -3.99544 0
M  V30 5896 N 559.879 -0.91867 -2.75697 0
M  V30 5897 H 559.426 -1.51065 -2.08656 0
M  V30 5898 H 559.384 -0.140321 -3.14087 0
M  V30 5899 N 563.156 0.464375 -1.50603 0
M  V30 5900 C 564.404 1.21356 -1.61608 0
M  V30 5901 C 564.725 1.92329 -0.321643 0
M  V30 5902 O 563.995 1.84403 0.661232 0
M  V30 5903 H 562.575 0.45094 -0.595535 0
M  V30 5904 H 565.237 0.535046 -1.87412 0
M  V30 5905 H 564.333 1.95783 -2.43054 0
M  V30 5906 N 564.634 1.40294 0.718013 0
M  V30 5907 C 565.862 1.4175 1.50714 0
M  V30 5908 C 566.277 0.0165366 1.88793 0
M  V30 5909 O 565.634 -0.958942 1.55276 0
M  V30 5910 C 565.685 2.30598 2.784 0
M  V30 5911 O 565.406 3.6524 2.41932 0
M  V30 5912 C 566.907 2.4062 3.72313 0
M  V30 5913 H 564.127 0.483565 0.465194 0
M  V30 5914 H 566.671 1.84316 0.885889 0
M  V30 5915 H 564.826 1.91401 3.36815 0
M  V30 5916 H 565.24 4.12402 3.24076 0
M  V30 5917 H 566.714 3.07001 4.58753 0
M  V30 5918 H 567.191 1.4305 4.15251 0
M  V30 5919 H 567.797 2.80359 3.19811 0
M  V30 5920 N 566.112 -0.949982 1.2575 0
M  V30 5921 C 567.352 -1.70994 1.11984 0
M  V30 5922 C 567.716 -1.89095 -0.332746 0
M  V30 5923 O 568.917 -2.62192 -0.592331 0
M  V30 5924 C 567.188 -3.05286 1.85837 0
M  V30 5925 S 568.747 -3.96477 1.88019 0
M  V30 5926 H 565.565 -0.587689 0.400178 0
M  V30 5927 H 568.167 -1.13271 1.59342 0
M  V30 5928 H 566.871 -2.89785 2.90608 0
M  V30 5929 H 566.402 -3.68069 1.38885 0
M  V30 5930 H 568.417 -4.86814 0.96057 0
M  V30 5931 N 567.59 -1.07411 -1.15328 0
M  V30 5932 C 568.818 -0.818782 -1.90009 0
M  V30 5933 C 569.233 0.628072 -1.78047 0
M  V30 5934 O 568.59 1.43085 -1.13282 0
M  V30 5935 C 568.641 -1.21874 -3.40337 0
M  V30 5936 O 568.362 -2.60883 -3.51954 0
M  V30 5937 C 569.863 -0.992796 -4.3204 0
M  V30 5938 H 567.083 -0.296007 -0.60218 0
M  V30 5939 H 569.627 -1.43073 -1.46117 0
M  V30 5940 H 567.782 -0.651103 -3.81889 0
M  V30 5941 H 568.196 -2.77216 -4.45255 0
M  V30 5942 H 569.67 -1.32215 -5.35932 0
M  V30 5943 H 570.147 0.0708331 -4.39143 0
M  V30 5944 H 570.753 -1.54537 -3.9623 0
M  V30 5945 N 569.068 1.32177 -0.85831 0
M  V30 5946 C 570.293 2.01847 -0.476718 0
M  V30 5947 C 570.718 1.64065 0.920021 0
M  V30 5948 O 570.076 0.843189 1.60499 0
M  V30 5949 C 570.124 3.55097 -0.627578 0
M  V30 5950 O 569.228 4.11012 0.338086 0
M  V30 5951 H 568.569 0.635907 -0.191099 0
M  V30 5952 H 571.099 1.68641 -1.15851 0
M  V30 5953 H 571.109 4.04718 -0.516476 0
M  V30 5954 H 569.784 3.81938 -1.64609 0
M  V30 5955 H 568.361 3.72451 0.182917 0
M  V30 5956 N 570.547 0.616602 1.45037 0
M  V30 5957 C 571.963 0.280994 1.57107 0
M  V30 5958 C 572.163 -1.21627 1.60653 0
M  V30 5959 O 571.219 -1.9997 1.54169 0
M  V30 5960 C 572.532 0.960116 2.8496 0
M  V30 5961 C 574.08 0.936884 2.98649 0
M  V30 5962 C 574.555 1.59619 4.29285 0
M  V30 5963 N 576.046 1.5621 4.36065 0
M  V30 5964 C 576.781 2.04131 5.35834 0
M  V30 5965 N 576.277 2.60177 6.4209 0
M  V30 5966 N 578.07 1.94845 5.27249 0
M  V30 5967 H 570.221 1.58867 1.40979 0
M  V30 5968 H 572.484 0.666024 0.674623 0
M  V30 5969 H 572.19 2.01473 2.88273 0
M  V30 5970 H 572.064 0.488921 3.74018 0
M  V30 5971 H 574.451 -0.109209 2.94898 0
M  V30 5972 H 574.532 1.44643 2.10979 0
M  V30 5973 H 574.176 2.64166 4.33796 0
M  V30 5974 H 574.106 1.06159 5.15789 0
M  V30 5975 H 576.597 1.15276 3.59889 0
M  V30 5976 H 576.91 2.94513 7.1448 0
M  V30 5977 H 575.255 2.64221 6.42816 0
M  V30 5978 H 578.446 1.50792 4.43147 0
M  V30 5979 H 578.619 2.32504 6.04852 0
M  V30 5980 N 572.025 -1.5352 0.356285 0
M  V30 5981 C 573.274 -2.00298 -0.237373 0
M  V30 5982 C 573.587 -1.24784 -1.50627 0
M  V30 5983 O 574.793 -1.62103 -2.17795 0
M  V30 5984 C 573.249 -3.56771 -0.473545 0
M  V30 5985 C 572.857 -4.41154 0.780183 0
M  V30 5986 C 574.601 -4.1193 -1.02537 0
M  V30 5987 C 572.508 -5.89161 0.514108 0
M  V30 5988 H 571.438 -0.748307 -0.092478 0
M  V30 5989 H 574.089 -1.77283 0.473588 0
M  V30 5990 H 572.471 -3.75902 -1.24553 0
M  V30 5991 H 573.645 -4.33797 1.55425 0
M  V30 5992 H 571.96 -3.97052 1.25455 0
M  V30 5993 H 574.557 -5.20133 -1.2396 0
M  V30 5994 H 574.9 -3.65943 -1.98473 0
M  V30 5995 H 575.433 -3.96561 -0.313775 0
M  V30 5996 H 572.172 -6.39408 1.44355 0
M  V30 5997 H 571.692 -5.9939 -0.221632 0
M  V30 5998 H 573.371 -6.46857 0.136122 0
M  V30 5999 N 573.503 -0.0852151 -1.57369 0
M  V30 6000 C 574.731 0.58946 -1.98325 0
M  V30 6001 C 575.146 1.62333 -0.96403 0
M  V30 6002 O 574.503 1.82438 0.0476395 0
M  V30 6003 C 574.554 1.24604 -3.39347 0
M  V30 6004 O 574.275 0.253532 -4.37366 0
M  V30 6005 C 575.776 2.00726 -3.95252 0
M  V30 6006 H 572.996 0.158783 -0.651942 0
M  V30 6007 H 575.54 -0.161584 -2.03861 0
M  V30 6008 H 573.695 1.94808 -3.34856 0
M  V30 6009 H 574.109 0.726207 -5.19448 0
M  V30 6010 H 575.583 2.42039 -4.96106 0
M  V30 6011 H 576.06 2.86919 -3.32527 0
M  V30 6012 H 576.666 1.3536 -4.03185 0
M  V30 6013 N 574.981 1.5647 0.188427 0
M  V30 6014 C 576.209 1.85131 0.923803 0
M  V30 6015 C 576.624 0.668537 1.76567 0
M  V30 6016 O 575.981 -0.362662 1.7886 0
M  V30 6017 C 576.032 3.12661 1.81453 0
M  V30 6018 O 575.753 4.26378 1.00665 0
M  V30 6019 C 577.254 3.54548 2.66103 0
M  V30 6020 H 574.474 0.614624 0.269218 0
M  V30 6021 H 577.018 2.03581 0.193671 0
M  V30 6022 H 575.173 2.96088 2.49821 0
M  V30 6023 H 575.587 4.99041 1.61425 0
M  V30 6024 H 577.061 4.4673 3.24247 0
M  V30 6025 H 577.538 2.77853 3.40139 0
M  V30 6026 H 578.144 3.73674 2.03096 0
M  V30 6027 N 576.459 -0.456382 1.50847 0
M  V30 6028 C 577.389 -1.56025 1.73719 0
M  V30 6029 C 578.37 -1.5967 0.586473 0
M  V30 6030 O 579.555 -1.75702 0.827185 0
M  V30 6031 C 576.685 -2.94251 1.84483 0
M  V30 6032 C 575.639 -3.05471 2.99786 0
M  V30 6033 C 574.965 -4.45489 2.95709 0
M  V30 6034 C 576.265 -2.81318 4.40065 0
M  V30 6035 H 577.959 -1.37138 2.66146 0
M  V30 6036 H 575.505 -0.658299 1.28072 0
M  V30 6037 H 577.458 -3.71417 1.99067 0
M  V30 6038 H 576.182 -3.14328 0.886891 0
M  V30 6039 H 574.841 -2.30741 2.84876 0
M  V30 6040 H 574.489 -4.62505 1.97732 0
M  V30 6041 H 574.189 -4.53929 3.73125 0
M  V30 6042 H 575.713 -5.24655 3.12362 0
M  V30 6043 H 577.127 -3.48226 4.55425 0
M  V30 6044 H 575.524 -3.01188 5.19043 0
M  V30 6045 H 576.594 -1.7706 4.51418 0
M  V30 6046 O 577.976 -1.4986 -0.602026 0
M  V30 6047 H 578.667 -1.47399 -1.25671 0
M  V30 END ATOM
M  V30 BEGIN BOND
M  V30 END BOND
M  V30 END CTAB
M  END
$$$$
