drugbank_target|P30874 Somatostatin receptor type 2 (DB04894; DB06663; DB06791; DB09099; DB13925; DB13985; DB15494; DB15873)
 OpenBabel12092120343D

  0  0  0     0  0            999 V3000
M  V30 BEGIN CTAB
M  V30 COUNTS 5899 5966 0 0 0
M  V30 BEGIN ATOM
M  V30 1 H -0.908 1.98254 -0.117106 0
M  V30 2 N 0 1.576 0 0
M  V30 3 C 0.933 2.03868 1.02534 0
M  V30 4 C 1.911 0.928543 1.3348 0
M  V30 5 O 3.095 1.19667 1.45644 0
M  V30 6 C 0.222 2.43627 2.35294 0
M  V30 7 C -0.732 3.65373 2.2001 0
M  V30 8 S 0.101 5.13292 1.52614 0
M  V30 9 C 1.257 5.56322 2.86805 0
M  V30 10 H 1.49 2.90518 0.631377 0
M  V30 11 H -0.977 1.52953 0.210867 0
M  V30 12 H 0.981 2.67203 3.11629 0
M  V30 13 H -0.358 1.57376 2.7183 0
M  V30 14 H -1.165 3.90944 3.18086 0
M  V30 15 H -1.563 3.418 1.51819 0
M  V30 16 H 0.729 5.58782 3.83104 0
M  V30 17 H 1.672 6.56266 2.65933 0
M  V30 18 H 2.08 4.83886 2.90714 0
M  V30 19 N 1.4781 -0.272755 1.55222 0
M  V30 20 C 2.7551 -1.02562 1.66555 0
M  V30 21 C 3.1351 -2.04282 0.532189 0
M  V30 22 O 2.4831 -2.23662 -0.467717 0
M  V30 23 C 2.6931 -1.6822 3.05782 0
M  V30 24 C 4.0411 -2.19373 3.63539 0
M  V30 25 O 5.0651 -1.78206 3.08417 0
M  V30 26 O 3.9241 -2.94883 4.60115 0
M  V30 27 H 1.0181 -0.475755 0.676451 0
M  V30 28 H 3.5641 -0.268593 1.67561 0
M  V30 29 H 2.3361 -0.945112 3.79715 0
M  V30 30 H 1.9591 -2.50609 3.08676 0
M  V30 31 N 2.9562 -1.48159 -0.537278 0
M  V30 32 C 3.8892 -1.567 -1.65893 0
M  V30 33 C 4.8672 -0.41787 -1.57139 0
M  V30 34 O 6.0512 -0.628461 -1.77715 0
M  V30 35 C 3.1782 -1.48818 -3.04255 0
M  V30 36 C 2.2242 -2.68482 -3.31391 0
M  V30 37 S 3.0572 -4.30516 -3.1846 0
M  V30 38 C 4.2132 -4.2522 -4.59281 0
M  V30 39 H 4.4462 -2.5159 -1.58397 0
M  V30 40 H 1.9792 -1.36602 -0.719672 0
M  V30 41 H 3.9372 -1.44958 -3.84054 0
M  V30 42 H 2.5982 -0.552777 -3.09198 0
M  V30 43 H 1.7912 -2.59085 -4.32309 0
M  V30 44 H 1.3932 -2.69567 -2.59248 0
M  V30 45 H 3.6852 -3.94703 -5.5065 0
M  V30 46 H 4.6282 -5.26292 -4.73732 0
M  V30 47 H 5.0362 -3.55791 -4.38261 0
M  V30 48 N 4.4343 0.785586 -1.36625 0
M  V30 49 C 5.3973 1.87999 -1.31107 0
M  V30 50 C 6.3973 1.59316 -0.217959 0
M  V30 51 O 7.5873 1.67656 -0.472977 0
M  V30 52 C 4.7193 3.24861 -1.03334 0
M  V30 53 H 5.9123 1.94307 -2.2844 0
M  V30 54 H 3.4653 0.983813 -1.21453 0
M  V30 55 H 4.2003 3.24235 -0.0647432 0
M  V30 56 H 3.9853 3.4707 -1.82441 0
M  V30 57 H 5.4753 4.04929 -1.02088 0
M  V30 58 N 5.9124 1.20967 1.01018 0
M  V30 59 C 7.1894 0.93264 1.71934 0
M  V30 60 C 7.5694 -0.55692 2.03621 0
M  V30 61 O 6.9174 -1.52035 1.7058 0
M  V30 62 C 7.1274 1.81233 2.98254 0
M  V30 63 C 8.4754 2.05804 3.71389 0
M  V30 64 O 9.4994 1.78539 3.08225 0
M  V30 65 O 8.3584 2.51888 4.84989 0
M  V30 66 H 5.4524 0.349272 0.749625 0
M  V30 67 H 7.9984 1.31871 1.06808 0
M  V30 68 H 6.7704 2.82067 2.71208 0
M  V30 69 H 6.3934 1.42674 3.7112 0
M  V30 70 N 7.3905 -1.2043 1.01659 0
M  V30 71 C 8.3005 -2.2689 0.596484 0
M  V30 72 C 9.3165 -1.70107 -0.36599 0
M  V30 73 O 10.4925 -2.00117 -0.226942 0
M  V30 74 C 7.5575 -3.4665 -0.0586659 0
M  V30 75 C 6.6185 -4.18662 0.949751 0
M  V30 76 C 5.8515 -5.32705 0.32577 0
M  V30 77 O 6.0745 -5.63656 -0.874509 0
M  V30 78 O 5.0085 -5.92803 1.04249 0
M  V30 79 H 8.8345 -2.65041 1.4828 0
M  V30 80 H 6.4195 -1.27048 0.786082 0
M  V30 81 H 8.3015 -4.19256 -0.424564 0
M  V30 82 H 6.9765 -3.10375 -0.91918 0
M  V30 83 H 5.8835 -3.48229 1.36702 0
M  V30 84 H 7.2165 -4.58878 1.78023 0
M  V30 85 N 8.8686 -0.792821 -1.36206 0
M  V30 86 C 10.2796 -0.429513 -1.81692 0
M  V30 87 C 10.6306 1.04695 -1.65932 0
M  V30 88 O 9.7556 1.81256 -1.18218 0
M  V30 89 C 10.3506 -0.772831 -3.29868 0
M  V30 90 C 8.9096 -0.462307 -3.7355 0
M  V30 91 C 8.0566 -1.00569 -2.5842 0
M  V30 92 H 11.0076 -0.985672 -1.24379 0
M  V30 93 H 11.0286 -0.0651928 -3.80444 0
M  V30 94 H 10.5406 -1.84747 -3.41307 0
M  V30 95 H 8.6416 0.604158 -3.67669 0
M  V30 96 H 8.7546 -0.985299 -4.68859 0
M  V30 97 H 7.1186 -0.428734 -2.51066 0
M  V30 98 H 7.9016 -2.08616 -2.72643 0
M  V30 99 N 10.3467 1.47872 -0.545128 0
M  V30 100 C 11.2767 2.32661 0.197793 0
M  V30 101 C 12.2577 1.43041 0.920504 0
M  V30 102 O 13.4427 1.71912 0.90333 0
M  V30 103 C 10.5727 3.24569 1.23582 0
M  V30 104 C 9.5267 4.23333 0.630323 0
M  V30 105 C 8.8527 5.0448 1.77211 0
M  V30 106 C 10.1527 5.20704 -0.407974 0
M  V30 107 H 11.8467 2.95024 -0.510045 0
M  V30 108 H 9.3927 1.4187 -0.246731 0
M  V30 109 H 11.3457 3.8272 1.76362 0
M  V30 110 H 10.0697 2.60236 1.97344 0
M  V30 111 H 8.7287 3.6639 0.123922 0
M  V30 112 H 8.3767 4.36561 2.49847 0
M  V30 113 H 8.0767 5.71339 1.37281 0
M  V30 114 H 9.6007 5.65487 2.3034 0
M  V30 115 H 11.0147 5.7329 0.033305 0
M  V30 116 H 9.4117 5.95699 -0.725486 0
M  V30 117 H 10.4817 4.66917 -1.30828 0
M  V30 118 N 11.8248 0.280983 1.55075 0
M  V30 119 C 12.7728 -0.619864 2.24188 0
M  V30 120 C 13.7668 -1.15315 1.24092 0
M  V30 121 O 14.9728 -1.1061 1.42005 0
M  V30 122 H 11.3478 -0.218459 0.719569 0
M  V30 123 H 13.3188 -0.0141831 2.98397 0
M  V30 124 C 12.0678 -1.7899 2.98091 0
M  V30 125 H 11.3908 -1.38874 3.74905 0
M  V30 126 H 12.8308 -2.39672 3.49762 0
M  V30 127 C 11.2898 -2.68192 2.03899 0
M  V30 128 O 11.8198 -3.6872 1.594 0
M  V30 129 N 10.0258 -2.35488 1.70275 0
M  V30 130 H 9.5728 -1.53787 2.06658 0
M  V30 131 H 9.5308 -2.95442 1.07524 0
M  V30 132 N 13.3029 -1.57598 0.00835791 0
M  V30 133 C 14.5509 -1.90551 -0.6734 0
M  V30 134 C 14.8719 -0.883301 -1.73847 0
M  V30 135 O 14.1419 0.0781442 -1.95744 0
M  V30 136 H 12.7219 -0.703312 -0.251717 0
M  V30 137 H 15.3839 -1.94833 0.0512592 0
M  V30 138 H 14.4799 -2.9056 -1.13935 0
M  V30 139 N 14.781 0.264519 -1.55364 0
M  V30 140 C 16.006 1.01726 -1.80739 0
M  V30 141 C 16.431 1.78836 -0.583044 0
M  V30 142 O 15.789 1.75167 0.467566 0
M  V30 143 C 15.837 1.94482 -3.03659 0
M  V30 144 O 14.941 3.03386 -2.7934 0
M  V30 145 H 14.282 0.290395 -0.597132 0
M  V30 146 H 16.812 0.290854 -2.02522 0
M  V30 147 H 16.822 2.36278 -3.32621 0
M  V30 148 H 15.497 1.37772 -3.92418 0
M  V30 149 H 14.074 2.65844 -2.61498 0
M  V30 150 N 16.2591 1.48442 0.529413 0
M  V30 151 C 17.2091 1.59407 1.63014 0
M  V30 152 C 18.1931 0.451166 1.54445 0
M  V30 153 O 19.3851 0.702635 1.62456 0
M  V30 154 C 16.5141 1.63746 3.01732 0
M  V30 155 C 15.6001 2.83518 3.15402 0
M  V30 156 N 15.9911 4.07929 2.99045 0
M  V30 157 C 14.2891 2.80862 3.46457 0
M  V30 158 C 14.9901 4.8829 3.16146 0
M  V30 159 N 13.9661 4.21117 3.43746 0
M  V30 160 H 17.7681 2.53343 1.48978 0
M  V30 161 H 15.2821 1.44821 0.734885 0
M  V30 162 H 17.2791 1.69695 3.80801 0
M  V30 163 H 15.9391 0.709264 3.16859 0
M  V30 164 H 16.9501 4.38357 2.75796 0
M  V30 165 H 13.6271 1.97301 3.67938 0
M  V30 166 H 15.0171 5.97028 3.08232 0
M  V30 167 N 17.7372 -0.778329 1.37039 0
M  V30 168 C 18.9652 -1.56734 1.35063 0
M  V30 169 C 19.3802 -1.88686 -0.0655597 0
M  V30 170 O 18.7372 -1.5096 -1.02554 0
M  V30 171 C 18.7882 -2.88163 2.18276 0
M  V30 172 O 18.5092 -2.57583 3.54376 0
M  V30 173 C 20.0102 -3.82422 2.24206 0
M  V30 174 H 17.2302 -0.485778 0.462883 0
M  V30 175 H 19.7742 -0.965185 1.8029 0
M  V30 176 H 17.9292 -3.44818 1.76576 0
M  V30 177 H 18.3432 -3.41699 3.97922 0
M  V30 178 H 19.8172 -4.71667 2.86765 0
M  V30 179 H 20.2942 -4.21078 1.24861 0
M  V30 180 H 20.9002 -3.31697 2.6619 0
M  V30 181 N 19.2153 -1.21501 -1.00376 0
M  V30 182 C 20.4613 -1.04457 -1.74529 0
M  V30 183 C 20.8163 0.417386 -1.87818 0
M  V30 184 O 20.1093 1.30556 -1.40234 0
M  V30 185 C 20.3033 -1.67673 -3.15627 0
M  V30 186 C 20.1323 -3.19865 -3.16096 0
M  V30 187 C 18.9023 -3.88915 -3.22604 0
M  V30 188 C 21.1003 -4.16936 -3.01112 0
M  V30 189 N 19.0823 -5.28284 -3.12712 0
M  V30 190 C 20.4533 -5.43066 -2.99131 0
M  V30 191 C 22.5083 -4.07968 -2.85423 0
M  V30 192 C 21.2113 -6.6126 -2.83068 0
M  V30 193 C 23.2373 -5.258 -2.70718 0
M  V30 194 C 22.5993 -6.50842 -2.69414 0
M  V30 195 H 18.6983 -0.436584 -0.648782 0
M  V30 196 H 21.2823 -1.53875 -1.19293 0
M  V30 197 H 19.4533 -1.20822 -3.6913 0
M  V30 198 H 21.1853 -1.43824 -3.78281 0
M  V30 199 H 17.9403 -3.39847 -3.2985 0
M  V30 200 H 18.3643 -6.01284 -3.11105 0
M  V30 201 H 23.0063 -3.1209 -2.85236 0
M  V30 202 H 20.7243 -7.57298 -2.82002 0
M  V30 203 H 24.3103 -5.20683 -2.59577 0
M  V30 204 H 23.1903 -7.40485 -2.5817 0
M  V30 205 N 20.6934 1.19889 -1.02296 0
M  V30 206 C 21.6234 2.25141 -0.619174 0
M  V30 207 C 22.6044 1.66051 0.368915 0
M  V30 208 O 23.7894 1.92546 0.252941 0
M  V30 209 C 20.9194 3.4728 0.0368783 0
M  V30 210 C 19.8734 4.19005 -0.872865 0
M  V30 211 C 19.1994 5.34637 -0.0822402 0
M  V30 212 C 20.4994 4.74452 -2.18387 0
M  V30 213 H 22.1934 2.59171 -1.49903 0
M  V30 214 H 19.7394 1.24579 -0.722222 0
M  V30 215 H 21.6924 4.20098 0.330958 0
M  V30 216 H 20.4164 3.12433 0.95149 0
M  V30 217 H 19.0754 3.48061 -1.15105 0
M  V30 218 H 18.7234 4.96034 0.83422 0
M  V30 219 H 18.4234 5.83557 -0.688149 0
M  V30 220 H 19.9474 6.10255 0.205238 0
M  V30 221 H 21.3614 5.39055 -1.95172 0
M  V30 222 H 19.7584 5.33834 -2.74119 0
M  V30 223 H 20.8284 3.92844 -2.84257 0
M  V30 224 N 22.1715 0.800033 1.35784 0
M  V30 225 C 23.3965 0.388511 2.03729 0
M  V30 226 C 23.8215 -0.990481 1.5991 0
M  V30 227 O 23.1795 -1.64013 0.772612 0
M  V30 228 C 23.2275 0.4726 3.5749 0
M  V30 229 O 22.3315 -0.51646 4.09153 0
M  V30 230 H 21.6725 0.163271 0.643614 0
M  V30 231 H 24.2025 1.0841 1.73518 0
M  V30 232 H 24.2125 0.34003 4.06581 0
M  V30 233 H 22.8875 1.47848 3.88734 0
M  V30 234 H 21.4645 -0.344673 3.71304 0
M  V30 235 N 23.6496 -1.47581 0.552962 0
M  V30 236 C 24.8986 -2.01684 0.0251995 0
M  V30 237 C 25.2116 -1.43317 -1.33115 0
M  V30 238 O 26.4176 -1.89057 -1.94858 0
M  V30 239 C 24.8736 -3.599 -0.00542052 0
M  V30 240 C 24.4816 -4.27257 1.34742 0
M  V30 241 C 26.2256 -4.21768 -0.4808 0
M  V30 242 C 24.1326 -5.77467 1.27614 0
M  V30 243 H 23.0626 -0.753979 0.00565033 0
M  V30 244 H 25.7136 -1.69616 0.70018 0
M  V30 245 H 24.0956 -3.88911 -0.745961 0
M  V30 246 H 25.2696 -4.09893 2.10534 0
M  V30 247 H 23.5846 -3.77358 1.76039 0
M  V30 248 H 26.1816 -5.31838 -0.55246 0
M  V30 249 H 26.5246 -3.88651 -1.49184 0
M  V30 250 H 27.0576 -3.97273 0.204752 0
M  V30 251 H 23.7966 -6.15196 2.26304 0
M  V30 252 H 23.3166 -5.9718 0.55996 0
M  V30 253 H 24.9956 -6.3959 0.976421 0
M  V30 254 N 25.1277 -0.289203 -1.54924 0
M  V30 255 C 26.5387 0.205791 -1.85562 0
M  V30 256 C 26.8897 1.54351 -1.2112 0
M  V30 257 O 26.0147 2.10435 -0.504601 0
M  V30 258 C 26.6097 0.380177 -3.3666 0
M  V30 259 C 25.1687 0.819395 -3.67373 0
M  V30 260 C 24.3157 -0.079159 -2.77187 0
M  V30 261 H 27.2667 -0.510577 -1.50262 0
M  V30 262 H 27.2877 1.21659 -3.60526 0
M  V30 263 H 26.7997 -0.593589 -3.83534 0
M  V30 264 H 24.9007 1.80413 -3.26009 0
M  V30 265 H 25.0137 0.646957 -4.74712 0
M  V30 266 H 23.3777 0.439565 -2.50878 0
M  V30 267 H 24.1607 -1.04906 -3.26878 0
M  V30 268 N 26.6058 1.57591 -0.0167156 0
M  V30 269 C 27.8528 1.91283 0.664597 0
M  V30 270 C 28.1808 0.891949 1.72842 0
M  V30 271 O 27.4358 -0.100931 1.9544 0
M  V30 272 C 27.7348 3.3172 1.33029 0
M  V30 273 C 27.4008 4.4914 0.398047 0
M  V30 274 C 26.0628 4.80992 0.141421 0
M  V30 275 C 28.4148 5.20634 -0.242825 0
M  V30 276 C 25.7428 5.81703 -0.764092 0
M  V30 277 C 28.0948 6.22311 -1.13632 0
M  V30 278 C 26.7588 6.52611 -1.40196 0
M  V30 279 H 26.0288 0.699956 0.243193 0
M  V30 280 H 28.6758 1.9135 -0.0758267 0
M  V30 281 H 26.9808 3.27856 2.14517 0
M  V30 282 H 28.6778 3.55055 1.86379 0
M  V30 283 H 25.2678 4.24262 0.608238 0
M  V30 284 H 29.4518 4.96267 -0.0576019 0
M  V30 285 H 24.7078 6.03532 -0.977732 0
M  V30 286 H 28.8818 6.76834 -1.63917 0
M  V30 287 H 26.5088 7.30467 -2.10529 0
M  V30 288 N 28.0839 -0.256276 1.55502 0
M  V30 289 C 29.3609 -1.00789 1.67633 0
M  V30 290 C 29.7409 -2.03706 0.553826 0
M  V30 291 O 29.0889 -2.24145 -0.443969 0
M  V30 292 C 29.2989 -1.64968 3.07549 0
M  V30 293 C 30.6469 -2.15505 3.65845 0
M  V30 294 O 31.6709 -1.74925 3.1029 0
M  V30 295 O 30.5299 -2.89986 4.63217 0
M  V30 296 H 27.6239 -0.468553 0.681459 0
M  V30 297 H 30.1699 -0.250806 1.67836 0
M  V30 298 H 28.9419 -0.904785 3.80696 0
M  V30 299 H 28.5649 -2.47321 3.11317 0
M  V30 300 N 29.562 -1.4872 -0.521534 0
M  V30 301 C 30.492 -1.66771 -1.63431 0
M  V30 302 C 31.473 -0.516499 -1.62069 0
M  V30 303 O 32.658 -0.750013 -1.79132 0
M  V30 304 C 29.788 -1.71515 -3.01993 0
M  V30 305 C 28.742 -2.86222 -3.18216 0
M  V30 306 C 28.068 -2.76061 -4.57924 0
M  V30 307 C 29.368 -4.27419 -3.00184 0
M  V30 308 H 31.062 -2.59932 -1.48579 0
M  V30 309 H 28.608 -1.25089 -0.713358 0
M  V30 310 H 30.561 -1.82731 -3.7972 0
M  V30 311 H 29.285 -0.749393 -3.17886 0
M  V30 312 H 27.944 -2.74575 -2.42908 0
M  V30 313 H 27.592 -1.77437 -4.70665 0
M  V30 314 H 27.292 -3.53037 -4.69722 0
M  V30 315 H 28.816 -2.89256 -5.37739 0
M  V30 316 H 30.23 -4.39855 -3.67697 0
M  V30 317 H 28.627 -5.05458 -3.2347 0
M  V30 318 H 29.697 -4.43293 -1.96518 0
M  V30 319 N 31.0401 0.771051 -1.3745 0
M  V30 320 C 31.9881 1.90574 -1.33358 0
M  V30 321 C 32.9821 1.67936 -0.22224 0
M  V30 322 O 34.1881 1.75717 -0.390304 0
M  V30 323 H 30.5631 0.626714 -0.415612 0
M  V30 324 H 32.5341 1.91142 -2.29144 0
M  V30 325 C 31.2831 3.27845 -1.15813 0
M  V30 326 H 30.6061 3.45842 -2.00583 0
M  V30 327 H 32.0461 4.07538 -1.17 0
M  V30 328 C 30.5051 3.36625 0.136165 0
M  V30 329 O 31.0351 3.85785 1.11949 0
M  V30 330 N 29.2411 2.89997 0.187099 0
M  V30 331 H 28.7881 2.50182 -0.613753 0
M  V30 332 H 28.7461 2.96252 1.05272 0
M  V30 333 N 32.5182 1.22032 0.997298 0
M  V30 334 C 33.7662 1.04016 1.73278 0
M  V30 335 C 34.0872 -0.426255 1.90284 0
M  V30 336 O 33.3572 -1.30694 1.45931 0
M  V30 337 H 31.9372 0.381897 0.642 0
M  V30 338 H 34.5992 1.5347 1.20137 0
M  V30 339 H 33.6952 1.51441 2.72896 0
M  V30 340 N 33.9963 -1.19345 1.0293 0
M  V30 341 C 35.2213 -1.93538 0.745511 0
M  V30 342 C 35.6463 -1.75007 -0.689511 0
M  V30 343 O 35.0043 -1.05265 -1.47611 0
M  V30 344 C 35.0523 -3.43336 1.10239 0
M  V30 345 O 34.1563 -4.11806 0.221289 0
M  V30 346 H 33.4973 -0.604193 0.275404 0
M  V30 347 H 36.0273 -1.5141 1.37609 0
M  V30 348 H 36.0373 -3.94004 1.05947 0
M  V30 349 H 34.7123 -3.56146 2.14786 0
M  V30 350 H 33.2893 -3.715 0.322842 0
M  V30 351 N 35.4744 -0.807222 -1.35358 0
M  V30 352 C 36.7204 -0.388463 -1.99045 0
M  V30 353 C 37.0534 1.04184 -1.63888 0
M  V30 354 O 36.3284 1.72292 -0.902535 0
M  V30 355 C 36.6114 -0.572783 -3.55515 0
M  V30 356 C 36.4644 -2.04807 -4.00468 0
M  V30 357 C 37.7834 0.00114064 -4.401 0
M  V30 358 H 34.9024 -0.142619 -0.723069 0
M  V30 359 H 37.5444 -1.01687 -1.60498 0
M  V30 360 H 35.6944 -0.0378425 -3.88482 0
M  V30 361 H 37.3664 -2.64544 -3.77908 0
M  V30 362 H 35.6094 -2.54427 -3.51353 0
M  V30 363 H 36.2804 -2.12792 -5.09337 0
M  V30 364 H 38.7564 -0.455716 -4.13597 0
M  V30 365 H 37.6324 -0.157737 -5.48673 0
M  V30 366 H 37.8934 1.09488 -4.28328 0
M  V30 367 N 36.9525 1.47285 -0.560781 0
M  V30 368 C 38.1985 2.02764 -0.0381184 0
M  V30 369 C 38.5315 1.43384 1.30976 0
M  V30 370 O 37.8065 0.590733 1.85312 0
M  V30 371 C 38.0895 3.60064 0.0511427 0
M  V30 372 C 37.9425 4.2987 -1.32408 0
M  V30 373 C 39.2615 4.33439 0.762795 0
M  V30 374 H 36.3805 0.736841 -0.0153264 0
M  V30 375 H 39.0225 1.75675 -0.723759 0
M  V30 376 H 37.1725 3.83274 0.635065 0
M  V30 377 H 38.8445 4.17989 -1.95148 0
M  V30 378 H 37.0875 3.90085 -1.8978 0
M  V30 379 H 37.7585 5.38478 -1.21431 0
M  V30 380 H 40.2345 4.15243 0.266965 0
M  V30 381 H 39.1105 5.43124 0.794221 0
M  V30 382 H 39.3715 4.02915 1.81966 0
M  V30 383 N 38.4306 0.297415 1.54768 0
M  V30 384 C 39.6556 -0.318435 2.04941 0
M  V30 385 C 40.0806 -1.4701 1.17345 0
M  V30 386 O 39.4386 -1.80436 0.176758 0
M  V30 387 C 39.4866 -0.755749 3.52592 0
M  V30 388 O 38.5906 -1.86088 3.68028 0
M  V30 389 H 37.9316 -0.062421 0.661059 0
M  V30 390 H 40.4616 0.438215 1.99852 0
M  V30 391 H 40.4716 -1.04552 3.94376 0
M  V30 392 H 39.1466 0.0867233 4.1581 0
M  V30 393 H 37.7236 -1.57193 3.38149 0
M  V30 394 N 39.9087 -1.5758 0.0250728 0
M  V30 395 C 41.1367 -1.9593 -0.664747 0
M  V30 396 C 41.5517 -0.901352 -1.65895 0
M  V30 397 O 40.9087 0.117255 -1.82123 0
M  V30 398 C 40.9597 -3.34342 -1.37468 0
M  V30 399 O 40.6807 -4.36079 -0.420324 0
M  V30 400 C 42.1817 -3.873 -2.1567 0
M  V30 401 H 39.4017 -0.645405 -0.183557 0
M  V30 402 H 41.9457 -2.04329 0.0836372 0
M  V30 403 H 40.1007 -3.27175 -2.0745 0
M  V30 404 H 40.5147 -5.16297 -0.923991 0
M  V30 405 H 41.9887 -4.86504 -2.60803 0
M  V30 406 H 42.4657 -3.21331 -2.99405 0
M  V30 407 H 43.0717 -3.97723 -1.50654 0
M  V30 408 N 41.3868 0.248026 -1.55636 0
M  V30 409 C 42.3348 1.32683 -1.91045 0
M  V30 410 C 43.3288 1.49883 -0.789401 0
M  V30 411 O 44.5348 1.51371 -0.974007 0
M  V30 412 H 40.9098 0.444272 -0.606734 0
M  V30 413 H 42.8808 1.00085 -2.81115 0
M  V30 414 C 41.6298 2.6755 -2.22064 0
M  V30 415 H 40.9528 2.55114 -3.07826 0
M  V30 416 H 42.3928 3.41912 -2.50743 0
M  V30 417 C 40.8518 3.20556 -1.0366 0
M  V30 418 O 41.3818 4.00695 -0.284016 0
M  V30 419 N 39.5878 2.78568 -0.82753 0
M  V30 420 H 39.1348 2.1351 -1.44123 0
M  V30 421 H 39.0928 3.14378 -0.0369803 0
M  V30 422 N 42.8649 1.48995 0.513639 0
M  V30 423 C 44.0929 1.61531 1.29288 0
M  V30 424 C 44.5079 0.281801 1.86685 0
M  V30 425 O 43.8649 -0.731111 1.67215 0
M  V30 426 C 43.9159 2.67449 2.43215 0
M  V30 427 O 43.6369 3.95626 1.88179 0
M  V30 428 C 45.1379 2.90575 3.34785 0
M  V30 429 H 42.3579 0.544165 0.392588 0
M  V30 430 H 44.9019 1.9494 0.617956 0
M  V30 431 H 43.0569 2.36853 3.0656 0
M  V30 432 H 43.4709 4.53868 2.62876 0
M  V30 433 H 44.9449 3.68449 4.11035 0
M  V30 434 H 45.4219 2.00011 3.91015 0
M  V30 435 H 46.0279 3.22538 2.77218 0
M  V30 436 N 44.343 -0.763751 1.37857 0
M  V30 437 C 45.568 -1.55805 1.36893 0
M  V30 438 C 45.993 -1.88054 -0.0416135 0
M  V30 439 O 45.351 -1.49825 -1.02089 0
M  V30 440 C 45.399 -2.84012 2.22192 0
M  V30 441 O 44.503 -3.78732 1.63204 0
M  V30 442 H 43.844 -0.471638 0.46739 0
M  V30 443 H 46.374 -0.944657 1.81487 0
M  V30 444 H 46.384 -3.33037 2.35691 0
M  V30 445 H 45.059 -2.59869 3.24716 0
M  V30 446 H 43.636 -3.37402 1.58791 0
M  V30 447 N 45.8211 -1.22559 -0.990812 0
M  V30 448 C 46.7691 -0.994798 -2.10253 0
M  V30 449 C 47.7631 0.0627798 -1.69284 0
M  V30 450 O 48.9691 -0.0898392 -1.79776 0
M  V30 451 H 45.3441 -0.304527 -0.687581 0
M  V30 452 H 47.3151 -1.93812 -2.26891 0
M  V30 453 C 46.0641 -0.591439 -3.42633 0
M  V30 454 H 45.3871 -1.3969 -3.74602 0
M  V30 455 H 46.8271 -0.469385 -4.21394 0
M  V30 456 C 45.2861 0.699232 -3.29564 0
M  V30 457 O 45.8161 1.75112 -3.61523 0
M  V30 458 N 44.0221 0.671182 -2.82743 0
M  V30 459 H 43.5691 -0.185136 -2.56934 0
M  V30 460 H 43.5271 1.53502 -2.7438 0
M  V30 461 N 47.2992 1.18797 -1.03562 0
M  V30 462 C 48.2312 2.21731 -0.580337 0
M  V30 463 C 49.2442 1.59051 0.347349 0
M  V30 464 O 50.4332 1.77929 0.142669 0
M  V30 465 C 47.5332 3.38459 0.172805 0
M  V30 466 C 46.7062 4.3072 -0.761496 0
M  V30 467 C 45.7652 5.26174 -0.0525547 0
M  V30 468 O 44.7912 5.65108 -0.681333 0
M  V30 469 N 45.9932 5.67624 1.21586 0
M  V30 470 H 48.7582 2.61417 -1.46565 0
M  V30 471 H 46.3192 1.33531 -0.915476 0
M  V30 472 H 48.3112 3.99335 0.656793 0
M  V30 473 H 46.8812 2.97507 0.959602 0
M  V30 474 H 46.1012 3.67525 -1.42544 0
M  V30 475 H 47.3892 4.89267 -1.39626 0
M  V30 476 H 46.7872 5.38038 1.74732 0
M  V30 477 H 45.3442 6.30721 1.64421 0
M  V30 478 N 48.7773 0.814389 1.34928 0
M  V30 479 C 50.0053 0.411136 2.02774 0
M  V30 480 C 50.4203 -0.980316 1.61354 0
M  V30 481 O 49.7773 -1.63299 0.814847 0
M  V30 482 C 49.8283 0.493865 3.58111 0
M  V30 483 O 49.5493 1.83047 3.98027 0
M  V30 484 C 51.0503 0.0844174 4.4322 0
M  V30 485 H 48.2703 0.166037 0.650133 0
M  V30 486 H 50.8143 1.10018 1.72384 0
M  V30 487 H 48.9693 -0.147006 3.87121 0
M  V30 488 H 49.3833 1.79872 4.92693 0
M  V30 489 H 50.8573 0.193404 5.51661 0
M  V30 490 H 51.3343 -0.97113 4.28329 0
M  V30 491 H 51.9403 0.69875 4.19521 0
M  V30 492 N 50.2554 -1.46986 0.568584 0
M  V30 493 C 51.1654 -2.33942 -0.17555 0
M  V30 494 C 52.1814 -1.48891 -0.90041 0
M  V30 495 O 53.3574 -1.81794 -0.86676 0
M  V30 496 C 50.4224 -3.25811 -1.18524 0
M  V30 497 C 49.4834 -4.26757 -0.466582 0
M  V30 498 C 48.7164 -5.14236 -1.42817 0
M  V30 499 O 48.9394 -5.04379 -2.66379 0
M  V30 500 O 47.8734 -5.94412 -0.946453 0
M  V30 501 H 51.6994 -2.98896 0.538036 0
M  V30 502 H 49.2844 -1.4573 0.329097 0
M  V30 503 H 51.1664 -3.82527 -1.76779 0
M  V30 504 H 49.8414 -2.63471 -1.88055 0
M  V30 505 H 48.7484 -3.73769 0.157451 0
M  V30 506 H 50.0814 -4.91843 0.187485 0
M  V30 507 N 51.7335 -0.305618 -1.54608 0
M  V30 508 C 53.1445 0.186098 -1.8577 0
M  V30 509 C 53.4955 1.53058 -1.22751 0
M  V30 510 O 52.6205 2.09888 -0.526893 0
M  V30 511 C 53.2155 0.344449 -3.37044 0
M  V30 512 C 51.7745 0.780384 -3.68221 0
M  V30 513 C 50.9215 -0.108554 -2.77087 0
M  V30 514 H 53.8725 -0.526485 -1.49712 0
M  V30 515 H 53.8935 1.17828 -3.61796 0
M  V30 516 H 53.4055 -0.634235 -3.82883 0
M  V30 517 H 51.5065 1.76945 -3.27904 0
M  V30 518 H 51.6195 0.596572 -4.75371 0
M  V30 519 H 49.9835 0.412931 -2.5133 0
M  V30 520 H 50.7665 -1.08368 -3.25747 0
M  V30 521 N 53.2116 1.57565 -0.0334293 0
M  V30 522 C 54.4416 1.95996 0.653398 0
M  V30 523 C 54.8496 0.908749 1.65947 0
M  V30 524 O 54.1926 -0.117471 1.83324 0
M  V30 525 C 54.2546 3.30589 1.41249 0
M  V30 526 C 53.9186 4.53503 0.564263 0
M  V30 527 C 54.9156 5.19647 -0.16225 0
M  V30 528 C 52.6006 4.99801 0.500398 0
M  V30 529 C 54.5946 6.30412 -0.941255 0
M  V30 530 C 52.2816 6.10448 -0.282308 0
M  V30 531 C 53.2796 6.75612 -1.00184 0
M  V30 532 O 52.9676 7.84134 -1.77171 0
M  V30 533 H 52.6996 0.65027 0.184728 0
M  V30 534 H 55.2536 2.05199 -0.0907841 0
M  V30 535 H 53.4836 3.17888 2.20191 0
M  V30 536 H 55.1726 3.53892 1.98784 0
M  V30 537 H 55.9386 4.84846 -0.12227 0
M  V30 538 H 51.8176 4.48883 1.05002 0
M  V30 539 H 55.3616 6.81208 -1.50339 0
M  V30 540 H 51.2586 6.44686 -0.323989 0
M  V30 541 H 52.0266 8.00822 -1.69194 0
M  V30 542 N 54.6897 -0.239769 1.55765 0
M  V30 543 C 55.9197 -0.982743 1.8173 0
M  V30 544 C 56.3277 -1.7917 0.607835 0
M  V30 545 O 55.6707 -1.78525 -0.432973 0
M  V30 546 C 55.7327 -1.96332 3.01155 0
M  V30 547 C 55.3967 -1.34062 4.36894 0
M  V30 548 C 56.3937 -0.739539 5.14613 0
M  V30 549 C 54.0787 -1.35784 4.83599 0
M  V30 550 C 56.0727 -0.163989 6.37189 0
M  V30 551 C 53.7597 -0.778441 6.06122 0
M  V30 552 C 54.7577 -0.182548 6.82756 0
M  V30 553 O 54.4457 0.387887 8.02964 0
M  V30 554 H 54.1777 -0.294481 0.608487 0
M  V30 555 H 56.7317 -0.26572 2.03674 0
M  V30 556 H 54.9617 -2.71884 2.74984 0
M  V30 557 H 56.6507 -2.57032 3.14149 0
M  V30 558 H 57.4167 -0.718687 4.79646 0
M  V30 559 H 53.2957 -1.81105 4.23936 0
M  V30 560 H 56.8397 0.301753 6.96947 0
M  V30 561 H 52.7367 -0.796645 6.40565 0
M  V30 562 H 53.5047 0.28044 8.18019 0
M  V30 563 N 56.1678 -1.49265 -0.50573 0
M  V30 564 C 57.4448 -1.49012 -1.26707 0
M  V30 565 C 57.8248 -0.215205 -2.1 0
M  V30 566 O 57.1728 0.802547 -2.13943 0
M  V30 567 C 57.3828 -2.7663 -2.12783 0
M  V30 568 C 58.7308 -3.25932 -2.72127 0
M  V30 569 O 59.7548 -2.77715 -2.23054 0
M  V30 570 O 58.6138 -4.09897 -3.61451 0
M  V30 571 H 55.7078 -0.596197 -0.57313 0
M  V30 572 H 58.2538 -1.61524 -0.52039 0
M  V30 573 H 57.0258 -3.60916 -1.5118 0
M  V30 574 H 56.6488 -2.66956 -2.94653 0
M  V30 575 N 57.6459 0.756429 -1.3826 0
M  V30 576 C 58.5759 1.88374 -1.37976 0
M  V30 577 C 59.5569 1.68311 -0.246082 0
M  V30 578 O 60.7419 1.88944 -0.44874 0
M  V30 579 C 57.8719 3.25864 -1.20125 0
M  V30 580 C 56.8259 3.60523 -2.30666 0
M  V30 581 C 56.1519 4.9672 -1.97923 0
M  V30 582 C 57.4519 3.65692 -3.72916 0
M  V30 583 H 59.1459 1.88869 -2.32312 0
M  V30 584 H 56.6919 0.907272 -1.11824 0
M  V30 585 H 58.6449 4.0438 -1.18552 0
M  V30 586 H 57.3689 3.25841 -0.222498 0
M  V30 587 H 56.0279 2.84324 -2.3142 0
M  V30 588 H 55.6759 4.93253 -0.985393 0
M  V30 589 H 55.3759 5.20878 -2.71955 0
M  V30 590 H 56.8999 5.77618 -1.97964 0
M  V30 591 H 58.3139 4.34328 -3.74208 0
M  V30 592 H 56.7109 4.01358 -4.4613 0
M  V30 593 H 57.7809 2.65987 -4.05436 0
M  V30 594 N 59.124 1.23083 0.984299 0
M  V30 595 C 60.352 1.08714 1.76037 0
M  V30 596 C 60.767 -0.361691 1.85303 0
M  V30 597 O 60.124 -1.25034 1.32939 0
M  V30 598 C 60.175 1.70206 3.18923 0
M  V30 599 O 59.896 3.09423 3.10144 0
M  V30 600 C 61.397 1.61227 4.12941 0
M  V30 601 H 58.617 0.380664 0.552572 0
M  V30 602 H 61.161 1.62853 1.23689 0
M  V30 603 H 59.316 1.20109 3.6831 0
M  V30 604 H 59.73 3.39188 4.00065 0
M  V30 605 H 61.204 2.08962 5.10919 0
M  V30 606 H 61.681 0.570375 4.35481 0
M  V30 607 H 62.287 2.10671 3.69456 0
M  V30 608 N 60.6021 -1.18246 1.0419 0
M  V30 609 C 61.8271 -1.92736 0.765996 0
M  V30 610 C 62.2521 -1.75728 -0.67091 0
M  V30 611 O 61.6101 -1.06825 -1.46486 0
M  V30 612 C 61.6581 -3.42148 1.13875 0
M  V30 613 O 60.7621 -4.11548 0.264954 0
M  V30 614 H 60.1031 -0.601238 0.281797 0
M  V30 615 H 62.6331 -1.49942 1.39207 0
M  V30 616 H 62.6431 -3.92858 1.1012 0
M  V30 617 H 61.3181 -3.53848 2.18551 0
M  V30 618 H 59.8951 -3.71137 0.362226 0
M  V30 619 N 62.0802 -0.821533 -1.34494 0
M  V30 620 C 63.0282 -0.230702 -2.31453 0
M  V30 621 C 64.0222 0.627793 -1.57338 0
M  V30 622 O 65.2282 0.519288 -1.72347 0
M  V30 623 H 61.6032 -0.0558577 -0.749923 0
M  V30 624 H 63.5742 -1.06332 -2.78812 0
M  V30 625 C 62.3232 0.59391 -3.4259 0
M  V30 626 H 61.6462 -0.0573588 -3.99759 0
M  V30 627 H 63.0862 0.973446 -4.12674 0
M  V30 628 C 61.5452 1.76568 -2.86924 0
M  V30 629 O 62.0752 2.8638 -2.81691 0
M  V30 630 N 60.2812 1.58198 -2.43766 0
M  V30 631 H 59.8282 0.68872 -2.48222 0
M  V30 632 H 59.7862 2.36752 -2.06871 0
M  V30 633 N 63.5583 1.46682 -0.576371 0
M  V30 634 C 64.5213 2.28707 0.150239 0
M  V30 635 C 65.5213 1.38035 0.824794 0
M  V30 636 O 66.7113 1.60476 0.677719 0
M  V30 637 C 63.8433 3.18248 1.22192 0
M  V30 638 H 65.0363 2.94423 -0.570521 0
M  V30 639 H 62.5893 1.52688 -0.334078 0
M  V30 640 H 63.3243 2.57265 1.97447 0
M  V30 641 H 63.1093 3.85 0.742812 0
M  V30 642 H 64.5993 3.80001 1.73172 0
M  V30 643 N 65.0364 0.313813 1.54444 0
M  V30 644 C 66.2824 -0.292108 2.00685 0
M  V30 645 C 66.6154 -1.52548 1.20177 0
M  V30 646 O 65.8904 -1.92452 0.281531 0
M  V30 647 C 66.1734 -0.635968 3.5444 0
M  V30 648 C 66.0264 0.607437 4.4568 0
M  V30 649 C 67.3454 -1.45747 4.15266 0
M  V30 650 H 64.4644 -0.104697 0.729526 0
M  V30 651 H 67.1064 0.428457 1.85106 0
M  V30 652 H 65.2564 -1.24986 3.67846 0
M  V30 653 H 66.9284 1.24581 4.44159 0
M  V30 654 H 65.1714 1.23822 4.15753 0
M  V30 655 H 65.8424 0.322515 5.51057 0
M  V30 656 H 68.3184 -0.938645 4.05375 0
M  V30 657 H 67.1944 -1.66683 5.2298 0
M  V30 658 H 67.4554 -2.45063 3.67963 0
M  V30 659 N 66.5145 -1.57545 0.0417849 0
M  V30 660 C 67.4445 -2.14009 -0.933929 0
M  V30 661 C 68.4255 -1.05938 -1.33083 0
M  V30 662 O 69.6105 -1.33833 -1.40721 0
M  V30 663 C 66.7405 -2.67747 -2.21199 0
M  V30 664 C 65.6945 -3.80718 -1.95544 0
M  V30 665 C 65.0205 -4.20935 -3.29724 0
M  V30 666 C 66.3205 -5.06258 -1.28452 0
M  V30 667 H 68.0145 -2.95788 -0.463645 0
M  V30 668 H 65.5605 -1.42285 -0.221573 0
M  V30 669 H 67.5135 -3.05886 -2.89848 0
M  V30 670 H 66.2375 -1.83147 -2.70416 0
M  V30 671 H 64.8965 -3.43037 -1.2931 0
M  V30 672 H 64.5445 -3.33298 -3.76724 0
M  V30 673 H 64.2445 -4.9707 -3.13361 0
M  V30 674 H 65.7685 -4.61666 -3.9962 0
M  V30 675 H 67.1825 -5.41903 -1.8712 0
M  V30 676 H 65.5795 -5.87475 -1.22445 0
M  V30 677 H 66.6495 -4.84207 -0.259219 0
M  V30 678 N 67.9926 0.231505 -1.5589 0
M  V30 679 C 69.2206 0.974505 -1.82513 0
M  V30 680 C 69.6356 1.78344 -0.619591 0
M  V30 681 O 68.9926 1.77792 0.411848 0
M  V30 682 C 69.0436 1.90007 -3.07538 0
M  V30 683 O 68.7646 1.12385 -4.2344 0
M  V30 684 C 70.2656 2.75779 -3.47075 0
M  V30 685 H 67.4856 0.286065 -0.606966 0
M  V30 686 H 70.0296 0.249739 -2.02969 0
M  V30 687 H 68.1846 2.57891 -2.89086 0
M  V30 688 H 68.5986 1.75125 -4.944 0
M  V30 689 H 70.0726 3.36443 -4.37619 0
M  V30 690 H 70.5496 3.47672 -2.68367 0
M  V30 691 H 71.1556 2.13323 -3.67931 0
M  V30 692 N 69.4707 1.49531 0.497807 0
M  V30 693 C 70.7177 1.59179 1.25173 0
M  V30 694 C 71.0457 0.279932 1.92475 0
M  V30 695 O 70.3007 -0.732383 1.81479 0
M  V30 696 C 70.5997 2.70252 2.33878 0
M  V30 697 C 70.2657 4.11644 1.84012 0
M  V30 698 C 68.9277 4.50121 1.70132 0
M  V30 699 C 71.2797 5.00121 1.46725 0
M  V30 700 C 68.6077 5.74845 1.17348 0
M  V30 701 C 70.9597 6.25366 0.95392 0
M  V30 702 C 69.6237 6.6267 0.801538 0
M  V30 703 H 68.8937 0.582478 0.45804 0
M  V30 704 H 71.5407 1.83373 0.551948 0
M  V30 705 H 69.8457 2.40041 3.09657 0
M  V30 706 H 71.5427 2.74925 2.9192 0
M  V30 707 H 68.1327 3.81274 1.95775 0
M  V30 708 H 72.3167 4.71048 1.56294 0
M  V30 709 H 67.5727 6.02444 1.04264 0
M  V30 710 H 71.7467 6.93301 0.656225 0
M  V30 711 H 69.3737 7.59197 0.390351 0
M  V30 712 N 70.9488 -0.749086 1.3866 0
M  V30 713 C 72.1978 -1.50371 1.3443 0
M  V30 714 C 72.5108 -1.95503 -0.0616397 0
M  V30 715 O 73.7168 -2.70554 -0.226489 0
M  V30 716 C 72.1728 -2.71644 2.36088 0
M  V30 717 C 71.7808 -2.3352 3.82325 0
M  V30 718 C 73.5248 -3.49518 2.40909 0
M  V30 719 C 71.4318 -3.51431 4.75658 0
M  V30 720 H 70.3618 -0.564628 0.499712 0
M  V30 721 H 73.0128 -0.818449 1.64237 0
M  V30 722 H 71.3948 -3.42175 1.9933 0
M  V30 723 H 72.5688 -1.70627 4.28046 0
M  V30 724 H 70.8838 -1.6877 3.80665 0
M  V30 725 H 73.4808 -4.37197 3.07836 0
M  V30 726 H 73.8238 -3.90992 1.42937 0
M  V30 727 H 74.3568 -2.86005 2.76489 0
M  V30 728 H 71.0958 -3.15019 5.74842 0
M  V30 729 H 70.6158 -4.13352 4.34627 0
M  V30 730 H 72.2948 -4.17953 4.93887 0
M  V30 731 N 72.4269 -1.23603 -0.977757 0
M  V30 732 C 73.6569 -1.09487 -1.75203 0
M  V30 733 C 74.0649 0.356321 -1.85814 0
M  V30 734 O 73.4079 1.25816 -1.33851 0
M  V30 735 C 73.4699 -1.64905 -3.19447 0
M  V30 736 C 73.1339 -3.13688 -3.32338 0
M  V30 737 C 74.1309 -4.10953 -3.18455 0
M  V30 738 C 71.8159 -3.53449 -3.56902 0
M  V30 739 C 73.8099 -5.45962 -3.28944 0
M  V30 740 C 71.4969 -4.88602 -3.6703 0
M  V30 741 C 72.4949 -5.84668 -3.53062 0
M  V30 742 O 72.1829 -7.17365 -3.62826 0
M  V30 743 H 71.9149 -0.38367 -0.556573 0
M  V30 744 H 74.4689 -1.6398 -1.23693 0
M  V30 745 H 72.6989 -1.04835 -3.72218 0
M  V30 746 H 74.3879 -1.46226 -3.78646 0
M  V30 747 H 75.1539 -3.81577 -2.99372 0
M  V30 748 H 71.0329 -2.79188 -3.66844 0
M  V30 749 H 74.5769 -6.20925 -3.17958 0
M  V30 750 H 70.4739 -5.17653 -3.85623 0
M  V30 751 H 71.2419 -7.2515 -3.79605 0
M  V30 752 N 73.905 1.17692 -1.04816 0
M  V30 753 C 75.152 1.87859 -0.75599 0
M  V30 754 C 75.48 1.80812 0.716752 0
M  V30 755 O 74.735 1.20819 1.53952 0
M  V30 756 C 75.034 3.37462 -1.17703 0
M  V30 757 C 74.7 3.64713 -2.65133 0
M  V30 758 C 73.362 3.71859 -3.05408 0
M  V30 759 C 75.714 3.76492 -3.60421 0
M  V30 760 C 73.042 3.88271 -4.39843 0
M  V30 761 C 75.394 3.94421 -4.94585 0
M  V30 762 C 74.058 3.99806 -5.3452 0
M  V30 763 H 73.328 0.687425 -0.276636 0
M  V30 764 H 75.975 1.39255 -1.31455 0
M  V30 765 H 74.28 3.88097 -0.537395 0
M  V30 766 H 75.977 3.90109 -0.928218 0
M  V30 767 H 72.567 3.59772 -2.32942 0
M  V30 768 H 76.751 3.70295 -3.30447 0
M  V30 769 H 72.007 3.90687 -4.70291 0
M  V30 770 H 76.181 4.02477 -5.68318 0
M  V30 771 H 73.808 4.12276 -6.38696 0
M  V30 772 N 75.3831 0.828654 1.34056 0
M  V30 773 C 76.6291 0.42008 1.98402 0
M  V30 774 C 76.9621 -1.01564 1.65525 0
M  V30 775 O 76.2371 -1.70834 0.929831 0
M  V30 776 C 76.5201 0.62927 3.54559 0
M  V30 777 C 76.3731 2.11152 3.97159 0
M  V30 778 C 77.6921 0.0688756 4.40046 0
M  V30 779 H 74.8111 0.154104 0.720709 0
M  V30 780 H 77.4531 1.04228 1.5886 0
M  V30 781 H 75.6031 0.0996418 3.88372 0
M  V30 782 H 77.2751 2.70522 3.73651 0
M  V30 783 H 75.5181 2.59985 3.47261 0
M  V30 784 H 76.1891 2.20868 5.05887 0
M  V30 785 H 78.6651 0.521458 4.1282 0
M  V30 786 H 77.5411 0.245006 5.48353 0
M  V30 787 H 77.8021 -1.0266 4.30015 0
M  V30 788 N 76.8612 -1.46375 0.584142 0
M  V30 789 C 78.1072 -2.02678 0.0703716 0
M  V30 790 C 78.4402 -1.4545 -1.28678 0
M  V30 791 O 77.7152 -0.62014 -1.84349 0
M  V30 792 C 77.9982 -3.60099 0.00614674 0
M  V30 793 C 77.8512 -4.27709 1.3923 0
M  V30 794 C 79.1702 -4.34598 -0.693742 0
M  V30 795 H 76.2892 -0.736504 0.027047 0
M  V30 796 H 78.9312 -1.74501 0.751615 0
M  V30 797 H 77.0812 -3.84236 -0.574009 0
M  V30 798 H 78.7532 -4.14832 2.01773 0
M  V30 799 H 76.9962 -3.87016 1.95962 0
M  V30 800 H 77.6672 -5.36478 1.29982 0
M  V30 801 H 80.1432 -4.15615 -0.200869 0
M  V30 802 H 79.0192 -5.44318 -0.707714 0
M  V30 803 H 79.2802 -4.05759 -1.75533 0
M  V30 804 N 78.3393 -0.321999 -1.54275 0
M  V30 805 C 79.5793 0.281657 -2.0245 0
M  V30 806 C 79.9433 1.49468 -1.20513 0
M  V30 807 O 81.1443 2.17109 -1.58484 0
M  V30 808 C 79.4153 0.609014 -3.52173 0
M  V30 809 S 80.9743 1.19255 -4.22284 0
M  V30 810 H 77.7923 0.0852825 -0.705867 0
M  V30 811 H 80.3943 -0.454758 -1.90137 0
M  V30 812 H 79.0983 -0.281982 -4.0943 0
M  V30 813 H 78.6293 1.37567 -3.68563 0
M  V30 814 H 80.6443 2.47944 -4.29812 0
M  V30 815 N 79.8174 1.5752 -0.0501392 0
M  V30 816 C 81.0664 1.91827 0.623328 0
M  V30 817 C 81.3794 0.930222 1.72065 0
M  V30 818 O 82.5854 1.1653 2.4522 0
M  V30 819 C 81.0414 3.40692 1.16003 0
M  V30 820 C 80.6494 4.479 0.0948811 0
M  V30 821 C 82.3934 3.84034 1.80881 0
M  V30 822 C 80.3004 5.87879 0.644411 0
M  V30 823 H 79.2304 0.715918 0.236596 0
M  V30 824 H 81.8814 1.83115 -0.118861 0
M  V30 825 H 80.2634 3.44405 1.9545 0
M  V30 826 H 81.4374 4.55775 -0.678675 0
M  V30 827 H 79.7524 4.13892 -0.45637 0
M  V30 828 H 82.3494 4.85984 2.22988 0
M  V30 829 H 82.6924 3.20225 2.6601 0
M  V30 830 H 83.2254 3.82833 1.0809 0
M  V30 831 H 79.9644 6.55282 -0.169229 0
M  V30 832 H 79.4844 5.83567 1.38598 0
M  V30 833 H 81.1634 6.37098 1.12763 0
M  V30 834 N 81.2955 -0.223234 1.56011 0
M  V30 835 C 82.5445 -0.945912 1.78144 0
M  V30 836 C 82.8575 -1.85567 0.618396 0
M  V30 837 O 84.0635 -2.61688 0.723318 0
M  V30 838 C 82.5195 -1.73216 3.15475 0
M  V30 839 C 82.1275 -0.868619 4.39499 0
M  V30 840 C 83.8715 -2.44615 3.46935 0
M  V30 841 C 81.7785 -1.65212 5.67855 0
M  V30 842 H 80.7085 -0.356929 0.664167 0
M  V30 843 H 83.3595 -0.199845 1.82409 0
M  V30 844 H 81.7415 -2.52107 3.05382 0
M  V30 845 H 82.9155 -0.120366 4.60643 0
M  V30 846 H 81.2305 -0.26683 4.15544 0
M  V30 847 H 83.8275 -3.03732 4.40058 0
M  V30 848 H 84.1705 -3.17417 2.69355 0
M  V30 849 H 84.7035 -1.72715 3.58349 0
M  V30 850 H 81.4425 -0.967407 6.48322 0
M  V30 851 H 80.9625 -2.37503 5.50774 0
M  V30 852 H 82.6415 -2.21322 6.07968 0
M  V30 853 N 82.7736 -1.49793 -0.48987 0
M  V30 854 C 84.0216 -1.59525 -1.24081 0
M  V30 855 C 84.3426 -0.288953 -1.92847 0
M  V30 856 O 83.6126 0.692436 -1.83254 0
M  V30 857 H 82.1926 -0.587796 -0.460983 0
M  V30 858 H 84.8546 -1.86477 -0.566778 0
M  V30 859 H 83.9506 -2.39696 -1.99881 0
M  V30 860 N 84.2517 0.741722 -1.39055 0
M  V30 861 C 85.1817 1.869 -1.39966 0
M  V30 862 C 86.1627 1.6804 -0.26392 0
M  V30 863 O 87.3477 1.88458 -0.468755 0
M  V30 864 C 84.4777 3.24572 -1.23574 0
M  V30 865 C 83.4317 3.58056 -2.34477 0
M  V30 866 C 82.7577 4.94593 -2.0318 0
M  V30 867 C 84.0577 3.61716 -3.76774 0
M  V30 868 H 85.7517 1.86395 -2.34302 0
M  V30 869 H 83.2977 0.895361 -1.1278 0
M  V30 870 H 85.2507 4.031 -1.22834 0
M  V30 871 H 83.9747 3.25587 -0.257045 0
M  V30 872 H 82.6337 2.81854 -2.34423 0
M  V30 873 H 82.2817 4.92181 -1.03765 0
M  V30 874 H 81.9817 5.17964 -2.77465 0
M  V30 875 H 83.5057 5.75486 -2.04079 0
M  V30 876 H 84.9197 4.30335 -3.78794 0
M  V30 877 H 83.3167 3.96603 -4.50362 0
M  V30 878 H 84.3867 2.61672 -4.08235 0
M  V30 879 N 85.7298 1.2412 0.971189 0
M  V30 880 C 86.9698 1.09066 1.7287 0
M  V30 881 C 87.3338 -0.364794 1.88503 0
M  V30 882 O 88.5348 -0.636748 2.61149 0
M  V30 883 C 86.8058 1.80629 3.08396 0
M  V30 884 S 88.3648 1.81263 3.99611 0
M  V30 885 H 85.1828 0.390145 0.594397 0
M  V30 886 H 87.7848 1.57397 1.15959 0
M  V30 887 H 86.4888 2.85647 2.94676 0
M  V30 888 H 86.0198 1.32617 3.70373 0
M  V30 889 H 88.0348 0.877804 4.88374 0
M  V30 890 N 87.2079 -1.17134 1.05439 0
M  V30 891 C 88.4559 -1.87085 0.764429 0
M  V30 892 C 88.7769 -1.81584 -0.710787 0
M  V30 893 O 88.0469 -1.24349 -1.51374 0
M  V30 894 H 86.6269 -0.692627 0.279779 0
M  V30 895 H 89.2889 -1.42087 1.33406 0
M  V30 896 H 88.3849 -2.92759 1.0816 0
M  V30 897 N 88.686 -0.835752 -1.33615 0
M  V30 898 C 89.634 -0.255238 -2.31195 0
M  V30 899 C 90.628 0.61107 -1.57995 0
M  V30 900 O 91.834 0.500979 -1.72888 0
M  V30 901 H 88.209 -0.0638085 -0.749288 0
M  V30 902 H 90.18 -1.09283 -2.77669 0
M  V30 903 C 88.929 0.55754 -3.43201 0
M  V30 904 H 88.252 -0.0997553 -3.99676 0
M  V30 905 H 89.692 0.929622 -4.13683 0
M  V30 906 C 88.151 1.73515 -2.88781 0
M  V30 907 O 88.681 2.83376 -2.84712 0
M  V30 908 N 86.887 1.55603 -2.4543 0
M  V30 909 H 86.434 0.662354 -2.48939 0
M  V30 910 H 86.392 2.34545 -2.09371 0
M  V30 911 N 90.1641 1.46063 -0.591896 0
M  V30 912 C 91.3921 2.06717 -0.0868936 0
M  V30 913 C 91.8071 1.43916 1.22203 0
M  V30 914 O 91.1641 0.547698 1.74088 0
M  V30 915 C 91.2151 3.6142 0.0758725 0
M  V30 916 O 90.9361 4.21874 -1.18126 0
M  V30 917 C 92.4371 4.39025 0.61416 0
M  V30 918 H 89.6571 0.668162 -0.0616518 0
M  V30 919 H 92.2011 1.8755 -0.815175 0
M  V30 920 H 90.3561 3.79983 0.754413 0
M  V30 921 H 90.7701 5.14861 -1.00092 0
M  V30 922 H 92.2441 5.4783 0.677193 0
M  V30 923 H 92.7211 4.07708 1.63312 0
M  V30 924 H 93.3271 4.2529 -0.0298142 0
M  V30 925 N 91.6422 0.330177 1.54103 0
M  V30 926 C 92.5722 -0.525353 2.27513 0
M  V30 927 C 93.5532 -1.11383 1.2856 0
M  V30 928 O 94.7382 -1.13773 1.57383 0
M  V30 929 C 91.8682 -1.6831 3.03791 0
M  V30 930 C 90.8222 -1.2236 4.10137 0
M  V30 931 C 90.1482 -2.46882 4.74293 0
M  V30 932 C 91.4482 -0.333697 5.21233 0
M  V30 933 H 93.1422 0.087013 2.99274 0
M  V30 934 H 90.6882 0.0432893 1.43935 0
M  V30 935 H 92.6412 -2.28795 3.5388 0
M  V30 936 H 91.3652 -2.32216 2.29659 0
M  V30 937 H 90.0242 -0.64165 3.60941 0
M  V30 938 H 89.6722 -3.09165 3.96769 0
M  V30 939 H 89.3722 -2.16825 5.46133 0
M  V30 940 H 90.8962 -3.08117 5.27159 0
M  V30 941 H 92.3102 -0.845013 5.67038 0
M  V30 942 H 90.7072 -0.125612 5.99969 0
M  V30 943 H 91.7772 0.633724 4.80741 0
M  V30 944 N 93.1203 -1.57491 0.0584922 0
M  V30 945 C 94.3663 -1.93264 -0.614558 0
M  V30 946 C 94.6993 -0.937717 -1.7006 0
M  V30 947 O 93.9743 0.0351652 -1.94468 0
M  V30 948 C 94.2573 -3.3938 -1.20386 0
M  V30 949 C 94.1103 -4.49625 -0.125375 0
M  V30 950 C 95.4293 -3.86039 -2.11334 0
M  V30 951 H 92.5483 -0.702791 -0.221933 0
M  V30 952 H 95.1903 -1.8961 0.12175 0
M  V30 953 H 93.3403 -3.42626 -1.83139 0
M  V30 954 H 95.0123 -4.58506 0.506971 0
M  V30 955 H 93.2553 -4.30354 0.545672 0
M  V30 956 H 93.9263 -5.48967 -0.577861 0
M  V30 957 H 96.4023 -3.84716 -1.58534 0
M  V30 958 H 95.2783 -4.88914 -2.49507 0
M  V30 959 H 95.5393 -3.23215 -3.01636 0
M  V30 960 N 94.5984 0.214957 -1.56127 0
M  V30 961 C 95.8474 0.936451 -1.78643 0
M  V30 962 C 96.1604 1.85237 -0.628229 0
M  V30 963 O 97.3664 2.613 -0.737186 0
M  V30 964 C 95.8224 1.7154 -3.16389 0
M  V30 965 C 95.4304 0.845299 -4.39953 0
M  V30 966 C 97.1744 2.42772 -3.48227 0
M  V30 967 C 95.0814 1.62198 -5.68723 0
M  V30 968 H 94.0114 0.353401 -0.666051 0
M  V30 969 H 96.6624 0.190169 -1.82512 0
M  V30 970 H 95.0444 2.50484 -3.06715 0
M  V30 971 H 96.2184 0.0959353 -4.607 0
M  V30 972 H 94.5334 0.244789 -4.1568 0
M  V30 973 H 97.1304 3.01394 -4.41663 0
M  V30 974 H 97.4734 3.15984 -2.71035 0
M  V30 975 H 98.0064 1.70813 -3.5926 0
M  V30 976 H 94.7454 0.933011 -6.48826 0
M  V30 977 H 94.2654 2.34579 -5.52026 0
M  V30 978 H 95.9444 2.18095 -6.09133 0
M  V30 979 N 96.0765 1.50051 0.48192 0
M  V30 980 C 97.3065 1.63999 1.2565 0
M  V30 981 C 97.7145 0.318288 1.86504 0
M  V30 982 O 97.0575 -0.708534 1.69486 0
M  V30 983 C 97.1195 2.66504 2.4128 0
M  V30 984 C 96.7835 4.10352 2.01148 0
M  V30 985 C 97.7805 4.96562 1.54021 0
M  V30 986 C 95.4655 4.56203 2.10199 0
M  V30 987 C 97.4595 6.26668 1.16473 0
M  V30 988 C 95.1465 5.86318 1.72264 0
M  V30 989 C 96.1445 6.71375 1.25477 0
M  V30 990 O 95.8325 7.99062 0.880626 0
M  V30 991 H 95.5645 0.55456 0.386574 0
M  V30 992 H 98.1185 1.96954 0.582944 0
M  V30 993 H 96.3485 2.28769 3.11772 0
M  V30 994 H 98.0375 2.69783 3.03268 0
M  V30 995 H 98.8035 4.62358 1.46458 0
M  V30 996 H 94.6825 3.90152 2.45566 0
M  V30 997 H 98.2265 6.93011 0.798841 0
M  V30 998 H 94.1235 6.20046 1.79482 0
M  V30 999 H 94.8915 8.12239 1.01043 0
M  V30 1000 N 97.5546 -0.734337 1.39446 0
M  V30 1001 C 98.8006 -1.49613 1.36908 0
M  V30 1002 C 99.1336 -1.94169 -0.0347829 0
M  V30 1003 O 98.4086 -1.66833 -0.999847 0
M  V30 1004 C 98.6916 -2.73534 2.34203 0
M  V30 1005 C 98.5446 -2.34993 3.83534 0
M  V30 1006 C 99.8636 -3.75635 2.29317 0
M  V30 1007 H 96.9826 -0.542714 0.498629 0
M  V30 1008 H 99.6246 -0.839597 1.70443 0
M  V30 1009 H 97.7746 -3.29553 2.05736 0
M  V30 1010 H 99.4466 -1.84601 4.22753 0
M  V30 1011 H 97.6896 -1.67213 4.00278 0
M  V30 1012 H 98.3606 -3.23738 4.47099 0
M  V30 1013 H 100.837 -3.29203 2.54489 0
M  V30 1014 H 99.7126 -4.60008 2.99472 0
M  V30 1015 H 99.9736 -4.22603 1.29842 0
M  V30 1016 N 99.0327 -1.24633 -0.964593 0
M  V30 1017 C 100.282 -1.08188 -1.7023 0
M  V30 1018 C 100.595 0.37873 -1.91898 0
M  V30 1019 O 101.801 0.663427 -2.6327 0
M  V30 1020 C 100.257 -1.88773 -3.06419 0
M  V30 1021 C 99.8647 -3.39263 -2.92582 0
M  V30 1022 C 101.609 -1.80867 -3.84041 0
M  V30 1023 C 99.5157 -4.1218 -4.24101 0
M  V30 1024 H 98.4457 -0.401245 -0.638372 0
M  V30 1025 H 101.097 -1.48742 -1.07462 0
M  V30 1026 H 99.4787 -1.41035 -3.70034 0
M  V30 1027 H 100.653 -3.94603 -2.37961 0
M  V30 1028 H 98.9677 -3.48154 -2.28424 0
M  V30 1029 H 101.565 -2.32646 -4.81435 0
M  V30 1030 H 101.908 -0.774543 -4.09031 0
M  V30 1031 H 102.441 -2.26301 -3.27159 0
M  V30 1032 H 99.1797 -5.15965 -4.04303 0
M  V30 1033 H 98.6997 -3.61626 -4.78526 0
M  V30 1034 H 100.379 -4.19349 -4.92702 0
M  V30 1035 N 100.511 1.16574 -1.06058 0
M  V30 1036 C 101.441 2.23057 -0.690488 0
M  V30 1037 C 102.422 1.67141 0.315901 0
M  V30 1038 O 103.607 1.93253 0.191556 0
M  V30 1039 C 100.737 3.47222 -0.073625 0
M  V30 1040 C 99.6908 4.16016 -1.00573 0
M  V30 1041 C 99.0168 5.34104 -0.252289 0
M  V30 1042 C 100.317 4.67264 -2.33371 0
M  V30 1043 H 102.011 2.54271 -1.58072 0
M  V30 1044 H 99.5568 1.22218 -0.76149 0
M  V30 1045 H 101.51 4.20939 0.19714 0
M  V30 1046 H 100.234 3.15302 0.85161 0
M  V30 1047 H 98.8928 3.44223 -1.2612 0
M  V30 1048 H 98.5408 4.98437 0.675988 0
M  V30 1049 H 98.2408 5.81072 -0.873455 0
M  V30 1050 H 99.7648 6.10599 0.0109857 0
M  V30 1051 H 101.179 5.32573 -2.12223 0
M  V30 1052 H 99.5758 5.24843 -2.90963 0
M  V30 1053 H 100.646 3.83602 -2.96611 0
M  V30 1054 N 101.989 0.842826 1.3317 0
M  V30 1055 C 103.405 0.531128 1.50503 0
M  V30 1056 C 103.605 -0.940734 1.78192 0
M  V30 1057 O 102.661 -1.72436 1.84451 0
M  V30 1058 C 103.974 1.40789 2.65705 0
M  V30 1059 C 105.522 1.40708 2.79589 0
M  V30 1060 C 105.997 2.26878 3.97857 0
M  V30 1061 N 107.488 2.24609 4.05099 0
M  V30 1062 C 108.223 2.88019 4.95815 0
M  V30 1063 N 107.719 3.60496 5.9162 0
M  V30 1064 N 109.512 2.77469 4.88843 0
M  V30 1065 H 101.663 1.79557 1.1346 0
M  V30 1066 H 103.926 0.766267 0.558156 0
M  V30 1067 H 103.632 2.454 2.51936 0
M  V30 1068 H 103.506 1.08677 3.61205 0
M  V30 1069 H 105.893 0.368668 2.92788 0
M  V30 1070 H 105.974 1.76829 1.84838 0
M  V30 1071 H 105.618 3.3078 3.85418 0
M  V30 1072 H 105.548 1.88096 4.91861 0
M  V30 1073 H 108.039 1.71906 3.36536 0
M  V30 1074 H 108.352 4.06076 6.57512 0
M  V30 1075 H 106.697 3.64604 5.91683 0
M  V30 1076 H 109.888 2.20406 4.12963 0
M  V30 1077 H 110.061 3.2717 5.59342 0
M  V30 1078 N 103.467 -1.45747 0.599634 0
M  V30 1079 C 104.697 -2.06369 0.0977132 0
M  V30 1080 C 105.105 -1.44624 -1.21985 0
M  V30 1081 O 104.448 -0.551831 -1.75216 0
M  V30 1082 C 104.51 -3.59284 -0.124673 0
M  V30 1083 C 104.174 -4.43318 1.10987 0
M  V30 1084 C 105.171 -4.78796 2.02609 0
M  V30 1085 C 102.856 -4.84194 1.33647 0
M  V30 1086 C 104.85 -5.53997 3.15224 0
M  V30 1087 C 102.537 -5.5915 2.46565 0
M  V30 1088 C 103.535 -5.93968 3.37182 0
M  V30 1089 O 103.223 -6.67405 4.48136 0
M  V30 1090 H 102.955 -0.673122 0.0623153 0
M  V30 1091 H 105.509 -1.88104 0.824981 0
M  V30 1092 H 103.739 -3.75919 -0.906745 0
M  V30 1093 H 105.428 -4.01775 -0.577201 0
M  V30 1094 H 106.194 -4.47781 1.86325 0
M  V30 1095 H 102.073 -4.56534 0.64016 0
M  V30 1096 H 105.617 -5.81091 3.85978 0
M  V30 1097 H 101.514 -5.89579 2.62805 0
M  V30 1098 H 102.282 -6.85847 4.46717 0
M  V30 1099 N 104.945 -0.338344 -1.53925 0
M  V30 1100 C 105.908 0.508299 -2.23493 0
M  V30 1101 C 106.908 1.03175 -1.23335 0
M  V30 1102 O 108.098 0.921826 -1.47811 0
M  V30 1103 C 105.23 1.70754 -2.95052 0
M  V30 1104 H 106.423 -0.100058 -2.99733 0
M  V30 1105 H 103.976 -0.0896198 -1.56043 0
M  V30 1106 H 104.711 2.35474 -2.22986 0
M  V30 1107 H 104.496 1.33946 -3.68512 0
M  V30 1108 H 105.986 2.30818 -3.48013 0
M  V30 1109 N 106.423 1.57458 -0.0668435 0
M  V30 1110 C 107.37 2.12439 0.902122 0
M  V30 1111 C 108.34 1.03565 1.2986 0
M  V30 1112 O 109.525 1.312 1.38532 0
M  V30 1113 C 106.665 2.6865 2.16614 0
M  V30 1114 C 105.778 3.91663 1.82274 0
M  V30 1115 C 104.913 4.36134 3.0325 0
M  V30 1116 C 103.952 5.51808 2.64904 0
M  V30 1117 N 103.089 5.9126 3.78624 0
M  V30 1118 H 107.929 2.94934 0.426382 0
M  V30 1119 H 105.466 1.4575 0.198819 0
M  V30 1120 H 107.424 2.99346 2.90599 0
M  V30 1121 H 106.054 1.88928 2.61737 0
M  V30 1122 H 105.106 3.6746 0.983719 0
M  V30 1123 H 106.418 4.75693 1.50059 0
M  V30 1124 H 105.572 4.68465 3.85519 0
M  V30 1125 H 104.311 3.50948 3.38655 0
M  V30 1126 H 103.316 5.19133 1.81055 0
M  V30 1127 H 104.541 6.38722 2.30675 0
M  V30 1128 H 102.487 5.09024 4.138 0
M  V30 1129 H 102.404 6.70018 3.5016 0
M  V30 1130 H 103.672 6.28212 4.61486 0
M  V30 1131 N 107.901 -0.206675 1.56239 0
M  V30 1132 C 108.834 -1.28383 1.88661 0
M  V30 1133 C 109.812 -1.44504 0.745481 0
M  V30 1134 O 110.996 -1.60079 0.995336 0
M  V30 1135 C 108.123 -2.65211 2.10667 0
M  V30 1136 C 107.169 -2.66025 3.33366 0
M  V30 1137 S 108.002 -2.18609 4.88846 0
M  V30 1138 C 109.158 -3.57283 5.13906 0
M  V30 1139 H 109.391 -1.00691 2.7973 0
M  V30 1140 H 106.924 -0.409627 1.48867 0
M  V30 1141 H 108.882 -3.43979 2.24029 0
M  V30 1142 H 107.543 -2.90121 1.20369 0
M  V30 1143 H 106.736 -3.66607 3.45855 0
M  V30 1144 H 106.338 -1.95331 3.18938 0
M  V30 1145 H 108.63 -4.53074 5.03717 0
M  V30 1146 H 109.573 -3.49699 6.15724 0
M  V30 1147 H 109.981 -3.51659 4.41583 0
M  V30 1148 N 109.379 -1.50304 -0.473955 0
M  V30 1149 C 110.326 -1.68959 -1.57231 0
M  V30 1150 C 111.296 -0.530899 -1.57387 0
M  V30 1151 O 112.481 -0.761133 -1.74961 0
M  V30 1152 C 109.621 -1.7871 -2.95223 0
M  V30 1153 C 108.734 -3.06061 -3.04878 0
M  V30 1154 C 107.869 -3.06626 -4.33767 0
M  V30 1155 C 106.908 -4.28443 -4.37154 0
M  V30 1156 N 106.045 -4.26763 -5.5751 0
M  V30 1157 H 110.885 -2.6273 -1.40631 0
M  V30 1158 H 108.422 -1.30241 -0.683789 0
M  V30 1159 H 110.38 -1.82344 -3.75242 0
M  V30 1160 H 109.01 -0.883806 -3.10465 0
M  V30 1161 H 108.062 -3.11911 -2.17751 0
M  V30 1162 H 109.374 -3.96039 -3.0324 0
M  V30 1163 H 108.528 -3.08973 -5.22131 0
M  V30 1164 H 107.267 -2.14473 -4.3801 0
M  V30 1165 H 106.272 -4.2631 -3.47188 0
M  V30 1166 H 107.497 -5.2182 -4.34605 0
M  V30 1167 H 105.443 -3.37462 -5.62544 0
M  V30 1168 H 105.36 -5.10507 -5.57601 0
M  V30 1169 H 106.628 -4.33253 -6.48006 0
M  V30 1170 N 110.857 0.726932 -1.39834 0
M  V30 1171 C 112.085 1.51613 -1.40787 0
M  V30 1172 C 112.5 1.88799 -0.00451505 0
M  V30 1173 O 111.857 1.54662 0.968809 0
M  V30 1174 C 111.908 2.79863 -2.28821 0
M  V30 1175 O 111.629 2.44253 -3.63692 0
M  V30 1176 C 113.13 3.73837 -2.38245 0
M  V30 1177 H 110.35 0.468264 -0.480593 0
M  V30 1178 H 112.894 0.897607 -1.83748 0
M  V30 1179 H 111.049 3.38027 -1.89252 0
M  V30 1180 H 111.463 3.26695 -4.1033 0
M  V30 1181 H 112.937 4.60699 -3.04073 0
M  V30 1182 H 113.414 4.16153 -1.40403 0
M  V30 1183 H 114.02 3.21589 -2.78317 0
M  V30 1184 N 112.336 1.25143 0.95797 0
M  V30 1185 C 113.585 1.0909 1.69654 0
M  V30 1186 C 113.898 -0.368548 1.92097 0
M  V30 1187 O 115.104 -0.649455 2.63618 0
M  V30 1188 C 113.56 1.90395 3.05414 0
M  V30 1189 C 113.168 3.4081 2.90779 0
M  V30 1190 C 114.912 1.82901 3.83076 0
M  V30 1191 C 112.819 4.14423 4.21909 0
M  V30 1192 H 111.749 0.404625 0.636235 0
M  V30 1193 H 114.4 1.4931 1.06672 0
M  V30 1194 H 112.782 1.42996 3.69281 0
M  V30 1195 H 113.956 3.95859 2.35865 0
M  V30 1196 H 112.271 3.49361 2.26575 0
M  V30 1197 H 114.868 2.35196 4.80195 0
M  V30 1198 H 115.211 0.796224 4.08615 0
M  V30 1199 H 115.744 2.28033 3.25954 0
M  V30 1200 H 112.483 5.18102 4.01561 0
M  V30 1201 H 112.003 3.64159 4.76601 0
M  V30 1202 H 113.682 4.21956 4.90471 0
M  V30 1203 N 113.814 -1.1601 1.06675 0
M  V30 1204 C 115.042 -1.90527 0.806667 0
M  V30 1205 C 115.457 -1.77643 -0.639396 0
M  V30 1206 O 114.814 -1.12369 -1.43803 0
M  V30 1207 C 114.865 -3.41106 1.19705 0
M  V30 1208 O 114.586 -3.53608 2.58636 0
M  V30 1209 C 116.087 -4.32663 0.965266 0
M  V30 1210 H 113.307 -0.604053 0.292166 0
M  V30 1211 H 115.851 -1.47026 1.4214 0
M  V30 1212 H 114.006 -3.82296 0.626774 0
M  V30 1213 H 114.42 -4.47011 2.74375 0
M  V30 1214 H 115.894 -5.36763 1.288 0
M  V30 1215 H 116.371 -4.39089 -0.0987936 0
M  V30 1216 H 116.977 -3.97206 1.52011 0
M  V30 1217 N 115.292 -0.849877 -1.32721 0
M  V30 1218 C 116.24 -0.279745 -2.30912 0
M  V30 1219 C 117.234 0.594278 -1.58634 0
M  V30 1220 O 118.44 0.482613 -1.73409 0
M  V30 1221 H 114.815 -0.0717521 -0.748569 0
M  V30 1222 H 116.786 -1.12222 -2.76494 0
M  V30 1223 C 115.535 0.521108 -3.43773 0
M  V30 1224 H 114.858 -0.142141 -3.99547 0
M  V30 1225 H 116.298 0.885693 -4.14646 0
M  V30 1226 C 114.757 1.70442 -2.90605 0
M  V30 1227 O 115.287 2.8034 -2.87702 0
M  V30 1228 N 113.493 1.52991 -2.47067 0
M  V30 1229 H 113.04 0.635914 -2.49628 0
M  V30 1230 H 112.998 2.32311 -2.11847 0
M  V30 1231 N 116.77 1.45427 -0.607355 0
M  V30 1232 C 118.019 2.01452 -0.100036 0
M  V30 1233 C 118.332 1.48159 1.27704 0
M  V30 1234 O 119.538 1.96159 1.87707 0
M  V30 1235 C 117.994 3.59672 -0.128158 0
M  V30 1236 C 117.602 4.21962 -1.50507 0
M  V30 1237 C 119.346 4.23262 0.323932 0
M  V30 1238 C 117.253 5.72333 -1.48959 0
M  V30 1239 H 116.183 0.75325 -0.0336299 0
M  V30 1240 H 118.834 1.66901 -0.76265 0
M  V30 1241 H 117.216 3.91411 0.601105 0
M  V30 1242 H 118.39 4.01796 -2.25602 0
M  V30 1243 H 116.705 3.70565 -1.89923 0
M  V30 1244 H 119.302 5.33522 0.354691 0
M  V30 1245 H 119.645 3.93921 1.34656 0
M  V30 1246 H 120.178 3.96239 -0.352056 0
M  V30 1247 H 116.917 6.06373 -2.48981 0
M  V30 1248 H 116.437 5.94691 -0.781214 0
M  V30 1249 H 118.116 6.35525 -1.21313 0
M  V30 1250 N 118.248 0.346503 1.53744 0
M  V30 1251 C 119.478 -0.250047 2.05081 0
M  V30 1252 C 119.886 -1.44529 1.22098 0
M  V30 1253 O 119.229 -1.81992 0.249917 0
M  V30 1254 C 119.291 -0.725934 3.52094 0
M  V30 1255 C 118.955 0.350053 4.55657 0
M  V30 1256 C 119.952 1.19372 5.0601 0
M  V30 1257 C 117.637 0.504827 4.99757 0
M  V30 1258 C 119.631 2.17768 5.99046 0
M  V30 1259 C 117.318 1.49218 5.92602 0
M  V30 1260 C 118.316 2.32706 6.42135 0
M  V30 1261 O 118.004 3.2976 7.33153 0
M  V30 1262 H 117.736 -0.0515469 0.674032 0
M  V30 1263 H 120.29 0.497559 1.99282 0
M  V30 1264 H 118.52 -1.52483 3.55367 0
M  V30 1265 H 120.209 -1.24336 3.86388 0
M  V30 1266 H 120.975 1.08525 4.72702 0
M  V30 1267 H 116.854 -0.135178 4.60802 0
M  V30 1268 H 120.398 2.82971 6.37631 0
M  V30 1269 H 116.295 1.6012 6.25325 0
M  V30 1270 H 117.063 3.25265 7.51096 0
M  V30 1271 N 119.726 -1.57421 0.075193 0
M  V30 1272 C 120.975 -1.92794 -0.592731 0
M  V30 1273 C 121.288 -0.957478 -1.70563 0
M  V30 1274 O 122.494 -1.20417 -2.43335 0
M  V30 1275 C 120.95 -3.42495 -1.10569 0
M  V30 1276 C 120.558 -4.47994 -0.0236121 0
M  V30 1277 C 122.302 -3.86864 -1.74748 0
M  V30 1278 C 120.209 -5.88829 -0.550803 0
M  V30 1279 H 119.139 -0.719591 -0.225177 0
M  V30 1280 H 121.79 -1.82902 0.147978 0
M  V30 1281 H 120.172 -3.47471 -1.89947 0
M  V30 1282 H 121.346 -4.54637 0.751099 0
M  V30 1283 H 119.661 -4.13113 0.522159 0
M  V30 1284 H 122.258 -4.8947 -2.15229 0
M  V30 1285 H 122.601 -3.24417 -2.60882 0
M  V30 1286 H 123.134 -3.84504 -1.01986 0
M  V30 1287 H 119.873 -6.54929 0.273457 0
M  V30 1288 H 119.393 -5.85698 -1.29296 0
M  V30 1289 H 121.072 -6.38811 -1.02613 0
M  V30 1290 N 121.204 0.198386 -1.56346 0
M  V30 1291 C 122.134 1.24865 -1.9731 0
M  V30 1292 C 123.115 1.47651 -0.844576 0
M  V30 1293 O 124.3 1.59444 -1.10866 0
M  V30 1294 C 121.43 2.59358 -2.30977 0
M  V30 1295 C 120.384 2.5119 -3.46537 0
M  V30 1296 C 119.71 3.89926 -3.65871 0
M  V30 1297 C 121.01 2.03977 -4.80823 0
M  V30 1298 H 122.704 0.908252 -2.85291 0
M  V30 1299 H 120.25 0.435462 -1.37258 0
M  V30 1300 H 122.203 3.33011 -2.58228 0
M  V30 1301 H 120.927 2.95132 -1.39874 0
M  V30 1302 H 119.586 1.79993 -3.19371 0
M  V30 1303 H 119.234 4.23046 -2.72105 0
M  V30 1304 H 118.934 3.85336 -4.4361 0
M  V30 1305 H 120.458 4.65205 -3.95495 0
M  V30 1306 H 121.872 2.67386 -5.07127 0
M  V30 1307 H 120.269 2.10397 -5.62008 0
M  V30 1308 H 121.339 0.992861 -4.74626 0
M  V30 1309 N 122.682 1.50554 0.465978 0
M  V30 1310 C 123.63 1.70324 1.58406 0
M  V30 1311 C 124.624 0.569139 1.59553 0
M  V30 1312 O 125.83 0.749776 1.63641 0
M  V30 1313 H 122.205 0.537688 0.525734 0
M  V30 1314 H 124.176 2.64104 1.38894 0
M  V30 1315 C 122.925 1.81928 2.96307 0
M  V30 1316 H 122.248 2.68586 2.96144 0
M  V30 1317 H 123.688 1.99784 3.73982 0
M  V30 1318 C 122.147 0.572095 3.32007 0
M  V30 1319 O 122.677 -0.286416 4.00678 0
M  V30 1320 N 120.883 0.424606 2.87481 0
M  V30 1321 H 120.43 1.12427 2.31771 0
M  V30 1322 H 120.388 -0.408697 3.11732 0
M  V30 1323 N 124.16 -0.719506 1.40217 0
M  V30 1324 C 125.09 -1.8465 1.42922 0
M  V30 1325 C 126.071 -1.67599 0.29062 0
M  V30 1326 O 127.256 -1.87688 0.498677 0
M  V30 1327 C 124.386 -3.22565 1.28722 0
M  V30 1328 C 123.34 -3.54281 2.40144 0
M  V30 1329 C 122.666 -4.91298 2.11023 0
M  V30 1330 C 123.966 -3.55676 3.82481 0
M  V30 1331 H 125.66 -1.82644 2.37237 0
M  V30 1332 H 123.206 -0.877305 1.1419 0
M  V30 1333 H 125.159 -4.01095 1.29232 0
M  V30 1334 H 123.883 -3.25137 0.308811 0
M  V30 1335 H 122.542 -2.78088 2.38877 0
M  V30 1336 H 122.19 -4.90468 1.11582 0
M  V30 1337 H 121.89 -5.13485 2.8567 0
M  V30 1338 H 123.414 -5.72166 2.13209 0
M  V30 1339 H 124.828 -4.24254 3.85592 0
M  V30 1340 H 123.225 -3.89388 4.56614 0
M  V30 1341 H 124.295 -2.55144 4.12346 0
M  V30 1342 N 125.638 -1.25649 -0.95132 0
M  V30 1343 C 126.601 -1.06399 -2.03007 0
M  V30 1344 C 127.601 -0.0156794 -1.60792 0
M  V30 1345 O 128.791 -0.25817 -1.72276 0
M  V30 1346 C 125.923 -0.616184 -3.35285 0
M  V30 1347 H 127.116 -2.02164 -2.21517 0
M  V30 1348 H 124.669 -1.08103 -1.12887 0
M  V30 1349 H 125.404 0.343917 -3.22471 0
M  V30 1350 H 125.189 -1.37301 -3.67275 0
M  V30 1351 H 126.679 -0.503032 -4.14559 0
M  V30 1352 N 127.117 1.15442 -1.07289 0
M  V30 1353 C 128.366 1.85557 -0.790669 0
M  V30 1354 C 128.679 1.83186 0.685739 0
M  V30 1355 O 129.885 2.48977 1.0827 0
M  V30 1356 C 128.341 3.33038 -1.36433 0
M  V30 1357 C 127.949 3.43856 -2.8717 0
M  V30 1358 C 129.693 4.0834 -1.1601 0
M  V30 1359 C 127.6 4.85482 -3.3773 0
M  V30 1360 H 126.53 0.695122 -0.292098 0
M  V30 1361 H 129.181 1.30219 -1.29287 0
M  V30 1362 H 127.563 3.88043 -0.789864 0
M  V30 1363 H 128.737 2.98961 -3.50655 0
M  V30 1364 H 127.052 2.81998 -3.06376 0
M  V30 1365 H 129.649 5.12859 -1.51262 0
M  V30 1366 H 129.992 4.16182 -0.0991007 0
M  V30 1367 H 130.525 3.59603 -1.70089 0
M  V30 1368 H 127.264 4.82823 -4.43353 0
M  V30 1369 H 126.784 5.30961 -2.78999 0
M  V30 1370 H 128.463 5.54335 -3.33648 0
M  V30 1371 N 128.595 0.856903 1.32268 0
M  V30 1372 C 129.558 0.308171 2.27119 0
M  V30 1373 C 130.558 -0.533421 1.51695 0
M  V30 1374 O 131.748 -0.344607 1.70757 0
M  V30 1375 C 128.88 -0.563757 3.36206 0
M  V30 1376 H 130.073 1.14535 2.77167 0
M  V30 1377 H 127.626 0.631421 1.42978 0
M  V30 1378 H 128.361 -1.42266 2.91429 0
M  V30 1379 H 128.146 0.0386749 3.92081 0
M  V30 1380 H 129.636 -0.940386 4.06874 0
M  V30 1381 N 130.073 -1.45103 0.615059 0
M  V30 1382 C 131.35 -1.95549 0.0448276 0
M  V30 1383 C 131.73 -1.55737 -1.4251 0
M  V30 1384 O 131.078 -0.823556 -2.13143 0
M  V30 1385 C 131.288 -3.48098 0.250785 0
M  V30 1386 C 132.636 -4.24384 0.135509 0
M  V30 1387 O 133.66 -3.55738 0.181299 0
M  V30 1388 O 132.519 -5.46493 0.0268878 0
M  V30 1389 H 129.613 -0.8264 -0.0314845 0
M  V30 1390 H 132.159 -1.55232 0.685642 0
M  V30 1391 H 130.931 -3.7007 1.27139 0
M  V30 1392 H 130.554 -3.95323 -0.424937 0
M  V30 1393 N 131.551 -0.354651 -1.53558 0
M  V30 1394 C 132.461 0.50515 -2.29097 0
M  V30 1395 C 133.477 1.10223 -1.34636 0
M  V30 1396 O 134.653 1.11553 -1.67684 0
M  V30 1397 C 131.718 1.63479 -3.05738 0
M  V30 1398 C 130.779 1.06636 -4.15845 0
M  V30 1399 C 130.012 2.14217 -4.88822 0
M  V30 1400 O 130.235 3.35137 -4.61562 0
M  V30 1401 O 129.169 1.77887 -5.75013 0
M  V30 1402 H 132.995 -0.109237 -3.03503 0
M  V30 1403 H 130.58 -0.119357 -1.48922 0
M  V30 1404 H 132.462 2.2918 -3.5363 0
M  V30 1405 H 131.137 2.23478 -2.34178 0
M  V30 1406 H 130.044 0.373565 -3.7223 0
M  V30 1407 H 131.377 0.511081 -4.89539 0
M  V30 1408 N 133.029 1.57378 -0.0835403 0
M  V30 1409 C 133.959 2.1641 0.87686 0
M  V30 1410 C 134.94 1.09429 1.30228 0
M  V30 1411 O 136.125 1.37516 1.37124 0
M  V30 1412 C 133.255 2.73517 2.14022 0
M  V30 1413 C 132.209 3.85769 1.85381 0
M  V30 1414 C 131.535 4.29529 3.18448 0
M  V30 1415 C 132.835 5.09486 1.14984 0
M  V30 1416 H 134.529 2.96914 0.385059 0
M  V30 1417 H 132.075 1.42823 0.18377 0
M  V30 1418 H 134.028 3.13463 2.81636 0
M  V30 1419 H 132.752 1.90252 2.65465 0
M  V30 1420 H 131.411 3.46345 1.20169 0
M  V30 1421 H 131.059 3.43169 3.67755 0
M  V30 1422 H 130.759 5.05204 3.00071 0
M  V30 1423 H 132.283 4.72099 3.8724 0
M  V30 1424 H 133.697 5.46674 1.72687 0
M  V30 1425 H 132.094 5.90515 1.06826 0
M  V30 1426 H 133.164 4.84724 0.130749 0
M  V30 1427 N 134.507 -0.190092 1.56449 0
M  V30 1428 C 135.754 -0.909705 1.80916 0
M  V30 1429 C 136.082 -1.83047 0.657583 0
M  V30 1430 O 135.337 -1.92428 -0.356356 0
M  V30 1431 C 135.636 -1.75382 3.1141 0
M  V30 1432 C 135.302 -0.983606 4.40041 0
M  V30 1433 C 133.964 -0.770967 4.74984 0
M  V30 1434 C 136.316 -0.442024 5.19322 0
M  V30 1435 C 133.644 -0.0053448 5.867 0
M  V30 1436 C 135.996 0.310412 6.31838 0
M  V30 1437 C 134.66 0.534023 6.6536 0
M  V30 1438 H 133.93 -0.332885 0.662019 0
M  V30 1439 H 136.577 -0.175762 1.90692 0
M  V30 1440 H 134.882 -2.55659 2.96893 0
M  V30 1441 H 136.579 -2.31331 3.27547 0
M  V30 1442 H 133.169 -1.15936 4.12622 0
M  V30 1443 H 137.353 -0.593693 4.92736 0
M  V30 1444 H 132.609 0.177825 6.11141 0
M  V30 1445 H 136.783 0.737419 6.92485 0
M  V30 1446 H 134.41 1.12918 7.51767 0
M  V30 1447 N 135.985 -1.50799 -0.457987 0
M  V30 1448 C 136.918 -1.65273 -1.57353 0
M  V30 1449 C 137.896 -0.500578 -1.54703 0
M  V30 1450 O 139.08 -0.721781 -1.74134 0
M  V30 1451 C 136.207 -1.64737 -2.95938 0
M  V30 1452 C 135.253 -2.8567 -3.16693 0
M  V30 1453 S 136.086 -4.46791 -2.95191 0
M  V30 1454 C 137.242 -4.48968 -4.36095 0
M  V30 1455 H 137.475 -2.59633 -1.44838 0
M  V30 1456 H 135.008 -1.40225 -0.64625 0
M  V30 1457 H 136.966 -1.65112 -3.7583 0
M  V30 1458 H 135.627 -0.715899 -3.05833 0
M  V30 1459 H 134.82 -2.81637 -4.17967 0
M  V30 1460 H 134.422 -2.8293 -2.44594 0
M  V30 1461 H 136.714 -4.23337 -5.28954 0
M  V30 1462 H 137.657 -5.50664 -4.45168 0
M  V30 1463 H 138.065 -3.78522 -4.18786 0
M  V30 1464 N 137.463 0.71206 -1.40597 0
M  V30 1465 C 138.393 1.83889 -1.43899 0
M  V30 1466 C 139.374 1.67442 -0.299504 0
M  V30 1467 O 140.559 1.87421 -0.508624 0
M  V30 1468 C 137.689 3.21877 -1.30431 0
M  V30 1469 C 136.643 3.53002 -2.42019 0
M  V30 1470 C 135.969 4.90172 -2.13626 0
M  V30 1471 C 137.269 3.53643 -3.84362 0
M  V30 1472 H 138.963 1.81383 -2.38203 0
M  V30 1473 H 136.509 0.871237 -1.14654 0
M  V30 1474 H 138.462 4.00404 -1.31357 0
M  V30 1475 H 137.186 3.24968 -0.326049 0
M  V30 1476 H 135.845 2.76818 -2.40349 0
M  V30 1477 H 135.493 4.89869 -1.14182 0
M  V30 1478 H 135.193 5.11962 -2.88389 0
M  V30 1479 H 136.717 5.71028 -2.1624 0
M  V30 1480 H 138.131 4.22203 -3.87837 0
M  V30 1481 H 136.528 3.86961 -4.58673 0
M  V30 1482 H 137.598 2.52954 -4.13693 0
M  V30 1483 N 138.941 1.26152 0.944643 0
M  V30 1484 C 140.189 1.11271 1.6871 0
M  V30 1485 C 140.51 -0.345166 1.91921 0
M  V30 1486 O 139.78 -1.24387 1.51343 0
M  V30 1487 H 138.36 0.408783 0.625224 0
M  V30 1488 H 141.022 1.58427 1.1352 0
M  V30 1489 H 140.118 1.62879 2.66227 0
M  V30 1490 N 140.419 -1.14872 1.07899 0
M  V30 1491 C 141.349 -2.2193 0.725887 0
M  V30 1492 C 142.33 -1.67622 -0.28927 0
M  V30 1493 O 143.515 -1.93533 -0.160787 0
M  V30 1494 C 140.645 -3.47061 0.128856 0
M  V30 1495 C 139.599 -4.14363 1.07178 0
M  V30 1496 C 138.925 -5.33636 0.337229 0
M  V30 1497 C 140.225 -4.63492 2.40775 0
M  V30 1498 H 141.919 -2.51724 1.62097 0
M  V30 1499 H 139.465 -1.20991 0.780838 0
M  V30 1500 H 141.418 -4.21199 -0.130147 0
M  V30 1501 H 140.142 -3.16617 -0.80134 0
M  V30 1502 H 138.801 -3.42173 1.3158 0
M  V30 1503 H 138.449 -4.99449 -0.596606 0
M  V30 1504 H 138.149 -5.79609 0.965788 0
M  V30 1505 H 139.673 -6.10539 0.0861567 0
M  V30 1506 H 141.087 -5.2913 2.20669 0
M  V30 1507 H 139.484 -5.20148 2.99276 0
M  V30 1508 H 140.554 -3.78834 3.02676 0
M  V30 1509 N 141.898 -0.863906 -1.31812 0
M  V30 1510 C 143.309 -0.52522 -1.7916 0
M  V30 1511 C 143.66 0.957518 -1.71248 0
M  V30 1512 O 142.785 1.74734 -1.27659 0
M  V30 1513 C 143.38 -0.9466 -3.25307 0
M  V30 1514 C 141.939 -0.659668 -3.70574 0
M  V30 1515 C 141.086 -1.14126 -2.52726 0
M  V30 1516 H 144.037 -1.05022 -1.1898 0
M  V30 1517 H 144.058 -0.266766 -3.79564 0
M  V30 1518 H 143.57 -2.02579 -3.31034 0
M  V30 1519 H 141.671 0.408416 -3.70355 0
M  V30 1520 H 141.784 -1.23245 -4.62977 0
M  V30 1521 H 140.148 -0.561216 -2.4844 0
M  V30 1522 H 140.931 -2.22775 -2.61201 0
M  V30 1523 N 143.376 1.44774 -0.622745 0
M  V30 1524 C 144.623 2.02121 -0.1239 0
M  V30 1525 C 144.951 1.48915 1.25118 0
M  V30 1526 O 144.206 0.660045 1.84233 0
M  V30 1527 C 144.505 3.57364 -0.0508323 0
M  V30 1528 C 144.171 4.29787 -1.36358 0
M  V30 1529 C 142.833 4.4929 -1.72314 0
M  V30 1530 C 145.185 4.71062 -2.23048 0
M  V30 1531 C 142.513 5.07325 -2.94682 0
M  V30 1532 C 144.865 5.30452 -3.44679 0
M  V30 1533 C 143.529 5.48175 -3.80868 0
M  V30 1534 H 142.799 0.739612 -0.0453381 0
M  V30 1535 H 145.446 1.73648 -0.807389 0
M  V30 1536 H 143.751 3.85202 0.715991 0
M  V30 1537 H 145.448 3.99456 0.351533 0
M  V30 1538 H 142.038 4.14932 -1.07375 0
M  V30 1539 H 146.222 4.55715 -1.96565 0
M  V30 1540 H 141.478 5.19235 -3.22809 0
M  V30 1541 H 145.652 5.61385 -4.12092 0
M  V30 1542 H 143.279 5.92912 -4.75773 0
M  V30 1543 N 144.854 0.36279 1.53368 0
M  V30 1544 C 145.784 -0.476976 2.28576 0
M  V30 1545 C 146.765 -1.08631 1.30894 0
M  V30 1546 O 147.95 -1.10409 1.59761 0
M  V30 1547 C 145.08 -1.61828 3.07293 0
M  V30 1548 C 144.034 -1.13633 4.1264 0
M  V30 1549 C 143.36 -2.36766 4.79423 0
M  V30 1550 C 144.66 -0.223061 5.21823 0
M  V30 1551 H 146.354 0.150474 2.99022 0
M  V30 1552 H 143.9 0.0738103 1.43811 0
M  V30 1553 H 145.853 -2.21237 3.58653 0
M  V30 1554 H 144.577 -2.27292 2.34533 0
M  V30 1555 H 143.236 -0.564945 3.62221 0
M  V30 1556 H 142.884 -3.0068 4.03238 0
M  V30 1557 H 142.584 -2.05192 5.50609 0
M  V30 1558 H 144.108 -2.96865 5.33576 0
M  V30 1559 H 145.522 -0.724545 5.68703 0
M  V30 1560 H 143.919 0.001678 6.001 0
M  V30 1561 H 144.989 0.735553 4.79289 0
M  V30 1562 N 146.332 -1.57332 0.0918853 0
M  V30 1563 C 147.295 -2.12708 -0.85369 0
M  V30 1564 C 148.295 -1.05561 -1.213 0
M  V30 1565 O 149.485 -1.31461 -1.14296 0
M  V30 1566 C 146.617 -2.64503 -2.15061 0
M  V30 1567 H 147.81 -2.97573 -0.3729 0
M  V30 1568 H 145.363 -1.55509 -0.157072 0
M  V30 1569 H 146.098 -1.83149 -2.67632 0
M  V30 1570 H 145.883 -3.4284 -1.90272 0
M  V30 1571 H 147.373 -3.07351 -2.82711 0
M  V30 1572 N 147.81 0.181792 -1.56548 0
M  V30 1573 C 148.743 1.25366 -1.90679 0
M  V30 1574 C 149.721 1.43299 -0.768376 0
M  V30 1575 O 150.905 1.58475 -1.02068 0
M  V30 1576 C 148.032 2.61826 -2.1486 0
M  V30 1577 C 147.078 2.60688 -3.37556 0
M  V30 1578 S 147.911 2.10804 -4.92262 0
M  V30 1579 C 149.067 3.49062 -5.19525 0
M  V30 1580 H 149.3 0.962277 -2.81296 0
M  V30 1581 H 146.833 0.385892 -1.495 0
M  V30 1582 H 148.791 3.40371 -2.29473 0
M  V30 1583 H 147.452 2.88169 -1.24969 0
M  V30 1584 H 146.645 3.61058 -3.51643 0
M  V30 1585 H 146.247 1.90232 -3.22006 0
M  V30 1586 H 148.539 4.45003 -5.10861 0
M  V30 1587 H 149.482 3.39859 -6.2121 0
M  V30 1588 H 149.89 3.4459 -4.47122 0
M  V30 1589 N 149.288 1.51039 0.449983 0
M  V30 1590 C 150.22 1.67617 1.56324 0
M  V30 1591 C 151.233 0.557083 1.52972 0
M  V30 1592 O 152.422 0.830989 1.57977 0
M  V30 1593 C 149.522 1.66402 2.95235 0
M  V30 1594 C 148.695 2.9469 3.23229 0
M  V30 1595 C 147.754 2.85832 4.41799 0
M  V30 1596 O 146.78 3.59785 4.41071 0
M  V30 1597 N 147.982 2.00821 5.44657 0
M  V30 1598 H 150.747 2.63648 1.42512 0
M  V30 1599 H 148.308 1.48767 0.638737 0
M  V30 1600 H 150.3 1.58062 3.72557 0
M  V30 1601 H 148.87 0.780182 3.02708 0
M  V30 1602 H 148.09 3.16996 2.34323 0
M  V30 1603 H 149.378 3.79636 3.38754 0
M  V30 1604 H 148.776 1.40091 5.48079 0
M  V30 1605 H 147.333 1.98368 6.20881 0
M  V30 1606 N 150.766 -0.704594 1.40972 0
M  V30 1607 C 152.012 -1.46675 1.40051 0
M  V30 1608 C 152.345 -1.94199 0.00641102 0
M  V30 1609 O 151.62 -1.68916 -0.964235 0
M  V30 1610 C 151.903 -2.68505 2.39952 0
M  V30 1611 C 151.756 -2.26805 3.88432 0
M  V30 1612 C 153.075 -3.70686 2.37233 0
M  V30 1613 H 150.194 -0.532015 0.510028 0
M  V30 1614 H 152.836 -0.803255 1.72185 0
M  V30 1615 H 150.986 -3.25114 2.1268 0
M  V30 1616 H 152.658 -1.75592 4.26574 0
M  V30 1617 H 150.901 -1.58685 4.03734 0
M  V30 1618 H 151.572 -3.14181 4.53866 0
M  V30 1619 H 154.048 -3.23731 2.61415 0
M  V30 1620 H 152.924 -4.53553 3.09162 0
M  V30 1621 H 153.185 -4.19754 1.38777 0
M  V30 1622 N 152.244 -1.26651 -0.937939 0
M  V30 1623 C 153.207 -1.08546 -2.01867 0
M  V30 1624 C 154.207 -0.0327327 -1.60767 0
M  V30 1625 O 155.397 -0.276427 -1.71993 0
M  V30 1626 C 152.529 -0.651711 -3.34613 0
M  V30 1627 H 153.722 -2.04502 -2.1936 0
M  V30 1628 H 151.275 -1.09294 -1.11734 0
M  V30 1629 H 152.01 0.309696 -3.22818 0
M  V30 1630 H 151.795 -1.41189 -3.65798 0
M  V30 1631 H 153.285 -0.546973 -4.14002 0
M  V30 1632 N 153.722 1.14298 -1.08507 0
M  V30 1633 C 154.652 2.21542 -0.737646 0
M  V30 1634 C 155.633 1.67773 0.280377 0
M  V30 1635 O 156.818 1.93616 0.150521 0
M  V30 1636 C 153.948 3.46988 -0.147259 0
M  V30 1637 C 152.902 4.13789 -1.09374 0
M  V30 1638 C 152.228 5.33449 -0.365524 0
M  V30 1639 C 153.528 4.62208 -2.4323 0
M  V30 1640 H 155.222 2.5086 -1.6343 0
M  V30 1641 H 152.768 1.20576 -0.787243 0
M  V30 1642 H 154.721 4.21262 0.107808 0
M  V30 1643 H 153.445 3.17037 0.784538 0
M  V30 1644 H 152.104 3.4147 -1.33393 0
M  V30 1645 H 151.752 4.99759 0.57011 0
M  V30 1646 H 151.452 5.79088 -0.996512 0
M  V30 1647 H 152.976 6.10485 -0.118534 0
M  V30 1648 H 154.39 5.27952 -2.23472 0
M  V30 1649 H 152.787 5.18553 -3.02031 0
M  V30 1650 H 153.857 3.77224 -3.04681 0
M  V30 1651 N 155.201 0.870884 1.31352 0
M  V30 1652 C 156.447 0.482987 1.96965 0
M  V30 1653 C 156.78 -0.962462 1.68672 0
M  V30 1654 O 156.055 -1.6779 0.98371 0
M  V30 1655 C 156.338 0.741752 3.52378 0
M  V30 1656 C 156.191 2.2368 3.9024 0
M  V30 1657 C 157.51 0.208838 4.39604 0
M  V30 1658 H 154.629 0.176955 0.715441 0
M  V30 1659 H 157.271 1.09229 1.55464 0
M  V30 1660 H 155.421 0.223149 3.87859 0
M  V30 1661 H 157.093 2.82273 3.64856 0
M  V30 1662 H 155.336 2.70901 3.38814 0
M  V30 1663 H 156.007 2.3685 4.98604 0
M  V30 1664 H 158.483 0.652529 4.10952 0
M  V30 1665 H 157.359 0.419336 5.47296 0
M  V30 1666 H 157.62 -0.889275 4.33064 0
M  V30 1667 N 156.679 -1.44442 0.630414 0
M  V30 1668 C 157.629 -2.27794 -0.0968103 0
M  V30 1669 C 158.613 -1.38624 -0.816834 0
M  V30 1670 O 159.805 -1.62438 -0.70306 0
M  V30 1671 C 156.934 -3.25929 -1.07819 0
M  V30 1672 C 156.02 -4.22588 -0.357826 0
M  V30 1673 N 156.411 -5.0207 0.613169 0
M  V30 1674 C 154.709 -4.41914 -0.602365 0
M  V30 1675 C 155.41 -5.72351 1.03871 0
M  V30 1676 N 154.386 -5.42287 0.377642 0
M  V30 1677 H 158.188 -2.86653 0.648621 0
M  V30 1678 H 155.702 -1.55871 0.455862 0
M  V30 1679 H 157.699 -3.84399 -1.61378 0
M  V30 1680 H 156.359 -2.68631 -1.82393 0
M  V30 1681 H 157.37 -5.08331 0.990947 0
M  V30 1682 H 154.047 -3.95714 -1.33103 0
M  V30 1683 H 155.437 -6.4619 1.84086 0
M  V30 1684 N 158.157 -0.370918 -1.53173 0
M  V30 1685 C 159.403 0.209976 -2.02313 0
M  V30 1686 C 159.758 1.45987 -1.25322 0
M  V30 1687 O 159.051 1.8856 -0.339965 0
M  V30 1688 C 159.245 0.549696 -3.53147 0
M  V30 1689 C 159.074 -0.665721 -4.44745 0
M  V30 1690 C 157.844 -1.17942 -4.91343 0
M  V30 1691 C 160.042 -1.53255 -4.90935 0
M  V30 1692 N 158.024 -2.35431 -5.66962 0
M  V30 1693 C 159.395 -2.55403 -5.64951 0
M  V30 1694 C 161.45 -1.5548 -4.73002 0
M  V30 1695 C 160.153 -3.5964 -6.22938 0
M  V30 1696 C 162.179 -2.58613 -5.31858 0
M  V30 1697 C 161.541 -3.59485 -6.05764 0
M  V30 1698 H 157.64 0.0394095 -0.781006 0
M  V30 1699 H 160.224 -0.516666 -1.8772 0
M  V30 1700 H 158.395 1.24541 -3.67891 0
M  V30 1701 H 160.127 1.11614 -3.89004 0
M  V30 1702 H 156.882 -0.743228 -4.67732 0
M  V30 1703 H 157.306 -2.94827 -6.09431 0
M  V30 1704 H 161.948 -0.788457 -4.15383 0
M  V30 1705 H 159.666 -4.37153 -6.79649 0
M  V30 1706 H 163.252 -2.61195 -5.19873 0
M  V30 1707 H 162.132 -4.3798 -6.50495 0
M  V30 1708 N 159.635 1.57281 -0.100228 0
M  V30 1709 C 161.046 1.81725 0.428107 0
M  V30 1710 C 161.397 1.01619 1.67833 0
M  V30 1711 O 160.522 0.247098 2.14985 0
M  V30 1712 C 161.117 3.29617 0.78347 0
M  V30 1713 C 159.676 3.54808 1.25653 0
M  V30 1714 C 158.823 2.76118 0.255752 0
M  V30 1715 H 161.774 1.55324 -0.325608 0
M  V30 1716 H 161.795 3.4322 1.64256 0
M  V30 1717 H 161.307 3.87893 -0.12665 0
M  V30 1718 H 159.408 3.01868 2.18418 0
M  V30 1719 H 159.521 4.63443 1.21482 0
M  V30 1720 H 157.885 2.43745 0.738956 0
M  V30 1721 H 158.668 3.37145 -0.647136 0
M  V30 1722 N 161.113 -0.173488 1.56642 0
M  V30 1723 C 162.36 -0.890465 1.81871 0
M  V30 1724 C 162.688 -1.82339 0.67696 0
M  V30 1725 O 161.943 -1.92795 -0.335926 0
M  V30 1726 C 162.242 -1.72069 3.13252 0
M  V30 1727 C 161.908 -0.936878 4.41059 0
M  V30 1728 C 160.57 -0.720545 4.75775 0
M  V30 1729 C 162.922 -0.386919 5.19762 0
M  V30 1730 C 160.25 0.0568829 5.86672 0
M  V30 1731 C 162.602 0.37741 6.31473 0
M  V30 1732 C 161.266 0.604563 6.64757 0
M  V30 1733 H 160.536 -0.325844 0.665512 0
M  V30 1734 H 163.183 -0.155527 1.90867 0
M  V30 1735 H 161.488 -2.52496 2.99588 0
M  V30 1736 H 163.185 -2.27844 3.29982 0
M  V30 1737 H 159.775 -1.11553 4.13828 0
M  V30 1738 H 163.959 -0.541398 4.93338 0
M  V30 1739 H 159.215 0.242635 6.10918 0
M  V30 1740 H 163.389 0.810825 6.91664 0
M  V30 1741 H 161.016 1.20885 7.50527 0
M  V30 1742 N 162.591 -1.51276 -0.441967 0
M  V30 1743 C 163.839 -1.63392 -1.18943 0
M  V30 1744 C 164.16 -0.350159 -1.9183 0
M  V30 1745 O 163.43 0.633784 -1.85364 0
M  V30 1746 H 162.01 -0.602164 -0.442049 0
M  V30 1747 H 164.672 -1.88186 -0.507165 0
M  V30 1748 H 163.768 -2.45934 -1.92154 0
M  V30 1749 N 164.069 0.697108 -1.41344 0
M  V30 1750 C 165.016 1.81106 -1.43071 0
M  V30 1751 C 165.986 1.63632 -0.285275 0
M  V30 1752 O 167.171 1.84504 -0.486091 0
M  V30 1753 C 164.311 3.18975 -1.31715 0
M  V30 1754 C 163.424 3.47892 -2.56115 0
M  V30 1755 C 162.559 4.75367 -2.37064 0
M  V30 1756 C 161.598 4.97247 -3.56948 0
M  V30 1757 N 160.735 6.15947 -3.36977 0
M  V30 1758 H 165.575 1.78965 -2.38276 0
M  V30 1759 H 163.112 0.873975 -1.18322 0
M  V30 1760 H 165.07 3.98615 -1.23133 0
M  V30 1761 H 163.7 3.20297 -0.401183 0
M  V30 1762 H 162.752 2.62669 -2.75153 0
M  V30 1763 H 164.064 3.59962 -3.45295 0
M  V30 1764 H 163.218 5.63059 -2.25941 0
M  V30 1765 H 161.957 4.65541 -1.45338 0
M  V30 1766 H 160.962 4.08004 -3.68527 0
M  V30 1767 H 162.187 5.08934 -4.49626 0
M  V30 1768 H 160.133 6.07336 -2.47949 0
M  V30 1769 H 160.05 6.28777 -4.19732 0
M  V30 1770 H 161.318 7.06377 -3.29623 0
M  V30 1771 N 165.547 1.27147 0.931209 0
M  V30 1772 C 166.51 1.09615 2.01289 0
M  V30 1773 C 167.51 0.0412581 1.60747 0
M  V30 1774 O 168.7 0.285545 1.71844 0
M  V30 1775 C 165.832 0.669447 3.34262 0
M  V30 1776 H 167.025 2.05662 2.18273 0
M  V30 1777 H 164.578 1.09885 1.11153 0
M  V30 1778 H 165.313 -0.292572 3.22978 0
M  V30 1779 H 165.098 1.43127 3.65044 0
M  V30 1780 H 166.588 0.568921 4.13706 0
M  V30 1781 N 167.025 -1.13721 1.09112 0
M  V30 1782 C 168.274 -1.84275 0.82009 0
M  V30 1783 C 168.587 -1.84253 -0.656509 0
M  V30 1784 O 169.793 -2.50668 -1.04296 0
M  V30 1785 C 168.249 -3.30825 1.41714 0
M  V30 1786 C 167.857 -3.39244 2.92605 0
M  V30 1787 C 169.601 -4.06443 1.22492 0
M  V30 1788 C 167.508 -4.80047 3.45411 0
M  V30 1789 H 166.438 -0.690387 0.30312 0
M  V30 1790 H 169.089 -1.28146 1.31343 0
M  V30 1791 H 167.471 -3.86737 0.851498 0
M  V30 1792 H 168.645 -2.93344 3.55367 0
M  V30 1793 H 166.96 -2.77088 3.10823 0
M  V30 1794 H 169.557 -5.10387 1.59402 0
M  V30 1795 H 169.9 -4.15972 0.165299 0
M  V30 1796 H 170.433 -3.56852 1.75788 0
M  V30 1797 H 167.172 -4.75709 4.50978 0
M  V30 1798 H 166.692 -5.26455 2.87411 0
M  V30 1799 H 168.371 -5.48957 3.42425 0
M  V30 1800 N 168.503 -0.877838 -1.30888 0
M  V30 1801 C 169.743 -0.499301 -1.98208 0
M  V30 1802 C 170.107 0.932649 -1.67826 0
M  V30 1803 O 171.308 1.41694 -2.28421 0
M  V30 1804 C 169.579 -0.758221 -3.49265 0
M  V30 1805 S 171.138 -0.480719 -4.36159 0
M  V30 1806 H 167.956 -0.186062 -0.686223 0
M  V30 1807 H 170.558 -1.13556 -1.59139 0
M  V30 1808 H 169.262 -1.79903 -3.68867 0
M  V30 1809 H 168.793 -0.109247 -3.93248 0
M  V30 1810 H 170.808 0.683698 -4.91467 0
M  V30 1811 N 169.982 1.44106 -0.638065 0
M  V30 1812 C 171.398 1.56672 -0.304286 0
M  V30 1813 C 171.598 1.6244 1.19228 0
M  V30 1814 O 170.654 1.57121 1.9766 0
M  V30 1815 C 171.967 2.83503 -1.00231 0
M  V30 1816 C 173.515 2.97226 -0.981116 0
M  V30 1817 C 173.99 4.26868 -1.65974 0
M  V30 1818 N 175.481 4.33698 -1.62666 0
M  V30 1819 C 176.216 5.32745 -2.12063 0
M  V30 1820 N 175.712 6.38157 -2.6968 0
M  V30 1821 N 177.505 5.24299 -2.02651 0
M  V30 1822 H 169.656 1.38605 -1.60942 0
M  V30 1823 H 171.919 0.664661 -0.675965 0
M  V30 1824 H 171.625 2.85251 -2.0573 0
M  V30 1825 H 171.499 3.73251 -0.54439 0
M  V30 1826 H 173.886 2.95027 0.0654188 0
M  V30 1827 H 173.967 2.08808 -1.47759 0
M  V30 1828 H 173.611 4.29826 -2.70576 0
M  V30 1829 H 173.541 5.14156 -1.13804 0
M  V30 1830 H 176.032 3.58138 -1.20606 0
M  V30 1831 H 176.345 7.10029 -3.05087 0
M  V30 1832 H 174.69 6.38823 -2.73734 0
M  V30 1833 H 177.881 4.4086 -1.57353 0
M  V30 1834 H 178.054 6.01334 -2.41457 0
M  V30 1835 N 171.46 0.379036 1.52974 0
M  V30 1836 C 172.706 -0.206727 2.01744 0
M  V30 1837 C 173.039 -1.47314 1.26539 0
M  V30 1838 O 172.314 -1.91084 0.362903 0
M  V30 1839 C 172.597 -0.485066 3.56818 0
M  V30 1840 C 172.45 0.795919 4.42702 0
M  V30 1841 C 173.769 -1.28003 4.21074 0
M  V30 1842 H 170.888 -0.0736607 0.73331 0
M  V30 1843 H 173.53 0.506581 1.83122 0
M  V30 1844 H 171.68 -1.09272 3.72816 0
M  V30 1845 H 173.352 1.43307 4.38476 0
M  V30 1846 H 171.595 1.41344 4.10127 0
M  V30 1847 H 172.266 0.555947 5.49193 0
M  V30 1848 H 174.742 -0.765867 4.08991 0
M  V30 1849 H 173.618 -1.44352 5.29579 0
M  V30 1850 H 173.879 -2.29236 3.78026 0
M  V30 1851 N 172.938 -1.57226 0.108567 0
M  V30 1852 C 174.184 -1.95121 -0.552761 0
M  V30 1853 C 174.517 -0.991345 -1.66991 0
M  V30 1854 O 173.792 -0.0267211 -1.94482 0
M  V30 1855 C 174.075 -3.43039 -1.09528 0
M  V30 1856 C 173.928 -4.49797 0.0177332 0
M  V30 1857 C 175.247 -3.92567 -1.98945 0
M  V30 1858 H 172.366 -0.709496 -0.199461 0
M  V30 1859 H 175.008 -1.89126 0.182011 0
M  V30 1860 H 173.158 -3.48279 -1.72146 0
M  V30 1861 H 174.83 -4.56661 0.652584 0
M  V30 1862 H 173.073 -4.284 0.682309 0
M  V30 1863 H 173.744 -5.50528 -0.402919 0
M  V30 1864 H 176.22 -3.89565 -1.46214 0
M  V30 1865 H 175.096 -4.96605 -2.33827 0
M  V30 1866 H 175.357 -3.32648 -2.91201 0
M  V30 1867 N 174.416 0.165178 -1.56732 0
M  V30 1868 C 175.349 1.23336 -1.91998 0
M  V30 1869 C 176.327 1.42476 -0.783531 0
M  V30 1870 O 177.511 1.57384 -1.03743 0
M  V30 1871 C 174.638 2.59533 -2.17625 0
M  V30 1872 C 173.684 2.57093 -3.40302 0
M  V30 1873 S 174.517 2.05571 -4.9447 0
M  V30 1874 C 175.673 3.43532 -5.23198 0
M  V30 1875 H 175.906 0.932387 -2.82301 0
M  V30 1876 H 173.439 0.370013 -1.49901 0
M  V30 1877 H 175.397 3.37918 -2.3307 0
M  V30 1878 H 174.058 2.86827 -1.28019 0
M  V30 1879 H 173.251 3.57308 -3.55453 0
M  V30 1880 H 172.853 1.86806 -3.24005 0
M  V30 1881 H 175.145 4.39559 -5.15552 0
M  V30 1882 H 176.088 3.33251 -6.2478 0
M  V30 1883 H 176.496 3.39828 -4.50752 0
M  V30 1884 N 175.894 1.51508 0.433938 0
M  V30 1885 C 177.122 1.68157 1.20543 0
M  V30 1886 C 177.537 0.380362 1.84929 0
M  V30 1887 O 176.894 -0.641446 1.70856 0
M  V30 1888 C 176.945 2.79965 2.28696 0
M  V30 1889 O 176.666 4.05045 1.66943 0
M  V30 1890 C 178.167 3.07912 3.18912 0
M  V30 1891 H 175.387 0.56421 0.363191 0
M  V30 1892 H 177.931 1.97941 0.513754 0
M  V30 1893 H 176.086 2.5277 2.93574 0
M  V30 1894 H 176.5 4.67165 2.38448 0
M  V30 1895 H 177.974 3.89719 3.90926 0
M  V30 1896 H 178.451 2.20456 3.79863 0
M  V30 1897 H 179.057 3.36779 2.59731 0
M  V30 1898 N 177.372 -0.689602 1.41712 0
M  V30 1899 C 178.618 -1.45181 1.41599 0
M  V30 1900 C 178.951 -1.94181 0.0270081 0
M  V30 1901 O 178.226 -1.6993 -0.946265 0
M  V30 1902 C 178.509 -2.65945 2.42787 0
M  V30 1903 C 178.362 -2.22672 3.90816 0
M  V30 1904 C 179.681 -3.68149 2.41151 0
M  V30 1905 H 176.8 -0.526576 0.515642 0
M  V30 1906 H 179.442 -0.784947 1.73028 0
M  V30 1907 H 177.592 -3.2284 2.16116 0
M  V30 1908 H 179.264 -1.71058 4.28412 0
M  V30 1909 H 177.507 -1.54394 4.05395 0
M  V30 1910 H 178.178 -3.0935 4.57172 0
M  V30 1911 H 180.654 -3.2094 2.64834 0
M  V30 1912 H 179.53 -4.50248 3.13955 0
M  V30 1913 H 179.791 -4.18259 1.43221 0
M  V30 1914 N 178.85 -1.27639 -0.924453 0
M  V30 1915 C 180.127 -1.04887 -1.651 0
M  V30 1916 C 180.507 0.415327 -2.06974 0
M  V30 1917 O 179.855 1.39923 -1.80648 0
M  V30 1918 C 180.065 -2.01348 -2.85061 0
M  V30 1919 C 181.413 -2.30899 -3.56329 0
M  V30 1920 O 182.437 -1.99348 -2.95193 0
M  V30 1921 O 181.296 -2.84699 -4.66485 0
M  V30 1922 H 178.39 -0.400083 -0.723784 0
M  V30 1923 H 180.936 -1.38916 -0.974703 0
M  V30 1924 H 179.708 -3.0008 -2.51133 0
M  V30 1925 H 179.331 -1.679 -3.6041 0
M  V30 1926 N 180.328 1.1314 -1.09713 0
M  V30 1927 C 181.576 1.84119 -0.833338 0
M  V30 1928 C 181.897 1.84097 0.642904 0
M  V30 1929 O 181.167 1.29881 1.46655 0
M  V30 1930 H 179.747 0.681766 -0.305293 0
M  V30 1931 H 182.409 1.37038 -1.38588 0
M  V30 1932 H 181.505 2.88543 -1.18951 0
M  V30 1933 N 181.806 0.884767 1.30421 0
M  V30 1934 C 183.055 0.499164 1.95426 0
M  V30 1935 C 183.368 -0.95645 1.70621 0
M  V30 1936 O 184.574 -1.44889 2.29607 0
M  V30 1937 C 183.03 0.84177 3.49917 0
M  V30 1938 C 182.638 2.31514 3.83543 0
M  V30 1939 C 184.382 0.525355 4.21237 0
M  V30 1940 C 182.289 2.59939 5.31212 0
M  V30 1941 H 181.219 0.182944 0.73147 0
M  V30 1942 H 183.87 1.07971 1.48373 0
M  V30 1943 H 182.252 0.190311 3.95542 0
M  V30 1944 H 183.426 3.0109 3.48829 0
M  V30 1945 H 181.741 2.59907 3.25326 0
M  V30 1946 H 184.338 0.714762 5.29901 0
M  V30 1947 H 184.681 -0.535222 4.12845 0
M  V30 1948 H 185.214 1.134 3.81294 0
M  V30 1949 H 181.953 3.64736 5.44654 0
M  V30 1950 H 181.473 1.94972 5.67227 0
M  V30 1951 H 183.152 2.45429 5.98643 0
M  V30 1952 N 183.284 -1.43765 0.645699 0
M  V30 1953 C 184.232 -2.32516 -0.0624849 0
M  V30 1954 C 185.226 -1.48183 -0.820855 0
M  V30 1955 O 186.432 -1.64439 -0.732106 0
M  V30 1956 H 182.807 -0.750989 -0.0389864 0
M  V30 1957 H 184.778 -2.89979 0.703892 0
M  V30 1958 C 183.527 -3.32389 -1.02044 0
M  V30 1959 H 182.85 -3.97301 -0.446312 0
M  V30 1960 H 184.29 -3.97138 -1.48517 0
M  V30 1961 C 182.749 -2.62416 -2.11281 0
M  V30 1962 O 183.279 -2.434 -3.19561 0
M  V30 1963 N 181.485 -2.21913 -1.87624 0
M  V30 1964 H 181.032 -2.37578 -0.995703 0
M  V30 1965 H 180.99 -1.75424 -2.6091 0
M  V30 1966 N 184.763 -0.387143 -1.52771 0
M  V30 1967 C 185.695 0.484089 -2.2403 0
M  V30 1968 C 186.708 1.02849 -1.26198 0
M  V30 1969 O 187.897 0.931186 -1.52286 0
M  V30 1970 C 184.997 1.68337 -2.94136 0
M  V30 1971 C 184.17 1.26672 -4.18656 0
M  V30 1972 C 183.229 2.33045 -4.7178 0
M  V30 1973 O 182.255 1.94541 -5.34923 0
M  V30 1974 N 183.457 3.64929 -4.5145 0
M  V30 1975 H 186.222 -0.126404 -2.99433 0
M  V30 1976 H 183.783 -0.213392 -1.60488 0
M  V30 1977 H 185.775 2.39019 -3.26577 0
M  V30 1978 H 184.345 2.20025 -2.22053 0
M  V30 1979 H 183.565 0.388878 -3.92277 0
M  V30 1980 H 184.853 0.964964 -4.99566 0
M  V30 1981 H 184.251 3.98974 -4.01044 0
M  V30 1982 H 182.808 4.31651 -4.88386 0
M  V30 1983 N 186.241 1.57166 -0.116904 0
M  V30 1984 C 187.488 1.95123 0.541603 0
M  V30 1985 C 187.816 1.00006 1.6682 0
M  V30 1986 O 187.071 0.0235658 1.95686 0
M  V30 1987 C 187.37 3.39508 1.11664 0
M  V30 1988 C 187.036 4.50762 0.111606 0
M  V30 1989 C 185.698 4.80918 -0.164758 0
M  V30 1990 C 188.05 5.18036 -0.573438 0
M  V30 1991 C 185.378 5.75666 -1.13249 0
M  V30 1992 C 187.73 6.13824 -1.52978 0
M  V30 1993 C 186.394 6.42374 -1.81415 0
M  V30 1994 H 185.664 0.714005 0.198187 0
M  V30 1995 H 188.311 1.9048 -0.197365 0
M  V30 1996 H 186.616 3.40835 1.93232 0
M  V30 1997 H 188.313 3.66189 1.63422 0
M  V30 1998 H 184.903 4.27272 0.337192 0
M  V30 1999 H 189.087 4.94896 -0.373092 0
M  V30 2000 H 184.343 5.96092 -1.35958 0
M  V30 2001 H 188.517 6.65039 -2.06629 0
M  V30 2002 H 186.144 7.15599 -2.56557 0
M  V30 2003 N 187.719 -0.156864 1.56817 0
M  V30 2004 C 188.947 -0.886316 1.86955 0
M  V30 2005 C 189.362 -1.75185 0.703975 0
M  V30 2006 O 188.719 -1.79555 -0.326552 0
M  V30 2007 C 188.77 -1.75117 3.16253 0
M  V30 2008 O 188.491 -0.920537 4.2832 0
M  V30 2009 C 189.992 -2.58905 3.59837 0
M  V30 2010 H 187.212 -0.25678 0.619923 0
M  V30 2011 H 189.756 -0.152615 2.0393 0
M  V30 2012 H 187.911 -2.43805 3.01062 0
M  V30 2013 H 188.325 -1.51337 5.02192 0
M  V30 2014 H 189.799 -3.1518 4.53172 0
M  V30 2015 H 190.276 -3.34472 2.84649 0
M  V30 2016 H 190.882 -1.95526 3.7769 0
M  V30 2017 N 189.197 -1.51736 -0.425897 0
M  V30 2018 C 190.422 -1.69082 -1.20108 0
M  V30 2019 C 190.847 -0.392398 -1.83962 0
M  V30 2020 O 190.205 0.64858 -1.69302 0
M  V30 2021 C 190.253 -2.81604 -2.25237 0
M  V30 2022 O 189.357 -2.46004 -3.30992 0
M  V30 2023 H 188.698 -0.563408 -0.35138 0
M  V30 2024 H 191.228 -1.98358 -0.501512 0
M  V30 2025 H 191.238 -3.06025 -2.69838 0
M  V30 2026 H 189.913 -3.75817 -1.78142 0
M  V30 2027 H 188.49 -2.32195 -2.91787 0
M  V30 2028 N 190.675 0.682077 -1.42076 0
M  V30 2029 C 191.924 1.43786 -1.41451 0
M  V30 2030 C 192.237 1.95574 -0.0317074 0
M  V30 2031 O 193.443 2.71326 0.0971462 0
M  V30 2032 C 191.899 2.60071 -2.48779 0
M  V30 2033 C 191.507 2.15013 -3.93031 0
M  V30 2034 C 193.251 3.37626 -2.57311 0
M  V30 2035 C 191.158 3.28336 -4.91883 0
M  V30 2036 H 190.088 0.540143 -0.526082 0
M  V30 2037 H 192.739 0.739157 -1.67955 0
M  V30 2038 H 191.121 3.32275 -2.15429 0
M  V30 2039 H 192.295 1.5001 -4.35699 0
M  V30 2040 H 190.61 1.50416 -3.88284 0
M  V30 2041 H 193.207 4.22012 -3.28345 0
M  V30 2042 H 193.55 3.83727 -1.61429 0
M  V30 2043 H 194.083 2.72488 -2.89819 0
M  V30 2044 H 190.822 2.87234 -5.89217 0
M  V30 2045 H 190.342 3.92145 -4.53853 0
M  V30 2046 H 192.021 3.93913 -5.13265 0
M  V30 2047 N 192.153 1.28127 0.917671 0
M  V30 2048 C 193.4 1.15052 1.66641 0
M  V30 2049 C 193.728 -0.301677 1.92146 0
M  V30 2050 O 192.983 -1.23622 1.51711 0
M  V30 2051 C 193.282 1.89018 3.03327 0
M  V30 2052 C 192.948 3.38832 2.97496 0
M  V30 2053 C 191.61 3.79693 2.95613 0
M  V30 2054 C 193.962 4.34378 2.88036 0
M  V30 2055 C 191.29 5.14447 2.82066 0
M  V30 2056 C 193.642 5.69201 2.7603 0
M  V30 2057 C 192.306 6.09343 2.72502 0
M  V30 2058 H 191.576 0.421006 0.609783 0
M  V30 2059 H 194.223 1.58855 1.06945 0
M  V30 2060 H 192.528 1.37752 3.66785 0
M  V30 2061 H 194.225 1.76321 3.60156 0
M  V30 2062 H 190.815 3.06342 2.99754 0
M  V30 2063 H 194.999 4.03775 2.88581 0
M  V30 2064 H 190.255 5.44681 2.77728 0
M  V30 2065 H 194.429 6.42901 2.67678 0
M  V30 2066 H 192.056 7.13712 2.61762 0
M  V30 2067 N 193.631 -1.12557 1.10312 0
M  V30 2068 C 194.871 -1.8568 0.854543 0
M  V30 2069 C 195.235 -1.82091 -0.608843 0
M  V30 2070 O 196.436 -2.50544 -0.973717 0
M  V30 2071 C 194.707 -3.2942 1.38626 0
M  V30 2072 S 196.266 -4.19931 1.27293 0
M  V30 2073 H 193.084 -0.640427 0.308827 0
M  V30 2074 H 195.686 -1.35599 1.40831 0
M  V30 2075 H 194.39 -3.2959 2.44537 0
M  V30 2076 H 193.921 -3.84566 0.82902 0
M  V30 2077 H 195.936 -4.95668 0.229776 0
M  V30 2078 N 195.109 -0.891671 -1.2995 0
M  V30 2079 C 196.039 -0.379797 -2.30391 0
M  V30 2080 C 197.02 0.540919 -1.6127 0
M  V30 2081 O 198.205 0.453352 -1.88834 0
M  V30 2082 C 195.335 0.400654 -3.44981 0
M  V30 2083 C 194.289 -0.428905 -4.25846 0
M  V30 2084 C 193.615 0.478557 -5.32554 0
M  V30 2085 C 194.915 -1.67458 -4.94727 0
M  V30 2086 H 196.609 -1.21914 -2.73454 0
M  V30 2087 H 194.155 -0.587675 -1.31462 0
M  V30 2088 H 196.108 0.769434 -4.14316 0
M  V30 2089 H 194.832 1.27371 -3.0074 0
M  V30 2090 H 193.491 -0.779911 -3.58208 0
M  V30 2091 H 193.139 1.34951 -4.84559 0
M  V30 2092 H 192.839 -0.0727433 -5.87555 0
M  V30 2093 H 194.363 0.843705 -6.04743 0
M  V30 2094 H 195.777 -1.376 -5.56542 0
M  V30 2095 H 194.174 -2.16659 -5.59624 0
M  V30 2096 H 195.244 -2.41518 -4.20473 0
M  V30 2097 N 196.587 1.43421 -0.653314 0
M  V30 2098 C 197.815 2.06163 -0.174491 0
M  V30 2099 C 198.23 1.48969 1.1599 0
M  V30 2100 O 197.587 0.621042 1.71608 0
M  V30 2101 C 197.638 3.61417 -0.0774865 0
M  V30 2102 O 197.359 4.16485 -1.35912 0
M  V30 2103 C 198.86 4.41235 0.427402 0
M  V30 2104 H 196.08 0.664946 -0.0899353 0
M  V30 2105 H 198.624 1.83924 -0.893988 0
M  V30 2106 H 196.779 3.82841 0.59257 0
M  V30 2107 H 197.193 5.10153 -1.21839 0
M  V30 2108 H 198.667 5.5021 0.44423 0
M  V30 2109 H 199.144 4.14268 1.45873 0
M  V30 2110 H 199.75 4.2478 -0.210167 0
M  V30 2111 N 198.065 0.39524 1.52563 0
M  V30 2112 C 199.311 -0.185318 2.01952 0
M  V30 2113 C 199.644 -1.45964 1.28095 0
M  V30 2114 O 198.919 -1.90689 0.38315 0
M  V30 2115 C 199.202 -0.447193 3.57312 0
M  V30 2116 C 199.055 0.842828 4.41833 0
M  V30 2117 C 200.374 -1.23529 4.22408 0
M  V30 2118 H 197.493 -0.0658788 0.73405 0
M  V30 2119 H 200.135 0.525975 1.82575 0
M  V30 2120 H 198.285 -1.05312 3.73954 0
M  V30 2121 H 199.957 1.4795 4.36931 0
M  V30 2122 H 198.2 1.45686 4.08605 0
M  V30 2123 H 198.871 0.614165 5.48573 0
M  V30 2124 H 201.347 -0.722445 4.0978 0
M  V30 2125 H 200.223 -1.38727 5.3108 0
M  V30 2126 H 200.484 -2.25213 3.80436 0
M  V30 2127 N 199.544 -1.57102 0.125237 0
M  V30 2128 C 200.477 -2.11371 -0.860094 0
M  V30 2129 C 201.455 -1.03168 -1.25679 0
M  V30 2130 O 202.639 -1.30862 -1.35674 0
M  V30 2131 C 199.766 -2.61555 -2.1519 0
M  V30 2132 C 198.812 -3.81701 -1.9028 0
M  V30 2133 S 199.645 -5.23797 -1.11343 0
M  V30 2134 C 200.801 -5.77353 -2.41689 0
M  V30 2135 H 201.034 -2.94617 -0.39852 0
M  V30 2136 H 198.567 -1.54145 -0.0886555 0
M  V30 2137 H 200.525 -2.91122 -2.89411 0
M  V30 2138 H 199.186 -1.78479 -2.58465 0
M  V30 2139 H 198.379 -4.14985 -2.86014 0
M  V30 2140 H 197.981 -3.52783 -1.24178 0
M  V30 2141 H 200.273 -5.87458 -3.37489 0
M  V30 2142 H 201.216 -6.75323 -2.12942 0
M  V30 2143 H 201.624 -5.05457 -2.51342 0
M  V30 2144 N 201.022 0.148545 -1.56898 0
M  V30 2145 C 202.247 0.880385 -1.87787 0
M  V30 2146 C 202.672 1.74018 -0.714093 0
M  V30 2147 O 202.03 1.78153 0.336343 0
M  V30 2148 C 202.078 1.71422 -3.17249 0
M  V30 2149 O 201.182 2.8183 -3.01074 0
M  V30 2150 H 200.523 0.245301 -0.617028 0
M  V30 2151 H 203.053 0.139826 -2.04122 0
M  V30 2152 H 203.063 2.10954 -3.49231 0
M  V30 2153 H 201.738 1.08284 -4.01556 0
M  V30 2154 H 200.315 2.45715 -2.80497 0
M  V30 2155 N 202.5 1.5196 0.417844 0
M  V30 2156 C 203.749 1.6482 1.16264 0
M  V30 2157 C 204.062 0.379886 1.91876 0
M  V30 2158 O 205.268 0.388154 2.68711 0
M  V30 2159 C 203.724 2.91161 2.1155 0
M  V30 2160 C 203.332 4.25068 1.41495 0
M  V30 2161 C 205.076 3.13383 2.86341 0
M  V30 2162 C 202.983 5.42541 2.35379 0
M  V30 2163 H 201.913 0.613954 0.437694 0
M  V30 2164 H 204.564 1.78442 0.427871 0
M  V30 2165 H 202.946 2.71218 2.88543 0
M  V30 2166 H 204.12 4.55463 0.699263 0
M  V30 2167 H 202.435 4.0888 0.787792 0
M  V30 2168 H 205.032 3.98324 3.5671 0
M  V30 2169 H 205.375 2.27256 3.48798 0
M  V30 2170 H 205.908 3.33757 2.1645 0
M  V30 2171 H 202.647 6.30987 1.77582 0
M  V30 2172 H 202.167 5.16497 3.04945 0
M  V30 2173 H 203.846 5.75272 2.96093 0
M  V30 2174 N 203.978 -0.674533 1.42435 0
M  V30 2175 C 205.255 -1.4305 1.33402 0
M  V30 2176 C 205.635 -2.11081 -0.0284674 0
M  V30 2177 O 204.983 -2.03257 -1.04397 0
M  V30 2178 C 205.193 -2.43272 2.50239 0
M  V30 2179 C 206.541 -3.07907 2.92367 0
M  V30 2180 O 207.565 -2.53599 2.50132 0
M  V30 2181 O 206.424 -4.0632 3.65467 0
M  V30 2182 H 203.518 -0.638076 0.526106 0
M  V30 2183 H 206.064 -0.703235 1.54443 0
M  V30 2184 H 204.836 -1.91803 3.41068 0
M  V30 2185 H 204.459 -3.23479 2.31186 0
M  V30 2186 N 205.456 -1.28612 -0.910864 0
M  V30 2187 C 206.872 -1.06381 -1.18976 0
M  V30 2188 C 207.072 0.191998 -2.00583 0
M  V30 2189 O 206.128 0.892869 -2.36187 0
M  V30 2190 C 207.441 -2.31295 -1.92154 0
M  V30 2191 C 208.989 -2.36503 -2.05025 0
M  V30 2192 C 209.464 -3.61191 -2.81612 0
M  V30 2193 N 210.955 -3.61847 -2.89172 0
M  V30 2194 C 211.69 -4.55004 -3.4894 0
M  V30 2195 N 211.186 -5.58482 -4.09963 0
M  V30 2196 N 212.979 -4.42594 -3.46506 0
M  V30 2197 H 205.13 -2.09221 -0.366094 0
M  V30 2198 H 207.393 -0.921003 -0.224629 0
M  V30 2199 H 207.099 -3.228 -1.39618 0
M  V30 2200 H 206.973 -2.37934 -2.9269 0
M  V30 2201 H 209.36 -1.45494 -2.5674 0
M  V30 2202 H 209.441 -2.33857 -1.03657 0
M  V30 2203 H 209.085 -4.52545 -2.30576 0
M  V30 2204 H 209.015 -3.61092 -3.83302 0
M  V30 2205 H 211.506 -2.87022 -2.45819 0
M  V30 2206 H 211.819 -6.25704 -4.53557 0
M  V30 2207 H 210.164 -5.62305 -4.08459 0
M  V30 2208 H 213.355 -3.60953 -2.98045 0
M  V30 2209 H 213.528 -5.15381 -3.92793 0
M  V30 2210 N 206.934 1.1197 -1.10907 0
M  V30 2211 C 208.164 1.8713 -0.875553 0
M  V30 2212 C 208.572 1.8016 0.577843 0
M  V30 2213 O 207.915 1.17699 1.41042 0
M  V30 2214 C 207.977 3.37005 -1.2517 0
M  V30 2215 C 207.641 3.67748 -2.71313 0
M  V30 2216 C 208.638 3.65698 -3.69542 0
M  V30 2217 C 206.323 3.96928 -3.07821 0
M  V30 2218 C 208.317 3.92395 -5.023 0
M  V30 2219 C 206.004 4.23284 -4.40765 0
M  V30 2220 C 207.002 4.21005 -5.37814 0
M  V30 2221 O 206.69 4.46704 -6.68364 0
M  V30 2222 H 206.422 0.598786 -0.313737 0
M  V30 2223 H 208.976 1.42568 -1.47863 0
M  V30 2224 H 207.206 3.82146 -0.591741 0
M  V30 2225 H 208.895 3.93519 -0.994877 0
M  V30 2226 H 209.661 3.43211 -3.42682 0
M  V30 2227 H 205.54 3.97841 -2.32902 0
M  V30 2228 H 209.084 3.90531 -5.78041 0
M  V30 2229 H 204.981 4.45246 -4.67361 0
M  V30 2230 H 205.749 4.64299 -6.74069 0
M  V30 2231 N 208.412 0.89855 1.29475 0
M  V30 2232 C 209.342 0.39201 2.30186 0
M  V30 2233 C 210.323 -0.532359 1.61555 0
M  V30 2234 O 211.508 -0.443331 1.89072 0
M  V30 2235 C 208.638 -0.382353 3.45189 0
M  V30 2236 C 207.592 0.451483 4.25612 0
M  V30 2237 C 206.918 -0.450307 5.328 0
M  V30 2238 C 208.218 1.70079 4.93832 0
M  V30 2239 H 209.912 1.23362 2.72804 0
M  V30 2240 H 207.458 0.594638 1.31149 0
M  V30 2241 H 209.411 -0.747451 4.14718 0
M  V30 2242 H 208.135 -1.25774 3.01411 0
M  V30 2243 H 206.794 0.798897 3.57789 0
M  V30 2244 H 206.442 -1.32379 4.85268 0
M  V30 2245 H 206.142 0.103902 5.87508 0
M  V30 2246 H 207.666 -0.811623 6.05182 0
M  V30 2247 H 209.08 1.40549 5.55805 0
M  V30 2248 H 207.477 2.19623 5.58467 0
M  V30 2249 H 208.547 2.43744 4.19186 0
M  V30 2250 N 209.89 -1.43072 0.660911 0
M  V30 2251 C 210.853 -2.29194 -0.0166406 0
M  V30 2252 C 211.853 -1.42609 -0.742912 0
M  V30 2253 O 213.043 -1.64155 -0.583004 0
M  V30 2254 C 210.175 -3.24831 -1.0343 0
M  V30 2255 H 211.368 -2.90596 0.741208 0
M  V30 2256 H 208.921 -1.5048 0.422532 0
M  V30 2257 H 209.656 -2.68339 -1.82111 0
M  V30 2258 H 209.441 -3.88676 -0.517082 0
M  V30 2259 H 210.931 -3.89451 -1.50723 0
M  V30 2260 N 211.368 -0.403325 -1.52352 0
M  V30 2261 C 212.614 0.174605 -2.02047 0
M  V30 2262 C 212.947 1.45282 -1.28867 0
M  V30 2263 O 212.222 1.90483 -0.393257 0
M  V30 2264 C 212.505 0.428238 -3.57545 0
M  V30 2265 C 212.358 -0.866248 -4.4138 0
M  V30 2266 C 213.677 1.21287 -4.23057 0
M  V30 2267 H 210.796 0.0619851 -0.734389 0
M  V30 2268 H 213.438 -0.53565 -1.82293 0
M  V30 2269 H 211.588 1.03327 -3.74507 0
M  V30 2270 H 213.26 -1.50265 -4.3614 0
M  V30 2271 H 211.503 -1.47851 -4.07827 0
M  V30 2272 H 212.174 -0.643249 -5.48239 0
M  V30 2273 H 214.65 0.700703 -4.10158 0
M  V30 2274 H 213.526 1.35909 -5.31808 0
M  V30 2275 H 213.787 2.23193 -3.81625 0
M  V30 2276 N 212.846 1.57033 -0.133567 0
M  V30 2277 C 214.092 1.95976 0.521649 0
M  V30 2278 C 214.425 1.01779 1.65393 0
M  V30 2279 O 213.7 0.0576581 1.94415 0
M  V30 2280 C 213.983 3.44738 1.04057 0
M  V30 2281 C 213.836 4.49711 -0.0892897 0
M  V30 2282 C 215.155 3.95682 1.92675 0
M  V30 2283 H 212.274 0.712579 0.188149 0
M  V30 2284 H 214.916 1.88813 -0.212076 0
M  V30 2285 H 213.066 3.50973 1.66583 0
M  V30 2286 H 214.738 4.55565 -0.725152 0
M  V30 2287 H 212.981 4.27261 -0.750378 0
M  V30 2288 H 213.652 5.51099 0.315284 0
M  V30 2289 H 216.128 3.91841 1.39998 0
M  V30 2290 H 215.004 5.00262 2.25897 0
M  V30 2291 H 215.265 3.37239 2.85872 0
M  V30 2292 N 214.325 -0.140222 1.56975 0
M  V30 2293 C 215.275 -1.17827 1.95194 0
M  V30 2294 C 216.259 -1.38195 0.824075 0
M  V30 2295 O 217.451 -1.39643 1.0876 0
M  V30 2296 C 214.58 -2.51024 2.34184 0
M  V30 2297 C 213.666 -2.3422 3.53556 0
M  V30 2298 N 214.057 -1.87185 4.69889 0
M  V30 2299 C 212.355 -2.64949 3.58773 0
M  V30 2300 C 213.056 -1.83586 5.5197 0
M  V30 2301 N 212.032 -2.2715 4.93866 0
M  V30 2302 H 215.834 -0.806817 2.82609 0
M  V30 2303 H 213.348 -0.348208 1.58623 0
M  V30 2304 H 215.345 -3.26074 2.59772 0
M  V30 2305 H 214.005 -2.88945 1.48124 0
M  V30 2306 H 215.016 -1.57048 4.93514 0
M  V30 2307 H 211.693 -3.067 2.8327 0
M  V30 2308 H 213.083 -1.48655 6.55249 0
M  V30 2309 N 215.803 -1.52179 -0.40978 0
M  V30 2310 C 217.214 -1.58377 -0.988615 0
M  V30 2311 C 217.565 -0.423879 -1.91566 0
M  V30 2312 O 216.69 0.455844 -2.11544 0
M  V30 2313 C 217.285 -2.87044 -1.79976 0
M  V30 2314 C 215.844 -2.95722 -2.32863 0
M  V30 2315 C 214.991 -2.53309 -1.12828 0
M  V30 2316 H 217.942 -1.57558 -0.190039 0
M  V30 2317 H 217.963 -2.7236 -2.65707 0
M  V30 2318 H 217.475 -3.71444 -1.12478 0
M  V30 2319 H 215.576 -2.15814 -3.03735 0
M  V30 2320 H 215.689 -3.99951 -2.63773 0
M  V30 2321 H 214.053 -2.07142 -1.48204 0
M  V30 2322 H 214.836 -3.40082 -0.46897 0
M  V30 2323 N 217.281 0.66697 -1.42791 0
M  V30 2324 C 218.53 1.42278 -1.42968 0
M  V30 2325 C 218.843 1.9553 -0.0524489 0
M  V30 2326 O 220.049 2.71414 0.068363 0
M  V30 2327 C 218.505 2.57418 -2.51524 0
M  V30 2328 C 218.113 2.10832 -3.9529 0
M  V30 2329 C 219.857 3.34878 -2.60877 0
M  V30 2330 C 217.764 3.23101 -4.95338 0
M  V30 2331 H 216.694 0.534533 -0.531781 0
M  V30 2332 H 219.345 0.721302 -1.68729 0
M  V30 2333 H 217.727 3.29971 -2.18941 0
M  V30 2334 H 218.901 1.4538 -4.37266 0
M  V30 2335 H 217.216 1.46289 -3.89857 0
M  V30 2336 H 219.813 4.18505 -3.32802 0
M  V30 2337 H 220.156 3.81993 -1.6549 0
M  V30 2338 H 220.689 2.69398 -2.92693 0
M  V30 2339 H 217.428 2.80969 -5.9223 0
M  V30 2340 H 216.948 3.87309 -4.57987 0
M  V30 2341 H 218.627 3.88447 -5.17415 0
M  V30 2342 N 218.759 1.29093 0.90403 0
M  V30 2343 C 219.706 1.13853 2.00764 0
M  V30 2344 C 220.676 0.0330084 1.66067 0
M  V30 2345 O 221.861 0.199733 1.89752 0
M  V30 2346 C 219.001 0.816537 3.35301 0
M  V30 2347 C 218.114 2.00206 3.82807 0
M  V30 2348 C 217.249 1.61983 5.059 0
M  V30 2349 C 216.288 2.77143 5.45764 0
M  V30 2350 N 215.425 2.39346 6.60044 0
M  V30 2351 H 220.265 2.08276 2.13132 0
M  V30 2352 H 217.802 1.03648 1.04381 0
M  V30 2353 H 219.76 0.610557 4.12708 0
M  V30 2354 H 218.39 -0.090779 3.22672 0
M  V30 2355 H 217.442 2.31988 3.01473 0
M  V30 2356 H 218.754 2.86512 4.08304 0
M  V30 2357 H 217.908 1.37649 5.90879 0
M  V30 2358 H 216.647 0.728202 4.82233 0
M  V30 2359 H 215.652 3.02165 4.59322 0
M  V30 2360 H 216.877 3.66964 5.71414 0
M  V30 2361 H 214.823 1.52665 6.37989 0
M  V30 2362 H 214.74 3.19185 6.85315 0
M  V30 2363 H 216.008 2.1832 7.48303 0
M  V30 2364 N 220.237 -1.11381 1.11499 0
M  V30 2365 C 221.462 -1.87475 0.887019 0
M  V30 2366 C 221.887 -1.79639 -0.557796 0
M  V30 2367 O 221.245 -1.15924 -1.39396 0
M  V30 2368 C 221.293 -3.34213 1.35403 0
M  V30 2369 O 220.397 -4.0903 0.526146 0
M  V30 2370 H 219.738 -0.582099 0.319463 0
M  V30 2371 H 222.268 -1.40785 1.48461 0
M  V30 2372 H 222.278 -3.8506 1.34881 0
M  V30 2373 H 220.953 -3.39232 2.40612 0
M  V30 2374 H 219.53 -3.68082 0.597522 0
M  V30 2375 N 221.715 -0.905404 -1.28997 0
M  V30 2376 C 222.678 -0.392253 -2.25819 0
M  V30 2377 C 223.678 0.476753 -1.5357 0
M  V30 2378 O 224.868 0.280994 -1.71919 0
M  V30 2379 C 222 0.438588 -3.38067 0
M  V30 2380 H 223.193 -1.24743 -2.72725 0
M  V30 2381 H 220.746 -0.684051 -1.40536 0
M  V30 2382 H 221.481 1.31352 -2.96508 0
M  V30 2383 H 221.266 -0.184167 -3.91667 0
M  V30 2384 H 222.756 0.78873 -4.10084 0
M  V30 2385 N 223.193 1.4272 -0.668489 0
M  V30 2386 C 224.14 2.30796 0.0137489 0
M  V30 2387 C 225.11 1.4561 0.799177 0
M  V30 2388 O 226.295 1.74453 0.772702 0
M  V30 2389 C 223.435 3.31377 0.963507 0
M  V30 2390 C 222.548 4.31655 0.172569 0
M  V30 2391 C 221.683 5.19312 1.1175 0
M  V30 2392 C 220.722 6.11274 0.317886 0
M  V30 2393 N 219.859 6.91504 1.2152 0
M  V30 2394 H 224.699 2.88585 -0.743161 0
M  V30 2395 H 222.236 1.42154 -0.378226 0
M  V30 2396 H 224.194 3.88214 1.52792 0
M  V30 2397 H 222.824 2.75202 1.68712 0
M  V30 2398 H 221.876 3.76988 -0.508374 0
M  V30 2399 H 223.188 4.96779 -0.448527 0
M  V30 2400 H 222.342 5.80851 1.75206 0
M  V30 2401 H 221.081 4.5435 1.77249 0
M  V30 2402 H 220.086 5.48809 -0.329918 0
M  V30 2403 H 221.311 6.78283 -0.332917 0
M  V30 2404 H 219.257 6.29176 1.85671 0
M  V30 2405 H 219.174 7.53209 0.649036 0
M  V30 2406 H 220.442 7.57535 1.83742 0
M  V30 2407 N 224.671 0.411399 1.52136 0
M  V30 2408 C 225.917 -0.156262 2.02799 0
M  V30 2409 C 226.272 -1.42613 1.29149 0
M  V30 2410 O 225.565 -1.87592 0.389839 0
M  V30 2411 C 225.759 -0.455872 3.54481 0
M  V30 2412 C 225.588 0.783404 4.42824 0
M  V30 2413 C 224.358 1.30928 4.88043 0
M  V30 2414 C 226.556 1.66217 4.86699 0
M  V30 2415 N 224.538 2.5038 5.6052 0
M  V30 2416 C 225.909 2.70292 5.5798 0
M  V30 2417 C 227.964 1.67966 4.68713 0
M  V30 2418 C 226.667 3.7603 6.13184 0
M  V30 2419 C 228.693 2.72624 5.24815 0
M  V30 2420 C 228.055 3.7542 5.9602 0
M  V30 2421 H 224.154 -0.0186886 0.781777 0
M  V30 2422 H 226.738 0.566255 1.86284 0
M  V30 2423 H 224.909 -1.14743 3.71064 0
M  V30 2424 H 226.641 -1.01261 3.91827 0
M  V30 2425 H 223.396 0.866977 4.65597 0
M  V30 2426 H 223.82 3.10881 6.014 0
M  V30 2427 H 228.462 0.898312 4.13147 0
M  V30 2428 H 226.18 4.55019 6.6782 0
M  V30 2429 H 229.766 2.74887 5.12765 0
M  V30 2430 H 228.646 4.55073 6.38654 0
M  V30 2431 N 226.149 -1.5696 0.141893 0
M  V30 2432 C 227.565 -1.58151 -0.21456 0
M  V30 2433 C 227.765 -1.1559 -1.65049 0
M  V30 2434 O 226.821 -0.853832 -2.37626 0
M  V30 2435 C 228.134 -3.00674 0.0395576 0
M  V30 2436 C 229.682 -3.1299 -0.0245529 0
M  V30 2437 C 230.157 -4.57554 0.202167 0
M  V30 2438 N 231.648 -4.62961 0.148919 0
M  V30 2439 C 232.383 -5.7262 0.298924 0
M  V30 2440 N 231.879 -6.90947 0.50637 0
M  V30 2441 N 233.672 -5.61601 0.236886 0
M  V30 2442 H 225.823 -1.8292 1.07953 0
M  V30 2443 H 228.086 -0.846425 0.42693 0
M  V30 2444 H 227.792 -3.36183 1.03315 0
M  V30 2445 H 227.666 -3.70981 -0.682143 0
M  V30 2446 H 230.053 -2.77326 -1.00869 0
M  V30 2447 H 230.134 -2.4518 0.729396 0
M  V30 2448 H 229.778 -4.93922 1.18338 0
M  V30 2449 H 229.708 -5.23484 -0.572044 0
M  V30 2450 H 232.199 -3.77899 -0.00697015 0
M  V30 2451 H 232.512 -7.7038 0.611076 0
M  V30 2452 H 230.857 -6.92878 0.542628 0
M  V30 2453 H 234.048 -4.68039 0.0756209 0
M  V30 2454 H 234.221 -6.47015 0.357227 0
M  V30 2455 N 227.627 0.131896 -1.57047 0
M  V30 2456 C 229.043 0.485031 -1.52051 0
M  V30 2457 C 229.243 1.82563 -0.85281 0
M  V30 2458 O 228.299 2.48817 -0.429694 0
M  V30 2459 C 229.612 0.481409 -2.96821 0
M  V30 2460 C 231.16 0.565868 -3.07842 0
M  V30 2461 C 231.635 0.592762 -4.54148 0
M  V30 2462 N 233.126 0.654564 -4.58552 0
M  V30 2463 C 233.861 0.696608 -5.69153 0
M  V30 2464 N 233.357 0.697078 -6.89284 0
M  V30 2465 N 235.15 0.738639 -5.57226 0
M  V30 2466 H 227.301 -0.746664 -1.98843 0
M  V30 2467 H 229.564 -0.273999 -0.90754 0
M  V30 2468 H 229.27 -0.435731 -3.4899 0
M  V30 2469 H 229.144 1.3139 -3.53577 0
M  V30 2470 H 231.531 1.47343 -2.55684 0
M  V30 2471 H 231.612 -0.29406 -2.54104 0
M  V30 2472 H 231.256 -0.310701 -5.06949 0
M  V30 2473 H 231.186 1.46939 -5.05684 0
M  V30 2474 H 233.677 0.660887 -3.72076 0
M  V30 2475 H 233.99 0.731426 -7.69331 0
M  V30 2476 H 232.335 0.66471 -6.91814 0
M  V30 2477 H 235.526 0.735545 -4.62285 0
M  V30 2478 H 235.699 0.767938 -6.43434 0
M  V30 2479 N 229.106 1.52395 0.401703 0
M  V30 2480 C 230.517 1.58899 0.980202 0
M  V30 2481 C 230.868 0.434032 1.91339 0
M  V30 2482 O 229.993 -0.444619 2.11783 0
M  V30 2483 C 230.588 2.87994 1.78451 0
M  V30 2484 C 229.147 2.96953 2.31292 0
M  V30 2485 C 228.294 2.53903 1.11483 0
M  V30 2486 H 231.245 1.57657 0.18168 0
M  V30 2487 H 231.266 2.73765 2.64259 0
M  V30 2488 H 230.778 3.72035 1.10506 0
M  V30 2489 H 228.879 2.17422 3.02586 0
M  V30 2490 H 228.992 4.01344 2.61649 0
M  V30 2491 H 227.356 2.07925 1.47104 0
M  V30 2492 H 228.139 3.40326 0.450928 0
M  V30 2493 N 230.584 -0.659388 1.43143 0
M  V30 2494 C 232 -0.974337 1.26407 0
M  V30 2495 C 232.2 -2.007 0.179341 0
M  V30 2496 O 231.256 -2.4856 -0.444295 0
M  V30 2497 C 232.569 -1.46447 2.62628 0
M  V30 2498 C 234.117 -1.58144 2.7011 0
M  V30 2499 C 234.592 -2.1055 4.06734 0
M  V30 2500 N 236.083 -2.17861 4.08767 0
M  V30 2501 C 236.818 -2.59519 5.1131 0
M  V30 2502 N 236.314 -3.00518 6.24228 0
M  V30 2503 N 238.107 -2.59404 4.98664 0
M  V30 2504 H 230.258 0.0240528 2.12386 0
M  V30 2505 H 232.521 -0.0518065 0.946583 0
M  V30 2506 H 232.227 -0.780123 3.42939 0
M  V30 2507 H 232.101 -2.44058 2.87603 0
M  V30 2508 H 234.488 -2.25682 1.90136 0
M  V30 2509 H 234.569 -0.589828 2.48907 0
M  V30 2510 H 234.213 -1.43616 4.87172 0
M  V30 2511 H 234.143 -3.10531 4.25298 0
M  V30 2512 H 236.634 -1.88975 3.27257 0
M  V30 2513 H 236.947 -3.31036 6.98309 0
M  V30 2514 H 235.292 -2.98337 6.2771 0
M  V30 2515 H 238.483 -2.26747 4.09516 0
M  V30 2516 H 238.656 -2.91548 5.78709 0
M  V30 2517 N 232.062 -1.29571 -0.897171 0
M  V30 2518 C 233.29 -1.20583 -1.68129 0
M  V30 2519 C 233.705 0.233181 -1.87354 0
M  V30 2520 O 233.062 1.15579 -1.41236 0
M  V30 2521 C 233.113 -1.91772 -3.06441 0
M  V30 2522 O 232.834 -3.30053 -2.88091 0
M  V30 2523 C 234.335 -1.89291 -4.00854 0
M  V30 2524 H 231.555 -0.417826 -0.525036 0
M  V30 2525 H 234.099 -1.70987 -1.12177 0
M  V30 2526 H 232.254 -1.45196 -3.59161 0
M  V30 2527 H 232.668 -3.65942 -3.75748 0
M  V30 2528 H 234.142 -2.43662 -4.95311 0
M  V30 2529 H 234.619 -0.869014 -4.30517 0
M  V30 2530 H 235.225 -2.35622 -3.54066 0
M  V30 2531 N 233.54 1.10788 -1.12088 0
M  V30 2532 C 234.503 2.15207 -0.788577 0
M  V30 2533 C 235.503 1.59609 0.195317 0
M  V30 2534 O 236.693 1.74174 -0.0300193 0
M  V30 2535 C 233.825 3.4047 -0.171174 0
M  V30 2536 H 235.018 2.46116 -1.71368 0
M  V30 2537 H 232.571 1.26089 -0.923652 0
M  V30 2538 H 233.306 3.15176 0.763832 0
M  V30 2539 H 233.091 3.82109 -0.879514 0
M  V30 2540 H 234.581 4.17576 0.04496 0
M  V30 2541 N 235.018 0.912232 1.28515 0
M  V30 2542 C 235.965 0.397954 2.27343 0
M  V30 2543 C 236.935 -0.526766 1.57526 0
M  V30 2544 O 238.12 -0.449292 1.85435 0
M  V30 2545 C 235.26 -0.357263 3.43246 0
M  V30 2546 C 234.373 0.599788 4.27816 0
M  V30 2547 C 233.508 -0.173725 5.30916 0
M  V30 2548 C 232.547 0.777039 6.07148 0
M  V30 2549 N 231.684 0.0371398 7.0209 0
M  V30 2550 H 236.524 1.24577 2.70711 0
M  V30 2551 H 234.061 0.625612 1.33133 0
M  V30 2552 H 236.019 -0.8113 4.09236 0
M  V30 2553 H 234.649 -1.16943 3.00872 0
M  V30 2554 H 233.701 1.17235 3.61884 0
M  V30 2555 H 235.013 1.32704 4.80823 0
M  V30 2556 H 234.167 -0.688394 6.02782 0
M  V30 2557 H 232.906 -0.934041 4.78672 0
M  V30 2558 H 231.911 1.3031 5.34134 0
M  V30 2559 H 233.136 1.53689 6.61481 0
M  V30 2560 H 231.082 -0.705213 6.52198 0
M  V30 2561 H 230.999 0.704249 7.52713 0
M  V30 2562 H 232.267 -0.457383 7.78157 0
M  V30 2563 N 236.496 -1.42363 0.676048 0
M  V30 2564 C 237.429 -2.28141 -0.0516916 0
M  V30 2565 C 238.407 -1.41135 -0.807439 0
M  V30 2566 O 239.591 -1.70573 -0.802305 0
M  V30 2567 C 236.718 -3.21007 -1.08039 0
M  V30 2568 C 235.764 -4.24426 -0.420076 0
M  V30 2569 S 236.597 -5.29134 0.823246 0
M  V30 2570 C 237.753 -6.25566 -0.204344 0
M  V30 2571 H 237.986 -2.89515 0.675884 0
M  V30 2572 H 235.519 -1.47211 0.465635 0
M  V30 2573 H 237.477 -3.75048 -1.66881 0
M  V30 2574 H 236.138 -2.58766 -1.78042 0
M  V30 2575 H 235.331 -4.89596 -1.19633 0
M  V30 2576 H 234.933 -3.7388 0.0947845 0
M  V30 2577 H 237.225 -6.69098 -1.06369 0
M  V30 2578 H 238.168 -7.06895 0.412915 0
M  V30 2579 H 238.576 -5.61811 -0.55038 0
M  V30 2580 N 237.974 -0.419461 -1.51915 0
M  V30 2581 C 239.223 0.154346 -2.01109 0
M  V30 2582 C 239.536 1.45338 -1.30905 0
M  V30 2583 O 240.742 2.10906 -1.7097 0
M  V30 2584 C 239.198 0.325615 -3.58424 0
M  V30 2585 C 238.806 -0.961934 -4.37551 0
M  V30 2586 C 240.55 0.854155 -4.15818 0
M  V30 2587 C 238.457 -0.757287 -5.86531 0
M  V30 2588 H 237.387 0.0614563 -0.751491 0
M  V30 2589 H 240.038 -0.54649 -1.75173 0
M  V30 2590 H 238.42 1.08903 -3.80731 0
M  V30 2591 H 239.594 -1.7323 -4.26999 0
M  V30 2592 H 237.909 -1.41766 -3.91524 0
M  V30 2593 H 240.506 1.02346 -5.24814 0
M  V30 2594 H 240.849 1.83172 -3.73837 0
M  V30 2595 H 241.382 0.149528 -3.97519 0
M  V30 2596 H 238.121 -1.70671 -6.32892 0
M  V30 2597 H 237.641 -0.0264061 -5.99794 0
M  V30 2598 H 239.32 -0.403482 -6.45741 0
M  V30 2599 N 239.452 1.56882 -0.150215 0
M  V30 2600 C 240.68 2.00593 0.506948 0
M  V30 2601 C 241.095 1.03033 1.58208 0
M  V30 2602 O 240.452 0.0278396 1.82479 0
M  V30 2603 C 240.503 3.44209 1.10465 0
M  V30 2604 O 240.224 4.3804 0.0724636 0
M  V30 2605 C 241.725 4.03214 1.84211 0
M  V30 2606 H 238.945 0.65795 0.13169 0
M  V30 2607 H 241.489 2.03018 -0.245743 0
M  V30 2608 H 239.644 3.42625 1.80795 0
M  V30 2609 H 240.058 5.22007 0.510793 0
M  V30 2610 H 241.532 5.0569 2.21318 0
M  V30 2611 H 242.009 3.44107 2.72923 0
M  V30 2612 H 242.615 4.08437 1.18572 0
M  V30 2613 N 240.93 -0.123565 1.57115 0
M  V30 2614 C 241.863 -1.18202 1.95201 0
M  V30 2615 C 242.841 -1.40349 0.821031 0
M  V30 2616 O 244.025 -1.54578 1.07879 0
M  V30 2617 C 241.152 -2.53671 2.24429 0
M  V30 2618 C 240.198 -2.4798 3.46999 0
M  V30 2619 S 241.031 -1.92389 4.99747 0
M  V30 2620 C 242.187 -3.2954 5.32123 0
M  V30 2621 H 242.42 -0.857212 2.84674 0
M  V30 2622 H 239.953 -0.33014 1.50829 0
M  V30 2623 H 241.911 -3.3162 2.41947 0
M  V30 2624 H 240.572 -2.83332 1.35579 0
M  V30 2625 H 239.765 -3.47758 3.64801 0
M  V30 2626 H 239.367 -1.7815 3.28844 0
M  V30 2627 H 241.659 -4.25736 5.27025 0
M  V30 2628 H 242.602 -3.16569 6.33395 0
M  V30 2629 H 243.01 -3.27758 4.59603 0
M  V30 2630 N 242.408 -1.52605 -0.393616 0
M  V30 2631 C 243.371 -1.76415 -1.46323 0
M  V30 2632 C 244.371 -0.634126 -1.47768 0
M  V30 2633 O 245.561 -0.902142 -1.4902 0
M  V30 2634 C 242.693 -1.8607 -2.85641 0
M  V30 2635 H 243.886 -2.71916 -1.26498 0
M  V30 2636 H 241.439 -1.43257 -0.625073 0
M  V30 2637 H 242.174 -0.925378 -3.10817 0
M  V30 2638 H 241.959 -2.68235 -2.85993 0
M  V30 2639 H 243.449 -2.06179 -3.63153 0
M  V30 2640 N 243.887 0.651787 -1.4349 0
M  V30 2641 C 245.133 1.41376 -1.45398 0
M  V30 2642 C 245.466 1.94041 -0.0784823 0
M  V30 2643 O 244.741 1.72379 0.900878 0
M  V30 2644 C 245.024 2.59414 -2.49752 0
M  V30 2645 C 244.877 2.12232 -3.96582 0
M  V30 2646 C 246.196 3.61626 -2.50827 0
M  V30 2647 H 243.315 0.512719 -0.529422 0
M  V30 2648 H 245.957 0.738796 -1.75048 0
M  V30 2649 H 244.107 3.16997 -2.246 0
M  V30 2650 H 245.779 1.59639 -4.32797 0
M  V30 2651 H 244.022 1.43592 -4.09346 0
M  V30 2652 H 244.693 2.9712 -4.65214 0
M  V30 2653 H 247.169 3.13805 -2.7325 0
M  V30 2654 H 246.045 4.41766 -3.25783 0
M  V30 2655 H 246.306 4.14314 -1.5426 0
M  V30 2656 N 245.365 1.30045 0.890287 0
M  V30 2657 C 246.611 1.19747 1.64415 0
M  V30 2658 C 246.966 -0.246591 1.90813 0
M  V30 2659 O 246.259 -1.174 1.51419 0
M  V30 2660 C 246.453 1.95409 2.99249 0
M  V30 2661 C 246.282 3.47025 2.86013 0
M  V30 2662 C 245.052 4.1638 2.86279 0
M  V30 2663 C 247.25 4.42353 2.62351 0
M  V30 2664 N 245.232 5.54293 2.63879 0
M  V30 2665 C 246.603 5.67792 2.49022 0
M  V30 2666 C 248.658 4.32009 2.47533 0
M  V30 2667 C 247.361 6.8406 2.22383 0
M  V30 2668 C 249.387 5.48038 2.22279 0
M  V30 2669 C 248.749 6.72455 2.09722 0
M  V30 2670 H 244.848 0.493223 0.60684 0
M  V30 2671 H 247.432 1.6399 1.04954 0
M  V30 2672 H 245.603 1.53565 3.56752 0
M  V30 2673 H 247.335 1.77298 3.63796 0
M  V30 2674 H 244.09 3.68164 2.97913 0
M  V30 2675 H 244.514 6.26852 2.55706 0
M  V30 2676 H 249.156 3.36503 2.55979 0
M  V30 2677 H 246.874 7.79612 2.12675 0
M  V30 2678 H 250.46 5.41939 2.11643 0
M  V30 2679 H 249.34 7.60722 1.90453 0
M  V30 2680 N 246.843 -1.10192 1.12674 0
M  V30 2681 C 248.091 -1.81845 0.881861 0
M  V30 2682 C 248.412 -1.85737 -0.593867 0
M  V30 2683 O 247.682 -1.33724 -1.4316 0
M  V30 2684 H 246.262 -0.673432 0.323261 0
M  V30 2685 H 248.924 -1.33316 1.42172 0
M  V30 2686 H 248.02 -2.85288 1.2656 0
M  V30 2687 N 248.321 -0.919034 -1.28029 0
M  V30 2688 C 249.567 -0.555757 -1.95036 0
M  V30 2689 C 249.9 0.899198 -1.72128 0
M  V30 2690 O 249.175 1.64023 -1.04531 0
M  V30 2691 C 249.458 -0.872024 -3.49382 0
M  V30 2692 C 249.311 -2.3801 -3.81669 0
M  V30 2693 C 250.63 -0.37185 -4.38526 0
M  V30 2694 H 247.749 -0.203386 -0.708381 0
M  V30 2695 H 250.391 -1.14924 -1.51303 0
M  V30 2696 H 248.541 -0.366946 -3.86763 0
M  V30 2697 H 250.213 -2.9562 -3.54128 0
M  V30 2698 H 248.456 -2.83289 -3.28526 0
M  V30 2699 H 249.127 -2.55192 -4.8947 0
M  V30 2700 H 251.603 -0.804602 -4.08247 0
M  V30 2701 H 250.479 -0.622173 -5.45362 0
M  V30 2702 H 250.74 0.727934 -4.36066 0
M  V30 2703 N 249.799 1.42003 -0.683588 0
M  V30 2704 C 251.024 2.06265 -0.216647 0
M  V30 2705 C 251.449 1.51059 1.12083 0
M  V30 2706 O 250.807 0.632638 1.69904 0
M  V30 2707 C 250.855 3.60191 -0.171759 0
M  V30 2708 O 249.959 4.03396 0.857069 0
M  V30 2709 H 249.3 0.65502 -0.108834 0
M  V30 2710 H 251.83 1.81982 -0.935077 0
M  V30 2711 H 251.84 4.08 0.0014303 0
M  V30 2712 H 250.515 3.99743 -1.14796 0
M  V30 2713 H 249.092 3.67117 0.654208 0
M  V30 2714 N 251.277 0.427512 1.51691 0
M  V30 2715 C 252.207 -0.3796 2.30394 0
M  V30 2716 C 253.188 -1.02982 1.35384 0
M  V30 2717 O 254.373 -1.03534 1.643 0
M  V30 2718 C 251.503 -1.48649 3.1388 0
M  V30 2719 C 250.457 -0.960294 4.17088 0
M  V30 2720 C 249.783 -2.16219 4.89033 0
M  V30 2721 C 251.083 -0.00153679 5.223 0
M  V30 2722 H 252.777 0.277164 2.98114 0
M  V30 2723 H 250.323 0.134739 1.43368 0
M  V30 2724 H 252.276 -2.05826 3.67714 0
M  V30 2725 H 251 -2.1714 2.43962 0
M  V30 2726 H 249.659 -0.410806 3.64291 0
M  V30 2727 H 249.307 -2.83307 4.15628 0
M  V30 2728 H 249.007 -1.81654 5.58816 0
M  V30 2729 H 250.531 -2.73968 5.45687 0
M  V30 2730 H 251.945 -0.482687 5.71264 0
M  V30 2731 H 250.342 0.256199 5.99553 0
M  V30 2732 H 251.412 0.938174 4.75738 0
M  V30 2733 N 252.755 -1.56801 0.158532 0
M  V30 2734 C 253.685 -2.20347 -0.772609 0
M  V30 2735 C 254.666 -1.15518 -1.24859 0
M  V30 2736 O 255.851 -1.43902 -1.30406 0
M  V30 2737 C 252.981 -2.83417 -2.00729 0
M  V30 2738 C 251.935 -3.94174 -1.66765 0
M  V30 2739 C 251.261 -4.44233 -2.97592 0
M  V30 2740 C 252.561 -5.14392 -0.905447 0
M  V30 2741 H 254.255 -2.98413 -0.242959 0
M  V30 2742 H 251.801 -1.43537 -0.115419 0
M  V30 2743 H 253.754 -3.26543 -2.6636 0
M  V30 2744 H 252.478 -2.02701 -2.56086 0
M  V30 2745 H 251.137 -3.51684 -1.03508 0
M  V30 2746 H 250.785 -3.60325 -3.50963 0
M  V30 2747 H 250.485 -5.18945 -2.75626 0
M  V30 2748 H 252.009 -4.90037 -3.64274 0
M  V30 2749 H 253.423 -5.5429 -1.46408 0
M  V30 2750 H 251.82 -5.9494 -0.7853 0
M  V30 2751 H 252.89 -4.84795 0.100668 0
M  V30 2752 N 254.233 0.115231 -1.57178 0
M  V30 2753 C 255.479 0.82357 -1.85325 0
M  V30 2754 C 255.812 1.79349 -0.744814 0
M  V30 2755 O 255.087 1.92899 0.249024 0
M  V30 2756 C 255.37 1.57014 -3.24066 0
M  V30 2757 C 255.223 0.619565 -4.45513 0
M  V30 2758 C 256.542 2.52545 -3.60429 0
M  V30 2759 H 253.661 0.297948 -0.674089 0
M  V30 2760 H 256.303 0.0877138 -1.89797 0
M  V30 2761 H 254.453 2.19742 -3.20383 0
M  V30 2762 H 256.125 0.000837639 -4.613 0
M  V30 2763 H 254.368 -0.0686174 -4.33746 0
M  V30 2764 H 255.039 1.17866 -5.3927 0
M  V30 2765 H 257.515 1.9992 -3.64926 0
M  V30 2766 H 256.391 3.01811 -4.58477 0
M  V30 2767 H 256.652 3.35383 -2.88047 0
M  V30 2768 N 255.711 1.52812 0.385517 0
M  V30 2769 C 256.96 1.67249 1.12741 0
M  V30 2770 C 257.273 0.4205 1.91027 0
M  V30 2771 O 258.479 0.445064 2.67827 0
M  V30 2772 C 256.935 2.95583 2.05326 0
M  V30 2773 C 256.543 4.27974 1.32447 0
M  V30 2774 C 258.287 3.19386 2.7963 0
M  V30 2775 C 256.194 5.47412 2.23818 0
M  V30 2776 H 255.124 0.6231 0.424573 0
M  V30 2777 H 257.775 1.79309 0.389924 0
M  V30 2778 H 256.157 2.77277 2.82725 0
M  V30 2779 H 257.331 4.56844 0.602495 0
M  V30 2780 H 255.646 4.10459 0.700885 0
M  V30 2781 H 258.243 4.05801 3.48181 0
M  V30 2782 H 258.586 2.34604 3.43899 0
M  V30 2783 H 259.119 3.38274 2.09322 0
M  V30 2784 H 255.858 6.34612 1.64157 0
M  V30 2785 H 255.378 5.22849 2.93921 0
M  V30 2786 H 257.057 5.81423 2.83824 0
M  V30 2787 N 257.189 -0.644168 1.43834 0
M  V30 2788 C 258.119 -1.76814 1.52509 0
M  V30 2789 C 259.1 -1.65823 0.379052 0
M  V30 2790 O 260.285 -1.84781 0.597466 0
M  V30 2791 C 257.415 -3.15288 1.4564 0
M  V30 2792 C 256.369 -3.41053 2.58586 0
M  V30 2793 C 255.695 -4.79421 2.36769 0
M  V30 2794 C 256.995 -3.34902 4.00797 0
M  V30 2795 H 258.689 -1.69812 2.46586 0
M  V30 2796 H 256.235 -0.815542 1.1868 0
M  V30 2797 H 258.188 -3.93681 1.50311 0
M  V30 2798 H 256.912 -3.23043 0.480725 0
M  V30 2799 H 255.571 -2.65035 2.53282 0
M  V30 2800 H 255.219 -4.83863 1.37424 0
M  V30 2801 H 254.919 -4.9762 3.12487 0
M  V30 2802 H 256.443 -5.6006 2.43238 0
M  V30 2803 H 257.857 -4.03218 4.07539 0
M  V30 2804 H 256.254 -3.64637 4.76613 0
M  V30 2805 H 257.324 -2.32928 4.25291 0
M  V30 2806 N 258.668 -1.30515 -0.883378 0
M  V30 2807 C 260.079 -1.17509 -1.45081 0
M  V30 2808 C 260.43 0.223605 -1.94922 0
M  V30 2809 O 259.555 1.12041 -1.85137 0
M  V30 2810 C 260.15 -2.12715 -2.63701 0
M  V30 2811 C 258.709 -2.03682 -3.16529 0
M  V30 2812 C 257.856 -2.02706 -1.89224 0
M  V30 2813 H 260.807 -1.42762 -0.693165 0
M  V30 2814 H 260.828 -1.70891 -3.39965 0
M  V30 2815 H 260.34 -3.14505 -2.27395 0
M  V30 2816 H 258.441 -1.05039 -3.57488 0
M  V30 2817 H 258.554 -2.92146 -3.7972 0
M  V30 2818 H 256.918 -1.4753 -2.07622 0
M  V30 2819 H 257.701 -3.06229 -1.55174 0
M  V30 2820 N 260.146 1.09593 -1.13257 0
M  V30 2821 C 261.395 1.81105 -0.887917 0
M  V30 2822 C 261.708 1.86563 0.587672 0
M  V30 2823 O 262.914 2.54367 0.949204 0
M  V30 2824 C 261.37 3.25338 -1.53895 0
M  V30 2825 C 260.978 3.28151 -3.04994 0
M  V30 2826 C 262.722 4.01617 -1.37492 0
M  V30 2827 C 260.629 4.66897 -3.6299 0
M  V30 2828 H 259.559 0.678661 -0.328534 0
M  V30 2829 H 262.21 1.23183 -1.36008 0
M  V30 2830 H 260.592 3.8331 -0.994446 0
M  V30 2831 H 261.766 2.79953 -3.66009 0
M  V30 2832 H 260.081 2.65361 -3.20893 0
M  V30 2833 H 262.678 5.04119 -1.78235 0
M  V30 2834 H 263.021 4.15072 -0.31957 0
M  V30 2835 H 263.554 3.50082 -1.88912 0
M  V30 2836 H 260.293 4.58643 -4.68323 0
M  V30 2837 H 259.813 5.15426 -3.06752 0
M  V30 2838 H 261.492 5.3587 -3.62563 0
M  V30 2839 N 261.624 0.925811 1.2754 0
M  V30 2840 C 262.557 0.367836 2.25216 0
M  V30 2841 C 263.535 -0.534738 1.53556 0
M  V30 2842 O 264.719 -0.475672 1.824 0
M  V30 2843 C 261.846 -0.47298 3.35381 0
M  V30 2844 C 260.892 0.365898 4.24928 0
M  V30 2845 S 261.725 1.78025 5.05042 0
M  V30 2846 C 262.881 0.947068 6.18693 0
M  V30 2847 H 263.114 1.19568 2.72196 0
M  V30 2848 H 260.647 0.727867 1.36167 0
M  V30 2849 H 262.605 -0.952242 3.99303 0
M  V30 2850 H 261.266 -1.27533 2.87044 0
M  V30 2851 H 260.459 -0.277582 5.03235 0
M  V30 2852 H 260.061 0.779261 3.65792 0
M  V30 2853 H 262.353 0.182201 6.77255 0
M  V30 2854 H 263.296 1.70309 6.87314 0
M  V30 2855 H 263.704 0.489913 5.6237 0
M  V30 2856 N 263.102 -1.41638 0.69111 0
M  V30 2857 C 264.351 -2.00526 0.217318 0
M  V30 2858 C 264.664 -1.55353 -1.18848 0
M  V30 2859 O 265.87 -2.06769 -1.75951 0
M  V30 2860 C 264.326 -3.58313 0.337639 0
M  V30 2861 C 263.934 -4.12469 1.74852 0
M  V30 2862 C 265.678 -4.24431 -0.0766066 0
M  V30 2863 C 263.585 -5.62675 1.82074 0
M  V30 2864 H 262.515 -0.750008 0.0774893 0
M  V30 2865 H 265.166 -1.6217 0.858661 0
M  V30 2866 H 263.548 -3.9425 -0.371879 0
M  V30 2867 H 264.722 -3.8796 2.48644 0
M  V30 2868 H 263.037 -3.58861 2.11205 0
M  V30 2869 H 265.634 -5.34683 -0.0430284 0
M  V30 2870 H 265.977 -4.01101 -1.1146 0
M  V30 2871 H 266.51 -3.93512 0.582476 0
M  V30 2872 H 263.249 -5.90826 2.83911 0
M  V30 2873 H 262.769 -5.89124 1.12661 0
M  V30 2874 H 264.448 -6.27371 1.58159 0
M  V30 2875 N 264.58 -0.43555 -1.51462 0
M  V30 2876 C 265.81 0.130053 -2.0619 0
M  V30 2877 C 266.218 1.37164 -1.30317 0
M  V30 2878 O 265.561 1.80225 -0.355598 0
M  V30 2879 C 265.623 0.519418 -3.55728 0
M  V30 2880 C 265.287 -0.615119 -4.52841 0
M  V30 2881 C 266.284 -1.48671 -4.9819 0
M  V30 2882 C 263.969 -0.795341 -4.95963 0
M  V30 2883 C 265.963 -2.52324 -5.8533 0
M  V30 2884 C 263.65 -1.83514 -5.82894 0
M  V30 2885 C 264.648 -2.69748 -6.27475 0
M  V30 2886 O 264.336 -3.71944 -7.1268 0
M  V30 2887 H 264.068 0.0121612 -0.675891 0
M  V30 2888 H 266.622 -0.6129 -1.96043 0
M  V30 2889 H 264.852 1.31505 -3.63653 0
M  V30 2890 H 266.541 1.01597 -3.92979 0
M  V30 2891 H 267.307 -1.359 -4.65571 0
M  V30 2892 H 263.186 -0.133713 -4.60806 0
M  V30 2893 H 266.73 -3.19665 -6.20048 0
M  V30 2894 H 262.627 -1.96306 -6.14926 0
M  V30 2895 H 263.395 -3.68503 -7.30854 0
M  V30 2896 N 266.058 1.56714 -0.166846 0
M  V30 2897 C 267.021 2.16539 0.751232 0
M  V30 2898 C 268.021 1.11228 1.16125 0
M  V30 2899 O 269.211 1.36765 1.07894 0
M  V30 2900 C 266.343 2.74462 2.02196 0
M  V30 2901 H 267.536 2.99013 0.230499 0
M  V30 2902 H 265.089 1.56081 0.0826982 0
M  V30 2903 H 265.824 1.95709 2.58589 0
M  V30 2904 H 265.609 3.51527 1.73698 0
M  V30 2905 H 267.099 3.20489 2.67725 0
M  V30 2906 N 267.536 -0.106894 1.57237 0
M  V30 2907 C 268.784 -0.810921 1.85117 0
M  V30 2908 C 269.105 -1.7984 0.753827 0
M  V30 2909 O 268.375 -1.94649 -0.221056 0
M  V30 2910 H 266.955 -0.302466 0.683025 0
M  V30 2911 H 269.617 -0.0913324 1.94686 0
M  V30 2912 H 268.713 -1.34875 2.81452 0
M  V30 2913 N 269.014 -1.53014 -0.377408 0
M  V30 2914 C 269.944 -1.81589 -1.46791 0
M  V30 2915 C 270.925 -0.668622 -1.56408 0
M  V30 2916 O 272.11 -0.917337 -1.71168 0
M  V30 2917 C 269.24 -1.99519 -2.8427 0
M  V30 2918 C 268.194 -3.15249 -2.89486 0
M  V30 2919 C 267.52 -3.18451 -4.29527 0
M  V30 2920 C 268.82 -4.54084 -2.58079 0
M  V30 2921 H 270.514 -2.7291 -1.23127 0
M  V30 2922 H 268.06 -1.31319 -0.590883 0
M  V30 2923 H 270.013 -2.18092 -3.60575 0
M  V30 2924 H 268.737 -1.04897 -3.09296 0
M  V30 2925 H 267.396 -2.96477 -2.15631 0
M  V30 2926 H 267.044 -2.2149 -4.5161 0
M  V30 2927 H 266.744 -3.962 -4.33934 0
M  V30 2928 H 268.268 -3.39193 -5.07721 0
M  V30 2929 H 269.682 -4.72899 -3.24098 0
M  V30 2930 H 268.079 -5.33987 -2.7382 0
M  V30 2931 H 269.149 -4.60006 -1.53372 0
M  V30 2932 N 270.492 0.636531 -1.44174 0
M  V30 2933 C 271.908 0.954104 -1.27941 0
M  V30 2934 C 272.108 2.0039 -0.211248 0
M  V30 2935 O 271.164 2.49236 0.404695 0
M  V30 2936 C 272.477 1.4225 -2.64925 0
M  V30 2937 C 274.025 1.53827 -2.72592 0
M  V30 2938 C 274.5 2.04053 -4.10032 0
M  V30 2939 N 275.991 2.11331 -4.12182 0
M  V30 2940 C 276.726 2.51352 -5.15374 0
M  V30 2941 N 276.222 2.90549 -6.2893 0
M  V30 2942 N 278.015 2.51438 -5.02728 0
M  V30 2943 H 270.166 -0.0578386 -2.12321 0
M  V30 2944 H 272.429 0.0367406 -0.947288 0
M  V30 2945 H 272.135 0.725466 -3.44136 0
M  V30 2946 H 272.009 2.39451 -2.9145 0
M  V30 2947 H 274.396 2.22628 -1.93702 0
M  V30 2948 H 274.477 0.550154 -2.49814 0
M  V30 2949 H 274.121 1.35848 -4.89395 0
M  V30 2950 H 274.051 3.03726 -4.30184 0
M  V30 2951 H 276.542 1.83745 -3.30222 0
M  V30 2952 H 276.855 3.19884 -7.03487 0
M  V30 2953 H 275.2 2.88313 -6.32377 0
M  V30 2954 H 278.391 2.20203 -4.13072 0
M  V30 2955 H 278.564 2.82304 -5.83274 0
M  V30 2956 N 271.97 1.30982 0.876444 0
M  V30 2957 C 273.195 1.23373 1.66715 0
M  V30 2958 C 273.62 -0.19885 1.87046 0
M  V30 2959 O 272.978 -1.1427 1.40756 0
M  V30 2960 C 273.026 1.97644 3.01611 0
M  V30 2961 O 272.13 1.30935 3.91062 0
M  V30 2962 H 271.471 0.426279 0.509099 0
M  V30 2963 H 274.001 1.72944 1.09323 0
M  V30 2964 H 274.011 2.06992 3.51594 0
M  V30 2965 H 272.686 3.01829 2.86133 0
M  V30 2966 H 271.263 1.29996 3.49507 0
M  V30 2967 N 273.449 -1.08991 1.13837 0
M  V30 2968 C 274.397 -2.17841 0.815347 0
M  V30 2969 C 275.391 -1.68164 -0.204233 0
M  V30 2970 O 276.597 -1.79897 -0.0609304 0
M  V30 2971 H 272.972 -0.710654 0.245915 0
M  V30 2972 H 274.943 -2.42315 1.74143 0
M  V30 2973 C 273.692 -3.46381 0.302614 0
M  V30 2974 H 273.015 -3.84979 1.0785 0
M  V30 2975 H 274.455 -4.23844 0.115074 0
M  V30 2976 C 272.914 -3.22556 -0.972591 0
M  V30 2977 O 273.444 -3.45599 -2.04754 0
M  V30 2978 N 271.65 -2.76134 -0.905455 0
M  V30 2979 H 271.197 -2.57582 -0.0305421 0
M  V30 2980 H 271.155 -2.60571 -1.75926 0
M  V30 2981 N 274.927 -0.932562 -1.27047 0
M  V30 2982 C 275.859 -0.392734 -2.2581 0
M  V30 2983 C 276.872 0.479241 -1.55586 0
M  V30 2984 O 278.061 0.291078 -1.76111 0
M  V30 2985 C 275.161 0.455456 -3.35826 0
M  V30 2986 C 274.334 -0.398355 -4.35582 0
M  V30 2987 C 273.393 0.387985 -5.24768 0
M  V30 2988 O 272.419 -0.206003 -5.68827 0
M  V30 2989 N 273.621 1.68664 -5.55457 0
M  V30 2990 H 276.386 -1.24173 -2.72766 0
M  V30 2991 H 273.947 -0.800511 -1.40725 0
M  V30 2992 H 275.939 0.988692 -3.92437 0
M  V30 2993 H 274.509 1.20522 -2.88432 0
M  V30 2994 H 273.729 -1.11286 -3.78165 0
M  V30 2995 H 275.017 -0.981889 -4.99236 0
M  V30 2996 H 274.415 2.19147 -5.21528 0
M  V30 2997 H 272.972 2.1663 -6.14748 0
M  V30 2998 N 276.405 1.4127 -0.698611 0
M  V30 2999 C 277.651 2.01979 -0.239972 0
M  V30 3000 C 278.006 1.54353 1.14861 0
M  V30 3001 O 277.299 0.746218 1.76471 0
M  V30 3002 C 277.493 3.56592 -0.240192 0
M  V30 3003 C 277.322 4.19226 -1.62726 0
M  V30 3004 C 276.092 4.53389 -2.23084 0
M  V30 3005 C 278.29 4.45228 -2.57443 0
M  V30 3006 N 276.272 5.01327 -3.54323 0
M  V30 3007 C 277.643 4.94973 -3.73365 0
M  V30 3008 C 279.698 4.27243 -2.55671 0
M  V30 3009 C 278.401 5.28624 -4.878 0
M  V30 3010 C 280.427 4.61985 -3.69221 0
M  V30 3011 C 279.789 5.11904 -4.83873 0
M  V30 3012 H 275.888 0.770561 -0.133269 0
M  V30 3013 H 278.472 1.71767 -0.916748 0
M  V30 3014 H 276.643 3.86271 0.406082 0
M  V30 3015 H 278.375 4.04025 0.23356 0
M  V30 3016 H 275.13 4.39946 -1.75341 0
M  V30 3017 H 275.554 5.29697 -4.21604 0
M  V30 3018 H 280.196 3.87884 -1.68243 0
M  V30 3019 H 277.914 5.66905 -5.75885 0
M  V30 3020 H 281.5 4.49725 -3.69105 0
M  V30 3021 H 280.38 5.38282 -5.70282 0
M  V30 3022 N 277.883 0.443576 1.51229 0
M  V30 3023 C 279.131 -0.120557 2.0174 0
M  V30 3024 C 279.452 -1.42665 1.32935 0
M  V30 3025 O 278.722 -1.9028 0.465866 0
M  V30 3026 H 277.302 -0.0475426 0.745486 0
M  V30 3027 H 279.964 0.587711 1.85828 0
M  V30 3028 H 279.06 -0.291972 3.10731 0
M  V30 3029 N 279.361 -1.56624 0.175154 0
M  V30 3030 C 280.777 -1.58571 -0.180966 0
M  V30 3031 C 280.977 -1.19065 -1.6256 0
M  V30 3032 O 280.033 -0.904044 -2.35761 0
M  V30 3033 C 281.346 -3.00522 0.103326 0
M  V30 3034 C 282.894 -3.12972 0.0418426 0
M  V30 3035 C 283.369 -4.57022 0.299175 0
M  V30 3036 N 284.86 -4.62541 0.247086 0
M  V30 3037 C 285.595 -5.71857 0.420318 0
M  V30 3038 N 285.091 -6.89717 0.652816 0
M  V30 3039 N 286.884 -5.60972 0.355957 0
M  V30 3040 H 279.035 -1.80589 1.11809 0
M  V30 3041 H 281.298 -0.837178 0.444788 0
M  V30 3042 H 281.004 -3.33916 1.10422 0
M  V30 3043 H 280.878 -3.72344 -0.603299 0
M  V30 3044 H 283.265 -2.79403 -0.949636 0
M  V30 3045 H 283.346 -2.43578 0.781238 0
M  V30 3046 H 282.99 -4.913 1.28788 0
M  V30 3047 H 282.92 -5.24579 -0.460876 0
M  V30 3048 H 285.411 -3.77829 0.0731895 0
M  V30 3049 H 285.724 -7.68911 0.774347 0
M  V30 3050 H 284.069 -6.91572 0.689476 0
M  V30 3051 H 287.26 -4.67773 0.174882 0
M  V30 3052 H 287.433 -6.46111 0.494388 0
M  V30 3053 N 280.839 0.0985539 -1.57292 0
M  V30 3054 C 282.064 0.820196 -1.90493 0
M  V30 3055 C 282.489 1.71658 -0.769094 0
M  V30 3056 O 281.847 1.79133 0.279495 0
M  V30 3057 C 281.895 1.61242 -3.22542 0
M  V30 3058 O 280.999 2.72108 -3.09888 0
M  V30 3059 H 280.34 0.225547 -0.62452 0
M  V30 3060 H 282.87 0.0748159 -2.04463 0
M  V30 3061 H 282.88 1.99737 -3.55766 0
M  V30 3062 H 281.555 0.954535 -4.04798 0
M  V30 3063 H 280.132 2.36667 -2.88172 0
M  V30 3064 N 282.317 1.53212 0.369288 0
M  V30 3065 C 283.542 1.73423 1.1375 0
M  V30 3066 C 283.967 0.460404 1.82378 0
M  V30 3067 O 283.325 -0.585298 1.71592 0
M  V30 3068 C 283.373 2.89769 2.1463 0
M  V30 3069 O 282.477 2.58119 3.21634 0
M  V30 3070 H 281.818 0.576061 0.330227 0
M  V30 3071 H 284.348 2.00083 0.427547 0
M  V30 3072 H 284.358 3.15829 2.58294 0
M  V30 3073 H 283.033 3.8217 1.64071 0
M  V30 3074 H 281.61 2.42864 2.82969 0
M  V30 3075 N 283.795 -0.628877 1.44509 0
M  V30 3076 C 285.035 -1.39993 1.48934 0
M  V30 3077 C 285.399 -1.91627 0.119604 0
M  V30 3078 O 286.6 -2.68772 0.0385283 0
M  V30 3079 C 284.871 -2.53241 2.52198 0
M  V30 3080 S 286.43 -3.41383 2.75687 0
M  V30 3081 H 283.248 -0.477558 0.526744 0
M  V30 3082 H 285.85 -0.727804 1.81448 0
M  V30 3083 H 284.554 -2.13622 3.50419 0
M  V30 3084 H 284.085 -3.25278 2.21264 0
M  V30 3085 H 286.1 -4.50752 2.07453 0
M  V30 3086 N 285.273 -1.31445 -0.869486 0
M  V30 3087 C 286.501 -1.24122 -1.65534 0
M  V30 3088 C 286.916 0.193387 -1.87807 0
M  V30 3089 O 286.273 1.12557 -1.43656 0
M  V30 3090 C 286.324 -1.98229 -3.02304 0
M  V30 3091 O 286.045 -3.3609 -2.81026 0
M  V30 3092 C 287.546 -1.97751 -3.96749 0
M  V30 3093 H 284.766 -0.428868 -0.516055 0
M  V30 3094 H 287.31 -1.73328 -1.08525 0
M  V30 3095 H 285.465 -1.52782 -3.56001 0
M  V30 3096 H 285.879 -3.7383 -3.67902 0
M  V30 3097 H 287.353 -2.54114 -4.90031 0
M  V30 3098 H 287.83 -0.960137 -4.28577 0
M  V30 3099 H 288.436 -2.43079 -3.48988 0
M  V30 3100 N 286.751 1.08385 -1.14413 0
M  V30 3101 C 288 1.80153 -0.907076 0
M  V30 3102 C 288.313 1.87176 0.567851 0
M  V30 3103 O 289.519 2.55359 0.922172 0
M  V30 3104 C 287.975 3.23687 -1.57336 0
M  V30 3105 C 287.583 3.24897 -3.08457 0
M  V30 3106 C 289.327 4.00136 -1.41744 0
M  V30 3107 C 287.234 4.6302 -3.67921 0
M  V30 3108 H 286.164 0.675139 -0.335714 0
M  V30 3109 H 288.815 1.21733 -1.37307 0
M  V30 3110 H 287.197 3.82234 -1.03505 0
M  V30 3111 H 288.371 2.76055 -3.68958 0
M  V30 3112 H 286.686 2.61943 -3.2369 0
M  V30 3113 H 289.283 5.02201 -1.83572 0
M  V30 3114 H 289.626 4.14709 -0.363576 0
M  V30 3115 H 290.159 3.48058 -1.92614 0
M  V30 3116 H 286.898 4.5365 -4.73161 0
M  V30 3117 H 286.418 5.12143 -3.12201 0
M  V30 3118 H 288.097 5.31994 -3.68227 0
M  V30 3119 N 288.23 0.939286 1.26551 0
M  V30 3120 C 289.178 0.43815 2.28436 0
M  V30 3121 C 290.172 -0.483587 1.62351 0
M  V30 3122 O 291.378 -0.362009 1.76322 0
M  V30 3123 H 287.753 0.123149 0.741848 0
M  V30 3124 H 289.724 1.31002 2.68106 0
M  V30 3125 C 288.473 -0.283052 3.46546 0
M  V30 3126 H 287.796 0.417043 3.97619 0
M  V30 3127 H 289.236 -0.597948 4.19763 0
M  V30 3128 C 287.695 -1.50018 3.01656 0
M  V30 3129 O 288.225 -2.59855 3.0633 0
M  V30 3130 N 286.431 -1.35608 2.57019 0
M  V30 3131 H 285.978 -0.46244 2.53415 0
M  V30 3132 H 285.936 -2.17165 2.27347 0
M  V30 3133 N 289.708 -1.40897 0.706093 0
M  V30 3134 C 290.954 -2.01849 0.250681 0
M  V30 3135 C 291.309 -1.5496 -1.14041 0
M  V30 3136 O 290.602 -0.755566 -1.76073 0
M  V30 3137 C 290.796 -3.5646 0.259099 0
M  V30 3138 C 290.625 -4.18357 1.64947 0
M  V30 3139 C 289.395 -4.522 2.25485 0
M  V30 3140 C 291.593 -4.43856 2.598 0
M  V30 3141 N 289.575 -4.9944 3.56977 0
M  V30 3142 C 290.946 -4.92986 3.75985 0
M  V30 3143 C 293.001 -4.25882 2.57933 0
M  V30 3144 C 291.704 -5.2603 4.90597 0
M  V30 3145 C 293.73 -4.6002 3.71665 0
M  V30 3146 C 293.092 -5.09331 4.86581 0
M  V30 3147 H 289.191 -0.769843 0.137353 0
M  V30 3148 H 291.775 -1.71278 0.925845 0
M  V30 3149 H 289.946 -3.86481 -0.385592 0
M  V30 3150 H 291.678 -4.04144 -0.21213 0
M  V30 3151 H 288.433 -4.3901 1.77671 0
M  V30 3152 H 288.857 -5.27454 4.24407 0
M  V30 3153 H 293.499 -3.86986 1.70298 0
M  V30 3154 H 291.217 -5.63843 5.78884 0
M  V30 3155 H 294.803 -4.47762 3.71484 0
M  V30 3156 H 293.683 -5.35251 5.73129 0
M  V30 3157 N 291.186 -0.45159 -1.50991 0
M  V30 3158 C 292.597 0.00818571 -1.86698 0
M  V30 3159 C 292.948 1.40661 -1.3678 0
M  V30 3160 O 292.073 2.0391 -0.724546 0
M  V30 3161 C 292.668 0.0216303 -3.38793 0
M  V30 3162 C 291.227 0.425865 -3.73983 0
M  V30 3163 C 290.374 -0.372163 -2.74791 0
M  V30 3164 H 293.325 -0.666785 -1.44013 0
M  V30 3165 H 293.346 0.828078 -3.7138 0
M  V30 3166 H 292.858 -0.996288 -3.75094 0
M  V30 3167 H 290.959 1.44886 -3.43277 0
M  V30 3168 H 291.072 0.140761 -4.78893 0
M  V30 3169 H 289.436 0.171498 -2.54122 0
M  V30 3170 H 290.219 -1.38922 -3.13935 0
M  V30 3171 N 292.664 1.56529 -0.183458 0
M  V30 3172 C 293.912 1.96855 0.457452 0
M  V30 3173 C 294.233 1.07104 1.62953 0
M  V30 3174 O 293.503 0.139887 1.954 0
M  V30 3175 H 292.083 0.72693 0.171992 0
M  V30 3176 H 294.745 1.93056 -0.267476 0
M  V30 3177 H 293.841 3.01423 0.809368 0
M  V30 3178 N 294.142 -0.090211 1.57342 0
M  V30 3179 C 295.052 -1.12735 2.05738 0
M  V30 3180 C 296.068 -1.43557 0.983231 0
M  V30 3181 O 297.244 -1.54101 1.29672 0
M  V30 3182 C 294.309 -2.42659 2.47624 0
M  V30 3183 C 293.37 -2.18975 3.69254 0
M  V30 3184 C 292.603 -3.42704 4.09133 0
M  V30 3185 O 292.826 -4.51127 3.49057 0
M  V30 3186 O 291.76 -3.32003 5.02053 0
M  V30 3187 H 295.586 -0.746279 2.94388 0
M  V30 3188 H 293.171 -0.303064 1.46294 0
M  V30 3189 H 295.053 -3.19155 2.7517 0
M  V30 3190 H 293.728 -2.80182 1.62109 0
M  V30 3191 H 292.635 -1.40244 3.46818 0
M  V30 3192 H 293.968 -1.86342 4.55563 0
M  V30 3193 N 295.62 -1.53406 -0.361157 0
M  V30 3194 C 296.845 -1.74024 -1.12829 0
M  V30 3195 C 297.27 -0.470069 -1.82132 0
M  V30 3196 O 296.628 0.57619 -1.719 0
M  V30 3197 C 296.676 -2.90903 -2.13091 0
M  V30 3198 O 295.78 -2.59821 -3.20261 0
M  V30 3199 H 295.121 -0.577804 -0.327168 0
M  V30 3200 H 297.651 -2.00307 -0.41693 0
M  V30 3201 H 297.661 -3.17194 -2.56616 0
M  V30 3202 H 296.336 -3.83034 -1.62042 0
M  V30 3203 H 294.913 -2.44362 -2.81677 0
M  V30 3204 N 297.098 0.621204 -1.44841 0
M  V30 3205 C 298.346 1.37783 -1.47852 0
M  V30 3206 C 298.667 1.94653 -0.116224 0
M  V30 3207 O 297.937 1.76367 0.852737 0
M  V30 3208 H 296.517 0.511453 -0.544449 0
M  V30 3209 H 299.179 0.730446 -1.80694 0
M  V30 3210 H 298.275 2.20414 -2.20961 0
M  V30 3211 N 298.576 1.31904 0.862503 0
M  V30 3212 C 299.539 1.20131 1.95195 0
M  V30 3213 C 300.539 0.126409 1.60302 0
M  V30 3214 O 301.729 0.376234 1.70089 0
M  V30 3215 C 298.861 0.845691 3.30244 0
M  V30 3216 H 300.054 2.16943 2.07064 0
M  V30 3217 H 297.607 1.15622 1.05172 0
M  V30 3218 H 298.342 -0.120957 3.24074 0
M  V30 3219 H 298.127 1.62276 3.56944 0
M  V30 3220 H 299.617 0.787418 4.10109 0
M  V30 3221 N 300.054 -1.07777 1.14986 0
M  V30 3222 C 301.3 -1.80719 0.93339 0
M  V30 3223 C 301.655 -1.8484 -0.534019 0
M  V30 3224 O 300.948 -1.31795 -1.3907 0
M  V30 3225 C 301.142 -3.25495 1.47608 0
M  V30 3226 C 300.971 -3.3548 2.99472 0
M  V30 3227 C 299.741 -3.46293 3.6798 0
M  V30 3228 C 301.939 -3.26596 3.97291 0
M  V30 3229 N 299.921 -3.45136 5.07695 0
M  V30 3230 C 301.292 -3.32506 5.23297 0
M  V30 3231 C 303.347 -3.10376 3.89321 0
M  V30 3232 C 302.05 -3.23866 6.42264 0
M  V30 3233 C 304.076 -3.03069 5.07842 0
M  V30 3234 C 303.438 -3.09587 6.32721 0
M  V30 3235 H 299.537 -0.674814 0.395158 0
M  V30 3236 H 302.121 -1.28681 1.46114 0
M  V30 3237 H 300.292 -3.75963 0.975022 0
M  V30 3238 H 302.024 -3.86535 1.19887 0
M  V30 3239 H 298.779 -3.50456 3.18555 0
M  V30 3240 H 299.203 -3.48097 5.80653 0
M  V30 3241 H 303.845 -3.04194 2.93642 0
M  V30 3242 H 301.563 -3.28807 7.38181 0
M  V30 3243 H 305.149 -2.91629 5.03432 0
M  V30 3244 H 304.029 -3.0397 7.22891 0
M  V30 3245 N 301.532 -0.945985 -1.26051 0
M  V30 3246 C 302.762 -0.612136 -1.97323 0
M  V30 3247 C 303.17 0.818171 -1.70595 0
M  V30 3248 O 302.513 1.55777 -0.973613 0
M  V30 3249 C 302.575 -0.780347 -3.50929 0
M  V30 3250 C 302.239 -2.18619 -4.01317 0
M  V30 3251 C 303.236 -3.16209 -4.12683 0
M  V30 3252 C 300.921 -2.50805 -4.35203 0
M  V30 3253 C 302.915 -4.44085 -4.57238 0
M  V30 3254 C 300.602 -3.78912 -4.79446 0
M  V30 3255 C 301.6 -4.75365 -4.90425 0
M  V30 3256 O 301.288 -6.01191 -5.3369 0
M  V30 3257 H 301.02 -0.229134 -0.635982 0
M  V30 3258 H 303.574 -1.27036 -1.61404 0
M  V30 3259 H 301.804 -0.0649864 -3.86645 0
M  V30 3260 H 303.493 -0.448842 -4.03411 0
M  V30 3261 H 304.259 -2.92668 -3.86744 0
M  V30 3262 H 300.138 -1.76463 -4.2589 0
M  V30 3263 H 303.682 -5.19373 -4.65723 0
M  V30 3264 H 299.579 -4.02265 -5.0483 0
M  V30 3265 H 300.347 -6.04442 -5.51899 0
M  V30 3266 N 303.011 1.40521 -0.713556 0
M  V30 3267 C 304.239 2.05237 -0.261775 0
M  V30 3268 C 304.654 1.53755 1.09567 0
M  V30 3269 O 304.011 0.693268 1.6882 0
M  V30 3270 C 304.062 3.60763 -0.230706 0
M  V30 3271 O 303.783 4.10345 -1.53455 0
M  V30 3272 C 305.284 4.42651 0.239874 0
M  V30 3273 H 302.504 0.660533 -0.118057 0
M  V30 3274 H 305.048 1.79967 -0.971192 0
M  V30 3275 H 303.203 3.8501 0.429661 0
M  V30 3276 H 303.617 5.04526 -1.43366 0
M  V30 3277 H 305.091 5.51599 0.210468 0
M  V30 3278 H 305.568 4.20082 1.28171 0
M  V30 3279 H 306.174 4.23507 -0.390142 0
M  V30 3280 N 304.489 0.459591 1.5075 0
M  V30 3281 C 305.737 -0.0991532 2.01857 0
M  V30 3282 C 306.058 -1.41247 1.34441 0
M  V30 3283 O 305.328 -1.89775 0.486022 0
M  V30 3284 H 303.908 -0.039633 0.745948 0
M  V30 3285 H 306.57 0.607387 1.85194 0
M  V30 3286 H 305.666 -0.258998 3.11023 0
M  V30 3287 N 305.967 -1.56429 0.191757 0
M  V30 3288 C 307.214 -1.97485 -0.447891 0
M  V30 3289 C 307.542 -1.07852 -1.61859 0
M  V30 3290 O 306.797 -0.116903 -1.95351 0
M  V30 3291 C 307.096 -3.44449 -0.953384 0
M  V30 3292 C 306.762 -4.50781 0.103586 0
M  V30 3293 C 305.424 -4.79584 0.394023 0
M  V30 3294 C 307.776 -5.1471 0.819946 0
M  V30 3295 C 305.104 -5.69607 1.40585 0
M  V30 3296 C 307.456 -6.05827 1.8209 0
M  V30 3297 C 306.12 -6.32987 2.11857 0
M  V30 3298 H 305.39 -0.722648 -0.163895 0
M  V30 3299 H 308.037 -1.89322 0.28802 0
M  V30 3300 H 306.342 -3.49666 -1.76751 0
M  V30 3301 H 308.039 -3.73569 -1.45765 0
M  V30 3302 H 304.629 -4.28394 -0.132951 0
M  V30 3303 H 308.813 -4.92552 0.608789 0
M  V30 3304 H 304.069 -5.88926 1.64243 0
M  V30 3305 H 308.243 -6.54424 2.38123 0
M  V30 3306 H 305.87 -7.02544 2.90407 0
M  V30 3307 N 307.445 0.0818655 -1.57387 0
M  V30 3308 C 308.694 0.781681 -1.85937 0
M  V30 3309 C 309.007 1.79246 -0.782957 0
M  V30 3310 O 310.213 2.54112 -0.955987 0
M  V30 3311 C 308.669 1.44109 -3.29789 0
M  V30 3312 C 308.277 0.469396 -4.45534 0
M  V30 3313 C 310.021 2.12386 -3.67549 0
M  V30 3314 C 307.928 1.13415 -5.80423 0
M  V30 3315 H 306.858 0.295682 -0.693605 0
M  V30 3316 H 309.509 0.0348051 -1.83467 0
M  V30 3317 H 307.891 2.23588 -3.2684 0
M  V30 3318 H 309.065 -0.294856 -4.59856 0
M  V30 3319 H 307.38 -0.108383 -4.16259 0
M  V30 3320 H 309.977 2.62878 -4.65617 0
M  V30 3321 H 310.32 2.91877 -2.96839 0
M  V30 3322 H 310.853 1.39751 -3.72444 0
M  V30 3323 H 307.592 0.379771 -6.54399 0
M  V30 3324 H 307.112 1.8695 -5.69921 0
M  V30 3325 H 308.791 1.65686 -6.25426 0
M  V30 3326 N 308.923 1.53595 0.353017 0
M  V30 3327 C 310.172 1.69603 1.09168 0
M  V30 3328 C 310.485 0.460925 1.90092 0
M  V30 3329 O 311.691 0.501774 2.66823 0
M  V30 3330 C 310.147 2.99872 1.9901 0
M  V30 3331 C 309.755 4.30687 1.23339 0
M  V30 3332 C 311.499 3.25246 2.72792 0
M  V30 3333 C 309.406 5.52036 2.12156 0
M  V30 3334 H 308.336 0.631966 0.411261 0
M  V30 3335 H 310.987 1.80096 0.351802 0
M  V30 3336 H 309.369 2.83212 2.7678 0
M  V30 3337 H 310.543 4.58019 0.505456 0
M  V30 3338 H 308.858 4.11853 0.613663 0
M  V30 3339 H 311.455 4.13095 3.39495 0
M  V30 3340 H 311.798 2.41846 3.38846 0
M  V30 3341 H 312.331 3.42638 2.021 0
M  V30 3342 H 309.07 6.37951 1.50659 0
M  V30 3343 H 308.59 5.28966 2.82764 0
M  V30 3344 H 310.269 5.87313 2.71427 0
M  V30 3345 N 310.401 -0.613514 1.45168 0
M  V30 3346 C 311.631 -1.39743 1.52169 0
M  V30 3347 C 312.039 -1.88596 0.151086 0
M  V30 3348 O 311.382 -1.6251 -0.856521 0
M  V30 3349 C 311.444 -2.64035 2.43979 0
M  V30 3350 C 311.108 -2.36861 3.90827 0
M  V30 3351 C 312.105 -1.97591 4.80889 0
M  V30 3352 C 309.79 -2.49956 4.35692 0
M  V30 3353 C 311.784 -1.71768 6.1382 0
M  V30 3354 C 309.471 -2.23747 5.68665 0
M  V30 3355 C 310.469 -1.84714 6.57548 0
M  V30 3356 O 310.157 -1.58809 7.88058 0
M  V30 3357 H 309.889 -0.434382 0.517966 0
M  V30 3358 H 312.443 -0.75587 1.90986 0
M  V30 3359 H 310.673 -3.3089 2.00122 0
M  V30 3360 H 312.362 -3.26069 2.41731 0
M  V30 3361 H 313.128 -1.87015 4.47493 0
M  V30 3362 H 309.007 -2.79305 3.66756 0
M  V30 3363 H 312.551 -1.41227 6.83155 0
M  V30 3364 H 308.448 -2.33938 6.01617 0
M  V30 3365 H 309.216 -1.7291 8.00028 0
M  V30 3366 N 311.879 -1.3236 -0.855495 0
M  V30 3367 C 313.107 -1.2587 -1.64208 0
M  V30 3368 C 313.522 0.173457 -1.88002 0
M  V30 3369 O 312.879 1.11027 -1.44842 0
M  V30 3370 C 312.93 -2.01424 -3.00184 0
M  V30 3371 O 312.651 -3.39051 -2.77445 0
M  V30 3372 C 314.152 -2.01948 -3.94629 0
M  V30 3373 H 311.372 -0.434318 -0.511477 0
M  V30 3374 H 313.916 -1.74469 -1.0668 0
M  V30 3375 H 312.071 -1.56549 -3.5436 0
M  V30 3376 H 312.485 -3.77711 -3.63916 0
M  V30 3377 H 313.959 -2.59297 -4.87308 0
M  V30 3378 H 314.436 -1.00554 -4.27534 0
M  V30 3379 H 315.042 -2.46767 -3.4639 0
M  V30 3380 N 313.357 1.07166 -1.15556 0
M  V30 3381 C 314.604 1.79798 -0.931604 0
M  V30 3382 C 314.932 1.8682 0.54115 0
M  V30 3383 O 314.187 1.34942 1.41736 0
M  V30 3384 C 314.486 3.24707 -1.49332 0
M  V30 3385 C 314.152 3.37781 -2.98688 0
M  V30 3386 C 312.814 3.41057 -3.39461 0
M  V30 3387 C 315.166 3.40424 -3.94665 0
M  V30 3388 C 312.494 3.4458 -4.74849 0
M  V30 3389 C 314.846 3.45485 -5.29927 0
M  V30 3390 C 313.51 3.47039 -5.70193 0
M  V30 3391 H 312.78 0.657928 -0.340898 0
M  V30 3392 H 315.427 1.26091 -1.44129 0
M  V30 3393 H 313.732 3.81208 -0.904859 0
M  V30 3394 H 315.429 3.79486 -1.29582 0
M  V30 3395 H 312.019 3.35932 -2.66172 0
M  V30 3396 H 316.203 3.37113 -3.64237 0
M  V30 3397 H 311.459 3.44083 -5.05388 0
M  V30 3398 H 315.633 3.46476 -6.04092 0
M  V30 3399 H 313.26 3.49522 -6.75084 0
M  V30 3400 N 314.835 0.952656 1.25548 0
M  V30 3401 C 316.084 0.602053 1.92505 0
M  V30 3402 C 316.397 -0.864663 1.75451 0
M  V30 3403 O 317.603 -1.32514 2.36965 0
M  V30 3404 C 316.059 1.02607 3.44963 0
M  V30 3405 C 315.667 2.51519 3.70732 0
M  V30 3406 C 317.411 0.747905 4.1786 0
M  V30 3407 C 315.318 2.87732 5.16686 0
M  V30 3408 H 314.248 0.22146 0.720744 0
M  V30 3409 H 316.899 1.15684 1.42441 0
M  V30 3410 H 315.281 0.399712 3.93978 0
M  V30 3411 H 316.455 3.19157 3.32378 0
M  V30 3412 H 314.77 2.76786 3.11092 0
M  V30 3413 H 317.367 0.994647 5.25367 0
M  V30 3414 H 317.71 -0.315629 4.15102 0
M  V30 3415 H 318.243 1.33452 3.74747 0
M  V30 3416 H 314.982 3.93095 5.24554 0
M  V30 3417 H 314.502 2.24765 5.56094 0
M  V30 3418 H 316.181 2.76817 5.84792 0
M  V30 3419 N 316.313 -1.40141 0.720998 0
M  V30 3420 C 317.243 -2.33339 0.0867621 0
M  V30 3421 C 318.224 -1.53178 -0.739622 0
M  V30 3422 O 319.409 -1.81625 -0.687449 0
M  V30 3423 C 316.539 -3.37194 -0.831728 0
M  V30 3424 C 315.493 -4.27857 -0.110558 0
M  V30 3425 C 314.819 -5.22294 -1.14513 0
M  V30 3426 C 316.119 -5.11872 1.0385 0
M  V30 3427 H 317.813 -2.86626 0.865219 0
M  V30 3428 H 315.359 -1.37814 0.417516 0
M  V30 3429 H 317.312 -4.01335 -1.28485 0
M  V30 3430 H 316.036 -2.82314 -1.64214 0
M  V30 3431 H 314.695 -3.65176 0.322797 0
M  V30 3432 H 314.343 -4.63717 -1.94874 0
M  V30 3433 H 314.043 -5.83797 -0.667446 0
M  V30 3434 H 315.567 -5.89312 -1.59824 0
M  V30 3435 H 316.981 -5.69436 0.664482 0
M  V30 3436 H 315.378 -5.82445 1.4449 0
M  V30 3437 H 316.448 -4.4753 1.86668 0
M  V30 3438 N 317.792 -0.46758 -1.50504 0
M  V30 3439 C 319.04 0.0884469 -2.01906 0
M  V30 3440 C 319.361 1.40532 -1.35188 0
M  V30 3441 O 318.631 1.89515 -0.496079 0
M  V30 3442 H 317.211 0.0356765 -0.746148 0
M  V30 3443 H 319.873 -0.6172 -1.84869 0
M  V30 3444 H 318.969 0.2425 -3.11156 0
M  V30 3445 N 319.27 1.56325 -0.20005 0
M  V30 3446 C 320.517 1.97719 0.437411 0
M  V30 3447 C 320.845 1.08709 1.61284 0
M  V30 3448 O 320.1 0.127261 1.95286 0
M  V30 3449 C 320.399 3.4495 0.935103 0
M  V30 3450 C 320.065 4.5072 -0.12749 0
M  V30 3451 C 318.727 4.79368 -0.419451 0
M  V30 3452 C 321.079 5.14268 -0.847231 0
M  V30 3453 C 318.407 5.68854 -1.43604 0
M  V30 3454 C 320.759 6.04852 -1.85301 0
M  V30 3455 C 319.423 6.31855 -2.15211 0
M  V30 3456 H 318.693 0.723507 0.16006 0
M  V30 3457 H 321.34 1.89166 -0.298056 0
M  V30 3458 H 319.645 3.50599 1.74894 0
M  V30 3459 H 321.342 3.74337 1.43781 0
M  V30 3460 H 317.932 4.28458 0.11023 0
M  V30 3461 H 322.116 4.92222 -0.634901 0
M  V30 3462 H 317.372 5.88047 -1.67364 0
M  V30 3463 H 321.546 6.53152 -2.41591 0
M  V30 3464 H 319.173 7.00994 -2.94129 0
M  V30 3465 N 320.748 -0.0735177 1.57428 0
M  V30 3466 C 321.678 -1.0879 2.06608 0
M  V30 3467 C 322.659 -1.40473 0.959237 0
M  V30 3468 O 323.844 -1.5013 1.23185 0
M  V30 3469 C 320.974 -2.40183 2.50857 0
M  V30 3470 C 319.928 -2.22858 3.65402 0
M  V30 3471 C 319.254 -3.59619 3.957 0
M  V30 3472 C 320.554 -1.65123 4.95511 0
M  V30 3473 H 322.248 -0.678673 2.91607 0
M  V30 3474 H 319.794 -0.325013 1.40284 0
M  V30 3475 H 321.747 -3.11437 2.83874 0
M  V30 3476 H 320.471 -2.83083 1.62885 0
M  V30 3477 H 319.13 -1.54045 3.32664 0
M  V30 3478 H 318.778 -4.00086 3.04861 0
M  V30 3479 H 318.478 -3.48866 4.72828 0
M  V30 3480 H 320.002 -4.32306 4.31212 0
M  V30 3481 H 321.416 -2.26241 5.26771 0
M  V30 3482 H 319.813 -1.65071 5.7695 0
M  V30 3483 H 320.883 -0.612559 4.81015 0
M  V30 3484 N 322.226 -1.5378 -0.344866 0
M  V30 3485 C 323.472 -1.71216 -1.08687 0
M  V30 3486 C 323.805 -0.473281 -1.88345 0
M  V30 3487 O 323.08 0.52968 -1.87149 0
M  V30 3488 C 323.363 -2.97486 -2.02914 0
M  V30 3489 C 323.216 -4.31579 -1.26727 0
M  V30 3490 C 324.535 -3.19422 -3.0275 0
M  V30 3491 H 321.654 -0.62301 -0.393735 0
M  V30 3492 H 324.296 -1.8645 -0.365563 0
M  V30 3493 H 322.446 -2.84629 -2.64421 0
M  V30 3494 H 324.118 -4.56284 -0.67845 0
M  V30 3495 H 322.361 -4.30049 -0.569273 0
M  V30 3496 H 323.032 -5.16106 -1.95803 0
M  V30 3497 H 325.508 -3.316 -2.51357 0
M  V30 3498 H 324.384 -4.09169 -3.65885 0
M  V30 3499 H 324.645 -2.35656 -3.74057 0
M  V30 3500 N 323.704 0.605807 -1.45491 0
M  V30 3501 C 325.115 1.18777 -1.44045 0
M  V30 3502 C 325.466 1.95471 -0.169001 0
M  V30 3503 O 324.591 2.0374 0.729324 0
M  V30 3504 C 325.186 2.16064 -2.60963 0
M  V30 3505 C 323.745 2.69633 -2.62631 0
M  V30 3506 C 322.892 1.45072 -2.36325 0
M  V30 3507 H 325.843 0.395017 -1.53705 0
M  V30 3508 H 325.864 2.9913 -2.35163 0
M  V30 3509 H 325.376 1.60217 -3.53486 0
M  V30 3510 H 323.477 3.29414 -1.74119 0
M  V30 3511 H 323.59 3.13944 -3.61906 0
M  V30 3512 H 321.954 1.74089 -1.85917 0
M  V30 3513 H 322.737 0.910899 -3.30995 0
M  V30 3514 N 325.182 1.32811 0.848464 0
M  V30 3515 C 326.112 1.24882 1.97299 0
M  V30 3516 C 327.093 0.131357 1.69592 0
M  V30 3517 O 328.278 0.319553 1.91553 0
M  V30 3518 C 325.408 0.97746 3.33261 0
M  V30 3519 C 324.362 2.05682 3.75338 0
M  V30 3520 C 323.688 1.63777 5.09 0
M  V30 3521 C 324.988 3.47254 3.90144 0
M  V30 3522 H 326.682 2.18966 2.04191 0
M  V30 3523 H 324.228 1.05413 0.981029 0
M  V30 3524 H 326.181 0.908513 4.1149 0
M  V30 3525 H 324.905 0.000980011 3.266 0
M  V30 3526 H 323.564 2.11603 2.99366 0
M  V30 3527 H 323.212 0.648569 4.98801 0
M  V30 3528 H 322.912 2.36 5.38124 0
M  V30 3529 H 324.436 1.5833 5.89715 0
M  V30 3530 H 325.85 3.43888 4.58709 0
M  V30 3531 H 324.247 4.1788 4.30693 0
M  V30 3532 H 325.317 3.86462 2.92874 0
M  V30 3533 N 326.66 -1.06551 1.16123 0
M  V30 3534 C 327.888 -1.83005 0.965237 0
M  V30 3535 C 328.303 -1.82423 -0.486542 0
M  V30 3536 O 327.66 -1.24152 -1.33763 0
M  V30 3537 C 327.711 -3.29733 1.48183 0
M  V30 3538 O 327.432 -3.30416 2.87674 0
M  V30 3539 C 328.933 -4.22926 1.32848 0
M  V30 3540 H 326.153 -0.577118 0.342309 0
M  V30 3541 H 328.697 -1.3445 1.54089 0
M  V30 3542 H 326.852 -3.75609 0.948517 0
M  V30 3543 H 327.266 -4.22149 3.11272 0
M  V30 3544 H 328.74 -5.23916 1.73827 0
M  V30 3545 H 329.217 -4.38346 0.273692 0
M  V30 3546 H 329.823 -3.82894 1.85127 0
M  V30 3547 N 328.138 -0.959301 -1.25041 0
M  V30 3548 C 329.387 -0.612254 -1.92183 0
M  V30 3549 C 329.7 0.855347 -1.75907 0
M  V30 3550 O 330.906 1.31256 -2.37664 0
M  V30 3551 C 329.362 -1.04435 -3.44414 0
M  V30 3552 C 328.97 -2.53482 -3.69393 0
M  V30 3553 C 330.714 -0.770055 -4.17457 0
M  V30 3554 C 328.621 -2.90468 -5.15153 0
M  V30 3555 H 327.551 -0.225279 -0.719559 0
M  V30 3556 H 330.202 -1.16438 -1.41825 0
M  V30 3557 H 328.584 -0.4206 -3.9376 0
M  V30 3558 H 329.758 -3.20916 -3.30681 0
M  V30 3559 H 328.073 -2.78432 -3.0962 0
M  V30 3560 H 330.67 -1.02249 -5.24832 0
M  V30 3561 H 331.013 0.293611 -4.15263 0
M  V30 3562 H 331.546 -1.35437 -3.74034 0
M  V30 3563 H 328.285 -3.95871 -5.22462 0
M  V30 3564 H 327.805 -2.27711 -5.54894 0
M  V30 3565 H 329.484 -2.79914 -5.83315 0
M  V30 3566 N 329.616 1.39756 -0.72842 0
M  V30 3567 C 330.865 1.99879 -0.270407 0
M  V30 3568 C 331.178 1.58449 1.14688 0
M  V30 3569 O 332.384 2.11362 1.70407 0
M  V30 3570 C 330.84 3.57292 -0.43252 0
M  V30 3571 C 330.448 4.07688 -1.85727 0
M  V30 3572 C 332.192 4.24485 -0.0359507 0
M  V30 3573 C 330.099 5.5765 -1.96928 0
M  V30 3574 H 329.029 0.747689 -0.0973472 0
M  V30 3575 H 331.68 1.59837 -0.901355 0
M  V30 3576 H 330.062 3.95097 0.267219 0
M  V30 3577 H 331.236 3.81231 -2.58843 0
M  V30 3578 H 329.551 3.53135 -2.20646 0
M  V30 3579 H 332.148 5.34609 -0.0987484 0
M  V30 3580 H 332.491 4.03915 1.00787 0
M  V30 3581 H 333.024 3.9183 -0.686604 0
M  V30 3582 H 329.763 5.8309 -2.99476 0
M  V30 3583 H 329.283 5.8593 -1.28241 0
M  V30 3584 H 330.962 6.22957 -1.74737 0
M  V30 3585 N 331.094 0.475555 1.50254 0
M  V30 3586 C 332.334 -0.0765802 2.04256 0
M  V30 3587 C 332.698 -1.36587 1.34937 0
M  V30 3588 O 333.899 -2.00066 1.79519 0
M  V30 3589 C 332.17 -0.251668 3.56513 0
M  V30 3590 S 333.729 -0.761716 4.32138 0
M  V30 3591 H 330.547 -0.0138456 0.710865 0
M  V30 3592 H 333.149 0.643714 1.84598 0
M  V30 3593 H 331.853 0.692404 4.04517 0
M  V30 3594 H 331.384 -0.997946 3.80532 0
M  V30 3595 H 333.399 -2.03451 4.52573 0
M  V30 3596 N 332.573 -1.56217 0.208337 0
M  V30 3597 C 333.503 -2.22694 -0.702116 0
M  V30 3598 C 334.484 -1.19432 -1.2112 0
M  V30 3599 O 335.669 -1.47978 -1.25762 0
M  V30 3600 C 332.799 -2.8966 -1.9161 0
M  V30 3601 C 331.753 -3.9928 -1.5414 0
M  V30 3602 C 331.079 -4.53476 -2.83308 0
M  V30 3603 C 332.379 -5.17012 -0.741339 0
M  V30 3604 H 334.073 -2.99034 -0.147898 0
M  V30 3605 H 331.619 -1.43831 -0.0696951 0
M  V30 3606 H 333.572 -3.34852 -2.55836 0
M  V30 3607 H 332.296 -2.10746 -2.49507 0
M  V30 3608 H 330.955 -3.54799 -0.922668 0
M  V30 3609 H 330.603 -3.71308 -3.39322 0
M  V30 3610 H 330.303 -5.27451 -2.58976 0
M  V30 3611 H 331.827 -5.01378 -3.485 0
M  V30 3612 H 333.241 -5.58667 -1.28699 0
M  V30 3613 H 331.638 -5.97137 -0.595627 0
M  V30 3614 H 332.708 -4.8423 0.254851 0
M  V30 3615 N 334.051 0.0651679 -1.57465 0
M  V30 3616 C 335.291 0.768329 -1.8941 0
M  V30 3617 C 335.655 1.74406 -0.802894 0
M  V30 3618 O 336.856 2.49281 -1.0056 0
M  V30 3619 C 335.127 1.45199 -3.26576 0
M  V30 3620 S 336.686 2.1893 -3.80283 0
M  V30 3621 H 333.504 0.255359 -0.663561 0
M  V30 3622 H 336.106 0.024167 -1.95485 0
M  V30 3623 H 334.81 0.728123 -4.03889 0
M  V30 3624 H 334.341 2.23545 -3.23715 0
M  V30 3625 H 336.356 3.45551 -3.56102 0
M  V30 3626 N 335.529 1.53961 0.336706 0
M  V30 3627 C 336.759 1.75229 1.09446 0
M  V30 3628 C 337.167 0.494602 1.82621 0
M  V30 3629 O 336.51 -0.543764 1.75468 0
M  V30 3630 C 336.572 2.88288 2.1478 0
M  V30 3631 C 336.236 4.27656 1.6112 0
M  V30 3632 C 337.233 5.08981 1.0599 0
M  V30 3633 C 334.918 4.74161 1.6576 0
M  V30 3634 C 336.912 6.34916 0.562129 0
M  V30 3635 C 334.599 6.00067 1.15595 0
M  V30 3636 C 335.597 6.80278 0.609147 0
M  V30 3637 O 335.285 8.03818 0.114999 0
M  V30 3638 H 335.017 0.588881 0.331956 0
M  V30 3639 H 337.571 2.01614 0.392566 0
M  V30 3640 H 335.801 2.57443 2.88548 0
M  V30 3641 H 337.49 2.97461 2.76174 0
M  V30 3642 H 338.256 4.74213 1.01722 0
M  V30 3643 H 334.135 4.11781 2.07261 0
M  V30 3644 H 337.679 6.9747 0.134668 0
M  V30 3645 H 333.576 6.3433 1.19566 0
M  V30 3646 H 334.344 8.18172 0.231651 0
M  V30 3647 N 337.007 -0.598083 1.45811 0
M  V30 3648 C 337.937 -1.71873 1.58057 0
M  V30 3649 C 338.918 -1.64533 0.431615 0
M  V30 3650 O 340.103 -1.82787 0.65595 0
M  V30 3651 C 337.233 -3.10495 1.55597 0
M  V30 3652 C 336.187 -3.32654 2.69305 0
M  V30 3653 C 335.513 -4.71646 2.51902 0
M  V30 3654 C 336.813 -3.21981 4.11248 0
M  V30 3655 H 338.507 -1.61881 2.51863 0
M  V30 3656 H 336.053 -0.777372 1.21214 0
M  V30 3657 H 338.006 -3.88699 1.6276 0
M  V30 3658 H 336.73 -3.2135 0.583255 0
M  V30 3659 H 335.389 -2.56843 2.61586 0
M  V30 3660 H 335.037 -4.79246 1.52748 0
M  V30 3661 H 334.737 -4.87426 3.2816 0
M  V30 3662 H 336.261 -5.52038 2.60933 0
M  V30 3663 H 337.675 -3.90049 4.20161 0
M  V30 3664 H 336.072 -3.49289 4.87972 0
M  V30 3665 H 337.142 -2.1928 4.32486 0
M  V30 3666 N 338.485 -1.33259 -0.841409 0
M  V30 3667 C 339.732 -1.24572 -1.5965 0
M  V30 3668 C 340.06 0.189137 -1.93578 0
M  V30 3669 O 339.315 1.14566 -1.5866 0
M  V30 3670 C 339.614 -2.06381 -2.9179 0
M  V30 3671 C 339.28 -3.556 -2.77235 0
M  V30 3672 C 337.942 -3.96282 -2.72973 0
M  V30 3673 C 340.294 -4.50433 -2.62221 0
M  V30 3674 C 337.622 -5.30017 -2.51592 0
M  V30 3675 C 339.974 -5.84327 -2.42374 0
M  V30 3676 C 338.638 -6.24194 -2.36512 0
M  V30 3677 H 337.908 -0.455842 -0.5842 0
M  V30 3678 H 340.555 -1.6482 -0.975016 0
M  V30 3679 H 338.86 -1.58903 -3.5813 0
M  V30 3680 H 340.557 -1.97019 -3.49263 0
M  V30 3681 H 337.147 -3.23298 -2.81384 0
M  V30 3682 H 341.331 -4.19914 -2.64549 0
M  V30 3683 H 336.587 -5.59947 -2.45499 0
M  V30 3684 H 340.761 -6.57414 -2.29739 0
M  V30 3685 H 338.388 -7.27759 -2.19706 0
M  V30 3686 N 339.963 1.05934 -1.16686 0
M  V30 3687 C 341.212 1.78188 -0.945085 0
M  V30 3688 C 341.525 1.88338 0.528021 0
M  V30 3689 O 342.731 2.57258 0.867799 0
M  V30 3690 C 341.187 3.20277 -1.64167 0
M  V30 3691 C 340.795 3.18281 -3.15279 0
M  V30 3692 C 342.539 3.97039 -1.502 0
M  V30 3693 C 340.446 4.55112 -3.7766 0
M  V30 3694 H 339.376 0.667866 -0.349959 0
M  V30 3695 H 342.027 1.18794 -1.39858 0
M  V30 3696 H 340.409 3.79952 -1.11589 0
M  V30 3697 H 341.583 2.68167 -3.74731 0
M  V30 3698 H 339.898 2.55018 -3.29173 0
M  V30 3699 H 342.495 4.98194 -1.94183 0
M  V30 3700 H 342.838 4.13845 -0.451461 0
M  V30 3701 H 343.371 3.43894 -1.99954 0
M  V30 3702 H 340.11 4.43512 -4.82677 0
M  V30 3703 H 339.63 5.05406 -3.22994 0
M  V30 3704 H 341.309 5.24064 -3.79428 0
M  V30 3705 N 341.441 0.965919 1.2453 0
M  V30 3706 C 342.69 0.622437 1.91856 0
M  V30 3707 C 343.003 -0.846006 1.76358 0
M  V30 3708 O 344.209 -1.29993 2.38357 0
M  V30 3709 C 342.665 1.0626 3.43856 0
M  V30 3710 C 342.273 2.55437 3.68043 0
M  V30 3711 C 344.017 0.792183 4.17043 0
M  V30 3712 C 341.924 2.93196 5.13605 0
M  V30 3713 H 340.854 0.229092 0.718354 0
M  V30 3714 H 343.505 1.17189 1.41206 0
M  V30 3715 H 341.887 0.441476 3.93531 0
M  V30 3716 H 343.061 3.22665 3.28974 0
M  V30 3717 H 341.376 2.8007 3.08139 0
M  V30 3718 H 343.973 1.05031 5.24283 0
M  V30 3719 H 344.316 -0.271584 4.15413 0
M  V30 3720 H 344.849 1.37419 3.73311 0
M  V30 3721 H 341.588 3.98636 5.20355 0
M  V30 3722 H 341.108 2.30651 5.53679 0
M  V30 3723 H 342.787 2.83004 5.81823 0
M  V30 3724 N 342.919 -1.39368 0.735821 0
M  V30 3725 C 344.168 -1.99733 0.281004 0
M  V30 3726 C 344.481 -1.59055 -1.13846 0
M  V30 3727 O 345.687 -2.12262 -1.69284 0
M  V30 3728 C 344.143 -3.57057 0.451462 0
M  V30 3729 C 343.751 -4.06697 1.87886 0
M  V30 3730 C 345.495 -4.2446 0.0584616 0
M  V30 3731 C 343.402 -5.56598 1.99883 0
M  V30 3732 H 342.332 -0.747163 0.101311 0
M  V30 3733 H 344.983 -1.59357 0.909819 0
M  V30 3734 H 343.365 -3.95234 -0.246263 0
M  V30 3735 H 344.539 -3.79853 2.60861 0
M  V30 3736 H 342.854 -3.5196 2.22515 0
M  V30 3737 H 345.451 -5.34549 0.127099 0
M  V30 3738 H 345.794 -4.04444 -0.986433 0
M  V30 3739 H 346.327 -3.9146 0.707374 0
M  V30 3740 H 343.066 -5.81494 3.02564 0
M  V30 3741 H 342.586 -5.85242 1.31346 0
M  V30 3742 H 344.265 -6.22022 1.78039 0
M  V30 3743 N 344.397 -0.483516 -1.5 0
M  V30 3744 C 345.344 0.304164 -2.28787 0
M  V30 3745 C 346.314 0.976114 -1.34392 0
M  V30 3746 O 347.499 0.986156 -1.63339 0
M  V30 3747 C 344.639 1.37298 -3.16612 0
M  V30 3748 C 343.752 0.714561 -4.26049 0
M  V30 3749 C 342.887 1.76232 -5.01114 0
M  V30 3750 C 341.926 1.08483 -6.0241 0
M  V30 3751 N 341.063 2.076 -6.70706 0
M  V30 3752 H 345.903 -0.373981 -2.95644 0
M  V30 3753 H 343.44 -0.196275 -1.45785 0
M  V30 3754 H 345.398 2.00445 -3.65893 0
M  V30 3755 H 344.028 2.02012 -2.51776 0
M  V30 3756 H 343.08 -0.0297798 -3.80388 0
M  V30 3757 H 344.392 0.180383 -4.98474 0
M  V30 3758 H 343.546 2.46929 -5.54176 0
M  V30 3759 H 342.285 2.33033 -4.28424 0
M  V30 3760 H 341.29 0.363545 -5.48597 0
M  V30 3761 H 342.515 0.523551 -6.77079 0
M  V30 3762 H 340.461 2.63394 -6.00799 0
M  V30 3763 H 340.378 1.59201 -7.39047 0
M  V30 3764 H 341.646 2.77639 -7.2838 0
M  V30 3765 N 345.875 1.56104 -0.216619 0
M  V30 3766 C 347.121 1.98466 0.417033 0
M  V30 3767 C 347.454 1.10403 1.59765 0
M  V30 3768 O 346.729 0.160632 1.93836 0
M  V30 3769 C 347.012 3.49769 0.85637 0
M  V30 3770 C 346.865 4.48606 -0.327546 0
M  V30 3771 C 348.184 4.05339 1.7143 0
M  V30 3772 H 345.303 0.721551 0.150112 0
M  V30 3773 H 347.945 1.87423 -0.311864 0
M  V30 3774 H 346.095 3.5931 1.47745 0
M  V30 3775 H 347.767 4.5108 -0.965618 0
M  V30 3776 H 346.01 4.22682 -0.975805 0
M  V30 3777 H 346.681 5.51995 0.0227149 0
M  V30 3778 H 349.157 3.98712 1.19031 0
M  V30 3779 H 348.033 5.11533 1.99061 0
M  V30 3780 H 348.294 3.51918 2.67593 0
M  V30 3781 N 347.353 -0.0568162 1.57498 0
M  V30 3782 C 348.3 -1.06591 2.04712 0
M  V30 3783 C 349.27 -1.3758 0.930644 0
M  V30 3784 O 350.455 -1.48392 1.19935 0
M  V30 3785 C 347.595 -2.3701 2.50839 0
M  V30 3786 C 346.708 -2.12421 3.76167 0
M  V30 3787 C 345.843 -3.36511 4.11015 0
M  V30 3788 C 344.882 -3.07353 5.2934 0
M  V30 3789 N 344.019 -4.23816 5.59754 0
M  V30 3790 H 348.859 -0.65631 2.90683 0
M  V30 3791 H 346.396 -0.312481 1.43743 0
M  V30 3792 H 348.354 -3.13175 2.7564 0
M  V30 3793 H 346.984 -2.75744 1.67825 0
M  V30 3794 H 346.036 -1.2688 3.58616 0
M  V30 3795 H 347.348 -1.86894 4.62463 0
M  V30 3796 H 346.502 -4.21062 4.36797 0
M  V30 3797 H 345.241 -3.65128 3.23315 0
M  V30 3798 H 344.246 -2.212 5.03339 0
M  V30 3799 H 345.471 -2.80043 6.1867 0
M  V30 3800 H 343.417 -4.52436 4.75014 0
M  V30 3801 H 343.334 -4.01614 6.40501 0
M  V30 3802 H 344.602 -5.0932 5.90096 0
M  V30 3803 N 348.832 -1.54138 -0.328536 0
M  V30 3804 C 350.057 -1.76378 -1.09112 0
M  V30 3805 C 350.482 -0.508596 -1.81094 0
M  V30 3806 O 349.84 0.539598 -1.73084 0
M  V30 3807 C 349.888 -2.95358 -2.06872 0
M  V30 3808 O 348.992 -2.66556 -3.14677 0
M  V30 3809 H 348.333 -0.584614 -0.314838 0
M  V30 3810 H 350.863 -2.01146 -0.374348 0
M  V30 3811 H 350.873 -3.22566 -2.4983 0
M  V30 3812 H 349.548 -3.86385 -1.5388 0
M  V30 3813 H 348.125 -2.50282 -2.7643 0
M  V30 3814 N 350.31 0.590341 -1.46126 0
M  V30 3815 C 351.535 1.37991 -1.54833 0
M  V30 3816 C 351.96 1.87163 -0.187506 0
M  V30 3817 O 351.318 1.61133 0.831008 0
M  V30 3818 C 351.366 2.54867 -2.55098 0
M  V30 3819 O 350.47 3.56061 -2.08073 0
M  V30 3820 H 349.811 0.411265 -0.521303 0
M  V30 3821 H 352.341 0.716819 -1.91632 0
M  V30 3822 H 352.351 3.01886 -2.74461 0
M  V30 3823 H 351.026 2.18429 -3.53923 0
M  V30 3824 H 349.603 3.15574 -1.98664 0
M  V30 3825 N 351.788 1.33704 0.83433 0
M  V30 3826 C 353.036 1.25169 1.58673 0
M  V30 3827 C 353.357 -0.18127 1.94156 0
M  V30 3828 O 352.627 -1.11113 1.6134 0
M  V30 3829 H 351.207 0.4603 0.58833 0
M  V30 3830 H 353.869 1.67478 0.996847 0
M  V30 3831 H 352.965 1.84856 2.51465 0
M  V30 3832 N 353.266 -1.05314 1.17247 0
M  V30 3833 C 354.515 -1.77685 0.954521 0
M  V30 3834 C 354.828 -1.88616 -0.518025 0
M  V30 3835 O 356.034 -2.57714 -0.854144 0
M  V30 3836 C 354.49 -3.19402 1.65863 0
M  V30 3837 C 354.098 -3.16605 3.16963 0
M  V30 3838 C 355.842 -3.96237 1.52303 0
M  V30 3839 C 353.749 -4.53103 3.80068 0
M  V30 3840 H 352.679 -0.666 0.353496 0
M  V30 3841 H 355.33 -1.1805 1.40486 0
M  V30 3842 H 353.712 -3.79355 1.13602 0
M  V30 3843 H 354.886 -2.66176 3.76148 0
M  V30 3844 H 353.201 -2.53268 3.30521 0
M  V30 3845 H 355.798 -4.97157 1.96822 0
M  V30 3846 H 356.141 -4.136 0.473401 0
M  V30 3847 H 356.674 -3.42829 2.01775 0
M  V30 3848 H 353.413 -4.40946 4.85023 0
M  V30 3849 H 352.933 -5.03686 3.2567 0
M  V30 3850 H 354.612 -5.22045 3.82202 0
M  V30 3851 N 354.744 -0.972509 -1.24016 0
M  V30 3852 C 356.16 -0.679827 -1.44397 0
M  V30 3853 C 356.36 0.756716 -1.86751 0
M  V30 3854 O 355.416 1.53007 -2.00861 0
M  V30 3855 C 356.729 -1.66803 -2.50195 0
M  V30 3856 C 358.277 -1.68119 -2.64017 0
M  V30 3857 C 358.752 -2.65748 -3.73017 0
M  V30 3858 N 360.243 -2.64219 -3.8045 0
M  V30 3859 C 360.978 -3.36433 -4.64328 0
M  V30 3860 N 360.474 -4.1818 -5.52356 0
M  V30 3861 N 362.267 -3.25235 -4.58453 0
M  V30 3862 H 354.418 -1.90059 -0.948228 0
M  V30 3863 H 356.681 -0.818527 -0.478245 0
M  V30 3864 H 356.387 -2.69498 -2.25973 0
M  V30 3865 H 356.261 -1.4446 -3.48441 0
M  V30 3866 H 358.648 -0.661319 -2.87594 0
M  V30 3867 H 358.729 -1.94525 -1.66113 0
M  V30 3868 H 358.373 -3.67872 -3.50189 0
M  V30 3869 H 358.303 -2.36619 -4.70446 0
M  V30 3870 H 360.794 -2.04887 -3.17537 0
M  V30 3871 H 361.107 -4.70157 -6.13329 0
M  V30 3872 H 359.452 -4.22273 -5.52006 0
M  V30 3873 H 362.643 -2.60829 -3.88698 0
M  V30 3874 H 362.816 -3.81776 -5.23594 0
M  V30 3875 N 356.222 1.38976 -0.743202 0
M  V30 3876 C 357.468 2.0064 -0.295189 0
M  V30 3877 C 357.801 1.5885 1.11716 0
M  V30 3878 O 357.076 0.821181 1.76315 0
M  V30 3879 C 357.359 3.578 -0.406318 0
M  V30 3880 C 357.212 4.09586 -1.85903 0
M  V30 3881 C 358.531 4.39616 0.206439 0
M  V30 3882 H 355.65 0.728935 -0.108733 0
M  V30 3883 H 358.292 1.65067 -0.940897 0
M  V30 3884 H 356.442 3.88235 0.143419 0
M  V30 3885 H 358.114 3.89837 -2.46627 0
M  V30 3886 H 356.357 3.6284 -2.3776 0
M  V30 3887 H 357.028 5.18708 -1.888 0
M  V30 3888 H 359.504 4.15273 -0.262283 0
M  V30 3889 H 358.38 5.48812 0.0983819 0
M  V30 3890 H 358.641 4.22754 1.2935 0
M  V30 3891 N 357.7 0.491464 1.49741 0
M  V30 3892 C 358.948 -0.0563141 2.02022 0
M  V30 3893 C 359.269 -1.38363 1.37407 0
M  V30 3894 O 358.539 -1.88702 0.526166 0
M  V30 3895 H 357.119 -0.0238014 0.746621 0
M  V30 3896 H 359.781 0.646533 1.83864 0
M  V30 3897 H 358.877 -0.192967 3.11503 0
M  V30 3898 N 359.178 -1.55987 0.224894 0
M  V30 3899 C 360.403 -2.03232 -0.41369 0
M  V30 3900 C 360.828 -1.10359 -1.52323 0
M  V30 3901 O 360.186 -0.092395 -1.81064 0
M  V30 3902 C 360.234 -3.48682 -0.919405 0
M  V30 3903 O 359.338 -3.58947 -2.03054 0
M  V30 3904 H 358.679 -0.657428 -0.0931903 0
M  V30 3905 H 361.209 -2.01679 0.34451 0
M  V30 3906 H 361.219 -3.8907 -1.22835 0
M  V30 3907 H 359.894 -4.15761 -0.107339 0
M  V30 3908 H 358.471 -3.30448 -1.72796 0
M  V30 3909 N 360.656 0.0484629 -1.57525 0
M  V30 3910 C 361.881 0.759177 -1.93006 0
M  V30 3911 C 362.306 1.69125 -0.823317 0
M  V30 3912 O 361.664 1.79931 0.222364 0
M  V30 3913 C 361.712 1.50899 -3.27509 0
M  V30 3914 O 360.816 2.62112 -3.18388 0
M  V30 3915 H 360.157 0.205564 -0.631379 0
M  V30 3916 H 362.687 0.00972959 -2.04598 0
M  V30 3917 H 362.697 1.88317 -3.6194 0
M  V30 3918 H 361.372 0.825269 -4.0763 0
M  V30 3919 H 359.949 2.27379 -2.95556 0
M  V30 3920 N 362.134 1.5431 0.320358 0
M  V30 3921 C 363.081 1.83918 1.39438 0
M  V30 3922 C 364.051 0.686525 1.51248 0
M  V30 3923 O 365.236 0.933269 1.66417 0
M  V30 3924 C 362.376 2.075 2.75749 0
M  V30 3925 C 361.489 3.35177 2.72544 0
M  V30 3926 C 360.624 3.48704 4.00723 0
M  V30 3927 C 359.663 4.70244 3.91838 0
M  V30 3928 N 358.8 4.80679 5.11754 0
M  V30 3929 H 363.64 2.75544 1.13489 0
M  V30 3930 H 361.177 1.36459 0.549309 0
M  V30 3931 H 363.135 2.19166 3.54996 0
M  V30 3932 H 361.765 1.19163 3 0
M  V30 3933 H 360.817 3.32233 1.85271 0
M  V30 3934 H 362.129 4.24534 2.61863 0
M  V30 3935 H 361.283 3.59928 4.88402 0
M  V30 3936 H 360.022 2.57445 4.14214 0
M  V30 3937 H 359.027 4.59072 3.02544 0
M  V30 3938 H 360.252 5.6289 3.7991 0
M  V30 3939 H 358.198 3.92337 5.25745 0
M  V30 3940 H 358.115 5.64007 5.0342 0
M  V30 3941 H 359.383 4.96239 6.01138 0
M  V30 3942 N 363.613 -0.582584 1.46437 0
M  V30 3943 C 365.029 -0.905962 1.31394 0
M  V30 3944 C 365.229 -1.99468 0.285476 0
M  V30 3945 O 364.285 -2.50566 -0.311914 0
M  V30 3946 C 365.598 -1.3232 2.70022 0
M  V30 3947 C 367.146 -1.43604 2.78113 0
M  V30 3948 C 367.621 -1.88694 4.17323 0
M  V30 3949 N 369.112 -1.95887 4.19741 0
M  V30 3950 C 369.847 -2.32051 5.24347 0
M  V30 3951 N 369.343 -2.67006 6.39281 0
M  V30 3952 N 371.136 -2.32606 5.11713 0
M  V30 3953 H 363.287 0.1366 2.1196 0
M  V30 3954 H 365.55 -0.00155736 0.947999 0
M  V30 3955 H 365.256 -0.597242 3.46592 0
M  V30 3956 H 365.13 -2.28469 3.00136 0
M  V30 3957 H 367.517 -2.15286 2.01832 0
M  V30 3958 H 367.598 -0.457059 2.51684 0
M  V30 3959 H 367.242 -1.1759 4.941 0
M  V30 3960 H 367.172 -2.8755 4.4116 0
M  V30 3961 H 369.663 -1.71362 3.36814 0
M  V30 3962 H 369.976 -2.93554 7.14875 0
M  V30 3963 H 368.321 -2.64644 6.42642 0
M  V30 3964 H 371.512 -2.04721 4.2096 0
M  V30 3965 H 371.685 -2.60462 5.93349 0
M  V30 3966 N 365.091 -1.34144 -0.827227 0
M  V30 3967 C 366.038 -1.25364 -1.93785 0
M  V30 3968 C 367.008 -0.129774 -1.65592 0
M  V30 3969 O 368.193 -0.310024 -1.88264 0
M  V30 3970 C 365.333 -1.01064 -3.2997 0
M  V30 3971 C 364.446 -2.22185 -3.70484 0
M  V30 3972 C 363.581 -1.91203 -4.95595 0
M  V30 3973 C 362.62 -3.08491 -5.28677 0
M  V30 3974 N 361.757 -2.77421 -6.44967 0
M  V30 3975 H 366.597 -2.20347 -2.00627 0
M  V30 3976 H 364.134 -1.09558 -0.981608 0
M  V30 3977 H 366.092 -0.850139 -4.08446 0
M  V30 3978 H 364.722 -0.0975026 -3.22653 0
M  V30 3979 H 363.774 -2.4917 -2.87434 0
M  V30 3980 H 365.086 -3.0983 -3.90905 0
M  V30 3981 H 364.24 -1.71864 -5.81848 0
M  V30 3982 H 362.979 -1.00812 -4.77167 0
M  V30 3983 H 361.984 -3.28431 -4.40923 0
M  V30 3984 H 363.209 -3.99655 -5.49047 0
M  V30 3985 H 361.155 -1.89601 -6.28003 0
M  V30 3986 H 361.072 -3.58598 -6.6554 0
M  V30 3987 H 362.34 -2.61577 -7.34301 0
M  V30 3988 N 366.569 1.04691 -1.17803 0
M  V30 3989 C 367.516 2.12557 -0.899343 0
M  V30 3990 C 368.486 1.65339 0.158771 0
M  V30 3991 O 369.671 1.90789 0.0204797 0
M  V30 3992 C 366.811 3.42481 -0.424315 0
M  V30 3993 C 365.924 4.03346 -1.54713 0
M  V30 3994 C 365.059 5.21208 -1.02546 0
M  V30 3995 C 364.098 5.74089 -2.12339 0
M  V30 3996 N 363.235 6.83247 -1.61612 0
M  V30 3997 H 368.075 2.35734 -1.823 0
M  V30 3998 H 365.612 1.1564 -0.909159 0
M  V30 3999 H 367.57 4.16996 -0.130421 0
M  V30 4000 H 366.2 3.19471 0.462377 0
M  V30 4001 H 365.252 3.2622 -1.95664 0
M  V30 4002 H 366.564 4.38628 -2.37501 0
M  V30 4003 H 365.718 6.02812 -0.685718 0
M  V30 4004 H 364.457 4.87414 -0.167084 0
M  V30 4005 H 363.462 4.91111 -2.47165 0
M  V30 4006 H 364.687 6.0993 -2.98601 0
M  V30 4007 H 362.633 6.5134 -0.780533 0
M  V30 4008 H 362.55 7.17559 -2.38003 0
M  V30 4009 H 363.818 7.68491 -1.30545 0
M  V30 4010 N 368.047 0.979072 1.23499 0
M  V30 4011 C 369.272 0.664845 1.96455 0
M  V30 4012 C 369.697 -0.761287 1.72006 0
M  V30 4013 O 369.055 -1.51837 0.990713 0
M  V30 4014 C 369.103 0.959479 3.47601 0
M  V30 4015 O 368.207 0.0508168 4.12369 0
M  V30 4016 H 367.548 0.250185 0.615064 0
M  V30 4017 H 370.078 1.31231 1.5697 0
M  V30 4018 H 370.088 0.895642 3.98048 0
M  V30 4019 H 368.763 1.99876 3.64723 0
M  V30 4020 H 367.34 0.16895 3.72517 0
M  V30 4021 N 369.525 -1.3858 0.750561 0
M  V30 4022 C 370.435 -2.34278 0.122825 0
M  V30 4023 C 371.451 -1.59116 -0.704131 0
M  V30 4024 O 372.627 -1.91326 -0.628987 0
M  V30 4025 C 369.692 -3.38221 -0.762086 0
M  V30 4026 C 368.753 -4.29227 0.078896 0
M  V30 4027 C 367.986 -5.28205 -0.763874 0
M  V30 4028 O 368.209 -5.34112 -2.00201 0
M  V30 4029 O 367.143 -6.01618 -0.18428 0
M  V30 4030 H 370.969 -2.89649 0.913088 0
M  V30 4031 H 368.554 -1.40374 0.511417 0
M  V30 4032 H 370.436 -4.01872 -1.26793 0
M  V30 4033 H 369.111 -2.85211 -1.5309 0
M  V30 4034 H 368.018 -3.68747 0.630621 0
M  V30 4035 H 369.351 -4.85484 0.810289 0
M  V30 4036 N 371.003 -0.499398 -1.49478 0
M  V30 4037 C 371.95 0.279881 -2.29097 0
M  V30 4038 C 372.92 0.961805 -1.3542 0
M  V30 4039 O 374.105 0.968777 -1.64376 0
M  V30 4040 C 371.245 1.33932 -3.18051 0
M  V30 4041 C 370.358 0.669333 -4.26783 0
M  V30 4042 C 369.493 1.70907 -5.02955 0
M  V30 4043 C 368.532 1.02087 -6.03527 0
M  V30 4044 N 367.669 2.00474 -6.7287 0
M  V30 4045 H 372.509 -0.405317 -2.95231 0
M  V30 4046 H 370.046 -0.211726 -1.45568 0
M  V30 4047 H 372.004 1.96553 -3.67998 0
M  V30 4048 H 370.634 1.9933 -2.53904 0
M  V30 4049 H 369.686 -0.0701234 -3.80335 0
M  V30 4050 H 370.998 0.127503 -4.98637 0
M  V30 4051 H 370.152 2.41037 -5.56764 0
M  V30 4052 H 368.891 2.28476 -4.30871 0
M  V30 4053 H 367.896 0.305338 -5.48951 0
M  V30 4054 H 369.121 0.451708 -6.77596 0
M  V30 4055 H 367.067 2.57007 -6.03559 0
M  V30 4056 H 366.984 1.51353 -7.40694 0
M  V30 4057 H 368.252 2.69897 -7.31284 0
M  V30 4058 N 372.481 1.55866 -0.233164 0
M  V30 4059 C 373.428 2.20796 0.67215 0
M  V30 4060 C 374.398 1.16731 1.18166 0
M  V30 4061 O 375.583 1.45129 1.23864 0
M  V30 4062 C 372.723 2.90072 1.86955 0
M  V30 4063 C 371.836 4.08759 1.39786 0
M  V30 4064 C 370.971 4.65787 2.55374 0
M  V30 4065 C 370.01 5.76752 2.04998 0
M  V30 4066 N 369.147 6.28021 3.13901 0
M  V30 4067 H 373.987 2.9779 0.111749 0
M  V30 4068 H 371.524 1.47036 0.0434007 0
M  V30 4069 H 373.482 3.28428 2.57276 0
M  V30 4070 H 372.112 2.15575 2.40265 0
M  V30 4071 H 371.164 3.7581 0.589173 0
M  V30 4072 H 372.476 4.88906 0.98856 0
M  V30 4073 H 371.63 5.06646 3.33758 0
M  V30 4074 H 370.369 3.84828 2.99598 0
M  V30 4075 H 369.374 5.35383 1.25079 0
M  V30 4076 H 370.599 6.59553 1.61759 0
M  V30 4077 H 368.545 5.49971 3.57586 0
M  V30 4078 H 368.462 7.03323 2.7726 0
M  V30 4079 H 369.73 6.73538 3.92386 0
M  V30 4080 N 373.959 -0.0401083 1.57549 0
M  V30 4081 C 375.205 -0.734211 1.89043 0
M  V30 4082 C 375.538 -1.75591 0.829535 0
M  V30 4083 O 374.813 -1.93868 -0.156706 0
M  V30 4084 C 375.096 -1.41374 3.31188 0
M  V30 4085 C 374.949 -0.406299 4.47961 0
M  V30 4086 C 376.268 -2.35061 3.72068 0
M  V30 4087 H 373.387 -0.265447 0.687537 0
M  V30 4088 H 376.029 0.00294087 1.9 0
M  V30 4089 H 374.179 -2.04206 3.30503 0
M  V30 4090 H 375.851 0.219255 4.60779 0
M  V30 4091 H 374.094 0.275485 4.32924 0
M  V30 4092 H 374.765 -0.920022 5.44279 0
M  V30 4093 H 377.241 -1.82282 3.74049 0
M  V30 4094 H 376.117 -2.79593 4.72355 0
M  V30 4095 H 376.378 -3.21258 3.0372 0
M  V30 4096 N 375.437 -1.54477 -0.31217 0
M  V30 4097 C 376.665 -1.77205 -1.068 0
M  V30 4098 C 377.08 -0.526114 -1.81321 0
M  V30 4099 O 376.437 0.503647 -1.75413 0
M  V30 4100 C 376.488 -2.97253 -2.05725 0
M  V30 4101 O 376.209 -4.1703 -1.34228 0
M  V30 4102 C 377.71 -3.32281 -2.93435 0
M  V30 4103 H 374.93 -0.591287 -0.317208 0
M  V30 4104 H 377.474 -2.01398 -0.354834 0
M  V30 4105 H 375.629 -2.753 -2.72559 0
M  V30 4106 H 376.043 -4.84636 -2.00571 0
M  V30 4107 H 377.517 -4.19551 -3.58721 0
M  V30 4108 H 377.994 -2.49945 -3.61143 0
M  V30 4109 H 378.6 -3.56353 -2.32147 0
M  V30 4110 N 376.915 0.57481 -1.46744 0
M  V30 4111 C 378.331 0.898981 -1.31873 0
M  V30 4112 C 378.531 1.99313 -0.29605 0
M  V30 4113 O 377.587 2.50728 0.298621 0
M  V30 4114 C 378.9 1.30886 -2.7072 0
M  V30 4115 C 380.448 1.42127 -2.78871 0
M  V30 4116 C 380.923 1.86478 -4.18318 0
M  V30 4117 N 382.414 1.93658 -4.20774 0
M  V30 4118 C 383.149 2.29267 -5.2557 0
M  V30 4119 N 382.645 2.63612 -6.40688 0
M  V30 4120 N 384.438 2.29889 -5.1294 0
M  V30 4121 H 376.589 -0.147839 -2.11885 0
M  V30 4122 H 378.852 -0.00347013 -0.947994 0
M  V30 4123 H 378.558 0.578853 -3.46904 0
M  V30 4124 H 378.432 2.26874 -3.01343 0
M  V30 4125 H 380.819 2.14213 -2.0297 0
M  V30 4126 H 380.9 0.443705 -2.51922 0
M  V30 4127 H 380.544 1.14968 -4.94717 0
M  V30 4128 H 380.474 2.85207 -4.42679 0
M  V30 4129 H 382.965 1.69574 -3.37718 0
M  V30 4130 H 383.278 2.89759 -7.16421 0
M  V30 4131 H 381.623 2.61232 -6.44036 0
M  V30 4132 H 384.814 2.02485 -4.22039 0
M  V30 4133 H 384.987 2.57312 -5.94722 0
M  V30 4134 N 378.394 1.34581 0.820102 0
M  V30 4135 C 379.327 1.20735 1.93644 0
M  V30 4136 C 380.305 0.0983343 1.62302 0
M  V30 4137 O 381.489 0.263997 1.86642 0
M  V30 4138 C 378.616 0.856037 3.27704 0
M  V30 4139 C 377.662 1.97521 3.78005 0
M  V30 4140 S 378.495 3.58906 3.97425 0
M  V30 4141 C 379.651 3.25822 5.34407 0
M  V30 4142 H 379.884 2.15231 2.05093 0
M  V30 4143 H 377.417 1.1964 0.97599 0
M  V30 4144 H 379.375 0.660133 4.05157 0
M  V30 4145 H 378.036 -0.0706253 3.14021 0
M  V30 4146 H 377.229 1.68321 4.75062 0
M  V30 4147 H 376.831 2.12875 3.07507 0
M  V30 4148 H 379.123 2.77812 6.17922 0
M  V30 4149 H 380.066 4.22029 5.68592 0
M  V30 4150 H 380.474 2.61932 5.00052 0
M  V30 4151 N 379.872 -1.04064 1.18357 0
M  V30 4152 C 381.118 -1.77528 0.980397 0
M  V30 4153 C 381.451 -1.87948 -0.48879 0
M  V30 4154 O 380.726 -1.3876 -1.36293 0
M  V30 4155 C 381.009 -3.20797 1.63588 0
M  V30 4156 C 380.862 -3.1832 3.17793 0
M  V30 4157 C 382.181 -4.18911 1.34914 0
M  V30 4158 H 379.3 -0.644443 0.357578 0
M  V30 4159 H 381.942 -1.2156 1.46024 0
M  V30 4160 H 380.092 -3.68586 1.22788 0
M  V30 4161 H 381.764 -2.78521 3.67728 0
M  V30 4162 H 380.007 -2.56351 3.49952 0
M  V30 4163 H 380.678 -4.19489 3.58794 0
M  V30 4164 H 383.154 -3.7967 1.70265 0
M  V30 4165 H 382.03 -5.17374 1.83346 0
M  V30 4166 H 382.291 -4.41262 0.272027 0
M  V30 4167 N 381.35 -0.985608 -1.22978 0
M  V30 4168 C 382.575 -0.675254 -1.961 0
M  V30 4169 C 383 0.752154 -1.72407 0
M  V30 4170 O 382.358 1.5131 -0.998751 0
M  V30 4171 C 382.406 -0.977899 -3.47087 0
M  V30 4172 O 381.51 -0.072685 -4.12336 0
M  V30 4173 H 380.851 -0.253443 -0.613728 0
M  V30 4174 H 383.381 -1.32061 -1.56272 0
M  V30 4175 H 383.391 -0.916739 -3.97567 0
M  V30 4176 H 382.066 -2.01807 -3.63657 0
M  V30 4177 H 380.643 -0.188703 -3.72422 0
M  V30 4178 N 382.828 1.3818 -0.7579 0
M  V30 4179 C 384.077 1.99261 -0.312744 0
M  V30 4180 C 384.39 1.60846 1.11301 0
M  V30 4181 O 385.596 2.14929 1.65885 0
M  V30 4182 C 384.052 3.56294 -0.50821 0
M  V30 4183 C 383.66 4.03657 -1.94333 0
M  V30 4184 C 385.404 4.24313 -0.125982 0
M  V30 4185 C 383.311 5.53347 -2.08712 0
M  V30 4186 H 382.241 0.745456 -0.113185 0
M  V30 4187 H 384.892 1.57889 -0.935056 0
M  V30 4188 H 383.274 3.95575 0.183353 0
M  V30 4189 H 384.448 3.75655 -2.66871 0
M  V30 4190 H 382.763 3.48376 -2.28086 0
M  V30 4191 H 385.36 5.34279 -0.212125 0
M  V30 4192 H 385.703 4.05962 0.921964 0
M  V30 4193 H 386.236 3.90285 -0.769563 0
M  V30 4194 H 382.975 5.76607 -3.11777 0
M  V30 4195 H 382.495 5.83078 -1.4064 0
M  V30 4196 H 384.174 6.19111 -1.87912 0
M  V30 4197 N 384.306 0.507319 1.49211 0
M  V30 4198 C 385.552 -0.0350047 2.0277 0
M  V30 4199 C 385.885 -1.3606 1.38569 0
M  V30 4200 O 385.16 -1.87321 0.523542 0
M  V30 4201 C 385.443 -0.180916 3.59645 0
M  V30 4202 C 385.296 1.16825 4.34364 0
M  V30 4203 C 386.615 -0.918558 4.30407 0
M  V30 4204 H 383.734 -0.0112473 0.736914 0
M  V30 4205 H 386.376 0.659956 1.7817 0
M  V30 4206 H 384.526 -0.772826 3.80736 0
M  V30 4207 H 386.198 1.79952 4.24753 0
M  V30 4208 H 384.441 1.75594 3.96673 0
M  V30 4209 H 385.112 1.01939 5.42506 0
M  V30 4210 H 387.588 -0.41649 4.1401 0
M  V30 4211 H 386.464 -0.989505 5.39907 0
M  V30 4212 H 386.725 -1.96373 3.96093 0
M  V30 4213 N 385.784 -1.5574 0.241426 0
M  V30 4214 C 387.03 -1.99104 -0.385406 0
M  V30 4215 C 387.363 -1.1293 -1.57988 0
M  V30 4216 O 386.638 -0.191449 -1.93555 0
M  V30 4217 C 386.921 -3.51087 -0.800616 0
M  V30 4218 C 386.774 -4.48028 0.398874 0
M  V30 4219 C 388.093 -4.08015 -1.64959 0
M  V30 4220 H 385.212 -0.723848 -0.138614 0
M  V30 4221 H 387.854 -1.86903 0.341642 0
M  V30 4222 H 386.004 -3.61615 -1.4201 0
M  V30 4223 H 387.676 -4.49487 1.03726 0
M  V30 4224 H 385.919 -4.21077 1.04293 0
M  V30 4225 H 386.59 -5.51962 0.0651056 0
M  V30 4226 H 389.066 -4.00555 -1.12672 0
M  V30 4227 H 387.942 -5.14635 -1.90898 0
M  V30 4228 H 388.203 -3.56131 -2.61961 0
M  V30 4229 N 387.262 0.0317525 -1.57568 0
M  V30 4230 C 388.225 1.01783 -2.0536 0
M  V30 4231 C 389.225 1.29203 -0.957253 0
M  V30 4232 O 390.415 1.24251 -1.22095 0
M  V30 4233 C 387.547 2.35137 -2.46827 0
M  V30 4234 H 388.74 0.605062 -2.93733 0
M  V30 4235 H 386.293 0.278514 -1.53799 0
M  V30 4236 H 387.028 2.81168 -1.61602 0
M  V30 4237 H 386.813 2.16566 -3.26866 0
M  V30 4238 H 388.303 3.05938 -2.84239 0
M  V30 4239 N 388.74 1.54641 0.303973 0
M  V30 4240 C 389.986 1.74038 1.04109 0
M  V30 4241 C 390.319 0.523051 1.87024 0
M  V30 4242 O 389.594 -0.479874 1.88487 0
M  V30 4243 C 389.877 3.02761 1.94955 0
M  V30 4244 C 389.73 4.34787 1.1524 0
M  V30 4245 C 391.049 3.27336 2.94175 0
M  V30 4246 H 388.168 0.63323 0.377079 0
M  V30 4247 H 390.81 1.87354 0.316001 0
M  V30 4248 H 388.96 2.9154 2.56782 0
M  V30 4249 H 390.632 4.57922 0.557236 0
M  V30 4250 H 388.875 4.31407 0.455053 0
M  V30 4251 H 389.546 5.21116 1.8205 0
M  V30 4252 H 392.022 3.38148 2.42477 0
M  V30 4253 H 390.898 4.18726 3.54908 0
M  V30 4254 H 391.159 2.45491 3.67677 0
M  V30 4255 N 390.218 -0.567019 1.47046 0
M  V30 4256 C 391.465 -1.32462 1.53167 0
M  V30 4257 C 391.793 -1.93571 0.189841 0
M  V30 4258 O 391.048 -1.77865 -0.816243 0
M  V30 4259 C 391.347 -2.4623 2.59047 0
M  V30 4260 C 391.013 -2.03014 4.02612 0
M  V30 4261 C 389.675 -1.90944 4.41694 0
M  V30 4262 C 392.027 -1.69895 4.92732 0
M  V30 4263 C 389.355 -1.44035 5.68745 0
M  V30 4264 C 391.707 -1.2446 6.20236 0
M  V30 4265 C 390.371 -1.10979 6.5821 0
M  V30 4266 H 389.641 -0.484713 0.560477 0
M  V30 4267 H 392.288 -0.636888 1.80599 0
M  V30 4268 H 390.593 -3.20517 2.25335 0
M  V30 4269 H 392.29 -3.04427 2.61008 0
M  V30 4270 H 388.88 -2.13348 3.71726 0
M  V30 4271 H 393.064 -1.78098 4.63244 0
M  V30 4272 H 388.32 -1.32254 5.96925 0
M  V30 4273 H 392.494 -0.978924 6.89485 0
M  V30 4274 H 390.121 -0.744078 7.5655 0
M  V30 4275 N 391.696 -1.35014 -0.812953 0
M  V30 4276 C 392.945 -1.27269 -1.56479 0
M  V30 4277 C 393.258 0.152771 -1.95002 0
M  V30 4278 O 394.464 0.352451 -2.69203 0
M  V30 4279 C 392.92 -2.23159 -2.82362 0
M  V30 4280 C 392.528 -3.71016 -2.511 0
M  V30 4281 C 394.272 -2.24342 -3.60376 0
M  V30 4282 C 392.179 -4.58746 -3.73237 0
M  V30 4283 H 391.109 -0.472829 -0.587324 0
M  V30 4284 H 393.76 -1.6024 -0.894171 0
M  V30 4285 H 392.142 -1.83151 -3.51101 0
M  V30 4286 H 393.316 -4.1962 -1.90409 0
M  V30 4287 H 391.631 -3.72378 -1.86343 0
M  V30 4288 H 394.228 -2.87107 -4.51081 0
M  V30 4289 H 394.571 -1.24542 -3.97234 0
M  V30 4290 H 395.104 -2.62846 -2.98591 0
M  V30 4291 H 391.843 -5.59521 -3.41492 0
M  V30 4292 H 391.363 -4.14871 -4.33176 0
M  V30 4293 H 393.042 -4.73852 -4.40537 0
M  V30 4294 N 393.175 1.03435 -1.18907 0
M  V30 4295 C 394.422 1.76743 -0.988334 0
M  V30 4296 C 394.75 1.88447 0.481441 0
M  V30 4297 O 394.005 1.39383 1.37371 0
M  V30 4298 C 394.304 3.19792 -1.59586 0
M  V30 4299 C 393.97 3.28108 -3.09283 0
M  V30 4300 C 392.632 3.30084 -3.5014 0
M  V30 4301 C 394.984 3.27696 -4.05296 0
M  V30 4302 C 392.312 3.29299 -4.85571 0
M  V30 4303 C 394.664 3.28451 -5.4065 0
M  V30 4304 C 393.328 3.28723 -5.80946 0
M  V30 4305 H 392.598 0.64675 -0.361657 0
M  V30 4306 H 395.245 1.21442 -1.48068 0
M  V30 4307 H 393.55 3.78136 -1.02568 0
M  V30 4308 H 395.247 3.75171 -1.41589 0
M  V30 4309 H 391.837 3.27294 -2.76725 0
M  V30 4310 H 396.021 3.25354 -3.74778 0
M  V30 4311 H 391.277 3.2783 -5.16079 0
M  V30 4312 H 395.451 3.27082 -6.14809 0
M  V30 4313 H 393.078 3.27868 -6.85862 0
M  V30 4314 N 394.653 0.992116 1.22453 0
M  V30 4315 C 395.893 0.675727 1.92907 0
M  V30 4316 C 396.257 -0.777762 1.75542 0
M  V30 4317 O 397.458 -1.20553 2.40251 0
M  V30 4318 C 395.729 1.0696 3.4102 0
M  V30 4319 S 397.288 0.871456 4.30059 0
M  V30 4320 H 394.106 0.247089 0.666684 0
M  V30 4321 H 396.708 1.27423 1.48269 0
M  V30 4322 H 395.412 2.12383 3.51172 0
M  V30 4323 H 394.943 0.462858 3.90668 0
M  V30 4324 H 396.958 -0.238436 4.95627 0
M  V30 4325 N 396.131 -1.37776 0.765217 0
M  V30 4326 C 397.377 -2.00604 0.336066 0
M  V30 4327 C 397.732 -1.59657 -1.07366 0
M  V30 4328 O 397.025 -0.829565 -1.7271 0
M  V30 4329 C 397.219 -3.5504 0.410053 0
M  V30 4330 C 397.048 -4.10985 1.82542 0
M  V30 4331 C 395.818 -4.42229 2.44461 0
M  V30 4332 C 398.016 -4.32438 2.78392 0
M  V30 4333 N 395.998 -4.8385 3.77839 0
M  V30 4334 C 397.369 -4.76596 3.96556 0
M  V30 4335 C 399.424 -4.14559 2.75764 0
M  V30 4336 C 398.127 -5.04748 5.12466 0
M  V30 4337 C 400.153 -4.43843 3.90842 0
M  V30 4338 C 399.515 -4.88235 5.07746 0
M  V30 4339 H 395.614 -0.763325 0.169881 0
M  V30 4340 H 398.198 -1.67197 0.997656 0
M  V30 4341 H 396.369 -3.87769 -0.221325 0
M  V30 4342 H 398.101 -4.0468 -0.0405285 0
M  V30 4343 H 394.856 -4.31079 1.96131 0
M  V30 4344 H 395.28 -5.08979 4.46396 0
M  V30 4345 H 399.922 -3.79415 1.86558 0
M  V30 4346 H 397.64 -5.38783 6.02277 0
M  V30 4347 H 401.226 -4.31603 3.90141 0
M  V30 4348 H 400.106 -5.10461 5.95315 0
M  V30 4349 N 397.609 -0.515225 -1.4894 0
M  V30 4350 C 398.539 0.244628 -2.32215 0
M  V30 4351 C 399.52 0.949136 -1.41157 0
M  V30 4352 O 400.705 0.937783 -1.70057 0
M  V30 4353 C 397.835 1.30096 -3.22013 0
M  V30 4354 C 396.789 0.715486 -4.21977 0
M  V30 4355 C 396.115 1.87339 -5.00808 0
M  V30 4356 C 397.415 -0.302982 -5.2142 0
M  V30 4357 H 399.109 -0.450501 -2.95991 0
M  V30 4358 H 396.655 -0.218098 -1.42339 0
M  V30 4359 H 398.608 1.84037 -3.79089 0
M  V30 4360 H 397.332 2.02547 -2.56207 0
M  V30 4361 H 395.991 0.197715 -3.66066 0
M  V30 4362 H 395.639 2.58592 -4.31438 0
M  V30 4363 H 395.339 1.48764 -5.68457 0
M  V30 4364 H 396.863 2.41686 -5.60732 0
M  V30 4365 H 398.277 0.148802 -5.73107 0
M  V30 4366 H 396.674 -0.60532 -5.97039 0
M  V30 4367 H 397.744 -1.21395 -4.69459 0
M  V30 4368 N 399.087 1.5561 -0.249682 0
M  V30 4369 C 400.498 1.84979 0.252949 0
M  V30 4370 C 400.849 1.17153 1.57384 0
M  V30 4371 O 399.974 0.450884 2.11651 0
M  V30 4372 C 400.569 3.35584 0.465732 0
M  V30 4373 C 399.128 3.65169 0.912624 0
M  V30 4374 C 398.275 2.77299 -0.00859085 0
M  V30 4375 H 401.226 1.51513 -0.47217 0
M  V30 4376 H 401.247 3.57313 1.30795 0
M  V30 4377 H 400.759 3.8492 -0.49579 0
M  V30 4378 H 398.86 3.21312 1.88652 0
M  V30 4379 H 398.973 4.72912 0.767559 0
M  V30 4380 H 397.337 2.49678 0.50327 0
M  V30 4381 H 398.12 3.29442 -0.965537 0
M  V30 4382 N 400.565 -0.0233959 1.57583 0
M  V30 4383 C 401.812 -0.713063 1.8953 0
M  V30 4384 C 402.14 -1.75056 0.847673 0
M  V30 4385 O 401.395 -1.95119 -0.150636 0
M  V30 4386 C 401.694 -1.41428 3.28227 0
M  V30 4387 C 401.36 -0.512222 4.47981 0
M  V30 4388 C 400.022 -0.263785 4.80476 0
M  V30 4389 C 402.374 0.110248 5.21083 0
M  V30 4390 C 399.702 0.615804 5.83459 0
M  V30 4391 C 402.054 0.977573 6.25001 0
M  V30 4392 C 400.718 1.23542 6.55968 0
M  V30 4393 H 399.988 -0.260928 0.69354 0
M  V30 4394 H 402.635 0.0271047 1.91481 0
M  V30 4395 H 400.94 -2.22791 3.22291 0
M  V30 4396 H 402.637 -1.95355 3.50196 0
M  V30 4397 H 399.227 -0.716013 4.22577 0
M  V30 4398 H 403.411 -0.0687137 4.96252 0
M  V30 4399 H 398.667 0.82382 6.05824 0
M  V30 4400 H 402.841 1.46638 6.80786 0
M  V30 4401 H 400.468 1.91871 7.35588 0
M  V30 4402 N 402.043 -1.548 -0.295768 0
M  V30 4403 C 403.273 -1.78069 -1.04762 0
M  V30 4404 C 403.681 -0.542847 -1.81245 0
M  V30 4405 O 403.024 0.497051 -1.76848 0
M  V30 4406 C 403.086 -2.93881 -2.07061 0
M  V30 4407 C 402.75 -4.31777 -1.49725 0
M  V30 4408 C 403.747 -5.11613 -0.924581 0
M  V30 4409 C 401.432 -4.78389 -1.5313 0
M  V30 4410 C 403.426 -6.36184 -0.393594 0
M  V30 4411 C 401.113 -6.02921 -0.996447 0
M  V30 4412 C 402.111 -6.81654 -0.428569 0
M  V30 4413 O 401.799 -8.0384 0.0981593 0
M  V30 4414 H 401.531 -0.597475 -0.316226 0
M  V30 4415 H 404.085 -2.02584 -0.338973 0
M  V30 4416 H 402.315 -2.65003 -2.81621 0
M  V30 4417 H 404.004 -3.04679 -2.6819 0
M  V30 4418 H 404.77 -4.76743 -0.891136 0
M  V30 4419 H 400.649 -4.17132 -1.9627 0
M  V30 4420 H 404.193 -6.97582 0.0503014 0
M  V30 4421 H 400.09 -6.37277 -1.02706 0
M  V30 4422 H 400.858 -8.18499 -0.0146455 0
M  V30 4423 N 403.521 0.559213 -1.47345 0
M  V30 4424 C 404.77 1.31281 -1.53128 0
M  V30 4425 C 405.083 1.94602 -0.197344 0
M  V30 4426 O 406.289 2.71173 -0.133154 0
M  V30 4427 C 404.745 2.38051 -2.69925 0
M  V30 4428 C 404.353 1.8093 -4.0984 0
M  V30 4429 C 406.097 3.14604 -2.84999 0
M  V30 4430 C 404.004 2.85468 -5.1794 0
M  V30 4431 H 402.934 0.493614 -0.569966 0
M  V30 4432 H 405.585 0.594155 -1.73615 0
M  V30 4433 H 403.967 3.12822 -2.42814 0
M  V30 4434 H 405.141 1.12544 -4.46845 0
M  V30 4435 H 403.456 1.16967 -3.99634 0
M  V30 4436 H 406.053 3.92666 -3.62929 0
M  V30 4437 H 406.396 3.68665 -1.93369 0
M  V30 4438 H 406.929 2.46945 -3.1187 0
M  V30 4439 H 403.668 2.36264 -6.1144 0
M  V30 4440 H 403.188 3.52269 -4.85455 0
M  V30 4441 H 404.867 3.48996 -5.44803 0
M  V30 4442 N 404.999 1.35443 0.805782 0
M  V30 4443 C 406.246 1.28761 1.56291 0
M  V30 4444 C 406.574 -0.137747 1.94012 0
M  V30 4445 O 405.829 -1.1032 1.61642 0
M  V30 4446 C 406.128 2.14045 2.86216 0
M  V30 4447 C 405.794 3.62826 2.67709 0
M  V30 4448 C 404.456 4.0338 2.6237 0
M  V30 4449 C 406.808 4.57227 2.50186 0
M  V30 4450 C 404.136 5.36501 2.37451 0
M  V30 4451 C 406.488 5.90547 2.26797 0
M  V30 4452 C 405.152 6.30245 2.1988 0
M  V30 4453 H 404.422 0.471171 0.571908 0
M  V30 4454 H 407.069 1.67347 0.930974 0
M  V30 4455 H 405.374 1.68342 3.53791 0
M  V30 4456 H 407.071 2.0621 3.43917 0
M  V30 4457 H 403.661 3.30644 2.72713 0
M  V30 4458 H 407.845 4.2678 2.53323 0
M  V30 4459 H 403.101 5.66259 2.30567 0
M  V30 4460 H 407.275 6.63274 2.12228 0
M  V30 4461 H 404.902 7.33328 2.00333 0
M  V30 4462 N 406.477 -1.02803 1.19454 0
M  V30 4463 C 407.425 -2.13213 0.929673 0
M  V30 4464 C 408.419 -1.69011 -0.114806 0
M  V30 4465 O 409.625 -1.79967 0.0345147 0
M  V30 4466 H 406 -0.69662 0.28324 0
M  V30 4467 H 407.971 -2.32744 1.86743 0
M  V30 4468 C 406.72 -3.4429 0.485797 0
M  V30 4469 H 406.043 -3.7872 1.28105 0
M  V30 4470 H 407.483 -4.22638 0.339582 0
M  V30 4471 C 405.942 -3.27258 -0.800244 0
M  V30 4472 O 406.472 -3.55967 -1.86146 0
M  V30 4473 N 404.678 -2.80545 -0.75781 0
M  V30 4474 H 404.225 -2.57382 0.106039 0
M  V30 4475 H 404.183 -2.6953 -1.61867 0
M  V30 4476 N 407.956 -0.998596 -1.21925 0
M  V30 4477 C 409.202 -0.678667 -1.91107 0
M  V30 4478 C 409.535 0.78791 -1.77498 0
M  V30 4479 O 408.81 1.57043 -1.1475 0
M  V30 4480 C 409.093 -1.09245 -3.43129 0
M  V30 4481 C 408.946 -2.61801 -3.6576 0
M  V30 4482 C 410.265 -0.649984 -4.35274 0
M  V30 4483 H 407.384 -0.248025 -0.694012 0
M  V30 4484 H 410.026 -1.24314 -1.43688 0
M  V30 4485 H 408.176 -0.612171 -3.83647 0
M  V30 4486 H 409.848 -3.17543 -3.34611 0
M  V30 4487 H 408.091 -3.03609 -3.09845 0
M  V30 4488 H 408.762 -2.85804 -4.7225 0
M  V30 4489 H 411.238 -1.0626 -4.02303 0
M  V30 4490 H 410.114 -0.967743 -5.40302 0
M  V30 4491 H 410.375 0.449139 -4.39813 0
M  V30 4492 N 409.434 1.37368 -0.772513 0
M  V30 4493 C 410.659 2.0447 -0.347386 0
M  V30 4494 C 411.084 1.57882 1.0225 0
M  V30 4495 O 410.442 0.73941 1.65537 0
M  V30 4496 C 410.49 3.58369 -0.400479 0
M  V30 4497 O 409.594 4.0803 0.598789 0
M  V30 4498 H 408.935 0.646773 -0.15027 0
M  V30 4499 H 411.465 1.75667 -1.04892 0
M  V30 4500 H 411.475 4.07183 -0.258045 0
M  V30 4501 H 410.15 3.91633 -1.39986 0
M  V30 4502 H 408.727 3.70534 0.419411 0
M  V30 4503 N 410.912 0.523116 1.48665 0
M  V30 4504 C 412.137 -0.0117284 2.07397 0
M  V30 4505 C 412.562 -1.28031 1.37803 0
M  V30 4506 O 411.92 -1.75836 0.441762 0
M  V30 4507 C 411.968 -0.225786 3.59892 0
M  V30 4508 O 411.072 -1.29592 3.91509 0
M  V30 4509 H 410.413 0.0360673 0.66302 0
M  V30 4510 H 412.943 0.729066 1.9117 0
M  V30 4511 H 412.953 -0.450552 4.05505 0
M  V30 4512 H 411.628 0.700944 4.09951 0
M  V30 4513 H 410.205 -1.05436 3.57684 0
M  V30 4514 N 412.39 -1.55475 0.257931 0
M  V30 4515 C 413.636 -1.99502 -0.364266 0
M  V30 4516 C 413.969 -1.146 -1.56782 0
M  V30 4517 O 413.244 -0.211968 -1.93342 0
M  V30 4518 C 413.527 -3.51917 -0.763333 0
M  V30 4519 C 413.38 -4.4758 0.446371 0
M  V30 4520 C 414.699 -4.09742 -1.60623 0
M  V30 4521 H 411.818 -0.725277 -0.130929 0
M  V30 4522 H 414.46 -1.8653 0.361446 0
M  V30 4523 H 412.61 -3.63101 -1.38166 0
M  V30 4524 H 414.282 -4.48362 1.08487 0
M  V30 4525 H 412.525 -4.19947 1.08753 0
M  V30 4526 H 413.196 -5.51862 0.123645 0
M  V30 4527 H 415.672 -4.01727 -1.08418 0
M  V30 4528 H 414.548 -5.16631 -1.85429 0
M  V30 4529 H 414.809 -3.58889 -2.58169 0
M  V30 4530 N 413.868 0.0150385 -1.57593 0
M  V30 4531 C 415.093 0.718067 -1.94573 0
M  V30 4532 C 415.518 1.6734 -0.859005 0
M  V30 4533 O 414.876 1.80362 0.184147 0
M  V30 4534 C 414.924 1.43918 -3.30636 0
M  V30 4535 O 414.028 2.55299 -3.23876 0
M  V30 4536 H 413.369 0.192125 -0.635597 0
M  V30 4537 H 415.899 -0.0336708 -2.04572 0
M  V30 4538 H 415.909 1.80598 -3.65853 0
M  V30 4539 H 414.584 0.738619 -4.09289 0
M  V30 4540 H 413.161 2.21058 -3.00312 0
M  V30 4541 N 415.346 1.54954 0.287554 0
M  V30 4542 C 416.279 1.81737 1.3801 0
M  V30 4543 C 417.257 0.669412 1.48181 0
M  V30 4544 O 418.441 0.910839 1.65033 0
M  V30 4545 C 415.568 1.96606 2.75796 0
M  V30 4546 C 414.614 3.19098 2.82982 0
M  V30 4547 S 415.447 4.7683 2.43707 0
M  V30 4548 C 416.603 4.94653 3.83496 0
M  V30 4549 H 416.836 2.74122 1.15085 0
M  V30 4550 H 414.369 1.46538 0.486403 0
M  V30 4551 H 416.327 2.05858 3.55152 0
M  V30 4552 H 414.988 1.05136 2.95982 0
M  V30 4553 H 414.181 3.26344 3.84077 0
M  V30 4554 H 413.783 3.08361 2.11635 0
M  V30 4555 H 416.075 4.79502 4.78628 0
M  V30 4556 H 417.018 5.96728 3.8121 0
M  V30 4557 H 417.426 4.2272 3.74123 0
M  V30 4558 N 416.824 -0.551391 1.4764 0
M  V30 4559 C 417.787 -1.64007 1.60107 0
M  V30 4560 C 418.787 -1.53601 0.47576 0
M  V30 4561 O 419.977 -1.57655 0.740988 0
M  V30 4562 C 417.109 -3.03569 1.55108 0
M  V30 4563 H 418.302 -1.543 2.57161 0
M  V30 4564 H 415.855 -0.771776 1.35917 0
M  V30 4565 H 416.59 -3.18804 0.594519 0
M  V30 4566 H 416.375 -3.12532 2.36783 0
M  V30 4567 H 417.865 -3.82762 1.66982 0
M  V30 4568 N 418.302 -1.35869 -0.798587 0
M  V30 4569 C 419.551 -1.28921 -1.5512 0
M  V30 4570 C 419.864 0.13208 -1.95154 0
M  V30 4571 O 421.07 0.323879 -2.69561 0
M  V30 4572 C 419.526 -2.26141 -2.79979 0
M  V30 4573 C 419.134 -3.73658 -2.47151 0
M  V30 4574 C 420.878 -2.28152 -3.57976 0
M  V30 4575 C 418.785 -4.62679 -3.6835 0
M  V30 4576 H 417.715 -0.479031 -0.582276 0
M  V30 4577 H 420.366 -1.61179 -0.877125 0
M  V30 4578 H 418.748 -1.86865 -3.49138 0
M  V30 4579 H 419.922 -4.21616 -1.85947 0
M  V30 4580 H 418.237 -3.74333 -1.82383 0
M  V30 4581 H 420.834 -2.91875 -4.4801 0
M  V30 4582 H 421.177 -1.28748 -3.95891 0
M  V30 4583 H 421.71 -2.65998 -2.95787 0
M  V30 4584 H 418.449 -5.63111 -3.35538 0
M  V30 4585 H 417.969 -4.19442 -4.28752 0
M  V30 4586 H 419.648 -4.78498 -4.35487 0
M  V30 4587 N 419.78 1.02168 -1.19998 0
M  V30 4588 C 421.005 1.79833 -1.03319 0
M  V30 4589 C 421.43 1.83504 0.413281 0
M  V30 4590 O 420.788 1.26635 1.29743 0
M  V30 4591 C 420.836 3.22396 -1.61533 0
M  V30 4592 O 419.94 4.03555 -0.849519 0
M  V30 4593 H 419.281 0.554872 -0.364709 0
M  V30 4594 H 421.811 1.28542 -1.59179 0
M  V30 4595 H 421.821 3.73124 -1.65054 0
M  V30 4596 H 420.496 3.19039 -2.66809 0
M  V30 4597 H 419.073 3.62169 -0.888129 0
M  V30 4598 N 421.258 1.00505 1.21394 0
M  V30 4599 C 422.669 0.721082 1.72213 0
M  V30 4600 C 423.02 -0.761263 1.80829 0
M  V30 4601 O 422.145 -1.59464 1.46288 0
M  V30 4602 C 422.74 1.30228 3.12772 0
M  V30 4603 C 421.299 1.06743 3.60947 0
M  V30 4604 C 420.446 1.41507 2.38477 0
M  V30 4605 H 423.397 1.17594 1.06571 0
M  V30 4606 H 423.418 0.686955 3.74247 0
M  V30 4607 H 422.93 2.38115 3.06468 0
M  V30 4608 H 421.031 0.00572162 3.726 0
M  V30 4609 H 421.144 1.73936 4.46411 0
M  V30 4610 H 419.508 0.833852 2.40664 0
M  V30 4611 H 420.291 2.50424 2.34824 0
M  V30 4612 N 422.737 -1.36956 0.779787 0
M  V30 4613 C 423.965 -2.03755 0.359398 0
M  V30 4614 C 424.38 -1.58807 -1.02106 0
M  V30 4615 O 423.737 -0.773024 -1.6532 0
M  V30 4616 C 423.788 -3.59251 0.402568 0
M  V30 4617 O 423.509 -4.02557 1.72858 0
M  V30 4618 C 425.01 -4.43291 -0.0284068 0
M  V30 4619 H 422.23 -0.654148 0.149437 0
M  V30 4620 H 424.774 -1.75128 1.05595 0
M  V30 4621 H 422.929 -3.86621 -0.245478 0
M  V30 4622 H 423.343 -4.97111 1.67275 0
M  V30 4623 H 424.817 -5.51975 0.0529466 0
M  V30 4624 H 425.294 -4.25719 -1.07982 0
M  V30 4625 H 425.9 -4.21163 0.591758 0
M  V30 4626 N 424.215 -0.530993 -1.48385 0
M  V30 4627 C 425.626 -0.0907905 -1.86479 0
M  V30 4628 C 425.977 1.33213 -1.44044 0
M  V30 4629 O 425.102 1.99783 -0.831615 0
M  V30 4630 C 425.697 -0.157987 -3.38431 0
M  V30 4631 C 424.256 0.227026 -3.75715 0
M  V30 4632 C 423.403 -0.5173 -2.72432 0
M  V30 4633 H 426.354 -0.742186 -1.40276 0
M  V30 4634 H 426.375 0.630053 -3.75247 0
M  V30 4635 H 425.887 -1.19372 -3.69286 0
M  V30 4636 H 423.988 1.26486 -3.50474 0
M  V30 4637 H 424.101 -0.113288 -4.78966 0
M  V30 4638 H 422.465 0.0365527 -2.54674 0
M  V30 4639 H 423.248 -1.55368 -3.0613 0
M  V30 4640 N 425.693 1.55336 -0.266172 0
M  V30 4641 C 426.656 2.20878 0.612001 0
M  V30 4642 C 427.656 1.18388 1.08816 0
M  V30 4643 O 428.846 1.4335 0.989774 0
M  V30 4644 C 425.978 2.86765 1.84332 0
M  V30 4645 H 427.171 2.99873 0.0398718 0
M  V30 4646 H 424.724 1.56291 -0.0167309 0
M  V30 4647 H 425.459 2.11759 2.45619 0
M  V30 4648 H 425.244 3.61862 1.5099 0
M  V30 4649 H 426.734 3.36867 2.46801 0
M  V30 4650 N 427.171 -0.0066808 1.57599 0
M  V30 4651 C 428.101 -0.999296 2.11036 0
M  V30 4652 C 429.082 -1.36278 1.01795 0
M  V30 4653 O 430.267 -1.4477 1.29442 0
M  V30 4654 C 427.397 -2.29328 2.60818 0
M  V30 4655 C 426.351 -2.07159 3.74525 0
M  V30 4656 C 425.677 -3.42512 4.10596 0
M  V30 4657 C 426.977 -1.43959 5.02069 0
M  V30 4658 H 428.671 -0.554382 2.94223 0
M  V30 4659 H 426.217 -0.265221 1.41536 0
M  V30 4660 H 428.17 -2.99117 2.96828 0
M  V30 4661 H 426.894 -2.7592 1.74745 0
M  V30 4662 H 425.553 -1.39797 3.38899 0
M  V30 4663 H 425.201 -3.86795 3.21556 0
M  V30 4664 H 424.901 -3.28498 4.87199 0
M  V30 4665 H 426.425 -4.13628 4.4916 0
M  V30 4666 H 427.839 -2.03696 5.35893 0
M  V30 4667 H 426.236 -1.40452 5.83432 0
M  V30 4668 H 427.306 -0.407992 4.83181 0
M  V30 4669 N 428.649 -1.55105 -0.279332 0
M  V30 4670 C 429.596 -1.8755 -1.34513 0
M  V30 4671 C 430.566 -0.726384 -1.49375 0
M  V30 4672 O 431.751 -0.977063 -1.63884 0
M  V30 4673 C 428.891 -2.14738 -2.70151 0
M  V30 4674 C 428.004 -3.42285 -2.63562 0
M  V30 4675 C 427.139 -3.59206 -3.91337 0
M  V30 4676 C 426.178 -4.80467 -3.79233 0
M  V30 4677 N 425.315 -4.94079 -4.98829 0
M  V30 4678 H 430.155 -2.78456 -1.06143 0
M  V30 4679 H 427.692 -1.37867 -0.512936 0
M  V30 4680 H 429.65 -2.28501 -3.49061 0
M  V30 4681 H 428.28 -1.27075 -2.96735 0
M  V30 4682 H 427.332 -3.37029 -1.76397 0
M  V30 4683 H 428.644 -4.31328 -2.50515 0
M  V30 4684 H 427.798 -3.72751 -4.78687 0
M  V30 4685 H 426.537 -2.68337 -4.07243 0
M  V30 4686 H 425.542 -4.66932 -2.90266 0
M  V30 4687 H 426.767 -5.72765 -3.64852 0
M  V30 4688 H 424.713 -4.06139 -5.15158 0
M  V30 4689 H 424.63 -5.77156 -4.8829 0
M  V30 4690 H 425.898 -5.12003 -5.8777 0
M  V30 4691 N 430.127 0.543554 -1.4793 0
M  V30 4692 C 431.375 1.29752 -1.54948 0
M  V30 4693 C 431.696 1.93764 -0.219242 0
M  V30 4694 O 430.966 1.80639 0.75805 0
M  V30 4695 H 429.546 0.481874 -0.570795 0
M  V30 4696 H 432.208 0.633636 -1.84312 0
M  V30 4697 H 431.304 2.08392 -2.32334 0
M  V30 4698 N 431.605 1.3629 0.791371 0
M  V30 4699 C 432.538 1.24816 1.9104 0
M  V30 4700 C 433.516 0.132739 1.62057 0
M  V30 4701 O 434.7 0.303527 1.8604 0
M  V30 4702 C 431.827 0.925355 3.25814 0
M  V30 4703 C 430.873 2.05495 3.7373 0
M  V30 4704 S 431.706 3.67255 3.89723 0
M  V30 4705 C 432.862 3.37084 5.27376 0
M  V30 4706 H 433.095 2.19533 2.00481 0
M  V30 4707 H 430.628 1.21684 0.950393 0
M  V30 4708 H 432.586 0.745924 4.03666 0
M  V30 4709 H 431.247 -0.00400098 3.141 0
M  V30 4710 H 430.44 1.7836 4.71385 0
M  V30 4711 H 430.042 2.1935 3.02922 0
M  V30 4712 H 432.334 2.90856 6.1189 0
M  V30 4713 H 433.277 4.33995 5.59512 0
M  V30 4714 H 433.685 2.7248 4.94383 0
M  V30 4715 N 433.083 -1.0153 1.20538 0
M  V30 4716 C 434.33 -1.75149 1.01633 0
M  V30 4717 C 434.658 -1.89189 -0.451399 0
M  V30 4718 O 433.913 -1.41551 -1.35136 0
M  V30 4719 C 434.212 -3.17213 1.64654 0
M  V30 4720 C 433.878 -3.23146 3.14464 0
M  V30 4721 C 432.54 -3.24472 3.55347 0
M  V30 4722 C 434.892 -3.21207 4.10458 0
M  V30 4723 C 432.22 -3.21532 4.90748 0
M  V30 4724 C 434.572 -3.19808 5.45807 0
M  V30 4725 C 433.236 -3.19439 5.86102 0
M  V30 4726 H 432.506 -0.640914 0.3719 0
M  V30 4727 H 435.153 -1.19071 1.49981 0
M  V30 4728 H 433.458 -3.76457 1.08571 0
M  V30 4729 H 435.155 -3.72871 1.4754 0
M  V30 4730 H 431.745 -3.2285 2.81897 0
M  V30 4731 H 435.929 -3.19351 3.79906 0
M  V30 4732 H 431.185 -3.19578 5.21229 0
M  V30 4733 H 435.359 -3.1726 6.19935 0
M  V30 4734 H 432.986 -3.16915 6.90991 0
M  V30 4735 N 434.561 -1.01147 -1.20859 0
M  V30 4736 C 435.838 -0.613136 -1.85742 0
M  V30 4737 C 436.218 0.909004 -1.90526 0
M  V30 4738 O 435.566 1.79862 -1.40932 0
M  V30 4739 C 435.776 -1.255 -3.25654 0
M  V30 4740 C 437.124 -1.3672 -4.01986 0
M  V30 4741 O 438.148 -1.21082 -3.34989 0
M  V30 4742 O 437.007 -1.6194 -5.21956 0
M  V30 4743 H 434.101 -0.210878 -0.799662 0
M  V30 4744 H 436.647 -1.10853 -1.2849 0
M  V30 4745 H 435.419 -2.29532 -3.16908 0
M  V30 4746 H 435.042 -0.746369 -3.90532 0
M  V30 4747 N 436.039 1.36541 -0.78704 0
M  V30 4748 C 437.286 1.99304 -0.358341 0
M  V30 4749 C 437.614 1.62467 1.06933 0
M  V30 4750 O 436.869 0.870019 1.75297 0
M  V30 4751 C 437.168 3.54343 -0.466485 0
M  V30 4752 C 436.834 4.10993 -1.85461 0
M  V30 4753 C 435.496 4.26177 -2.23443 0
M  V30 4754 C 437.848 4.41895 -2.76366 0
M  V30 4755 C 435.176 4.69573 -3.51736 0
M  V30 4756 C 437.528 4.86722 -4.04084 0
M  V30 4757 C 436.192 5.00112 -4.42091 0
M  V30 4758 H 435.462 0.729306 -0.131126 0
M  V30 4759 H 438.109 1.63068 -1.00404 0
M  V30 4760 H 436.414 3.90918 0.262719 0
M  V30 4761 H 438.111 4.00833 -0.115854 0
M  V30 4762 H 434.701 3.99612 -1.54946 0
M  V30 4763 H 438.885 4.29735 -2.48277 0
M  V30 4764 H 434.141 4.78127 -3.81057 0
M  V30 4765 H 438.315 5.09598 -4.7464 0
M  V30 4766 H 435.942 5.33498 -5.41557 0
M  V30 4767 N 437.518 0.538854 1.48102 0
M  V30 4768 C 438.764 0.00801365 2.02798 0
M  V30 4769 C 439.097 -1.3309 1.41424 0
M  V30 4770 O 438.372 -1.86169 0.563158 0
M  V30 4771 C 438.655 -0.104589 3.59948 0
M  V30 4772 C 438.508 1.26012 4.31788 0
M  V30 4773 C 439.827 -0.827055 4.32259 0
M  V30 4774 H 436.946 0.00438624 0.736987 0
M  V30 4775 H 439.588 0.6976 1.7673 0
M  V30 4776 H 437.738 -0.691893 3.82289 0
M  V30 4777 H 439.41 1.88922 4.2084 0
M  V30 4778 H 437.653 1.83968 3.92859 0
M  V30 4779 H 438.324 1.13424 5.40221 0
M  V30 4780 H 440.8 -0.328578 4.14801 0
M  V30 4781 H 439.676 -0.87476 5.41885 0
M  V30 4782 H 439.937 -1.87927 4.0017 0
M  V30 4783 N 438.996 -1.55193 0.274407 0
M  V30 4784 C 440.242 -1.99877 -0.343086 0
M  V30 4785 C 440.575 -1.16256 -1.55558 0
M  V30 4786 O 439.85 -0.232462 -1.93106 0
M  V30 4787 C 440.133 -3.52706 -0.725965 0
M  V30 4788 C 439.986 -4.47081 0.493818 0
M  V30 4789 C 441.305 -4.11422 -1.56268 0
M  V30 4790 H 438.424 -0.726625 -0.123229 0
M  V30 4791 H 441.066 -1.86136 0.38121 0
M  V30 4792 H 439.216 -3.64546 -1.34307 0
M  V30 4793 H 440.888 -4.47186 1.13237 0
M  V30 4794 H 439.131 -4.1877 1.13201 0
M  V30 4795 H 439.802 -5.51699 0.18217 0
M  V30 4796 H 442.278 -4.02855 -1.04151 0
M  V30 4797 H 441.154 -5.18568 -1.79939 0
M  V30 4798 H 441.415 -3.61607 -2.54348 0
M  V30 4799 N 440.474 -0.00167713 -1.576 0
M  V30 4800 C 441.72 0.683832 -1.90923 0
M  V30 4801 C 442.053 1.7333 -0.875799 0
M  V30 4802 O 441.328 1.94215 0.10525 0
M  V30 4803 C 441.611 1.32543 -3.3482 0
M  V30 4804 C 441.464 0.287387 -4.48881 0
M  V30 4805 C 442.783 2.25114 -3.78169 0
M  V30 4806 H 439.902 0.247125 -0.694333 0
M  V30 4807 H 442.544 -0.0533149 -1.89925 0
M  V30 4808 H 440.694 1.95372 -3.35801 0
M  V30 4809 H 442.366 -0.341346 -4.60035 0
M  V30 4810 H 440.609 -0.39017 -4.32042 0
M  V30 4811 H 441.28 0.775393 -5.46527 0
M  V30 4812 H 443.756 1.723 -3.7875 0
M  V30 4813 H 442.632 2.66971 -4.79602 0
M  V30 4814 H 442.893 3.13092 -3.12131 0
M  V30 4815 N 441.952 1.55251 0.271103 0
M  V30 4816 C 442.882 1.9127 1.33933 0
M  V30 4817 C 443.863 0.77478 1.5143 0
M  V30 4818 O 445.048 1.03307 1.64442 0
M  V30 4819 C 442.178 2.18627 2.69851 0
M  V30 4820 C 441.132 3.34442 2.67081 0
M  V30 4821 C 440.458 3.47284 4.06569 0
M  V30 4822 C 441.758 4.70784 2.26185 0
M  V30 4823 H 443.452 2.80744 1.04035 0
M  V30 4824 H 440.998 1.35077 0.499017 0
M  V30 4825 H 442.951 2.42413 3.44694 0
M  V30 4826 H 441.675 1.25955 3.01335 0
M  V30 4827 H 440.334 3.10627 1.94695 0
M  V30 4828 H 439.982 2.52074 4.35279 0
M  V30 4829 H 439.682 4.25152 4.0561 0
M  V30 4830 H 441.206 3.73363 4.83148 0
M  V30 4831 H 442.62 4.94102 2.90751 0
M  V30 4832 H 441.017 5.51582 2.36384 0
M  V30 4833 H 442.087 4.69478 1.21319 0
M  V30 4834 N 443.43 -0.535701 1.48216 0
M  V30 4835 C 444.658 -1.31671 1.59594 0
M  V30 4836 C 445.073 -1.87083 0.254056 0
M  V30 4837 O 444.43 -1.66112 -0.755854 0
M  V30 4838 C 444.481 -2.47158 2.63809 0
M  V30 4839 O 444.202 -1.94032 3.92789 0
M  V30 4840 C 445.703 -3.39062 2.85573 0
M  V30 4841 H 442.923 -0.400623 0.538277 0
M  V30 4842 H 445.467 -0.646827 1.94001 0
M  V30 4843 H 443.622 -3.10043 2.32276 0
M  V30 4844 H 444.036 -2.69585 4.49916 0
M  V30 4845 H 445.51 -4.16459 3.62306 0
M  V30 4846 H 445.987 -3.93941 1.94184 0
M  V30 4847 H 446.593 -2.81975 3.18387 0
M  V30 4848 N 444.908 -1.36708 -0.784132 0
M  V30 4849 C 446.138 -1.34203 -1.57077 0
M  V30 4850 C 446.546 0.0774945 -1.89041 0
M  V30 4851 O 445.889 1.04628 -1.50992 0
M  V30 4852 C 445.951 -2.10351 -2.91535 0
M  V30 4853 C 445.615 -3.59405 -2.82272 0
M  V30 4854 C 446.612 -4.53545 -2.54151 0
M  V30 4855 C 444.297 -4.02362 -3.00683 0
M  V30 4856 C 446.291 -5.8862 -2.44551 0
M  V30 4857 C 443.978 -5.37526 -2.90704 0
M  V30 4858 C 444.976 -6.30468 -2.62677 0
M  V30 4859 O 444.664 -7.63149 -2.52702 0
M  V30 4860 H 444.396 -0.461791 -0.493685 0
M  V30 4861 H 446.95 -1.80475 -0.980712 0
M  V30 4862 H 445.18 -1.5875 -3.52612 0
M  V30 4863 H 446.869 -2.00636 -3.52845 0
M  V30 4864 H 447.635 -4.21669 -2.39625 0
M  V30 4865 H 443.514 -3.30389 -3.21503 0
M  V30 4866 H 447.058 -6.61133 -2.22596 0
M  V30 4867 H 442.955 -5.69008 -3.04795 0
M  V30 4868 H 443.723 -7.73331 -2.68144 0
M  V30 4869 N 446.386 1.0089 -1.21074 0
M  V30 4870 C 447.349 2.0775 -0.968129 0
M  V30 4871 C 448.349 1.6069 0.0593445 0
M  V30 4872 O 449.539 1.73293 -0.177525 0
M  V30 4873 C 446.671 3.37794 -0.459108 0
M  V30 4874 H 447.864 2.30707 -1.9161 0
M  V30 4875 H 445.417 1.17807 -1.02719 0
M  V30 4876 H 446.152 3.20516 0.49397 0
M  V30 4877 H 445.937 3.7328 -1.20019 0
M  V30 4878 H 447.427 4.16454 -0.309099 0
M  V30 4879 N 447.864 1.01787 1.20321 0
M  V30 4880 C 448.812 0.58254 2.25187 0
M  V30 4881 C 449.806 -0.379359 1.65098 0
M  V30 4882 O 451.012 -0.249142 1.78267 0
M  V30 4883 H 447.387 0.170078 0.732514 0
M  V30 4884 H 449.358 1.47788 2.59232 0
M  V30 4885 C 448.107 -0.0620885 3.47645 0
M  V30 4886 H 447.43 0.669069 3.94162 0
M  V30 4887 H 448.87 -0.329784 4.22716 0
M  V30 4888 C 447.329 -1.3053 3.10586 0
M  V30 4889 O 447.859 -2.39848 3.22236 0
M  V30 4890 N 446.065 -1.18988 2.65123 0
M  V30 4891 H 445.612 -0.300341 2.55843 0
M  V30 4892 H 445.57 -2.02267 2.40698 0
M  V30 4893 N 449.342 -1.36122 0.79427 0
M  V30 4894 C 450.567 -2.03891 0.379871 0
M  V30 4895 C 450.992 -1.59488 -0.997251 0
M  V30 4896 O 450.35 -0.765652 -1.64339 0
M  V30 4897 C 450.398 -3.57687 0.457442 0
M  V30 4898 O 449.502 -4.08931 -0.5338 0
M  V30 4899 H 448.843 -0.6443 0.160541 0
M  V30 4900 H 451.373 -1.73976 1.07673 0
M  V30 4901 H 451.383 -4.06721 0.322792 0
M  V30 4902 H 450.058 -3.89357 1.46199 0
M  V30 4903 H 448.635 -3.71154 -0.360409 0
M  V30 4904 N 450.82 -0.546701 -1.47814 0
M  V30 4905 C 452.06 -0.0209604 -2.04389 0
M  V30 4906 C 452.424 1.29993 -1.413 0
M  V30 4907 O 453.625 1.91273 -1.8886 0
M  V30 4908 C 451.896 0.0812844 -3.57308 0
M  V30 4909 S 453.455 0.55467 -4.3528 0
M  V30 4910 H 450.273 -0.0200865 -0.710716 0
M  V30 4911 H 452.875 -0.731055 -1.81317 0
M  V30 4912 H 451.579 -0.884616 -4.00753 0
M  V30 4913 H 451.11 0.815253 -3.8486 0
M  V30 4914 H 453.125 1.81627 -4.61764 0
M  V30 4915 N 452.299 1.55045 -0.282633 0
M  V30 4916 C 453.262 2.21515 0.588539 0
M  V30 4917 C 454.262 1.19535 1.07554 0
M  V30 4918 O 455.452 1.44391 0.974514 0
M  V30 4919 C 452.584 2.88704 1.8128 0
M  V30 4920 H 453.777 2.99899 0.00806397 0
M  V30 4921 H 451.33 1.56265 -0.0333067 0
M  V30 4922 H 452.065 2.14352 2.43359 0
M  V30 4923 H 451.85 3.63443 1.47144 0
M  V30 4924 H 453.34 3.39465 2.43214 0
M  V30 4925 N 453.777 0.010035 1.57597 0
M  V30 4926 C 454.725 -0.996272 2.10184 0
M  V30 4927 C 455.719 -1.34942 1.02406 0
M  V30 4928 O 456.925 -1.33389 1.20861 0
M  V30 4929 H 453.3 -0.338982 0.671264 0
M  V30 4930 H 455.271 -0.527272 2.93705 0
M  V30 4931 C 454.02 -2.27599 2.62857 0
M  V30 4932 H 453.343 -2.01295 3.45428 0
M  V30 4933 H 454.783 -2.96265 3.0332 0
M  V30 4934 C 453.242 -2.99269 1.54725 0
M  V30 4935 O 453.772 -3.90644 0.93597 0
M  V30 4936 N 451.978 -2.61269 1.27228 0
M  V30 4937 H 451.525 -1.87043 1.77123 0
M  V30 4938 H 451.483 -3.09534 0.550999 0
M  V30 4939 N 455.255 -1.55392 -0.262866 0
M  V30 4940 C 456.666 -1.67079 -0.833158 0
M  V30 4941 C 457.017 -0.604539 -1.86654 0
M  V30 4942 O 456.142 0.252138 -2.14926 0
M  V30 4943 C 456.737 -3.02891 -1.51797 0
M  V30 4944 C 455.296 -3.16571 -2.03617 0
M  V30 4945 C 454.443 -2.62909 -0.881701 0
M  V30 4946 H 457.394 -1.58652 -0.0389986 0
M  V30 4947 H 457.415 -2.96445 -2.38538 0
M  V30 4948 H 456.927 -3.80473 -0.765619 0
M  V30 4949 H 455.028 -2.43782 -2.81782 0
M  V30 4950 H 455.141 -4.23271 -2.24452 0
M  V30 4951 H 453.505 -2.20324 -1.27786 0
M  V30 4952 H 454.288 -3.43003 -0.14269 0
M  V30 4953 N 456.733 0.527833 -1.48498 0
M  V30 4954 C 457.982 1.28003 -1.55878 0
M  V30 4955 C 458.295 1.9414 -0.238577 0
M  V30 4956 O 459.501 2.7083 -0.190643 0
M  V30 4957 C 457.957 2.32272 -2.74914 0
M  V30 4958 C 457.565 1.72196 -4.13585 0
M  V30 4959 C 459.309 3.08488 -2.91608 0
M  V30 4960 C 457.216 2.74417 -5.23879 0
M  V30 4961 H 456.146 0.481413 -0.580308 0
M  V30 4962 H 458.797 0.557195 -1.74836 0
M  V30 4963 H 457.179 3.07601 -2.49395 0
M  V30 4964 H 458.353 1.03041 -4.49132 0
M  V30 4965 H 456.668 1.08464 -4.02025 0
M  V30 4966 H 459.265 3.84879 -3.71177 0
M  V30 4967 H 459.608 3.64481 -2.01145 0
M  V30 4968 H 460.141 2.40274 -3.17038 0
M  V30 4969 H 456.88 2.23242 -6.16314 0
M  V30 4970 H 456.4 3.41893 -4.92818 0
M  V30 4971 H 458.079 3.37362 -5.52083 0
M  V30 4972 N 458.211 1.37122 0.776871 0
M  V30 4973 C 459.141 1.35164 1.90402 0
M  V30 4974 C 460.122 0.221069 1.68657 0
M  V30 4975 O 461.307 0.420642 1.8959 0
M  V30 4976 C 458.437 1.15274 3.27611 0
M  V30 4977 C 457.391 2.25289 3.63908 0
M  V30 4978 C 456.717 1.90527 4.99603 0
M  V30 4979 C 458.017 3.67446 3.71188 0
M  V30 4980 H 459.711 2.29482 1.92297 0
M  V30 4981 H 457.257 1.10465 0.923773 0
M  V30 4982 H 459.21 1.12536 4.06096 0
M  V30 4983 H 457.934 0.174102 3.26136 0
M  V30 4984 H 456.593 2.27174 2.87728 0
M  V30 4985 H 456.241 0.91206 4.94662 0
M  V30 4986 H 455.941 2.64193 5.24858 0
M  V30 4987 H 457.465 1.89367 5.80493 0
M  V30 4988 H 458.879 3.67719 4.39836 0
M  V30 4989 H 457.276 4.40123 4.07936 0
M  V30 4990 H 458.346 4.01443 2.71977 0
M  V30 4991 N 459.689 -1.00246 1.21608 0
M  V30 4992 C 460.919 -1.77373 1.05935 0
M  V30 4993 C 461.327 -1.85059 -0.393686 0
M  V30 4994 O 460.67 -1.31289 -1.28487 0
M  V30 4995 C 460.732 -3.22705 1.58435 0
M  V30 4996 C 460.396 -3.38591 3.06929 0
M  V30 4997 C 461.393 -3.2667 4.04454 0
M  V30 4998 C 459.078 -3.6395 3.46187 0
M  V30 4999 C 461.072 -3.39877 5.39224 0
M  V30 5000 C 458.759 -3.768 4.81108 0
M  V30 5001 C 459.757 -3.6477 5.77436 0
M  V30 5002 O 459.445 -3.77206 7.09909 0
M  V30 5003 H 459.177 -0.56419 0.372378 0
M  V30 5004 H 461.731 -1.26971 1.61454 0
M  V30 5005 H 459.961 -3.74255 0.973147 0
M  V30 5006 H 461.65 -3.81515 1.38568 0
M  V30 5007 H 462.416 -3.06999 3.75468 0
M  V30 5008 H 458.295 -3.72395 2.71741 0
M  V30 5009 H 461.839 -3.30404 6.14393 0
M  V30 5010 H 457.736 -3.95975 5.09779 0
M  V30 5011 H 458.504 -3.94138 7.17355 0
M  V30 5012 N 461.167 -1.02423 -1.1978 0
M  V30 5013 C 462.13 -0.605703 -2.21052 0
M  V30 5014 C 463.13 0.328209 -1.57415 0
M  V30 5015 O 464.32 0.115853 -1.73814 0
M  V30 5016 C 461.452 0.114366 -3.40708 0
M  V30 5017 H 462.645 -1.5017 -2.59594 0
M  V30 5018 H 460.198 -0.814888 -1.33376 0
M  V30 5019 H 460.933 1.02492 -3.07678 0
M  V30 5020 H 460.718 -0.556641 -3.88129 0
M  V30 5021 H 462.208 0.394272 -4.15735 0
M  V30 5022 N 462.645 1.35699 -0.801477 0
M  V30 5023 C 463.892 1.98913 -0.379459 0
M  V30 5024 C 464.22 1.63592 1.05204 0
M  V30 5025 O 463.475 0.888563 1.74365 0
M  V30 5026 C 463.774 3.53828 -0.504041 0
M  V30 5027 C 463.44 4.09002 -1.8981 0
M  V30 5028 C 462.102 4.23783 -2.27951 0
M  V30 5029 C 464.454 4.38939 -2.81038 0
M  V30 5030 C 461.782 4.65816 -3.56696 0
M  V30 5031 C 464.134 4.82409 -4.09224 0
M  V30 5032 C 462.798 4.95395 -4.4737 0
M  V30 5033 H 462.068 0.727874 -0.138854 0
M  V30 5034 H 464.715 1.61994 -1.02128 0
M  V30 5035 H 463.02 3.91175 0.221242 0
M  V30 5036 H 464.717 4.00687 -0.158361 0
M  V30 5037 H 461.307 3.97946 -1.59176 0
M  V30 5038 H 465.491 4.27077 -2.52821 0
M  V30 5039 H 460.747 4.74059 -3.86106 0
M  V30 5040 H 464.921 5.04535 -4.80018 0
M  V30 5041 H 462.548 5.27724 -5.47185 0
M  V30 5042 N 464.123 0.554532 1.47522 0
M  V30 5043 C 465.053 -0.182974 2.32782 0
M  V30 5044 C 466.034 -0.911377 1.43624 0
M  V30 5045 O 467.219 -0.892366 1.72483 0
M  V30 5046 C 464.349 -1.21513 3.25349 0
M  V30 5047 C 463.303 -0.603355 4.23726 0
M  V30 5048 C 462.629 -1.73995 5.05598 0
M  V30 5049 C 463.929 0.441121 5.20434 0
M  V30 5050 H 465.623 0.52882 2.94693 0
M  V30 5051 H 463.169 0.255759 1.41711 0
M  V30 5052 H 465.122 -1.73922 3.83835 0
M  V30 5053 H 463.846 -1.95683 2.61487 0
M  V30 5054 H 462.505 -0.10059 3.66462 0
M  V30 5055 H 462.153 -2.47063 4.38143 0
M  V30 5056 H 461.853 -1.3364 5.72201 0
M  V30 5057 H 463.377 -2.26735 5.66942 0
M  V30 5058 H 464.791 0.00319931 5.733 0
M  V30 5059 H 463.188 0.763402 5.95224 0
M  V30 5060 H 464.258 1.33799 4.66075 0
M  V30 5061 N 465.601 -1.54893 0.290851 0
M  V30 5062 C 466.826 -2.04804 -0.32712 0
M  V30 5063 C 467.251 -1.16721 -1.47506 0
M  V30 5064 O 466.609 -0.169107 -1.8051 0
M  V30 5065 C 466.657 -3.52268 -0.770689 0
M  V30 5066 O 465.761 -3.67236 -1.87647 0
M  V30 5067 H 465.102 -0.660789 -0.0652227 0
M  V30 5068 H 467.632 -2.00036 0.429739 0
M  V30 5069 H 467.642 -3.9393 -1.06223 0
M  V30 5070 H 466.317 -4.15843 0.069096 0
M  V30 5071 H 464.894 -3.37479 -1.58626 0
M  V30 5072 N 467.08 -0.0183926 -1.57589 0
M  V30 5073 C 468.357 0.700621 -1.82622 0
M  V30 5074 C 468.737 1.90951 -0.90005 0
M  V30 5075 O 468.085 2.28452 0.0469145 0
M  V30 5076 C 468.295 1.08899 -3.31575 0
M  V30 5077 C 469.643 1.48514 -3.9778 0
M  V30 5078 O 470.667 1.18227 -3.36007 0
M  V30 5079 O 469.526 2.04903 -5.06633 0
M  V30 5080 H 466.62 0.342743 -0.752633 0
M  V30 5081 H 469.166 -0.0452548 -1.6964 0
M  V30 5082 H 467.938 0.228113 -3.90635 0
M  V30 5083 H 467.561 1.89338 -3.49624 0
M  V30 5084 N 468.558 1.5553 0.254621 0
M  V30 5085 C 469.506 1.9048 1.33492 0
M  V30 5086 C 470.5 0.78304 1.50216 0
M  V30 5087 O 471.706 0.967582 1.51782 0
M  V30 5088 H 468.081 0.604846 0.44684 0
M  V30 5089 H 470.052 2.80688 1.01275 0
M  V30 5090 C 468.801 2.20928 2.68489 0
M  V30 5091 H 468.124 3.06742 2.56417 0
M  V30 5092 H 469.564 2.49291 3.42972 0
M  V30 5093 C 468.023 1.023 3.20993 0
M  V30 5094 O 468.553 0.267027 4.00811 0
M  V30 5095 N 466.759 0.815714 2.78917 0
M  V30 5096 H 466.306 1.43217 2.14119 0
M  V30 5097 H 466.264 0.0236532 3.14391 0
M  V30 5098 N 470.036 -0.519951 1.48776 0
M  V30 5099 C 471.283 -1.27522 1.57303 0
M  V30 5100 C 471.611 -1.92869 0.251328 0
M  V30 5101 O 470.866 -1.80372 -0.759243 0
M  V30 5102 C 471.165 -2.37864 2.6675 0
M  V30 5103 C 470.831 -1.90103 4.08867 0
M  V30 5104 C 469.493 -1.76795 4.47546 0
M  V30 5105 C 471.845 -1.54133 4.97888 0
M  V30 5106 C 469.173 -1.25868 5.73039 0
M  V30 5107 C 471.525 -1.04665 6.23881 0
M  V30 5108 C 470.189 -0.899823 6.61407 0
M  V30 5109 H 469.459 -0.466636 0.575614 0
M  V30 5110 H 472.106 -0.579109 1.82534 0
M  V30 5111 H 470.411 -3.13186 2.35418 0
M  V30 5112 H 472.108 -2.95969 2.70561 0
M  V30 5113 H 468.698 -2.01414 3.78326 0
M  V30 5114 H 472.882 -1.6327 4.68675 0
M  V30 5115 H 468.138 -1.13196 6.0083 0
M  V30 5116 H 472.312 -0.759074 6.92251 0
M  V30 5117 H 469.939 -0.503011 7.58534 0
M  V30 5118 N 471.514 -1.37532 -0.769588 0
M  V30 5119 C 472.461 -1.3347 -1.88293 0
M  V30 5120 C 473.431 -0.199891 -1.64893 0
M  V30 5121 O 474.616 -0.389594 -1.8678 0
M  V30 5122 C 471.756 -1.14968 -3.25387 0
M  V30 5123 C 470.869 -2.37698 -3.60727 0
M  V30 5124 C 470.004 -2.12051 -4.8704 0
M  V30 5125 C 469.043 -3.30636 -5.15117 0
M  V30 5126 N 468.18 -3.04527 -6.3262 0
M  V30 5127 H 473.02 -2.28658 -1.911 0
M  V30 5128 H 470.557 -1.13622 -0.934257 0
M  V30 5129 H 472.515 -1.02261 -4.04473 0
M  V30 5130 H 471.145 -0.234263 -3.21949 0
M  V30 5131 H 470.197 -2.61137 -2.76608 0
M  V30 5132 H 471.509 -3.26131 -3.77413 0
M  V30 5133 H 470.663 -1.96388 -5.74035 0
M  V30 5134 H 469.402 -1.20959 -4.72462 0
M  V30 5135 H 468.407 -3.46836 -4.26597 0
M  V30 5136 H 469.632 -4.22582 -5.31603 0
M  V30 5137 H 467.578 -2.16067 -6.19396 0
M  V30 5138 H 467.495 -3.86503 -6.49732 0
M  V30 5139 H 468.763 -2.92485 -7.22546 0
M  V30 5140 N 472.992 0.995999 -1.22138 0
M  V30 5141 C 473.939 2.08551 -0.988687 0
M  V30 5142 C 474.909 1.65864 0.0885021 0
M  V30 5143 O 476.094 1.90704 -0.0604589 0
M  V30 5144 C 473.234 3.40374 -0.569191 0
M  V30 5145 C 472.347 3.96421 -1.71681 0
M  V30 5146 C 471.482 5.1639 -1.2456 0
M  V30 5147 C 470.521 5.64567 -2.36497 0
M  V30 5148 N 469.658 6.75777 -1.90445 0
M  V30 5149 H 474.498 2.2779 -1.92135 0
M  V30 5150 H 472.035 1.1168 -0.957388 0
M  V30 5151 H 473.993 4.16068 -0.307166 0
M  V30 5152 H 472.623 3.21145 0.326462 0
M  V30 5153 H 471.675 3.17628 -2.09324 0
M  V30 5154 H 472.987 4.2816 -2.55891 0
M  V30 5155 H 472.141 5.99362 -0.940774 0
M  V30 5156 H 470.88 4.86266 -0.373662 0
M  V30 5157 H 469.885 4.80185 -2.67772 0
M  V30 5158 H 471.11 5.96716 -3.24202 0
M  V30 5159 H 469.056 6.47443 -1.05609 0
M  V30 5160 H 468.973 7.06818 -2.68223 0
M  V30 5161 H 470.241 7.62262 -1.63022 0
M  V30 5162 N 474.47 1.03057 1.19235 0
M  V30 5163 C 475.695 0.74757 1.93458 0
M  V30 5164 C 476.12 -0.687648 1.7508 0
M  V30 5165 O 475.478 -1.47499 1.05422 0
M  V30 5166 C 475.526 1.10604 3.43219 0
M  V30 5167 O 474.63 0.225671 4.11782 0
M  V30 5168 H 473.971 0.276047 0.603899 0
M  V30 5169 H 476.501 1.3777 1.51263 0
M  V30 5170 H 476.511 1.06366 3.93891 0
M  V30 5171 H 475.186 2.15165 3.55917 0
M  V30 5172 H 473.763 0.326795 3.71465 0
M  V30 5173 N 475.948 -1.35272 0.808662 0
M  V30 5174 C 477.195 -1.98709 0.390003 0
M  V30 5175 C 477.523 -1.64148 -1.04335 0
M  V30 5176 O 476.778 -0.897797 -1.73891 0
M  V30 5177 C 477.077 -3.53556 0.522798 0
M  V30 5178 C 476.743 -4.0799 1.91977 0
M  V30 5179 C 475.405 -4.22568 2.30195 0
M  V30 5180 C 477.757 -4.37442 2.83361 0
M  V30 5181 C 475.085 -4.63918 3.59162 0
M  V30 5182 C 477.437 -4.80232 4.11776 0
M  V30 5183 C 476.101 -4.93016 4.49991 0
M  V30 5184 H 475.371 -0.727127 0.142712 0
M  V30 5185 H 478.018 -1.6145 1.02985 0
M  V30 5186 H 476.323 -3.91287 -0.200494 0
M  V30 5187 H 478.02 -4.00598 0.179608 0
M  V30 5188 H 474.61 -3.97096 1.61284 0
M  V30 5189 H 478.794 -4.25731 2.55083 0
M  V30 5190 H 474.05 -4.72005 3.88615 0
M  V30 5191 H 478.224 -5.01982 4.82687 0
M  V30 5192 H 475.851 -5.24814 5.49976 0
M  V30 5193 N 477.426 -0.562348 -1.47226 0
M  V30 5194 C 478.358 0.220011 -2.28142 0
M  V30 5195 C 479.371 0.874596 -1.37312 0
M  V30 5196 O 480.56 0.747583 -1.62091 0
M  V30 5197 C 477.66 1.32953 -3.11732 0
M  V30 5198 C 476.833 0.770759 -4.30556 0
M  V30 5199 C 475.892 1.76541 -4.95701 0
M  V30 5200 O 474.918 1.3095 -5.53932 0
M  V30 5201 N 476.12 3.09896 -4.90861 0
M  V30 5202 H 478.885 -0.474107 -2.95926 0
M  V30 5203 H 476.446 -0.398761 -1.56912 0
M  V30 5204 H 478.438 1.99378 -3.5218 0
M  V30 5205 H 477.008 1.92681 -2.46156 0
M  V30 5206 H 476.228 -0.0704056 -3.94137 0
M  V30 5207 H 477.516 0.376872 -5.07402 0
M  V30 5208 H 476.914 3.49577 -4.44761 0
M  V30 5209 H 475.471 3.71865 -5.35313 0
M  V30 5210 N 478.904 1.54736 -0.299062 0
M  V30 5211 C 479.852 2.24897 0.593658 0
M  V30 5212 C 480.846 1.25429 1.13859 0
M  V30 5213 O 482.052 1.43286 1.08945 0
M  V30 5214 H 478.427 0.72207 0.210046 0
M  V30 5215 H 480.398 2.98393 -0.0206421 0
M  V30 5216 C 479.147 3.00159 1.75499 0
M  V30 5217 H 478.47 3.76501 1.34489 0
M  V30 5218 H 479.91 3.52535 2.35574 0
M  V30 5219 C 478.369 2.07015 2.65794 0
M  V30 5220 O 478.899 1.63692 3.66835 0
M  V30 5221 N 477.105 1.73012 2.33485 0
M  V30 5222 H 476.652 2.08439 1.51364 0
M  V30 5223 H 476.61 1.10965 2.94167 0
M  V30 5224 N 480.382 0.0267497 1.57577 0
M  V30 5225 C 481.628 -0.653371 1.91987 0
M  V30 5226 C 481.961 -1.71915 0.903263 0
M  V30 5227 O 481.236 -1.94358 -0.0743387 0
M  V30 5228 C 481.519 -1.272 3.36886 0
M  V30 5229 C 481.372 -0.215938 4.49281 0
M  V30 5230 C 482.691 -2.19069 3.81703 0
M  V30 5231 H 479.81 -0.236047 0.698177 0
M  V30 5232 H 482.452 0.0835236 1.89816 0
M  V30 5233 H 480.602 -1.90005 3.38866 0
M  V30 5234 H 482.274 0.41449 4.59434 0
M  V30 5235 H 480.517 0.458855 4.31366 0
M  V30 5236 H 481.188 -0.688347 5.47691 0
M  V30 5237 H 483.664 -1.66253 3.81444 0
M  V30 5238 H 482.54 -2.59307 4.83788 0
M  V30 5239 H 482.801 -3.08087 3.17072 0
M  V30 5240 N 481.861 -1.55662 -0.24637 0
M  V30 5241 C 482.791 -1.93377 -1.30873 0
M  V30 5242 C 483.772 -0.798773 -1.50179 0
M  V30 5243 O 484.957 -1.0591 -1.62778 0
M  V30 5244 C 482.087 -2.22893 -2.66338 0
M  V30 5245 C 481.041 -3.38649 -2.61727 0
M  V30 5246 C 480.367 -3.53708 -4.00992 0
M  V30 5247 C 481.667 -4.74323 -2.18666 0
M  V30 5248 H 483.361 -2.82363 -0.995552 0
M  V30 5249 H 480.907 -1.35854 -0.477464 0
M  V30 5250 H 482.86 -2.47866 -3.40794 0
M  V30 5251 H 481.584 -1.30733 -2.99293 0
M  V30 5252 H 480.243 -3.13685 -1.89729 0
M  V30 5253 H 479.891 -2.58967 -4.31214 0
M  V30 5254 H 479.591 -4.31551 -3.98795 0
M  V30 5255 H 481.115 -3.81003 -4.77147 0
M  V30 5256 H 482.529 -4.98665 -2.82854 0
M  V30 5257 H 480.926 -5.55273 -2.27579 0
M  V30 5258 H 481.996 -4.71349 -1.13834 0
M  V30 5259 N 483.339 0.512053 -1.4905 0
M  V30 5260 C 484.579 1.27715 -1.59588 0
M  V30 5261 C 484.943 1.90071 -0.271502 0
M  V30 5262 O 486.144 2.67616 -0.251987 0
M  V30 5263 C 484.415 2.32399 -2.71524 0
M  V30 5264 S 485.974 3.18396 -3.01943 0
M  V30 5265 H 482.792 0.43419 -0.563027 0
M  V30 5266 H 485.394 0.581315 -1.86657 0
M  V30 5267 H 484.098 1.85101 -3.66287 0
M  V30 5268 H 483.629 3.06667 -2.46412 0
M  V30 5269 H 485.644 4.32842 -2.42616 0
M  V30 5270 N 484.817 1.37938 0.762283 0
M  V30 5271 C 485.747 1.37176 1.88958 0
M  V30 5272 C 486.728 0.238945 1.68413 0
M  V30 5273 O 487.913 0.440726 1.89133 0
M  V30 5274 C 485.043 1.18742 3.2637 0
M  V30 5275 C 483.997 2.29136 3.61498 0
M  V30 5276 C 483.323 1.95816 4.97554 0
M  V30 5277 C 484.623 3.71363 3.6727 0
M  V30 5278 H 486.317 2.31509 1.89853 0
M  V30 5279 H 483.863 1.11438 0.912005 0
M  V30 5280 H 485.816 1.16837 4.04879 0
M  V30 5281 H 484.54 0.208683 3.25933 0
M  V30 5282 H 483.199 2.30213 2.85303 0
M  V30 5283 H 482.847 0.964475 4.93667 0
M  V30 5284 H 482.547 2.69745 5.22026 0
M  V30 5285 H 484.071 1.95513 5.78452 0
M  V30 5286 H 485.485 3.72364 4.35911 0
M  V30 5287 H 483.882 4.44425 4.03245 0
M  V30 5288 H 484.952 4.04305 2.67704 0
M  V30 5289 N 486.295 -0.989507 1.22664 0
M  V30 5290 C 487.541 -1.7321 1.05481 0
M  V30 5291 C 487.874 -1.89852 -0.408635 0
M  V30 5292 O 487.149 -1.44416 -1.30285 0
M  V30 5293 C 487.432 -3.1357 1.77047 0
M  V30 5294 C 487.285 -3.04555 3.31008 0
M  V30 5295 C 488.604 -4.12812 1.5256 0
M  V30 5296 H 485.723 -0.628697 0.384589 0
M  V30 5297 H 488.365 -1.15258 1.51049 0
M  V30 5298 H 486.515 -3.63046 1.3831 0
M  V30 5299 H 488.187 -2.62674 3.7921 0
M  V30 5300 H 486.43 -2.41278 3.6051 0
M  V30 5301 H 487.101 -4.03894 3.76263 0
M  V30 5302 H 489.577 -3.72106 1.86215 0
M  V30 5303 H 488.453 -5.09132 2.05124 0
M  V30 5304 H 488.714 -4.39711 0.458936 0
M  V30 5305 N 487.773 -1.03688 -1.18687 0
M  V30 5306 C 488.72 -0.624624 -2.22187 0
M  V30 5307 C 489.69 0.365636 -1.62026 0
M  V30 5308 O 490.875 0.260481 -1.89014 0
M  V30 5309 C 488.015 0.0101738 -3.45099 0
M  V30 5310 C 487.128 -1.02709 -4.19613 0
M  V30 5311 C 486.263 -0.361213 -5.2997 0
M  V30 5312 C 485.302 -1.38384 -5.96252 0
M  V30 5313 N 484.439 -0.743196 -6.98155 0
M  V30 5314 H 489.279 -1.51176 -2.56807 0
M  V30 5315 H 486.816 -0.75636 -1.26165 0
M  V30 5316 H 488.774 0.395528 -4.15321 0
M  V30 5317 H 487.404 0.860848 -3.1111 0
M  V30 5318 H 486.456 -1.53043 -3.48256 0
M  V30 5319 H 487.768 -1.80398 -4.65036 0
M  V30 5320 H 486.922 0.0785537 -6.06649 0
M  V30 5321 H 485.661 0.447799 -4.8564 0
M  V30 5322 H 484.666 -1.83378 -5.18317 0
M  V30 5323 H 485.891 -2.19448 -6.42666 0
M  V30 5324 H 483.837 0.0455789 -6.55984 0
M  V30 5325 H 483.754 -1.45784 -7.41811 0
M  V30 5326 H 485.022 -0.327698 -7.78811 0
M  V30 5327 N 489.251 1.34841 -0.815825 0
M  V30 5328 C 490.497 1.98793 -0.401129 0
M  V30 5329 C 490.83 1.64548 1.03139 0
M  V30 5330 O 490.105 0.913487 1.71714 0
M  V30 5331 C 490.388 3.55143 -0.595409 0
M  V30 5332 C 490.241 3.99155 -2.07352 0
M  V30 5333 C 491.56 4.40092 -0.0268823 0
M  V30 5334 H 488.679 0.722146 -0.14722 0
M  V30 5335 H 491.321 1.59847 -1.02707 0
M  V30 5336 H 489.471 3.8845 -0.0625779 0
M  V30 5337 H 491.143 3.76216 -2.66945 0
M  V30 5338 H 489.386 3.49726 -2.56659 0
M  V30 5339 H 490.057 5.07971 -2.1603 0
M  V30 5340 H 492.533 4.13298 -0.482042 0
M  V30 5341 H 491.409 5.48562 -0.19267 0
M  V30 5342 H 491.67 4.29016 1.06759 0
M  V30 5343 N 490.729 0.570148 1.46925 0
M  V30 5344 C 491.954 0.0542592 2.07329 0
M  V30 5345 C 492.379 -1.23582 1.41806 0
M  V30 5346 O 491.737 -1.74341 0.497479 0
M  V30 5347 C 491.785 -0.111175 3.60429 0
M  V30 5348 O 490.889 -1.17071 3.95434 0
M  V30 5349 H 490.23 0.0571425 0.661537 0
M  V30 5350 H 492.76 0.789516 1.88753 0
M  V30 5351 H 492.77 -0.321315 4.06733 0
M  V30 5352 H 491.445 0.831012 4.07513 0
M  V30 5353 H 490.022 -0.940029 3.60857 0
M  V30 5354 N 492.207 -1.54576 0.307264 0
M  V30 5355 C 493.455 -1.99867 -0.299574 0
M  V30 5356 C 493.776 -1.19714 -1.53927 0
M  V30 5357 O 493.046 -0.29472 -1.9367 0
M  V30 5358 H 491.626 -0.738299 -0.113683 0
M  V30 5359 H 494.288 -1.9032 0.420042 0
M  V30 5360 H 493.384 -3.06901 -0.567283 0
M  V30 5361 N 493.685 -0.035106 -1.57561 0
M  V30 5362 C 494.913 0.652258 -1.9635 0
M  V30 5363 C 495.328 1.65317 -0.911897 0
M  V30 5364 O 494.685 1.82194 0.105657 0
M  V30 5365 C 494.736 1.35337 -3.35211 0
M  V30 5366 O 494.457 0.392548 -4.36338 0
M  V30 5367 C 495.958 2.13199 -3.88666 0
M  V30 5368 H 493.178 0.179444 -0.646561 0
M  V30 5369 H 495.722 -0.0966459 -2.04271 0
M  V30 5370 H 493.877 2.05362 -3.28489 0
M  V30 5371 H 494.291 0.891097 -5.16875 0
M  V30 5372 H 495.765 2.577 -4.88154 0
M  V30 5373 H 496.242 2.97353 -3.23231 0
M  V30 5374 H 496.848 1.48118 -3.98674 0
M  V30 5375 N 495.163 1.55791 0.238111 0
M  V30 5376 C 496.44 1.68798 0.98826 0
M  V30 5377 C 496.82 0.577562 2.03045 0
M  V30 5378 O 496.168 -0.41778 2.24648 0
M  V30 5379 C 496.378 3.09454 1.61367 0
M  V30 5380 C 497.726 3.68335 2.11221 0
M  V30 5381 O 498.75 3.1231 1.71292 0
M  V30 5382 O 497.609 4.6657 2.84561 0
M  V30 5383 H 494.703 0.686881 0.460568 0
M  V30 5384 H 497.249 1.68118 0.231202 0
M  V30 5385 H 496.021 3.81726 0.860295 0
M  V30 5386 H 495.644 3.14182 2.4367 0
M  V30 5387 N 496.642 -0.504142 1.49319 0
M  V30 5388 C 497.919 -1.26548 1.49147 0
M  V30 5389 C 498.299 -2.09977 0.21744 0
M  V30 5390 O 497.647 -2.14028 -0.800269 0
M  V30 5391 C 497.857 -2.12489 2.76857 0
M  V30 5392 C 499.205 -2.7178 3.26222 0
M  V30 5393 O 500.229 -2.22758 2.77952 0
M  V30 5394 O 499.088 -3.61015 4.10281 0
M  V30 5395 H 496.182 -0.572495 0.596806 0
M  V30 5396 H 498.728 -0.51867 1.61579 0
M  V30 5397 H 497.5 -1.50796 3.61077 0
M  V30 5398 H 497.123 -2.94368 2.6727 0
M  V30 5399 N 498.12 -1.38341 -0.754957 0
M  V30 5400 C 499.368 -1.34208 -1.51105 0
M  V30 5401 C 499.689 0.0677634 -1.94882 0
M  V30 5402 O 498.959 1.01517 -1.67544 0
M  V30 5403 H 497.539 -0.493819 -0.560493 0
M  V30 5404 H 500.201 -1.73005 -0.897507 0
M  V30 5405 H 499.297 -1.99203 -2.4026 0
M  V30 5406 N 499.598 0.982988 -1.23187 0
M  V30 5407 C 500.508 2.10907 -1.02739 0
M  V30 5408 C 501.524 1.73979 0.0273188 0
M  V30 5409 O 502.7 2.00702 -0.16757 0
M  V30 5410 C 499.765 3.41142 -0.618304 0
M  V30 5411 C 498.826 3.92112 -1.74777 0
M  V30 5412 C 498.059 5.16131 -1.3581 0
M  V30 5413 O 498.282 5.6989 -0.241201 0
M  V30 5414 O 497.216 5.61103 -2.17824 0
M  V30 5415 H 501.042 2.31046 -1.97108 0
M  V30 5416 H 498.627 1.09284 -1.01869 0
M  V30 5417 H 500.509 4.19488 -0.400982 0
M  V30 5418 H 499.184 3.2234 0.296421 0
M  V30 5419 H 498.091 3.14895 -2.0197 0
M  V30 5420 H 499.424 4.15364 -2.64071 0
M  V30 5421 N 501.076 1.04316 1.18135 0
M  V30 5422 C 502.492 0.762858 1.40188 0
M  V30 5423 C 502.692 -0.646547 1.90846 0
M  V30 5424 O 501.748 -1.41036 2.0944 0
M  V30 5425 C 503.061 1.81106 2.40044 0
M  V30 5426 C 504.609 1.83226 2.53766 0
M  V30 5427 C 505.084 2.87044 3.56889 0
M  V30 5428 N 506.575 2.85951 3.64398 0
M  V30 5429 C 507.31 3.62932 4.43923 0
M  V30 5430 N 506.806 4.49672 5.27036 0
M  V30 5431 N 508.599 3.51411 4.38711 0
M  V30 5432 H 500.75 1.95264 0.835805 0
M  V30 5433 H 503.013 0.845017 0.429709 0
M  V30 5434 H 502.719 2.82214 2.09876 0
M  V30 5435 H 502.593 1.64529 3.39426 0
M  V30 5436 H 504.98 0.827869 2.8325 0
M  V30 5437 H 505.061 2.03879 1.54489 0
M  V30 5438 H 504.705 3.87663 3.28145 0
M  V30 5439 H 504.635 2.63645 4.5585 0
M  V30 5440 H 507.126 2.23051 3.05052 0
M  V30 5441 H 507.439 5.05116 5.84874 0
M  V30 5442 H 505.784 4.53738 5.26447 0
M  V30 5443 H 508.975 2.83047 3.72829 0
M  V30 5444 H 509.148 4.11654 5.00445 0
M  V30 5445 N 502.554 -1.34406 0.822964 0
M  V30 5446 C 503.779 -2.0304 0.423034 0
M  V30 5447 C 504.204 -1.61568 -0.963196 0
M  V30 5448 O 503.562 -0.800339 -1.62678 0
M  V30 5449 C 503.61 -3.56636 0.53321 0
M  V30 5450 O 502.714 -4.09971 -0.446939 0
M  V30 5451 H 502.055 -0.64075 0.174171 0
M  V30 5452 H 504.585 -1.71653 1.11339 0
M  V30 5453 H 504.595 -4.05945 0.408991 0
M  V30 5454 H 503.27 -3.86168 1.54425 0
M  V30 5455 H 501.847 -3.71835 -0.281601 0
M  V30 5456 N 504.032 -0.577932 -1.46621 0
M  V30 5457 C 505.309 0.00495287 -1.95599 0
M  V30 5458 C 505.689 1.46428 -1.5206 0
M  V30 5459 O 505.037 2.1517 -0.769046 0
M  V30 5460 C 505.247 -0.162114 -3.48623 0
M  V30 5461 C 506.595 -0.0274623 -4.24591 0
M  V30 5462 O 507.619 -0.0907067 -3.56084 0
M  V30 5463 O 506.478 0.1122 -5.46385 0
M  V30 5464 H 503.572 0.0525057 -0.825332 0
M  V30 5465 H 506.118 -0.645914 -1.56927 0
M  V30 5466 H 504.89 -1.17679 -3.73185 0
M  V30 5467 H 504.513 0.525407 -3.94113 0
M  V30 5468 N 505.51 1.54411 -0.315457 0
M  V30 5469 C 506.735 2.05299 0.294496 0
M  V30 5470 C 507.16 1.19052 1.4563 0
M  V30 5471 O 506.518 0.197804 1.80218 0
M  V30 5472 C 506.566 3.5345 0.714549 0
M  V30 5473 O 505.67 3.70175 1.81781 0
M  V30 5474 H 505.011 0.661743 0.0547019 0
M  V30 5475 H 507.541 1.99327 -0.461508 0
M  V30 5476 H 507.551 3.9557 0.999426 0
M  V30 5477 H 506.226 4.1568 -0.135244 0
M  V30 5478 H 504.803 3.3996 1.53236 0
M  V30 5479 N 506.988 0.0434614 1.5754 0
M  V30 5480 C 507.935 -0.93356 2.11077 0
M  V30 5481 C 508.905 -1.31383 1.01626 0
M  V30 5482 O 510.09 -1.40465 1.29129 0
M  V30 5483 C 507.23 -2.20578 2.65404 0
M  V30 5484 C 506.343 -1.88068 3.88914 0
M  V30 5485 C 505.478 -3.09691 4.31584 0
M  V30 5486 C 504.517 -2.73067 5.47815 0
M  V30 5487 N 503.654 -3.87359 5.85574 0
M  V30 5488 H 508.494 -0.470118 2.94268 0
M  V30 5489 H 506.031 -0.220434 1.45439 0
M  V30 5490 H 507.989 -2.95011 2.94999 0
M  V30 5491 H 506.619 -2.64513 1.85021 0
M  V30 5492 H 505.671 -1.03816 3.6596 0
M  V30 5493 H 506.983 -1.57104 4.73413 0
M  V30 5494 H 506.137 -3.92431 4.62691 0
M  V30 5495 H 504.876 -3.43827 3.45882 0
M  V30 5496 H 503.881 -1.88742 5.16388 0
M  V30 5497 H 505.106 -2.40131 6.35227 0
M  V30 5498 H 503.052 -4.21311 5.02825 0
M  V30 5499 H 502.969 -3.60068 6.64746 0
M  V30 5500 H 504.237 -4.70761 6.21292 0
M  V30 5501 N 508.466 -1.55915 -0.229846 0
M  V30 5502 C 509.398 -1.88209 -1.30805 0
M  V30 5503 C 510.411 -0.769672 -1.43457 0
M  V30 5504 O 511.6 -1.04792 -1.44502 0
M  V30 5505 C 508.7 -2.06829 -2.68468 0
M  V30 5506 C 507.873 -3.37798 -2.77869 0
M  V30 5507 C 506.932 -3.45952 -3.96489 0
M  V30 5508 O 505.958 -4.19043 -3.85216 0
M  V30 5509 N 507.16 -2.76488 -5.10426 0
M  V30 5510 H 509.925 -2.81286 -1.03431 0
M  V30 5511 H 507.486 -1.5636 -0.41991 0
M  V30 5512 H 509.478 -2.09608 -3.46189 0
M  V30 5513 H 508.048 -1.20416 -2.88477 0
M  V30 5514 H 507.268 -3.4719 -1.86689 0
M  V30 5515 H 508.556 -4.24091 -2.81113 0
M  V30 5516 H 507.954 -2.16868 -5.2248 0
M  V30 5517 H 506.511 -2.84938 -5.8622 0
M  V30 5518 N 509.944 0.496216 -1.49584 0
M  V30 5519 C 511.221 1.25755 -1.49816 0
M  V30 5520 C 511.601 2.09859 -0.228572 0
M  V30 5521 O 510.949 2.14449 0.788908 0
M  V30 5522 C 511.159 2.11017 -2.7798 0
M  V30 5523 C 512.507 2.70047 -3.27658 0
M  V30 5524 O 513.531 2.21281 -2.79129 0
M  V30 5525 O 512.39 3.58834 -4.1219 0
M  V30 5526 H 509.484 0.569322 -0.599834 0
M  V30 5527 H 512.03 0.510094 -1.61852 0
M  V30 5528 H 510.802 1.48879 -3.61871 0
M  V30 5529 H 510.425 2.92947 -2.68827 0
M  V30 5530 N 511.423 1.38739 0.74761 0
M  V30 5531 C 512.37 1.36449 1.86146 0
M  V30 5532 C 513.34 0.226098 1.64554 0
M  V30 5533 O 514.525 0.41926 1.86137 0
M  V30 5534 C 511.665 1.2013 3.23516 0
M  V30 5535 C 510.778 2.43407 3.56899 0
M  V30 5536 C 509.913 2.19773 4.83605 0
M  V30 5537 C 508.952 3.3879 5.09792 0
M  V30 5538 N 508.089 3.14553 6.27695 0
M  V30 5539 H 512.929 2.3167 1.87438 0
M  V30 5540 H 510.466 1.15094 0.916063 0
M  V30 5541 H 512.424 1.08683 4.02795 0
M  V30 5542 H 511.054 0.285453 3.21535 0
M  V30 5543 H 510.106 2.65504 2.72418 0
M  V30 5544 H 511.418 3.32094 3.72176 0
M  V30 5545 H 510.572 2.05496 5.70838 0
M  V30 5546 H 509.311 1.28461 4.70478 0
M  V30 5547 H 508.316 3.53579 4.21025 0
M  V30 5548 H 509.541 4.30986 5.24812 0
M  V30 5549 H 507.487 2.25893 6.1588 0
M  V30 5550 H 507.404 3.96791 6.435 0
M  V30 5551 H 508.672 3.03943 7.17801 0
M  V30 5552 N 512.901 -0.976442 1.23707 0
M  V30 5553 C 514.126 -1.75875 1.09922 0
M  V30 5554 C 514.551 -1.84911 -0.34489 0
M  V30 5555 O 513.909 -1.31363 -1.24954 0
M  V30 5556 C 513.957 -3.16179 1.73388 0
M  V30 5557 O 513.061 -4.00124 0.99871 0
M  V30 5558 H 512.402 -0.540954 0.385052 0
M  V30 5559 H 514.932 -1.22546 1.6384 0
M  V30 5560 H 514.942 -3.66741 1.78788 0
M  V30 5561 H 513.617 -3.08917 2.78466 0
M  V30 5562 H 512.194 -3.58624 1.02193 0
M  V30 5563 N 514.379 -1.04941 -1.1758 0
M  V30 5564 C 515.795 -0.770282 -1.39781 0
M  V30 5565 C 515.995 0.636417 -1.91186 0
M  V30 5566 O 515.051 1.39923 -2.10185 0
M  V30 5567 C 516.364 -1.82376 -2.3908 0
M  V30 5568 C 517.912 -1.84569 -2.52791 0
M  V30 5569 C 518.387 -2.88933 -3.55361 0
M  V30 5570 N 519.878 -2.8788 -3.62877 0
M  V30 5571 C 520.613 -3.65282 -4.41992 0
M  V30 5572 N 520.109 -4.52461 -5.24643 0
M  V30 5573 N 521.902 -3.53732 -4.36841 0
M  V30 5574 H 514.053 -1.95705 -0.825438 0
M  V30 5575 H 516.316 -0.847284 -0.425222 0
M  V30 5576 H 516.022 -2.83323 -2.08376 0
M  V30 5577 H 515.896 -1.66327 -3.38549 0
M  V30 5578 H 518.283 -0.842879 -2.82807 0
M  V30 5579 H 518.364 -2.04696 -1.53406 0
M  V30 5580 H 518.008 -3.89398 -3.26085 0
M  V30 5581 H 517.938 -2.66059 -4.54445 0
M  V30 5582 H 520.429 -2.24666 -3.03864 0
M  V30 5583 H 520.742 -5.08211 -5.82187 0
M  V30 5584 H 519.087 -4.56524 -5.24033 0
M  V30 5585 H 522.278 -2.85021 -3.71323 0
M  V30 5586 H 522.451 -4.14302 -4.98255 0
M  V30 5587 N 515.857 1.33968 -0.830081 0
M  V30 5588 C 516.787 2.31911 -0.271911 0
M  V30 5589 C 517.768 1.58571 0.61556 0
M  V30 5590 O 518.953 1.86514 0.540946 0
M  V30 5591 C 516.083 3.42737 0.561146 0
M  V30 5592 C 515.037 4.27383 -0.229789 0
M  V30 5593 C 514.363 5.29742 0.726463 0
M  V30 5594 C 515.663 5.02 -1.44197 0
M  V30 5595 H 517.357 2.78844 -1.09025 0
M  V30 5596 H 514.903 1.34061 -0.52571 0
M  V30 5597 H 516.856 4.10276 0.961867 0
M  V30 5598 H 515.58 2.94471 1.41261 0
M  V30 5599 H 514.239 3.61456 -0.611964 0
M  V30 5600 H 513.887 4.77736 1.57408 0
M  V30 5601 H 513.587 5.87255 0.20142 0
M  V30 5602 H 515.111 6.00149 1.12489 0
M  V30 5603 H 516.525 5.62355 -1.11488 0
M  V30 5604 H 514.922 5.69122 -1.90317 0
M  V30 5605 H 515.992 4.31281 -2.2164 0
M  V30 5606 N 517.335 0.585699 1.46312 0
M  V30 5607 C 518.283 -0.158577 2.32059 0
M  V30 5608 C 519.277 -0.881427 1.44662 0
M  V30 5609 O 520.483 -0.799476 1.61271 0
M  V30 5610 H 516.858 -0.0700066 0.748734 0
M  V30 5611 H 518.829 0.583383 2.92642 0
M  V30 5612 C 517.578 -1.15701 3.27885 0
M  V30 5613 H 516.901 -0.610215 3.95116 0
M  V30 5614 H 518.341 -1.64812 3.90657 0
M  V30 5615 C 516.8 -2.21951 2.53455 0
M  V30 5616 O 517.33 -3.29352 2.29978 0
M  V30 5617 N 515.536 -1.9664 2.13965 0
M  V30 5618 H 515.083 -1.09309 2.33258 0
M  V30 5619 H 515.041 -2.6794 1.64485 0
M  V30 5620 N 518.813 -1.54241 0.323641 0
M  V30 5621 C 519.723 -2.28033 -0.551205 0
M  V30 5622 C 520.739 -1.32388 -1.12913 0
M  V30 5623 O 521.915 -1.65403 -1.14908 0
M  V30 5624 C 518.98 -3.02382 -1.69606 0
M  V30 5625 C 518.041 -4.13612 -1.14993 0
M  V30 5626 C 517.274 -4.84407 -2.24022 0
M  V30 5627 O 517.497 -4.54716 -3.44368 0
M  V30 5628 O 516.431 -5.71312 -1.89436 0
M  V30 5629 H 520.257 -3.03662 0.048066 0
M  V30 5630 H 517.842 -1.49133 0.0893289 0
M  V30 5631 H 519.724 -3.48941 -2.36259 0
M  V30 5632 H 518.399 -2.29628 -2.28151 0
M  V30 5633 H 517.306 -3.71402 -0.448484 0
M  V30 5634 H 518.639 -4.8841 -0.609608 0
M  V30 5635 N 520.291 -0.0518155 -1.57515 0
M  V30 5636 C 521.519 0.631395 -1.9703 0
M  V30 5637 C 521.934 1.64341 -0.92938 0
M  V30 5638 O 521.291 1.82296 0.0863266 0
M  V30 5639 C 521.342 1.31774 -3.36627 0
M  V30 5640 O 521.063 0.346247 -4.3673 0
M  V30 5641 C 522.564 2.09065 -3.90905 0
M  V30 5642 H 519.784 0.172576 -0.648428 0
M  V30 5643 H 522.328 -0.118306 -2.04158 0
M  V30 5644 H 520.483 2.01867 -3.30649 0
M  V30 5645 H 520.897 0.836226 -5.17791 0
M  V30 5646 H 522.371 2.52508 -4.9086 0
M  V30 5647 H 522.848 2.93908 -3.26366 0
M  V30 5648 H 523.454 1.43882 -4.00223 0
M  V30 5649 N 521.769 1.56035 0.221574 0
M  V30 5650 C 522.997 1.8313 0.962864 0
M  V30 5651 C 523.412 0.630934 1.77946 0
M  V30 5652 O 522.769 -0.400519 1.78051 0
M  V30 5653 C 522.82 3.08742 1.88045 0
M  V30 5654 O 522.541 4.24147 1.09686 0
M  V30 5655 C 524.042 3.48824 2.73563 0
M  V30 5656 H 521.262 0.608775 0.282194 0
M  V30 5657 H 523.806 2.03124 0.23681 0
M  V30 5658 H 521.961 2.90723 2.56045 0
M  V30 5659 H 522.375 4.95505 1.71974 0
M  V30 5660 H 523.849 4.39752 3.3365 0
M  V30 5661 H 524.326 2.70575 3.45956 0
M  V30 5662 H 524.932 3.69282 2.10976 0
M  V30 5663 N 523.247 -0.488276 1.49845 0
M  V30 5664 C 524.157 -1.61451 1.70207 0
M  V30 5665 C 525.173 -1.63877 0.584846 0
M  V30 5666 O 526.349 -1.82063 0.861107 0
M  V30 5667 C 523.414 -2.9776 1.77594 0
M  V30 5668 C 522.475 -3.05861 3.01243 0
M  V30 5669 C 521.708 -4.35668 3.08268 0
M  V30 5670 O 521.931 -5.25197 2.22541 0
M  V30 5671 O 520.865 -4.49005 4.00847 0
M  V30 5672 H 524.691 -1.47199 2.65643 0
M  V30 5673 H 522.276 -0.665939 1.33737 0
M  V30 5674 H 524.158 -3.7875 1.84732 0
M  V30 5675 H 522.833 -3.12248 0.8534 0
M  V30 5676 H 521.74 -2.24012 2.99616 0
M  V30 5677 H 523.073 -2.96304 3.9302 0
M  V30 5678 N 524.725 -1.39134 -0.740242 0
M  V30 5679 C 525.953 -1.39334 -1.5295 0
M  V30 5680 C 526.368 0.0135008 -1.88795 0
M  V30 5681 O 525.725 0.983524 -1.5373 0
M  V30 5682 C 525.776 -2.2614 -2.82034 0
M  V30 5683 O 525.497 -3.61345 -2.47712 0
M  V30 5684 C 526.998 -2.34666 -3.76094 0
M  V30 5685 H 524.218 -0.476103 -0.472828 0
M  V30 5686 H 526.762 -1.82883 -0.9151 0
M  V30 5687 H 524.917 -1.86018 -3.39818 0
M  V30 5688 H 525.331 -4.07194 -3.30595 0
M  V30 5689 H 526.805 -2.99663 -4.63579 0
M  V30 5690 H 527.282 -1.36426 -4.17474 0
M  V30 5691 H 527.888 -2.75236 -3.2423 0
M  V30 5692 N 526.204 0.969867 -1.24223 0
M  V30 5693 C 527.136 2.0669 -0.99055 0
M  V30 5694 C 528.149 1.62753 0.0392222 0
M  V30 5695 O 529.338 1.77403 -0.197561 0
M  V30 5696 C 526.438 3.35589 -0.472594 0
M  V30 5697 C 525.611 4.08444 -1.56499 0
M  V30 5698 C 524.67 5.15616 -1.05007 0
M  V30 5699 O 523.696 5.41911 -1.7413 0
M  V30 5700 N 524.898 5.80383 0.116641 0
M  V30 5701 H 527.663 2.28855 -1.93508 0
M  V30 5702 H 525.224 1.13733 -1.15223 0
M  V30 5703 H 527.216 4.04542 -0.112919 0
M  V30 5704 H 525.786 3.10311 0.377617 0
M  V30 5705 H 525.006 3.33798 -2.09696 0
M  V30 5706 H 526.294 4.53882 -2.29932 0
M  V30 5707 H 525.692 5.6142 0.694589 0
M  V30 5708 H 524.249 6.50462 0.417483 0
M  V30 5709 N 527.682 1.05563 1.17022 0
M  V30 5710 C 529.098 0.777684 1.39371 0
M  V30 5711 C 529.298 -0.626269 1.91521 0
M  V30 5712 O 528.354 -1.38806 2.10924 0
M  V30 5713 C 529.667 1.83642 2.3811 0
M  V30 5714 C 531.215 1.85907 2.51809 0
M  V30 5715 C 531.69 2.90813 3.53824 0
M  V30 5716 N 533.181 2.898 3.61345 0
M  V30 5717 C 533.916 3.6762 4.40049 0
M  V30 5718 N 533.412 4.55237 5.22237 0
M  V30 5719 N 535.205 3.56044 4.34959 0
M  V30 5720 H 527.356 1.9614 0.815047 0
M  V30 5721 H 529.619 0.849527 0.420722 0
M  V30 5722 H 529.325 2.84425 2.06871 0
M  V30 5723 H 529.199 1.6812 3.37662 0
M  V30 5724 H 531.586 0.857865 2.82356 0
M  V30 5725 H 531.667 2.05506 1.52318 0
M  V30 5726 H 531.311 3.91122 3.24015 0
M  V30 5727 H 531.241 2.68465 4.53028 0
M  V30 5728 H 533.732 2.26274 3.02669 0
M  V30 5729 H 534.045 5.11291 5.79484 0
M  V30 5730 H 532.39 4.59296 5.21605 0
M  V30 5731 H 535.581 2.86986 3.69806 0
M  V30 5732 H 535.754 4.16938 4.96051 0
M  V30 5733 N 529.16 -1.33526 0.837174 0
M  V30 5734 C 530.388 -2.02047 0.445494 0
M  V30 5735 C 530.803 -1.62995 -0.952788 0
M  V30 5736 O 530.16 -0.842447 -1.61892 0
M  V30 5737 C 530.211 -3.57221 0.554577 0
M  V30 5738 O 529.932 -3.94863 1.89776 0
M  V30 5739 C 531.433 -4.43012 0.159634 0
M  V30 5740 H 528.653 -0.647221 0.177048 0
M  V30 5741 H 531.197 -1.70492 1.12928 0
M  V30 5742 H 529.352 -3.87315 -0.0812781 0
M  V30 5743 H 529.766 -4.89569 1.88208 0
M  V30 5744 H 531.24 -5.51253 0.28701 0
M  V30 5745 H 531.717 -4.29916 -0.898289 0
M  V30 5746 H 532.323 -4.18274 0.769855 0
M  V30 5747 N 530.638 -0.59345 -1.46 0
M  V30 5748 C 531.568 0.121192 -2.33185 0
M  V30 5749 C 532.549 0.872977 -1.4599 0
M  V30 5750 O 533.734 0.846321 -1.74789 0
M  V30 5751 C 530.864 1.12844 -3.28456 0
M  V30 5752 C 529.818 0.4908 -4.25177 0
M  V30 5753 C 529.144 1.60529 -5.10034 0
M  V30 5754 C 530.444 -0.578949 -5.19081 0
M  V30 5755 H 532.138 -0.606767 -2.93187 0
M  V30 5756 H 529.684 -0.293242 -1.40983 0
M  V30 5757 H 531.637 1.63684 -3.88311 0
M  V30 5758 H 530.361 1.88681 -2.66584 0
M  V30 5759 H 529.02 0.00339328 -3.666 0
M  V30 5760 H 528.668 2.35359 -4.44539 0
M  V30 5761 H 528.368 1.18422 -5.75543 0
M  V30 5762 H 529.892 2.11623 -5.72755 0
M  V30 5763 H 531.306 -0.155199 -5.7309 0
M  V30 5764 H 529.703 -0.920947 -5.92991 0
M  V30 5765 H 530.773 -1.46109 -4.62364 0
M  V30 5766 N 532.116 1.54067 -0.331816 0
M  V30 5767 C 533.046 2.27569 0.522932 0
M  V30 5768 C 534.027 1.28679 1.11247 0
M  V30 5769 O 535.212 1.57504 1.13605 0
M  V30 5770 C 532.342 3.0397 1.67987 0
M  V30 5771 C 531.296 4.10267 1.21924 0
M  V30 5772 C 530.622 4.74555 2.46377 0
M  V30 5773 C 531.922 5.21268 0.32815 0
M  V30 5774 H 533.616 2.99264 -0.0901977 0
M  V30 5775 H 531.162 1.4393 -0.044821 0
M  V30 5776 H 533.115 3.54123 2.28418 0
M  V30 5777 H 531.839 2.29906 2.31971 0
M  V30 5778 H 530.498 3.61009 0.637809 0
M  V30 5779 H 530.146 3.97098 3.08743 0
M  V30 5780 H 529.846 5.46363 2.16243 0
M  V30 5781 H 531.37 5.27487 3.07555 0
M  V30 5782 H 532.784 5.67128 0.838978 0
M  V30 5783 H 531.181 5.99982 0.119228 0
M  V30 5784 H 532.251 4.80673 -0.638839 0
M  V30 5785 N 533.594 0.0601682 1.57485 0
M  V30 5786 C 534.542 -0.928899 2.13247 0
M  V30 5787 C 535.536 -1.31616 1.06647 0
M  V30 5788 O 536.742 -1.29476 1.25043 0
M  V30 5789 H 533.117 -0.317455 0.681708 0
M  V30 5790 H 535.088 -0.433566 2.95233 0
M  V30 5791 C 533.837 -2.19121 2.69965 0
M  V30 5792 H 533.16 -1.90204 3.51657 0
M  V30 5793 H 534.6 -2.86465 3.12592 0
M  V30 5794 C 533.059 -2.94195 1.64168 0
M  V30 5795 O 533.589 -3.87468 1.05978 0
M  V30 5796 N 531.795 -2.57089 1.35476 0
M  V30 5797 H 531.342 -1.81314 1.82984 0
M  V30 5798 H 531.3 -3.07624 0.649196 0
M  V30 5799 N 535.072 -1.5615 -0.213296 0
M  V30 5800 C 536.32 -1.79191 -0.934612 0
M  V30 5801 C 536.641 -0.630112 -1.84539 0
M  V30 5802 O 535.911 0.35257 -1.92701 0
M  V30 5803 H 534.491 -0.660937 -0.348097 0
M  V30 5804 H 537.153 -1.93618 -0.22317 0
M  V30 5805 H 536.249 -2.71656 -1.53654 0
M  V30 5806 N 536.55 0.480323 -1.50102 0
M  V30 5807 C 537.827 1.24159 -1.51142 0
M  V30 5808 C 538.207 2.09605 -0.250818 0
M  V30 5809 O 537.555 2.15274 0.766118 0
M  V30 5810 C 537.765 2.08057 -2.80202 0
M  V30 5811 C 539.113 2.66556 -3.30504 0
M  V30 5812 O 540.137 2.18308 -2.81461 0
M  V30 5813 O 538.996 3.54442 -4.15973 0
M  V30 5814 H 536.09 0.562928 -0.605839 0
M  V30 5815 H 538.636 0.492899 -1.62384 0
M  V30 5816 H 537.408 1.45032 -3.6343 0
M  V30 5817 H 537.031 2.90079 -2.71919 0
M  V30 5818 N 538.028 1.39524 0.732853 0
M  V30 5819 C 538.958 1.41153 1.86005 0
M  V30 5820 C 539.939 0.274614 1.67869 0
M  V30 5821 O 541.124 0.480745 1.88155 0
M  V30 5822 C 538.254 1.25638 3.23778 0
M  V30 5823 C 537.208 2.36752 3.56556 0
M  V30 5824 C 536.534 2.06326 4.93289 0
M  V30 5825 C 537.834 3.79069 3.5931 0
M  V30 5826 H 539.528 2.35484 1.84899 0
M  V30 5827 H 537.074 1.13348 0.888162 0
M  V30 5828 H 539.027 1.25398 4.0231 0
M  V30 5829 H 537.751 0.277772 3.25417 0
M  V30 5830 H 536.41 2.36213 2.80355 0
M  V30 5831 H 536.058 1.06897 4.9151 0
M  V30 5832 H 535.758 2.80757 5.16187 0
M  V30 5833 H 537.282 2.07739 5.74175 0
M  V30 5834 H 538.696 3.81526 4.27914 0
M  V30 5835 H 537.093 4.52878 3.93728 0
M  V30 5836 H 538.163 4.09893 2.59068 0
M  V30 5837 N 539.506 -0.963266 1.24736 0
M  V30 5838 C 540.438 -2.06162 1.0015 0
M  V30 5839 C 541.451 -1.62771 -0.0305905 0
M  V30 5840 O 542.64 -1.77296 0.206966 0
M  V30 5841 C 539.74 -3.35333 0.490385 0
M  V30 5842 C 538.913 -4.07609 1.58663 0
M  V30 5843 C 537.972 -5.15052 1.0774 0
M  V30 5844 O 536.998 -5.4098 1.77002 0
M  V30 5845 N 538.2 -5.80436 -0.0858605 0
M  V30 5846 H 540.965 -2.27825 1.94719 0
M  V30 5847 H 538.526 -1.13121 1.15825 0
M  V30 5848 H 540.518 -4.04477 0.134371 0
M  V30 5849 H 539.088 -3.10507 -0.361155 0
M  V30 5850 H 538.308 -3.32681 2.11463 0
M  V30 5851 H 539.596 -4.52656 2.32336 0
M  V30 5852 H 538.994 -5.6178 -0.664806 0
M  V30 5853 H 537.551 -6.50674 -0.382981 0
M  V30 5854 N 540.985 -1.06182 -1.16461 0
M  V30 5855 C 542.213 -0.798583 -1.90867 0
M  V30 5856 C 542.628 0.646921 -1.77371 0
M  V30 5857 O 541.985 1.44279 -1.11758 0
M  V30 5858 C 542.036 -1.18258 -3.4161 0
M  V30 5859 O 541.757 -2.57135 -3.54701 0
M  V30 5860 C 543.258 -0.946917 -4.33069 0
M  V30 5861 H 540.478 -0.289603 -0.605286 0
M  V30 5862 H 543.022 -1.41515 -1.47627 0
M  V30 5863 H 541.177 -0.610562 -3.82558 0
M  V30 5864 H 541.591 -2.72477 -4.4817 0
M  V30 5865 H 543.065 -1.26523 -5.37304 0
M  V30 5866 H 543.542 0.117406 -4.39043 0
M  V30 5867 H 544.148 -1.50326 -3.97847 0
M  V30 5868 N 542.463 1.3308 -0.844243 0
M  V30 5869 C 543.688 2.02341 -0.455282 0
M  V30 5870 C 544.113 1.6308 0.93737 0
M  V30 5871 O 543.471 0.826118 1.61385 0
M  V30 5872 C 543.519 3.55743 -0.58988 0
M  V30 5873 O 542.623 4.1063 0.38166 0
M  V30 5874 H 541.964 0.637898 -0.184343 0
M  V30 5875 H 544.494 1.6986 -1.14056 0
M  V30 5876 H 544.504 4.05243 -0.473522 0
M  V30 5877 H 543.179 3.83662 -1.60549 0
M  V30 5878 H 541.756 3.72236 0.22241 0
M  V30 5879 N 543.941 0.601185 1.45683 0
M  V30 5880 C 545.19 0.0914953 2.01492 0
M  V30 5881 C 545.503 -1.28331 1.47616 0
M  V30 5882 O 546.709 -1.88537 1.95362 0
M  V30 5883 C 545.165 0.11291 3.59723 0
M  V30 5884 C 544.773 1.48717 4.22596 0
M  V30 5885 C 546.517 -0.341871 4.23121 0
M  V30 5886 C 544.424 1.46531 5.7296 0
M  V30 5887 H 543.354 0.0304365 0.753385 0
M  V30 5888 H 546.005 0.755568 1.67223 0
M  V30 5889 H 544.387 -0.617692 3.91153 0
M  V30 5890 H 545.561 2.23897 4.02749 0
M  V30 5891 H 543.876 1.88351 3.71366 0
M  V30 5892 H 546.473 -0.377304 5.33367 0
M  V30 5893 H 546.816 -1.36325 3.93346 0
M  V30 5894 H 547.349 0.335256 3.96385 0
M  V30 5895 H 544.088 2.46408 6.07423 0
M  V30 5896 H 543.608 0.755997 5.95017 0
M  V30 5897 H 545.287 1.18618 6.36034 0
M  V30 5898 O 545.458 -1.54135 0.48216 0
M  V30 5899 H 546.149 -1.93658 -0.0403371 0
M  V30 END ATOM
M  V30 BEGIN BOND
M  V30 END BOND
M  V30 END CTAB
M  END
$$$$
