drugbank_target|P30988 Calcitonin receptor (DB00017; DB01278)
 OpenBabel12092119313D

  0  0  0     0  0            999 V3000
M  V30 BEGIN CTAB
M  V30 COUNTS 8349 8480 0 0 0
M  V30 BEGIN ATOM
M  V30 1 H -0.908 1.98254 -0.117106 0
M  V30 2 N 0 1.576 0 0
M  V30 3 C 0.933 2.03868 1.02534 0
M  V30 4 C 1.911 0.928543 1.3348 0
M  V30 5 O 3.095 1.19667 1.45644 0
M  V30 6 C 0.222 2.43627 2.35294 0
M  V30 7 C -0.732 3.65373 2.2001 0
M  V30 8 S 0.101 5.13292 1.52614 0
M  V30 9 C 1.257 5.56322 2.86805 0
M  V30 10 H 1.49 2.90518 0.631377 0
M  V30 11 H -0.977 1.52953 0.210867 0
M  V30 12 H 0.981 2.67203 3.11629 0
M  V30 13 H -0.358 1.57376 2.7183 0
M  V30 14 H -1.165 3.90944 3.18086 0
M  V30 15 H -1.563 3.418 1.51819 0
M  V30 16 H 0.729 5.58782 3.83104 0
M  V30 17 H 1.672 6.56266 2.65933 0
M  V30 18 H 2.08 4.83886 2.90714 0
M  V30 19 N 1.4781 -0.272755 1.55222 0
M  V30 20 C 2.4101 -1.35946 1.8453 0
M  V30 21 C 3.4231 -1.45525 0.729818 0
M  V30 22 O 4.6121 -1.47337 1.00767 0
M  V30 23 C 1.7121 -2.74069 1.99347 0
M  V30 24 C 0.8851 -2.87079 3.30007 0
M  V30 25 C -0.0559 -4.05879 3.34886 0
M  V30 26 O -1.0299 -3.96626 4.08261 0
M  V30 27 N 0.1721 -5.17857 2.62307 0
M  V30 28 H 2.9371 -1.11149 2.78327 0
M  V30 29 H 0.4981 -0.462869 1.55142 0
M  V30 30 H 2.4901 -3.51838 1.99981 0
M  V30 31 H 1.0601 -2.91688 1.12415 0
M  V30 32 H 0.2801 -1.96193 3.41909 0
M  V30 33 H 1.5681 -2.92701 4.16177 0
M  V30 34 H 0.9661 -5.28261 2.02377 0
M  V30 35 H -0.4769 -5.93855 2.68663 0
M  V30 36 N 2.9562 -1.48159 -0.537278 0
M  V30 37 C 4.2032 -1.55804 -1.29349 0
M  V30 38 C 4.5312 -0.228802 -1.9315 0
M  V30 39 O 3.7862 0.780242 -1.79473 0
M  V30 40 C 4.0852 -2.63956 -2.40961 0
M  V30 41 C 3.7512 -4.0662 -1.94861 0
M  V30 42 C 2.4132 -4.45452 -1.82006 0
M  V30 43 C 4.7652 -4.96055 -1.59933 0
M  V30 44 C 2.0932 -5.71531 -1.32547 0
M  V30 45 C 4.4452 -6.22617 -1.11939 0
M  V30 46 C 3.1092 -6.60312 -0.976951 0
M  V30 47 H 2.3792 -0.570129 -0.473322 0
M  V30 48 H 5.0262 -1.81845 -0.600372 0
M  V30 49 H 3.3312 -2.31747 -3.15912 0
M  V30 50 H 5.0282 -2.67089 -2.99107 0
M  V30 51 H 1.6182 -3.75949 -2.05815 0
M  V30 52 H 5.8022 -4.66738 -1.68728 0
M  V30 53 H 1.0582 -5.99468 -1.202 0
M  V30 54 H 5.2322 -6.91318 -0.839811 0
M  V30 55 H 2.8592 -7.57895 -0.591501 0
M  V30 56 N 4.4343 0.785586 -1.36625 0
M  V30 57 C 5.6593 1.57963 -1.34397 0
M  V30 58 C 6.0843 1.87964 0.071526 0
M  V30 59 O 5.4423 1.48182 1.0446 0
M  V30 60 C 5.4903 2.87511 -2.17646 0
M  V30 61 O 4.5943 3.81281 -1.57158 0
M  V30 62 H 3.9353 0.479014 -0.459828 0
M  V30 63 H 6.4653 0.973411 -1.79961 0
M  V30 64 H 6.4753 3.36745 -2.30362 0
M  V30 65 H 5.1503 2.65002 -3.20541 0
M  V30 66 H 3.7273 3.39885 -1.53403 0
M  V30 67 N 5.9124 1.20967 1.01018 0
M  V30 68 C 7.1604 1.02172 1.74371 0
M  V30 69 C 7.4814 -0.446414 1.89821 0
M  V30 70 O 6.7514 -1.32234 1.44537 0
M  V30 71 H 5.3314 0.375066 0.646014 0
M  V30 72 H 7.9934 1.52187 1.21758 0
M  V30 73 H 7.0894 1.48538 2.74487 0
M  V30 74 N 7.3905 -1.2043 1.01659 0
M  V30 75 C 8.3005 -2.2689 0.596484 0
M  V30 76 C 9.3165 -1.70107 -0.36599 0
M  V30 77 O 10.4925 -2.00117 -0.226942 0
M  V30 78 C 7.5575 -3.4665 -0.0586659 0
M  V30 79 C 6.6185 -4.18662 0.949751 0
M  V30 80 C 5.8515 -5.32705 0.32577 0
M  V30 81 O 6.0745 -5.63656 -0.874509 0
M  V30 82 O 5.0085 -5.92803 1.04249 0
M  V30 83 H 8.8345 -2.65041 1.4828 0
M  V30 84 H 6.4195 -1.27048 0.786082 0
M  V30 85 H 8.3015 -4.19256 -0.424564 0
M  V30 86 H 6.9765 -3.10375 -0.91918 0
M  V30 87 H 5.8835 -3.48229 1.36702 0
M  V30 88 H 7.2165 -4.58878 1.78023 0
M  V30 89 N 8.8686 -0.792821 -1.36206 0
M  V30 90 C 9.8156 -0.191653 -2.30003 0
M  V30 91 C 10.7856 0.666453 -1.52143 0
M  V30 92 O 11.9706 0.61442 -1.80636 0
M  V30 93 C 9.1106 0.664848 -3.38635 0
M  V30 94 C 8.2236 -0.212175 -4.31479 0
M  V30 95 C 7.3586 0.651022 -5.27196 0
M  V30 96 C 6.3976 -0.227247 -6.11678 0
M  V30 97 N 5.5346 0.595127 -6.99573 0
M  V30 98 H 10.3746 -0.996978 -2.80828 0
M  V30 99 H 7.9116 -0.503206 -1.38225 0
M  V30 100 H 9.8696 1.17645 -4.00269 0
M  V30 101 H 8.4996 1.43557 -2.89122 0
M  V30 102 H 7.5516 -0.841777 -3.70969 0
M  V30 103 H 8.8636 -0.888751 -4.90818 0
M  V30 104 H 8.0176 1.2283 -5.94136 0
M  V30 105 H 6.7566 1.36121 -4.68319 0
M  V30 106 H 5.7616 -0.816904 -5.43697 0
M  V30 107 H 6.9866 -0.93509 -6.72631 0
M  V30 108 H 4.9326 1.28955 -6.432 0
M  V30 109 H 4.8496 -0.0236952 -7.55996 0
M  V30 110 H 6.1176 1.15613 -7.70879 0
M  V30 111 N 10.3467 1.47872 -0.545128 0
M  V30 112 C 11.5957 2.01695 -0.0145033 0
M  V30 113 C 11.9087 1.42609 1.33873 0
M  V30 114 O 13.1147 1.88021 1.95858 0
M  V30 115 C 11.5707 3.59892 0.0245068 0
M  V30 116 C 11.1787 4.27966 -1.32475 0
M  V30 117 C 12.9227 4.21507 0.50316 0
M  V30 118 C 10.8297 5.78136 -1.2455 0
M  V30 119 H 9.7597 0.753998 -0.00165172 0
M  V30 120 H 12.4107 1.69985 -0.691175 0
M  V30 121 H 10.7927 3.88509 0.766575 0
M  V30 122 H 11.9667 4.11003 -2.08357 0
M  V30 123 H 10.2817 3.78286 -1.74036 0
M  V30 124 H 12.8787 5.31538 0.580656 0
M  V30 125 H 13.2217 3.87855 1.51243 0
M  V30 126 H 13.7547 3.97376 -0.183681 0
M  V30 127 H 10.4937 6.16388 -2.23039 0
M  V30 128 H 10.0137 5.97469 -0.528282 0
M  V30 129 H 11.6927 6.40099 -0.942488 0
M  V30 130 N 11.8248 0.280983 1.55075 0
M  V30 131 C 13.0498 -0.340154 2.04592 0
M  V30 132 C 13.4748 -1.48246 1.15779 0
M  V30 133 O 12.8328 -1.80614 0.15761 0
M  V30 134 C 12.8808 -0.793104 3.5177 0
M  V30 135 O 11.9848 -1.89981 3.66034 0
M  V30 136 H 11.3258 -0.0694289 0.66036 0
M  V30 137 H 13.8558 0.416993 2.00306 0
M  V30 138 H 13.8658 -1.08729 3.93245 0
M  V30 139 H 12.5408 0.0426163 4.15878 0
M  V30 140 H 11.1178 -1.60771 3.36463 0
M  V30 141 N 13.3029 -1.57598 0.00835791 0
M  V30 142 C 14.5509 -1.90551 -0.6734 0
M  V30 143 C 14.8719 -0.883301 -1.73847 0
M  V30 144 O 14.1419 0.0781442 -1.95744 0
M  V30 145 H 12.7219 -0.703312 -0.251717 0
M  V30 146 H 15.3839 -1.94833 0.0512592 0
M  V30 147 H 14.4799 -2.9056 -1.13935 0
M  V30 148 N 14.781 0.264519 -1.55364 0
M  V30 149 C 15.713 1.34965 -1.85248 0
M  V30 150 C 16.726 1.45136 -0.737525 0
M  V30 151 O 17.915 1.46801 -1.01547 0
M  V30 152 C 15.015 2.73008 -2.00797 0
M  V30 153 C 14.188 2.85324 -3.31525 0
M  V30 154 C 13.247 4.04097 -3.37034 0
M  V30 155 O 12.273 3.94455 -4.10358 0
M  V30 156 N 13.475 5.16458 -2.65049 0
M  V30 157 H 16.24 1.09672 -2.78913 0
M  V30 158 H 13.801 0.454635 -1.55386 0
M  V30 159 H 15.793 3.50772 -2.01844 0
M  V30 160 H 14.363 2.91087 -1.1396 0
M  V30 161 H 13.583 1.94377 -3.42945 0
M  V30 162 H 14.871 2.9049 -4.17724 0
M  V30 163 H 14.269 5.27181 -2.05175 0
M  V30 164 H 12.826 5.92422 -2.71809 0
M  V30 165 N 16.2591 1.48442 0.529413 0
M  V30 166 C 17.6751 1.34575 0.858004 0
M  V30 167 C 17.8751 0.3572 1.98309 0
M  V30 168 O 16.9311 -0.221379 2.51528 0
M  V30 169 C 18.2441 2.74617 1.22499 0
M  V30 170 C 19.7921 2.83109 1.33484 0
M  V30 171 C 20.2671 4.23854 1.73526 0
M  V30 172 N 21.7581 4.2653 1.80628 0
M  V30 173 C 22.4931 5.32372 2.12997 0
M  V30 174 N 21.9891 6.48491 2.43786 0
M  V30 175 N 23.7821 5.19766 2.14008 0
M  V30 176 H 15.9331 2.1133 -0.212925 0
M  V30 177 H 18.1961 0.947439 -0.0326199 0
M  V30 178 H 17.9021 3.4852 0.471905 0
M  V30 179 H 17.7761 3.08177 2.17501 0
M  V30 180 H 20.1631 2.09462 2.0787 0
M  V30 181 H 20.2441 2.53168 0.366027 0
M  V30 182 H 19.8881 4.98018 0.997013 0
M  V30 183 H 19.8181 4.5124 2.71459 0
M  V30 184 H 22.3091 3.42772 1.59108 0
M  V30 185 H 22.6221 7.24993 2.67592 0
M  V30 186 H 20.9671 6.51765 2.41304 0
M  V30 187 H 24.1581 4.28066 1.89412 0
M  V30 188 H 24.3311 6.02354 2.38902 0
M  V30 189 N 17.7372 -0.778329 1.37039 0
M  V30 190 C 19.0142 -1.52551 1.22424 0
M  V30 191 C 19.3942 -2.10288 -0.184964 0
M  V30 192 O 18.7422 -1.94953 -1.19187 0
M  V30 193 C 18.9522 -2.61164 2.31504 0
M  V30 194 C 20.3002 -3.28746 2.68721 0
M  V30 195 O 21.3242 -2.71455 2.30631 0
M  V30 196 O 20.1832 -4.3231 3.3432 0
M  V30 197 H 17.2772 -0.675343 0.477326 0
M  V30 198 H 19.8232 -0.815859 1.48801 0
M  V30 199 H 18.5952 -2.16574 3.25901 0
M  V30 200 H 18.2182 -3.39737 2.06554 0
M  V30 201 N 19.2153 -1.21501 -1.00376 0
M  V30 202 C 20.1453 -0.999478 -2.11028 0
M  V30 203 C 21.1263 0.0759671 -1.6993 0
M  V30 204 O 22.3113 -0.0841106 -1.94018 0
M  V30 205 C 19.4413 -0.564709 -3.42678 0
M  V30 206 C 18.3953 -1.58486 -3.97576 0
M  V30 207 C 17.7213 -1.00628 -5.25146 0
M  V30 208 C 19.0213 -2.97204 -4.29496 0
M  V30 209 H 20.7153 -1.92495 -2.29317 0
M  V30 210 H 18.2613 -0.92693 -1.102 0
M  V30 211 H 20.2143 -0.401091 -4.19487 0
M  V30 212 H 18.9383 0.396411 -3.24185 0
M  V30 213 H 17.5973 -1.73606 -3.22888 0
M  V30 214 H 17.2453 -0.0368439 -5.02987 0
M  V30 215 H 16.9453 -1.68771 -5.62841 0
M  V30 216 H 18.4693 -0.854015 -6.04598 0
M  V30 217 H 19.8833 -2.8552 -4.97143 0
M  V30 218 H 18.2803 -3.62372 -4.78338 0
M  V30 219 H 19.3503 -3.47956 -3.3772 0
M  V30 220 N 20.6934 1.19889 -1.02296 0
M  V30 221 C 21.6254 2.22334 -0.556787 0
M  V30 222 C 22.6384 1.58674 0.364199 0
M  V30 223 O 23.8274 1.77768 0.161533 0
M  V30 224 C 20.9274 3.38257 0.208694 0
M  V30 225 C 20.1004 4.31504 -0.71577 0
M  V30 226 C 19.1594 5.262 0.00325597 0
M  V30 227 O 18.1854 5.65798 -0.621357 0
M  V30 228 N 19.3874 5.66303 1.27599 0
M  V30 229 H 22.1524 2.62957 -1.43784 0
M  V30 230 H 19.7134 1.34495 -0.901261 0
M  V30 231 H 21.7054 3.98616 0.699111 0
M  V30 232 H 20.2754 2.96472 0.991102 0
M  V30 233 H 19.4954 3.69016 -1.38638 0
M  V30 234 H 20.7834 4.9072 -1.34428 0
M  V30 235 H 20.1814 5.36155 1.80429 0
M  V30 236 H 18.7384 6.28942 1.71102 0
M  V30 237 N 22.1715 0.800033 1.35784 0
M  V30 238 C 23.1185 0.203848 2.29898 0
M  V30 239 C 24.0885 -0.658375 1.52495 0
M  V30 240 O 25.2735 -0.604832 1.8096 0
M  V30 241 C 22.4135 -0.64688 3.38983 0
M  V30 242 C 21.5265 0.235054 4.3136 0
M  V30 243 C 20.6615 -0.623054 5.27533 0
M  V30 244 C 19.7005 0.259682 6.11549 0
M  V30 245 N 18.8375 -0.558019 6.99879 0
M  V30 246 H 23.6775 1.01186 2.80295 0
M  V30 247 H 21.2145 0.51053 1.37957 0
M  V30 248 H 23.1725 -1.15521 4.00887 0
M  V30 249 H 21.8025 -1.42021 2.89879 0
M  V30 250 H 20.8545 0.861438 3.70518 0
M  V30 251 H 22.1665 0.914768 4.9034 0
M  V30 252 H 21.3205 -1.19678 5.94779 0
M  V30 253 H 20.0595 -1.33636 4.69034 0
M  V30 254 H 19.0645 0.845726 5.43256 0
M  V30 255 H 20.2895 0.970748 6.72126 0
M  V30 256 H 18.2355 -1.25542 6.43875 0
M  V30 257 H 18.1525 0.0637872 7.55973 0
M  V30 258 H 19.4205 -1.11523 7.71481 0
M  V30 259 N 23.6496 -1.47581 0.552962 0
M  V30 260 C 24.8746 -2.07378 0.0300593 0
M  V30 261 C 25.2996 -1.40355 -1.25229 0
M  V30 262 O 24.6576 -0.477099 -1.7491 0
M  V30 263 C 24.7056 -3.60274 -0.153231 0
M  V30 264 O 23.8096 -3.94041 -1.21678 0
M  V30 265 H 23.1506 -0.662158 0.0494182 0
M  V30 266 H 25.6806 -1.89662 0.767434 0
M  V30 267 H 25.6906 -4.0633 -0.368761 0
M  V30 268 H 24.3656 -4.08455 0.783397 0
M  V30 269 H 22.9426 -3.59735 -0.982079 0
M  V30 270 N 25.1277 -0.289203 -1.54924 0
M  V30 271 C 26.0747 0.592115 -2.23075 0
M  V30 272 C 27.0447 1.13881 -1.20915 0
M  V30 273 O 28.2297 1.18551 -1.495 0
M  V30 274 C 25.3697 1.76376 -2.96623 0
M  V30 275 C 24.4827 1.24959 -4.13533 0
M  V30 276 C 23.6177 2.38416 -4.74691 0
M  V30 277 C 22.6567 1.84072 -5.83767 0
M  V30 278 N 21.7937 2.91057 -6.38929 0
M  V30 279 H 26.6337 0.00432038 -2.98 0
M  V30 280 H 24.1707 -0.00963529 -1.47097 0
M  V30 281 H 26.1287 2.45268 -3.3749 0
M  V30 282 H 24.7587 2.32337 -2.24097 0
M  V30 283 H 23.8107 0.453307 -3.77689 0
M  V30 284 H 25.1227 0.811662 -4.92152 0
M  V30 285 H 24.2767 3.15276 -5.18349 0
M  V30 286 H 23.0157 2.8553 -3.95378 0
M  V30 287 H 22.0207 1.05697 -5.39545 0
M  V30 288 H 23.2457 1.37877 -6.64956 0
M  V30 289 H 21.1917 3.37526 -5.62505 0
M  V30 290 H 21.1087 2.51724 -7.12861 0
M  V30 291 H 22.3767 3.6785 -6.87246 0
M  V30 292 N 26.6058 1.57591 -0.0167156 0
M  V30 293 C 27.5388 2.04944 1.00366 0
M  V30 294 C 28.5168 0.942648 1.32487 0
M  V30 295 O 29.7008 1.21205 1.44367 0
M  V30 296 C 26.8278 2.46109 2.32697 0
M  V30 297 C 25.8738 3.67686 2.16123 0
M  V30 298 S 26.7068 5.14882 1.47161 0
M  V30 299 C 27.8628 5.59332 2.80888 0
M  V30 300 H 28.0958 2.91172 0.600528 0
M  V30 301 H 25.6288 1.53168 0.194632 0
M  V30 302 H 27.5868 2.70493 3.08778 0
M  V30 303 H 26.2478 1.6025 2.70146 0
M  V30 304 H 25.4408 3.94296 3.13922 0
M  V30 305 H 25.0428 3.43391 1.48185 0
M  V30 306 H 27.3348 5.62814 3.77156 0
M  V30 307 H 28.2778 6.5905 2.58958 0
M  V30 308 H 28.6858 4.86942 2.85565 0
M  V30 309 N 28.0839 -0.256276 1.55502 0
M  V30 310 C 29.4999 -0.604325 1.47716 0
M  V30 311 C 29.6999 -1.88763 0.705039 0
M  V30 312 O 28.7559 -2.51445 0.230613 0
M  V30 313 C 30.0689 -0.715756 2.92057 0
M  V30 314 C 31.6169 -0.808706 3.02372 0
M  V30 315 C 32.0919 -0.951777 4.48001 0
M  V30 316 N 33.5829 -1.01688 4.519 0
M  V30 317 C 34.3179 -1.14668 5.61817 0
M  V30 318 N 33.8139 -1.24261 6.81565 0
M  V30 319 N 35.6069 -1.1791 5.49594 0
M  V30 320 H 27.7579 0.586291 2.04148 0
M  V30 321 H 30.0209 0.201015 0.926443 0
M  V30 322 H 29.7269 0.157027 3.51349 0
M  V30 323 H 29.6009 -1.59071 3.42018 0
M  V30 324 H 31.9879 -1.67195 2.43166 0
M  V30 325 H 32.0689 0.0912063 2.55637 0
M  V30 326 H 31.7129 -0.0931291 5.07815 0
M  V30 327 H 31.6429 -1.86659 4.92408 0
M  V30 328 H 34.1339 -0.954468 3.65648 0
M  V30 329 H 34.4469 -1.34046 7.61086 0
M  V30 330 H 32.7919 -1.21236 6.84344 0
M  V30 331 H 35.9829 -1.10057 4.54978 0
M  V30 332 H 36.1559 -1.27681 6.35296 0
M  V30 333 N 29.562 -1.4872 -0.521534 0
M  V30 334 C 30.809 -1.57168 -1.27689 0
M  V30 335 C 31.137 -0.249275 -1.92896 0
M  V30 336 O 30.392 0.761162 -1.80291 0
M  V30 337 C 30.691 -2.66497 -2.38148 0
M  V30 338 C 30.357 -4.08664 -1.90538 0
M  V30 339 C 29.019 -4.47357 -1.77271 0
M  V30 340 C 31.371 -4.97724 -1.54663 0
M  V30 341 C 28.699 -5.72905 -1.26478 0
M  V30 342 C 31.051 -6.2377 -1.05329 0
M  V30 343 C 29.715 -6.61311 -0.906861 0
M  V30 344 H 28.985 -0.575117 -0.467249 0
M  V30 345 H 31.632 -1.82472 -0.581051 0
M  V30 346 H 29.937 -2.35085 -3.13437 0
M  V30 347 H 31.634 -2.70246 -2.96257 0
M  V30 348 H 28.224 -3.78111 -2.01816 0
M  V30 349 H 32.408 -4.68501 -1.63768 0
M  V30 350 H 27.664 -6.00709 -1.13835 0
M  V30 351 H 31.838 -6.9217 -0.76644 0
M  V30 352 H 29.465 -7.5848 -0.511083 0
M  V30 353 N 31.0401 0.771051 -1.3745 0
M  V30 354 C 32.2681 1.56015 -1.35893 0
M  V30 355 C 32.6831 1.88718 0.0555523 0
M  V30 356 O 32.0401 1.51502 1.01752 0
M  V30 357 C 32.0911 2.87001 -2.19801 0
M  V30 358 O 31.8121 2.557 -3.55738 0
M  V30 359 C 33.3131 3.81228 -2.26231 0
M  V30 360 H 30.5331 0.483317 -0.465453 0
M  V30 361 H 33.0771 0.955611 -1.80799 0
M  V30 362 H 31.2321 3.43877 -1.78402 0
M  V30 363 H 31.6461 3.39584 -3.99729 0
M  V30 364 H 33.1201 4.70139 -2.89263 0
M  V30 365 H 33.5971 4.20409 -1.27093 0
M  V30 366 H 34.2031 3.30281 -2.67945 0
M  V30 367 N 32.5182 1.22032 0.997298 0
M  V30 368 C 33.7652 1.04222 1.73621 0
M  V30 369 C 34.0932 -0.423264 1.89839 0
M  V30 370 O 33.3482 -1.3302 1.43542 0
M  V30 371 C 33.6472 1.69345 3.14733 0
M  V30 372 C 33.3132 3.19226 3.18442 0
M  V30 373 C 31.9752 3.60124 3.19161 0
M  V30 374 C 34.3272 4.15181 3.15078 0
M  V30 375 C 31.6552 4.95467 3.14212 0
M  V30 376 C 34.0072 5.50495 3.1167 0
M  V30 377 C 32.6712 5.90779 3.10703 0
M  V30 378 H 31.9412 0.381374 0.635323 0
M  V30 379 H 34.5882 1.51732 1.16831 0
M  V30 380 H 32.8932 1.14147 3.74803 0
M  V30 381 H 34.5902 1.53059 3.7064 0
M  V30 382 H 31.1802 2.86659 3.18629 0
M  V30 383 H 35.3642 3.84605 3.13676 0
M  V30 384 H 30.6202 5.25916 3.11805 0
M  V30 385 H 34.7942 6.24576 3.08022 0
M  V30 386 H 32.4212 6.9562 3.06622 0
M  V30 387 N 33.9963 -1.19345 1.0293 0
M  V30 388 C 35.2243 -1.92997 0.745644 0
M  V30 389 C 35.6393 -1.75519 -0.695589 0
M  V30 390 O 34.9963 -1.07737 -1.47306 0
M  V30 391 C 35.0473 -3.44741 1.08792 0
M  V30 392 O 34.7683 -3.61658 2.47256 0
M  V30 393 C 36.2693 -4.35515 0.827129 0
M  V30 394 H 33.4893 -0.613042 0.272801 0
M  V30 395 H 36.0333 -1.51473 1.3739 0
M  V30 396 H 34.1883 -3.84097 0.504832 0
M  V30 397 H 34.6023 -4.55514 2.60015 0
M  V30 398 H 36.0763 -5.40589 1.11658 0
M  V30 399 H 36.5533 -4.38552 -0.238436 0
M  V30 400 H 37.1593 -4.01841 1.39297 0
M  V30 401 N 35.4744 -0.807222 -1.35358 0
M  V30 402 C 36.6994 -0.399309 -2.0352 0
M  V30 403 C 37.1244 0.981986 -1.60433 0
M  V30 404 O 36.4824 1.63601 -0.781299 0
M  V30 405 C 36.5304 -0.491552 -3.57234 0
M  V30 406 O 35.6344 0.494754 -4.09421 0
M  V30 407 H 34.9754 -0.166682 -0.642739 0
M  V30 408 H 37.5054 -1.09328 -1.72941 0
M  V30 409 H 37.5154 -0.361588 -4.06395 0
M  V30 410 H 36.1904 -1.49907 -3.87944 0
M  V30 411 H 34.7674 0.324977 -3.71481 0
M  V30 412 N 36.9525 1.47285 -0.560781 0
M  V30 413 C 38.3685 1.58065 -0.22081 0
M  V30 414 C 38.5685 1.55892 1.27671 0
M  V30 415 O 37.6245 1.46422 2.0571 0
M  V30 416 C 38.9375 2.88418 -0.850625 0
M  V30 417 C 40.4855 3.02009 -0.822184 0
M  V30 418 C 40.9605 4.35066 -1.43113 0
M  V30 419 N 42.4515 4.41711 -1.39448 0
M  V30 420 C 43.1865 5.43237 -1.83525 0
M  V30 421 N 42.6825 6.51555 -2.35474 0
M  V30 422 N 44.4755 5.34304 -1.74574 0
M  V30 423 H 36.6265 1.46941 -1.53369 0
M  V30 424 H 38.8895 0.699558 -0.639783 0
M  V30 425 H 38.5955 2.95755 -1.9032 0
M  V30 426 H 38.4695 3.75612 -0.345773 0
M  V30 427 H 40.8565 2.94266 0.221714 0
M  V30 428 H 40.9375 2.16347 -1.36483 0
M  V30 429 H 40.5815 4.43565 -2.47412 0
M  V30 430 H 40.5115 5.19465 -0.863899 0
M  V30 431 H 43.0025 3.64027 -1.01452 0
M  V30 432 H 43.3155 7.25203 -2.67021 0
M  V30 433 H 41.6605 6.52435 -2.39487 0
M  V30 434 H 44.8515 4.48581 -1.33763 0
M  V30 435 H 45.0245 6.13288 -2.09242 0
M  V30 436 N 38.4306 0.297415 1.54768 0
M  V30 437 C 39.6706 -0.313829 2.01976 0
M  V30 438 C 40.0346 -1.51366 1.1812 0
M  V30 439 O 41.2356 -2.19603 1.5501 0
M  V30 440 C 39.5066 -0.664964 3.51159 0
M  V30 441 S 41.0656 -1.25958 4.20333 0
M  V30 442 H 37.8836 -0.0965014 0.704421 0
M  V30 443 H 40.4856 0.424451 1.90837 0
M  V30 444 H 39.1896 0.21681 4.09827 0
M  V30 445 H 38.7206 -1.43413 3.66328 0
M  V30 446 H 40.7356 -2.54751 4.25813 0
M  V30 447 N 39.9087 -1.5758 0.0250728 0
M  V30 448 C 40.8387 -2.13007 -0.956575 0
M  V30 449 C 41.8197 -1.0452 -1.342 0
M  V30 450 O 43.0047 -1.32332 -1.42133 0
M  V30 451 C 40.1347 -2.65386 -2.24026 0
M  V30 452 C 39.0887 -3.78623 -1.99571 0
M  V30 453 C 38.4147 -4.17414 -3.3417 0
M  V30 454 C 39.7147 -5.04867 -1.33814 0
M  V30 455 H 41.4087 -2.9528 -0.494991 0
M  V30 456 H 38.9547 -1.42042 -0.236651 0
M  V30 457 H 40.9077 -3.02794 -2.93076 0
M  V30 458 H 39.6317 -1.80268 -2.72343 0
M  V30 459 H 38.2907 -3.41646 -1.32941 0
M  V30 460 H 37.9387 -3.29284 -3.80238 0
M  V30 461 H 37.6387 -4.93719 -3.18615 0
M  V30 462 H 39.1627 -4.57402 -4.04495 0
M  V30 463 H 40.5767 -5.39888 -1.92857 0
M  V30 464 H 38.9737 -5.86144 -1.28669 0
M  V30 465 H 40.0437 -4.83904 -0.310561 0
M  V30 466 N 41.3868 0.248026 -1.55636 0
M  V30 467 C 42.3498 1.29044 -1.89421 0
M  V30 468 C 43.3498 1.41134 -0.770581 0
M  V30 469 O 44.5398 1.39854 -1.03858 0
M  V30 470 C 41.6718 2.66831 -2.12165 0
M  V30 471 H 42.8648 1.00305 -2.82629 0
M  V30 472 H 40.4178 0.487265 -1.48511 0
M  V30 473 H 41.1528 3.00711 -1.21422 0
M  V30 474 H 40.9378 2.59438 -2.93997 0
M  V30 475 H 42.4278 3.42103 -2.3949 0
M  V30 476 N 42.8649 1.48995 0.513639 0
M  V30 477 C 43.7949 1.67636 1.62544 0
M  V30 478 C 44.7759 0.525087 1.61793 0
M  V30 479 O 45.9609 0.759502 1.78732 0
M  V30 480 C 43.0909 1.73114 3.01079 0
M  V30 481 C 42.0449 2.87905 3.16693 0
M  V30 482 C 41.3709 2.78486 4.56453 0
M  V30 483 C 42.6709 4.29005 2.97913 0
M  V30 484 H 44.3649 2.60716 1.47198 0
M  V30 485 H 41.9109 1.25465 0.706714 0
M  V30 486 H 43.8639 1.84742 3.78746 0
M  V30 487 H 42.5879 0.766241 3.17484 0
M  V30 488 H 41.2469 2.75859 2.41448 0
M  V30 489 H 40.8949 1.7993 4.69717 0
M  V30 490 H 40.5949 3.55523 4.67843 0
M  V30 491 H 42.1189 2.92104 5.36197 0
M  V30 492 H 43.5329 4.41798 3.65359 0
M  V30 493 H 41.9299 5.07166 3.20785 0
M  V30 494 H 42.9999 4.44329 1.94165 0
M  V30 495 N 44.343 -0.763751 1.37857 0
M  V30 496 C 45.59 -1.52257 1.33506 0
M  V30 497 C 45.918 -1.94343 -0.078022 0
M  V30 498 O 45.173 -1.64958 -1.05297 0
M  V30 499 C 45.472 -2.79499 2.22745 0
M  V30 500 C 45.138 -2.56426 3.70886 0
M  V30 501 C 43.8 -2.49842 4.11257 0
M  V30 502 C 46.152 -2.36008 4.64704 0
M  V30 503 C 43.48 -2.20841 5.43549 0
M  V30 504 C 45.832 -2.0853 5.97242 0
M  V30 505 C 44.496 -2.00396 6.36709 0
M  V30 506 H 43.766 -0.557149 0.488534 0
M  V30 507 H 46.413 -0.879073 1.70131 0
M  V30 508 H 44.718 -3.48447 1.79142 0
M  V30 509 H 46.415 -3.37413 2.16688 0
M  V30 510 H 43.005 -2.62416 3.38874 0
M  V30 511 H 47.189 -2.40079 4.34368 0
M  V30 512 H 42.445 -2.13045 5.73081 0
M  V30 513 H 46.619 -1.91732 6.69486 0
M  V30 514 H 44.246 -1.77688 7.39142 0
M  V30 515 N 45.8211 -1.22559 -0.990812 0
M  V30 516 C 46.7511 -1.0218 -2.09956 0
M  V30 517 C 47.7321 0.0579394 -1.70001 0
M  V30 518 O 48.9171 -0.104684 -1.93918 0
M  V30 519 C 46.0471 -0.601023 -3.4206 0
M  V30 520 C 45.0011 -1.62694 -3.95872 0
M  V30 521 C 44.3271 -1.06193 -5.24049 0
M  V30 522 C 45.6271 -3.01743 -4.2632 0
M  V30 523 H 47.3211 -1.94916 -2.27262 0
M  V30 524 H 44.8671 -0.938566 -1.09211 0
M  V30 525 H 46.8201 -0.445561 -4.19038 0
M  V30 526 H 45.5441 0.362005 -3.24588 0
M  V30 527 H 44.2031 -1.77021 -3.21028 0
M  V30 528 H 43.8511 -0.0901903 -5.02919 0
M  V30 529 H 43.5511 -1.74732 -5.61019 0
M  V30 530 H 45.0751 -0.918092 -6.03658 0
M  V30 531 H 46.4891 -2.90777 -4.94087 0
M  V30 532 H 44.8861 -3.67425 -4.74467 0
M  V30 533 H 45.9561 -3.51518 -3.34011 0
M  V30 534 N 47.2992 1.18797 -1.03562 0
M  V30 535 C 48.2292 2.24472 -0.643019 0
M  V30 536 C 49.2102 1.66433 0.351283 0
M  V30 537 O 50.3952 1.92803 0.232505 0
M  V30 538 C 47.5252 3.473 4.24935e-05 0
M  V30 539 C 46.4792 4.18055 -0.917257 0
M  V30 540 C 45.8052 5.34519 -0.138941 0
M  V30 541 C 47.1052 4.72109 -2.23407 0
M  V30 542 H 48.7992 2.57566 -1.52643 0
M  V30 543 H 46.3452 1.23806 -0.735394 0
M  V30 544 H 48.2982 4.20426 0.286383 0
M  V30 545 H 47.0222 3.13424 0.918299 0
M  V30 546 H 45.6812 3.46821 -1.1879 0
M  V30 547 H 45.3292 4.96891 0.781562 0
M  V30 548 H 45.0292 5.82794 -0.750005 0
M  V30 549 H 46.5532 6.10438 0.1405 0
M  V30 550 H 47.9672 5.36955 -2.00879 0
M  V30 551 H 46.3642 5.30897 -2.79765 0
M  V30 552 H 47.4342 3.89807 -2.88407 0
M  V30 553 N 48.7773 0.814389 1.34928 0
M  V30 554 C 49.7073 0.244827 2.32213 0
M  V30 555 C 50.6883 -0.634024 1.57842 0
M  V30 556 O 51.8733 -0.562676 1.8587 0
M  V30 557 C 49.0033 -0.601106 3.42058 0
M  V30 558 C 47.9573 0.179896 4.27622 0
M  V30 559 C 47.2833 -0.788237 5.28858 0
M  V30 560 C 48.5833 1.38329 5.03649 0
M  V30 561 H 50.2773 1.05763 2.80097 0
M  V30 562 H 47.8233 0.510029 1.34665 0
M  V30 563 H 49.7763 -1.00968 4.09125 0
M  V30 564 H 48.5003 -1.44688 2.92802 0
M  V30 565 H 47.1593 0.569739 3.62146 0
M  V30 566 H 46.8073 -1.62973 4.75866 0
M  V30 567 H 46.5073 -0.269942 5.8698 0
M  V30 568 H 48.0313 -1.19485 5.98795 0
M  V30 569 H 49.4453 1.04918 5.63618 0
M  V30 570 H 47.8423 1.83662 5.71304 0
M  V30 571 H 48.9123 2.16592 4.33839 0
M  V30 572 N 50.2554 -1.46986 0.568584 0
M  V30 573 C 51.2034 -2.31858 -0.185649 0
M  V30 574 C 52.1974 -1.43624 -0.898249 0
M  V30 575 O 53.4034 -1.60327 -0.818242 0
M  V30 576 H 49.7784 -0.747866 -0.0787399 0
M  V30 577 H 51.7494 -2.93303 0.549191 0
M  V30 578 C 50.4984 -3.26513 -1.19519 0
M  V30 579 H 49.8214 -3.94377 -0.656285 0
M  V30 580 H 51.2614 -3.88707 -1.6936 0
M  V30 581 C 49.7204 -2.50847 -2.24894 0
M  V30 582 O 50.2504 -2.26119 -3.32014 0
M  V30 583 N 48.4564 -2.11656 -1.99124 0
M  V30 584 H 48.0034 -2.31966 -1.12024 0
M  V30 585 H 47.9614 -1.61347 -2.69842 0
M  V30 586 N 51.7335 -0.305618 -1.54608 0
M  V30 587 C 52.6835 0.583595 -2.20405 0
M  V30 588 C 53.6675 1.09539 -1.17856 0
M  V30 589 O 54.8595 1.0354 -1.43557 0
M  V30 590 C 51.9885 1.75277 -2.95183 0
M  V30 591 C 51.0745 1.25672 -4.05052 0
M  V30 592 N 51.4655 0.478998 -5.03527 0
M  V30 593 C 49.7635 1.53704 -4.18678 0
M  V30 594 C 50.4645 0.214269 -5.81305 0
M  V30 595 N 49.4405 0.795374 -5.3775 0
M  V30 596 H 53.2425 -0.0180946 -2.93894 0
M  V30 597 H 50.7565 -0.110601 -1.62023 0
M  V30 598 H 52.7535 2.4014 -3.40791 0
M  V30 599 H 51.4135 2.35812 -2.23211 0
M  V30 600 H 52.4245 0.123473 -5.17753 0
M  V30 601 H 49.1015 2.14954 -3.57912 0
M  V30 602 H 50.4915 -0.410656 -6.70644 0
M  V30 603 N 53.2116 1.57565 -0.0334293 0
M  V30 604 C 54.6226 1.79746 0.504798 0
M  V30 605 C 54.9736 0.944091 1.71992 0
M  V30 606 O 54.0986 0.155694 2.15839 0
M  V30 607 C 54.6936 3.25997 0.922567 0
M  V30 608 C 53.2526 3.49159 1.40588 0
M  V30 609 C 52.3996 2.74785 0.372633 0
M  V30 610 H 55.3506 1.56565 -0.259436 0
M  V30 611 H 55.3716 3.35945 1.78666 0
M  V30 612 H 54.8836 3.88081 0.0379825 0
M  V30 613 H 52.9846 2.92332 2.31025 0
M  V30 614 H 53.0976 4.57873 1.41028 0
M  V30 615 H 51.4616 2.40391 0.841672 0
M  V30 616 H 52.2446 3.39587 -0.503559 0
M  V30 617 N 54.6897 -0.239769 1.55765 0
M  V30 618 C 55.9177 -0.98417 1.81994 0
M  V30 619 C 56.3327 -1.7867 0.610124 0
M  V30 620 O 55.6897 -1.77571 -0.421271 0
M  V30 621 C 55.7407 -1.91635 3.06526 0
M  V30 622 O 55.4617 -1.14629 4.22838 0
M  V30 623 C 56.9627 -2.77616 3.45607 0
M  V30 624 H 54.1827 -0.28928 0.605441 0
M  V30 625 H 56.7267 -0.260499 2.02834 0
M  V30 626 H 54.8817 -2.5942 2.87715 0
M  V30 627 H 55.2957 -1.77745 4.93464 0
M  V30 628 H 56.7697 -3.38759 4.35828 0
M  V30 629 H 57.2467 -3.4909 2.6652 0
M  V30 630 H 57.8527 -2.15271 3.66795 0
M  V30 631 N 56.1678 -1.49265 -0.50573 0
M  V30 632 C 57.5788 -1.51769 -1.08734 0
M  V30 633 C 57.9298 -0.301192 -1.93874 0
M  V30 634 O 57.0548 0.589456 -2.08217 0
M  V30 635 C 57.6498 -2.75017 -1.97867 0
M  V30 636 C 56.2088 -2.80314 -2.51199 0
M  V30 637 C 55.3558 -2.4562 -1.28709 0
M  V30 638 H 58.3068 -1.56031 -0.289855 0
M  V30 639 H 58.3278 -2.5491 -2.82491 0
M  V30 640 H 57.8398 -3.63539 -1.35873 0
M  V30 641 H 55.9408 -1.96061 -3.16845 0
M  V30 642 H 56.0538 -3.82366 -2.88675 0
M  V30 643 H 54.4178 -1.97297 -1.61078 0
M  V30 644 H 55.2008 -3.36411 -0.6843 0
M  V30 645 N 57.6459 0.756429 -1.3826 0
M  V30 646 C 58.8949 1.51082 -1.3363 0
M  V30 647 C 59.2079 1.95467 0.0720068 0
M  V30 648 O 60.4139 2.7043 0.240834 0
M  V30 649 C 58.8699 2.72893 -2.34644 0
M  V30 650 C 58.4779 2.35544 -3.81081 0
M  V30 651 C 60.2219 3.50791 -2.39052 0
M  V30 652 C 58.1289 3.53948 -4.73787 0
M  V30 653 H 57.0589 0.56727 -0.49671 0
M  V30 654 H 59.7099 0.827147 -1.638 0
M  V30 655 H 58.0919 3.43227 -1.97513 0
M  V30 656 H 59.2659 1.72894 -4.27135 0
M  V30 657 H 57.5809 1.70786 -3.79764 0
M  V30 658 H 60.1779 4.38823 -3.05513 0
M  V30 659 H 60.5209 3.91745 -1.40861 0
M  V30 660 H 61.0539 2.87467 -2.74968 0
M  V30 661 H 57.7929 3.18064 -5.73163 0
M  V30 662 H 57.3129 4.15651 -4.32428 0
M  V30 663 H 58.9919 4.20566 -4.91663 0
M  V30 664 N 59.124 1.23083 0.984299 0
M  V30 665 C 60.054 1.03292 2.09411 0
M  V30 666 C 61.035 -0.048923 1.7003 0
M  V30 667 O 62.22 0.114967 1.93859 0
M  V30 668 C 59.35 0.619155 3.41736 0
M  V30 669 C 58.304 1.64791 3.95004 0
M  V30 670 C 57.63 1.0897 5.23478 0
M  V30 671 C 58.93 3.03999 4.24714 0
M  V30 672 H 60.624 1.96119 2.26225 0
M  V30 673 H 58.17 0.944344 1.08711 0
M  V30 674 H 60.123 0.467777 4.18796 0
M  V30 675 H 58.847 -0.344786 3.24775 0
M  V30 676 H 57.506 1.78721 3.20085 0
M  V30 677 H 57.154 0.11686 5.02864 0
M  V30 678 H 56.854 1.77704 5.60085 0
M  V30 679 H 58.378 0.950093 6.03163 0
M  V30 680 H 59.792 2.93393 4.92538 0
M  V30 681 H 58.189 3.69936 4.72512 0
M  V30 682 H 59.259 3.53285 3.32142 0
M  V30 683 N 60.6021 -1.18246 1.0419 0
M  V30 684 C 62.0131 -1.69914 0.773698 0
M  V30 685 C 62.3641 -1.83085 -0.705297 0
M  V30 686 O 61.4891 -1.51123 -1.5489 0
M  V30 687 C 62.0841 -3.08619 1.39784 0
M  V30 688 C 60.6431 -3.57494 1.17792 0
M  V30 689 C 59.7901 -2.34013 1.48773 0
M  V30 690 H 62.7411 -1.02904 1.20816 0
M  V30 691 H 62.7621 -3.71958 0.801714 0
M  V30 692 H 62.2741 -2.99001 2.47426 0
M  V30 693 H 60.3751 -3.72406 0.120295 0
M  V30 694 H 60.4881 -4.40852 1.87581 0
M  V30 695 H 58.8521 -2.37986 0.907463 0
M  V30 696 H 59.6351 -2.27013 2.57527 0
M  V30 697 N 62.0802 -0.821533 -1.34494 0
M  V30 698 C 63.0432 -0.247847 -2.27856 0
M  V30 699 C 64.0432 0.573453 -1.50227 0
M  V30 700 O 65.2332 0.389759 -1.69784 0
M  V30 701 C 62.3652 0.652698 -3.34593 0
M  V30 702 H 63.5582 -1.07146 -2.80107 0
M  V30 703 H 61.1112 -0.593291 -1.44602 0
M  V30 704 H 61.8462 1.49943 -2.87555 0
M  V30 705 H 61.6312 0.065292 -3.92046 0
M  V30 706 H 63.1212 1.04793 -4.04238 0
M  V30 707 N 63.5583 1.46682 -0.576371 0
M  V30 708 C 64.8053 2.02412 -0.0595339 0
M  V30 709 C 65.1333 1.44859 1.29793 0
M  V30 710 O 64.3883 0.601099 1.8624 0
M  V30 711 C 64.6873 3.57345 0.062886 0
M  V30 712 C 64.3533 4.33908 -1.22616 0
M  V30 713 C 63.0153 4.54544 -1.57933 0
M  V30 714 C 65.3673 4.77919 -2.07948 0
M  V30 715 C 62.6953 5.16444 -2.78393 0
M  V30 716 C 65.0473 5.41149 -3.27629 0
M  V30 717 C 63.7113 5.60014 -3.63236 0
M  V30 718 H 62.9813 0.74068 -0.021785 0
M  V30 719 H 65.6283 1.76128 -0.751735 0
M  V30 720 H 63.9333 3.82729 0.838178 0
M  V30 721 H 65.6303 3.98136 0.478439 0
M  V30 722 H 62.2203 4.18138 -0.941202 0
M  V30 723 H 66.4043 4.61738 -1.81967 0
M  V30 724 H 61.6603 5.29242 -3.06126 0
M  V30 725 H 65.8343 5.74211 -3.94023 0
M  V30 726 H 63.4613 6.07748 -4.56669 0
M  V30 727 N 65.0364 0.313813 1.54444 0
M  V30 728 C 66.2614 -0.296681 2.05267 0
M  V30 729 C 66.6864 -1.45757 1.18897 0
M  V30 730 O 66.0444 -1.80239 0.195886 0
M  V30 731 C 66.0924 -0.71831 3.53373 0
M  V30 732 O 65.1964 -1.82175 3.69981 0
M  V30 733 H 64.5374 -0.0554061 0.661684 0
M  V30 734 H 67.0674 0.459387 1.99376 0
M  V30 735 H 67.0774 -1.00364 3.95463 0
M  V30 736 H 65.7524 0.130821 4.15694 0
M  V30 737 H 64.3294 -1.53598 3.39797 0
M  V30 738 N 66.5145 -1.57545 0.0417849 0
M  V30 739 C 67.4625 -2.12148 -0.953723 0
M  V30 740 C 68.4565 -1.05104 -1.32852 0
M  V30 741 O 69.6625 -1.23524 -1.30927 0
M  V30 742 H 66.0375 -0.677957 -0.325389 0
M  V30 743 H 68.0085 -2.94707 -0.467991 0
M  V30 744 C 66.7575 -2.6739 -2.22257 0
M  V30 745 H 66.0805 -3.49413 -1.94295 0
M  V30 746 H 67.5205 -3.09227 -2.90094 0
M  V30 747 C 65.9795 -1.60723 -2.96091 0
M  V30 748 O 66.5095 -1.01449 -3.88679 0
M  V30 749 N 64.7155 -1.32466 -2.58652 0
M  V30 750 H 64.2625 -1.80856 -1.83437 0
M  V30 751 H 64.2205 -0.61325 -3.08361 0
M  V30 752 N 67.9926 0.231505 -1.5589 0
M  V30 753 C 68.9246 1.31006 -1.8807 0
M  V30 754 C 69.9376 1.43539 -0.768145 0
M  V30 755 O 71.1266 1.44614 -1.04638 0
M  V30 756 C 68.2266 2.68688 -2.06543 0
M  V30 757 C 67.3996 2.78228 -3.37502 0
M  V30 758 C 66.4586 3.96857 -3.4553 0
M  V30 759 O 65.4846 3.85662 -4.18633 0
M  V30 760 N 66.6866 5.1072 -2.75944 0
M  V30 761 H 69.4516 1.03731 -2.81176 0
M  V30 762 H 67.0126 0.421573 -1.56315 0
M  V30 763 H 69.0046 3.46412 -2.09239 0
M  V30 764 H 67.5746 2.88605 -1.20109 0
M  V30 765 H 66.7946 1.87059 -3.46991 0
M  V30 766 H 68.0826 2.81564 -4.23791 0
M  V30 767 H 67.4806 5.2271 -2.16311 0
M  V30 768 H 66.0376 5.86523 -2.84314 0
M  V30 769 N 69.4707 1.49531 0.497807 0
M  V30 770 C 70.6987 1.62893 1.27567 0
M  V30 771 C 71.1137 0.301585 1.86376 0
M  V30 772 O 70.4707 -0.713335 1.67982 0
M  V30 773 C 70.5217 2.70013 2.40364 0
M  V30 774 O 70.2427 3.976 1.83972 0
M  V30 775 C 71.7437 2.94109 3.31685 0
M  V30 776 H 68.9637 0.548298 0.386794 0
M  V30 777 H 71.5077 1.95584 0.597245 0
M  V30 778 H 69.6627 2.40092 3.04031 0
M  V30 779 H 70.0767 4.56631 2.58047 0
M  V30 780 H 71.5507 3.72788 4.07104 0
M  V30 781 H 72.0277 2.04147 3.88871 0
M  V30 782 H 72.6337 3.2546 2.73781 0
M  V30 783 N 70.9488 -0.749086 1.3866 0
M  V30 784 C 72.1788 -1.53611 1.38157 0
M  V30 785 C 72.5868 -1.89177 -0.0293595 0
M  V30 786 O 71.9298 -1.53606 -1.00752 0
M  V30 787 C 71.9918 -2.86087 2.17702 0
M  V30 788 C 71.6558 -2.73034 3.66472 0
M  V30 789 C 72.6528 -2.42526 4.59866 0
M  V30 790 C 70.3378 -2.90345 4.09884 0
M  V30 791 C 72.3318 -2.29492 5.94653 0
M  V30 792 C 70.0188 -2.7693 5.4475 0
M  V30 793 C 71.0168 -2.46547 6.36949 0
M  V30 794 O 70.7048 -2.33199 7.69333 0
M  V30 795 H 70.4368 -0.481773 0.474205 0
M  V30 796 H 72.9908 -0.934465 1.82912 0
M  V30 797 H 71.2208 -3.48458 1.67672 0
M  V30 798 H 72.9098 -3.47625 2.09551 0
M  V30 799 H 73.6758 -2.28816 4.27631 0
M  V30 800 H 69.5548 -3.1299 3.38464 0
M  V30 801 H 73.0988 -2.05698 6.66584 0
M  V30 802 H 68.9958 -2.90215 5.76581 0
M  V30 803 H 69.7638 -2.48376 7.79905 0
M  V30 804 N 72.4269 -1.23603 -0.977757 0
M  V30 805 C 73.8379 -1.06424 -1.53398 0
M  V30 806 C 74.1889 0.367578 -1.92726 0
M  V30 807 O 73.3139 1.25465 -1.76316 0
M  V30 808 C 73.9089 -1.92568 -2.78753 0
M  V30 809 C 72.4679 -1.79642 -3.30765 0
M  V30 810 C 71.6149 -1.88111 -2.03739 0
M  V30 811 H 74.5659 -1.37227 -0.797152 0
M  V30 812 H 74.5869 -1.45203 -3.51705 0
M  V30 813 H 74.0989 -2.96771 -2.50098 0
M  V30 814 H 72.1999 -0.782325 -3.64294 0
M  V30 815 H 72.3129 -2.63174 -4.00345 0
M  V30 816 H 70.6769 -1.31723 -2.17994 0
M  V30 817 H 71.4599 -2.93875 -1.77461 0
M  V30 818 N 73.905 1.17692 -1.04816 0
M  V30 819 C 75.133 1.91786 -0.776254 0
M  V30 820 C 75.548 1.76604 0.667577 0
M  V30 821 O 74.905 1.10067 1.45573 0
M  V30 822 C 74.956 3.42967 -1.14263 0
M  V30 823 O 74.677 3.57678 -2.52978 0
M  V30 824 C 76.178 4.34144 -0.896311 0
M  V30 825 H 73.398 0.608624 -0.282519 0
M  V30 826 H 75.942 1.49268 -1.39783 0
M  V30 827 H 74.097 3.83245 -0.565874 0
M  V30 828 H 74.511 4.51319 -2.67229 0
M  V30 829 H 75.985 5.38744 -1.20244 0
M  V30 830 H 76.462 4.38876 0.168636 0
M  V30 831 H 77.068 3.99574 -1.45672 0
M  V30 832 N 75.3831 0.828654 1.34056 0
M  V30 833 C 76.6321 0.415828 1.97367 0
M  V30 834 C 76.9451 -1.02796 1.6641 0
M  V30 835 O 78.1511 -1.54497 2.23255 0
M  V30 836 C 76.6071 0.692601 3.53173 0
M  V30 837 C 76.2151 2.15038 3.93017 0
M  V30 838 C 77.9591 0.346222 4.23086 0
M  V30 839 C 75.8661 2.37174 5.41758 0
M  V30 840 H 74.7961 0.151755 0.738571 0
M  V30 841 H 77.4471 1.01581 1.52819 0
M  V30 842 H 75.8291 0.0223764 3.95994 0
M  V30 843 H 77.0031 2.86024 3.61285 0
M  V30 844 H 75.3181 2.45875 3.36057 0
M  V30 845 H 77.9151 0.48937 5.32456 0
M  V30 846 H 78.2581 -0.709842 4.10204 0
M  V30 847 H 78.7911 0.971258 3.85761 0
M  V30 848 H 75.5301 3.41308 5.59633 0
M  V30 849 H 75.0501 1.70738 5.74986 0
M  V30 850 H 76.7291 2.19818 6.08514 0
M  V30 851 N 76.8612 -1.46375 0.584142 0
M  V30 852 C 77.7712 -2.34115 -0.150728 0
M  V30 853 C 78.7872 -1.49838 -0.884567 0
M  V30 854 O 79.9632 -1.82704 -0.847429 0
M  V30 855 C 77.0282 -3.2705 -1.15062 0
M  V30 856 C 76.0892 -4.27228 -0.421293 0
M  V30 857 C 75.3222 -5.15722 -1.37355 0
M  V30 858 O 75.5452 -5.07176 -2.61014 0
M  V30 859 O 74.4792 -5.95383 -0.883355 0
M  V30 860 H 78.3052 -2.98309 0.569708 0
M  V30 861 H 75.8902 -1.45373 0.344535 0
M  V30 862 H 77.7722 -3.84381 -1.72712 0
M  V30 863 H 76.4472 -2.65451 -1.8525 0
M  V30 864 H 75.3542 -3.7358 0.197085 0
M  V30 865 H 76.6872 -4.91616 0.239641 0
M  V30 866 N 78.3393 -0.321999 -1.54275 0
M  V30 867 C 79.7503 0.166384 -1.85957 0
M  V30 868 C 80.1013 1.51747 -1.24367 0
M  V30 869 O 79.2263 2.09317 -0.549124 0
M  V30 870 C 79.8213 0.308681 -3.37391 0
M  V30 871 C 78.3803 0.741286 -3.69028 0
M  V30 872 C 77.5273 -0.137937 -2.76957 0
M  V30 873 H 80.4783 -0.542335 -1.49146 0
M  V30 874 H 80.4993 1.13984 -3.63026 0
M  V30 875 H 80.0113 -0.674809 -3.82188 0
M  V30 876 H 78.1123 1.73458 -3.29762 0
M  V30 877 H 78.2253 0.546118 -4.75977 0
M  V30 878 H 76.5893 0.386251 -2.51754 0
M  V30 879 H 77.3723 -1.11816 -3.2458 0
M  V30 880 N 79.8174 1.5752 -0.0501392 0
M  V30 881 C 80.7644 2.1147 0.924603 0
M  V30 882 C 81.7344 1.02182 1.30951 0
M  V30 883 O 82.9194 1.29723 1.39916 0
M  V30 884 C 80.0594 2.66337 2.19451 0
M  V30 885 C 79.1724 3.89708 1.86418 0
M  V30 886 C 78.3074 4.32893 3.07859 0
M  V30 887 C 77.3464 5.48967 2.70742 0
M  V30 888 N 76.4834 5.87211 3.84874 0
M  V30 889 H 81.3234 2.94465 0.457639 0
M  V30 890 H 78.8604 1.45531 0.214266 0
M  V30 891 H 80.8184 2.96247 2.93758 0
M  V30 892 H 79.4484 1.86141 2.63726 0
M  V30 893 H 78.5004 3.66396 1.02264 0
M  V30 894 H 79.8124 4.74074 1.55096 0
M  V30 895 H 78.9664 4.6435 3.90466 0
M  V30 896 H 77.7054 3.47336 3.42358 0
M  V30 897 H 76.7104 5.17183 1.86551 0
M  V30 898 H 77.9354 6.3624 2.37436 0
M  V30 899 H 75.8814 5.04607 4.19175 0
M  V30 900 H 75.7984 6.66266 3.57247 0
M  V30 901 H 77.0664 6.23282 4.68123 0
M  V30 902 N 81.2955 -0.223234 1.56011 0
M  V30 903 C 82.7065 -0.790368 1.69145 0
M  V30 904 C 83.0575 -1.85055 0.651845 0
M  V30 905 O 82.1825 -2.15498 -0.197359 0
M  V30 906 C 82.7775 -1.4404 3.06656 0
M  V30 907 C 81.3365 -1.95494 3.2165 0
M  V30 908 C 80.4835 -0.814506 2.65068 0
M  V30 909 H 83.4345 0.00139011 1.587 0
M  V30 910 H 83.4555 -2.30916 3.0242 0
M  V30 911 H 82.9675 -0.668543 3.82298 0
M  V30 912 H 81.0685 -2.75487 2.50874 0
M  V30 913 H 81.1815 -2.13607 4.28846 0
M  V30 914 H 79.5455 -1.22137 2.23505 0
M  V30 915 H 80.3285 -0.0553515 3.43255 0
M  V30 916 N 82.7736 -1.49793 -0.48987 0
M  V30 917 C 84.0206 -1.59841 -1.24327 0
M  V30 918 C 84.3486 -0.290135 -1.92324 0
M  V30 919 O 83.6036 0.722749 -1.81865 0
M  V30 920 C 83.9026 -2.71488 -2.32441 0
M  V30 921 C 83.5686 -4.12614 -1.81826 0
M  V30 922 C 82.2306 -4.51017 -1.67742 0
M  V30 923 C 84.5826 -5.00892 -1.4407 0
M  V30 924 C 81.9106 -5.75459 -1.14297 0
M  V30 925 C 84.2626 -6.25863 -0.920742 0
M  V30 926 C 82.9266 -6.63086 -0.766383 0
M  V30 927 H 82.1966 -0.584899 -0.454944 0
M  V30 928 H 84.8436 -1.83663 -0.542215 0
M  V30 929 H 83.1486 -2.4168 -3.0838 0
M  V30 930 H 84.8456 -2.76469 -2.90458 0
M  V30 931 H 81.4356 -3.82307 -1.93751 0
M  V30 932 H 85.6196 -4.7187 -1.53794 0
M  V30 933 H 80.8756 -6.02989 -1.01068 0
M  V30 934 H 85.0496 -6.9364 -0.619448 0
M  V30 935 H 82.6766 -7.59393 -0.350083 0
M  V30 936 N 84.2517 0.741722 -1.39055 0
M  V30 937 C 85.1817 1.869 -1.39966 0
M  V30 938 C 86.1627 1.6804 -0.26392 0
M  V30 939 O 87.3477 1.88458 -0.468755 0
M  V30 940 C 84.4777 3.24572 -1.23574 0
M  V30 941 C 83.4317 3.58056 -2.34477 0
M  V30 942 C 82.7577 4.94593 -2.0318 0
M  V30 943 C 84.0577 3.61716 -3.76774 0
M  V30 944 H 85.7517 1.86395 -2.34302 0
M  V30 945 H 83.2977 0.895361 -1.1278 0
M  V30 946 H 85.2507 4.031 -1.22834 0
M  V30 947 H 83.9747 3.25587 -0.257045 0
M  V30 948 H 82.6337 2.81854 -2.34423 0
M  V30 949 H 82.2817 4.92181 -1.03765 0
M  V30 950 H 81.9817 5.17964 -2.77465 0
M  V30 951 H 83.5057 5.75486 -2.04079 0
M  V30 952 H 84.9197 4.30335 -3.78794 0
M  V30 953 H 83.3167 3.96603 -4.50362 0
M  V30 954 H 84.3867 2.61672 -4.08235 0
M  V30 955 N 85.7298 1.2412 0.971189 0
M  V30 956 C 86.9598 1.10415 1.7462 0
M  V30 957 C 87.3678 -0.346462 1.86001 0
M  V30 958 O 86.7108 -1.25104 1.34517 0
M  V30 959 C 86.7728 1.66596 3.18568 0
M  V30 960 C 86.4368 3.15446 3.3067 0
M  V30 961 C 87.4338 4.12636 3.16271 0
M  V30 962 C 85.1188 3.55337 3.55022 0
M  V30 963 C 87.1128 5.47699 3.26044 0
M  V30 964 C 84.7998 4.90542 3.64434 0
M  V30 965 C 85.7978 5.86532 3.49956 0
M  V30 966 O 85.4858 7.19279 3.59017 0
M  V30 967 H 85.2178 0.386616 0.55453 0
M  V30 968 H 87.7718 1.64633 1.22821 0
M  V30 969 H 86.0018 1.06808 3.71657 0
M  V30 970 H 87.6908 1.48232 3.77865 0
M  V30 971 H 88.4568 3.8316 2.97344 0
M  V30 972 H 84.3358 2.8113 3.65359 0
M  V30 973 H 87.8798 6.22603 3.14661 0
M  V30 974 H 83.7768 5.19691 3.82873 0
M  V30 975 H 84.5448 7.27153 3.75754 0
M  V30 976 N 87.2079 -1.17134 1.05439 0
M  V30 977 C 88.4539 -1.87733 0.767077 0
M  V30 978 C 88.7869 -1.8098 -0.704253 0
M  V30 979 O 88.0619 -1.21951 -1.5152 0
M  V30 980 C 88.3449 -3.37659 1.25133 0
M  V30 981 C 88.1979 -3.53149 2.78578 0
M  V30 982 C 89.5169 -4.31768 0.852324 0
M  V30 983 H 86.6359 -0.681687 0.280129 0
M  V30 984 H 89.2779 -1.37732 1.30881 0
M  V30 985 H 87.4279 -3.80373 0.790469 0
M  V30 986 H 89.0999 -3.19434 3.32806 0
M  V30 987 H 87.3429 -2.95345 3.17732 0
M  V30 988 H 88.0139 -4.58403 3.07523 0
M  V30 989 H 90.4899 -3.96909 1.24911 0
M  V30 990 H 89.3659 -5.35199 1.21873 0
M  V30 991 H 89.6269 -4.41429 -0.243485 0
M  V30 992 N 88.686 -0.835752 -1.33615 0
M  V30 993 C 89.932 -0.430596 -1.98176 0
M  V30 994 C 90.265 1.00684 -1.66061 0
M  V30 995 O 89.54 1.70339 -0.938877 0
M  V30 996 C 89.823 -0.648065 -3.5422 0
M  V30 997 C 89.676 -2.13255 -3.96033 0
M  V30 998 C 90.995 -0.0922113 -4.40003 0
M  V30 999 H 88.114 -0.157924 -0.719881 0
M  V30 1000 H 90.756 -1.05069 -1.58305 0
M  V30 1001 H 88.906 -0.120237 -3.88314 0
M  V30 1002 H 90.578 -2.725 -3.72211 0
M  V30 1003 H 88.821 -2.61823 -3.45878 0
M  V30 1004 H 89.492 -2.23547 -5.04708 0
M  V30 1005 H 91.968 -0.543343 -4.12537 0
M  V30 1006 H 90.844 -0.274083 -5.48215 0
M  V30 1007 H 91.105 1.00378 -4.30554 0
M  V30 1008 N 90.1641 1.46063 -0.591896 0
M  V30 1009 C 91.4121 2.01938 -0.0808391 0
M  V30 1010 C 91.7331 1.46475 1.28725 0
M  V30 1011 O 91.0031 0.652944 1.84698 0
M  V30 1012 H 89.5831 0.746516 -0.0268938 0
M  V30 1013 H 92.2451 1.79055 -0.769752 0
M  V30 1014 H 91.3411 3.12094 -0.0187578 0
M  V30 1015 N 91.6422 0.330177 1.54103 0
M  V30 1016 C 93.0582 -0.0222371 1.59585 0
M  V30 1017 C 93.2582 -1.49902 1.34654 0
M  V30 1018 O 92.3142 -2.25592 1.13421 0
M  V30 1019 C 93.6272 0.401932 2.98002 0
M  V30 1020 C 95.1752 0.353145 3.11001 0
M  V30 1021 C 95.6502 0.752576 4.51775 0
M  V30 1022 N 97.1412 0.706239 4.57784 0
M  V30 1023 C 97.8762 0.987417 5.64834 0
M  V30 1024 N 97.3722 1.33607 6.79795 0
M  V30 1025 N 99.1652 0.91254 5.54643 0
M  V30 1026 H 91.3162 1.29228 1.68564 0
M  V30 1027 H 93.5792 0.525906 0.78875 0
M  V30 1028 H 93.2852 1.4311 3.21267 0
M  V30 1029 H 93.1592 -0.229699 3.765 0
M  V30 1030 H 95.5462 -0.666822 2.87467 0
M  V30 1031 H 95.6272 1.0198 2.34593 0
M  V30 1032 H 95.2712 1.77049 4.76042 0
M  V30 1033 H 95.2012 0.0635409 5.26562 0
M  V30 1034 H 97.6922 0.44889 3.75224 0
M  V30 1035 H 98.0052 1.53582 7.57385 0
M  V30 1036 H 96.3502 1.37439 6.81275 0
M  V30 1037 H 99.5412 0.639601 4.6371 0
M  V30 1038 H 99.7142 1.13503 6.37982 0
M  V30 1039 N 93.1203 -1.57491 0.0584922 0
M  V30 1040 C 94.0673 -2.11958 -0.913376 0
M  V30 1041 C 95.0373 -1.02875 -1.30407 0
M  V30 1042 O 96.2223 -1.30464 -1.39226 0
M  V30 1043 C 93.3623 -2.67497 -2.18035 0
M  V30 1044 C 92.4753 -3.90691 -1.84349 0
M  V30 1045 C 91.6103 -4.3452 -3.05559 0
M  V30 1046 C 90.6493 -5.50395 -2.67827 0
M  V30 1047 N 89.7863 -5.89244 -3.81754 0
M  V30 1048 H 94.6263 -2.94704 -0.442017 0
M  V30 1049 H 92.1633 -1.45643 -0.206545 0
M  V30 1050 H 94.1213 -2.978 -2.92183 0
M  V30 1051 H 92.7513 -1.87537 -2.62735 0
M  V30 1052 H 91.8033 -3.66934 -1.00319 0
M  V30 1053 H 93.1153 -4.7489 -1.5258 0
M  V30 1054 H 92.2693 -4.66414 -3.87998 0
M  V30 1055 H 91.0083 -3.49147 -3.40511 0
M  V30 1056 H 90.0133 -5.18165 -1.83806 0
M  V30 1057 H 91.2383 -6.3749 -2.34059 0
M  V30 1058 H 89.1843 -5.06823 -4.16493 0
M  V30 1059 H 89.1013 -6.68151 -3.53708 0
M  V30 1060 H 90.3693 -6.25756 -4.64811 0
M  V30 1061 N 94.5984 0.214957 -1.56127 0
M  V30 1062 C 95.5454 1.26642 -1.92952 0
M  V30 1063 C 96.5154 1.46244 -0.78753 0
M  V30 1064 O 97.7004 1.59704 -1.04399 0
M  V30 1065 C 94.8404 2.6104 -2.25726 0
M  V30 1066 C 93.9534 2.49183 -3.52891 0
M  V30 1067 C 93.0884 3.76149 -3.7508 0
M  V30 1068 C 92.1274 3.59041 -4.95738 0
M  V30 1069 N 91.2644 4.77972 -5.14283 0
M  V30 1070 H 96.1044 0.945384 -2.82607 0
M  V30 1071 H 93.6414 0.455489 -1.3987 0
M  V30 1072 H 95.5994 3.39313 -2.42739 0
M  V30 1073 H 94.2294 2.91227 -1.39236 0
M  V30 1074 H 93.2814 1.6231 -3.44034 0
M  V30 1075 H 94.5934 2.32466 -4.41318 0
M  V30 1076 H 93.7474 4.62865 -3.92226 0
M  V30 1077 H 92.4864 3.95799 -2.84947 0
M  V30 1078 H 91.4914 2.7071 -4.78535 0
M  V30 1079 H 92.7164 3.40856 -5.87362 0
M  V30 1080 H 90.6624 4.97923 -4.27093 0
M  V30 1081 H 90.5794 4.64006 -5.96853 0
M  V30 1082 H 91.8474 5.66096 -5.35869 0
M  V30 1083 N 96.0765 1.50051 0.48192 0
M  V30 1084 C 97.0095 1.62749 1.59963 0
M  V30 1085 C 97.9875 0.475903 1.5548 0
M  V30 1086 O 99.1715 0.693986 1.7526 0
M  V30 1087 C 96.2985 1.60008 2.98522 0
M  V30 1088 C 95.3445 2.80596 3.21198 0
M  V30 1089 S 96.1775 4.42038 3.02262 0
M  V30 1090 C 97.3335 4.41973 4.43182 0
M  V30 1091 H 97.5665 2.57296 1.4895 0
M  V30 1092 H 95.0995 1.39179 0.668477 0
M  V30 1093 H 97.0575 1.59112 3.78409 0
M  V30 1094 H 95.7185 0.667153 3.06933 0
M  V30 1095 H 94.9115 2.74952 4.22395 0
M  V30 1096 H 94.5135 2.79003 2.49065 0
M  V30 1097 H 96.8055 4.14868 5.35622 0
M  V30 1098 H 97.7485 5.43512 4.53873 0
M  V30 1099 H 98.1565 3.71812 4.24755 0
M  V30 1100 N 97.5546 -0.734337 1.39446 0
M  V30 1101 C 98.4876 -1.85715 1.32609 0
M  V30 1102 C 99.4656 -1.6137 0.199636 0
M  V30 1103 O 100.65 -1.84626 0.380195 0
M  V30 1104 C 97.7766 -3.21709 1.05929 0
M  V30 1105 C 96.8226 -3.64913 2.20773 0
M  V30 1106 S 97.6556 -3.74203 3.83056 0
M  V30 1107 C 98.8116 -5.12986 3.58603 0
M  V30 1108 H 99.0446 -1.91232 2.27635 0
M  V30 1109 H 96.5776 -0.899263 1.25509 0
M  V30 1110 H 98.5356 -4.00236 0.912203 0
M  V30 1111 H 97.1966 -3.13848 0.125883 0
M  V30 1112 H 96.3896 -4.63606 1.97699 0
M  V30 1113 H 95.9916 -2.93593 2.31688 0
M  V30 1114 H 98.2836 -5.99339 3.15909 0
M  V30 1115 H 99.2266 -5.41088 4.5676 0
M  V30 1116 H 99.6346 -4.82694 2.9269 0
M  V30 1117 N 99.0327 -1.24633 -0.964593 0
M  V30 1118 C 100.31 -0.995809 -1.68354 0
M  V30 1119 C 100.69 0.480964 -2.05548 0
M  V30 1120 O 100.038 1.45599 -1.76105 0
M  V30 1121 C 100.248 -1.92177 -2.91323 0
M  V30 1122 C 101.596 -2.19446 -3.63495 0
M  V30 1123 O 102.62 -1.89855 -3.01386 0
M  V30 1124 O 101.479 -2.69714 -4.75307 0
M  V30 1125 H 98.5727 -0.376854 -0.736146 0
M  V30 1126 H 101.119 -1.35745 -1.0184 0
M  V30 1127 H 99.8907 -2.91938 -2.60553 0
M  V30 1128 H 99.5137 -1.56349 -3.65569 0
M  V30 1129 N 100.511 1.16574 -1.06058 0
M  V30 1130 C 101.474 2.19085 -0.673392 0
M  V30 1131 C 102.474 1.5835 0.279648 0
M  V30 1132 O 103.664 1.74088 0.0623488 0
M  V30 1133 C 100.796 3.40899 0.00954234 0
M  V30 1134 H 101.989 2.54853 -1.58081 0
M  V30 1135 H 99.5418 1.30808 -0.855516 0
M  V30 1136 H 100.277 3.10684 0.929826 0
M  V30 1137 H 100.062 3.86233 -0.67573 0
M  V30 1138 H 101.552 4.1675 0.266245 0
M  V30 1139 N 101.989 0.842826 1.3317 0
M  V30 1140 C 102.921 0.236245 2.27979 0
M  V30 1141 C 103.934 -0.585282 1.51915 0
M  V30 1142 O 105.123 -0.411705 1.73687 0
M  V30 1143 C 102.223 -0.685717 3.3189 0
M  V30 1144 C 101.396 0.0973448 4.37292 0
M  V30 1145 C 100.455 -0.748565 5.20848 0
M  V30 1146 O 99.4809 -0.186339 5.68895 0
M  V30 1147 N 100.683 -2.06527 5.42519 0
M  V30 1148 H 103.448 1.05088 2.80672 0
M  V30 1149 H 101.009 0.701667 1.45905 0
M  V30 1150 H 103.001 -1.25669 3.84694 0
M  V30 1151 H 101.571 -1.40105 2.79445 0
M  V30 1152 H 100.791 0.849706 3.84933 0
M  V30 1153 H 102.079 0.635643 5.04814 0
M  V30 1154 H 101.477 -2.54554 5.05192 0
M  V30 1155 H 100.034 -2.58464 5.98364 0
M  V30 1156 N 103.467 -1.45747 0.599634 0
M  V30 1157 C 104.697 -2.06369 0.0977132 0
M  V30 1158 C 105.105 -1.44624 -1.21985 0
M  V30 1159 O 104.448 -0.551831 -1.75216 0
M  V30 1160 C 104.51 -3.59284 -0.124673 0
M  V30 1161 C 104.174 -4.43318 1.10987 0
M  V30 1162 C 105.171 -4.78796 2.02609 0
M  V30 1163 C 102.856 -4.84194 1.33647 0
M  V30 1164 C 104.85 -5.53997 3.15224 0
M  V30 1165 C 102.537 -5.5915 2.46565 0
M  V30 1166 C 103.535 -5.93968 3.37182 0
M  V30 1167 O 103.223 -6.67405 4.48136 0
M  V30 1168 H 102.955 -0.673122 0.0623153 0
M  V30 1169 H 105.509 -1.88104 0.824981 0
M  V30 1170 H 103.739 -3.75919 -0.906745 0
M  V30 1171 H 105.428 -4.01775 -0.577201 0
M  V30 1172 H 106.194 -4.47781 1.86325 0
M  V30 1173 H 102.073 -4.56534 0.64016 0
M  V30 1174 H 105.617 -5.81091 3.85978 0
M  V30 1175 H 101.514 -5.89579 2.62805 0
M  V30 1176 H 102.282 -6.85847 4.46717 0
M  V30 1177 N 104.945 -0.338344 -1.53925 0
M  V30 1178 C 105.892 0.520845 -2.24846 0
M  V30 1179 C 106.862 1.09976 -1.24477 0
M  V30 1180 O 108.047 1.13735 -1.53196 0
M  V30 1181 C 105.187 1.6685 -3.02084 0
M  V30 1182 C 104.3 1.11739 -4.17299 0
M  V30 1183 C 103.435 2.23193 -4.82036 0
M  V30 1184 C 102.474 1.65407 -5.89328 0
M  V30 1185 N 101.611 2.70582 -6.47866 0
M  V30 1186 H 106.451 -0.0904881 -2.97863 0
M  V30 1187 H 103.988 -0.0564282 -1.46992 0
M  V30 1188 H 105.946 2.34407 -3.45122 0
M  V30 1189 H 104.576 2.2509 -2.31375 0
M  V30 1190 H 103.628 0.332919 -3.7894 0
M  V30 1191 H 104.94 0.654677 -4.94485 0
M  V30 1192 H 104.094 2.98626 -5.28117 0
M  V30 1193 H 102.833 2.72807 -4.04262 0
M  V30 1194 H 101.838 0.884779 -5.42634 0
M  V30 1195 H 103.063 1.16652 -6.69006 0
M  V30 1196 H 101.009 3.1946 -5.72959 0
M  V30 1197 H 100.926 2.28917 -7.20509 0
M  V30 1198 H 102.194 3.45799 -6.98601 0
M  V30 1199 N 106.423 1.57458 -0.0668435 0
M  V30 1200 C 107.663 1.95175 0.607116 0
M  V30 1201 C 108.027 0.946039 1.67075 0
M  V30 1202 O 109.228 1.2107 2.39991 0
M  V30 1203 C 107.499 3.37582 1.17358 0
M  V30 1204 S 109.058 3.97271 1.86336 0
M  V30 1205 H 105.876 0.682604 0.19893 0
M  V30 1206 H 108.478 1.95002 -0.139519 0
M  V30 1207 H 107.182 4.08566 0.387553 0
M  V30 1208 H 106.713 3.41288 1.95669 0
M  V30 1209 H 108.728 3.83772 3.14537 0
M  V30 1210 N 107.901 -0.206675 1.56239 0
M  V30 1211 C 109.131 -0.943975 1.83773 0
M  V30 1212 C 109.539 -1.77841 0.645703 0
M  V30 1213 O 108.882 -1.79403 -0.395008 0
M  V30 1214 C 108.944 -1.899 3.05251 0
M  V30 1215 C 108.608 -1.24764 4.39639 0
M  V30 1216 C 109.605 -0.630216 5.16066 0
M  V30 1217 C 107.29 -1.25496 4.8637 0
M  V30 1218 C 109.284 -0.0287946 6.37393 0
M  V30 1219 C 106.971 -0.649698 6.07637 0
M  V30 1220 C 107.969 -0.0376845 6.8299 0
M  V30 1221 O 107.657 0.55812 8.0196 0
M  V30 1222 H 107.389 -0.281508 0.614597 0
M  V30 1223 H 109.943 -0.222458 2.04192 0
M  V30 1224 H 108.173 -2.6599 2.80689 0
M  V30 1225 H 109.862 -2.5031 3.1953 0
M  V30 1226 H 110.628 -0.616785 4.81062 0
M  V30 1227 H 106.507 -1.72072 4.27683 0
M  V30 1228 H 110.051 0.449518 6.9615 0
M  V30 1229 H 105.948 -0.660592 6.42111 0
M  V30 1230 H 106.716 0.453891 8.17241 0
M  V30 1231 N 109.379 -1.50304 -0.473955 0
M  V30 1232 C 110.656 -1.51667 -1.23518 0
M  V30 1233 C 111.036 -0.259701 -2.09496 0
M  V30 1234 O 110.384 0.756986 -2.15597 0
M  V30 1235 C 110.594 -2.81082 -2.06868 0
M  V30 1236 C 111.942 -3.31631 -2.65153 0
M  V30 1237 O 112.966 -2.82384 -2.17113 0
M  V30 1238 O 111.825 -4.17471 -3.52675 0
M  V30 1239 H 108.919 -0.60822 -0.560355 0
M  V30 1240 H 111.465 -1.62592 -0.486011 0
M  V30 1241 H 110.237 -3.64041 -1.4349 0
M  V30 1242 H 109.86 -2.73146 -2.88924 0
M  V30 1243 N 110.857 0.726932 -1.39834 0
M  V30 1244 C 112.273 1.03354 -1.21615 0
M  V30 1245 C 112.473 2.01327 -0.08338 0
M  V30 1246 O 111.529 2.46158 0.56238 0
M  V30 1247 C 112.842 1.58811 -2.55342 0
M  V30 1248 C 114.39 1.70851 -2.62257 0
M  V30 1249 C 114.865 2.29716 -3.96225 0
M  V30 1250 N 116.356 2.37116 -3.97907 0
M  V30 1251 C 117.091 2.83619 -4.98345 0
M  V30 1252 N 116.587 3.29958 -6.09179 0
M  V30 1253 N 118.38 2.82901 -4.8572 0
M  V30 1254 H 110.531 0.0773069 -2.12259 0
M  V30 1255 H 112.794 0.0969102 -0.943034 0
M  V30 1256 H 112.5 0.942855 -3.38826 0
M  V30 1257 H 112.374 2.57502 -2.75632 0
M  V30 1258 H 114.761 2.34497 -1.79152 0
M  V30 1259 H 114.842 0.707913 -2.45809 0
M  V30 1260 H 114.486 1.66696 -4.79765 0
M  V30 1261 H 114.416 3.30469 -4.09997 0
M  V30 1262 H 116.907 2.04374 -3.17868 0
M  V30 1263 H 117.22 3.63976 -6.8172 0
M  V30 1264 H 115.565 3.27946 -6.12761 0
M  V30 1265 H 118.756 2.46027 -3.98231 0
M  V30 1266 H 118.929 3.18827 -5.6414 0
M  V30 1267 N 112.336 1.25143 0.95797 0
M  V30 1268 C 113.269 0.995565 2.05338 0
M  V30 1269 C 114.247 -0.0740423 1.62431 0
M  V30 1270 O 115.431 0.0649212 1.88388 0
M  V30 1271 C 112.558 0.504298 3.34925 0
M  V30 1272 C 111.604 1.56393 3.96792 0
M  V30 1273 S 112.437 3.14815 4.33188 0
M  V30 1274 C 113.593 2.67415 5.65898 0
M  V30 1275 H 113.826 1.92309 2.26726 0
M  V30 1276 H 111.359 1.08635 1.09716 0
M  V30 1277 H 113.317 0.227497 4.09869 0
M  V30 1278 H 111.978 -0.402671 3.11508 0
M  V30 1279 H 111.171 1.17082 4.90212 0
M  V30 1280 H 110.773 1.79124 3.28315 0
M  V30 1281 H 113.065 2.10833 6.4386 0
M  V30 1282 H 114.008 3.59463 6.10076 0
M  V30 1283 H 114.416 2.07521 5.24972 0
M  V30 1284 N 113.814 -1.1601 1.06675 0
M  V30 1285 C 114.746 -2.20115 0.638921 0
M  V30 1286 C 115.759 -1.59916 -0.305057 0
M  V30 1287 O 116.948 -1.78245 -0.0954446 0
M  V30 1288 C 114.048 -3.38798 -0.0830083 0
M  V30 1289 C 113.221 -4.2855 0.875426 0
M  V30 1290 C 112.28 -5.25849 0.192042 0
M  V30 1291 O 111.306 -5.63102 0.830921 0
M  V30 1292 N 112.508 -5.70648 -1.06493 0
M  V30 1293 H 115.273 -2.57439 1.53444 0
M  V30 1294 H 112.834 -1.31057 0.950557 0
M  V30 1295 H 114.826 -4.00936 -0.550685 0
M  V30 1296 H 113.396 -2.99947 -0.880386 0
M  V30 1297 H 112.616 -3.63617 1.52238 0
M  V30 1298 H 113.904 -4.85393 1.52548 0
M  V30 1299 H 113.302 -5.42482 -1.60405 0
M  V30 1300 H 111.859 -6.34859 -1.47641 0
M  V30 1301 N 115.292 -0.849877 -1.32721 0
M  V30 1302 C 116.224 -0.248332 -2.27851 0
M  V30 1303 C 117.237 0.577218 -1.52224 0
M  V30 1304 O 118.426 0.402489 -1.73903 0
M  V30 1305 C 115.526 0.668107 -3.32249 0
M  V30 1306 C 114.699 -0.120534 -4.37234 0
M  V30 1307 C 113.758 0.720932 -5.21238 0
M  V30 1308 O 112.784 0.156166 -5.68986 0
M  V30 1309 N 113.986 2.03647 -5.43607 0
M  V30 1310 H 116.751 -1.06575 -2.80111 0
M  V30 1311 H 114.312 -0.709395 -1.45531 0
M  V30 1312 H 116.304 1.23627 -3.85355 0
M  V30 1313 H 114.874 1.38621 -2.80184 0
M  V30 1314 H 114.094 -0.870108 -3.84477 0
M  V30 1315 H 115.382 -0.662406 -5.0447 0
M  V30 1316 H 114.78 2.51871 -5.06535 0
M  V30 1317 H 113.337 2.55287 -5.99727 0
M  V30 1318 N 116.77 1.45427 -0.607355 0
M  V30 1319 C 117.7 2.3329 0.0989352 0
M  V30 1320 C 118.681 1.46816 0.859007 0
M  V30 1321 O 119.866 1.75588 0.829604 0
M  V30 1322 C 116.996 3.29518 1.09705 0
M  V30 1323 C 115.95 4.25626 0.450206 0
M  V30 1324 C 115.276 5.11542 1.55655 0
M  V30 1325 C 116.576 5.18505 -0.628455 0
M  V30 1326 H 118.27 2.92595 -0.634716 0
M  V30 1327 H 115.816 1.40696 -0.306681 0
M  V30 1328 H 117.769 3.89855 1.59971 0
M  V30 1329 H 116.493 2.68372 1.86129 0
M  V30 1330 H 115.152 3.66586 -0.0315886 0
M  V30 1331 H 114.8 4.46765 2.31107 0
M  V30 1332 H 114.5 5.76647 1.12925 0
M  V30 1333 H 116.024 5.74748 2.06148 0
M  V30 1334 H 117.438 5.72916 -0.209877 0
M  V30 1335 H 115.835 5.92085 -0.977489 0
M  V30 1336 H 116.905 4.60948 -1.50514 0
M  V30 1337 N 118.248 0.346503 1.53744 0
M  V30 1338 C 119.659 -0.136779 1.86198 0
M  V30 1339 C 120.01 -1.49749 1.26766 0
M  V30 1340 O 119.135 -2.08417 0.582355 0
M  V30 1341 C 119.73 -0.254966 3.37839 0
M  V30 1342 C 118.289 -0.682482 3.70161 0
M  V30 1343 C 117.436 0.181981 2.76702 0
M  V30 1344 H 120.387 0.565994 1.48264 0
M  V30 1345 H 120.408 -1.08195 3.64793 0
M  V30 1346 H 119.92 0.735526 3.81066 0
M  V30 1347 H 118.021 -1.68189 3.3248 0
M  V30 1348 H 118.134 -0.470326 4.76786 0
M  V30 1349 H 116.498 -0.34615 2.52337 0
M  V30 1350 H 117.281 1.16966 3.2276 0
M  V30 1351 N 119.726 -1.57421 0.075193 0
M  V30 1352 C 120.689 -2.11791 -0.876203 0
M  V30 1353 C 121.689 -1.04268 -1.22412 0
M  V30 1354 O 122.879 -1.30242 -1.15684 0
M  V30 1355 C 120.011 -2.62207 -2.17854 0
M  V30 1356 H 121.204 -2.9716 -0.40444 0
M  V30 1357 H 118.757 -1.55333 -0.173557 0
M  V30 1358 H 119.492 -1.803 -2.6956 0
M  V30 1359 H 119.277 -3.40802 -1.93897 0
M  V30 1360 H 120.767 -3.04335 -2.85955 0
M  V30 1361 N 121.204 0.198386 -1.56346 0
M  V30 1362 C 122.434 0.934215 -1.84271 0
M  V30 1363 C 122.842 1.77496 -0.655125 0
M  V30 1364 O 122.185 1.7961 0.385488 0
M  V30 1365 C 122.247 1.88278 -3.06254 0
M  V30 1366 C 121.911 1.22431 -4.40295 0
M  V30 1367 C 122.908 0.602839 -5.16393 0
M  V30 1368 C 120.593 1.22915 -4.87029 0
M  V30 1369 C 122.587 -0.0050083 -6.374 0
M  V30 1370 C 120.274 0.617465 -6.07973 0
M  V30 1371 C 121.272 0.00146341 -6.83 0
M  V30 1372 O 120.96 -0.600642 -8.01653 0
M  V30 1373 H 120.692 0.278245 -0.616081 0
M  V30 1374 H 123.246 0.211626 -2.04307 0
M  V30 1375 H 121.476 2.64498 -2.82095 0
M  V30 1376 H 123.165 2.48612 -3.20853 0
M  V30 1377 H 123.931 0.591265 -4.81382 0
M  V30 1378 H 119.81 1.69801 -4.28589 0
M  V30 1379 H 123.354 -0.48643 -6.95902 0
M  V30 1380 H 119.251 0.62653 -6.42452 0
M  V30 1381 H 120.019 -0.497225 -8.16988 0
M  V30 1382 N 122.682 1.50554 0.465978 0
M  V30 1383 C 123.614 1.65949 1.58093 0
M  V30 1384 C 124.627 0.540827 1.53554 0
M  V30 1385 O 125.816 0.814187 1.5885 0
M  V30 1386 C 122.916 1.63261 2.96983 0
M  V30 1387 C 122.089 2.91245 3.26336 0
M  V30 1388 C 121.148 2.8113 4.44806 0
M  V30 1389 O 120.174 3.55086 4.44862 0
M  V30 1390 N 121.376 1.95032 5.46756 0
M  V30 1391 H 124.141 2.62122 1.45301 0
M  V30 1392 H 121.702 1.48082 0.65448 0
M  V30 1393 H 123.694 1.54101 3.74212 0
M  V30 1394 H 122.264 0.748032 3.03518 0
M  V30 1395 H 121.484 3.14493 2.37672 0
M  V30 1396 H 122.772 3.76022 3.42761 0
M  V30 1397 H 122.17 1.3427 5.49534 0
M  V30 1398 H 120.727 1.91772 6.2295 0
M  V30 1399 N 124.16 -0.719506 1.40217 0
M  V30 1400 C 125.408 -1.47641 1.3801 0
M  V30 1401 C 125.729 -1.94992 -0.018145 0
M  V30 1402 O 124.999 -1.70073 -0.972207 0
M  V30 1403 H 123.579 -0.547744 0.507923 0
M  V30 1404 H 126.241 -0.853187 1.75233 0
M  V30 1405 H 125.337 -2.35112 2.05253 0
M  V30 1406 N 125.638 -1.25649 -0.95132 0
M  V30 1407 C 126.548 -1.08073 -2.08224 0
M  V30 1408 C 127.564 -0.0169666 -1.73992 0
M  V30 1409 O 128.74 -0.218593 -2.0021 0
M  V30 1410 C 125.805 -0.704922 -3.39458 0
M  V30 1411 C 124.866 -1.84699 -3.87537 0
M  V30 1412 C 124.099 -1.48902 -5.12508 0
M  V30 1413 O 124.322 -0.386156 -5.69091 0
M  V30 1414 O 123.256 -2.32033 -5.55378 0
M  V30 1415 H 127.082 -2.02924 -2.25954 0
M  V30 1416 H 124.667 -1.04618 -1.06656 0
M  V30 1417 H 126.549 -0.507609 -4.18332 0
M  V30 1418 H 125.224 0.214291 -3.2299 0
M  V30 1419 H 124.131 -2.09919 -3.09653 0
M  V30 1420 H 125.464 -2.74557 -4.08509 0
M  V30 1421 N 127.117 1.15442 -1.07289 0
M  V30 1422 C 128.365 1.85845 -0.794096 0
M  V30 1423 C 128.686 1.82692 0.681809 0
M  V30 1424 O 127.956 1.26741 1.49377 0
M  V30 1425 H 126.536 0.688089 -0.290763 0
M  V30 1426 H 129.198 1.39947 -1.3565 0
M  V30 1427 H 128.294 2.91001 -1.12804 0
M  V30 1428 N 128.595 0.856903 1.32268 0
M  V30 1429 C 130.006 0.515711 1.79436 0
M  V30 1430 C 130.357 -0.966586 1.70738 0
M  V30 1431 O 129.482 -1.75409 1.26731 0
M  V30 1432 C 130.077 0.929335 3.25805 0
M  V30 1433 C 128.636 0.640006 3.70919 0
M  V30 1434 C 127.783 1.12784 2.53328 0
M  V30 1435 H 130.734 1.04389 1.19535 0
M  V30 1436 H 130.755 0.246633 3.797 0
M  V30 1437 H 130.267 2.00821 3.32103 0
M  V30 1438 H 128.368 -0.428051 3.70133 0
M  V30 1439 H 128.481 1.20788 4.63624 0
M  V30 1440 H 126.845 0.548033 2.48734 0
M  V30 1441 H 127.628 2.21387 2.62379 0
M  V30 1442 N 130.073 -1.45103 0.615059 0
M  V30 1443 C 131.303 -2.06254 0.119596 0
M  V30 1444 C 131.711 -1.4591 -1.20445 0
M  V30 1445 O 131.054 -0.570384 -1.7462 0
M  V30 1446 C 131.116 -3.59396 -0.0865591 0
M  V30 1447 C 130.78 -4.42116 1.15683 0
M  V30 1448 C 131.777 -4.7662 2.07676 0
M  V30 1449 C 129.462 -4.82749 1.38775 0
M  V30 1450 C 131.456 -5.50622 3.21082 0
M  V30 1451 C 129.143 -5.56504 2.52481 0
M  V30 1452 C 130.141 -5.90358 3.43463 0
M  V30 1453 O 129.829 -6.62615 4.55189 0
M  V30 1454 H 129.561 -0.672423 0.0694512 0
M  V30 1455 H 132.115 -1.87219 0.844885 0
M  V30 1456 H 130.345 -3.76859 -0.866823 0
M  V30 1457 H 132.034 -4.02365 -0.534555 0
M  V30 1458 H 132.8 -4.4578 1.91063 0
M  V30 1459 H 128.679 -4.55829 0.688545 0
M  V30 1460 H 132.223 -5.76965 3.92119 0
M  V30 1461 H 128.12 -5.86759 2.69043 0
M  V30 1462 H 128.888 -6.81071 4.53966 0
M  V30 1463 N 131.551 -0.354651 -1.53558 0
M  V30 1464 C 132.791 0.238651 -2.03002 0
M  V30 1465 C 133.155 1.46878 -1.23656 0
M  V30 1466 O 134.356 2.13699 -1.63053 0
M  V30 1467 C 132.627 0.534175 -3.53386 0
M  V30 1468 S 134.186 1.10271 -4.24719 0
M  V30 1469 H 131.004 0.0702908 -0.707517 0
M  V30 1470 H 133.606 -0.494987 -1.8913 0
M  V30 1471 H 132.31 -0.368765 -4.0874 0
M  V30 1472 H 131.841 1.29718 -3.71398 0
M  V30 1473 H 133.856 2.38772 -4.34974 0
M  V30 1474 N 133.029 1.57378 -0.0835403 0
M  V30 1475 C 133.977 2.14602 0.89714 0
M  V30 1476 C 134.971 1.08589 1.30018 0
M  V30 1477 O 136.177 1.26952 1.27606 0
M  V30 1478 H 132.552 0.686346 0.3073 0
M  V30 1479 H 134.523 2.95845 0.38969 0
M  V30 1480 C 133.272 2.73188 2.15089 0
M  V30 1481 H 132.595 3.54442 1.84962 0
M  V30 1482 H 134.035 3.1681 2.81793 0
M  V30 1483 C 132.494 1.68517 2.91725 0
M  V30 1484 O 133.024 1.11718 3.85852 0
M  V30 1485 N 131.23 1.39277 2.55049 0
M  V30 1486 H 130.777 1.85655 1.78577 0
M  V30 1487 H 130.735 0.694791 3.06627 0
M  V30 1488 N 134.507 -0.190092 1.56449 0
M  V30 1489 C 135.923 -0.54113 1.50146 0
M  V30 1490 C 136.123 -1.85603 0.784465 0
M  V30 1491 O 135.179 -2.5024 0.337051 0
M  V30 1492 C 136.492 -0.591241 2.9483 0
M  V30 1493 C 138.04 -0.679732 3.0553 0
M  V30 1494 C 138.515 -0.760908 4.51635 0
M  V30 1495 N 140.006 -0.824302 4.55806 0
M  V30 1496 C 140.741 -0.907365 5.66175 0
M  V30 1497 N 140.237 -0.952422 6.86222 0
M  V30 1498 N 142.03 -0.94494 5.541 0
M  V30 1499 H 134.181 0.67235 2.01478 0
M  V30 1500 H 136.444 0.240127 0.917084 0
M  V30 1501 H 136.15 0.305905 3.50367 0
M  V30 1502 H 136.024 -1.44422 3.48457 0
M  V30 1503 H 138.411 -1.56731 2.50039 0
M  V30 1504 H 138.492 0.199549 2.5502 0
M  V30 1505 H 138.136 0.122336 5.07753 0
M  V30 1506 H 138.066 -1.65606 4.99882 0
M  V30 1507 H 140.557 -0.798526 3.69367 0
M  V30 1508 H 140.87 -1.01645 7.66086 0
M  V30 1509 H 139.215 -0.921014 6.8887 0
M  V30 1510 H 142.406 -0.906612 4.59236 0
M  V30 1511 H 142.579 -1.00622 6.4014 0
M  V30 1512 N 135.985 -1.50799 -0.457987 0
M  V30 1513 C 137.213 -1.66218 -1.23203 0
M  V30 1514 C 137.628 -0.350894 -1.85511 0
M  V30 1515 O 136.985 0.668546 -1.69814 0
M  V30 1516 C 137.036 -2.76291 -2.33121 0
M  V30 1517 O 136.757 -4.02338 -1.73366 0
M  V30 1518 C 138.258 -3.028 -3.2377 0
M  V30 1519 H 135.478 -0.558361 -0.372121 0
M  V30 1520 H 138.022 -1.97099 -0.545179 0
M  V30 1521 H 136.177 -2.48068 -2.97558 0
M  V30 1522 H 136.591 -4.63312 -2.4585 0
M  V30 1523 H 138.065 -3.8345 -3.97077 0
M  V30 1524 H 138.542 -2.14385 -3.83322 0
M  V30 1525 H 139.148 -3.32604 -2.65056 0
M  V30 1526 N 137.463 0.71206 -1.40597 0
M  V30 1527 C 138.709 1.47292 -1.40274 0
M  V30 1528 C 139.064 1.92399 -0.00576812 0
M  V30 1529 O 138.357 1.65507 0.965297 0
M  V30 1530 C 138.551 2.71039 -2.32965 0
M  V30 1531 C 138.38 2.38035 -3.81536 0
M  V30 1532 C 137.15 2.29203 -4.50327 0
M  V30 1533 C 139.348 2.02076 -4.72938 0
M  V30 1534 N 137.33 1.88911 -5.84111 0
M  V30 1535 C 138.701 1.72412 -5.95545 0
M  V30 1536 C 140.756 1.88742 -4.60739 0
M  V30 1537 C 139.459 1.30756 -7.07316 0
M  V30 1538 C 141.485 1.4849 -5.72455 0
M  V30 1539 C 140.847 1.19726 -6.94151 0
M  V30 1540 H 136.946 0.536919 -0.568544 0
M  V30 1541 H 139.53 0.825424 -1.76337 0
M  V30 1542 H 137.701 3.33533 -1.99023 0
M  V30 1543 H 139.433 3.37404 -2.23474 0
M  V30 1544 H 136.188 2.47059 -4.04053 0
M  V30 1545 H 136.612 1.71293 -6.54972 0
M  V30 1546 H 141.254 2.0964 -3.67166 0
M  V30 1547 H 138.972 1.08601 -8.00769 0
M  V30 1548 H 142.558 1.38747 -5.65014 0
M  V30 1549 H 141.438 0.890482 -7.79128 0
M  V30 1550 N 138.941 1.26152 0.944643 0
M  V30 1551 C 140.218 1.02247 1.66748 0
M  V30 1552 C 140.598 -0.448202 2.06287 0
M  V30 1553 O 139.946 -1.42779 1.78399 0
M  V30 1554 C 140.156 1.96788 2.88228 0
M  V30 1555 C 141.504 2.25201 3.59958 0
M  V30 1556 O 142.528 1.94626 2.98327 0
M  V30 1557 O 141.387 2.77242 4.70956 0
M  V30 1558 H 138.481 0.388517 0.730057 0
M  V30 1559 H 141.027 1.37348 0.99668 0
M  V30 1560 H 139.799 2.96047 2.55875 0
M  V30 1561 H 139.422 1.62145 3.63035 0
M  V30 1562 N 140.419 -1.14872 1.07899 0
M  V30 1563 C 141.667 -1.85422 0.803941 0
M  V30 1564 C 141.988 -1.83051 -0.67211 0
M  V30 1565 O 141.258 -1.27532 -1.48703 0
M  V30 1566 H 139.838 -0.686537 0.294408 0
M  V30 1567 H 142.5 -1.39226 1.3639 0
M  V30 1568 H 141.596 -2.90399 1.14346 0
M  V30 1569 N 141.898 -0.863906 -1.31812 0
M  V30 1570 C 143.144 -0.481841 -1.9761 0
M  V30 1571 C 143.499 0.954048 -1.6708 0
M  V30 1572 O 142.792 1.66182 -0.953624 0
M  V30 1573 C 142.986 -0.668547 -3.51091 0
M  V30 1574 C 142.815 -2.12103 -3.96538 0
M  V30 1575 C 141.585 -2.76141 -4.23171 0
M  V30 1576 C 143.783 -3.09265 -4.10925 0
M  V30 1577 N 141.765 -4.12205 -4.54929 0
M  V30 1578 C 143.136 -4.30341 -4.46326 0
M  V30 1579 C 145.191 -3.05337 -3.93286 0
M  V30 1580 C 143.894 -5.48 -4.65928 0
M  V30 1581 C 145.92 -4.22248 -4.14078 0
M  V30 1582 C 145.282 -5.42085 -4.49804 0
M  V30 1583 H 141.381 -0.225238 -0.74886 0
M  V30 1584 H 143.965 -1.11723 -1.59455 0
M  V30 1585 H 142.136 -0.0627898 -3.88349 0
M  V30 1586 H 143.868 -0.255467 -4.03893 0
M  V30 1587 H 140.623 -2.27125 -4.15585 0
M  V30 1588 H 141.047 -4.82416 -4.74978 0
M  V30 1589 H 145.689 -2.138 -3.64759 0
M  V30 1590 H 143.407 -6.40059 -4.93305 0
M  V30 1591 H 146.993 -4.20654 -4.01922 0
M  V30 1592 H 145.873 -6.31044 -4.65567 0
M  V30 1593 N 143.376 1.44774 -0.622745 0
M  V30 1594 C 144.306 2.33382 0.0741861 0
M  V30 1595 C 145.287 1.47719 0.843387 0
M  V30 1596 O 146.472 1.76458 0.810934 0
M  V30 1597 C 143.602 3.30663 1.06204 0
M  V30 1598 C 142.556 4.26079 0.405037 0
M  V30 1599 C 141.882 5.13165 1.5022 0
M  V30 1600 C 143.182 5.1781 -0.683414 0
M  V30 1601 H 144.876 2.91905 -0.665713 0
M  V30 1602 H 142.422 1.40363 -0.321587 0
M  V30 1603 H 144.375 3.9153 1.55827 0
M  V30 1604 H 143.099 2.70331 1.83272 0
M  V30 1605 H 141.758 3.66532 -0.0704683 0
M  V30 1606 H 141.406 4.49191 2.26355 0
M  V30 1607 H 141.106 5.77812 1.06803 0
M  V30 1608 H 142.63 5.76902 2.00041 0
M  V30 1609 H 144.044 5.72661 -0.270631 0
M  V30 1610 H 142.441 5.91015 -1.04023 0
M  V30 1611 H 143.511 4.59326 -1.55395 0
M  V30 1612 N 144.854 0.36279 1.53368 0
M  V30 1613 C 146.094 -0.227882 2.03126 0
M  V30 1614 C 146.458 -1.4622 1.24434 0
M  V30 1615 O 147.659 -2.12831 1.64184 0
M  V30 1616 C 145.93 -0.515427 3.53664 0
M  V30 1617 S 147.489 -1.08017 4.25297 0
M  V30 1618 H 144.307 -0.0665377 0.70788 0
M  V30 1619 H 146.909 0.50501 1.88865 0
M  V30 1620 H 145.613 0.390436 4.08539 0
M  V30 1621 H 145.144 -1.27747 3.72081 0
M  V30 1622 H 147.159 -2.36462 4.36234 0
M  V30 1623 N 146.332 -1.57332 0.0918853 0
M  V30 1624 C 147.578 -1.95328 -0.567313 0
M  V30 1625 C 147.933 -0.972866 -1.65991 0
M  V30 1626 O 147.226 0.00166256 -1.916 0
M  V30 1627 C 147.42 -3.37689 -1.17051 0
M  V30 1628 C 147.249 -4.49489 -0.137875 0
M  V30 1629 C 146.019 -5.04498 0.284515 0
M  V30 1630 C 148.217 -5.10393 0.63271 0
M  V30 1631 N 146.199 -5.99853 1.30576 0
M  V30 1632 C 147.57 -6.01435 1.50587 0
M  V30 1633 C 149.625 -4.93143 0.68658 0
M  V30 1634 C 148.328 -6.77077 2.42815 0
M  V30 1635 C 150.354 -5.69445 1.59645 0
M  V30 1636 C 149.716 -6.60151 2.45725 0
M  V30 1637 H 145.815 -0.761467 -0.178023 0
M  V30 1638 H 148.399 -1.93924 0.173706 0
M  V30 1639 H 146.57 -3.39793 -1.88136 0
M  V30 1640 H 148.302 -3.62872 -1.79181 0
M  V30 1641 H 145.057 -4.73489 -0.102593 0
M  V30 1642 H 145.481 -6.52231 1.81449 0
M  V30 1643 H 150.123 -4.22785 0.035244 0
M  V30 1644 H 147.841 -7.46699 3.08975 0
M  V30 1645 H 151.427 -5.58112 1.64323 0
M  V30 1646 H 150.307 -7.18159 3.14987 0
M  V30 1647 N 147.81 0.181792 -1.56548 0
M  V30 1648 C 149.087 0.926765 -1.72251 0
M  V30 1649 C 149.467 2.00831 -0.650386 0
M  V30 1650 O 148.815 2.26008 0.336521 0
M  V30 1651 C 149.025 1.50106 -3.1507 0
M  V30 1652 C 150.373 1.97805 -3.75711 0
M  V30 1653 O 151.397 1.59922 -3.18282 0
M  V30 1654 O 150.256 2.67555 -4.76525 0
M  V30 1655 H 147.35 0.435506 -0.703039 0
M  V30 1656 H 149.896 0.170443 -1.68842 0
M  V30 1657 H 148.668 0.72212 -3.84579 0
M  V30 1658 H 148.291 2.32186 -3.22763 0
M  V30 1659 N 149.288 1.51039 0.449983 0
M  V30 1660 C 150.565 1.53612 1.21089 0
M  V30 1661 C 150.945 0.292997 2.09057 0
M  V30 1662 O 150.293 -0.72259 2.16774 0
M  V30 1663 C 150.503 2.84337 2.0237 0
M  V30 1664 C 151.851 3.35807 2.59843 0
M  V30 1665 O 152.875 2.85802 2.12593 0
M  V30 1666 O 151.734 4.23029 3.45989 0
M  V30 1667 H 148.828 0.617057 0.550608 0
M  V30 1668 H 151.374 1.63344 0.460082 0
M  V30 1669 H 150.146 3.66278 1.37681 0
M  V30 1670 H 149.769 2.77708 2.84542 0
M  V30 1671 N 150.766 -0.704594 1.40972 0
M  V30 1672 C 151.994 -1.49354 1.43182 0
M  V30 1673 C 152.409 -1.88768 0.0345508 0
M  V30 1674 O 151.766 -1.56184 -0.944081 0
M  V30 1675 C 151.817 -2.76187 2.33244 0
M  V30 1676 O 151.538 -2.38436 3.67532 0
M  V30 1677 C 153.039 -3.7 2.44162 0
M  V30 1678 H 150.259 -0.460559 0.487982 0
M  V30 1679 H 152.803 -0.868261 1.85153 0
M  V30 1680 H 150.958 -3.34974 1.94606 0
M  V30 1681 H 151.372 -3.20126 4.15475 0
M  V30 1682 H 152.846 -4.55803 3.11364 0
M  V30 1683 H 153.323 -4.13867 1.47006 0
M  V30 1684 H 153.929 -3.17121 2.83398 0
M  V30 1685 N 152.244 -1.26651 -0.937939 0
M  V30 1686 C 153.655 -1.1125 -1.49934 0
M  V30 1687 C 154.006 0.306077 -1.93798 0
M  V30 1688 O 153.131 1.19792 -1.80219 0
M  V30 1689 C 153.726 -2.01339 -2.72485 0
M  V30 1690 C 152.285 -1.90074 -3.24883 0
M  V30 1691 C 151.432 -1.94498 -1.97651 0
M  V30 1692 H 154.383 -1.39693 -0.753091 0
M  V30 1693 H 154.404 -1.56319 -3.46907 0
M  V30 1694 H 153.916 -3.04577 -2.40529 0
M  V30 1695 H 152.017 -0.897827 -3.61621 0
M  V30 1696 H 152.13 -2.75778 -3.9177 0
M  V30 1697 H 150.494 -1.38591 -2.13693 0
M  V30 1698 H 151.277 -2.99372 -1.68022 0
M  V30 1699 N 153.722 1.14298 -1.08507 0
M  V30 1700 C 154.685 2.17607 -0.719711 0
M  V30 1701 C 155.685 1.58907 0.245997 0
M  V30 1702 O 156.875 1.74181 0.0254081 0
M  V30 1703 C 154.007 3.40842 -0.0627695 0
M  V30 1704 H 155.2 2.51443 -1.63452 0
M  V30 1705 H 152.753 1.28963 -0.88307 0
M  V30 1706 H 153.488 3.12587 0.863716 0
M  V30 1707 H 153.273 3.84713 -0.757504 0
M  V30 1708 H 154.763 4.17221 0.177786 0
M  V30 1709 N 155.201 0.870884 1.31352 0
M  V30 1710 C 156.449 0.48132 1.96285 0
M  V30 1711 C 156.77 -0.969813 1.69173 0
M  V30 1712 O 156.04 -1.67998 1.00764 0
M  V30 1713 H 154.62 0.175002 0.726212 0
M  V30 1714 H 157.282 1.11087 1.60143 0
M  V30 1715 H 156.378 0.639825 3.05471 0
M  V30 1716 N 156.679 -1.44442 0.630414 0
M  V30 1717 C 157.925 -2.02351 0.134816 0
M  V30 1718 C 158.258 -1.4947 -1.23986 0
M  V30 1719 O 157.533 -0.678475 -1.82283 0
M  V30 1720 C 157.816 -3.59898 0.120707 0
M  V30 1721 C 157.669 -4.23063 1.52767 0
M  V30 1722 C 158.988 -4.36585 -0.555127 0
M  V30 1723 H 156.107 -0.73527 0.0504646 0
M  V30 1724 H 158.749 -1.72022 0.806751 0
M  V30 1725 H 156.899 -3.85868 -0.451477 0
M  V30 1726 H 158.571 -4.08202 2.14869 0
M  V30 1727 H 156.814 -3.80586 2.08175 0
M  V30 1728 H 157.485 -5.32071 1.46984 0
M  V30 1729 H 159.961 -4.16044 -0.0685429 0
M  V30 1730 H 158.837 -5.46294 -0.534185 0
M  V30 1731 H 159.098 -4.11138 -1.62535 0
M  V30 1732 N 158.157 -0.370918 -1.53173 0
M  V30 1733 C 159.087 0.464847 -2.28826 0
M  V30 1734 C 160.068 1.07936 -1.31468 0
M  V30 1735 O 161.253 1.0956 -1.60344 0
M  V30 1736 C 158.383 1.60196 -3.08147 0
M  V30 1737 C 157.337 1.11443 -4.13237 0
M  V30 1738 C 156.663 2.3422 -4.80672 0
M  V30 1739 C 157.963 0.195384 -5.21934 0
M  V30 1740 H 159.657 -0.166329 -2.98938 0
M  V30 1741 H 157.203 -0.0814359 -1.4377 0
M  V30 1742 H 159.156 2.19332 -3.59822 0
M  V30 1743 H 157.88 2.26045 -2.35735 0
M  V30 1744 H 156.539 0.545727 -3.62515 0
M  V30 1745 H 156.187 2.98537 -4.04827 0
M  V30 1746 H 155.887 2.02269 -5.51689 0
M  V30 1747 H 157.411 2.94032 -5.35143 0
M  V30 1748 H 158.825 0.694375 -5.69079 0
M  V30 1749 H 157.222 -0.0335027 -6.00091 0
M  V30 1750 H 158.292 -0.760961 -4.78892 0
M  V30 1751 N 159.635 1.57281 -0.100228 0
M  V30 1752 C 160.86 1.99302 0.573881 0
M  V30 1753 C 161.285 0.979059 1.60611 0
M  V30 1754 O 160.643 -0.0517803 1.81226 0
M  V30 1755 C 160.691 3.40274 1.19358 0
M  V30 1756 O 159.795 3.41676 2.30935 0
M  V30 1757 H 159.136 0.647944 0.145138 0
M  V30 1758 H 161.666 2.03779 -0.183156 0
M  V30 1759 H 161.676 3.78078 1.53365 0
M  V30 1760 H 160.351 4.13594 0.437385 0
M  V30 1761 H 158.928 3.15672 1.98509 0
M  V30 1762 N 161.113 -0.173488 1.56642 0
M  V30 1763 C 162.343 -0.904781 1.85734 0
M  V30 1764 C 162.751 -1.76431 0.68328 0
M  V30 1765 O 162.094 -1.802 -0.356865 0
M  V30 1766 C 162.156 -1.83382 3.09211 0
M  V30 1767 C 161.82 -1.15411 4.42187 0
M  V30 1768 C 162.817 -0.520609 5.17287 0
M  V30 1769 C 160.502 -1.15151 4.88923 0
M  V30 1770 C 162.496 0.106412 6.37311 0
M  V30 1771 C 160.183 -0.520664 6.08878 0
M  V30 1772 C 161.181 0.107196 6.82916 0
M  V30 1773 O 160.869 0.728102 8.00596 0
M  V30 1774 H 160.601 -0.268408 0.62043 0
M  V30 1775 H 163.155 -0.179096 2.04618 0
M  V30 1776 H 161.385 -2.59976 2.86268 0
M  V30 1777 H 163.074 -2.43476 3.24768 0
M  V30 1778 H 163.84 -0.514606 4.82262 0
M  V30 1779 H 159.719 -1.62961 4.31236 0
M  V30 1780 H 163.263 0.597081 6.9504 0
M  V30 1781 H 159.16 -0.524242 6.43368 0
M  V30 1782 H 159.928 0.627138 8.16094 0
M  V30 1783 N 162.591 -1.51276 -0.441967 0
M  V30 1784 C 163.523 -1.68444 -1.55433 0
M  V30 1785 C 164.536 -0.565187 -1.52674 0
M  V30 1786 O 165.725 -0.839356 -1.57534 0
M  V30 1787 C 162.825 -1.67966 -2.94348 0
M  V30 1788 C 161.998 -2.964 -3.21661 0
M  V30 1789 C 161.057 -2.88171 -4.40277 0
M  V30 1790 O 160.083 -3.62119 -4.39157 0
M  V30 1791 N 161.285 -2.03706 -5.43584 0
M  V30 1792 H 164.05 -2.644 -1.41112 0
M  V30 1793 H 161.611 -1.49104 -0.630838 0
M  V30 1794 H 163.603 -1.60035 -3.71713 0
M  V30 1795 H 162.173 -0.796225 -3.0229 0
M  V30 1796 H 161.393 -3.18234 -2.32638 0
M  V30 1797 H 162.681 -3.81427 -3.36736 0
M  V30 1798 H 162.079 -1.42995 -5.47329 0
M  V30 1799 H 160.636 -2.01658 -6.1982 0
M  V30 1800 N 164.069 0.697108 -1.41344 0
M  V30 1801 C 165.316 1.45714 -1.40619 0
M  V30 1802 C 165.644 1.94494 -0.0147907 0
M  V30 1803 O 164.899 1.69794 0.973066 0
M  V30 1804 C 165.198 2.68553 -2.35826 0
M  V30 1805 C 164.864 2.38438 -3.82698 0
M  V30 1806 C 163.526 2.29936 -4.22709 0
M  V30 1807 C 165.878 2.13567 -4.75435 0
M  V30 1808 C 163.206 1.94656 -5.53467 0
M  V30 1809 C 165.558 1.79797 -6.06511 0
M  V30 1810 C 164.222 1.69789 -6.45545 0
M  V30 1811 H 163.492 0.533206 -0.51456 0
M  V30 1812 H 166.139 0.796901 -1.74131 0
M  V30 1813 H 164.444 3.39503 -1.95563 0
M  V30 1814 H 166.141 3.2669 -2.32539 0
M  V30 1815 H 162.731 2.4595 -3.51008 0
M  V30 1816 H 166.915 2.19082 -4.45328 0
M  V30 1817 H 162.171 1.8546 -5.82593 0
M  V30 1818 H 166.345 1.59572 -6.77872 0
M  V30 1819 H 163.972 1.4222 -7.46778 0
M  V30 1820 N 165.547 1.27147 0.931209 0
M  V30 1821 C 166.787 1.14511 1.69312 0
M  V30 1822 C 167.151 -0.304638 1.89568 0
M  V30 1823 O 168.352 -0.553343 2.63043 0
M  V30 1824 C 166.623 1.90349 3.02493 0
M  V30 1825 S 168.182 1.93884 3.93642 0
M  V30 1826 H 165 0.408858 0.581684 0
M  V30 1827 H 167.602 1.61006 1.10893 0
M  V30 1828 H 166.306 2.94877 2.85439 0
M  V30 1829 H 165.837 1.44333 3.65966 0
M  V30 1830 H 167.852 1.03273 4.85334 0
M  V30 1831 N 167.025 -1.13721 1.09112 0
M  V30 1832 C 168.436 -1.6648 0.845068 0
M  V30 1833 C 168.787 -1.85911 -0.62701 0
M  V30 1834 O 167.912 -1.57556 -1.48341 0
M  V30 1835 C 168.507 -3.02413 1.52748 0
M  V30 1836 C 167.066 -3.52176 1.32849 0
M  V30 1837 C 166.213 -2.27492 1.58564 0
M  V30 1838 H 169.164 -0.976872 1.25072 0
M  V30 1839 H 169.185 -3.68223 0.958752 0
M  V30 1840 H 168.697 -2.88238 2.59885 0
M  V30 1841 H 166.798 -3.7156 0.278137 0
M  V30 1842 H 166.911 -4.32499 2.0611 0
M  V30 1843 H 165.275 -2.33923 1.00758 0
M  V30 1844 H 166.058 -2.15886 2.66924 0
M  V30 1845 N 168.503 -0.877838 -1.30888 0
M  V30 1846 C 169.78 -0.413052 -1.91189 0
M  V30 1847 C 170.16 1.1056 -1.79832 0
M  V30 1848 O 169.508 1.93771 -1.21099 0
M  V30 1849 C 169.718 -0.903191 -3.3711 0
M  V30 1850 C 171.066 -0.93395 -4.14201 0
M  V30 1851 O 172.09 -0.849373 -3.45925 0
M  V30 1852 O 170.949 -1.05772 -5.36167 0
M  V30 1853 H 168.043 -0.125035 -0.817493 0
M  V30 1854 H 170.589 -0.966269 -1.39504 0
M  V30 1855 H 169.361 -1.94692 -3.39427 0
M  V30 1856 H 168.984 -0.328732 -3.96239 0
M  V30 1857 N 169.982 1.44106 -0.638065 0
M  V30 1858 C 171.212 2.06037 -0.152394 0
M  V30 1859 C 171.62 1.47808 1.18108 0
M  V30 1860 O 170.963 0.598092 1.73691 0
M  V30 1861 C 171.025 3.59488 0.0293714 0
M  V30 1862 C 170.689 4.4022 -1.22702 0
M  V30 1863 C 171.686 4.73256 -2.15232 0
M  V30 1864 C 169.371 4.8048 -1.46437 0
M  V30 1865 C 171.365 5.45444 -3.29802 0
M  V30 1866 C 169.052 5.52417 -2.61303 0
M  V30 1867 C 170.05 5.84819 -3.52811 0
M  V30 1868 O 169.738 6.55289 -4.65673 0
M  V30 1869 H 169.47 0.671233 -0.0801401 0
M  V30 1870 H 172.024 1.85851 -0.874563 0
M  V30 1871 H 170.254 3.78191 0.806758 0
M  V30 1872 H 171.943 4.03164 0.470475 0
M  V30 1873 H 172.709 4.42684 -1.98131 0
M  V30 1874 H 168.588 4.54676 -0.760977 0
M  V30 1875 H 172.132 5.70653 -4.01249 0
M  V30 1876 H 168.029 5.82404 -2.78344 0
M  V30 1877 H 168.797 6.73762 -4.64744 0
M  V30 1878 N 171.46 0.379036 1.52974 0
M  V30 1879 C 172.707 -0.206421 2.01445 0
M  V30 1880 C 173.035 -1.47668 1.26587 0
M  V30 1881 O 172.29 -1.92514 0.351675 0
M  V30 1882 C 172.589 -0.53096 3.53434 0
M  V30 1883 C 172.255 0.646546 4.46241 0
M  V30 1884 C 170.917 0.969604 4.7133 0
M  V30 1885 C 173.269 1.43479 5.01062 0
M  V30 1886 C 170.597 2.08263 5.48492 0
M  V30 1887 C 172.949 2.53834 5.7944 0
M  V30 1888 C 171.613 2.86659 6.02812 0
M  V30 1889 H 170.883 -0.0755349 0.73714 0
M  V30 1890 H 173.53 0.514271 1.84465 0
M  V30 1891 H 171.835 -1.33285 3.68432 0
M  V30 1892 H 173.532 -0.996417 3.88423 0
M  V30 1893 H 170.122 0.384734 4.2687 0
M  V30 1894 H 174.306 1.19844 4.81613 0
M  V30 1895 H 169.562 2.34078 5.64816 0
M  V30 1896 H 173.736 3.15319 6.20924 0
M  V30 1897 H 171.363 3.73026 6.62387 0
M  V30 1898 N 172.938 -1.57226 0.108567 0
M  V30 1899 C 174.349 -1.8195 -0.418464 0
M  V30 1900 C 174.7 -1.02508 -1.67292 0
M  V30 1901 O 173.825 -0.258496 -2.14851 0
M  V30 1902 C 174.42 -3.30028 -0.765979 0
M  V30 1903 C 172.979 -3.55469 -1.23769 0
M  V30 1904 C 172.126 -2.7625 -0.241106 0
M  V30 1905 H 175.077 -1.55149 0.33384 0
M  V30 1906 H 175.098 -3.44086 -1.62434 0
M  V30 1907 H 174.61 -3.87821 0.147219 0
M  V30 1908 H 172.711 -3.03022 -2.16814 0
M  V30 1909 H 172.824 -4.6408 -1.19022 0
M  V30 1910 H 171.188 -2.44133 -0.72602 0
M  V30 1911 H 171.971 -3.36797 0.665007 0
M  V30 1912 N 174.416 0.165178 -1.56732 0
M  V30 1913 C 175.693 0.908443 -1.73224 0
M  V30 1914 C 176.073 2.0013 -0.67165 0
M  V30 1915 O 175.421 2.26353 0.31253 0
M  V30 1916 C 175.631 1.46756 -3.16644 0
M  V30 1917 C 176.979 1.93809 -3.77787 0
M  V30 1918 O 178.003 1.56537 -3.1996 0
M  V30 1919 O 176.862 2.62486 -4.79336 0
M  V30 1920 H 173.956 0.428025 -0.707618 0
M  V30 1921 H 176.502 0.152526 -1.69013 0
M  V30 1922 H 175.274 0.68129 -3.85323 0
M  V30 1923 H 174.897 2.28749 -3.25207 0
M  V30 1924 N 175.894 1.51508 0.433938 0
M  V30 1925 C 177.141 1.64345 1.18309 0
M  V30 1926 C 177.469 0.361315 1.91115 0
M  V30 1927 O 176.724 -0.654753 1.84422 0
M  V30 1928 C 177.023 2.79928 2.22205 0
M  V30 1929 C 176.689 4.19078 1.66387 0
M  V30 1930 C 175.351 4.56932 1.50887 0
M  V30 1931 C 177.703 5.05894 1.25381 0
M  V30 1932 C 175.031 5.79305 0.928608 0
M  V30 1933 C 177.383 6.2885 0.687823 0
M  V30 1934 C 176.047 6.65473 0.519755 0
M  V30 1935 H 175.317 0.601381 0.432923 0
M  V30 1936 H 177.964 1.85549 0.473676 0
M  V30 1937 H 176.269 2.52959 2.99197 0
M  V30 1938 H 177.966 2.87059 2.79997 0
M  V30 1939 H 174.556 3.89234 1.79428 0
M  V30 1940 H 178.74 4.77253 1.36175 0
M  V30 1941 H 173.996 6.06324 0.786186 0
M  V30 1942 H 178.17 6.95461 0.361581 0
M  V30 1943 H 175.797 7.6017 0.0679979 0
M  V30 1944 N 177.372 -0.689602 1.41712 0
M  V30 1945 C 178.649 -1.44457 1.31877 0
M  V30 1946 C 179.029 -2.11039 -0.0508537 0
M  V30 1947 O 178.377 -2.02138 -1.06547 0
M  V30 1948 C 178.587 -2.45913 2.47645 0
M  V30 1949 C 179.935 -3.10991 2.89084 0
M  V30 1950 O 180.959 -2.56238 2.47428 0
M  V30 1951 O 179.818 -4.10174 3.61137 0
M  V30 1952 H 176.912 -0.64362 0.519309 0
M  V30 1953 H 179.458 -0.719576 1.53689 0
M  V30 1954 H 178.23 -1.95409 3.39015 0
M  V30 1955 H 177.853 -3.25913 2.27742 0
M  V30 1956 N 178.85 -1.27639 -0.924453 0
M  V30 1957 C 180.261 -1.12834 -1.48746 0
M  V30 1958 C 180.612 0.285505 -1.94112 0
M  V30 1959 O 179.737 1.17874 -1.81479 0
M  V30 1960 C 180.332 -2.04217 -2.70334 0
M  V30 1961 C 178.891 -1.93509 -3.22848 0
M  V30 1962 C 178.038 -1.96583 -1.95577 0
M  V30 1963 H 180.989 -1.40484 -0.738233 0
M  V30 1964 H 181.01 -1.59989 -3.4523 0
M  V30 1965 H 180.522 -3.07111 -2.37285 0
M  V30 1966 H 178.623 -0.936131 -3.60649 0
M  V30 1967 H 178.736 -2.79917 -3.88823 0
M  V30 1968 H 177.1 -1.4085 -2.12211 0
M  V30 1969 H 177.883 -3.01137 -1.64837 0
M  V30 1970 N 180.328 1.1314 -1.09713 0
M  V30 1971 C 181.553 1.88862 -0.857081 0
M  V30 1972 C 181.978 1.78729 0.586304 0
M  V30 1973 O 181.336 1.13692 1.41222 0
M  V30 1974 C 181.384 3.36325 -1.30069 0
M  V30 1975 O 180.488 4.09815 -0.461007 0
M  V30 1976 H 179.829 0.587108 -0.310162 0
M  V30 1977 H 182.359 1.43129 -1.46203 0
M  V30 1978 H 182.369 3.87157 -1.28738 0
M  V30 1979 H 181.044 3.43017 -2.35185 0
M  V30 1980 H 179.621 3.68986 -0.538888 0
M  V30 1981 N 181.806 0.884767 1.30421 0
M  V30 1982 C 182.716 0.355398 2.31892 0
M  V30 1983 C 183.732 -0.542261 1.65335 0
M  V30 1984 O 184.908 -0.435432 1.96637 0
M  V30 1985 C 181.973 -0.421661 3.44126 0
M  V30 1986 C 181.034 0.505727 4.26311 0
M  V30 1987 C 180.267 -0.234343 5.33185 0
M  V30 1988 O 180.49 -1.46045 5.51386 0
M  V30 1989 O 179.424 0.415443 6.00465 0
M  V30 1990 H 183.25 1.19685 2.79122 0
M  V30 1991 H 180.835 0.648596 1.34587 0
M  V30 1992 H 182.717 -0.861641 4.12497 0
M  V30 1993 H 181.392 -1.23942 2.99032 0
M  V30 1994 H 180.299 0.994513 3.60639 0
M  V30 1995 H 181.632 1.28948 4.75009 0
M  V30 1996 N 183.284 -1.43765 0.645699 0
M  V30 1997 C 184.231 -2.30745 -0.0504648 0
M  V30 1998 C 185.201 -1.4432 -0.822241 0
M  V30 1999 O 186.386 -1.73202 -0.800358 0
M  V30 2000 C 183.526 -3.29802 -1.0161 0
M  V30 2001 C 182.639 -4.31326 -0.241219 0
M  V30 2002 C 181.774 -5.17469 -1.19998 0
M  V30 2003 C 180.813 -6.10691 -0.415094 0
M  V30 2004 N 179.95 -6.89483 -1.32506 0
M  V30 2005 H 184.79 -2.8973 0.697155 0
M  V30 2006 H 182.327 -1.42738 0.355563 0
M  V30 2007 H 184.285 -3.85734 -1.58949 0
M  V30 2008 H 182.915 -2.72483 -1.73069 0
M  V30 2009 H 181.967 -3.77749 0.448334 0
M  V30 2010 H 183.279 -4.9743 0.369437 0
M  V30 2011 H 182.433 -5.7799 -1.84424 0
M  V30 2012 H 181.172 -4.51473 -1.84455 0
M  V30 2013 H 180.177 -5.49265 0.242565 0
M  V30 2014 H 181.402 -6.78727 0.224966 0
M  V30 2015 H 179.348 -6.26142 -1.95657 0
M  V30 2016 H 179.265 -7.52081 -0.768783 0
M  V30 2017 H 180.533 -7.54516 -1.9577 0
M  V30 2018 N 184.763 -0.387143 -1.52771 0
M  V30 2019 C 186.009 0.196025 -2.0185 0
M  V30 2020 C 186.342 1.46641 -1.27319 0
M  V30 2021 O 185.617 1.90889 -0.373032 0
M  V30 2022 C 185.9 0.466136 -3.5707 0
M  V30 2023 C 185.753 -0.819385 -4.42274 0
M  V30 2024 C 187.072 1.25768 -4.21747 0
M  V30 2025 H 184.191 0.0697708 -0.73369 0
M  V30 2026 H 186.833 -0.516286 -1.82851 0
M  V30 2027 H 184.983 1.07293 -3.7339 0
M  V30 2028 H 186.655 -1.4563 -4.37709 0
M  V30 2029 H 184.898 -1.43517 -4.09372 0
M  V30 2030 H 185.569 -0.585065 -5.48891 0
M  V30 2031 H 188.045 0.744167 -4.09391 0
M  V30 2032 H 186.921 1.41541 -5.30337 0
M  V30 2033 H 187.182 2.27228 -3.79236 0
M  V30 2034 N 186.241 1.57166 -0.116904 0
M  V30 2035 C 187.469 1.99473 0.549383 0
M  V30 2036 C 187.884 0.996541 1.60357 0
M  V30 2037 O 187.241 -0.0108731 1.82497 0
M  V30 2038 C 187.292 3.41788 1.17741 0
M  V30 2039 O 187.013 4.37788 0.165362 0
M  V30 2040 C 188.514 3.99216 1.92722 0
M  V30 2041 H 185.734 0.655009 0.145616 0
M  V30 2042 H 188.278 2.03494 -0.202625 0
M  V30 2043 H 186.433 3.38713 1.88021 0
M  V30 2044 H 186.847 5.20806 0.621403 0
M  V30 2045 H 188.321 5.00882 2.31995 0
M  V30 2046 H 188.798 3.3824 2.80161 0
M  V30 2047 H 189.404 4.0583 1.27209 0
M  V30 2048 N 187.719 -0.156864 1.56817 0
M  V30 2049 C 188.666 -1.19394 1.97519 0
M  V30 2050 C 189.636 -1.4322 0.841265 0
M  V30 2051 O 190.821 -1.55719 1.10255 0
M  V30 2052 C 187.961 -2.52483 2.35258 0
M  V30 2053 C 187.074 -2.35914 3.61896 0
M  V30 2054 C 186.209 -3.61969 3.88782 0
M  V30 2055 C 185.248 -3.40395 5.08722 0
M  V30 2056 N 184.385 -4.58556 5.31668 0
M  V30 2057 H 189.225 -0.839845 2.85921 0
M  V30 2058 H 186.762 -0.403264 1.41464 0
M  V30 2059 H 188.72 -3.30071 2.55165 0
M  V30 2060 H 187.35 -2.85859 1.49949 0
M  V30 2061 H 186.402 -1.49429 3.49821 0
M  V30 2062 H 187.714 -2.15926 4.49641 0
M  V30 2063 H 186.868 -4.47989 4.09135 0
M  V30 2064 H 185.607 -3.84951 2.9944 0
M  V30 2065 H 184.612 -2.52763 4.88253 0
M  V30 2066 H 185.837 -3.18822 5.99608 0
M  V30 2067 H 183.783 -4.81729 4.45279 0
M  V30 2068 H 183.7 -4.41535 6.13664 0
M  V30 2069 H 184.968 -5.45817 5.5651 0
M  V30 2070 N 189.197 -1.51736 -0.425897 0
M  V30 2071 C 190.427 -1.68549 -1.19476 0
M  V30 2072 C 190.835 -0.387288 -1.85194 0
M  V30 2073 O 190.178 0.645142 -1.71999 0
M  V30 2074 C 190.24 -2.75275 -2.31223 0
M  V30 2075 C 189.904 -4.17534 -1.8578 0
M  V30 2076 C 190.901 -5.01936 -1.35485 0
M  V30 2077 C 188.586 -4.6369 -1.93123 0
M  V30 2078 C 190.58 -6.30559 -0.931347 0
M  V30 2079 C 188.267 -5.92307 -1.50384 0
M  V30 2080 C 189.265 -6.75569 -1.00473 0
M  V30 2081 O 188.953 -8.0178 -0.583452 0
M  V30 2082 H 188.685 -0.568525 -0.365725 0
M  V30 2083 H 191.239 -1.98982 -0.509444 0
M  V30 2084 H 189.469 -2.40182 -3.03067 0
M  V30 2085 H 191.158 -2.80853 -2.93047 0
M  V30 2086 H 191.924 -4.67475 -1.29197 0
M  V30 2087 H 187.803 -3.98997 -2.30916 0
M  V30 2088 H 191.347 -6.95498 -0.541084 0
M  V30 2089 H 187.244 -6.2628 -1.56346 0
M  V30 2090 H 188.012 -8.1543 -0.708275 0
M  V30 2091 N 190.675 0.682077 -1.42076 0
M  V30 2092 C 191.915 1.45424 -1.43636 0
M  V30 2093 C 192.279 1.91939 -0.0484001 0
M  V30 2094 O 193.48 2.6873 0.0612514 0
M  V30 2095 C 191.751 2.62427 -2.42625 0
M  V30 2096 S 193.31 3.51379 -2.62827 0
M  V30 2097 H 190.128 0.496779 -0.508657 0
M  V30 2098 H 192.73 0.794645 -1.78621 0
M  V30 2099 H 191.434 2.26481 -3.42249 0
M  V30 2100 H 190.965 3.33266 -2.09039 0
M  V30 2101 H 192.98 4.58141 -1.9058 0
M  V30 2102 N 192.153 1.28127 0.917671 0
M  V30 2103 C 193.43 1.05761 1.64542 0
M  V30 2104 C 193.81 -0.404344 2.07191 0
M  V30 2105 O 193.158 -1.38963 1.81388 0
M  V30 2106 C 193.368 2.02857 2.83989 0
M  V30 2107 C 194.716 2.32786 3.551 0
M  V30 2108 O 195.74 2.0091 2.94132 0
M  V30 2109 O 194.599 2.87169 4.64969 0
M  V30 2110 H 191.693 0.403916 0.721652 0
M  V30 2111 H 194.239 1.39431 0.967322 0
M  V30 2112 H 193.011 3.01407 2.49538 0
M  V30 2113 H 192.634 1.69809 3.59514 0
M  V30 2114 N 193.631 -1.12557 1.10312 0
M  V30 2115 C 194.541 -2.21841 0.763142 0
M  V30 2116 C 195.557 -1.72354 -0.238801 0
M  V30 2117 O 196.733 -2.01249 -0.0778746 0
M  V30 2118 C 193.798 -3.46131 0.198632 0
M  V30 2119 C 192.859 -4.10464 1.25769 0
M  V30 2120 C 192.092 -5.28821 0.72002 0
M  V30 2121 O 192.315 -5.6859 -0.453993 0
M  V30 2122 O 191.249 -5.83437 1.47935 0
M  V30 2123 H 195.075 -2.53312 1.67532 0
M  V30 2124 H 192.66 -1.20867 0.878157 0
M  V30 2125 H 194.542 -4.2125 -0.112401 0
M  V30 2126 H 193.217 -3.16338 -0.686419 0
M  V30 2127 H 192.124 -3.3713 1.62156 0
M  V30 2128 H 193.457 -4.44408 2.11571 0
M  V30 2129 N 195.109 -0.891671 -1.2995 0
M  V30 2130 C 196.056 -0.361736 -2.27948 0
M  V30 2131 C 197.026 0.551761 -1.56668 0
M  V30 2132 O 198.211 0.478736 -1.84696 0
M  V30 2133 C 195.351 0.411825 -3.42634 0
M  V30 2134 C 194.464 -0.531651 -4.28716 0
M  V30 2135 C 193.599 0.258167 -5.30572 0
M  V30 2136 C 192.638 -0.680349 -6.08307 0
M  V30 2137 N 191.775 0.0745613 -7.0206 0
M  V30 2138 H 196.615 -1.20254 -2.72659 0
M  V30 2139 H 194.152 -0.604352 -1.34112 0
M  V30 2140 H 196.11 0.876304 -4.07893 0
M  V30 2141 H 194.74 1.21715 -2.98974 0
M  V30 2142 H 193.792 -1.11463 -3.63703 0
M  V30 2143 H 195.104 -1.25038 -4.82874 0
M  V30 2144 H 194.258 0.784204 -6.0161 0
M  V30 2145 H 192.997 1.01008 -4.77126 0
M  V30 2146 H 192.002 -1.21796 -5.3614 0
M  V30 2147 H 193.227 -1.43145 -6.63842 0
M  V30 2148 H 191.173 0.808883 -6.50994 0
M  V30 2149 H 191.09 -0.584409 -7.53738 0
M  V30 2150 H 192.358 0.581123 -7.77331 0
M  V30 2151 N 196.587 1.43421 -0.653314 0
M  V30 2152 C 197.835 2.01414 -0.166415 0
M  V30 2153 C 198.156 1.51803 1.22397 0
M  V30 2154 O 197.426 0.730693 1.81763 0
M  V30 2155 H 196.006 0.744703 -0.0585319 0
M  V30 2156 H 198.668 1.75629 -0.845003 0
M  V30 2157 H 197.764 3.11734 -0.151111 0
M  V30 2158 N 198.065 0.39524 1.52563 0
M  V30 2159 C 199.311 -0.185318 2.01952 0
M  V30 2160 C 199.644 -1.45964 1.28095 0
M  V30 2161 O 198.919 -1.90689 0.38315 0
M  V30 2162 C 199.202 -0.447193 3.57312 0
M  V30 2163 C 199.055 0.842828 4.41833 0
M  V30 2164 C 200.374 -1.23529 4.22408 0
M  V30 2165 H 197.493 -0.0658788 0.73405 0
M  V30 2166 H 200.135 0.525975 1.82575 0
M  V30 2167 H 198.285 -1.05312 3.73954 0
M  V30 2168 H 199.957 1.4795 4.36931 0
M  V30 2169 H 198.2 1.45686 4.08605 0
M  V30 2170 H 198.871 0.614165 5.48573 0
M  V30 2171 H 201.347 -0.722445 4.0978 0
M  V30 2172 H 200.223 -1.38727 5.3108 0
M  V30 2173 H 200.484 -2.25213 3.80436 0
M  V30 2174 N 199.544 -1.57102 0.125237 0
M  V30 2175 C 200.79 -1.96488 -0.525753 0
M  V30 2176 C 201.145 -1.00786 -1.6389 0
M  V30 2177 O 200.438 -0.038979 -1.9156 0
M  V30 2178 C 200.632 -3.40096 -1.09862 0
M  V30 2179 C 200.461 -4.4968 -0.0425004 0
M  V30 2180 C 199.231 -5.03781 0.391463 0
M  V30 2181 C 201.429 -5.08936 0.740829 0
M  V30 2182 N 199.411 -5.96948 1.4327 0
M  V30 2183 C 200.782 -5.98105 1.6331 0
M  V30 2184 C 202.837 -4.91576 0.791029 0
M  V30 2185 C 201.54 -6.71774 2.57122 0
M  V30 2186 C 203.566 -5.6593 1.71688 0
M  V30 2187 C 202.928 -6.5479 2.59672 0
M  V30 2188 H 199.027 -0.765072 -0.161831 0
M  V30 2189 H 201.611 -1.93511 0.214801 0
M  V30 2190 H 199.782 -3.43707 -1.80887 0
M  V30 2191 H 201.514 -3.66591 -1.71444 0
M  V30 2192 H 198.269 -4.736 -0.00213584 0
M  V30 2193 H 198.693 -6.48236 1.95243 0
M  V30 2194 H 203.335 -4.22615 0.124915 0
M  V30 2195 H 201.053 -7.39977 3.24744 0
M  V30 2196 H 204.639 -5.54501 1.76125 0
M  V30 2197 H 203.519 -7.11316 3.30149 0
M  V30 2198 N 201.022 0.148545 -1.56898 0
M  V30 2199 C 202.269 0.861418 -1.83264 0
M  V30 2200 C 202.597 1.81239 -0.705883 0
M  V30 2201 O 201.852 1.93305 0.305212 0
M  V30 2202 C 202.151 1.67064 -3.1595 0
M  V30 2203 C 201.817 0.866591 -4.42494 0
M  V30 2204 C 200.479 0.644762 -4.76861 0
M  V30 2205 C 202.831 0.30418 -5.20312 0
M  V30 2206 C 200.159 -0.15021 -5.86508 0
M  V30 2207 C 202.511 -0.477824 -6.30793 0
M  V30 2208 C 201.175 -0.710244 -6.63711 0
M  V30 2209 H 200.445 0.315215 -0.670612 0
M  V30 2210 H 203.092 0.125142 -1.91091 0
M  V30 2211 H 201.397 2.47698 -3.03567 0
M  V30 2212 H 203.094 2.22566 -3.33565 0
M  V30 2213 H 199.684 1.04955 -4.15551 0
M  V30 2214 H 203.868 0.462844 -4.94137 0
M  V30 2215 H 199.124 -0.339796 -6.10455 0
M  V30 2216 H 203.298 -0.92076 -6.90286 0
M  V30 2217 H 200.925 -1.3281 -7.48509 0
M  V30 2218 N 202.5 1.5196 0.417844 0
M  V30 2219 C 203.447 1.74678 1.50852 0
M  V30 2220 C 204.417 0.588947 1.55308 0
M  V30 2221 O 205.602 0.825544 1.72016 0
M  V30 2222 C 202.742 1.89544 2.88387 0
M  V30 2223 C 201.855 3.17166 2.93309 0
M  V30 2224 C 200.99 3.22513 4.22088 0
M  V30 2225 C 200.029 4.44372 4.20951 0
M  V30 2226 N 199.166 4.47161 5.41287 0
M  V30 2227 H 204.006 2.67768 1.30783 0
M  V30 2228 H 201.543 1.32689 0.63498 0
M  V30 2229 H 203.501 1.96146 3.68216 0
M  V30 2230 H 202.131 0.998424 3.06971 0
M  V30 2231 H 201.183 3.19778 2.06024 0
M  V30 2232 H 202.495 4.07021 2.88332 0
M  V30 2233 H 201.649 3.28139 5.10303 0
M  V30 2234 H 200.388 2.30581 4.29748 0
M  V30 2235 H 199.393 4.38902 3.31127 0
M  V30 2236 H 200.618 5.3759 4.14938 0
M  V30 2237 H 198.564 3.58108 5.49632 0
M  V30 2238 H 198.481 5.3085 5.3827 0
M  V30 2239 H 199.749 4.57005 6.3148 0
M  V30 2240 N 203.978 -0.674533 1.42435 0
M  V30 2241 C 204.928 -1.7807 1.4239 0
M  V30 2242 C 205.912 -1.58169 0.295202 0
M  V30 2243 O 207.104 -1.68643 0.537449 0
M  V30 2244 C 204.233 -3.16532 1.32901 0
M  V30 2245 C 203.319 -3.42055 2.50717 0
M  V30 2246 N 203.71 -3.38162 3.76139 0
M  V30 2247 C 202.008 -3.72692 2.44983 0
M  V30 2248 C 202.709 -3.63177 4.54398 0
M  V30 2249 N 201.685 -3.83954 3.84812 0
M  V30 2250 H 205.487 -1.73454 2.37257 0
M  V30 2251 H 203.001 -0.875381 1.36788 0
M  V30 2252 H 204.998 -3.958 1.30951 0
M  V30 2253 H 203.658 -3.22345 0.390363 0
M  V30 2254 H 204.669 -3.18057 4.0873 0
M  V30 2255 H 201.346 -3.85749 1.59699 0
M  V30 2256 H 202.736 -3.66125 5.63384 0
M  V30 2257 N 205.456 -1.28612 -0.910864 0
M  V30 2258 C 206.867 -1.14406 -1.47541 0
M  V30 2259 C 207.218 0.264901 -1.94403 0
M  V30 2260 O 206.343 1.15942 -1.82719 0
M  V30 2261 C 206.938 -2.07073 -2.68153 0
M  V30 2262 C 205.497 -1.96923 -3.20778 0
M  V30 2263 C 204.644 -1.98646 -1.93481 0
M  V30 2264 H 207.595 -1.41259 -0.723291 0
M  V30 2265 H 207.616 -1.63642 -3.43514 0
M  V30 2266 H 207.128 -3.09611 -2.34015 0
M  V30 2267 H 205.229 -0.97433 -3.59635 0
M  V30 2268 H 205.342 -2.84026 -3.85832 0
M  V30 2269 H 203.706 -1.43093 -2.10705 0
M  V30 2270 H 204.489 -3.02868 -1.61634 0
M  V30 2271 N 206.934 1.1197 -1.10907 0
M  V30 2272 C 207.844 2.21433 -0.774896 0
M  V30 2273 C 208.86 1.72478 0.229657 0
M  V30 2274 O 210.036 2.01288 0.0672008 0
M  V30 2275 C 207.101 3.4602 -0.216986 0
M  V30 2276 C 206.162 4.09791 -1.27944 0
M  V30 2277 C 205.395 5.28431 -0.748055 0
M  V30 2278 O 205.618 5.68823 0.423833 0
M  V30 2279 O 204.552 5.82644 -1.51027 0
M  V30 2280 H 208.378 2.5242 -1.68873 0
M  V30 2281 H 205.963 1.20399 -0.884555 0
M  V30 2282 H 207.845 4.21304 0.090059 0
M  V30 2283 H 206.52 3.16698 0.669633 0
M  V30 2284 H 205.427 3.36265 -1.63941 0
M  V30 2285 H 206.76 4.4328 -2.13925 0
M  V30 2286 N 208.412 0.89855 1.29475 0
M  V30 2287 C 209.36 0.365253 2.29714 0
M  V30 2288 C 210.354 -0.534993 1.6073 0
M  V30 2289 O 211.56 -0.417921 1.75081 0
M  V30 2290 H 207.935 0.0994853 0.74539 0
M  V30 2291 H 209.906 1.22406 2.72138 0
M  V30 2292 C 208.655 -0.393159 3.4547 0
M  V30 2293 H 207.978 0.290332 3.98744 0
M  V30 2294 H 209.418 -0.731189 4.17648 0
M  V30 2295 C 207.877 -1.59539 2.9673 0
M  V30 2296 O 208.407 -2.69469 2.97908 0
M  V30 2297 N 206.613 -1.43716 2.52575 0
M  V30 2298 H 206.16 -0.542828 2.51816 0
M  V30 2299 H 206.118 -2.24288 2.20323 0
M  V30 2300 N 209.89 -1.43072 0.660911 0
M  V30 2301 C 210.838 -2.32569 -0.0378199 0
M  V30 2302 C 211.832 -1.49046 -0.805092 0
M  V30 2303 O 213.038 -1.65206 -0.714624 0
M  V30 2304 H 209.413 -0.75136 -0.031019 0
M  V30 2305 H 211.384 -2.89216 0.734609 0
M  V30 2306 C 210.133 -3.33453 -0.985124 0
M  V30 2307 H 209.456 -3.97752 -0.404147 0
M  V30 2308 H 210.896 -3.98691 -1.44297 0
M  V30 2309 C 209.355 -2.64642 -2.08486 0
M  V30 2310 O 209.885 -2.46776 -3.16961 0
M  V30 2311 N 208.091 -2.23891 -1.8526 0
M  V30 2312 H 207.638 -2.38621 -0.970449 0
M  V30 2313 H 207.596 -1.78181 -2.59034 0
M  V30 2314 N 211.368 -0.403325 -1.52352 0
M  V30 2315 C 212.784 -0.0539281 -1.59509 0
M  V30 2316 C 212.984 1.43307 -1.41652 0
M  V30 2317 O 212.04 2.19924 -1.24056 0
M  V30 2318 C 213.353 -0.543654 -2.95745 0
M  V30 2319 C 214.901 -0.501125 -3.08962 0
M  V30 2320 C 215.376 -0.967267 -4.47669 0
M  V30 2321 N 216.867 -0.923849 -4.53893 0
M  V30 2322 C 217.602 -1.25578 -5.5948 0
M  V30 2323 N 217.098 -1.65889 -6.72646 0
M  V30 2324 N 218.891 -1.17613 -5.49658 0
M  V30 2325 H 211.042 -1.37123 -1.62206 0
M  V30 2326 H 213.305 -0.56294 -0.76276 0
M  V30 2327 H 213.011 -1.58275 -3.14073 0
M  V30 2328 H 212.885 0.0498042 -3.77167 0
M  V30 2329 H 215.272 0.528909 -2.90321 0
M  V30 2330 H 215.353 -1.13056 -2.2946 0
M  V30 2331 H 214.997 -1.9956 -4.67053 0
M  V30 2332 H 214.927 -0.314698 -5.25659 0
M  V30 2333 H 217.418 -0.627403 -3.72655 0
M  V30 2334 H 217.731 -1.89543 -7.49195 0
M  V30 2335 H 216.076 -1.69787 -6.73942 0
M  V30 2336 H 219.267 -0.860115 -4.6013 0
M  V30 2337 H 219.44 -1.43812 -6.3184 0
M  V30 2338 N 212.846 1.57033 -0.133567 0
M  V30 2339 C 214.074 2.00044 0.528195 0
M  V30 2340 C 214.489 1.01349 1.59291 0
M  V30 2341 O 213.846 0.00848369 1.82498 0
M  V30 2342 C 213.897 3.43018 1.1411 0
M  V30 2343 O 213.618 4.37939 0.11892 0
M  V30 2344 C 215.119 4.01237 1.88477 0
M  V30 2345 H 212.339 0.656517 0.138661 0
M  V30 2346 H 214.883 2.03267 -0.224196 0
M  V30 2347 H 213.038 3.40688 1.84418 0
M  V30 2348 H 213.452 5.21436 0.56613 0
M  V30 2349 H 214.926 5.03314 2.26669 0
M  V30 2350 H 215.403 3.41193 2.76558 0
M  V30 2351 H 216.009 4.07156 1.22898 0
M  V30 2352 N 214.325 -0.140222 1.56975 0
M  V30 2353 C 215.571 -0.848084 1.84876 0
M  V30 2354 C 215.926 -1.78481 0.718481 0
M  V30 2355 O 215.219 -1.89497 -0.283093 0
M  V30 2356 C 215.413 -1.65386 3.16832 0
M  V30 2357 C 215.242 -0.79665 4.42587 0
M  V30 2358 C 214.012 -0.459648 5.03205 0
M  V30 2359 C 216.21 -0.12389 5.14151 0
M  V30 2360 N 214.192 0.410446 6.12526 0
M  V30 2361 C 215.563 0.606064 6.17031 0
M  V30 2362 C 217.618 -0.0452654 4.97879 0
M  V30 2363 C 216.321 1.40723 7.054 0
M  V30 2364 C 218.347 0.742658 5.86718 0
M  V30 2365 C 217.709 1.46087 6.89085 0
M  V30 2366 H 213.808 -0.287946 0.727056 0
M  V30 2367 H 216.392 -0.11304 1.94372 0
M  V30 2368 H 214.563 -2.36009 3.08471 0
M  V30 2369 H 216.295 -2.30541 3.32615 0
M  V30 2370 H 213.05 -0.797006 4.66846 0
M  V30 2371 H 213.474 0.836716 6.7181 0
M  V30 2372 H 218.116 -0.586184 4.18717 0
M  V30 2373 H 215.834 1.95938 7.83986 0
M  V30 2374 H 219.42 0.805574 5.76196 0
M  V30 2375 H 218.3 2.06077 7.56639 0
M  V30 2376 N 215.803 -1.52179 -0.40978 0
M  V30 2377 C 217.028 -1.70347 -1.18308 0
M  V30 2378 C 217.453 -0.411887 -1.83535 0
M  V30 2379 O 216.811 0.630587 -1.6998 0
M  V30 2380 C 216.859 -2.83977 -2.22238 0
M  V30 2381 O 215.963 -2.495 -3.28365 0
M  V30 2382 H 215.304 -0.567103 -0.345384 0
M  V30 2383 H 217.834 -1.98879 -0.480445 0
M  V30 2384 H 217.844 -3.0887 -2.66577 0
M  V30 2385 H 216.519 -3.77685 -1.74146 0
M  V30 2386 H 215.096 -2.35277 -2.89308 0
M  V30 2387 N 217.281 0.66697 -1.42791 0
M  V30 2388 C 218.229 1.80157 -1.47127 0
M  V30 2389 C 219.223 1.65825 -0.346199 0
M  V30 2390 O 220.429 1.72338 -0.519572 0
M  V30 2391 H 216.804 0.594158 -0.460956 0
M  V30 2392 H 218.775 1.73619 -2.42692 0
M  V30 2393 C 217.524 3.18351 -1.39813 0
M  V30 2394 H 216.847 3.3001 -2.25684 0
M  V30 2395 H 218.287 3.97736 -1.46908 0
M  V30 2396 C 216.746 3.36707 -0.11391 0
M  V30 2397 O 217.276 3.93027 0.830241 0
M  V30 2398 N 215.482 2.90586 -0.0285295 0
M  V30 2399 H 215.029 2.4494 -0.79764 0
M  V30 2400 H 214.987 3.03245 0.830063 0
M  V30 2401 N 218.759 1.29093 0.90403 0
M  V30 2402 C 219.989 1.19516 1.68522 0
M  V30 2403 C 220.397 -0.24738 1.87576 0
M  V30 2404 O 219.74 -1.17798 1.40959 0
M  V30 2405 C 219.802 1.83249 3.0929 0
M  V30 2406 C 219.466 3.32531 3.13484 0
M  V30 2407 C 220.463 4.28821 2.93953 0
M  V30 2408 C 218.148 3.73656 3.35688 0
M  V30 2409 C 220.142 5.64212 2.96553 0
M  V30 2410 C 217.829 5.0917 3.37919 0
M  V30 2411 C 218.827 6.04258 3.18373 0
M  V30 2412 O 218.515 7.37298 3.20385 0
M  V30 2413 H 218.247 0.415467 0.533257 0
M  V30 2414 H 220.801 1.70912 1.13922 0
M  V30 2415 H 219.031 1.26358 3.65473 0
M  V30 2416 H 220.72 1.68054 3.69476 0
M  V30 2417 H 221.486 3.98382 2.76616 0
M  V30 2418 H 217.365 3.00101 3.49943 0
M  V30 2419 H 220.909 6.38407 2.81216 0
M  V30 2420 H 216.806 5.39256 3.54787 0
M  V30 2421 H 217.574 7.46048 3.36681 0
M  V30 2422 N 220.237 -1.11381 1.11499 0
M  V30 2423 C 221.465 -1.86934 0.88675 0
M  V30 2424 C 221.88 -1.80195 -0.563476 0
M  V30 2425 O 221.237 -1.18367 -1.38908 0
M  V30 2426 C 221.288 -3.35722 1.34064 0
M  V30 2427 O 221.009 -3.4232 2.73401 0
M  V30 2428 C 222.51 -4.2818 1.14791 0
M  V30 2429 H 219.73 -0.591117 0.317523 0
M  V30 2430 H 222.274 -1.40865 1.48248 0
M  V30 2431 H 220.429 -3.79294 0.788355 0
M  V30 2432 H 220.843 -4.34971 2.93087 0
M  V30 2433 H 222.317 -5.30817 1.5145 0
M  V30 2434 H 222.794 -4.39113 0.0875279 0
M  V30 2435 H 223.4 -3.90402 1.68721 0
M  V30 2436 N 221.715 -0.905404 -1.28997 0
M  V30 2437 C 222.648 -0.331959 -2.25773 0
M  V30 2438 C 223.626 0.559099 -1.52685 0
M  V30 2439 O 224.81 0.50463 -1.8162 0
M  V30 2440 C 221.937 0.526276 -3.34586 0
M  V30 2441 C 220.983 -0.298249 -4.25456 0
M  V30 2442 S 221.816 -1.69968 -5.0781 0
M  V30 2443 C 222.972 -0.848519 -6.20122 0
M  V30 2444 H 223.205 -1.15222 -2.74064 0
M  V30 2445 H 220.738 -0.706112 -1.37308 0
M  V30 2446 H 222.696 1.01565 -3.97737 0
M  V30 2447 H 221.357 1.32084 -2.84978 0
M  V30 2448 H 220.55 0.357607 -5.0273 0
M  V30 2449 H 220.152 -0.720968 -3.66985 0
M  V30 2450 H 222.444 -0.0744325 -6.77459 0
M  V30 2451 H 223.387 -1.59353 -6.89937 0
M  V30 2452 H 223.795 -0.400383 -5.63078 0
M  V30 2453 N 223.193 1.4272 -0.668489 0
M  V30 2454 C 224.433 2.03497 -0.19194 0
M  V30 2455 C 224.797 1.51684 1.17712 0
M  V30 2456 O 225.998 2.04205 1.74796 0
M  V30 2457 C 224.269 3.56734 -0.218032 0
M  V30 2458 S 225.828 4.38395 0.188438 0
M  V30 2459 H 222.646 0.706542 -0.0794959 0
M  V30 2460 H 225.248 1.74563 -0.880235 0
M  V30 2461 H 223.952 3.91943 -1.2169 0
M  V30 2462 H 223.483 3.90333 0.490303 0
M  V30 2463 H 225.498 4.75345 1.42345 0
M  V30 2464 N 224.671 0.411399 1.52136 0
M  V30 2465 C 225.619 -0.427633 2.28635 0
M  V30 2466 C 226.613 -1.04383 1.33419 0
M  V30 2467 O 227.819 -0.981772 1.50868 0
M  V30 2468 H 224.194 -0.156689 0.735495 0
M  V30 2469 H 226.165 0.238761 2.97443 0
M  V30 2470 C 224.914 -1.53082 3.12188 0
M  V30 2471 H 224.237 -1.06601 3.85326 0
M  V30 2472 H 225.677 -2.09167 3.68816 0
M  V30 2473 C 224.136 -2.49946 2.25895 0
M  V30 2474 O 224.666 -3.53884 1.90076 0
M  V30 2475 N 222.872 -2.2021 1.8962 0
M  V30 2476 H 222.419 -1.35719 2.18948 0
M  V30 2477 H 222.377 -2.85266 1.32176 0
M  V30 2478 N 226.149 -1.5696 0.141893 0
M  V30 2479 C 227.112 -2.15316 -0.785587 0
M  V30 2480 C 228.112 -1.09366 -1.1788 0
M  V30 2481 O 229.302 -1.35031 -1.10056 0
M  V30 2482 C 226.434 -2.71211 -2.06537 0
M  V30 2483 H 227.627 -2.98608 -0.278041 0
M  V30 2484 H 225.18 -1.5593 -0.107519 0
M  V30 2485 H 225.915 -1.91571 -2.6167 0
M  V30 2486 H 225.7 -3.4872 -1.79268 0
M  V30 2487 H 227.19 -3.16189 -2.72789 0
M  V30 2488 N 227.627 0.131896 -1.57047 0
M  V30 2489 C 228.874 0.841932 -1.84168 0
M  V30 2490 C 229.202 1.8048 -0.725066 0
M  V30 2491 O 228.457 1.93618 0.284692 0
M  V30 2492 C 228.756 1.63703 -3.17704 0
M  V30 2493 C 228.422 0.81961 -4.43388 0
M  V30 2494 C 227.084 0.594148 -4.77518 0
M  V30 2495 C 229.436 0.248977 -5.20605 0
M  V30 2496 C 226.764 -0.212409 -5.86315 0
M  V30 2497 C 229.116 -0.544701 -6.30251 0
M  V30 2498 C 227.78 -0.780599 -6.6292 0
M  V30 2499 H 227.05 0.308085 -0.673917 0
M  V30 2500 H 229.697 0.104867 -1.91213 0
M  V30 2501 H 228.002 2.44464 -3.06177 0
M  V30 2502 H 229.699 2.19015 -3.35907 0
M  V30 2503 H 226.289 1.00542 -4.16641 0
M  V30 2504 H 230.473 0.410408 -4.946 0
M  V30 2505 H 225.729 -0.404524 -6.1006 0
M  V30 2506 H 229.903 -0.993922 -6.89271 0
M  V30 2507 H 227.53 -1.40742 -7.47058 0
M  V30 2508 N 229.106 1.52395 0.401703 0
M  V30 2509 C 230.334 1.70676 1.16949 0
M  V30 2510 C 230.749 0.419503 1.8408 0
M  V30 2511 O 230.106 -0.605061 1.72178 0
M  V30 2512 C 230.157 2.84753 2.22706 0
M  V30 2513 O 229.878 4.08495 1.58314 0
M  V30 2514 C 231.379 3.14608 3.12309 0
M  V30 2515 H 228.599 0.571787 0.351142 0
M  V30 2516 H 231.143 1.98987 0.471652 0
M  V30 2517 H 229.298 2.58941 2.88147 0
M  V30 2518 H 229.712 4.72117 2.28485 0
M  V30 2519 H 231.186 3.97923 3.82572 0
M  V30 2520 H 231.663 2.28464 3.75101 0
M  V30 2521 H 232.269 3.42212 2.52529 0
M  V30 2522 N 230.584 -0.659388 1.43143 0
M  V30 2523 C 231.995 -1.24041 1.39537 0
M  V30 2524 C 232.346 -1.95963 0.0963364 0
M  V30 2525 O 231.471 -2.00892 -0.804438 0
M  V30 2526 C 232.066 -2.25601 2.52764 0
M  V30 2527 C 230.625 -2.79195 2.52443 0
M  V30 2528 C 229.772 -1.53743 2.30778 0
M  V30 2529 H 232.723 -0.451792 1.52133 0
M  V30 2530 H 232.744 -3.07651 2.23899 0
M  V30 2531 H 232.256 -1.73226 3.47296 0
M  V30 2532 H 230.357 -3.35649 1.61773 0
M  V30 2533 H 230.47 -3.2716 3.50004 0
M  V30 2534 H 228.834 -1.80869 1.79328 0
M  V30 2535 H 229.617 -1.03312 3.27386 0
M  V30 2536 N 232.062 -1.29571 -0.897171 0
M  V30 2537 C 232.972 -1.16808 -2.03453 0
M  V30 2538 C 233.988 -0.0907471 -1.73763 0
M  V30 2539 O 235.164 -0.303312 -1.99103 0
M  V30 2540 C 232.229 -0.848264 -3.36163 0
M  V30 2541 C 231.29 -2.0097 -3.79354 0
M  V30 2542 C 230.523 -1.70505 -5.05731 0
M  V30 2543 O 230.746 -0.62718 -5.66941 0
M  V30 2544 O 229.68 -2.5538 -5.45036 0
M  V30 2545 H 233.506 -2.12325 -2.17144 0
M  V30 2546 H 231.091 -1.09047 -1.02123 0
M  V30 2547 H 232.973 -0.684581 -4.15802 0
M  V30 2548 H 231.648 0.0771071 -3.23608 0
M  V30 2549 H 230.555 -2.22863 -3.00471 0
M  V30 2550 H 231.888 -2.91636 -3.96496 0
M  V30 2551 N 233.54 1.10788 -1.12088 0
M  V30 2552 C 234.487 2.17025 -0.785407 0
M  V30 2553 C 235.457 1.64265 0.246191 0
M  V30 2554 O 236.642 1.90412 0.121584 0
M  V30 2555 C 233.782 3.44249 -0.242177 0
M  V30 2556 C 232.895 4.1098 -1.33115 0
M  V30 2557 C 232.03 5.25911 -0.747741 0
M  V30 2558 C 231.069 5.84538 -1.81609 0
M  V30 2559 N 230.206 6.90853 -1.25167 0
M  V30 2560 H 235.046 2.45066 -1.69548 0
M  V30 2561 H 232.583 1.20297 -0.846582 0
M  V30 2562 H 234.541 4.17101 0.0908026 0
M  V30 2563 H 233.171 3.16571 0.631072 0
M  V30 2564 H 232.223 3.36133 -1.78097 0
M  V30 2565 H 233.535 4.50601 -2.13917 0
M  V30 2566 H 232.689 6.056 -0.365216 0
M  V30 2567 H 231.428 4.87614 0.0915188 0
M  V30 2568 H 230.433 5.03522 -2.20785 0
M  V30 2569 H 231.658 6.249 -2.6585 0
M  V30 2570 H 229.604 6.54562 -0.434174 0
M  V30 2571 H 229.521 7.29166 -1.99633 0
M  V30 2572 H 230.789 7.7433 -0.896259 0
M  V30 2573 N 235.018 0.912232 1.28515 0
M  V30 2574 C 235.948 0.416403 2.29757 0
M  V30 2575 C 236.929 -0.515194 1.6211 0
M  V30 2576 O 238.114 -0.423253 1.89532 0
M  V30 2577 C 235.244 -0.34572 3.45575 0
M  V30 2578 C 234.198 0.496599 4.25109 0
M  V30 2579 C 233.524 -0.393771 5.33248 0
M  V30 2580 C 234.824 1.75307 4.92001 0
M  V30 2581 H 236.518 1.26249 2.7148 0
M  V30 2582 H 234.064 0.608515 1.30511 0
M  V30 2583 H 236.017 -0.703422 4.15488 0
M  V30 2584 H 234.741 -1.2257 3.02728 0
M  V30 2585 H 233.4 0.8368 3.56922 0
M  V30 2586 H 233.048 -1.27225 4.86644 0
M  V30 2587 H 232.748 0.166209 5.87365 0
M  V30 2588 H 234.272 -0.747389 6.06009 0
M  V30 2589 H 235.686 1.46437 5.54283 0
M  V30 2590 H 234.083 2.25534 5.56106 0
M  V30 2591 H 235.153 2.48176 4.16577 0
M  V30 2592 N 236.496 -1.42363 0.676048 0
M  V30 2593 C 237.443 -2.308 -0.00150904 0
M  V30 2594 C 238.413 -1.46032 -0.791444 0
M  V30 2595 O 239.598 -1.74861 -0.76344 0
M  V30 2596 C 236.738 -3.31883 -0.945919 0
M  V30 2597 C 235.851 -4.31741 -0.149675 0
M  V30 2598 C 234.986 -5.19898 -1.08995 0
M  V30 2599 C 234.025 -6.11434 -0.285465 0
M  V30 2600 N 233.162 -6.92138 -1.17851 0
M  V30 2601 H 238.002 -2.88187 0.758455 0
M  V30 2602 H 235.539 -1.41952 0.38576 0
M  V30 2603 H 237.497 -3.89019 -1.50731 0
M  V30 2604 H 236.127 -2.76093 -1.6725 0
M  V30 2605 H 235.179 -3.76713 0.528359 0
M  V30 2606 H 236.491 -4.96534 0.474866 0
M  V30 2607 H 235.645 -5.81772 -1.72123 0
M  V30 2608 H 234.384 -4.55284 -1.74837 0
M  V30 2609 H 233.389 -5.48627 0.359018 0
M  V30 2610 H 234.614 -6.78097 0.368883 0
M  V30 2611 H 232.56 -6.30152 -1.82332 0
M  V30 2612 H 232.477 -7.53542 -0.609082 0
M  V30 2613 H 233.745 -7.58499 -1.79722 0
M  V30 2614 N 237.974 -0.419461 -1.51915 0
M  V30 2615 C 238.922 0.415502 -2.28859 0
M  V30 2616 C 239.916 1.03674 -1.3397 0
M  V30 2617 O 241.122 0.973757 -1.51387 0
M  V30 2618 H 237.497 0.152786 -0.736315 0
M  V30 2619 H 239.468 -0.254531 -2.97312 0
M  V30 2620 C 238.217 1.51425 -3.12995 0
M  V30 2621 H 237.54 1.04556 -3.85886 0
M  V30 2622 H 238.98 2.07208 -3.6992 0
M  V30 2623 C 237.439 2.48745 -2.27217 0
M  V30 2624 O 237.969 3.52871 -1.9195 0
M  V30 2625 N 236.175 2.19202 -1.90785 0
M  V30 2626 H 235.722 1.34556 -2.19664 0
M  V30 2627 H 235.68 2.84561 -1.33687 0
M  V30 2628 N 239.452 1.56882 -0.150215 0
M  V30 2629 C 240.415 2.1573 0.774157 0
M  V30 2630 C 241.415 1.0999 1.17298 0
M  V30 2631 O 242.605 1.35613 1.09338 0
M  V30 2632 C 239.737 2.72302 2.05096 0
M  V30 2633 H 240.93 2.98752 0.262201 0
M  V30 2634 H 238.483 1.55985 0.099248 0
M  V30 2635 H 239.218 1.92956 2.6065 0
M  V30 2636 H 239.003 3.49665 1.77416 0
M  V30 2637 H 240.493 3.17632 2.71109 0
M  V30 2638 N 240.93 -0.123565 1.57115 0
M  V30 2639 C 242.16 -0.845233 1.88519 0
M  V30 2640 C 242.568 -1.74168 0.739064 0
M  V30 2641 O 241.911 -1.81244 -0.299355 0
M  V30 2642 C 241.973 -1.73452 3.14888 0
M  V30 2643 C 241.637 -1.01285 4.45635 0
M  V30 2644 C 242.634 -0.355774 5.18681 0
M  V30 2645 C 240.319 -0.99538 4.92339 0
M  V30 2646 C 242.313 0.309114 6.3665 0
M  V30 2647 C 240 -0.32669 6.10226 0
M  V30 2648 C 240.998 0.324406 6.82229 0
M  V30 2649 O 240.686 0.982437 7.97874 0
M  V30 2650 H 240.418 -0.248534 0.628655 0
M  V30 2651 H 242.972 -0.113907 2.05084 0
M  V30 2652 H 241.202 -2.50737 2.94394 0
M  V30 2653 H 242.891 -2.33021 3.32349 0
M  V30 2654 H 243.657 -0.360918 4.83655 0
M  V30 2655 H 239.536 -1.49159 4.36202 0
M  V30 2656 H 243.08 0.8179 6.92789 0
M  V30 2657 H 238.977 -0.319294 6.4471 0
M  V30 2658 H 239.745 0.886454 8.13686 0
M  V30 2659 N 242.408 -1.52605 -0.393616 0
M  V30 2660 C 243.654 -1.67672 -1.14079 0
M  V30 2661 C 243.987 -0.413121 -1.89755 0
M  V30 2662 O 243.262 0.588952 -1.85369 0
M  V30 2663 C 243.545 -2.9088 -2.12276 0
M  V30 2664 C 243.398 -4.27329 -1.40394 0
M  V30 2665 C 244.717 -3.09628 -3.12759 0
M  V30 2666 H 241.836 -0.610168 -0.413356 0
M  V30 2667 H 244.478 -1.85193 -0.424696 0
M  V30 2668 H 242.628 -2.76073 -2.73342 0
M  V30 2669 H 244.3 -4.53894 -0.82327 0
M  V30 2670 H 242.543 -4.2802 -0.705801 0
M  V30 2671 H 243.214 -5.09615 -2.12123 0
M  V30 2672 H 245.69 -3.23436 -2.61779 0
M  V30 2673 H 244.566 -3.97322 -3.78717 0
M  V30 2674 H 244.827 -2.23637 -3.81365 0
M  V30 2675 N 243.887 0.651787 -1.4349 0
M  V30 2676 C 244.817 1.77621 -1.51569 0
M  V30 2677 C 245.798 1.66022 -0.370253 0
M  V30 2678 O 246.983 1.85095 -0.587658 0
M  V30 2679 C 244.113 3.16056 -1.43966 0
M  V30 2680 C 243.067 3.4242 -2.56774 0
M  V30 2681 C 242.393 4.8067 -2.34223 0
M  V30 2682 C 243.693 3.37023 -3.99015 0
M  V30 2683 H 245.387 1.71117 -2.45681 0
M  V30 2684 H 242.933 0.821825 -1.18246 0
M  V30 2685 H 244.886 3.94472 -1.48221 0
M  V30 2686 H 243.61 3.23293 -0.463586 0
M  V30 2687 H 242.269 2.66375 -2.51873 0
M  V30 2688 H 241.917 4.84585 -1.34856 0
M  V30 2689 H 241.617 4.9927 -3.09844 0
M  V30 2690 H 243.141 5.61342 -2.40265 0
M  V30 2691 H 244.555 4.05374 -4.05395 0
M  V30 2692 H 242.952 3.67159 -4.74673 0
M  V30 2693 H 244.022 2.3518 -4.2405 0
M  V30 2694 N 245.365 1.30045 0.890287 0
M  V30 2695 C 246.595 1.21296 1.67245 0
M  V30 2696 C 247.003 -0.227471 1.87828 0
M  V30 2697 O 246.346 -1.16296 1.422 0
M  V30 2698 C 246.408 1.86519 3.07329 0
M  V30 2699 C 246.072 3.35837 3.09939 0
M  V30 2700 C 247.069 4.31915 2.89389 0
M  V30 2701 C 244.754 3.77196 3.31706 0
M  V30 2702 C 246.748 5.67325 2.90552 0
M  V30 2703 C 244.435 5.12725 3.32499 0
M  V30 2704 C 245.433 6.076 3.11947 0
M  V30 2705 O 245.121 7.40655 3.12547 0
M  V30 2706 H 244.853 0.4211 0.528821 0
M  V30 2707 H 247.407 1.72111 1.12103 0
M  V30 2708 H 245.637 1.30228 3.64112 0
M  V30 2709 H 247.326 1.71963 3.67673 0
M  V30 2710 H 248.092 4.01294 2.72375 0
M  V30 2711 H 243.971 3.03796 3.4674 0
M  V30 2712 H 247.515 6.41354 2.74429 0
M  V30 2713 H 243.412 5.42988 3.49047 0
M  V30 2714 H 244.18 7.49577 3.28749 0
M  V30 2715 N 246.843 -1.10192 1.12674 0
M  V30 2716 C 248.073 -1.85713 0.905213 0
M  V30 2717 C 248.481 -1.81056 -0.549108 0
M  V30 2718 O 247.824 -1.19927 -1.39151 0
M  V30 2719 C 247.886 -3.34972 1.30516 0
M  V30 2720 C 247.55 -3.63385 2.77129 0
M  V30 2721 C 248.547 -3.59772 3.75313 0
M  V30 2722 C 246.232 -3.91981 3.14096 0
M  V30 2723 C 248.226 -3.84354 5.08479 0
M  V30 2724 C 245.913 -4.16218 4.47443 0
M  V30 2725 C 246.911 -4.12395 5.44444 0
M  V30 2726 O 246.599 -4.36014 6.75387 0
M  V30 2727 H 246.331 -0.593719 0.323223 0
M  V30 2728 H 248.885 -1.40198 1.50112 0
M  V30 2729 H 247.115 -3.81156 0.652463 0
M  V30 2730 H 248.804 -3.91886 1.05736 0
M  V30 2731 H 249.57 -3.37716 3.48099 0
M  V30 2732 H 245.449 -3.94085 2.39202 0
M  V30 2733 H 248.993 -3.81285 5.84181 0
M  V30 2734 H 244.89 -4.37754 4.74386 0
M  V30 2735 H 245.658 -4.53516 6.8137 0
M  V30 2736 N 248.321 -0.919034 -1.28029 0
M  V30 2737 C 249.251 -0.428581 -2.29533 0
M  V30 2738 C 250.232 0.50659 -1.62381 0
M  V30 2739 O 251.417 0.413195 -1.89753 0
M  V30 2740 C 248.547 0.327388 -3.45753 0
M  V30 2741 C 247.501 -0.519137 -4.2484 0
M  V30 2742 C 246.827 0.365486 -5.33449 0
M  V30 2743 C 248.127 -1.77914 -4.91064 0
M  V30 2744 H 249.821 -1.27687 -2.70807 0
M  V30 2745 H 247.367 -0.615428 -1.30186 0
M  V30 2746 H 249.32 0.681378 -4.15855 0
M  V30 2747 H 248.044 1.20963 -3.03374 0
M  V30 2748 H 246.703 -0.855717 -3.56473 0
M  V30 2749 H 246.351 1.24642 -4.87312 0
M  V30 2750 H 246.051 -0.197356 -5.87268 0
M  V30 2751 H 247.575 0.715241 -6.06396 0
M  V30 2752 H 248.989 -1.49374 -5.53498 0
M  V30 2753 H 247.386 -2.2848 -5.54903 0
M  V30 2754 H 248.456 -2.50382 -4.15255 0
M  V30 2755 N 249.799 1.42003 -0.683588 0
M  V30 2756 C 250.762 2.29191 -0.0198243 0
M  V30 2757 C 251.762 1.43773 0.72013 0
M  V30 2758 O 252.952 1.65061 0.556815 0
M  V30 2759 C 250.084 3.26435 0.982487 0
M  V30 2760 H 251.277 2.8938 -0.787345 0
M  V30 2761 H 248.83 1.49789 -0.446418 0
M  V30 2762 H 249.565 2.71203 1.77819 0
M  V30 2763 H 249.35 3.89449 0.455182 0
M  V30 2764 H 250.84 3.918 1.44508 0
M  V30 2765 N 251.277 0.427512 1.51691 0
M  V30 2766 C 252.526 -0.143679 2.01188 0
M  V30 2767 C 252.839 -1.44642 1.31674 0
M  V30 2768 O 254.045 -2.09997 1.72086 0
M  V30 2769 C 252.501 -0.306602 3.58592 0
M  V30 2770 C 252.109 0.985125 4.37035 0
M  V30 2771 C 253.853 -0.832091 4.16265 0
M  V30 2772 C 251.76 0.788382 5.86122 0
M  V30 2773 H 250.69 -0.0574701 0.751807 0
M  V30 2774 H 253.341 0.555772 1.74881 0
M  V30 2775 H 251.723 -1.06882 3.81303 0
M  V30 2776 H 252.897 1.75492 4.26074 0
M  V30 2777 H 251.212 1.4384 3.90767 0
M  V30 2778 H 253.809 -0.995617 5.25349 0
M  V30 2779 H 254.152 -1.81186 3.74803 0
M  V30 2780 H 254.685 -0.128444 3.97593 0
M  V30 2781 H 251.424 1.74025 6.31978 0
M  V30 2782 H 250.944 0.0582143 5.99772 0
M  V30 2783 H 252.623 0.437722 6.45518 0
M  V30 2784 N 252.755 -1.56801 0.158532 0
M  V30 2785 C 254.001 -1.96781 -0.490405 0
M  V30 2786 C 254.334 -1.04397 -1.63753 0
M  V30 2787 O 253.609 -0.0885805 -1.94298 0
M  V30 2788 C 253.892 -3.4635 -0.985594 0
M  V30 2789 C 253.745 -4.49512 0.160824 0
M  V30 2790 C 255.064 -3.98697 -1.86355 0
M  V30 2791 H 252.183 -0.715482 -0.176788 0
M  V30 2792 H 254.825 -1.88451 0.242088 0
M  V30 2793 H 252.975 -3.53579 -1.60978 0
M  V30 2794 H 254.647 -4.54353 0.797537 0
M  V30 2795 H 252.89 -4.26013 0.818256 0
M  V30 2796 H 253.561 -5.51531 -0.227569 0
M  V30 2797 H 256.037 -3.94019 -1.33746 0
M  V30 2798 H 254.913 -5.03792 -2.17909 0
M  V30 2799 H 255.174 -3.41744 -2.8047 0
M  V30 2800 N 254.233 0.115231 -1.57178 0
M  V30 2801 C 255.481 0.820727 -1.84685 0
M  V30 2802 C 255.802 1.80237 -0.744279 0
M  V30 2803 O 255.072 1.94529 0.231375 0
M  V30 2804 H 253.652 0.306084 -0.681411 0
M  V30 2805 H 256.314 0.101656 -1.94635 0
M  V30 2806 H 255.41 1.36366 -2.80733 0
M  V30 2807 N 255.711 1.52812 0.385517 0
M  V30 2808 C 256.661 1.74219 1.47078 0
M  V30 2809 C 257.645 0.59632 1.49442 0
M  V30 2810 O 258.837 0.85428 1.5502 0
M  V30 2811 C 255.966 1.9176 2.84751 0
M  V30 2812 C 255.052 3.12289 2.86943 0
M  V30 2813 N 255.443 4.34575 2.58802 0
M  V30 2814 C 253.741 3.12605 3.1811 0
M  V30 2815 C 254.442 5.162 2.68166 0
M  V30 2816 N 253.418 4.51964 3.02043 0
M  V30 2817 H 257.22 2.6639 1.24152 0
M  V30 2818 H 254.734 1.51166 0.593504 0
M  V30 2819 H 256.731 2.05218 3.62893 0
M  V30 2820 H 255.391 1.00805 3.08656 0
M  V30 2821 H 256.402 4.62649 2.32759 0
M  V30 2822 H 253.079 2.31472 3.47458 0
M  V30 2823 H 254.469 6.23689 2.49923 0
M  V30 2824 N 257.189 -0.644168 1.43834 0
M  V30 2825 C 258.414 -1.43642 1.49605 0
M  V30 2826 C 258.839 -1.8773 0.117913 0
M  V30 2827 O 258.197 -1.57938 -0.890239 0
M  V30 2828 C 258.245 -2.6416 2.45463 0
M  V30 2829 O 257.349 -3.63538 1.94714 0
M  V30 2830 H 256.69 -0.430329 0.50568 0
M  V30 2831 H 259.22 -0.787448 1.8884 0
M  V30 2832 H 259.23 -3.11864 2.63068 0
M  V30 2833 H 257.905 -2.31414 3.45572 0
M  V30 2834 H 256.482 -3.2273 1.86814 0
M  V30 2835 N 258.668 -1.30515 -0.883378 0
M  V30 2836 C 259.598 -1.19607 -2.00541 0
M  V30 2837 C 260.579 -0.086346 -1.69881 0
M  V30 2838 O 261.764 -0.268654 -1.92333 0
M  V30 2839 C 258.894 -0.888758 -3.35736 0
M  V30 2840 C 257.848 -1.95659 -3.8066 0
M  V30 2841 C 257.174 -1.50224 -5.13164 0
M  V30 2842 C 258.474 -3.36788 -3.99213 0
M  V30 2843 H 260.168 -2.13476 -2.09925 0
M  V30 2844 H 257.714 -1.02775 -1.00863 0
M  V30 2845 H 259.667 -0.799094 -4.13754 0
M  V30 2846 H 258.391 0.0856125 -3.26488 0
M  V30 2847 H 257.05 -2.03591 -3.04871 0
M  V30 2848 H 256.698 -0.516092 -5.00345 0
M  V30 2849 H 256.398 -2.2165 -5.44192 0
M  V30 2850 H 257.922 -1.42639 -5.93706 0
M  V30 2851 H 259.336 -3.31605 -4.67665 0
M  V30 2852 H 257.733 -4.06314 -4.41621 0
M  V30 2853 H 258.803 -3.78561 -3.03017 0
M  V30 2854 N 260.146 1.09593 -1.13257 0
M  V30 2855 C 261.371 1.8604 -0.916732 0
M  V30 2856 C 261.796 1.80504 0.529146 0
M  V30 2857 O 261.154 1.18127 1.37534 0
M  V30 2858 C 261.202 3.32017 -1.40703 0
M  V30 2859 O 260.306 4.08141 -0.591153 0
M  V30 2860 H 259.647 0.576943 -0.328683 0
M  V30 2861 H 262.177 1.38405 -1.50682 0
M  V30 2862 H 262.187 3.82865 -1.4099 0
M  V30 2863 H 260.862 3.35361 -2.45979 0
M  V30 2864 H 259.439 3.67084 -0.656005 0
M  V30 2865 N 261.624 0.925811 1.2754 0
M  V30 2866 C 262.873 0.561084 1.93739 0
M  V30 2867 C 263.186 -0.901685 1.73577 0
M  V30 2868 O 264.392 -1.37511 2.34101 0
M  V30 2869 C 262.848 0.952668 3.47062 0
M  V30 2870 C 262.456 2.43599 3.75983 0
M  V30 2871 C 264.2 0.659103 4.19352 0
M  V30 2872 C 262.107 2.76707 5.22673 0
M  V30 2873 H 261.037 0.206122 0.725279 0
M  V30 2874 H 263.688 1.12637 1.44863 0
M  V30 2875 H 262.07 0.316053 3.94737 0
M  V30 2876 H 263.244 3.12035 3.39073 0
M  V30 2877 H 261.559 2.70125 3.16893 0
M  V30 2878 H 264.156 0.882985 5.27359 0
M  V30 2879 H 264.499 -0.403607 4.14339 0
M  V30 2880 H 265.032 1.25473 3.77494 0
M  V30 2881 H 261.771 3.8188 5.32774 0
M  V30 2882 H 261.291 2.12919 5.60737 0
M  V30 2883 H 262.97 2.6435 5.90532 0
M  V30 2884 N 263.102 -1.41638 0.69111 0
M  V30 2885 C 264.349 -2.01299 0.220193 0
M  V30 2886 C 264.677 -1.54715 -1.17871 0
M  V30 2887 O 263.932 -0.747193 -1.80874 0
M  V30 2888 C 264.231 -3.56714 0.221277 0
M  V30 2889 C 263.897 -4.22792 1.56709 0
M  V30 2890 C 262.559 -4.40557 1.93554 0
M  V30 2891 C 264.911 -4.59883 2.45268 0
M  V30 2892 C 262.239 -4.92688 3.18552 0
M  V30 2893 C 264.591 -5.13403 3.69595 0
M  V30 2894 C 263.255 -5.29379 4.06589 0
M  V30 2895 H 262.525 -0.736606 0.0805743 0
M  V30 2896 H 265.172 -1.69598 0.889319 0
M  V30 2897 H 263.477 -3.8818 -0.531391 0
M  V30 2898 H 265.174 -4.00678 -0.160547 0
M  V30 2899 H 261.764 -4.09336 1.2705 0
M  V30 2900 H 265.948 -4.45817 2.18084 0
M  V30 2901 H 261.204 -5.03242 3.47214 0
M  V30 2902 H 265.378 -5.41084 4.38407 0
M  V30 2903 H 263.005 -5.69537 5.03519 0
M  V30 2904 N 264.58 -0.43555 -1.51462 0
M  V30 2905 C 265.808 0.130242 -2.0649 0
M  V30 2906 C 266.223 1.36614 -1.30315 0
M  V30 2907 O 265.58 1.78869 -0.362223 0
M  V30 2908 C 265.631 0.454253 -3.58635 0
M  V30 2909 O 265.352 -0.73259 -4.31931 0
M  V30 2910 C 266.853 1.07091 -4.3017 0
M  V30 2911 H 264.073 0.00871669 -0.670943 0
M  V30 2912 H 266.617 -0.614117 -1.95061 0
M  V30 2913 H 264.772 1.14851 -3.69984 0
M  V30 2914 H 265.186 -0.455787 -5.22516 0
M  V30 2915 H 266.66 1.24764 -5.37716 0
M  V30 2916 H 267.137 2.05144 -3.88346 0
M  V30 2917 H 267.743 0.416089 -4.2326 0
M  V30 2918 N 266.058 1.56714 -0.166846 0
M  V30 2919 C 266.988 2.20754 0.760913 0
M  V30 2920 C 267.969 1.16178 1.24244 0
M  V30 2921 O 269.154 1.44592 1.29641 0
M  V30 2922 C 266.284 2.84478 1.99223 0
M  V30 2923 C 265.238 3.95053 1.64672 0
M  V30 2924 C 264.564 4.45805 2.95232 0
M  V30 2925 C 265.864 5.14865 0.878155 0
M  V30 2926 H 267.558 2.98537 0.22713 0
M  V30 2927 H 265.104 1.43596 0.107805 0
M  V30 2928 H 267.057 3.27951 2.64624 0
M  V30 2929 H 265.781 2.04056 2.55007 0
M  V30 2930 H 264.44 3.52228 1.01641 0
M  V30 2931 H 264.088 3.62181 3.49047 0
M  V30 2932 H 263.788 5.204 2.7287 0
M  V30 2933 H 265.312 4.91962 3.6167 0
M  V30 2934 H 266.726 5.55059 1.43466 0
M  V30 2935 H 265.123 5.95348 0.753738 0
M  V30 2936 H 266.193 4.84735 -0.126377 0
M  V30 2937 N 267.536 -0.106894 1.57237 0
M  V30 2938 C 268.782 -0.81373 1.85759 0
M  V30 2939 C 269.115 -1.78952 0.754315 0
M  V30 2940 O 268.39 -1.93029 -0.23879 0
M  V30 2941 C 268.673 -1.55293 3.24894 0
M  V30 2942 C 268.526 -0.595929 4.45835 0
M  V30 2943 C 269.845 -2.5063 3.61763 0
M  V30 2944 H 266.964 -0.294369 0.67566 0
M  V30 2945 H 269.606 -0.0776472 1.89841 0
M  V30 2946 H 267.756 -2.1804 3.21544 0
M  V30 2947 H 269.428 0.0236262 4.61294 0
M  V30 2948 H 267.671 0.0916191 4.33703 0
M  V30 2949 H 268.342 -1.15004 5.39887 0
M  V30 2950 H 270.818 -1.97982 3.65981 0
M  V30 2951 H 269.694 -2.99376 4.60071 0
M  V30 2952 H 269.955 -3.3385 2.89821 0
M  V30 2953 N 269.014 -1.53014 -0.377408 0
M  V30 2954 C 270.263 -1.67845 -1.11853 0
M  V30 2955 C 270.576 -0.430625 -1.90801 0
M  V30 2956 O 271.782 -0.459261 -2.67587 0
M  V30 2957 C 270.238 -2.96668 -2.03756 0
M  V30 2958 C 269.846 -4.28671 -1.30175 0
M  V30 2959 C 271.59 -3.20865 -2.77932 0
M  V30 2960 C 269.497 -5.48591 -2.20911 0
M  V30 2961 H 268.427 -0.625343 -0.421263 0
M  V30 2962 H 271.078 -1.79514 -0.380409 0
M  V30 2963 H 269.46 -2.78773 -2.8125 0
M  V30 2964 H 270.634 -4.57157 -0.578259 0
M  V30 2965 H 268.949 -4.10825 -0.679108 0
M  V30 2966 H 271.546 -4.07642 -3.46024 0
M  V30 2967 H 271.889 -2.36424 -3.4265 0
M  V30 2968 H 272.422 -3.39379 -2.07525 0
M  V30 2969 H 269.161 -6.35474 -1.6079 0
M  V30 2970 H 268.681 -5.244 -2.91144 0
M  V30 2971 H 270.36 -5.8292 -2.80736 0
M  V30 2972 N 270.492 0.636531 -1.44174 0
M  V30 2973 C 271.717 1.42847 -1.50364 0
M  V30 2974 C 272.142 1.87665 -0.127867 0
M  V30 2975 O 271.5 1.58408 0.88185 0
M  V30 2976 C 271.548 2.62854 -2.4686 0
M  V30 2977 O 270.652 3.62501 -1.9664 0
M  V30 2978 H 269.993 0.427642 -0.507955 0
M  V30 2979 H 272.523 0.777422 -1.89255 0
M  V30 2980 H 272.533 3.10465 -2.64718 0
M  V30 2981 H 271.208 2.29578 -3.46795 0
M  V30 2982 H 269.785 3.21735 -1.88523 0
M  V30 2983 N 271.97 1.30982 0.876444 0
M  V30 2984 C 272.9 1.20668 1.99903 0
M  V30 2985 C 273.881 0.095354 1.69833 0
M  V30 2986 O 275.066 0.27885 1.92188 0
M  V30 2987 C 272.196 0.90655 3.3526 0
M  V30 2988 C 271.15 1.97675 3.79617 0
M  V30 2989 C 270.476 1.52943 5.1236 0
M  V30 2990 C 271.776 3.389 3.97422 0
M  V30 2991 H 273.47 2.14586 2.0879 0
M  V30 2992 H 271.016 1.03308 1.00317 0
M  V30 2993 H 272.969 0.821025 4.13324 0
M  V30 2994 H 271.693 -0.0682969 3.26529 0
M  V30 2995 H 270.352 2.05205 3.03787 0
M  V30 2996 H 270 0.54262 5.00065 0
M  V30 2997 H 269.7 2.24532 5.43009 0
M  V30 2998 H 271.224 1.45786 5.92941 0
M  V30 2999 H 272.638 3.34081 4.659 0
M  V30 3000 H 271.035 4.0865 4.3946 0
M  V30 3001 H 272.105 3.80163 3.01006 0
M  V30 3002 N 273.449 -1.08991 1.13837 0
M  V30 3003 C 274.697 -1.80899 0.901098 0
M  V30 3004 C 275.018 -1.86356 -0.574134 0
M  V30 3005 O 274.288 -1.35235 -1.41733 0
M  V30 3006 H 272.868 -0.669966 0.330386 0
M  V30 3007 H 275.53 -1.318 1.43578 0
M  V30 3008 H 274.626 -2.83929 1.29578 0
M  V30 3009 N 274.927 -0.932562 -1.27047 0
M  V30 3010 C 276.176 -0.571351 -1.93439 0
M  V30 3011 C 276.489 0.892467 -1.74053 0
M  V30 3012 O 277.695 1.36267 -2.34826 0
M  V30 3013 C 276.151 -0.97106 -3.46552 0
M  V30 3014 C 275.759 -2.4559 -3.74686 0
M  V30 3015 C 277.503 -0.681333 -4.18997 0
M  V30 3016 C 275.41 -2.79475 -5.21198 0
M  V30 3017 H 274.34 -0.209966 -0.724176 0
M  V30 3018 H 276.991 -1.13403 -1.44263 0
M  V30 3019 H 275.373 -0.336983 -3.94564 0
M  V30 3020 H 276.547 -3.13829 -3.37414 0
M  V30 3021 H 274.862 -2.71802 -3.15456 0
M  V30 3022 H 277.459 -0.910939 -5.26883 0
M  V30 3023 H 277.802 0.381628 -4.14547 0
M  V30 3024 H 278.335 -1.27473 -3.76823 0
M  V30 3025 H 275.074 -3.847 -5.30741 0
M  V30 3026 H 274.594 -2.1589 -5.596 0
M  V30 3027 H 276.273 -2.67478 -5.89122 0
M  V30 3028 N 276.405 1.4127 -0.698611 0
M  V30 3029 C 277.652 2.0118 -0.230865 0
M  V30 3030 C 277.98 1.55338 1.17049 0
M  V30 3031 O 277.235 0.756775 1.80475 0
M  V30 3032 C 277.534 3.56592 -0.240192 0
M  V30 3033 C 277.2 4.21955 -1.58948 0
M  V30 3034 C 275.862 4.39524 -1.95887 0
M  V30 3035 C 278.214 4.58576 -2.47704 0
M  V30 3036 C 275.542 4.90992 -3.2116 0
M  V30 3037 C 277.894 5.11435 -3.72313 0
M  V30 3038 C 276.558 5.27215 -4.0939 0
M  V30 3039 H 275.828 0.736169 -0.0844796 0
M  V30 3040 H 278.475 1.69124 -0.8983 0
M  V30 3041 H 276.78 3.88456 0.510797 0
M  V30 3042 H 278.477 4.00758 0.139296 0
M  V30 3043 H 275.067 4.08657 -1.29219 0
M  V30 3044 H 279.251 4.44654 -2.20445 0
M  V30 3045 H 274.507 5.01393 -3.49878 0
M  V30 3046 H 278.681 5.38752 -4.4127 0
M  V30 3047 H 276.308 5.66859 -5.06533 0
M  V30 3048 N 277.883 0.443576 1.51229 0
M  V30 3049 C 279.129 -0.120975 2.02439 0
M  V30 3050 C 279.462 -1.41815 1.32674 0
M  V30 3051 O 278.737 -1.89373 0.443622 0
M  V30 3052 C 279.02 -0.333291 3.58554 0
M  V30 3053 C 278.873 0.982968 4.38928 0
M  V30 3054 C 280.192 -1.10028 4.26124 0
M  V30 3055 H 277.311 -0.0424923 0.735774 0
M  V30 3056 H 279.953 0.583794 1.80809 0
M  V30 3057 H 278.103 -0.933614 3.77115 0
M  V30 3058 H 279.775 1.61775 4.32003 0
M  V30 3059 H 278.018 1.58611 4.03763 0
M  V30 3060 H 278.689 0.788379 5.46341 0
M  V30 3061 H 281.165 -0.591711 4.11871 0
M  V30 3062 H 280.041 -1.21761 5.35225 0
M  V30 3063 H 280.302 -2.12996 3.87408 0
M  V30 3064 N 279.361 -1.56624 0.175154 0
M  V30 3065 C 280.608 -1.96999 -0.468811 0
M  V30 3066 C 280.936 -1.06129 -1.62994 0
M  V30 3067 O 280.191 -0.0961771 -1.95464 0
M  V30 3068 C 280.49 -3.43419 -0.989864 0
M  V30 3069 C 280.156 -4.50866 0.0557687 0
M  V30 3070 C 278.818 -4.79975 0.343134 0
M  V30 3071 C 281.17 -5.15551 0.765308 0
M  V30 3072 C 278.498 -5.71066 1.34536 0
M  V30 3073 C 280.85 -6.07724 1.75654 0
M  V30 3074 C 279.514 -6.35199 2.05132 0
M  V30 3075 H 278.784 -0.720869 -0.17155 0
M  V30 3076 H 281.431 -1.89616 0.267924 0
M  V30 3077 H 279.736 -3.47772 -1.80449 0
M  V30 3078 H 281.433 -3.72002 -1.49719 0
M  V30 3079 H 278.023 -4.28229 -0.178381 0
M  V30 3080 H 282.207 -4.9317 0.556513 0
M  V30 3081 H 277.463 -5.90635 1.57988 0
M  V30 3082 H 281.637 -6.56912 2.31169 0
M  V30 3083 H 279.264 -7.05584 2.8294 0
M  V30 3084 N 280.839 0.0985539 -1.57292 0
M  V30 3085 C 282.086 0.802678 -1.85912 0
M  V30 3086 C 282.414 1.78901 -0.763186 0
M  V30 3087 O 281.669 1.94178 0.243559 0
M  V30 3088 C 281.968 1.56927 -3.21105 0
M  V30 3089 C 281.634 0.725376 -4.45027 0
M  V30 3090 C 280.296 0.492726 -4.78671 0
M  V30 3091 C 282.648 0.138493 -5.21016 0
M  V30 3092 C 279.976 -0.336727 -5.85733 0
M  V30 3093 C 282.328 -0.678264 -6.28953 0
M  V30 3094 C 280.992 -0.921039 -6.61115 0
M  V30 3095 H 280.262 0.293721 -0.680301 0
M  V30 3096 H 282.909 0.0642841 -1.91392 0
M  V30 3097 H 281.214 2.37914 -3.11294 0
M  V30 3098 H 282.911 2.11841 -3.40477 0
M  V30 3099 H 279.501 0.916815 -4.18679 0
M  V30 3100 H 283.685 0.305404 -4.95359 0
M  V30 3101 H 278.941 -0.533836 -6.09065 0
M  V30 3102 H 283.115 -1.1399 -6.87007 0
M  V30 3103 H 280.742 -1.56556 -7.43905 0
M  V30 3104 N 282.317 1.53212 0.369288 0
M  V30 3105 C 283.733 1.42902 0.710712 0
M  V30 3106 C 283.933 0.565135 1.93413 0
M  V30 3107 O 282.989 0.0461484 2.52458 0
M  V30 3108 C 284.302 2.86042 0.927382 0
M  V30 3109 C 285.85 2.9565 1.02762 0
M  V30 3110 C 286.325 4.39843 1.27679 0
M  V30 3111 N 287.816 4.43256 1.34457 0
M  V30 3112 C 288.551 5.51929 1.55439 0
M  V30 3113 N 288.047 6.70655 1.73762 0
M  V30 3114 N 289.84 5.39502 1.57779 0
M  V30 3115 H 281.991 2.07888 -0.435457 0
M  V30 3116 H 284.254 0.938661 -0.132739 0
M  V30 3117 H 283.96 3.51557 0.100287 0
M  V30 3118 H 283.834 3.29472 1.83653 0
M  V30 3119 H 286.221 2.30291 1.84527 0
M  V30 3120 H 286.302 2.5562 0.0959504 0
M  V30 3121 H 285.946 5.05774 0.464175 0
M  V30 3122 H 285.876 4.77443 2.22162 0
M  V30 3123 H 288.367 3.5769 1.21926 0
M  V30 3124 H 288.68 7.49248 1.89335 0
M  V30 3125 H 287.025 6.73648 1.70948 0
M  V30 3126 H 290.216 4.45713 1.43029 0
M  V30 3127 H 290.389 6.2426 1.7379 0
M  V30 3128 N 283.795 -0.628877 1.44509 0
M  V30 3129 C 284.742 -1.74074 1.51549 0
M  V30 3130 C 285.712 -1.62084 0.363021 0
M  V30 3131 O 286.897 -1.81975 0.573567 0
M  V30 3132 C 284.037 -3.12328 1.46784 0
M  V30 3133 C 283.15 -3.35277 2.72422 0
M  V30 3134 C 282.285 -4.63515 2.59475 0
M  V30 3135 C 281.324 -4.7965 3.80266 0
M  V30 3136 N 280.461 -5.99168 3.65981 0
M  V30 3137 H 285.301 -1.67392 2.46544 0
M  V30 3138 H 282.838 -0.816527 1.22357 0
M  V30 3139 H 284.796 -3.92286 1.42012 0
M  V30 3140 H 283.426 -3.18018 0.553544 0
M  V30 3141 H 282.478 -2.49242 2.87372 0
M  V30 3142 H 283.79 -3.43078 3.62076 0
M  V30 3143 H 282.944 -5.51638 2.52548 0
M  V30 3144 H 281.683 -4.58076 1.67384 0
M  V30 3145 H 280.688 -3.89957 3.87574 0
M  V30 3146 H 281.913 -4.86902 4.73395 0
M  V30 3147 H 279.859 -5.94814 2.76644 0
M  V30 3148 H 279.776 -6.08035 4.49254 0
M  V30 3149 H 281.044 -6.89846 3.6295 0
M  V30 3150 N 285.273 -1.31445 -0.869486 0
M  V30 3151 C 286.203 -1.21727 -1.99261 0
M  V30 3152 C 287.184 -0.104359 -1.6978 0
M  V30 3153 O 288.369 -0.289038 -1.92037 0
M  V30 3154 C 285.499 -0.924317 -3.34774 0
M  V30 3155 C 284.453 -1.99685 -3.78563 0
M  V30 3156 C 283.779 -1.55658 -5.11541 0
M  V30 3157 C 285.079 -3.41003 -3.95619 0
M  V30 3158 H 286.773 -2.1569 -2.07649 0
M  V30 3159 H 284.319 -1.03839 -0.997675 0
M  V30 3160 H 286.272 -0.842934 -4.12883 0
M  V30 3161 H 284.996 0.0509793 -3.2656 0
M  V30 3162 H 283.655 -2.06813 -3.02694 0
M  V30 3163 H 283.303 -0.569132 -4.9977 0
M  V30 3164 H 283.003 -2.27409 -5.41811 0
M  V30 3165 H 284.527 -1.48928 -5.92159 0
M  V30 3166 H 285.941 -3.36547 -4.64122 0
M  V30 3167 H 284.338 -4.10975 -4.37286 0
M  V30 3168 H 285.408 -3.81754 -2.98985 0
M  V30 3169 N 286.751 1.08385 -1.14413 0
M  V30 3170 C 287.979 1.84517 -0.936001 0
M  V30 3171 C 288.394 1.81626 0.515503 0
M  V30 3172 O 287.751 1.22008 1.35721 0
M  V30 3173 C 287.802 3.32049 -1.42918 0
M  V30 3174 O 287.523 3.34951 -2.82381 0
M  V30 3175 C 289.024 4.24986 -1.26103 0
M  V30 3176 H 286.244 0.582491 -0.333084 0
M  V30 3177 H 288.788 1.36885 -1.5193 0
M  V30 3178 H 286.943 3.7707 -0.888641 0
M  V30 3179 H 287.357 4.27048 -3.04517 0
M  V30 3180 H 288.831 5.26615 -1.6547 0
M  V30 3181 H 289.308 4.38726 -0.20392 0
M  V30 3182 H 289.914 3.85791 -1.79012 0
M  V30 3183 N 288.23 0.939286 1.26551 0
M  V30 3184 C 289.458 0.602536 1.97932 0
M  V30 3185 C 289.873 -0.82206 1.69964 0
M  V30 3186 O 289.23 -1.54789 0.966784 0
M  V30 3187 C 289.281 0.832946 3.51773 0
M  V30 3188 O 289.002 2.20151 3.78768 0
M  V30 3189 C 290.503 0.506483 4.40397 0
M  V30 3190 H 287.723 0.227248 0.631347 0
M  V30 3191 H 290.267 1.25948 1.61113 0
M  V30 3192 H 288.422 0.222644 3.8676 0
M  V30 3193 H 288.836 2.26013 4.73306 0
M  V30 3194 H 290.31 0.718333 5.47306 0
M  V30 3195 H 290.787 -0.558451 4.35635 0
M  V30 3196 H 291.393 1.09543 4.10951 0
M  V30 3197 N 289.708 -1.40897 0.706093 0
M  V30 3198 C 290.957 -2.00284 0.238574 0
M  V30 3199 C 291.27 -1.56604 -1.17194 0
M  V30 3200 O 292.476 -2.08624 -1.73748 0
M  V30 3201 C 290.932 -3.57934 0.375623 0
M  V30 3202 C 290.54 -4.10591 1.79217 0
M  V30 3203 C 292.284 -4.24488 -0.0315857 0
M  V30 3204 C 290.191 -5.60712 1.88032 0
M  V30 3205 H 289.121 -0.749144 0.0854398 0
M  V30 3206 H 291.772 -1.61251 0.875813 0
M  V30 3207 H 290.154 -3.94622 -0.330042 0
M  V30 3208 H 291.328 -3.85301 2.52745 0
M  V30 3209 H 289.643 -3.56601 2.15 0
M  V30 3210 H 292.24 -5.34698 0.0136842 0
M  V30 3211 H 292.583 -4.02261 -1.072 0
M  V30 3212 H 293.116 -3.92873 0.624181 0
M  V30 3213 H 289.855 -5.87781 2.90161 0
M  V30 3214 H 289.375 -5.87896 1.18903 0
M  V30 3215 H 291.054 -6.25658 1.64805 0
M  V30 3216 N 291.186 -0.45159 -1.50991 0
M  V30 3217 C 292.433 0.110074 -2.02201 0
M  V30 3218 C 292.761 1.4146 -1.33489 0
M  V30 3219 O 292.016 1.90617 -0.443125 0
M  V30 3220 C 292.315 0.361728 -3.55565 0
M  V30 3221 C 291.981 -0.858717 -4.42648 0
M  V30 3222 C 290.643 -1.19338 -4.66167 0
M  V30 3223 C 292.995 -1.67221 -4.93646 0
M  V30 3224 C 290.323 -2.34195 -5.37931 0
M  V30 3225 C 292.675 -2.8119 -5.6667 0
M  V30 3226 C 291.339 -3.15094 -5.88449 0
M  V30 3227 H 290.609 0.040279 -0.739904 0
M  V30 3228 H 293.256 -0.601696 -1.81802 0
M  V30 3229 H 291.561 1.15554 -3.74372 0
M  V30 3230 H 293.258 0.80996 -3.92735 0
M  V30 3231 H 289.848 -0.58796 -4.24548 0
M  V30 3232 H 294.032 -1.42686 -4.75347 0
M  V30 3233 H 289.288 -2.6076 -5.53005 0
M  V30 3234 H 293.462 -3.44585 -6.05173 0
M  V30 3235 H 291.089 -4.04204 -6.43835 0
M  V30 3236 N 292.664 1.56529 -0.183458 0
M  V30 3237 C 294.075 1.83739 0.331177 0
M  V30 3238 C 294.426 1.10373 1.62211 0
M  V30 3239 O 293.551 0.36071 2.13373 0
M  V30 3240 C 294.146 3.33306 0.607646 0
M  V30 3241 C 292.705 3.60969 1.06668 0
M  V30 3242 C 291.852 2.77086 0.109029 0
M  V30 3243 H 294.803 1.53379 -0.407484 0
M  V30 3244 H 294.824 3.51444 1.45832 0
M  V30 3245 H 294.336 3.86677 -0.332086 0
M  V30 3246 H 292.437 3.13021 2.0211 0
M  V30 3247 H 292.55 4.69231 0.967447 0
M  V30 3248 H 290.914 2.47319 0.608714 0
M  V30 3249 H 291.697 3.33241 -0.82494 0
M  V30 3250 N 294.142 -0.090211 1.57342 0
M  V30 3251 C 295.072 -1.10976 2.05443 0
M  V30 3252 C 296.053 -1.41482 0.944284 0
M  V30 3253 O 297.238 -1.51428 1.21586 0
M  V30 3254 C 294.368 -2.42831 2.48295 0
M  V30 3255 C 293.322 -2.26721 3.63018 0
M  V30 3256 C 292.648 -3.63796 3.91863 0
M  V30 3257 C 293.948 -1.7037 4.93732 0
M  V30 3258 H 295.642 -0.709564 2.9087 0
M  V30 3259 H 293.188 -0.339874 1.39932 0
M  V30 3260 H 295.141 -3.14431 2.80555 0
M  V30 3261 H 293.865 -2.84795 1.59873 0
M  V30 3262 H 292.524 -1.57565 3.31012 0
M  V30 3263 H 292.172 -4.03297 3.00601 0
M  V30 3264 H 291.872 -3.53861 4.69101 0
M  V30 3265 H 293.396 -4.36855 4.26603 0
M  V30 3266 H 294.81 -2.31816 5.24342 0
M  V30 3267 H 293.207 -1.71181 5.75167 0
M  V30 3268 H 294.277 -0.663542 4.80339 0
M  V30 3269 N 295.62 -1.53406 -0.361157 0
M  V30 3270 C 296.568 -1.80832 -1.46296 0
M  V30 3271 C 297.562 -0.677699 -1.55253 0
M  V30 3272 O 298.768 -0.860723 -1.58087 0
M  V30 3273 H 295.143 -0.572627 -0.487445 0
M  V30 3274 H 297.114 -2.73045 -1.20371 0
M  V30 3275 C 295.863 -2.01907 -2.8307 0
M  V30 3276 H 295.186 -2.88349 -2.76938 0
M  V30 3277 H 296.626 -2.25072 -3.59331 0
M  V30 3278 C 295.085 -0.799449 -3.27277 0
M  V30 3279 O 295.615 0.00971761 -4.01699 0
M  V30 3280 N 293.821 -0.621637 -2.83873 0
M  V30 3281 H 293.368 -1.28126 -2.23476 0
M  V30 3282 H 293.326 0.19298 -3.13807 0
M  V30 3283 N 297.098 0.621204 -1.44841 0
M  V30 3284 C 298.344 1.38073 -1.49357 0
M  V30 3285 C 298.699 1.91973 -0.128115 0
M  V30 3286 O 297.992 1.71311 0.858087 0
M  V30 3287 C 298.186 2.55675 -2.4973 0
M  V30 3288 C 298.015 2.13289 -3.95901 0
M  V30 3289 C 296.785 2.001 -4.63991 0
M  V30 3290 C 298.983 1.7159 -4.84831 0
M  V30 3291 N 296.965 1.51381 -5.94943 0
M  V30 3292 C 298.336 1.34188 -6.05304 0
M  V30 3293 C 300.391 1.59059 -4.7181 0
M  V30 3294 C 299.094 0.855085 -7.14199 0
M  V30 3295 C 301.12 1.11784 -5.8074 0
M  V30 3296 C 300.482 0.753385 -7.0036 0
M  V30 3297 H 296.581 0.499675 -0.601539 0
M  V30 3298 H 299.165 0.711609 -1.8123 0
M  V30 3299 H 297.336 3.20201 -2.19832 0
M  V30 3300 H 299.068 3.22509 -2.4448 0
M  V30 3301 H 295.823 2.20863 -4.18947 0
M  V30 3302 H 296.247 1.29293 -6.64539 0
M  V30 3303 H 300.889 1.85865 -3.79755 0
M  V30 3304 H 298.607 0.574552 -8.06055 0
M  V30 3305 H 302.193 1.02533 -5.72694 0
M  V30 3306 H 301.073 0.393183 -7.83214 0
M  V30 3307 N 298.576 1.31904 0.862503 0
M  V30 3308 C 299.523 1.20182 1.9704 0
M  V30 3309 C 300.493 0.0858247 1.65878 0
M  V30 3310 O 301.678 0.26 1.8902 0
M  V30 3311 C 298.818 0.922797 3.32533 0
M  V30 3312 C 297.931 2.12284 3.76244 0
M  V30 3313 C 297.066 1.77996 5.00491 0
M  V30 3314 C 296.105 2.94366 5.36671 0
M  V30 3315 N 295.242 2.60223 6.52095 0
M  V30 3316 H 300.082 2.14951 2.06398 0
M  V30 3317 H 297.619 1.06917 1.01031 0
M  V30 3318 H 299.577 0.741548 4.10557 0
M  V30 3319 H 298.207 0.0119227 3.22798 0
M  V30 3320 H 297.259 2.41461 2.9394 0
M  V30 3321 H 298.571 2.99357 3.98982 0
M  V30 3322 H 297.725 1.56377 5.862 0
M  V30 3323 H 296.464 0.881252 4.79672 0
M  V30 3324 H 295.469 3.16625 4.49476 0
M  V30 3325 H 296.694 3.84957 5.59451 0
M  V30 3326 H 294.64 1.72884 6.32809 0
M  V30 3327 H 294.557 3.40827 6.74814 0
M  V30 3328 H 295.825 2.42016 7.40978 0
M  V30 3329 N 300.054 -1.07777 1.14986 0
M  V30 3330 C 301.284 -1.83752 0.944402 0
M  V30 3331 C 301.692 -1.8218 -0.51058 0
M  V30 3332 O 301.035 -1.22852 -1.36576 0
M  V30 3333 C 301.097 -3.32128 1.37592 0
M  V30 3334 C 300.761 -3.57425 2.84775 0
M  V30 3335 C 301.758 -3.5173 3.8286 0
M  V30 3336 C 299.443 -3.8523 3.2234 0
M  V30 3337 C 301.437 -3.73482 5.16517 0
M  V30 3338 C 299.124 -4.06634 4.56171 0
M  V30 3339 C 300.122 -4.00754 5.53069 0
M  V30 3340 O 299.81 -4.2159 6.84483 0
M  V30 3341 H 299.542 -0.58673 0.335744 0
M  V30 3342 H 302.096 -1.36982 1.53052 0
M  V30 3343 H 300.326 -3.79686 0.733165 0
M  V30 3344 H 302.015 -3.89555 1.14024 0
M  V30 3345 H 302.781 -3.30256 3.55184 0
M  V30 3346 H 298.66 -3.88923 2.47508 0
M  V30 3347 H 302.204 -3.68808 5.92137 0
M  V30 3348 H 298.101 -4.27593 4.83564 0
M  V30 3349 H 298.869 -4.38961 6.90837 0
M  V30 3350 N 301.532 -0.945985 -1.26051 0
M  V30 3351 C 302.948 -0.649045 -1.45807 0
M  V30 3352 C 303.148 0.796158 -1.85104 0
M  V30 3353 O 302.204 1.57233 -1.97571 0
M  V30 3354 C 303.517 -1.61458 -2.53677 0
M  V30 3355 C 305.065 -1.62481 -2.67524 0
M  V30 3356 C 305.54 -2.57776 -3.7857 0
M  V30 3357 N 307.031 -2.5609 -3.85969 0
M  V30 3358 C 307.766 -3.26508 -4.7136 0
M  V30 3359 N 307.262 -4.0637 -5.61102 0
M  V30 3360 N 309.055 -3.15437 -4.65248 0
M  V30 3361 H 301.206 -1.88005 -0.988328 0
M  V30 3362 H 303.469 -0.808198 -0.4955 0
M  V30 3363 H 303.175 -2.64644 -2.31638 0
M  V30 3364 H 303.049 -1.37036 -3.51427 0
M  V30 3365 H 305.436 -0.600167 -2.88933 0
M  V30 3366 H 305.517 -1.90958 -1.70202 0
M  V30 3367 H 305.161 -3.60361 -3.57913 0
M  V30 3368 H 305.091 -2.26587 -4.75359 0
M  V30 3369 H 307.582 -1.98105 -3.21812 0
M  V30 3370 H 307.895 -4.57042 -6.23164 0
M  V30 3371 H 306.24 -4.10469 -5.60839 0
M  V30 3372 H 309.431 -2.52525 -3.94143 0
M  V30 3373 H 309.604 -3.70584 -5.31575 0
M  V30 3374 N 303.011 1.40521 -0.713556 0
M  V30 3375 C 303.958 2.30723 -0.059684 0
M  V30 3376 C 304.928 1.48079 0.752448 0
M  V30 3377 O 306.113 1.76823 0.71681 0
M  V30 3378 C 303.253 3.34274 0.857594 0
M  V30 3379 C 302.366 4.31986 0.0351536 0
M  V30 3380 C 301.501 5.22605 0.951724 0
M  V30 3381 C 300.54 6.11976 0.123253 0
M  V30 3382 N 299.677 6.9502 0.99459 0
M  V30 3383 H 304.517 2.86074 -0.834596 0
M  V30 3384 H 302.054 1.40879 -0.42326 0
M  V30 3385 H 304.012 3.92879 1.40364 0
M  V30 3386 H 302.642 2.8043 1.59871 0
M  V30 3387 H 301.694 3.7518 -0.628052 0
M  V30 3388 H 303.006 4.95101 -0.606347 0
M  V30 3389 H 302.16 5.86131 1.56638 0
M  V30 3390 H 300.899 4.59759 1.62705 0
M  V30 3391 H 299.904 5.47482 -0.50435 0
M  V30 3392 H 301.129 6.76881 -0.548539 0
M  V30 3393 H 299.075 6.34764 1.6556 0
M  V30 3394 H 298.992 7.54892 0.40908 0
M  V30 3395 H 300.26 7.62997 1.59549 0
M  V30 3396 N 304.489 0.459591 1.5075 0
M  V30 3397 C 305.452 -0.329093 2.26825 0
M  V30 3398 C 306.452 -0.930481 1.31144 0
M  V30 3399 O 307.642 -0.801453 1.54669 0
M  V30 3400 C 304.774 -1.46768 3.07688 0
M  V30 3401 H 305.967 0.337924 2.9799 0
M  V30 3402 H 303.52 0.213336 1.54837 0
M  V30 3403 H 304.255 -2.17009 2.40993 0
M  V30 3404 H 304.04 -1.04238 3.77991 0
M  V30 3405 H 305.53 -2.02433 3.65254 0
M  V30 3406 N 305.967 -1.56429 0.191757 0
M  V30 3407 C 306.897 -2.21937 -0.725696 0
M  V30 3408 C 307.878 -1.1814 -1.2238 0
M  V30 3409 O 309.063 -1.46636 -1.27325 0
M  V30 3410 C 306.193 -2.87611 -1.94672 0
M  V30 3411 C 305.147 -3.97623 -1.58366 0
M  V30 3412 C 304.473 -4.50446 -2.88102 0
M  V30 3413 C 305.773 -5.16197 -0.796133 0
M  V30 3414 H 307.467 -2.98861 -0.179606 0
M  V30 3415 H 305.013 -1.43749 -0.0849464 0
M  V30 3416 H 306.966 -3.3212 -2.59373 0
M  V30 3417 H 305.69 -2.08087 -2.51728 0
M  V30 3418 H 304.349 -3.53801 -0.960247 0
M  V30 3419 H 303.997 -3.67688 -3.43241 0
M  V30 3420 H 303.697 -5.24675 -2.64556 0
M  V30 3421 H 305.221 -4.97654 -3.53798 0
M  V30 3422 H 306.635 -5.57271 -1.34618 0
M  V30 3423 H 305.032 -5.96471 -0.658928 0
M  V30 3424 H 306.102 -4.84473 0.203478 0
M  V30 3425 N 307.445 0.0818655 -1.57387 0
M  V30 3426 C 308.67 0.799946 -1.91352 0
M  V30 3427 C 309.095 1.70833 -0.787258 0
M  V30 3428 O 308.453 1.79419 0.26048 0
M  V30 3429 C 308.501 1.57812 -3.24234 0
M  V30 3430 O 307.605 2.68806 -3.12757 0
M  V30 3431 H 306.946 0.21891 -0.626877 0
M  V30 3432 H 309.476 0.0531256 -2.04531 0
M  V30 3433 H 309.486 1.95952 -3.57864 0
M  V30 3434 H 308.161 0.911548 -4.05788 0
M  V30 3435 H 306.738 2.33597 -2.90666 0
M  V30 3436 N 308.923 1.53595 0.353017 0
M  V30 3437 C 309.853 1.83902 1.43883 0
M  V30 3438 C 310.834 0.693421 1.55324 0
M  V30 3439 O 312.019 0.944452 1.69687 0
M  V30 3440 C 309.149 2.04016 2.8106 0
M  V30 3441 C 308.103 3.19814 2.84434 0
M  V30 3442 C 307.429 3.25244 4.24406 0
M  V30 3443 C 308.729 4.58133 2.50822 0
M  V30 3444 H 310.423 2.74835 1.1877 0
M  V30 3445 H 307.969 1.32242 0.569917 0
M  V30 3446 H 309.922 2.238 3.57059 0
M  V30 3447 H 308.646 1.09804 3.07588 0
M  V30 3448 H 307.305 2.9987 2.10887 0
M  V30 3449 H 306.953 2.28646 4.48029 0
M  V30 3450 H 306.653 4.03054 4.27576 0
M  V30 3451 H 308.177 3.47228 5.0226 0
M  V30 3452 H 309.591 4.77995 3.16534 0
M  V30 3453 H 307.988 5.38276 2.6529 0
M  V30 3454 H 309.058 4.62387 1.46034 0
M  V30 3455 N 310.401 -0.613514 1.45168 0
M  V30 3456 C 311.649 -1.36997 1.48581 0
M  V30 3457 C 311.97 -1.94589 0.126545 0
M  V30 3458 O 311.24 -1.76816 -0.843372 0
M  V30 3459 H 309.82 -0.508558 0.547154 0
M  V30 3460 H 312.482 -0.720853 1.81079 0
M  V30 3461 H 311.578 -2.1924 2.22127 0
M  V30 3462 N 311.879 -1.3236 -0.855495 0
M  V30 3463 C 313.119 -1.24187 -1.62348 0
M  V30 3464 C 313.483 0.193597 -1.91021 0
M  V30 3465 O 314.684 0.39904 -2.65822 0
M  V30 3466 C 312.955 -2.07661 -2.90881 0
M  V30 3467 S 314.514 -2.16505 -3.81669 0
M  V30 3468 H 311.332 -0.442076 -0.556857 0
M  V30 3469 H 313.934 -1.67198 -1.01317 0
M  V30 3470 H 312.638 -3.11018 -2.67761 0
M  V30 3471 H 312.169 -1.65425 -3.56929 0
M  V30 3472 H 314.184 -1.31394 -4.78487 0
M  V30 3473 N 313.357 1.07166 -1.15556 0
M  V30 3474 C 314.289 2.14341 -0.811815 0
M  V30 3475 C 315.302 1.61835 0.177015 0
M  V30 3476 O 316.491 1.78439 -0.0464996 0
M  V30 3477 C 313.591 3.38387 -0.186481 0
M  V30 3478 C 312.764 4.20238 -1.21321 0
M  V30 3479 C 311.823 5.2266 -0.609302 0
M  V30 3480 O 310.849 5.54719 -1.27576 0
M  V30 3481 N 312.051 5.77306 0.608099 0
M  V30 3482 H 314.816 2.44431 -1.73417 0
M  V30 3483 H 312.377 1.23089 -1.0517 0
M  V30 3484 H 314.369 4.04044 0.230339 0
M  V30 3485 H 312.939 3.05994 0.639249 0
M  V30 3486 H 312.159 3.50369 -1.80652 0
M  V30 3487 H 313.447 4.71736 -1.90638 0
M  V30 3488 H 312.845 5.53513 1.1679 0
M  V30 3489 H 311.402 6.44583 0.96725 0
M  V30 3490 N 314.835 0.952656 1.25548 0
M  V30 3491 C 316.251 0.656769 1.4546 0
M  V30 3492 C 316.451 -0.78633 1.85524 0
M  V30 3493 O 315.507 -1.56183 1.98402 0
M  V30 3494 C 316.82 1.62801 2.52817 0
M  V30 3495 C 318.368 1.63897 2.66659 0
M  V30 3496 C 318.843 2.5978 3.77198 0
M  V30 3497 N 320.334 2.58133 3.84606 0
M  V30 3498 C 321.069 3.29003 4.69621 0
M  V30 3499 N 320.565 4.09339 5.58939 0
M  V30 3500 N 322.358 3.179 4.63569 0
M  V30 3501 H 314.509 1.88526 0.978344 0
M  V30 3502 H 316.772 0.810815 0.491206 0
M  V30 3503 H 316.478 2.65869 2.30232 0
M  V30 3504 H 316.352 1.38898 3.50695 0
M  V30 3505 H 318.739 0.615481 2.8861 0
M  V30 3506 H 318.82 1.91858 1.69187 0
M  V30 3507 H 318.464 3.62254 3.55997 0
M  V30 3508 H 318.394 2.29105 4.7415 0
M  V30 3509 H 320.885 1.99809 3.20757 0
M  V30 3510 H 321.198 4.6034 6.20731 0
M  V30 3511 H 319.543 4.13438 5.58654 0
M  V30 3512 H 322.734 2.54612 3.92798 0
M  V30 3513 H 322.907 3.73398 5.29602 0
M  V30 3514 N 316.313 -1.40141 0.720998 0
M  V30 3515 C 317.559 -2.01084 0.263231 0
M  V30 3516 C 317.892 -1.57052 -1.14229 0
M  V30 3517 O 317.167 -0.793027 -1.77599 0
M  V30 3518 C 317.45 -3.58401 0.349344 0
M  V30 3519 C 317.303 -4.12491 1.79363 0
M  V30 3520 C 318.622 -4.39231 -0.276351 0
M  V30 3521 H 315.741 -0.730572 0.0971228 0
M  V30 3522 H 318.383 -1.66543 0.914518 0
M  V30 3523 H 316.533 -3.87958 -0.205165 0
M  V30 3524 H 318.205 -3.93711 2.40394 0
M  V30 3525 H 316.448 -3.66576 2.31958 0
M  V30 3526 H 317.119 -5.21646 1.80524 0
M  V30 3527 H 319.595 -4.15637 0.196184 0
M  V30 3528 H 318.471 -5.48586 -0.185681 0
M  V30 3529 H 318.732 -4.20643 -1.36059 0
M  V30 3530 N 317.792 -0.46758 -1.50504 0
M  V30 3531 C 319.02 0.0864133 -2.06719 0
M  V30 3532 C 319.435 1.33819 -1.33184 0
M  V30 3533 O 318.792 1.78061 -0.400083 0
M  V30 3534 C 318.843 0.378079 -3.59517 0
M  V30 3535 O 318.564 -0.824044 -4.3028 0
M  V30 3536 C 320.065 0.979426 -4.32345 0
M  V30 3537 H 317.285 -0.00551697 -0.670977 0
M  V30 3538 H 319.829 -0.655354 -1.93715 0
M  V30 3539 H 317.984 1.06977 -3.72337 0
M  V30 3540 H 318.398 -0.566518 -5.21432 0
M  V30 3541 H 319.872 1.1333 -5.40241 0
M  V30 3542 H 320.349 1.9686 -3.9261 0
M  V30 3543 H 320.955 0.326216 -4.24047 0
M  V30 3544 N 319.27 1.56325 -0.20005 0
M  V30 3545 C 320.2 2.22318 0.713916 0
M  V30 3546 C 321.181 1.18788 1.21752 0
M  V30 3547 O 322.366 1.47309 1.26545 0
M  V30 3548 C 319.496 2.88639 1.93144 0
M  V30 3549 C 318.45 3.98457 1.56255 0
M  V30 3550 C 317.776 4.51967 2.85709 0
M  V30 3551 C 319.076 5.16612 0.768747 0
M  V30 3552 H 320.77 2.98952 0.163755 0
M  V30 3553 H 318.316 1.43792 0.0773219 0
M  V30 3554 H 320.269 3.33491 2.57608 0
M  V30 3555 H 318.993 2.09419 2.50621 0
M  V30 3556 H 317.652 3.54305 0.941471 0
M  V30 3557 H 317.3 3.69503 3.41287 0
M  V30 3558 H 317 5.26071 2.6177 0
M  V30 3559 H 318.524 4.99523 3.51154 0
M  V30 3560 H 319.938 5.57977 1.3166 0
M  V30 3561 H 318.335 5.96812 0.627286 0
M  V30 3562 H 319.405 4.84358 -0.229168 0
M  V30 3563 N 320.748 -0.0735177 1.57428 0
M  V30 3564 C 321.698 -1.09442 2.00016 0
M  V30 3565 C 322.682 -1.34575 0.881947 0
M  V30 3566 O 323.874 -1.34905 1.14585 0
M  V30 3567 C 321.003 -2.40865 2.4462 0
M  V30 3568 C 320.089 -2.19014 3.63172 0
M  V30 3569 N 320.48 -1.67087 4.77405 0
M  V30 3570 C 318.778 -2.49494 3.69688 0
M  V30 3571 C 319.479 -1.6001 5.5926 0
M  V30 3572 N 318.455 -2.05999 5.03056 0
M  V30 3573 H 322.257 -0.686227 2.85776 0
M  V30 3574 H 319.771 -0.280617 1.59957 0
M  V30 3575 H 321.768 -3.14763 2.73368 0
M  V30 3576 H 320.428 -2.82403 1.60246 0
M  V30 3577 H 321.439 -1.35975 4.99731 0
M  V30 3578 H 318.116 -2.94409 2.96023 0
M  V30 3579 H 319.506 -1.2073 6.60964 0
M  V30 3580 N 322.226 -1.5378 -0.344866 0
M  V30 3581 C 323.173 -1.81676 -1.42346 0
M  V30 3582 C 324.143 -0.662376 -1.52321 0
M  V30 3583 O 325.328 -0.906675 -1.67881 0
M  V30 3584 C 322.468 -2.03087 -2.79015 0
M  V30 3585 C 321.581 -3.30799 -2.77842 0
M  V30 3586 C 320.716 -3.42285 -4.0622 0
M  V30 3587 C 319.755 -4.6395 -3.9927 0
M  V30 3588 N 318.892 -4.72477 -5.19336 0
M  V30 3589 H 323.732 -2.73703 -1.17858 0
M  V30 3590 H 321.269 -1.35568 -0.570949 0
M  V30 3591 H 323.227 -2.1349 -3.58438 0
M  V30 3592 H 321.857 -1.14375 -3.01858 0
M  V30 3593 H 320.909 -3.29244 -1.90533 0
M  V30 3594 H 322.221 -4.20314 -2.68584 0
M  V30 3595 H 321.375 -3.52113 -4.94066 0
M  V30 3596 H 320.114 -2.50823 -4.18258 0
M  V30 3597 H 319.119 -4.54201 -3.09809 0
M  V30 3598 H 320.344 -5.56775 -3.88817 0
M  V30 3599 H 318.29 -3.83924 -5.3192 0
M  V30 3600 H 318.207 -5.55927 -5.12329 0
M  V30 3601 H 319.475 -4.86613 -6.08957 0
M  V30 3602 N 323.704 0.605807 -1.45491 0
M  V30 3603 C 324.652 1.73754 -1.54636 0
M  V30 3604 C 325.646 1.64207 -0.416219 0
M  V30 3605 O 326.852 1.69979 -0.592199 0
M  V30 3606 H 323.227 0.574073 -0.485741 0
M  V30 3607 H 325.198 1.63169 -2.49837 0
M  V30 3608 C 323.947 3.12135 -1.53189 0
M  V30 3609 H 323.27 3.20141 -2.39478 0
M  V30 3610 H 324.71 3.91147 -1.63645 0
M  V30 3611 C 323.169 3.35921 -0.256616 0
M  V30 3612 O 323.699 3.96194 0.662798 0
M  V30 3613 N 321.905 2.90204 -0.151751 0
M  V30 3614 H 321.452 2.41336 -0.90081 0
M  V30 3615 H 321.41 3.06492 0.700699 0
M  V30 3616 N 325.182 1.32811 0.848464 0
M  V30 3617 C 326.115 1.16601 1.96162 0
M  V30 3618 C 327.093 0.0638855 1.62474 0
M  V30 3619 O 328.277 0.224348 1.8716 0
M  V30 3620 C 325.404 0.786333 3.29446 0
M  V30 3621 C 324.45 1.89459 3.8211 0
M  V30 3622 S 325.283 3.50395 4.04949 0
M  V30 3623 C 326.439 3.14413 5.41198 0
M  V30 3624 H 326.672 2.10832 2.09612 0
M  V30 3625 H 324.205 1.17543 1.00115 0
M  V30 3626 H 326.163 0.574044 4.06466 0
M  V30 3627 H 324.824 -0.137218 3.138 0
M  V30 3628 H 324.017 1.58207 4.78526 0
M  V30 3629 H 323.619 2.06304 3.11953 0
M  V30 3630 H 325.911 2.64642 6.23675 0
M  V30 3631 H 326.854 4.09874 5.77416 0
M  V30 3632 H 327.262 2.51266 5.05495 0
M  V30 3633 N 326.66 -1.06551 1.16123 0
M  V30 3634 C 327.907 -1.79302 0.941126 0
M  V30 3635 C 328.235 -1.87105 -0.531235 0
M  V30 3636 O 327.49 -1.35692 -1.41018 0
M  V30 3637 C 327.789 -3.23911 1.51052 0
M  V30 3638 C 327.455 -3.36193 3.00475 0
M  V30 3639 C 326.117 -3.39252 3.41265 0
M  V30 3640 C 328.469 -3.38326 3.96465 0
M  V30 3641 C 325.797 -3.42057 4.76669 0
M  V30 3642 C 328.149 -3.4267 5.31752 0
M  V30 3643 C 326.813 -3.4401 5.72026 0
M  V30 3644 H 326.083 -0.656111 0.344382 0
M  V30 3645 H 328.73 -1.25325 1.44796 0
M  V30 3646 H 327.035 -3.80723 0.925063 0
M  V30 3647 H 328.732 -3.78793 1.31593 0
M  V30 3648 H 325.322 -3.34516 2.6795 0
M  V30 3649 H 329.506 -3.35176 3.6602 0
M  V30 3650 H 324.762 -3.41398 5.07206 0
M  V30 3651 H 328.936 -3.43268 6.05921 0
M  V30 3652 H 326.563 -3.45937 6.76928 0
M  V30 3653 N 328.138 -0.959301 -1.25041 0
M  V30 3654 C 329.068 -0.501388 -2.28053 0
M  V30 3655 C 330.049 0.454673 -1.63911 0
M  V30 3656 O 331.234 0.352618 -1.90972 0
M  V30 3657 C 328.364 0.217224 -3.4662 0
M  V30 3658 C 327.318 -0.654034 -4.22973 0
M  V30 3659 C 326.644 0.195589 -5.34342 0
M  V30 3660 C 327.944 -1.93447 -4.85155 0
M  V30 3661 H 329.638 -1.36238 -2.66608 0
M  V30 3662 H 327.184 -0.656534 -1.28163 0
M  V30 3663 H 329.137 0.548732 -4.17812 0
M  V30 3664 H 327.861 1.1125 -3.07068 0
M  V30 3665 H 326.52 -0.968693 -3.5357 0
M  V30 3666 H 326.168 1.09076 -4.91031 0
M  V30 3667 H 325.868 -0.384091 -5.86343 0
M  V30 3668 H 327.392 0.521958 -6.08365 0
M  V30 3669 H 328.806 -1.66908 -5.48466 0
M  V30 3670 H 327.203 -2.46018 -5.47353 0
M  V30 3671 H 328.273 -2.63466 -4.07079 0
M  V30 3672 N 329.616 1.39756 -0.72842 0
M  V30 3673 C 330.844 2.04948 -0.283528 0
M  V30 3674 C 331.259 1.54908 1.0793 0
M  V30 3675 O 330.616 0.711135 1.68075 0
M  V30 3676 C 330.667 3.60498 -0.268957 0
M  V30 3677 O 330.388 4.08695 -1.57798 0
M  V30 3678 C 331.889 4.4288 0.192912 0
M  V30 3679 H 329.109 0.659243 -0.125056 0
M  V30 3680 H 331.653 1.78927 -0.990226 0
M  V30 3681 H 329.808 3.85444 0.388801 0
M  V30 3682 H 330.222 5.02977 -1.48709 0
M  V30 3683 H 331.696 5.51791 0.151952 0
M  V30 3684 H 332.173 4.21418 1.23708 0
M  V30 3685 H 332.779 4.23069 -0.435039 0
M  V30 3686 N 331.094 0.475555 1.50254 0
M  V30 3687 C 332.324 -0.0753399 2.06463 0
M  V30 3688 C 332.732 -1.33661 1.33908 0
M  V30 3689 O 332.075 -1.79219 0.403257 0
M  V30 3690 C 332.137 -0.424921 3.5698 0
M  V30 3691 C 331.801 0.734965 4.51051 0
M  V30 3692 C 332.798 1.61827 4.94073 0
M  V30 3693 C 330.483 0.926557 4.9368 0
M  V30 3694 C 332.477 2.67754 5.78434 0
M  V30 3695 C 330.164 1.98904 5.77824 0
M  V30 3696 C 331.162 2.8629 6.20103 0
M  V30 3697 O 330.85 3.90708 7.02568 0
M  V30 3698 H 330.582 0.00576308 0.675975 0
M  V30 3699 H 333.136 0.664662 1.94349 0
M  V30 3700 H 331.366 -1.21817 3.67012 0
M  V30 3701 H 333.055 -0.911422 3.95535 0
M  V30 3702 H 333.821 1.48196 4.61804 0
M  V30 3703 H 329.7 0.25584 4.6029 0
M  V30 3704 H 333.244 3.35992 6.11355 0
M  V30 3705 H 329.141 2.12541 6.09505 0
M  V30 3706 H 329.909 3.87751 7.20827 0
M  V30 3707 N 332.573 -1.56217 0.208337 0
M  V30 3708 C 333.822 -1.97124 -0.427204 0
M  V30 3709 C 334.135 -1.09859 -1.61835 0
M  V30 3710 O 335.341 -1.40606 -2.32255 0
M  V30 3711 C 333.797 -3.50633 -0.811442 0
M  V30 3712 C 333.405 -4.46582 0.35615 0
M  V30 3713 C 335.149 -4.00282 -1.41332 0
M  V30 3714 C 333.056 -5.91379 -0.0497852 0
M  V30 3715 H 331.986 -0.736086 -0.163381 0
M  V30 3716 H 334.637 -1.8099 0.302456 0
M  V30 3717 H 333.019 -3.62319 -1.59815 0
M  V30 3718 H 334.193 -4.46636 1.1337 0
M  V30 3719 H 332.508 -4.07202 0.870396 0
M  V30 3720 H 335.105 -5.0595 -1.72972 0
M  V30 3721 H 335.448 -3.45359 -2.32449 0
M  V30 3722 H 335.981 -3.91764 -0.690323 0
M  V30 3723 H 332.72 -6.50255 0.827529 0
M  V30 3724 H 332.24 -5.94549 -0.791926 0
M  V30 3725 H 333.919 -6.45209 -0.481042 0
M  V30 3726 N 334.051 0.0651679 -1.57465 0
M  V30 3727 C 334.981 1.07693 -2.07182 0
M  V30 3728 C 335.962 1.39962 -0.966673 0
M  V30 3729 O 337.147 1.49475 -1.2398 0
M  V30 3730 C 334.277 2.3885 -2.52127 0
M  V30 3731 C 333.231 2.20917 -3.66579 0
M  V30 3732 C 332.557 3.57515 -3.97601 0
M  V30 3733 C 333.857 1.62493 -4.9638 0
M  V30 3734 H 335.551 0.663199 -2.91962 0
M  V30 3735 H 333.097 0.317569 -1.40455 0
M  V30 3736 H 335.05 3.09928 -2.85522 0
M  V30 3737 H 333.774 2.82215 -1.64384 0
M  V30 3738 H 332.433 1.52279 -3.33477 0
M  V30 3739 H 332.081 3.98463 -3.06979 0
M  V30 3740 H 331.781 3.46353 -4.74672 0
M  V30 3741 H 333.305 4.30013 -4.33499 0
M  V30 3742 H 334.719 2.23445 -5.27963 0
M  V30 3743 H 333.116 1.62009 -5.77818 0
M  V30 3744 H 334.186 0.587041 -4.81333 0
M  V30 3745 N 335.529 1.53961 0.336706 0
M  V30 3746 C 336.477 1.83136 1.43401 0
M  V30 3747 C 337.471 0.702313 1.54156 0
M  V30 3748 O 338.677 0.885765 1.56698 0
M  V30 3749 H 335.052 0.580309 0.478273 0
M  V30 3750 H 337.023 2.74925 1.16012 0
M  V30 3751 C 335.772 2.06385 2.79822 0
M  V30 3752 H 335.095 2.92718 2.72316 0
M  V30 3753 H 336.535 2.30761 3.55704 0
M  V30 3754 C 334.994 0.851414 3.25964 0
M  V30 3755 O 335.524 0.0541904 4.01663 0
M  V30 3756 N 333.73 0.66672 2.82848 0
M  V30 3757 H 333.277 1.31665 2.21409 0
M  V30 3758 H 333.235 -0.143032 3.14074 0
M  V30 3759 N 337.007 -0.598083 1.45811 0
M  V30 3760 C 338.232 -1.3881 1.54099 0
M  V30 3761 C 338.657 -1.8726 0.177578 0
M  V30 3762 O 338.015 -1.6069 -0.839541 0
M  V30 3763 C 338.063 -2.56217 2.53743 0
M  V30 3764 O 337.167 -3.5716 2.06182 0
M  V30 3765 H 336.508 -0.414024 0.519115 0
M  V30 3766 H 339.038 -0.726971 1.91249 0
M  V30 3767 H 339.048 -3.03337 2.72856 0
M  V30 3768 H 337.723 -2.20303 3.5276 0
M  V30 3769 H 336.3 -3.16624 1.96987 0
M  V30 3770 N 338.485 -1.33259 -0.841409 0
M  V30 3771 C 339.418 -1.1764 -1.95541 0
M  V30 3772 C 340.396 -0.072501 -1.62438 0
M  V30 3773 O 341.58 -0.23427 -1.87039 0
M  V30 3774 C 338.707 -0.803794 -3.29024 0
M  V30 3775 C 337.753 -1.91482 -3.81099 0
M  V30 3776 S 338.586 -3.52538 -4.03085 0
M  V30 3777 C 339.742 -3.17279 -5.39523 0
M  V30 3778 H 339.975 -2.11941 -2.08491 0
M  V30 3779 H 337.508 -1.18072 -0.9949 0
M  V30 3780 H 339.466 -0.595592 -4.06156 0
M  V30 3781 H 338.127 0.120574 -3.13868 0
M  V30 3782 H 337.32 -1.60742 -4.7768 0
M  V30 3783 H 336.922 -2.07956 -3.10854 0
M  V30 3784 H 339.214 -2.67946 -6.22263 0
M  V30 3785 H 340.157 -4.1293 -5.75234 0
M  V30 3786 H 340.565 -2.53943 -5.04156 0
M  V30 3787 N 339.963 1.05934 -1.16686 0
M  V30 3788 C 341.212 1.78188 -0.945085 0
M  V30 3789 C 341.525 1.88338 0.528021 0
M  V30 3790 O 342.731 2.57258 0.867799 0
M  V30 3791 C 341.187 3.20277 -1.64167 0
M  V30 3792 C 340.795 3.18281 -3.15279 0
M  V30 3793 C 342.539 3.97039 -1.502 0
M  V30 3794 C 340.446 4.55112 -3.7766 0
M  V30 3795 H 339.376 0.667866 -0.349959 0
M  V30 3796 H 342.027 1.18794 -1.39858 0
M  V30 3797 H 340.409 3.79952 -1.11589 0
M  V30 3798 H 341.583 2.68167 -3.74731 0
M  V30 3799 H 339.898 2.55018 -3.29173 0
M  V30 3800 H 342.495 4.98194 -1.94183 0
M  V30 3801 H 342.838 4.13845 -0.451461 0
M  V30 3802 H 343.371 3.43894 -1.99954 0
M  V30 3803 H 340.11 4.43512 -4.82677 0
M  V30 3804 H 339.63 5.05406 -3.22994 0
M  V30 3805 H 341.309 5.24064 -3.79428 0
M  V30 3806 N 341.441 0.965919 1.2453 0
M  V30 3807 C 342.69 0.622437 1.91856 0
M  V30 3808 C 343.003 -0.846006 1.76358 0
M  V30 3809 O 344.209 -1.29993 2.38357 0
M  V30 3810 C 342.665 1.0626 3.43856 0
M  V30 3811 C 342.273 2.55437 3.68043 0
M  V30 3812 C 344.017 0.792183 4.17043 0
M  V30 3813 C 341.924 2.93196 5.13605 0
M  V30 3814 H 340.854 0.229092 0.718354 0
M  V30 3815 H 343.505 1.17189 1.41206 0
M  V30 3816 H 341.887 0.441476 3.93531 0
M  V30 3817 H 343.061 3.22665 3.28974 0
M  V30 3818 H 341.376 2.8007 3.08139 0
M  V30 3819 H 343.973 1.05031 5.24283 0
M  V30 3820 H 344.316 -0.271584 4.15413 0
M  V30 3821 H 344.849 1.37419 3.73311 0
M  V30 3822 H 341.588 3.98636 5.20355 0
M  V30 3823 H 341.108 2.30651 5.53679 0
M  V30 3824 H 342.787 2.83004 5.81823 0
M  V30 3825 N 342.919 -1.39368 0.735821 0
M  V30 3826 C 344.168 -1.99733 0.281004 0
M  V30 3827 C 344.481 -1.59055 -1.13846 0
M  V30 3828 O 345.687 -2.12262 -1.69284 0
M  V30 3829 C 344.143 -3.57057 0.451462 0
M  V30 3830 C 343.751 -4.06697 1.87886 0
M  V30 3831 C 345.495 -4.2446 0.0584616 0
M  V30 3832 C 343.402 -5.56598 1.99883 0
M  V30 3833 H 342.332 -0.747163 0.101311 0
M  V30 3834 H 344.983 -1.59357 0.909819 0
M  V30 3835 H 343.365 -3.95234 -0.246263 0
M  V30 3836 H 344.539 -3.79853 2.60861 0
M  V30 3837 H 342.854 -3.5196 2.22515 0
M  V30 3838 H 345.451 -5.34549 0.127099 0
M  V30 3839 H 345.794 -4.04444 -0.986433 0
M  V30 3840 H 346.327 -3.9146 0.707374 0
M  V30 3841 H 343.066 -5.81494 3.02564 0
M  V30 3842 H 342.586 -5.85242 1.31346 0
M  V30 3843 H 344.265 -6.22022 1.78039 0
M  V30 3844 N 344.397 -0.483516 -1.5 0
M  V30 3845 C 345.646 0.0689102 -2.01582 0
M  V30 3846 C 345.959 1.39655 -1.36952 0
M  V30 3847 O 347.165 2.03465 -1.79762 0
M  V30 3848 C 345.621 0.173302 -3.59483 0
M  V30 3849 C 345.229 -1.14665 -4.33077 0
M  V30 3850 C 346.973 0.677024 -4.19066 0
M  V30 3851 C 344.88 -1.00537 -5.82792 0
M  V30 3852 H 343.81 0.0295277 -0.753422 0
M  V30 3853 H 346.461 -0.620295 -1.72698 0
M  V30 3854 H 344.843 0.926569 -3.85007 0
M  V30 3855 H 346.017 -1.91184 -4.19268 0
M  V30 3856 H 344.332 -1.58244 -3.85159 0
M  V30 3857 H 346.929 0.799952 -5.28682 0
M  V30 3858 H 347.272 1.67151 -3.81269 0
M  V30 3859 H 347.805 -0.0192083 -3.97795 0
M  V30 3860 H 344.544 -1.9736 -6.25083 0
M  V30 3861 H 344.064 -0.280776 -5.99142 0
M  V30 3862 H 345.743 -0.677 -6.43448 0
M  V30 3863 N 345.875 1.56104 -0.216619 0
M  V30 3864 C 346.825 2.16703 0.708798 0
M  V30 3865 C 347.809 1.11392 1.16106 0
M  V30 3866 O 349.001 1.37395 1.11587 0
M  V30 3867 C 346.13 2.84666 1.91886 0
M  V30 3868 C 345.216 3.97195 1.48651 0
M  V30 3869 N 345.607 4.99959 0.766434 0
M  V30 3870 C 343.905 4.09193 1.77418 0
M  V30 3871 C 344.606 5.79126 0.546659 0
M  V30 3872 N 343.582 5.32315 1.10188 0
M  V30 3873 H 347.384 2.93516 0.150162 0
M  V30 3874 H 344.898 1.6239 -0.0176768 0
M  V30 3875 H 346.895 3.26486 2.59253 0
M  V30 3876 H 345.555 2.09347 2.48202 0
M  V30 3877 H 346.566 5.16197 0.419634 0
M  V30 3878 H 343.243 3.45021 2.35088 0
M  V30 3879 H 344.633 6.71895 -0.026103 0
M  V30 3880 N 347.353 -0.0568162 1.57498 0
M  V30 3881 C 348.283 -1.06593 2.0775 0
M  V30 3882 C 349.264 -1.39448 0.974082 0
M  V30 3883 O 350.449 -1.48815 1.24771 0
M  V30 3884 C 347.579 -2.37509 2.5339 0
M  V30 3885 C 346.533 -2.1897 3.67745 0
M  V30 3886 C 345.859 -3.55402 3.99492 0
M  V30 3887 C 347.159 -1.59859 4.97235 0
M  V30 3888 H 348.853 -0.647706 2.9231 0
M  V30 3889 H 346.399 -0.310116 1.40621 0
M  V30 3890 H 348.352 -3.08409 2.87162 0
M  V30 3891 H 347.076 -2.8134 1.65878 0
M  V30 3892 H 345.735 -1.50508 3.3428 0
M  V30 3893 H 345.383 -3.9683 3.09088 0
M  V30 3894 H 345.083 -3.43831 4.76502 0
M  V30 3895 H 346.607 -4.27708 4.35773 0
M  V30 3896 H 348.021 -2.20642 5.29141 0
M  V30 3897 H 346.418 -1.58942 5.78669 0
M  V30 3898 H 347.488 -0.561506 4.81638 0
M  V30 3899 N 348.832 -1.54138 -0.328536 0
M  V30 3900 C 350.078 -1.7236 -1.06865 0
M  V30 3901 C 350.411 -0.493231 -1.87832 0
M  V30 3902 O 349.686 0.5098 -1.877 0
M  V30 3903 C 349.969 -2.99621 -1.99747 0
M  V30 3904 C 349.822 -4.32899 -1.22143 0
M  V30 3905 C 351.141 -3.22615 -2.99345 0
M  V30 3906 H 348.26 -0.627151 -0.387105 0
M  V30 3907 H 350.902 -1.86827 -0.345767 0
M  V30 3908 H 349.052 -2.87418 -2.61387 0
M  V30 3909 H 350.724 -4.56978 -0.630017 0
M  V30 3910 H 348.967 -4.30628 -0.523628 0
M  V30 3911 H 349.638 -5.18154 -1.90318 0
M  V30 3912 H 352.114 -3.34248 -2.47826 0
M  V30 3913 H 350.99 -4.13027 -3.61524 0
M  V30 3914 H 351.251 -2.3961 -3.71536 0
M  V30 3915 N 350.31 0.590341 -1.46126 0
M  V30 3916 C 351.22 1.72793 -1.58681 0
M  V30 3917 C 352.236 1.67516 -0.470566 0
M  V30 3918 O 353.412 1.87562 -0.733642 0
M  V30 3919 C 350.477 3.09287 -1.5666 0
M  V30 3920 C 349.538 3.25886 -2.79458 0
M  V30 3921 C 348.771 4.55869 -2.77524 0
M  V30 3922 O 348.994 5.3928 -1.85832 0
M  V30 3923 O 347.928 4.75552 -3.68964 0
M  V30 3924 H 351.754 1.65149 -2.54872 0
M  V30 3925 H 349.339 0.756486 -1.28832 0
M  V30 3926 H 351.221 3.90577 -1.58202 0
M  V30 3927 H 349.896 3.17385 -0.636271 0
M  V30 3928 H 348.803 2.44119 -2.83472 0
M  V30 3929 H 350.136 3.22675 -3.71674 0
M  V30 3930 N 351.788 1.33704 0.83433 0
M  V30 3931 C 353.034 1.25603 1.59222 0
M  V30 3932 C 353.367 -0.176659 1.93395 0
M  V30 3933 O 352.642 -1.11915 1.59076 0
M  V30 3934 C 352.925 2.13576 2.89926 0
M  V30 3935 C 352.778 3.65326 2.62406 0
M  V30 3936 C 354.097 2.01238 3.91397 0
M  V30 3937 H 351.216 0.457613 0.577719 0
M  V30 3938 H 353.858 1.63848 0.961972 0
M  V30 3939 H 352.008 1.8109 3.43713 0
M  V30 3940 H 353.68 4.08124 2.15017 0
M  V30 3941 H 351.923 3.8698 1.96033 0
M  V30 3942 H 352.594 4.22232 3.55562 0
M  V30 3943 H 355.07 2.29738 3.46929 0
M  V30 3944 H 353.946 2.65036 4.80673 0
M  V30 3945 H 354.207 0.985951 4.30966 0
M  V30 3946 N 353.266 -1.05314 1.17247 0
M  V30 3947 C 354.512 -1.78557 0.961513 0
M  V30 3948 C 354.845 -1.87419 -0.508697 0
M  V30 3949 O 354.12 -1.37307 -1.37757 0
M  V30 3950 C 354.403 -3.22514 1.60176 0
M  V30 3951 C 354.256 -3.21673 3.14399 0
M  V30 3952 C 355.575 -4.20318 1.30463 0
M  V30 3953 H 352.694 -0.6482 0.350723 0
M  V30 3954 H 355.336 -1.23102 1.44727 0
M  V30 3955 H 353.486 -3.69867 1.18871 0
M  V30 3956 H 355.158 -2.82405 3.64753 0
M  V30 3957 H 353.401 -2.60048 3.47214 0
M  V30 3958 H 354.072 -4.23271 3.54324 0
M  V30 3959 H 356.548 -3.81454 1.66229 0
M  V30 3960 H 355.424 -5.19289 1.77848 0
M  V30 3961 H 355.685 -4.41526 0.22521 0
M  V30 3962 N 354.744 -0.972509 -1.24016 0
M  V30 3963 C 356.155 -0.67517 -1.74064 0
M  V30 3964 C 356.506 0.808939 -1.78747 0
M  V30 3965 O 355.631 1.63286 -1.42009 0
M  V30 3966 C 356.226 -1.21889 -3.16115 0
M  V30 3967 C 354.785 -0.971358 -3.6365 0
M  V30 3968 C 353.932 -1.35134 -2.42145 0
M  V30 3969 H 356.883 -1.14727 -1.09651 0
M  V30 3970 H 356.904 -0.587489 -3.75937 0
M  V30 3971 H 356.416 -2.29906 -3.12674 0
M  V30 3972 H 354.517 0.0930686 -3.72484 0
M  V30 3973 H 354.63 -1.62039 -4.50866 0
M  V30 3974 H 352.994 -0.769751 -2.4279 0
M  V30 3975 H 353.777 -2.4411 -2.41381 0
M  V30 3976 N 356.222 1.38976 -0.743202 0
M  V30 3977 C 357.17 2.32394 -0.0978389 0
M  V30 3978 C 358.164 1.53486 0.716824 0
M  V30 3979 O 359.37 1.69092 0.617088 0
M  V30 3980 H 355.745 0.75189 -0.0128402 0
M  V30 3981 H 357.716 2.84441 -0.901981 0
M  V30 3982 C 356.465 3.38629 0.789036 0
M  V30 3983 H 355.788 3.99432 0.171559 0
M  V30 3984 H 357.228 4.06426 1.20807 0
M  V30 3985 C 355.687 2.76347 1.92702 0
M  V30 3986 O 356.217 2.64836 3.02034 0
M  V30 3987 N 354.423 2.34311 1.71891 0
M  V30 3988 H 353.97 2.43873 0.829675 0
M  V30 3989 H 353.928 1.9298 2.48205 0
M  V30 3990 N 357.7 0.491464 1.49741 0
M  V30 3991 C 358.948 -0.0563141 2.02022 0
M  V30 3992 C 359.269 -1.38363 1.37407 0
M  V30 3993 O 358.539 -1.88702 0.526166 0
M  V30 3994 H 357.119 -0.0238014 0.746621 0
M  V30 3995 H 359.781 0.646533 1.83864 0
M  V30 3996 H 358.877 -0.192967 3.11503 0
M  V30 3997 N 359.178 -1.55987 0.224894 0
M  V30 3998 C 360.088 -2.24066 -0.69511 0
M  V30 3999 C 361.104 -1.24939 -1.21104 0
M  V30 4000 O 362.28 -1.5776 -1.25195 0
M  V30 4001 C 359.345 -2.90983 -1.88493 0
M  V30 4002 C 358.406 -4.05462 -1.41064 0
M  V30 4003 C 357.639 -4.69179 -2.54375 0
M  V30 4004 O 357.862 -4.31895 -3.72589 0
M  V30 4005 O 356.796 -5.58108 -2.25386 0
M  V30 4006 H 360.622 -3.03353 -0.145149 0
M  V30 4007 H 358.207 -1.49399 -0.00569476 0
M  V30 4008 H 360.089 -3.33209 -2.57972 0
M  V30 4009 H 358.764 -2.14653 -2.42293 0
M  V30 4010 H 357.671 -3.67798 -0.683774 0
M  V30 4011 H 359.004 -4.83545 -0.918985 0
M  V30 4012 N 360.656 0.0484629 -1.57525 0
M  V30 4013 C 361.586 1.0549 -2.08313 0
M  V30 4014 C 362.567 1.38929 -0.981463 0
M  V30 4015 O 363.752 1.48151 -1.25558 0
M  V30 4016 C 360.882 2.36162 -2.54646 0
M  V30 4017 C 359.836 2.17016 -3.68901 0
M  V30 4018 C 359.162 3.53278 -4.01371 0
M  V30 4019 C 360.462 1.57219 -4.98076 0
M  V30 4020 H 362.156 0.632195 -2.92649 0
M  V30 4021 H 359.702 0.302654 -1.40784 0
M  V30 4022 H 361.655 3.06882 -2.88793 0
M  V30 4023 H 360.379 2.80456 -1.67368 0
M  V30 4024 H 359.038 1.48733 -3.35073 0
M  V30 4025 H 358.686 3.95185 -3.11188 0
M  V30 4026 H 358.386 3.41299 -4.78318 0
M  V30 4027 H 359.91 4.25391 -4.38035 0
M  V30 4028 H 361.324 2.17832 -5.30304 0
M  V30 4029 H 359.721 1.55871 -5.79503 0
M  V30 4030 H 360.791 0.535956 -4.81929 0
M  V30 4031 N 362.134 1.5431 0.320358 0
M  V30 4032 C 363.38 1.72924 1.05949 0
M  V30 4033 C 363.713 0.503185 1.87568 0
M  V30 4034 O 362.988 -0.499839 1.87968 0
M  V30 4035 C 363.271 3.00676 1.98156 0
M  V30 4036 C 363.124 4.3354 1.19845 0
M  V30 4037 C 364.443 3.24198 2.9763 0
M  V30 4038 H 361.562 0.629195 0.383774 0
M  V30 4039 H 364.204 1.87008 0.335854 0
M  V30 4040 H 362.354 2.888 2.59859 0
M  V30 4041 H 364.026 4.57305 0.605773 0
M  V30 4042 H 362.269 4.309 0.500784 0
M  V30 4043 H 362.94 5.19156 1.87567 0
M  V30 4044 H 365.416 3.35557 2.4605 0
M  V30 4045 H 364.292 4.14938 3.59329 0
M  V30 4046 H 364.553 2.41577 3.7026 0
M  V30 4047 N 363.613 -0.582584 1.46437 0
M  V30 4048 C 365.029 -0.905962 1.31394 0
M  V30 4049 C 365.229 -1.99468 0.285476 0
M  V30 4050 O 364.285 -2.50566 -0.311914 0
M  V30 4051 C 365.598 -1.3232 2.70022 0
M  V30 4052 C 367.146 -1.43604 2.78113 0
M  V30 4053 C 367.621 -1.88694 4.17323 0
M  V30 4054 N 369.112 -1.95887 4.19741 0
M  V30 4055 C 369.847 -2.32051 5.24347 0
M  V30 4056 N 369.343 -2.67006 6.39281 0
M  V30 4057 N 371.136 -2.32606 5.11713 0
M  V30 4058 H 363.287 0.1366 2.1196 0
M  V30 4059 H 365.55 -0.00155736 0.947999 0
M  V30 4060 H 365.256 -0.597242 3.46592 0
M  V30 4061 H 365.13 -2.28469 3.00136 0
M  V30 4062 H 367.517 -2.15286 2.01832 0
M  V30 4063 H 367.598 -0.457059 2.51684 0
M  V30 4064 H 367.242 -1.1759 4.941 0
M  V30 4065 H 367.172 -2.8755 4.4116 0
M  V30 4066 H 369.663 -1.71362 3.36814 0
M  V30 4067 H 369.976 -2.93554 7.14875 0
M  V30 4068 H 368.321 -2.64644 6.42642 0
M  V30 4069 H 371.512 -2.04721 4.2096 0
M  V30 4070 H 371.685 -2.60462 5.93349 0
M  V30 4071 N 365.091 -1.34144 -0.827227 0
M  V30 4072 C 366.507 -1.13732 -1.11969 0
M  V30 4073 C 366.707 0.0640463 -2.01398 0
M  V30 4074 O 365.763 0.740856 -2.41387 0
M  V30 4075 C 367.076 -2.43047 -1.77055 0
M  V30 4076 C 368.624 -2.49063 -1.89569 0
M  V30 4077 C 369.099 -3.78369 -2.58072 0
M  V30 4078 N 370.59 -3.79505 -2.65575 0
M  V30 4079 C 371.325 -4.76274 -3.19297 0
M  V30 4080 N 370.821 -5.83424 -3.73616 0
M  V30 4081 N 372.614 -4.63735 -3.17658 0
M  V30 4082 H 364.765 -2.11126 -0.232296 0
M  V30 4083 H 367.028 -0.933424 -0.165602 0
M  V30 4084 H 366.734 -3.31025 -1.18807 0
M  V30 4085 H 366.608 -2.56066 -2.76966 0
M  V30 4086 H 368.995 -1.61527 -2.46968 0
M  V30 4087 H 369.076 -2.39975 -0.885745 0
M  V30 4088 H 368.72 -4.66293 -2.01329 0
M  V30 4089 H 368.65 -3.84737 -3.59562 0
M  V30 4090 H 371.141 -3.02074 -2.27068 0
M  V30 4091 H 371.454 -6.53282 -4.12846 0
M  V30 4092 H 369.799 -5.87143 -3.71871 0
M  V30 4093 H 372.99 -3.79177 -2.74486 0
M  V30 4094 H 373.163 -5.39318 -3.59221 0
M  V30 4095 N 366.569 1.04691 -1.17803 0
M  V30 4096 C 367.846 1.7472 -0.879328 0
M  V30 4097 C 368.226 2.01812 0.619271 0
M  V30 4098 O 367.574 1.65824 1.57209 0
M  V30 4099 C 367.784 3.03686 -1.71976 0
M  V30 4100 C 369.132 3.77542 -1.94286 0
M  V30 4101 O 370.156 3.13569 -1.68976 0
M  V30 4102 O 369.015 4.92506 -2.36855 0
M  V30 4103 H 366.109 0.760011 -0.326056 0
M  V30 4104 H 368.655 1.10813 -1.28525 0
M  V30 4105 H 367.427 2.79754 -2.73594 0
M  V30 4106 H 367.05 3.75332 -1.31194 0
M  V30 4107 N 368.047 0.979072 1.23499 0
M  V30 4108 C 369.458 0.684391 1.73704 0
M  V30 4109 C 369.809 -0.799448 1.79174 0
M  V30 4110 O 368.934 -1.62531 1.42873 0
M  V30 4111 C 369.529 1.23564 3.15464 0
M  V30 4112 C 368.088 0.99063 3.6313 0
M  V30 4113 C 367.235 1.36416 2.41425 0
M  V30 4114 H 370.186 1.15307 1.09041 0
M  V30 4115 H 370.207 0.607417 3.7562 0
M  V30 4116 H 369.719 2.31561 3.1145 0
M  V30 4117 H 367.82 -0.0733136 3.72528 0
M  V30 4118 H 367.933 1.64427 4.5 0
M  V30 4119 H 366.297 0.782616 2.42378 0
M  V30 4120 H 367.08 2.45387 2.40083 0
M  V30 4121 N 369.525 -1.3858 0.750561 0
M  V30 4122 C 370.771 -2.00481 0.305825 0
M  V30 4123 C 371.104 -1.5944 -1.10872 0
M  V30 4124 O 370.379 -0.83052 -1.75877 0
M  V30 4125 C 370.662 -3.5758 0.425287 0
M  V30 4126 C 370.515 -4.08594 1.88072 0
M  V30 4127 C 371.834 -4.39719 -0.183122 0
M  V30 4128 H 368.953 -0.728348 0.112598 0
M  V30 4129 H 371.595 -1.64566 0.949638 0
M  V30 4130 H 369.745 -3.88306 -0.122828 0
M  V30 4131 H 371.417 -3.88523 2.48691 0
M  V30 4132 H 369.66 -3.61574 2.39681 0
M  V30 4133 H 370.331 -5.177 1.91548 0
M  V30 4134 H 372.807 -4.15128 0.284303 0
M  V30 4135 H 371.683 -5.48856 -0.0692757 0
M  V30 4136 H 371.944 -4.23434 -1.27106 0
M  V30 4137 N 371.003 -0.499398 -1.49478 0
M  V30 4138 C 372.228 0.044722 -2.07352 0
M  V30 4139 C 372.653 1.30207 -1.35749 0
M  V30 4140 O 372.011 1.76516 -0.413732 0
M  V30 4141 C 372.059 0.283013 -3.59488 0
M  V30 4142 O 371.163 1.35804 -3.89398 0
M  V30 4143 H 370.504 -0.0255147 -0.66351 0
M  V30 4144 H 373.034 -0.698561 -1.92305 0
M  V30 4145 H 373.044 0.515007 -4.04737 0
M  V30 4146 H 371.719 -0.635636 -4.11014 0
M  V30 4147 H 370.296 1.11113 -3.55961 0
M  V30 4148 N 372.481 1.55866 -0.233164 0
M  V30 4149 C 373.721 2.00506 0.397078 0
M  V30 4150 C 374.085 1.1176 1.56121 0
M  V30 4151 O 375.286 1.45796 2.25825 0
M  V30 4152 C 373.557 3.4811 0.809601 0
M  V30 4153 S 375.116 4.14765 1.43231 0
M  V30 4154 H 371.934 0.699828 0.125547 0
M  V30 4155 H 374.536 1.92429 -0.345177 0
M  V30 4156 H 373.24 4.10373 -0.0471601 0
M  V30 4157 H 372.771 3.60085 1.58438 0
M  V30 4158 H 374.786 4.14914 2.7214 0
M  V30 4159 N 373.959 -0.0401083 1.57549 0
M  V30 4160 C 374.906 -1.04413 2.05831 0
M  V30 4161 C 375.876 -1.36585 0.945184 0
M  V30 4162 O 377.061 -1.47112 1.21502 0
M  V30 4163 C 374.201 -2.34336 2.53339 0
M  V30 4164 C 373.314 -2.08419 3.78398 0
M  V30 4165 C 372.449 -3.32133 4.14561 0
M  V30 4166 C 371.488 -3.01721 5.3257 0
M  V30 4167 N 370.625 -4.17855 5.64218 0
M  V30 4168 H 375.465 -0.625442 2.91363 0
M  V30 4169 H 373.002 -0.297218 1.44066 0
M  V30 4170 H 374.96 -3.10234 2.78946 0
M  V30 4171 H 373.59 -2.73948 1.7074 0
M  V30 4172 H 372.642 -1.23069 3.59942 0
M  V30 4173 H 373.954 -1.81978 4.64419 0
M  V30 4174 H 373.108 -4.16406 4.41238 0
M  V30 4175 H 371.847 -3.61678 3.2717 0
M  V30 4176 H 370.852 -2.15849 5.05657 0
M  V30 4177 H 372.077 -2.73466 6.21605 0
M  V30 4178 H 370.023 -4.47372 4.79786 0
M  V30 4179 H 369.94 -3.94798 6.44725 0
M  V30 4180 H 371.208 -5.03033 5.95465 0
M  V30 4181 N 375.437 -1.54477 -0.31217 0
M  V30 4182 C 376.686 -1.72438 -1.04633 0
M  V30 4183 C 376.999 -0.511163 -1.88803 0
M  V30 4184 O 378.205 -0.572341 -2.65399 0
M  V30 4185 C 376.661 -3.05043 -1.9099 0
M  V30 4186 C 376.269 -4.33806 -1.11877 0
M  V30 4187 C 378.013 -3.32364 -2.64073 0
M  V30 4188 C 375.92 -5.57467 -1.97445 0
M  V30 4189 H 374.85 -0.642647 -0.394361 0
M  V30 4190 H 377.501 -1.80966 -0.303929 0
M  V30 4191 H 375.883 -2.90451 -2.69173 0
M  V30 4192 H 377.057 -4.59199 -0.383843 0
M  V30 4193 H 375.372 -4.13336 -0.504252 0
M  V30 4194 H 377.969 -4.21951 -3.28423 0
M  V30 4195 H 378.312 -2.50745 -3.32314 0
M  V30 4196 H 378.845 -3.47875 -1.92944 0
M  V30 4197 H 375.584 -6.41722 -1.33692 0
M  V30 4198 H 375.104 -5.36277 -2.6864 0
M  V30 4199 H 376.783 -5.94303 -2.5576 0
M  V30 4200 N 376.915 0.57481 -1.46744 0
M  V30 4201 C 377.845 1.69337 -1.60771 0
M  V30 4202 C 378.826 1.63825 -0.457736 0
M  V30 4203 O 380.011 1.8172 -0.684947 0
M  V30 4204 C 377.141 3.0798 -1.60517 0
M  V30 4205 C 376.095 3.28327 -2.74564 0
M  V30 4206 C 375.421 4.67578 -2.59373 0
M  V30 4207 C 376.721 3.15398 -4.16319 0
M  V30 4208 H 378.415 1.57853 -2.54407 0
M  V30 4209 H 375.961 0.75799 -1.22436 0
M  V30 4210 H 377.914 3.86061 -1.68923 0
M  V30 4211 H 376.638 3.20381 -0.634305 0
M  V30 4212 H 375.297 2.52649 -2.65639 0
M  V30 4213 H 374.945 4.76755 -1.60353 0
M  V30 4214 H 374.645 4.82144 -3.35873 0
M  V30 4215 H 376.169 5.47817 -2.69682 0
M  V30 4216 H 377.583 3.83315 -4.26313 0
M  V30 4217 H 375.98 3.41482 -4.93468 0
M  V30 4218 H 377.05 2.12372 -4.3592 0
M  V30 4219 N 378.394 1.34581 0.820102 0
M  V30 4220 C 379.344 1.22943 1.92013 0
M  V30 4221 C 380.328 0.127802 1.60392 0
M  V30 4222 O 381.52 0.357737 1.73347 0
M  V30 4223 C 378.649 0.989938 3.28717 0
M  V30 4224 C 377.735 2.13486 3.66449 0
M  V30 4225 N 378.126 3.38625 3.75722 0
M  V30 4226 C 376.424 2.04573 3.96315 0
M  V30 4227 C 377.125 4.13832 4.08801 0
M  V30 4228 N 376.101 3.42451 4.22171 0
M  V30 4229 H 379.903 2.17771 1.97365 0
M  V30 4230 H 377.417 1.2686 1.01392 0
M  V30 4231 H 379.414 0.887462 4.07345 0
M  V30 4232 H 378.074 0.0503691 3.24661 0
M  V30 4233 H 379.085 3.73143 3.59144 0
M  V30 4234 H 375.762 1.1839 4.00362 0
M  V30 4235 H 377.152 5.21909 4.23156 0
M  V30 4236 N 379.872 -1.04064 1.18357 0
M  V30 4237 C 381.119 -1.77265 0.978947 0
M  V30 4238 C 381.447 -1.88189 -0.491428 0
M  V30 4239 O 380.702 -1.38653 -1.38108 0
M  V30 4240 C 381.001 -3.20634 1.57888 0
M  V30 4241 C 380.667 -3.29743 3.07539 0
M  V30 4242 C 379.329 -3.31937 3.48384 0
M  V30 4243 C 381.681 -3.29841 4.03552 0
M  V30 4244 C 379.009 -3.3187 4.83818 0
M  V30 4245 C 381.361 -3.31313 5.38901 0
M  V30 4246 C 380.025 -3.31799 5.79194 0
M  V30 4247 H 379.295 -0.648659 0.358222 0
M  V30 4248 H 381.942 -1.22225 1.47422 0
M  V30 4249 H 380.247 -3.78675 1.00561 0
M  V30 4250 H 381.944 -3.75917 1.39598 0
M  V30 4251 H 378.534 -3.28757 2.74986 0
M  V30 4252 H 382.718 -3.27337 3.73047 0
M  V30 4253 H 377.974 -3.30562 5.14333 0
M  V30 4254 H 382.148 -3.30338 6.13066 0
M  V30 4255 H 379.775 -3.315 6.84114 0
M  V30 4256 N 381.35 -0.985608 -1.22978 0
M  V30 4257 C 382.597 -0.657386 -1.91532 0
M  V30 4258 C 382.925 0.809707 -1.76845 0
M  V30 4259 O 382.18 1.60021 -1.12658 0
M  V30 4260 C 382.479 -1.00014 -3.43121 0
M  V30 4261 C 382.145 -2.4583 -3.77993 0
M  V30 4262 C 380.807 -2.85679 -3.87222 0
M  V30 4263 C 383.159 -3.40378 -3.94705 0
M  V30 4264 C 380.487 -4.19081 -4.10595 0
M  V30 4265 C 382.839 -4.73429 -4.1958 0
M  V30 4266 C 381.503 -5.1303 -4.27032 0
M  V30 4267 H 380.773 -0.240555 -0.700867 0
M  V30 4268 H 383.42 -1.24044 -1.45895 0
M  V30 4269 H 381.725 -0.335072 -3.90365 0
M  V30 4270 H 383.422 -0.724322 -3.94404 0
M  V30 4271 H 380.012 -2.13939 -3.71387 0
M  V30 4272 H 384.196 -3.10766 -3.8696 0
M  V30 4273 H 379.452 -4.49362 -4.14589 0
M  V30 4274 H 383.626 -5.46644 -4.31455 0
M  V30 4275 H 381.253 -6.16418 -4.44896 0
M  V30 4276 N 382.828 1.3818 -0.7579 0
M  V30 4277 C 383.778 2.27741 -0.108674 0
M  V30 4278 C 384.762 1.45415 0.688709 0
M  V30 4279 O 385.954 1.68108 0.553956 0
M  V30 4280 C 383.083 3.34313 0.780367 0
M  V30 4281 C 382.169 4.24093 -0.0240977 0
M  V30 4282 N 382.56 4.9451 -1.06271 0
M  V30 4283 C 380.858 4.45542 0.202049 0
M  V30 4284 C 381.559 5.60675 -1.54979 0
M  V30 4285 N 380.535 5.36684 -0.864348 0
M  V30 4286 H 384.337 2.79649 -0.904071 0
M  V30 4287 H 381.851 1.51133 -0.594346 0
M  V30 4288 H 383.848 3.97368 1.26114 0
M  V30 4289 H 382.508 2.83962 1.57467 0
M  V30 4290 H 383.519 4.97345 -1.44459 0
M  V30 4291 H 380.196 4.06091 0.96935 0
M  V30 4292 H 381.586 6.26992 -2.41517 0
M  V30 4293 N 384.306 0.507319 1.49211 0
M  V30 4294 C 385.238 -0.304532 2.27168 0
M  V30 4295 C 386.251 -0.924956 1.33972 0
M  V30 4296 O 387.44 -0.807227 1.59205 0
M  V30 4297 C 384.54 -1.44431 3.06583 0
M  V30 4298 C 383.713 -0.930026 4.27398 0
M  V30 4299 C 382.772 -1.94817 4.88807 0
M  V30 4300 O 381.798 -1.51418 5.4869 0
M  V30 4301 N 383 -3.279 4.79022 0
M  V30 4302 H 385.765 0.36395 2.97482 0
M  V30 4303 H 383.326 0.340249 1.58284 0
M  V30 4304 H 385.318 -2.12311 3.44537 0
M  V30 4305 H 383.888 -2.01684 2.38835 0
M  V30 4306 H 383.108 -0.0759244 3.94127 0
M  V30 4307 H 384.396 -0.564932 5.05654 0
M  V30 4308 H 383.794 -3.65843 4.3148 0
M  V30 4309 H 382.351 -3.91476 5.21142 0
M  V30 4310 N 385.784 -1.5574 0.241426 0
M  V30 4311 C 387.014 -2.02913 -0.38857 0
M  V30 4312 C 387.422 -1.12014 -1.52478 0
M  V30 4313 O 386.765 -0.125903 -1.83268 0
M  V30 4314 C 386.827 -3.4636 -0.963075 0
M  V30 4315 C 386.491 -4.56982 0.0401916 0
M  V30 4316 C 387.488 -5.12941 0.847766 0
M  V30 4317 C 385.173 -5.0203 0.164699 0
M  V30 4318 C 387.167 -6.12437 1.76636 0
M  V30 4319 C 384.854 -6.01358 1.0868 0
M  V30 4320 C 385.852 -6.5644 1.88616 0
M  V30 4321 O 385.54 -7.53831 2.79273 0
M  V30 4322 H 385.272 -0.668983 -0.0971452 0
M  V30 4323 H 387.826 -2.02198 0.361248 0
M  V30 4324 H 386.056 -3.44206 -1.76235 0
M  V30 4325 H 387.745 -3.77065 -1.50257 0
M  V30 4326 H 388.511 -4.78974 0.762133 0
M  V30 4327 H 384.39 -4.58824 -0.447411 0
M  V30 4328 H 387.934 -6.55355 2.39071 0
M  V30 4329 H 383.831 -6.34746 1.17338 0
M  V30 4330 H 384.599 -7.71428 2.73572 0
M  V30 4331 N 387.262 0.0317525 -1.57568 0
M  V30 4332 C 388.195 1.06621 -2.0176 0
M  V30 4333 C 389.173 1.35323 -0.901462 0
M  V30 4334 O 390.357 1.48025 -1.16708 0
M  V30 4335 C 387.484 2.40155 -2.38837 0
M  V30 4336 C 386.53 2.27327 -3.60867 0
M  V30 4337 S 387.363 1.62925 -5.10113 0
M  V30 4338 C 388.519 2.97955 -5.5043 0
M  V30 4339 H 388.752 0.689781 -2.89187 0
M  V30 4340 H 386.285 0.24164 -1.52497 0
M  V30 4341 H 388.243 3.1695 -2.6087 0
M  V30 4342 H 386.904 2.74946 -1.51867 0
M  V30 4343 H 386.097 3.25898 -3.84456 0
M  V30 4344 H 385.699 1.58675 -3.38671 0
M  V30 4345 H 387.991 3.94285 -5.5095 0
M  V30 4346 H 388.934 2.79102 -6.50775 0
M  V30 4347 H 389.342 3.00404 -4.77931 0
M  V30 4348 N 388.74 1.54641 0.303973 0
M  V30 4349 C 389.673 1.80263 1.3993 0
M  V30 4350 C 390.651 0.653657 1.48883 0
M  V30 4351 O 391.835 0.893284 1.6599 0
M  V30 4352 C 388.962 1.9367 2.77866 0
M  V30 4353 C 388.008 3.16078 2.86351 0
M  V30 4354 S 388.841 4.74219 2.4875 0
M  V30 4355 C 389.997 4.90558 3.88721 0
M  V30 4356 H 390.23 2.72886 1.17986 0
M  V30 4357 H 387.763 1.46014 0.501918 0
M  V30 4358 H 389.721 2.0208 3.57315 0
M  V30 4359 H 388.382 1.01991 2.9708 0
M  V30 4360 H 387.575 3.22252 3.87517 0
M  V30 4361 H 387.177 3.06099 2.14893 0
M  V30 4362 H 389.469 4.74398 4.83687 0
M  V30 4363 H 390.412 5.92651 3.87518 0
M  V30 4364 H 390.82 4.18728 3.78585 0
M  V30 4365 N 390.218 -0.567019 1.47046 0
M  V30 4366 C 391.181 -1.65696 1.58359 0
M  V30 4367 C 392.181 -1.54097 0.459441 0
M  V30 4368 O 393.371 -1.58432 0.724225 0
M  V30 4369 C 390.503 -3.05197 1.51879 0
M  V30 4370 H 391.696 -1.57019 2.5551 0
M  V30 4371 H 389.249 -0.786148 1.3509 0
M  V30 4372 H 389.984 -3.19417 0.560673 0
M  V30 4373 H 389.769 -3.15025 2.33455 0
M  V30 4374 H 391.259 -3.84511 1.62913 0
M  V30 4375 N 391.696 -1.35014 -0.812953 0
M  V30 4376 C 392.936 -1.29289 -1.58315 0
M  V30 4377 C 393.3 0.132727 -1.91541 0
M  V30 4378 O 394.501 0.314269 -2.66957 0
M  V30 4379 C 392.772 -2.1681 -2.84127 0
M  V30 4380 S 394.331 -2.28538 -3.74588 0
M  V30 4381 H 391.149 -0.459569 -0.542511 0
M  V30 4382 H 393.751 -1.70336 -0.959467 0
M  V30 4383 H 392.455 -3.19379 -2.57731 0
M  V30 4384 H 391.986 -1.76697 -3.51485 0
M  V30 4385 H 394.001 -1.4655 -4.74065 0
M  V30 4386 N 393.175 1.03435 -1.18907 0
M  V30 4387 C 394.123 2.13703 -0.918353 0
M  V30 4388 C 395.117 1.68947 0.123767 0
M  V30 4389 O 396.323 1.79983 -0.0249701 0
M  V30 4390 H 392.698 0.698112 -0.279542 0
M  V30 4391 H 394.669 2.33731 -1.85506 0
M  V30 4392 C 393.418 3.44542 -0.467532 0
M  V30 4393 H 392.741 3.79394 -1.26095 0
M  V30 4394 H 394.181 4.22812 -0.317164 0
M  V30 4395 C 392.64 3.26829 0.817588 0
M  V30 4396 O 393.17 3.54975 1.88031 0
M  V30 4397 N 391.376 2.80139 0.772677 0
M  V30 4398 H 390.923 2.57434 -0.0923883 0
M  V30 4399 H 390.881 2.68668 1.63294 0
M  V30 4400 N 394.653 0.992116 1.22453 0
M  V30 4401 C 395.883 0.684949 1.94915 0
M  V30 4402 C 396.291 -0.754292 1.73514 0
M  V30 4403 O 395.634 -1.52056 1.03076 0
M  V30 4404 C 395.696 0.910054 3.47791 0
M  V30 4405 C 395.36 2.33363 3.92926 0
M  V30 4406 C 396.357 3.31308 4.00663 0
M  V30 4407 C 394.042 2.66785 4.25595 0
M  V30 4408 C 396.036 4.6075 4.40441 0
M  V30 4409 C 393.723 3.96446 4.65053 0
M  V30 4410 C 394.721 4.9324 4.72444 0
M  V30 4411 O 394.409 6.20584 5.1101 0
M  V30 4412 H 394.141 0.25258 0.62704 0
M  V30 4413 H 396.695 1.32939 1.56577 0
M  V30 4414 H 394.925 0.208443 3.86138 0
M  V30 4415 H 396.614 0.598257 4.01467 0
M  V30 4416 H 397.38 3.0682 3.75615 0
M  V30 4417 H 393.259 1.92148 4.19047 0
M  V30 4418 H 396.803 5.363 4.46126 0
M  V30 4419 H 392.7 4.20724 4.89552 0
M  V30 4420 H 393.468 6.24509 5.29085 0
M  V30 4421 N 396.131 -1.37776 0.765217 0
M  V30 4422 C 397.378 -1.99849 0.326588 0
M  V30 4423 C 397.706 -1.60746 -1.09504 0
M  V30 4424 O 396.961 -0.84202 -1.76659 0
M  V30 4425 C 397.26 -3.5504 0.410053 0
M  V30 4426 C 396.926 -4.13891 1.78899 0
M  V30 4427 C 395.588 -4.29678 2.16635 0
M  V30 4428 C 397.94 -4.46236 2.69301 0
M  V30 4429 C 395.268 -4.7511 3.44221 0
M  V30 4430 C 397.62 -4.93089 3.9629 0
M  V30 4431 C 396.284 -5.07082 4.34078 0
M  V30 4432 H 395.554 -0.7313 0.119507 0
M  V30 4433 H 398.201 -1.64645 0.977968 0
M  V30 4434 H 396.506 -3.90451 -0.324878 0
M  V30 4435 H 398.203 -4.00966 0.0520699 0
M  V30 4436 H 394.793 -4.02026 1.48569 0
M  V30 4437 H 398.977 -4.3363 2.41409 0
M  V30 4438 H 394.233 -4.84129 3.73402 0
M  V30 4439 H 398.407 -5.17084 4.66472 0
M  V30 4440 H 396.034 -5.42046 5.33001 0
M  V30 4441 N 397.609 -0.515225 -1.4894 0
M  V30 4442 C 398.855 0.016187 -2.03394 0
M  V30 4443 C 399.21 1.33377 -1.38666 0
M  V30 4444 O 398.503 1.84461 -0.518141 0
M  V30 4445 C 398.697 0.210595 -3.56779 0
M  V30 4446 C 398.526 -1.08659 -4.36375 0
M  V30 4447 C 397.296 -1.64237 -4.77864 0
M  V30 4448 C 399.494 -1.9935 -4.74093 0
M  V30 4449 N 397.476 -2.88398 -5.41941 0
M  V30 4450 C 398.847 -3.08088 -5.38035 0
M  V30 4451 C 400.902 -1.99856 -4.56029 0
M  V30 4452 C 399.605 -4.17377 -5.85823 0
M  V30 4453 C 401.631 -3.08129 -5.04787 0
M  V30 4454 C 400.993 -4.15586 -5.68742 0
M  V30 4455 H 397.092 -0.0352107 -0.781207 0
M  V30 4456 H 399.676 -0.693237 -1.8194 0
M  V30 4457 H 397.847 0.889088 -3.78087 0
M  V30 4458 H 399.579 0.740287 -3.97872 0
M  V30 4459 H 396.334 -1.18566 -4.58518 0
M  V30 4460 H 396.758 -3.51572 -5.78555 0
M  V30 4461 H 401.4 -1.18079 -4.05977 0
M  V30 4462 H 399.118 -4.99943 -6.34888 0
M  V30 4463 H 402.704 -3.09557 -4.92611 0
M  V30 4464 H 401.584 -4.97987 -6.05787 0
M  V30 4465 N 399.087 1.5561 -0.249682 0
M  V30 4466 C 400.02 2.17537 0.689408 0
M  V30 4467 C 400.998 1.12829 1.17083 0
M  V30 4468 O 402.182 1.41229 1.24846 0
M  V30 4469 C 399.309 2.77828 1.93725 0
M  V30 4470 C 398.355 3.95615 1.59346 0
M  V30 4471 S 399.188 5.30988 0.69367 0
M  V30 4472 C 400.344 5.94734 1.95046 0
M  V30 4473 H 400.577 2.96852 0.163142 0
M  V30 4474 H 398.11 1.54362 -0.0341166 0
M  V30 4475 H 400.068 3.13199 2.65361 0
M  V30 4476 H 398.729 1.98454 2.43465 0
M  V30 4477 H 397.922 4.364 2.52132 0
M  V30 4478 H 397.524 3.61535 0.957512 0
M  V30 4479 H 399.816 6.12419 2.89739 0
M  V30 4480 H 400.759 6.90109 1.58604 0
M  V30 4481 H 401.167 5.23832 2.10381 0
M  V30 4482 N 400.565 -0.0233959 1.57583 0
M  V30 4483 C 401.495 -1.02162 2.09965 0
M  V30 4484 C 402.476 -1.3735 1.00344 0
M  V30 4485 O 403.661 -1.46135 1.27899 0
M  V30 4486 C 400.791 -2.32081 2.58371 0
M  V30 4487 C 399.745 -2.1112 3.72307 0
M  V30 4488 C 399.071 -3.46848 4.06941 0
M  V30 4489 C 400.371 -1.49276 5.00514 0
M  V30 4490 H 402.065 -0.585557 2.93618 0
M  V30 4491 H 399.611 -0.280218 1.41247 0
M  V30 4492 H 401.564 -3.02249 2.93639 0
M  V30 4493 H 400.288 -2.77758 1.71808 0
M  V30 4494 H 398.947 -1.43384 3.37397 0
M  V30 4495 H 398.595 -3.90184 3.17436 0
M  V30 4496 H 398.295 -3.33646 4.83688 0
M  V30 4497 H 399.819 -4.18369 4.44747 0
M  V30 4498 H 401.233 -2.09368 5.33702 0
M  V30 4499 H 399.63 -1.46632 5.8191 0
M  V30 4500 H 400.7 -0.459217 4.82721 0
M  V30 4501 N 402.043 -1.548 -0.295768 0
M  V30 4502 C 403.283 -1.76069 -1.03823 0
M  V30 4503 C 403.647 -0.537992 -1.84309 0
M  V30 4504 O 404.848 -0.628514 -2.61349 0
M  V30 4505 C 403.119 -3.01705 -1.91596 0
M  V30 4506 S 404.678 -3.43998 -2.72416 0
M  V30 4507 H 401.496 -0.618852 -0.350062 0
M  V30 4508 H 404.098 -1.93009 -0.31106 0
M  V30 4509 H 402.802 -3.88812 -1.31351 0
M  V30 4510 H 402.333 -2.87366 -2.68671 0
M  V30 4511 H 404.348 -3.0148 -3.94112 0
M  V30 4512 N 403.521 0.559213 -1.47345 0
M  V30 4513 C 404.431 1.69388 -1.62311 0
M  V30 4514 C 405.447 1.6648 -0.505993 0
M  V30 4515 O 406.623 1.85964 -0.773262 0
M  V30 4516 C 403.688 3.05894 -1.63185 0
M  V30 4517 C 402.749 3.19885 -2.86307 0
M  V30 4518 C 401.982 4.49879 -2.87131 0
M  V30 4519 O 402.205 5.35217 -1.97229 0
M  V30 4520 O 401.139 4.67618 -3.78968 0
M  V30 4521 H 404.965 1.59706 -2.58317 0
M  V30 4522 H 402.55 0.728989 -1.30407 0
M  V30 4523 H 404.432 3.87133 -1.66451 0
M  V30 4524 H 403.107 3.15964 -0.70345 0
M  V30 4525 H 402.014 2.38052 -2.88587 0
M  V30 4526 H 403.347 3.14718 -3.78435 0
M  V30 4527 N 404.999 1.35443 0.805782 0
M  V30 4528 C 406.247 1.28507 1.55982 0
M  V30 4529 C 406.568 -0.140046 1.94496 0
M  V30 4530 O 405.838 -1.07666 1.63661 0
M  V30 4531 H 404.418 0.472676 0.578434 0
M  V30 4532 H 407.08 1.69555 0.961098 0
M  V30 4533 H 406.176 1.90148 2.47488 0
M  V30 4534 N 406.477 -1.02803 1.19454 0
M  V30 4535 C 407.726 -1.7562 0.991996 0
M  V30 4536 C 408.039 -1.89672 -0.477901 0
M  V30 4537 O 409.245 -2.59468 -0.799287 0
M  V30 4538 C 407.701 -3.15812 1.72601 0
M  V30 4539 C 407.309 -3.0981 3.23607 0
M  V30 4540 C 409.053 -3.92918 1.60674 0
M  V30 4541 C 406.96 -4.44939 3.89594 0
M  V30 4542 H 405.89 -0.658352 0.367543 0
M  V30 4543 H 408.541 -1.15044 1.42959 0
M  V30 4544 H 406.923 -3.7686 1.21624 0
M  V30 4545 H 408.097 -2.58138 3.81709 0
M  V30 4546 H 406.412 -2.46201 3.35819 0
M  V30 4547 H 409.009 -4.9287 2.07323 0
M  V30 4548 H 409.352 -4.12502 0.561025 0
M  V30 4549 H 409.885 -3.38472 2.09001 0
M  V30 4550 H 406.624 -4.30559 4.94267 0
M  V30 4551 H 406.144 -4.96664 3.36281 0
M  V30 4552 H 407.823 -5.1382 3.93189 0
M  V30 4553 N 407.956 -0.998596 -1.21925 0
M  V30 4554 C 409.186 -0.695276 -1.94549 0
M  V30 4555 C 409.594 0.745079 -1.73911 0
M  V30 4556 O 408.937 1.51507 -1.03881 0
M  V30 4557 C 408.999 -0.928485 -3.47303 0
M  V30 4558 C 408.663 -2.35443 -3.91683 0
M  V30 4559 C 409.66 -3.33428 -3.98901 0
M  V30 4560 C 407.345 -2.69038 -4.24174 0
M  V30 4561 C 409.339 -4.63079 -4.37992 0
M  V30 4562 C 407.026 -3.98906 -4.62944 0
M  V30 4563 C 408.024 -4.95738 -4.69822 0
M  V30 4564 O 407.712 -6.23285 -5.07711 0
M  V30 4565 H 407.444 -0.255902 -0.625692 0
M  V30 4566 H 409.998 -1.33767 -1.5587 0
M  V30 4567 H 408.228 -0.228917 -3.86022 0
M  V30 4568 H 409.917 -0.619539 -4.01144 0
M  V30 4569 H 410.683 -3.08807 -3.73983 0
M  V30 4570 H 406.562 -1.94367 -4.18022 0
M  V30 4571 H 410.106 -5.38658 -4.43275 0
M  V30 4572 H 406.003 -4.23314 -4.87314 0
M  V30 4573 H 406.771 -6.27306 -5.25766 0
M  V30 4574 N 409.434 1.37368 -0.772513 0
M  V30 4575 C 410.364 2.32856 -0.173304 0
M  V30 4576 C 411.345 1.55818 0.682262 0
M  V30 4577 O 412.53 1.84052 0.619566 0
M  V30 4578 C 409.66 3.40048 0.706007 0
M  V30 4579 C 408.614 4.27973 -0.0483144 0
M  V30 4580 C 407.94 5.26184 0.950491 0
M  V30 4581 C 409.24 5.07665 -1.22776 0
M  V30 4582 H 410.934 2.83217 -0.971002 0
M  V30 4583 H 408.48 1.3617 -0.468377 0
M  V30 4584 H 410.433 4.05827 1.13501 0
M  V30 4585 H 409.157 2.88214 1.53623 0
M  V30 4586 H 407.816 3.63726 -0.458107 0
M  V30 4587 H 407.464 4.7063 1.77529 0
M  V30 4588 H 407.164 5.85872 0.450314 0
M  V30 4589 H 408.688 5.94838 1.37842 0
M  V30 4590 H 410.102 5.66578 -0.875366 0
M  V30 4591 H 408.499 5.76681 -1.66007 0
M  V30 4592 H 409.569 4.40294 -2.03149 0
M  V30 4593 N 410.912 0.523116 1.48665 0
M  V30 4594 C 411.862 -0.263106 2.26477 0
M  V30 4595 C 412.846 -0.916005 1.32281 0
M  V30 4596 O 414.038 -0.819946 1.56863 0
M  V30 4597 C 411.167 -1.31361 3.17174 0
M  V30 4598 C 410.253 -0.665849 4.1884 0
M  V30 4599 N 410.644 0.244434 5.05209 0
M  V30 4600 C 408.942 -0.923863 4.36326 0
M  V30 4601 C 409.643 0.617443 5.78414 0
M  V30 4602 N 408.619 -0.0198686 5.43596 0
M  V30 4603 H 412.421 0.437295 2.90629 0
M  V30 4604 H 409.935 0.340675 1.58787 0
M  V30 4605 H 411.932 -1.89052 3.71571 0
M  V30 4606 H 410.592 -2.01546 2.54576 0
M  V30 4607 H 411.603 0.616621 5.14216 0
M  V30 4608 H 408.28 -1.6168 3.84923 0
M  V30 4609 H 409.67 1.36346 6.57921 0
M  V30 4610 N 412.39 -1.55475 0.257931 0
M  V30 4611 C 413.618 -2.03609 -0.367559 0
M  V30 4612 C 414.033 -1.13687 -1.50734 0
M  V30 4613 O 413.39 -0.153479 -1.81853 0
M  V30 4614 C 413.441 -3.51001 -0.864908 0
M  V30 4615 O 413.162 -4.37499 0.229465 0
M  V30 4616 C 414.663 -4.14946 -1.55997 0
M  V30 4617 H 411.883 -0.665459 -0.0860521 0
M  V30 4618 H 414.427 -2.00843 0.385014 0
M  V30 4619 H 412.582 -3.54266 -1.56762 0
M  V30 4620 H 412.996 -5.24286 -0.14998 0
M  V30 4621 H 414.47 -5.19735 -1.85956 0
M  V30 4622 H 414.947 -3.6209 -2.4857 0
M  V30 4623 H 415.553 -4.15635 -0.901543 0
M  V30 4624 N 413.868 0.0150385 -1.57593 0
M  V30 4625 C 414.798 1.01047 -2.10503 0
M  V30 4626 C 415.779 1.36816 -1.01071 0
M  V30 4627 O 416.964 1.45455 -1.28672 0
M  V30 4628 C 414.094 2.30708 -2.59598 0
M  V30 4629 C 413.048 2.09142 -3.73421 0
M  V30 4630 C 412.374 3.44685 -4.08774 0
M  V30 4631 C 413.674 1.46619 -5.01298 0
M  V30 4632 H 415.368 0.569978 -2.93925 0
M  V30 4633 H 412.914 0.272724 -1.41394 0
M  V30 4634 H 414.867 3.00687 -2.95238 0
M  V30 4635 H 413.591 2.76843 -1.73279 0
M  V30 4636 H 412.25 1.41592 -3.38153 0
M  V30 4637 H 411.898 3.88495 -3.195 0
M  V30 4638 H 411.598 3.31077 -4.8545 0
M  V30 4639 H 413.122 4.16004 -4.4696 0
M  V30 4640 H 414.536 2.06535 -5.34805 0
M  V30 4641 H 412.933 1.43544 -5.82679 0
M  V30 4642 H 414.003 0.433611 -4.82957 0
M  V30 4643 N 415.346 1.54954 0.287554 0
M  V30 4644 C 416.595 1.74081 1.01877 0
M  V30 4645 C 416.908 0.541135 1.87966 0
M  V30 4646 O 418.114 0.614491 2.64455 0
M  V30 4647 C 416.57 3.08042 1.86113 0
M  V30 4648 C 416.178 4.35531 1.04961 0
M  V30 4649 C 417.922 3.36523 2.58752 0
M  V30 4650 C 415.829 5.60538 1.88551 0
M  V30 4651 H 414.759 0.64884 0.384087 0
M  V30 4652 H 417.41 1.81426 0.275101 0
M  V30 4653 H 415.792 2.94696 2.64519 0
M  V30 4654 H 416.966 4.59751 0.31074 0
M  V30 4655 H 415.281 4.14085 0.43843 0
M  V30 4656 H 417.878 4.27122 3.21668 0
M  V30 4657 H 418.221 2.56 3.28283 0
M  V30 4658 H 418.754 3.50901 1.87386 0
M  V30 4659 H 415.493 6.43767 1.23466 0
M  V30 4660 H 415.013 5.40483 2.60074 0
M  V30 4661 H 416.692 5.98297 2.46273 0
M  V30 4662 N 416.824 -0.551391 1.4764 0
M  V30 4663 C 418.07 -1.31024 1.54792 0
M  V30 4664 C 418.403 -1.9304 0.211967 0
M  V30 4665 O 417.678 -1.78175 -0.77999 0
M  V30 4666 C 417.961 -2.41593 2.67029 0
M  V30 4667 C 417.814 -1.84408 4.10261 0
M  V30 4668 C 419.133 -3.43488 2.75143 0
M  V30 4669 H 416.252 -0.475031 0.563485 0
M  V30 4670 H 418.894 -0.616454 1.79722 0
M  V30 4671 H 417.044 -3.00772 2.45904 0
M  V30 4672 H 418.716 -1.29445 4.42766 0
M  V30 4673 H 416.959 -1.15051 4.18265 0
M  V30 4674 H 417.63 -2.64367 4.84576 0
M  V30 4675 H 420.106 -2.94236 2.94218 0
M  V30 4676 H 418.982 -4.18274 3.55441 0
M  V30 4677 H 419.243 -4.02703 1.82435 0
M  V30 4678 N 418.302 -1.35869 -0.798587 0
M  V30 4679 C 419.548 -1.2978 -1.55836 0
M  V30 4680 C 419.881 0.125322 -1.93795 0
M  V30 4681 O 419.156 1.07658 -1.61987 0
M  V30 4682 C 419.439 -2.21188 -2.84162 0
M  V30 4683 C 419.292 -3.72155 -2.52628 0
M  V30 4684 C 420.611 -2.11545 -3.85923 0
M  V30 4685 H 417.73 -0.472769 -0.565383 0
M  V30 4686 H 420.372 -1.66341 -0.918192 0
M  V30 4687 H 418.522 -1.90139 -3.38791 0
M  V30 4688 H 420.194 -4.13682 -2.04121 0
M  V30 4689 H 418.437 -3.92042 -1.85704 0
M  V30 4690 H 419.108 -4.31511 -3.44242 0
M  V30 4691 H 421.584 -2.38855 -3.40716 0
M  V30 4692 H 420.46 -2.77688 -4.73477 0
M  V30 4693 H 420.721 -1.09987 -4.282 0
M  V30 4694 N 419.78 1.02168 -1.19998 0
M  V30 4695 C 420.743 2.08765 -0.94604 0
M  V30 4696 C 421.743 1.60618 0.0763846 0
M  V30 4697 O 422.933 1.73472 -0.159135 0
M  V30 4698 C 420.065 3.38262 -0.423255 0
M  V30 4699 H 421.258 2.32726 -1.89153 0
M  V30 4700 H 418.811 1.1889 -1.01464 0
M  V30 4701 H 419.546 3.19974 0.527938 0
M  V30 4702 H 419.331 3.74532 -1.16053 0
M  V30 4703 H 420.821 4.16759 -0.264911 0
M  V30 4704 N 421.258 1.00505 1.21394 0
M  V30 4705 C 422.504 0.688793 1.90745 0
M  V30 4706 C 422.837 -0.778486 1.77914 0
M  V30 4707 O 422.112 -1.56433 1.15581 0
M  V30 4708 C 422.395 1.11063 3.42545 0
M  V30 4709 C 422.248 2.63737 3.64367 0
M  V30 4710 C 423.567 0.673059 4.34923 0
M  V30 4711 H 420.686 0.251702 0.692687 0
M  V30 4712 H 423.328 1.25074 1.43026 0
M  V30 4713 H 421.478 0.632508 3.83317 0
M  V30 4714 H 423.15 3.19313 3.32922 0
M  V30 4715 H 421.393 3.05248 3.08231 0
M  V30 4716 H 422.064 2.88305 4.70727 0
M  V30 4717 H 424.54 1.08392 4.01734 0
M  V30 4718 H 423.416 0.996383 5.39781 0
M  V30 4719 H 423.677 -0.425808 4.40045 0
M  V30 4720 N 422.737 -1.36956 0.779787 0
M  V30 4721 C 423.984 -1.99491 0.347766 0
M  V30 4722 C 424.312 -1.61898 -1.07793 0
M  V30 4723 O 423.567 -0.86071 -1.75756 0
M  V30 4724 C 423.866 -3.54585 0.447686 0
M  V30 4725 C 423.532 -4.1197 1.83279 0
M  V30 4726 C 422.194 -4.27356 2.2118 0
M  V30 4727 C 424.546 -4.43354 2.74019 0
M  V30 4728 C 421.874 -4.71432 3.4924 0
M  V30 4729 C 424.226 -4.88858 4.01497 0
M  V30 4730 C 422.89 -5.0245 4.39432 0
M  V30 4731 H 422.16 -0.729991 0.127257 0
M  V30 4732 H 424.807 -1.63599 0.995376 0
M  V30 4733 H 423.112 -3.90773 -0.283447 0
M  V30 4734 H 424.809 -4.00888 0.0945948 0
M  V30 4735 H 421.399 -4.00428 1.52825 0
M  V30 4736 H 425.583 -4.31045 2.45995 0
M  V30 4737 H 420.839 -4.80141 3.78516 0
M  V30 4738 H 425.013 -5.12108 4.71931 0
M  V30 4739 H 422.64 -5.36362 5.38721 0
M  V30 4740 N 424.215 -0.530993 -1.48385 0
M  V30 4741 C 425.443 -0.00134122 -2.069 0
M  V30 4742 C 425.858 1.2805 -1.3874 0
M  V30 4743 O 425.215 1.76204 -0.475244 0
M  V30 4744 C 425.266 0.225256 -3.60798 0
M  V30 4745 O 424.987 -1.0058 -4.26398 0
M  V30 4746 C 426.488 0.795172 -4.3611 0
M  V30 4747 H 423.708 -0.0339704 -0.67014 0
M  V30 4748 H 426.252 -0.736926 -1.90761 0
M  V30 4749 H 424.407 0.910891 -3.76539 0
M  V30 4750 H 424.821 -0.787165 -5.1856 0
M  V30 4751 H 426.295 0.903143 -5.44562 0
M  V30 4752 H 426.772 1.80031 -4.00606 0
M  V30 4753 H 427.378 0.146069 -4.25049 0
M  V30 4754 N 425.693 1.55336 -0.266172 0
M  V30 4755 C 426.603 2.2583 0.635458 0
M  V30 4756 C 427.619 1.28106 1.17749 0
M  V30 4757 O 428.795 1.61024 1.20968 0
M  V30 4758 C 425.86 2.95879 1.80712 0
M  V30 4759 C 424.921 4.09059 1.30265 0
M  V30 4760 C 424.154 4.75759 2.41846 0
M  V30 4761 O 424.377 4.41622 3.61007 0
M  V30 4762 O 423.311 5.63888 2.1051 0
M  V30 4763 H 427.137 3.03631 0.0646693 0
M  V30 4764 H 424.722 1.49361 -0.0339177 0
M  V30 4765 H 426.604 3.39932 2.49047 0
M  V30 4766 H 425.279 2.21002 2.36516 0
M  V30 4767 H 424.186 3.69482 0.586019 0
M  V30 4768 H 425.519 4.85811 0.790458 0
M  V30 4769 N 427.171 -0.0066808 1.57599 0
M  V30 4770 C 428.118 -1.00024 2.08 0
M  V30 4771 C 429.088 -1.34549 0.973943 0
M  V30 4772 O 430.273 -1.44502 1.24595 0
M  V30 4773 C 427.413 -2.2891 2.58252 0
M  V30 4774 C 426.526 -2.00346 3.82734 0
M  V30 4775 C 425.661 -3.23265 4.21513 0
M  V30 4776 C 424.7 -2.90357 5.3885 0
M  V30 4777 N 423.837 -4.05793 5.72954 0
M  V30 4778 H 428.677 -0.563499 2.92624 0
M  V30 4779 H 426.214 -0.266592 1.44664 0
M  V30 4780 H 428.172 -3.04247 2.85464 0
M  V30 4781 H 426.802 -2.70265 1.76512 0
M  V30 4782 H 425.854 -1.15406 3.62471 0
M  V30 4783 H 427.166 -1.72086 4.68175 0
M  V30 4784 H 426.32 -4.06953 4.49971 0
M  V30 4785 H 425.059 -3.54657 3.34768 0
M  V30 4786 H 424.064 -2.05075 5.10122 0
M  V30 4787 H 425.289 -2.60219 6.27266 0
M  V30 4788 H 423.235 -4.37094 4.89167 0
M  V30 4789 H 423.152 -3.81034 6.52954 0
M  V30 4790 H 424.42 -4.90289 6.06001 0
M  V30 4791 N 428.649 -1.55105 -0.279332 0
M  V30 4792 C 429.581 -1.83952 -1.36727 0
M  V30 4793 C 430.594 -0.723642 -1.45833 0
M  V30 4794 O 431.783 -1.00141 -1.47763 0
M  V30 4795 C 428.883 -1.98183 -2.74912 0
M  V30 4796 C 428.056 -3.28787 -2.88475 0
M  V30 4797 C 427.115 -3.33162 -4.07295 0
M  V30 4798 O 426.141 -4.06576 -3.98353 0
M  V30 4799 N 427.343 -2.60109 -5.18964 0
M  V30 4800 H 430.108 -2.77853 -1.12328 0
M  V30 4801 H 427.669 -1.54945 -0.469442 0
M  V30 4802 H 429.661 -1.98488 -3.52682 0
M  V30 4803 H 428.231 -1.11177 -2.92162 0
M  V30 4804 H 427.451 -3.41075 -1.97641 0
M  V30 4805 H 428.739 -4.14933 -2.94463 0
M  V30 4806 H 428.137 -2.00136 -5.29115 0
M  V30 4807 H 426.694 -2.66143 -5.94988 0
M  V30 4808 N 430.127 0.543554 -1.4793 0
M  V30 4809 C 431.543 0.870806 -1.3375 0
M  V30 4810 C 431.743 1.9864 -0.338261 0
M  V30 4811 O 430.799 2.51305 0.245371 0
M  V30 4812 C 432.112 1.25114 -2.73435 0
M  V30 4813 C 433.66 1.3618 -2.81823 0
M  V30 4814 C 434.135 1.77563 -4.22179 0
M  V30 4815 N 435.626 1.8469 -4.24787 0
M  V30 4816 C 436.361 2.18067 -5.30315 0
M  V30 4817 N 435.857 2.49963 -6.46135 0
M  V30 4818 N 437.65 2.18958 -5.17701 0
M  V30 4819 H 429.801 -0.19275 -2.11524 0
M  V30 4820 H 432.064 -0.0235777 -0.947707 0
M  V30 4821 H 431.77 0.50514 -3.48053 0
M  V30 4822 H 431.644 2.20431 -3.06088 0
M  V30 4823 H 434.031 2.09859 -2.07468 0
M  V30 4824 H 434.112 0.390169 -2.52807 0
M  V30 4825 H 433.756 1.04449 -4.97044 0
M  V30 4826 H 433.686 2.75753 -4.48629 0
M  V30 4827 H 436.177 1.62372 -3.41239 0
M  V30 4828 H 436.49 2.74497 -7.22406 0
M  V30 4829 H 434.835 2.47513 -6.49432 0
M  V30 4830 H 438.026 1.93488 -4.2624 0
M  V30 4831 H 438.199 2.44639 -6.00047 0
M  V30 4832 N 431.605 1.3629 0.791371 0
M  V30 4833 C 432.535 1.33137 1.91825 0
M  V30 4834 C 433.516 0.203168 1.68882 0
M  V30 4835 O 434.701 0.400509 1.90025 0
M  V30 4836 C 431.831 1.11793 3.28816 0
M  V30 4837 C 430.785 2.21417 3.66277 0
M  V30 4838 C 430.111 1.85218 5.01596 0
M  V30 4839 C 431.411 3.63489 3.75064 0
M  V30 4840 H 433.105 2.2743 1.9472 0
M  V30 4841 H 430.651 1.09479 0.935437 0
M  V30 4842 H 432.604 1.08222 4.07266 0
M  V30 4843 H 431.328 0.139501 3.26302 0
M  V30 4844 H 429.987 2.2411 2.90121 0
M  V30 4845 H 429.635 0.859544 4.95602 0
M  V30 4846 H 429.335 2.58611 5.27631 0
M  V30 4847 H 430.859 1.832 5.82469 0
M  V30 4848 H 432.273 3.63034 4.43711 0
M  V30 4849 H 430.67 4.35771 4.12582 0
M  V30 4850 H 431.74 3.98536 2.76219 0
M  V30 4851 N 433.083 -1.0153 1.20538 0
M  V30 4852 C 434.499 -1.27461 0.96051 0
M  V30 4853 C 434.699 -1.98273 -0.359193 0
M  V30 4854 O 433.755 -2.27886 -1.0874 0
M  V30 4855 C 435.068 -2.10837 2.14402 0
M  V30 4856 C 436.616 -2.24099 2.18515 0
M  V30 4857 C 437.091 -3.10852 3.36355 0
M  V30 4858 N 438.582 -3.18441 3.36377 0
M  V30 4859 C 439.317 -3.85795 4.24205 0
M  V30 4860 N 438.813 -4.55264 5.22213 0
M  V30 4861 N 440.606 -3.82331 4.12043 0
M  V30 4862 H 432.757 -0.539907 2.05423 0
M  V30 4863 H 435.02 -0.30092 0.898972 0
M  V30 4864 H 434.726 -1.66144 3.09983 0
M  V30 4865 H 434.6 -3.11576 2.12604 0
M  V30 4866 H 436.987 -2.68016 1.23497 0
M  V30 4867 H 437.068 -1.22865 2.24361 0
M  V30 4868 H 436.712 -2.6764 4.31661 0
M  V30 4869 H 436.642 -4.12177 3.27746 0
M  V30 4870 H 439.133 -2.68978 2.65442 0
M  V30 4871 H 439.446 -5.04331 5.85551 0
M  V30 4872 H 437.791 -4.54085 5.26148 0
M  V30 4873 H 440.982 -3.27207 3.34743 0
M  V30 4874 H 441.155 -4.34547 4.807 0
M  V30 4875 N 434.561 -1.01147 -1.20859 0
M  V30 4876 C 435.807 -0.708598 -1.90658 0
M  V30 4877 C 436.162 0.753069 -1.7705 0
M  V30 4878 O 435.455 1.53952 -1.14059 0
M  V30 4879 C 435.649 -1.0727 -3.40922 0
M  V30 4880 C 435.478 -2.56821 -3.69152 0
M  V30 4881 C 434.248 -3.23524 -3.8815 0
M  V30 4882 C 436.446 -3.54997 -3.72131 0
M  V30 4883 N 434.428 -4.62359 -4.03853 0
M  V30 4884 C 435.799 -4.79371 -3.93196 0
M  V30 4885 C 437.854 -3.49042 -3.55069 0
M  V30 4886 C 436.557 -5.98512 -3.98969 0
M  V30 4887 C 438.583 -4.67579 -3.6211 0
M  V30 4888 C 437.945 -5.9076 -3.83643 0
M  V30 4889 H 434.044 -0.31088 -0.71755 0
M  V30 4890 H 436.628 -1.29526 -1.45366 0
M  V30 4891 H 434.799 -0.51443 -3.84978 0
M  V30 4892 H 436.531 -0.723891 -3.98173 0
M  V30 4893 H 433.286 -2.73958 -3.86321 0
M  V30 4894 H 433.71 -5.34427 -4.15592 0
M  V30 4895 H 438.352 -2.54808 -3.37391 0
M  V30 4896 H 436.07 -6.93132 -4.15444 0
M  V30 4897 H 439.656 -4.64581 -3.50222 0
M  V30 4898 H 438.536 -6.8095 -3.88944 0
M  V30 4899 N 436.039 1.36541 -0.78704 0
M  V30 4900 C 437.269 2.03266 -0.369662 0
M  V30 4901 C 437.677 1.59481 1.01796 0
M  V30 4902 O 437.02 0.778612 1.66383 0
M  V30 4903 C 437.082 3.57779 -0.351371 0
M  V30 4904 C 436.746 4.24756 -1.68617 0
M  V30 4905 C 437.743 4.47811 -2.64124 0
M  V30 4906 C 435.428 4.62277 -1.96481 0
M  V30 4907 C 437.422 5.07464 -3.85693 0
M  V30 4908 C 435.109 5.21649 -3.18317 0
M  V30 4909 C 436.107 5.44182 -4.12741 0
M  V30 4910 O 435.795 6.02307 -5.32429 0
M  V30 4911 H 435.527 0.658977 -0.150751 0
M  V30 4912 H 438.081 1.75548 -1.0664 0
M  V30 4913 H 436.311 3.84606 0.401847 0
M  V30 4914 H 438 4.05879 0.0410147 0
M  V30 4915 H 438.766 4.19221 -2.43883 0
M  V30 4916 H 434.645 4.44065 -1.23805 0
M  V30 4917 H 438.189 5.24968 -4.59407 0
M  V30 4918 H 434.086 5.49664 -3.38437 0
M  V30 4919 H 434.854 6.20775 -5.33461 0
M  V30 4920 N 437.518 0.538854 1.48102 0
M  V30 4921 C 438.748 0.0122958 2.06596 0
M  V30 4922 C 439.156 -1.27861 1.39457 0
M  V30 4923 O 438.499 -1.77348 0.478907 0
M  V30 4924 C 438.561 -0.273131 3.58461 0
M  V30 4925 C 438.225 0.92561 4.47528 0
M  V30 4926 C 439.222 1.82637 4.86765 0
M  V30 4927 C 436.907 1.13511 4.89306 0
M  V30 4928 C 438.901 2.92047 5.66558 0
M  V30 4929 C 436.588 2.23233 5.68868 0
M  V30 4930 C 437.586 3.12333 6.07402 0
M  V30 4931 O 437.274 4.20155 6.85365 0
M  V30 4932 H 437.006 0.0344283 0.675123 0
M  V30 4933 H 439.56 0.746494 1.91355 0
M  V30 4934 H 437.79 -1.06141 3.71848 0
M  V30 4935 H 439.479 -0.742842 3.99045 0
M  V30 4936 H 440.245 1.67649 4.55103 0
M  V30 4937 H 436.124 0.450835 4.5879 0
M  V30 4938 H 439.668 3.6162 5.96554 0
M  V30 4939 H 435.565 2.38201 5.99942 0
M  V30 4940 H 436.333 4.17975 7.03732 0
M  V30 4941 N 438.996 -1.55193 0.274407 0
M  V30 4942 C 439.926 -2.25471 -0.607032 0
M  V30 4943 C 440.907 -1.24461 -1.15946 0
M  V30 4944 O 442.092 -1.53179 -1.19373 0
M  V30 4945 C 439.222 -2.97526 -1.79153 0
M  V30 4946 C 438.176 -4.05459 -1.37067 0
M  V30 4947 C 437.502 -4.65084 -2.6382 0
M  V30 4948 C 438.802 -5.19691 -0.521389 0
M  V30 4949 H 440.496 -2.99393 -0.0209343 0
M  V30 4950 H 438.042 -1.43997 -0.00862866 0
M  V30 4951 H 439.995 -3.45402 -2.41404 0
M  V30 4952 H 438.719 -2.21138 -2.40344 0
M  V30 4953 H 437.378 -3.58393 -0.771355 0
M  V30 4954 H 437.026 -3.85365 -3.23268 0
M  V30 4955 H 436.726 -5.37961 -2.36372 0
M  V30 4956 H 438.25 -5.15708 -3.26921 0
M  V30 4957 H 439.664 -5.63623 -1.04889 0
M  V30 4958 H 438.061 -5.99126 -0.341825 0
M  V30 4959 H 439.131 -4.82713 0.46 0
M  V30 4960 N 440.474 -0.00167713 -1.576 0
M  V30 4961 C 441.404 0.988091 -2.11563 0
M  V30 4962 C 442.385 1.35736 -1.02517 0
M  V30 4963 O 443.57 1.44082 -1.30208 0
M  V30 4964 C 440.7 2.27941 -2.62031 0
M  V30 4965 C 439.654 2.0517 -3.75619 0
M  V30 4966 C 438.98 3.4033 -4.12407 0
M  V30 4967 C 440.28 1.41294 -5.02825 0
M  V30 4968 H 441.974 0.538771 -2.94513 0
M  V30 4969 H 439.52 0.257712 -1.41675 0
M  V30 4970 H 441.473 2.97539 -2.9841 0
M  V30 4971 H 440.197 2.74989 -1.76205 0
M  V30 4972 H 438.856 1.37998 -3.39635 0
M  V30 4973 H 438.504 3.85085 -3.23603 0
M  V30 4974 H 438.204 3.25909 -4.88935 0
M  V30 4975 H 439.728 4.1124 -4.51347 0
M  V30 4976 H 441.142 2.00851 -5.36965 0
M  V30 4977 H 439.539 1.37356 -5.84169 0
M  V30 4978 H 440.609 0.382362 -4.8339 0
M  V30 4979 N 441.952 1.55251 0.271103 0
M  V30 4980 C 443.2 1.75599 1.00047 0
M  V30 4981 C 443.521 0.561188 1.8675 0
M  V30 4982 O 442.791 -0.423846 1.9126 0
M  V30 4983 H 441.371 0.647562 0.372387 0
M  V30 4984 H 444.033 1.92656 0.294876 0
M  V30 4985 H 443.129 2.65766 1.6363 0
M  V30 4986 N 443.43 -0.535701 1.48216 0
M  V30 4987 C 444.676 -1.2913 1.57153 0
M  V30 4988 C 445.031 -1.90899 0.239823 0
M  V30 4989 O 444.324 -1.76022 -0.756748 0
M  V30 4990 C 444.518 -2.4068 2.64212 0
M  V30 4991 C 444.347 -1.89844 4.07663 0
M  V30 4992 C 443.117 -1.72708 4.74869 0
M  V30 4993 C 445.315 -1.43031 4.94011 0
M  V30 4994 N 443.297 -1.16437 6.02757 0
M  V30 4995 C 444.668 -0.986691 6.12098 0
M  V30 4996 C 446.723 -1.3128 4.80281 0
M  V30 4997 C 445.426 -0.437231 7.1797 0
M  V30 4998 C 447.452 -0.777346 5.86269 0
M  V30 4999 C 446.814 -0.343774 7.03561 0
M  V30 5000 H 442.913 -0.463753 0.629648 0
M  V30 5001 H 445.497 -0.604736 1.8507 0
M  V30 5002 H 443.668 -3.06839 2.38126 0
M  V30 5003 H 445.4 -3.07706 2.62867 0
M  V30 5004 H 442.155 -1.96061 4.31111 0
M  V30 5005 H 442.579 -0.903281 6.70947 0
M  V30 5006 H 447.221 -1.63408 3.89946 0
M  V30 5007 H 444.939 -0.103621 8.08034 0
M  V30 5008 H 448.525 -0.689688 5.77698 0
M  V30 5009 H 447.405 0.0641219 7.84174 0
M  V30 5010 N 444.908 -1.36708 -0.784132 0
M  V30 5011 C 446.156 -1.30972 -1.53918 0
M  V30 5012 C 446.477 0.109086 -1.94695 0
M  V30 5013 O 445.747 1.05048 -1.65353 0
M  V30 5014 H 444.327 -0.481819 -0.570841 0
M  V30 5015 H 446.989 -1.71063 -0.934002 0
M  V30 5016 H 446.085 -1.94061 -2.44431 0
M  V30 5017 N 446.386 1.0089 -1.21074 0
M  V30 5018 C 447.633 1.74607 -1.0256 0
M  V30 5019 C 447.961 1.89426 0.44136 0
M  V30 5020 O 447.216 1.42266 1.34384 0
M  V30 5021 C 447.515 3.16335 -1.66334 0
M  V30 5022 C 447.181 3.21474 -3.16173 0
M  V30 5023 C 445.843 3.22583 -3.57062 0
M  V30 5024 C 448.195 3.19025 -4.12156 0
M  V30 5025 C 445.523 3.18925 -4.92446 0
M  V30 5026 C 447.875 3.16909 -5.47496 0
M  V30 5027 C 446.539 3.16326 -5.87787 0
M  V30 5028 H 445.809 0.638933 -0.375294 0
M  V30 5029 H 448.456 1.18274 -1.50611 0
M  V30 5030 H 446.761 3.75876 -1.10566 0
M  V30 5031 H 448.458 3.72083 -1.49516 0
M  V30 5032 H 445.048 3.2135 -2.83605 0
M  V30 5033 H 449.232 3.17332 -3.81595 0
M  V30 5034 H 444.488 3.16809 -5.22917 0
M  V30 5035 H 448.662 3.13968 -6.21609 0
M  V30 5036 H 446.289 3.13246 -6.92662 0
M  V30 5037 N 447.864 1.01787 1.20321 0
M  V30 5038 C 449.275 0.739307 1.71438 0
M  V30 5039 C 449.626 -0.742041 1.81627 0
M  V30 5040 O 448.751 -1.57903 1.47971 0
M  V30 5041 C 449.346 1.33538 3.11373 0
M  V30 5042 C 447.905 1.10566 3.59795 0
M  V30 5043 C 447.052 1.44028 2.36962 0
M  V30 5044 H 450.003 1.18718 1.05317 0
M  V30 5045 H 450.024 0.726611 3.73498 0
M  V30 5046 H 449.536 2.41352 3.03926 0
M  V30 5047 H 447.637 0.0452405 3.72573 0
M  V30 5048 H 447.75 1.78661 4.44542 0
M  V30 5049 H 446.114 0.85933 2.39766 0
M  V30 5050 H 446.897 2.52901 2.32155 0
M  V30 5051 N 449.342 -1.36122 0.79427 0
M  V30 5052 C 450.272 -2.32551 0.210328 0
M  V30 5053 C 451.253 -1.56884 -0.657386 0
M  V30 5054 O 452.438 -1.85014 -0.590207 0
M  V30 5055 C 449.568 -3.41128 -0.651819 0
M  V30 5056 C 448.522 -4.27842 0.116395 0
M  V30 5057 C 447.848 -5.2763 -0.86666 0
M  V30 5058 C 449.148 -5.05647 1.30837 0
M  V30 5059 H 450.842 -2.81636 1.01594 0
M  V30 5060 H 448.388 -1.35407 0.489981 0
M  V30 5061 H 450.341 -4.07581 -1.07031 0
M  V30 5062 H 449.065 -2.90622 -1.49019 0
M  V30 5063 H 447.724 -3.62952 0.515915 0
M  V30 5064 H 447.372 -4.73395 -1.70019 0
M  V30 5065 H 447.072 -5.86514 -0.35705 0
M  V30 5066 H 448.596 -5.96955 -1.28361 0
M  V30 5067 H 450.01 -5.65113 0.965393 0
M  V30 5068 H 448.407 -5.73967 1.75161 0
M  V30 5069 H 449.477 -4.37006 2.10128 0
M  V30 5070 N 450.82 -0.546701 -1.47814 0
M  V30 5071 C 452.066 -0.0187684 -2.02791 0
M  V30 5072 C 452.399 1.32338 -1.42128 0
M  V30 5073 O 451.674 1.85867 -0.573023 0
M  V30 5074 C 451.957 0.0854985 -3.59998 0
M  V30 5075 C 451.81 -1.283 -4.31114 0
M  V30 5076 C 453.129 0.80412 -4.32691 0
M  V30 5077 H 450.248 -0.0082946 -0.736953 0
M  V30 5078 H 452.89 -0.706962 -1.76358 0
M  V30 5079 H 451.04 0.671609 -3.82651 0
M  V30 5080 H 452.712 -1.91151 -4.19832 0
M  V30 5081 H 450.955 -1.86049 -3.91878 0
M  V30 5082 H 451.626 -1.16287 -5.39612 0
M  V30 5083 H 454.102 0.306576 -4.14969 0
M  V30 5084 H 452.978 0.846011 -5.42341 0
M  V30 5085 H 453.239 1.85802 -4.01161 0
M  V30 5086 N 452.299 1.55045 -0.282633 0
M  V30 5087 C 453.71 1.85473 0.213655 0
M  V30 5088 C 454.061 1.20465 1.54863 0
M  V30 5089 O 453.186 0.495676 2.10647 0
M  V30 5090 C 453.781 3.36496 0.394445 0
M  V30 5091 C 452.34 3.67022 0.834961 0
M  V30 5092 C 451.487 2.77218 -0.0674081 0
M  V30 5093 H 454.438 1.50478 -0.504202 0
M  V30 5094 H 454.459 3.60007 1.23186 0
M  V30 5095 H 453.971 3.83782 -0.577326 0
M  V30 5096 H 452.072 3.25241 1.81794 0
M  V30 5097 H 452.185 4.74433 0.667075 0
M  V30 5098 H 450.549 2.5069 0.450196 0
M  V30 5099 H 451.332 3.2732 -1.0352 0
M  V30 5100 N 453.777 0.010035 1.57597 0
M  V30 5101 C 455.005 -0.683413 1.95287 0
M  V30 5102 C 455.42 -1.66747 0.885481 0
M  V30 5103 O 454.777 -1.82003 -0.134629 0
M  V30 5104 C 454.828 -1.40652 3.33015 0
M  V30 5105 O 454.549 -0.461916 4.35658 0
M  V30 5106 C 456.05 -2.19356 3.85225 0
M  V30 5107 H 453.27 -0.189708 0.643624 0
M  V30 5108 H 455.814 0.0641359 2.04399 0
M  V30 5109 H 453.969 -2.10562 3.2518 0
M  V30 5110 H 454.383 -0.973215 5.15392 0
M  V30 5111 H 455.857 -2.65433 4.83993 0
M  V30 5112 H 456.334 -3.02457 3.18459 0
M  V30 5113 H 456.94 -1.54442 3.96267 0
M  V30 5114 N 455.255 -1.55392 -0.262866 0
M  V30 5115 C 456.483 -1.80513 -1.01108 0
M  V30 5116 C 456.898 -0.583533 -1.79556 0
M  V30 5117 O 456.255 0.447585 -1.76926 0
M  V30 5118 C 456.306 -3.03648 -1.96164 0
M  V30 5119 O 456.027 -4.2109 -1.20893 0
M  V30 5120 C 457.528 -3.41448 -2.82715 0
M  V30 5121 H 454.748 -0.601079 -0.298236 0
M  V30 5122 H 457.292 -2.02425 -0.290582 0
M  V30 5123 H 455.447 -2.83832 -2.63663 0
M  V30 5124 H 455.861 -4.90771 -1.85051 0
M  V30 5125 H 457.335 -4.30751 -3.45192 0
M  V30 5126 H 457.812 -2.61308 -3.53008 0
M  V30 5127 H 458.418 -3.63559 -2.20693 0
M  V30 5128 N 456.733 0.527833 -1.48498 0
M  V30 5129 C 457.982 1.28003 -1.55878 0
M  V30 5130 C 458.295 1.9414 -0.238577 0
M  V30 5131 O 459.501 2.7083 -0.190643 0
M  V30 5132 C 457.957 2.32272 -2.74914 0
M  V30 5133 C 457.565 1.72196 -4.13585 0
M  V30 5134 C 459.309 3.08488 -2.91608 0
M  V30 5135 C 457.216 2.74417 -5.23879 0
M  V30 5136 H 456.146 0.481413 -0.580308 0
M  V30 5137 H 458.797 0.557195 -1.74836 0
M  V30 5138 H 457.179 3.07601 -2.49395 0
M  V30 5139 H 458.353 1.03041 -4.49132 0
M  V30 5140 H 456.668 1.08464 -4.02025 0
M  V30 5141 H 459.265 3.84879 -3.71177 0
M  V30 5142 H 459.608 3.64481 -2.01145 0
M  V30 5143 H 460.141 2.40274 -3.17038 0
M  V30 5144 H 456.88 2.23242 -6.16314 0
M  V30 5145 H 456.4 3.41893 -4.92818 0
M  V30 5146 H 458.079 3.37362 -5.52083 0
M  V30 5147 N 458.211 1.37122 0.776871 0
M  V30 5148 C 459.161 1.28989 1.88005 0
M  V30 5149 C 460.145 0.178765 1.59904 0
M  V30 5150 O 461.337 0.412705 1.72121 0
M  V30 5151 C 458.466 1.09402 3.25402 0
M  V30 5152 C 457.552 2.25036 3.59471 0
M  V30 5153 N 457.943 3.50407 3.64759 0
M  V30 5154 C 456.241 2.17078 3.89607 0
M  V30 5155 C 456.942 4.26628 3.95428 0
M  V30 5156 N 455.918 3.55709 4.11062 0
M  V30 5157 H 459.72 2.2394 1.90337 0
M  V30 5158 H 457.234 1.30021 0.973052 0
M  V30 5159 H 459.231 1.01661 4.04315 0
M  V30 5160 H 457.891 0.153632 3.24336 0
M  V30 5161 H 458.902 3.8438 3.47091 0
M  V30 5162 H 455.579 1.31067 3.96393 0
M  V30 5163 H 456.969 5.35107 4.06338 0
M  V30 5164 N 459.689 -1.00246 1.21608 0
M  V30 5165 C 460.652 -2.07233 0.979133 0
M  V30 5166 C 461.652 -1.6072 -0.0508219 0
M  V30 5167 O 462.842 -1.73196 0.186712 0
M  V30 5168 C 459.974 -3.37546 0.477016 0
M  V30 5169 H 461.167 -2.29687 1.92831 0
M  V30 5170 H 458.72 -1.17261 1.03342 0
M  V30 5171 H 459.455 -3.20773 -0.476966 0
M  V30 5172 H 459.24 -3.72638 1.21997 0
M  V30 5173 H 460.73 -4.16285 0.331181 0
M  V30 5174 N 461.167 -1.02423 -1.1978 0
M  V30 5175 C 462.416 -0.713265 -1.88667 0
M  V30 5176 C 462.729 0.7609 -1.80193 0
M  V30 5177 O 463.935 1.18473 -2.44288 0
M  V30 5178 C 462.391 -1.22545 -3.38394 0
M  V30 5179 C 461.999 -2.72706 -3.55437 0
M  V30 5180 C 463.743 -0.990257 -4.12788 0
M  V30 5181 C 461.65 -3.17367 -4.99031 0
M  V30 5182 H 460.58 -0.263105 -0.706606 0
M  V30 5183 H 463.231 -1.23792 -1.35454 0
M  V30 5184 H 461.613 -0.628732 -3.90977 0
M  V30 5185 H 462.787 -3.37993 -3.13205 0
M  V30 5186 H 461.102 -2.94453 -2.94425 0
M  V30 5187 H 463.699 -1.29926 -5.18675 0
M  V30 5188 H 464.042 0.0730761 -4.16236 0
M  V30 5189 H 464.575 -1.55074 -3.66329 0
M  V30 5190 H 461.314 -4.23009 -5.00743 0
M  V30 5191 H 460.834 -2.56805 -5.42044 0
M  V30 5192 H 462.513 -3.10441 -5.67658 0
M  V30 5193 N 462.645 1.35699 -0.801477 0
M  V30 5194 C 463.873 2.03157 -0.391768 0
M  V30 5195 C 464.288 1.60412 0.995668 0
M  V30 5196 O 463.645 0.799228 1.64069 0
M  V30 5197 C 463.696 3.58566 -0.459671 0
M  V30 5198 O 463.417 3.99756 -1.7924 0
M  V30 5199 C 464.918 4.4328 -0.0421205 0
M  V30 5200 H 462.138 0.651688 -0.159825 0
M  V30 5201 H 464.682 1.73426 -1.08368 0
M  V30 5202 H 462.837 3.86963 0.183939 0
M  V30 5203 H 463.251 4.94387 -1.75162 0
M  V30 5204 H 464.725 5.51821 -0.140754 0
M  V30 5205 H 465.202 4.27383 1.01196 0
M  V30 5206 H 465.808 4.20168 -0.658687 0
M  V30 5207 N 464.123 0.554532 1.47522 0
M  V30 5208 C 465.539 0.214107 1.58157 0
M  V30 5209 C 465.739 -1.28331 1.55349 0
M  V30 5210 O 464.795 -2.06329 1.45549 0
M  V30 5211 C 466.108 0.838391 2.88776 0
M  V30 5212 C 467.656 0.809374 3.02354 0
M  V30 5213 C 468.131 1.41268 4.35669 0
M  V30 5214 N 469.622 1.37574 4.42298 0
M  V30 5215 C 470.357 1.8122 5.4401 0
M  V30 5216 N 469.853 2.3271 6.52547 0
M  V30 5217 N 471.646 1.72307 5.35039 0
M  V30 5218 H 463.797 1.52744 1.4759 0
M  V30 5219 H 466.06 0.636812 0.702264 0
M  V30 5220 H 465.766 1.89065 2.96559 0
M  V30 5221 H 465.64 0.329847 3.75755 0
M  V30 5222 H 468.027 -0.234187 2.94169 0
M  V30 5223 H 468.108 1.35565 2.16924 0
M  V30 5224 H 467.752 2.45529 4.4461 0
M  V30 5225 H 467.682 0.841871 5.19827 0
M  V30 5226 H 470.173 0.999081 3.64454 0
M  V30 5227 H 470.486 2.63944 7.26329 0
M  V30 5228 H 468.831 2.36719 6.53444 0
M  V30 5229 H 472.022 1.3186 4.49144 0
M  V30 5230 H 472.195 2.06641 6.14169 0
M  V30 5231 N 465.601 -1.54893 0.290851 0
M  V30 5232 C 466.564 -2.21824 -0.576784 0
M  V30 5233 C 467.564 -1.20104 -1.06919 0
M  V30 5234 O 468.754 -1.44906 -0.966843 0
M  V30 5235 C 465.886 -2.89662 -1.79747 0
M  V30 5236 H 467.079 -2.99899 0.00784051 0
M  V30 5237 H 464.632 -1.56245 0.0415934 0
M  V30 5238 H 465.367 -2.15639 -2.42219 0
M  V30 5239 H 465.152 -3.64219 -1.45214 0
M  V30 5240 H 466.642 -3.4075 -2.4141 0
M  V30 5241 N 467.08 -0.0183926 -1.57589 0
M  V30 5242 C 468.326 0.663543 -1.91638 0
M  V30 5243 C 468.659 1.72392 -0.894134 0
M  V30 5244 O 467.934 1.94316 0.0846449 0
M  V30 5245 C 468.217 1.28984 -3.36207 0
M  V30 5246 C 468.07 0.239761 -4.49161 0
M  V30 5247 C 469.389 2.2109 -3.80536 0
M  V30 5248 H 466.508 0.239746 -0.696915 0
M  V30 5249 H 469.15 -0.073456 -1.89858 0
M  V30 5250 H 467.3 1.91799 -3.37854 0
M  V30 5251 H 468.972 -0.390119 -4.59647 0
M  V30 5252 H 467.215 -0.435972 -4.31604 0
M  V30 5253 H 467.886 0.717383 -5.47319 0
M  V30 5254 H 470.362 1.68273 -3.80557 0
M  V30 5255 H 469.238 2.61869 -4.82406 0
M  V30 5256 H 469.499 3.09764 -3.15434 0
M  V30 5257 N 468.558 1.5553 0.254621 0
M  V30 5258 C 469.788 1.80784 1.00004 0
M  V30 5259 C 470.196 0.59071 1.79742 0
M  V30 5260 O 469.539 -0.449988 1.78103 0
M  V30 5261 C 469.601 2.99268 1.99196 0
M  V30 5262 C 469.265 4.35595 1.38224 0
M  V30 5263 C 470.262 5.13884 0.788611 0
M  V30 5264 C 467.947 4.82281 1.40393 0
M  V30 5265 C 469.941 6.37004 0.224783 0
M  V30 5266 C 467.628 6.05351 0.836243 0
M  V30 5267 C 468.626 6.82551 0.24769 0
M  V30 5268 O 468.314 8.03297 -0.311249 0
M  V30 5269 H 468.046 0.60565 0.300274 0
M  V30 5270 H 470.6 2.03411 0.285143 0
M  V30 5271 H 468.83 2.72377 2.74496 0
M  V30 5272 H 470.519 3.11682 2.60018 0
M  V30 5273 H 471.285 4.78938 0.764423 0
M  V30 5274 H 467.164 4.22189 1.85142 0
M  V30 5275 H 470.708 6.97203 -0.235235 0
M  V30 5276 H 466.605 6.39776 0.857733 0
M  V30 5277 H 467.373 8.1825 -0.20237 0
M  V30 5278 N 470.036 -0.519951 1.48776 0
M  V30 5279 C 471.283 -1.27522 1.57303 0
M  V30 5280 C 471.611 -1.92869 0.251328 0
M  V30 5281 O 470.866 -1.80372 -0.759243 0
M  V30 5282 C 471.165 -2.37864 2.6675 0
M  V30 5283 C 470.831 -1.90103 4.08867 0
M  V30 5284 C 469.493 -1.76795 4.47546 0
M  V30 5285 C 471.845 -1.54133 4.97888 0
M  V30 5286 C 469.173 -1.25868 5.73039 0
M  V30 5287 C 471.525 -1.04665 6.23881 0
M  V30 5288 C 470.189 -0.899823 6.61407 0
M  V30 5289 H 469.459 -0.466636 0.575614 0
M  V30 5290 H 472.106 -0.579109 1.82534 0
M  V30 5291 H 470.411 -3.13186 2.35418 0
M  V30 5292 H 472.108 -2.95969 2.70561 0
M  V30 5293 H 468.698 -2.01414 3.78326 0
M  V30 5294 H 472.882 -1.6327 4.68675 0
M  V30 5295 H 468.138 -1.13196 6.0083 0
M  V30 5296 H 472.312 -0.759074 6.92251 0
M  V30 5297 H 469.939 -0.503011 7.58534 0
M  V30 5298 N 471.514 -1.37532 -0.769588 0
M  V30 5299 C 472.462 -1.33561 -1.90432 0
M  V30 5300 C 473.456 -0.224027 -1.67912 0
M  V30 5301 O 474.662 -0.392174 -1.75676 0
M  V30 5302 H 471.037 -0.416279 -0.626271 0
M  V30 5303 H 473.008 -2.29348 -1.90899 0
M  V30 5304 C 471.757 -1.16162 -3.27722 0
M  V30 5305 H 471.08 -2.00951 -3.45628 0
M  V30 5306 H 472.52 -1.17434 -4.07413 0
M  V30 5307 C 470.979 0.132583 -3.36639 0
M  V30 5308 O 471.509 1.11539 -3.85904 0
M  V30 5309 N 469.715 0.184013 -2.90017 0
M  V30 5310 H 469.262 -0.616415 -2.50116 0
M  V30 5311 H 469.22 1.04956 -2.96364 0
M  V30 5312 N 472.992 0.995999 -1.22138 0
M  V30 5313 C 474.269 1.70834 -0.952642 0
M  V30 5314 C 474.649 2.04257 0.533119 0
M  V30 5315 O 473.997 1.72343 1.50034 0
M  V30 5316 C 474.207 2.96119 -1.84701 0
M  V30 5317 C 475.555 3.68962 -2.10124 0
M  V30 5318 O 476.579 3.0612 -1.82124 0
M  V30 5319 O 475.438 4.82017 -2.57531 0
M  V30 5320 H 472.532 0.745498 -0.357997 0
M  V30 5321 H 475.078 1.05262 -1.33109 0
M  V30 5322 H 473.85 2.67898 -2.85213 0
M  V30 5323 H 473.473 3.6943 -1.46995 0
M  V30 5324 N 474.47 1.03057 1.19235 0
M  V30 5325 C 475.418 0.606391 2.24557 0
M  V30 5326 C 476.412 -0.361826 1.65491 0
M  V30 5327 O 477.618 -0.23022 1.78522 0
M  V30 5328 H 473.993 0.177838 0.730669 0
M  V30 5329 H 475.964 1.50529 2.5765 0
M  V30 5330 C 474.713 -0.0252127 3.47691 0
M  V30 5331 H 474.036 0.710838 3.9343 0
M  V30 5332 H 475.476 -0.284931 4.23042 0
M  V30 5333 C 473.935 -1.27229 3.11953 0
M  V30 5334 O 474.465 -2.36416 3.24762 0
M  V30 5335 N 472.671 -1.16169 2.6637 0
M  V30 5336 H 472.218 -0.273189 2.56147 0
M  V30 5337 H 472.176 -1.99703 2.42829 0
M  V30 5338 N 475.948 -1.35272 0.808662 0
M  V30 5339 C 477.188 -2.00534 0.395668 0
M  V30 5340 C 477.552 -1.62755 -1.01857 0
M  V30 5341 O 478.753 -2.20752 -1.53368 0
M  V30 5342 C 477.024 -3.52732 0.575771 0
M  V30 5343 S 478.583 -4.38067 0.253507 0
M  V30 5344 H 475.401 -0.694962 0.150165 0
M  V30 5345 H 478.003 -1.64823 1.05137 0
M  V30 5346 H 476.707 -3.77714 1.60499 0
M  V30 5347 H 476.238 -3.93285 -0.0951739 0
M  V30 5348 H 478.253 -4.87252 -0.938068 0
M  V30 5349 N 477.426 -0.562348 -1.47226 0
M  V30 5350 C 478.672 -0.0485293 -2.03342 0
M  V30 5351 C 479.027 1.28898 -1.42839 0
M  V30 5352 O 478.32 1.82719 -0.576563 0
M  V30 5353 C 478.514 0.0969817 -3.57268 0
M  V30 5354 C 478.343 -1.22487 -4.32697 0
M  V30 5355 C 477.113 -1.79357 -4.72397 0
M  V30 5356 C 479.311 -2.14332 -4.67511 0
M  V30 5357 N 477.293 -3.05493 -5.32491 0
M  V30 5358 C 478.664 -3.25049 -5.27961 0
M  V30 5359 C 480.719 -2.14263 -4.4944 0
M  V30 5360 C 479.422 -4.35804 -5.72248 0
M  V30 5361 C 481.448 -3.24033 -4.94729 0
M  V30 5362 C 480.81 -4.3347 -5.55233 0
M  V30 5363 H 476.909 -0.0600464 -0.779691 0
M  V30 5364 H 479.493 -0.750769 -1.79643 0
M  V30 5365 H 477.664 0.768353 -3.80724 0
M  V30 5366 H 479.396 0.613333 -4.00025 0
M  V30 5367 H 476.151 -1.33093 -4.54514 0
M  V30 5368 H 476.575 -3.698 -5.67077 0
M  V30 5369 H 481.217 -1.30935 -4.02015 0
M  V30 5370 H 478.935 -5.19888 -6.18661 0
M  V30 5371 H 482.521 -3.25073 -4.82513 0
M  V30 5372 H 481.401 -5.17008 -5.89638 0
M  V30 5373 N 478.904 1.54736 -0.299062 0
M  V30 5374 C 479.834 2.26409 0.571085 0
M  V30 5375 C 480.815 1.2629 1.13951 0
M  V30 5376 O 482 1.55059 1.16921 0
M  V30 5377 C 479.13 3.00338 1.74396 0
M  V30 5378 C 478.084 4.07588 1.30599 0
M  V30 5379 C 477.41 4.69222 2.56387 0
M  V30 5380 C 478.71 5.20455 0.438645 0
M  V30 5381 H 480.404 2.99388 -0.0266991 0
M  V30 5382 H 477.95 1.43993 -0.0142812 0
M  V30 5383 H 479.903 3.49198 2.35878 0
M  V30 5384 H 478.627 2.24934 2.36796 0
M  V30 5385 H 477.286 3.59575 0.71424 0
M  V30 5386 H 476.934 3.9046 3.17097 0
M  V30 5387 H 476.634 5.41653 2.27784 0
M  V30 5388 H 478.158 5.20844 3.18675 0
M  V30 5389 H 479.572 5.65221 0.959085 0
M  V30 5390 H 477.969 5.99594 0.246466 0
M  V30 5391 H 479.039 4.8192 -0.536738 0
M  V30 5392 N 480.382 0.0267497 1.57577 0
M  V30 5393 C 481.607 -0.666227 1.96408 0
M  V30 5394 C 482.032 -1.65004 0.903071 0
M  V30 5395 O 481.39 -1.80787 -0.136263 0
M  V30 5396 C 481.438 -1.35101 3.34335 0
M  V30 5397 O 480.542 -2.46623 3.30531 0
M  V30 5398 H 479.883 -0.175206 0.640468 0
M  V30 5399 H 482.413 0.0878977 2.04411 0
M  V30 5400 H 482.423 -1.70834 3.70513 0
M  V30 5401 H 481.098 -0.629844 4.11103 0
M  V30 5402 H 479.675 -2.13019 3.06068 0
M  V30 5403 N 481.861 -1.55662 -0.24637 0
M  V30 5404 C 483.107 -1.77782 -0.975779 0
M  V30 5405 C 483.44 -0.592103 -1.84953 0
M  V30 5406 O 482.715 0.409588 -1.90138 0
M  V30 5407 C 482.998 -3.09788 -1.83584 0
M  V30 5408 C 482.851 -4.38764 -0.990241 0
M  V30 5409 C 484.17 -3.38029 -2.81823 0
M  V30 5410 H 481.289 -0.646789 -0.353317 0
M  V30 5411 H 483.931 -1.88398 -0.246248 0
M  V30 5412 H 482.081 -3.00869 -2.45784 0
M  V30 5413 H 483.753 -4.59675 -0.386897 0
M  V30 5414 H 481.996 -4.32798 -0.294626 0
M  V30 5415 H 482.667 -5.27514 -1.62584 0
M  V30 5416 H 485.143 -3.46915 -2.2976 0
M  V30 5417 H 484.019 -4.3161 -3.39122 0
M  V30 5418 H 484.28 -2.58968 -3.58313 0
M  V30 5419 N 483.339 0.512053 -1.4905 0
M  V30 5420 C 484.249 1.64139 -1.67617 0
M  V30 5421 C 485.265 1.64786 -0.558701 0
M  V30 5422 O 486.441 1.8341 -0.832034 0
M  V30 5423 C 483.506 3.00548 -1.72835 0
M  V30 5424 C 482.567 3.10615 -2.96339 0
M  V30 5425 C 481.8 4.40517 -3.01298 0
M  V30 5426 O 482.023 5.28671 -2.14157 0
M  V30 5427 O 480.957 4.55325 -3.93653 0
M  V30 5428 H 484.783 1.51407 -2.63267 0
M  V30 5429 H 482.368 0.687131 -1.32661 0
M  V30 5430 H 484.25 3.81641 -1.78683 0
M  V30 5431 H 482.925 3.13566 -0.803616 0
M  V30 5432 H 481.832 2.2875 -2.96014 0
M  V30 5433 H 483.165 3.0252 -3.88256 0
M  V30 5434 N 484.817 1.37938 0.762283 0
M  V30 5435 C 486.045 1.36883 1.55147 0
M  V30 5436 C 486.46 -0.0435348 1.8875 0
M  V30 5437 O 485.817 -1.00786 1.52146 0
M  V30 5438 C 485.868 2.21624 2.85596 0
M  V30 5439 O 485.589 3.57358 2.5343 0
M  V30 5440 C 487.09 2.28653 3.7978 0
M  V30 5441 H 484.31 0.468521 0.480343 0
M  V30 5442 H 486.854 1.81404 0.944079 0
M  V30 5443 H 485.009 1.80588 3.42734 0
M  V30 5444 H 485.423 4.01883 3.37032 0
M  V30 5445 H 486.897 2.9225 4.68288 0
M  V30 5446 H 487.374 1.29767 4.19592 0
M  V30 5447 H 487.98 2.70043 3.28568 0
M  V30 5448 N 486.295 -0.989507 1.22664 0
M  V30 5449 C 487.245 -2.06478 0.967005 0
M  V30 5450 C 488.229 -1.60682 -0.0836374 0
M  V30 5451 O 489.421 -1.76541 0.127322 0
M  V30 5452 C 486.55 -3.38861 0.550313 0
M  V30 5453 C 485.636 -3.9128 1.63587 0
M  V30 5454 N 486.027 -4.16884 2.86429 0
M  V30 5455 C 484.325 -4.1972 1.50834 0
M  V30 5456 C 485.026 -4.5954 3.56648 0
M  V30 5457 N 484.002 -4.63434 2.84131 0
M  V30 5458 H 487.804 -2.24219 1.90008 0
M  V30 5459 H 485.318 -1.17153 1.12467 0
M  V30 5460 H 487.315 -4.15465 0.345612 0
M  V30 5461 H 485.975 -3.22518 -0.375822 0
M  V30 5462 H 486.986 -4.04976 3.22823 0
M  V30 5463 H 483.663 -4.1243 0.648643 0
M  V30 5464 H 485.053 -4.87944 4.61909 0
M  V30 5465 N 487.773 -1.03688 -1.18687 0
M  V30 5466 C 488.703 -0.645407 -2.24403 0
M  V30 5467 C 489.684 0.349511 -1.66471 0
M  V30 5468 O 490.869 0.230453 -1.92828 0
M  V30 5469 C 487.999 -0.00365337 -3.473 0
M  V30 5470 C 486.953 -0.921705 -4.17958 0
M  V30 5471 C 486.279 -0.144629 -5.34504 0
M  V30 5472 C 487.579 -2.23909 -4.71871 0
M  V30 5473 H 489.273 -1.52917 -2.57404 0
M  V30 5474 H 486.819 -0.736711 -1.23728 0
M  V30 5475 H 488.772 0.281908 -4.20456 0
M  V30 5476 H 487.496 0.914963 -3.13522 0
M  V30 5477 H 486.155 -1.19159 -3.46694 0
M  V30 5478 H 485.803 0.776274 -4.96974 0
M  V30 5479 H 485.503 -0.756206 -5.82714 0
M  V30 5480 H 487.027 0.134004 -6.10453 0
M  V30 5481 H 488.441 -2.0145 -5.36741 0
M  V30 5482 H 486.838 -2.8033 -5.30599 0
M  V30 5483 H 487.908 -2.88822 -3.895 0
M  V30 5484 N 489.251 1.34841 -0.815825 0
M  V30 5485 C 490.181 2.32187 -0.247298 0
M  V30 5486 C 491.162 1.5791 0.632344 0
M  V30 5487 O 492.347 1.8593 0.560698 0
M  V30 5488 C 489.477 3.42122 0.597466 0
M  V30 5489 C 488.431 4.27602 -0.184446 0
M  V30 5490 C 487.757 5.28942 0.782609 0
M  V30 5491 C 489.057 5.03502 -1.38865 0
M  V30 5492 H 490.751 2.79985 -1.06061 0
M  V30 5493 H 488.297 1.34611 -0.511461 0
M  V30 5494 H 490.25 4.09232 1.00533 0
M  V30 5495 H 488.974 2.92956 1.44376 0
M  V30 5496 H 487.633 3.62085 -0.573592 0
M  V30 5497 H 487.281 4.7604 1.62466 0
M  V30 5498 H 486.981 5.87008 0.263695 0
M  V30 5499 H 488.505 5.98922 1.18848 0
M  V30 5500 H 489.919 5.63506 -1.05518 0
M  V30 5501 H 488.316 5.71108 -1.8427 0
M  V30 5502 H 489.386 4.33608 -2.17054 0
M  V30 5503 N 490.729 0.570148 1.46925 0
M  V30 5504 C 491.959 0.0561151 2.06524 0
M  V30 5505 C 492.367 -1.24874 1.42137 0
M  V30 5506 O 491.71 -1.76292 0.516417 0
M  V30 5507 C 491.772 -0.197035 3.5896 0
M  V30 5508 C 491.436 1.02033 4.45464 0
M  V30 5509 C 492.433 1.92921 4.82781 0
M  V30 5510 C 490.118 1.23864 4.86788 0
M  V30 5511 C 492.112 3.03999 5.60235 0
M  V30 5512 C 489.799 2.35249 5.64004 0
M  V30 5513 C 490.797 3.25146 6.0064 0
M  V30 5514 O 490.485 4.34598 6.76299 0
M  V30 5515 H 490.217 0.0487409 0.674241 0
M  V30 5516 H 492.771 0.786915 1.89728 0
M  V30 5517 H 491.001 -0.982299 3.74016 0
M  V30 5518 H 492.69 -0.658032 4.00531 0
M  V30 5519 H 493.456 1.77265 4.51444 0
M  V30 5520 H 489.335 0.54805 4.57731 0
M  V30 5521 H 492.879 3.74192 5.8875 0
M  V30 5522 H 488.776 2.50873 5.94755 0
M  V30 5523 H 489.544 4.32808 6.94708 0
M  V30 5524 N 492.207 -1.54576 0.307264 0
M  V30 5525 C 493.456 -1.99442 -0.300976 0
M  V30 5526 C 493.769 -1.19928 -1.5452 0
M  V30 5527 O 494.975 -1.55092 -2.22842 0
M  V30 5528 C 493.431 -3.55084 -0.586809 0
M  V30 5529 C 493.039 -4.43413 0.639438 0
M  V30 5530 C 494.783 -4.0846 -1.1559 0
M  V30 5531 C 492.69 -5.90499 0.326411 0
M  V30 5532 H 491.62 -0.744986 -0.116238 0
M  V30 5533 H 494.271 -1.787 0.416947 0
M  V30 5534 H 492.653 -3.71749 -1.36449 0
M  V30 5535 H 493.827 -4.38522 1.41545 0
M  V30 5536 H 492.142 -4.00842 1.1276 0
M  V30 5537 H 494.739 -5.15926 -1.40445 0
M  V30 5538 H 495.082 -3.59443 -2.10015 0
M  V30 5539 H 495.615 -3.95362 -0.439778 0
M  V30 5540 H 492.354 -6.43676 1.23939 0
M  V30 5541 H 491.874 -5.98382 -0.412212 0
M  V30 5542 H 493.553 -6.46962 -0.0697393 0
M  V30 5543 N 493.685 -0.035106 -1.57561 0
M  V30 5544 C 494.934 0.641604 -1.91223 0
M  V30 5545 C 495.247 1.72944 -0.913761 0
M  V30 5546 O 496.453 2.46321 -1.14185 0
M  V30 5547 C 494.909 1.19249 -3.3957 0
M  V30 5548 C 494.517 0.137616 -4.47789 0
M  V30 5549 C 496.261 1.84537 -3.82291 0
M  V30 5550 C 494.168 0.700478 -5.87237 0
M  V30 5551 H 493.098 0.243417 -0.713627 0
M  V30 5552 H 495.749 -0.101382 -1.8322 0
M  V30 5553 H 494.131 1.98728 -3.42525 0
M  V30 5554 H 495.305 -0.635153 -4.56402 0
M  V30 5555 H 493.62 -0.416855 -4.14308 0
M  V30 5556 H 496.217 2.27616 -4.83834 0
M  V30 5557 H 496.56 2.69054 -3.17672 0
M  V30 5558 H 497.093 1.11739 -3.81784 0
M  V30 5559 H 493.832 -0.106693 -6.55413 0
M  V30 5560 H 493.352 1.4416 -5.82218 0
M  V30 5561 H 495.031 1.18837 -6.35993 0
M  V30 5562 N 495.163 1.55791 0.238111 0
M  V30 5563 C 496.113 1.87444 1.29803 0
M  V30 5564 C 497.097 0.736043 1.43078 0
M  V30 5565 O 498.289 0.998146 1.46171 0
M  V30 5566 C 495.418 2.18028 2.65177 0
M  V30 5567 C 494.504 3.38217 2.55871 0
M  V30 5568 N 494.895 4.57264 2.16202 0
M  V30 5569 C 493.193 3.41502 2.86866 0
M  V30 5570 C 493.894 5.3941 2.17744 0
M  V30 5571 N 492.87 4.78695 2.57589 0
M  V30 5572 H 496.672 2.7701 0.981965 0
M  V30 5573 H 494.186 1.56135 0.44672 0
M  V30 5574 H 496.183 2.38873 3.4168 0
M  V30 5575 H 494.843 1.29765 2.97643 0
M  V30 5576 H 495.854 4.82727 1.87602 0
M  V30 5577 H 492.531 2.63536 3.23813 0
M  V30 5578 H 493.921 6.44671 1.89339 0
M  V30 5579 N 496.642 -0.504142 1.49319 0
M  V30 5580 C 497.89 -1.25598 1.58334 0
M  V30 5581 C 498.211 -1.93114 0.270538 0
M  V30 5582 O 497.481 -1.82585 -0.709891 0
M  V30 5583 H 496.061 -0.466571 0.58337 0
M  V30 5584 H 498.723 -0.584547 1.85928 0
M  V30 5585 H 497.819 -2.02159 2.37778 0
M  V30 5586 N 498.12 -1.38341 -0.754957 0
M  V30 5587 C 499.531 -1.30803 -1.3322 0
M  V30 5588 C 499.882 0.0368 -1.96165 0
M  V30 5589 O 499.007 0.938844 -1.94974 0
M  V30 5590 C 499.602 -2.3688 -2.42225 0
M  V30 5591 C 498.161 -2.32925 -2.95674 0
M  V30 5592 C 497.308 -2.19819 -1.69042 0
M  V30 5593 H 500.259 -1.48719 -0.553937 0
M  V30 5594 H 500.28 -2.02517 -3.22129 0
M  V30 5595 H 499.792 -3.34747 -1.96383 0
M  V30 5596 H 497.893 -1.38635 -3.45848 0
M  V30 5597 H 498.006 -3.27008 -3.50146 0
M  V30 5598 H 496.37 -1.66648 -1.92615 0
M  V30 5599 H 497.153 -3.19625 -1.25279 0
M  V30 5600 N 499.598 0.982988 -1.23187 0
M  V30 5601 C 500.844 1.72648 -1.06398 0
M  V30 5602 C 501.177 1.90066 0.398561 0
M  V30 5603 O 500.452 1.45105 1.29518 0
M  V30 5604 C 500.735 3.12627 -1.78707 0
M  V30 5605 C 500.588 3.02795 -3.32618 0
M  V30 5606 C 501.907 4.11997 -1.54747 0
M  V30 5607 H 499.026 0.626649 -0.387918 0
M  V30 5608 H 501.668 1.14455 -1.51658 0
M  V30 5609 H 499.818 3.62308 -1.40234 0
M  V30 5610 H 501.49 2.60659 -3.80598 0
M  V30 5611 H 499.733 2.39362 -3.61785 0
M  V30 5612 H 500.404 4.01893 -3.78399 0
M  V30 5613 H 502.88 3.71114 -1.88186 0
M  V30 5614 H 501.756 5.08037 -2.07821 0
M  V30 5615 H 502.017 4.39462 -0.482249 0
M  V30 5616 N 501.076 1.04316 1.18135 0
M  V30 5617 C 502.009 0.580823 2.20685 0
M  V30 5618 C 502.987 -0.385943 1.57953 0
M  V30 5619 O 504.171 -0.299654 1.86103 0
M  V30 5620 C 501.298 -0.151162 3.38363 0
M  V30 5621 C 500.344 0.769247 4.19505 0
M  V30 5622 S 501.177 2.25352 4.85774 0
M  V30 5623 C 502.333 1.53246 6.0685 0
M  V30 5624 H 502.566 1.44968 2.5956 0
M  V30 5625 H 500.099 0.85434 1.28609 0
M  V30 5626 H 502.057 -0.567315 4.06561 0
M  V30 5627 H 500.718 -0.995936 2.97892 0
M  V30 5628 H 499.911 0.203335 5.0359 0
M  V30 5629 H 499.513 1.12436 3.56699 0
M  V30 5630 H 501.805 0.82689 6.72435 0
M  V30 5631 H 502.748 2.35044 6.67952 0
M  V30 5632 H 503.156 1.0237 5.5514 0
M  V30 5633 N 502.554 -1.34406 0.822964 0
M  V30 5634 C 503.517 -2.2783 0.250271 0
M  V30 5635 C 504.517 -1.50288 -0.571854 0
M  V30 5636 O 505.707 -1.69825 -0.387952 0
M  V30 5637 C 502.839 -3.34663 -0.649137 0
M  V30 5638 H 504.032 -2.79992 1.07444 0
M  V30 5639 H 501.585 -1.44539 0.594829 0
M  V30 5640 H 502.32 -2.87714 -1.49637 0
M  V30 5641 H 502.105 -3.92052 -0.0611199 0
M  V30 5642 H 503.595 -4.04349 -1.04363 0
M  V30 5643 N 504.032 -0.577932 -1.46621 0
M  V30 5644 C 504.995 0.147805 -2.28723 0
M  V30 5645 C 505.995 0.823325 -1.38123 0
M  V30 5646 O 507.185 0.676011 -1.60548 0
M  V30 5647 C 504.317 1.21853 -3.18378 0
M  V30 5648 H 505.51 -0.573654 -2.94362 0
M  V30 5649 H 503.063 -0.335703 -1.52652 0
M  V30 5650 H 503.798 1.97173 -2.57475 0
M  V30 5651 H 503.583 0.738714 -3.85078 0
M  V30 5652 H 505.073 1.72768 -3.80186 0
M  V30 5653 N 505.51 1.54411 -0.315457 0
M  V30 5654 C 506.44 2.27002 0.547039 0
M  V30 5655 C 507.421 1.27492 1.12605 0
M  V30 5656 O 508.606 1.5629 1.15269 0
M  V30 5657 C 505.736 3.02171 1.71201 0
M  V30 5658 C 504.69 4.0895 1.26268 0
M  V30 5659 C 504.016 4.71915 2.51396 0
M  V30 5660 C 505.316 5.20891 0.383419 0
M  V30 5661 H 507.01 2.99343 -0.0584517 0
M  V30 5662 H 504.556 1.4397 -0.0295527 0
M  V30 5663 H 506.509 3.51681 2.32161 0
M  V30 5664 H 505.233 2.27433 2.34397 0
M  V30 5665 H 503.892 3.60312 0.676062 0
M  V30 5666 H 503.54 3.93801 3.12937 0
M  V30 5667 H 503.24 5.44039 2.22026 0
M  V30 5668 H 504.764 5.24195 3.13133 0
M  V30 5669 H 506.178 5.66206 0.899082 0
M  V30 5670 H 504.575 5.99821 0.182857 0
M  V30 5671 H 505.645 4.81324 -0.587821 0
M  V30 5672 N 506.988 0.0434614 1.5754 0
M  V30 5673 C 508.234 -0.632971 1.92669 0
M  V30 5674 C 508.567 -1.70947 0.921446 0
M  V30 5675 O 507.842 -1.94426 -0.0537202 0
M  V30 5676 C 508.125 -1.23619 3.38216 0
M  V30 5677 C 507.978 -0.168274 4.49485 0
M  V30 5678 C 509.297 -2.15008 3.84005 0
M  V30 5679 H 506.416 -0.228629 0.700641 0
M  V30 5680 H 509.058 0.103651 1.89717 0
M  V30 5681 H 507.208 -1.864 3.40863 0
M  V30 5682 H 508.88 0.463196 4.58969 0
M  V30 5683 H 507.123 0.504581 4.30855 0
M  V30 5684 H 507.794 -0.630218 5.48391 0
M  V30 5685 H 510.27 -1.62198 3.83185 0
M  V30 5686 H 509.146 -2.54161 4.86511 0
M  V30 5687 H 509.407 -3.04707 3.20322 0
M  V30 5688 N 508.466 -1.55915 -0.229846 0
M  V30 5689 C 509.712 -1.78807 -0.956868 0
M  V30 5690 C 510.045 -0.611687 -1.84315 0
M  V30 5691 O 509.32 0.389398 -1.90562 0
M  V30 5692 C 509.603 -3.11718 -1.80288 0
M  V30 5693 C 509.456 -4.3979 -0.943649 0
M  V30 5694 C 510.775 -3.40999 -2.78222 0
M  V30 5695 H 507.894 -0.6505 -0.346437 0
M  V30 5696 H 510.536 -1.88648 -0.226252 0
M  V30 5697 H 508.686 -3.03459 -2.42579 0
M  V30 5698 H 510.358 -4.60059 -0.338121 0
M  V30 5699 H 508.601 -4.33086 -0.248705 0
M  V30 5700 H 509.272 -5.29208 -1.5698 0
M  V30 5701 H 511.748 -3.49332 -2.26067 0
M  V30 5702 H 510.624 -4.35183 -3.34526 0
M  V30 5703 H 510.885 -2.62754 -3.55546 0
M  V30 5704 N 509.944 0.496216 -1.49584 0
M  V30 5705 C 510.892 1.61805 -1.67098 0
M  V30 5706 C 511.886 1.60667 -0.536877 0
M  V30 5707 O 513.092 1.65118 -0.716654 0
M  V30 5708 H 509.467 0.53646 -0.526986 0
M  V30 5709 H 511.438 1.44187 -2.61252 0
M  V30 5710 C 510.187 2.99912 -1.75921 0
M  V30 5711 H 509.51 3.01496 -2.62565 0
M  V30 5712 H 510.95 3.77931 -1.92209 0
M  V30 5713 C 509.409 3.33092 -0.505088 0
M  V30 5714 O 509.939 4.00019 0.367085 0
M  V30 5715 N 508.145 2.88278 -0.366599 0
M  V30 5716 H 507.692 2.33989 -1.07735 0
M  V30 5717 H 507.65 3.10846 0.47142 0
M  V30 5718 N 511.423 1.38739 0.74761 0
M  V30 5719 C 512.67 1.35274 1.50689 0
M  V30 5720 C 512.998 -0.0553359 1.94421 0
M  V30 5721 O 512.253 -1.03365 1.66175 0
M  V30 5722 C 512.552 2.25992 2.7688 0
M  V30 5723 C 512.218 3.73854 2.5208 0
M  V30 5724 C 510.88 4.14145 2.45025 0
M  V30 5725 C 513.232 4.67427 2.30568 0
M  V30 5726 C 510.56 5.4609 2.14483 0
M  V30 5727 C 512.912 5.99635 2.01545 0
M  V30 5728 C 511.576 6.39004 1.92951 0
M  V30 5729 H 510.846 0.495003 0.55141 0
M  V30 5730 H 513.493 1.71145 0.859158 0
M  V30 5731 H 511.798 1.83196 3.46333 0
M  V30 5732 H 513.495 2.20611 3.34861 0
M  V30 5733 H 510.085 3.41913 2.58444 0
M  V30 5734 H 514.269 4.3714 2.34994 0
M  V30 5735 H 509.525 5.75528 2.06342 0
M  V30 5736 H 513.699 6.71678 1.83906 0
M  V30 5737 H 511.326 7.41165 1.6905 0
M  V30 5738 N 512.901 -0.976442 1.23707 0
M  V30 5739 C 514.148 -1.71827 1.07153 0
M  V30 5740 C 514.476 -1.9053 -0.390982 0
M  V30 5741 O 513.731 -1.45779 -1.30564 0
M  V30 5742 C 514.03 -3.11814 1.74662 0
M  V30 5743 C 513.696 -3.12978 3.24585 0
M  V30 5744 C 512.358 -3.13003 3.6549 0
M  V30 5745 C 514.71 -3.07986 4.20469 0
M  V30 5746 C 512.038 -3.05757 5.00729 0
M  V30 5747 C 514.39 -3.02282 5.55705 0
M  V30 5748 C 513.054 -3.00631 5.95968 0
M  V30 5749 H 512.324 -0.628758 0.392102 0
M  V30 5750 H 514.971 -1.14239 1.53693 0
M  V30 5751 H 513.276 -3.72812 1.20492 0
M  V30 5752 H 514.973 -3.67989 1.59328 0
M  V30 5753 H 511.563 -3.13718 2.92026 0
M  V30 5754 H 515.747 -3.07103 3.89874 0
M  V30 5755 H 511.003 -3.02834 5.31132 0
M  V30 5756 H 515.177 -2.97376 6.29714 0
M  V30 5757 H 512.804 -2.94771 7.00724 0
M  V30 5758 N 514.379 -1.04941 -1.1758 0
M  V30 5759 C 515.626 -0.757989 -1.87779 0
M  V30 5760 C 515.954 0.714827 -1.80888 0
M  V30 5761 O 515.209 1.53824 -1.20982 0
M  V30 5762 C 515.508 -1.18062 -3.37337 0
M  V30 5763 C 515.174 -2.65521 -3.6443 0
M  V30 5764 C 513.836 -3.05804 -3.71534 0
M  V30 5765 C 516.188 -3.60822 -3.76108 0
M  V30 5766 C 513.516 -4.40256 -3.87803 0
M  V30 5767 C 515.868 -4.95005 -3.93895 0
M  V30 5768 C 514.532 -5.34945 -3.99237 0
M  V30 5769 H 513.802 -0.277368 -0.68713 0
M  V30 5770 H 516.449 -1.31603 -1.39115 0
M  V30 5771 H 514.754 -0.541525 -3.8804 0
M  V30 5772 H 516.451 -0.932368 -3.9001 0
M  V30 5773 H 513.041 -2.33324 -3.59524 0
M  V30 5774 H 517.225 -3.30841 -3.69943 0
M  V30 5775 H 512.481 -4.70707 -3.90186 0
M  V30 5776 H 516.655 -5.68746 -4.01872 0
M  V30 5777 H 514.282 -6.39135 -4.11596 0
M  V30 5778 N 515.857 1.33968 -0.830081 0
M  V30 5779 C 516.787 2.31911 -0.271911 0
M  V30 5780 C 517.768 1.58571 0.61556 0
M  V30 5781 O 518.953 1.86514 0.540946 0
M  V30 5782 C 516.083 3.42737 0.561146 0
M  V30 5783 C 515.037 4.27383 -0.229789 0
M  V30 5784 C 514.363 5.29742 0.726463 0
M  V30 5785 C 515.663 5.02 -1.44197 0
M  V30 5786 H 517.357 2.78844 -1.09025 0
M  V30 5787 H 514.903 1.34061 -0.52571 0
M  V30 5788 H 516.856 4.10276 0.961867 0
M  V30 5789 H 515.58 2.94471 1.41261 0
M  V30 5790 H 514.239 3.61456 -0.611964 0
M  V30 5791 H 513.887 4.77736 1.57408 0
M  V30 5792 H 513.587 5.87255 0.20142 0
M  V30 5793 H 515.111 6.00149 1.12489 0
M  V30 5794 H 516.525 5.62355 -1.11488 0
M  V30 5795 H 514.922 5.69122 -1.90317 0
M  V30 5796 H 515.992 4.31281 -2.2164 0
M  V30 5797 N 517.335 0.585699 1.46312 0
M  V30 5798 C 518.265 -0.133556 2.33118 0
M  V30 5799 C 519.246 -0.880707 1.45525 0
M  V30 5800 O 520.431 -0.855579 1.74337 0
M  V30 5801 C 517.561 -1.14585 3.27853 0
M  V30 5802 C 516.515 -0.513341 4.2491 0
M  V30 5803 C 515.841 -1.63231 5.09175 0
M  V30 5804 C 517.141 0.551413 5.19381 0
M  V30 5805 H 518.835 0.59121 2.93505 0
M  V30 5806 H 516.381 0.285761 1.41136 0
M  V30 5807 H 518.334 -1.65741 3.87438 0
M  V30 5808 H 517.058 -1.90093 2.65579 0
M  V30 5809 H 515.717 -0.0228349 3.66593 0
M  V30 5810 H 515.365 -2.37713 4.43285 0
M  V30 5811 H 515.065 -1.21473 5.74907 0
M  V30 5812 H 516.589 -2.14658 5.71624 0
M  V30 5813 H 518.003 0.124804 5.73164 0
M  V30 5814 H 516.4 0.889486 5.93471 0
M  V30 5815 H 517.47 1.43655 4.63132 0
M  V30 5816 N 518.813 -1.54241 0.323641 0
M  V30 5817 C 519.761 -2.25813 -0.557804 0
M  V30 5818 C 520.755 -1.27225 -1.11849 0
M  V30 5819 O 521.961 -1.45001 -1.06652 0
M  V30 5820 H 518.336 -0.72532 -0.198532 0
M  V30 5821 H 520.307 -2.98322 0.0681112 0
M  V30 5822 C 519.056 -3.02913 -1.70701 0
M  V30 5823 H 518.379 -3.78593 -1.28482 0
M  V30 5824 H 519.819 -3.56238 -2.29935 0
M  V30 5825 C 518.278 -2.11217 -2.62467 0
M  V30 5826 O 518.808 -1.69508 -3.64184 0
M  V30 5827 N 517.014 -1.76704 -2.30703 0
M  V30 5828 H 516.561 -2.1082 -1.48029 0
M  V30 5829 H 516.519 -1.15631 -2.92364 0
M  V30 5830 N 520.291 -0.0518155 -1.57515 0
M  V30 5831 C 521.54 0.621286 -1.91893 0
M  V30 5832 C 521.853 1.71966 -0.932052 0
M  V30 5833 O 523.059 2.45096 -1.16791 0
M  V30 5834 C 521.515 1.15641 -3.40816 0
M  V30 5835 C 521.123 0.0901146 -4.47909 0
M  V30 5836 C 522.867 1.80472 -3.84227 0
M  V30 5837 C 520.774 0.638154 -5.87947 0
M  V30 5838 H 519.704 0.235835 -0.716169 0
M  V30 5839 H 522.355 -0.120809 -1.83102 0
M  V30 5840 H 520.737 1.95084 -3.44613 0
M  V30 5841 H 521.911 -0.683525 -4.55702 0
M  V30 5842 H 520.226 -0.460774 -4.13843 0
M  V30 5843 H 522.823 2.22471 -4.86221 0
M  V30 5844 H 523.166 2.65669 -3.20508 0
M  V30 5845 H 523.699 1.07683 -3.82948 0
M  V30 5846 H 520.438 -0.176202 -6.55263 0
M  V30 5847 H 519.958 1.37976 -5.83714 0
M  V30 5848 H 521.637 1.12085 -6.37217 0
M  V30 5849 N 521.769 1.56035 0.221574 0
M  V30 5850 C 523.015 1.79312 0.947372 0
M  V30 5851 C 523.348 0.621453 1.83988 0
M  V30 5852 O 522.623 -0.379287 1.90766 0
M  V30 5853 C 522.906 3.1267 1.78633 0
M  V30 5854 C 522.759 4.40284 0.920312 0
M  V30 5855 C 524.078 3.4247 2.7641 0
M  V30 5856 H 521.197 0.652328 0.342982 0
M  V30 5857 H 523.839 1.88765 0.216244 0
M  V30 5858 H 521.989 3.04741 2.40967 0
M  V30 5859 H 523.661 4.60232 0.313718 0
M  V30 5860 H 521.904 4.33212 0.225734 0
M  V30 5861 H 522.575 5.30033 1.54171 0
M  V30 5862 H 525.051 3.50526 2.24211 0
M  V30 5863 H 523.927 4.3695 3.32213 0
M  V30 5864 H 524.188 2.64635 3.54148 0
M  V30 5865 N 523.247 -0.488276 1.49845 0
M  V30 5866 C 524.663 -0.820566 1.3689 0
M  V30 5867 C 524.863 -1.97248 0.411752 0
M  V30 5868 O 523.919 -2.52042 -0.151931 0
M  V30 5869 C 525.232 -1.1488 2.77891 0
M  V30 5870 C 526.78 -1.25626 2.86683 0
M  V30 5871 C 527.255 -1.61772 4.28479 0
M  V30 5872 N 528.746 -1.68797 4.31349 0
M  V30 5873 C 529.481 -1.98235 5.38043 0
M  V30 5874 N 528.977 -2.2581 6.54967 0
M  V30 5875 N 530.77 -1.99593 5.2547 0
M  V30 5876 H 522.921 0.271123 2.10662 0
M  V30 5877 H 525.184 0.058735 0.946179 0
M  V30 5878 H 524.89 -0.375614 3.49688 0
M  V30 5879 H 524.764 -2.08919 3.14058 0
M  V30 5880 H 527.151 -2.02014 2.15114 0
M  V30 5881 H 527.232 -0.296072 2.54081 0
M  V30 5882 H 526.876 -0.859295 5.00578 0
M  V30 5883 H 526.806 -2.58912 4.58554 0
M  V30 5884 H 529.297 -1.49595 3.4703 0
M  V30 5885 H 529.61 -2.47497 7.32096 0
M  V30 5886 H 527.955 -2.23239 6.58171 0
M  V30 5887 H 531.146 -1.77535 4.33127 0
M  V30 5888 H 531.319 -2.222 6.08713 0
M  V30 5889 N 524.725 -1.39134 -0.740242 0
M  V30 5890 C 525.971 -1.36273 -1.50192 0
M  V30 5891 C 526.304 0.0430136 -1.94152 0
M  V30 5892 O 525.579 1.00691 -1.66408 0
M  V30 5893 C 525.862 -2.33041 -2.74525 0
M  V30 5894 C 525.715 -3.82535 -2.36617 0
M  V30 5895 C 527.034 -2.27723 -3.76604 0
M  V30 5896 H 524.153 -0.496323 -0.544823 0
M  V30 5897 H 526.795 -1.70085 -0.846815 0
M  V30 5898 H 524.945 -2.04337 -3.30422 0
M  V30 5899 H 526.617 -4.21967 -1.86391 0
M  V30 5900 H 524.86 -3.99565 -1.68909 0
M  V30 5901 H 525.531 -4.45723 -3.2563 0
M  V30 5902 H 528.007 -2.53091 -3.30279 0
M  V30 5903 H 526.883 -2.97519 -4.61274 0
M  V30 5904 H 527.144 -1.28049 -4.2315 0
M  V30 5905 N 526.204 0.969867 -1.24223 0
M  V30 5906 C 527.134 2.08191 -1.05729 0
M  V30 5907 C 528.115 1.70075 0.0290765 0
M  V30 5908 O 529.3 1.93712 -0.137583 0
M  V30 5909 C 526.43 3.40991 -0.658995 0
M  V30 5910 C 525.384 3.93054 -1.69389 0
M  V30 5911 C 524.71 5.22171 -1.15072 0
M  V30 5912 C 526.01 4.21137 -3.08935 0
M  V30 5913 H 527.704 2.23921 -1.98746 0
M  V30 5914 H 525.25 1.07602 -0.956967 0
M  V30 5915 H 527.203 4.18221 -0.51662 0
M  V30 5916 H 525.927 3.25155 0.30686 0
M  V30 5917 H 524.586 3.17977 -1.82444 0
M  V30 5918 H 524.234 5.02694 -0.175539 0
M  V30 5919 H 523.934 5.57973 -1.84229 0
M  V30 5920 H 525.458 6.02013 -1.02042 0
M  V30 5921 H 526.872 4.8908 -2.99121 0
M  V30 5922 H 525.269 4.68163 -3.75425 0
M  V30 5923 H 526.339 3.27996 -3.57137 0
M  V30 5924 N 527.682 1.05563 1.17022 0
M  V30 5925 C 528.928 0.769074 1.87652 0
M  V30 5926 C 529.261 -0.702326 1.81055 0
M  V30 5927 O 528.536 -1.5139 1.22112 0
M  V30 5928 C 528.819 1.25492 3.37526 0
M  V30 5929 C 528.672 2.78953 3.52853 0
M  V30 5930 C 529.991 0.856919 4.31677 0
M  V30 5931 H 527.11 0.280854 0.681388 0
M  V30 5932 H 529.752 1.31027 1.37593 0
M  V30 5933 H 527.902 0.794516 3.80289 0
M  V30 5934 H 529.574 3.33146 3.19079 0
M  V30 5935 H 527.817 3.18046 2.95007 0
M  V30 5936 H 528.488 3.08011 4.58076 0
M  V30 5937 H 530.964 1.25334 3.96775 0
M  V30 5938 H 529.84 1.22443 5.35069 0
M  V30 5939 H 530.101 -0.238787 4.41455 0
M  V30 5940 N 529.16 -1.33526 0.837174 0
M  V30 5941 C 530.388 -2.02047 0.445494 0
M  V30 5942 C 530.803 -1.62995 -0.952788 0
M  V30 5943 O 530.16 -0.842447 -1.61892 0
M  V30 5944 C 530.211 -3.57221 0.554577 0
M  V30 5945 O 529.932 -3.94863 1.89776 0
M  V30 5946 C 531.433 -4.43012 0.159634 0
M  V30 5947 H 528.653 -0.647221 0.177048 0
M  V30 5948 H 531.197 -1.70492 1.12928 0
M  V30 5949 H 529.352 -3.87315 -0.0812781 0
M  V30 5950 H 529.766 -4.89569 1.88208 0
M  V30 5951 H 531.24 -5.51253 0.28701 0
M  V30 5952 H 531.717 -4.29916 -0.898289 0
M  V30 5953 H 532.323 -4.18274 0.769855 0
M  V30 5954 N 530.638 -0.59345 -1.46 0
M  V30 5955 C 531.585 0.133618 -2.30413 0
M  V30 5956 C 532.555 0.873736 -1.41262 0
M  V30 5957 O 533.74 0.862279 -1.70204 0
M  V30 5958 C 530.88 1.13434 -3.25924 0
M  V30 5959 C 529.993 0.39656 -4.30176 0
M  V30 5960 C 529.128 1.38575 -5.12806 0
M  V30 5961 C 528.167 0.634984 -6.08797 0
M  V30 5962 N 527.304 1.57276 -6.84258 0
M  V30 5963 H 532.144 -0.592252 -2.92055 0
M  V30 5964 H 529.681 -0.303874 -1.43927 0
M  V30 5965 H 531.639 1.72752 -3.79753 0
M  V30 5966 H 530.269 1.82779 -2.66067 0
M  V30 5967 H 529.321 -0.311861 -3.79119 0
M  V30 5968 H 530.633 -0.189869 -4.98438 0
M  V30 5969 H 529.787 2.05141 -5.70966 0
M  V30 5970 H 528.526 2.00611 -4.44529 0
M  V30 5971 H 527.531 -0.0443925 -5.49782 0
M  V30 5972 H 528.756 0.0198678 -6.79097 0
M  V30 5973 H 526.702 2.18103 -6.18682 0
M  V30 5974 H 526.619 1.03941 -7.48821 0
M  V30 5975 H 527.887 2.22844 -7.46968 0
M  V30 5976 N 532.116 1.54067 -0.331816 0
M  V30 5977 C 533.049 2.20886 0.573127 0
M  V30 5978 C 534.027 1.18876 1.10938 0
M  V30 5979 O 535.211 1.47649 1.17184 0
M  V30 5980 C 532.338 2.87706 1.78726 0
M  V30 5981 C 531.384 4.03505 1.38152 0
M  V30 5982 S 532.217 5.33919 0.41123 0
M  V30 5983 C 533.373 6.04236 1.63246 0
M  V30 5984 H 533.606 2.97299 0.00555737 0
M  V30 5985 H 531.139 1.53964 -0.115893 0
M  V30 5986 H 533.097 3.26825 2.48386 0
M  V30 5987 H 531.758 2.1108 2.32603 0
M  V30 5988 H 530.951 4.49152 2.28645 0
M  V30 5989 H 530.553 3.66102 0.764524 0
M  V30 5990 H 532.845 6.26917 2.56869 0
M  V30 5991 H 533.788 6.97546 1.218 0
M  V30 5992 H 534.196 5.34247 1.82318 0
M  V30 5993 N 533.594 0.0601682 1.57485 0
M  V30 5994 C 535.01 -0.296422 1.56823 0
M  V30 5995 C 535.21 -1.70831 1.0686 0
M  V30 5996 O 534.266 -2.4174 0.729245 0
M  V30 5997 C 535.579 -0.116681 3.00474 0
M  V30 5998 C 537.127 -0.187103 3.1244 0
M  V30 5999 C 537.602 -0.035783 4.57986 0
M  V30 6000 N 539.093 -0.0917676 4.63109 0
M  V30 6001 C 539.828 0.00107251 5.734 0
M  V30 6002 N 539.324 0.146773 6.92645 0
M  V30 6003 N 541.117 -0.0551577 5.62073 0
M  V30 6004 H 533.268 0.983055 1.88281 0
M  V30 6005 H 535.531 0.382386 0.867459 0
M  V30 6006 H 535.237 0.85712 3.41096 0
M  V30 6007 H 535.111 -0.873929 3.66936 0
M  V30 6008 H 537.498 -1.15138 2.71712 0
M  V30 6009 H 537.579 0.601052 2.48638 0
M  V30 6010 H 537.223 0.925212 4.99402 0
M  V30 6011 H 537.153 -0.843196 5.19806 0
M  V30 6012 H 539.644 -0.203261 3.77353 0
M  V30 6013 H 539.957 0.210076 7.72514 0
M  V30 6014 H 538.302 0.181979 6.94762 0
M  V30 6015 H 541.493 -0.167605 4.678 0
M  V30 6016 H 541.666 0.020652 6.47997 0
M  V30 6017 N 535.072 -1.5615 -0.213296 0
M  V30 6018 C 535.982 -1.96265 -1.28519 0
M  V30 6019 C 536.998 -0.86765 -1.50824 0
M  V30 6020 O 538.174 -1.17191 -1.63793 0
M  V30 6021 C 535.239 -2.27836 -2.61327 0
M  V30 6022 C 534.3 -3.50949 -2.47252 0
M  V30 6023 C 533.533 -3.81004 -3.73727 0
M  V30 6024 O 533.756 -3.12612 -4.77106 0
M  V30 6025 O 532.69 -4.74477 -3.70344 0
M  V30 6026 H 536.516 -2.87631 -0.974795 0
M  V30 6027 H 534.101 -1.43467 -0.416832 0
M  V30 6028 H 535.983 -2.49299 -3.39747 0
M  V30 6029 H 534.658 -1.39643 -2.9203 0
M  V30 6030 H 533.565 -3.34754 -1.67004 0
M  V30 6031 H 534.898 -4.39551 -2.21486 0
M  V30 6032 N 536.55 0.480323 -1.50102 0
M  V30 6033 C 537.778 1.25657 -1.64371 0
M  V30 6034 C 538.193 1.86011 -0.323316 0
M  V30 6035 O 537.55 1.68803 0.693682 0
M  V30 6036 C 537.601 2.37197 -2.728 0
M  V30 6037 O 537.322 1.7932 -3.9972 0
M  V30 6038 C 538.823 3.2823 -2.9796 0
M  V30 6039 H 536.043 0.380369 -0.552775 0
M  V30 6040 H 538.587 0.574379 -1.96268 0
M  V30 6041 H 536.742 3.01208 -2.43623 0
M  V30 6042 H 537.156 2.52701 -4.59611 0
M  V30 6043 H 538.63 4.02725 -3.77513 0
M  V30 6044 H 539.107 3.86462 -2.08671 0
M  V30 6045 H 539.713 2.69964 -3.28633 0
M  V30 6046 N 538.028 1.39524 0.732853 0
M  V30 6047 C 538.978 1.34905 1.83806 0
M  V30 6048 C 539.962 0.229546 1.59254 0
M  V30 6049 O 541.154 0.467255 1.70721 0
M  V30 6050 C 538.283 1.19699 3.21756 0
M  V30 6051 C 537.369 2.36359 3.5213 0
M  V30 6052 N 537.76 3.61834 3.53426 0
M  V30 6053 C 536.058 2.29363 3.82503 0
M  V30 6054 C 536.759 4.38992 3.81655 0
M  V30 6055 N 535.735 3.68606 3.99538 0
M  V30 6056 H 539.537 2.29882 1.83116 0
M  V30 6057 H 537.051 1.33051 0.931194 0
M  V30 6058 H 539.048 1.14472 4.00876 0
M  V30 6059 H 537.708 0.256739 3.23683 0
M  V30 6060 H 538.719 3.95228 3.34686 0
M  V30 6061 H 535.396 1.43612 3.92023 0
M  V30 6062 H 536.786 5.47763 3.89108 0
M  V30 6063 N 539.506 -0.963266 1.24736 0
M  V30 6064 C 540.416 -2.09246 1.06082 0
M  V30 6065 C 541.432 -1.74 0.000363101 0
M  V30 6066 O 542.608 -2.0041 0.199479 0
M  V30 6067 C 539.673 -3.40115 0.672498 0
M  V30 6068 C 538.734 -3.89282 1.80993 0
M  V30 6069 C 537.967 -5.13905 1.44004 0
M  V30 6070 O 538.19 -5.69434 0.331835 0
M  V30 6071 O 537.124 -5.57566 2.26723 0
M  V30 6072 H 540.95 -2.27881 2.00759 0
M  V30 6073 H 538.535 -1.07649 1.03595 0
M  V30 6074 H 540.417 -4.18797 0.467668 0
M  V30 6075 H 539.092 -3.22771 -0.245102 0
M  V30 6076 H 537.999 -3.11642 2.06955 0
M  V30 6077 H 539.332 -4.1111 2.70646 0
M  V30 6078 N 540.985 -1.06182 -1.16461 0
M  V30 6079 C 541.948 -0.675723 -2.19013 0
M  V30 6080 C 542.948 0.277963 -1.58379 0
M  V30 6081 O 544.138 0.0604962 -1.74095 0
M  V30 6082 C 541.27 0.00591459 -3.40899 0
M  V30 6083 H 542.463 -1.58353 -2.54685 0
M  V30 6084 H 540.016 -0.856908 -1.30716 0
M  V30 6085 H 540.751 0.92652 -3.10783 0
M  V30 6086 H 540.536 -0.67984 -3.86161 0
M  V30 6087 H 542.026 0.26181 -4.16778 0
M  V30 6088 N 542.463 1.3308 -0.844243 0
M  V30 6089 C 543.373 2.32876 -0.283922 0
M  V30 6090 C 544.389 1.63589 0.592846 0
M  V30 6091 O 545.565 1.95205 0.495693 0
M  V30 6092 C 542.63 3.42667 0.527283 0
M  V30 6093 C 541.691 4.27664 -0.374394 0
M  V30 6094 C 540.924 5.32212 0.39819 0
M  V30 6095 O 541.147 5.46635 1.62932 0
M  V30 6096 O 540.081 6.01458 -0.2306 0
M  V30 6097 H 543.907 2.82671 -1.11045 0
M  V30 6098 H 541.492 1.36518 -0.606903 0
M  V30 6099 H 543.374 4.09652 0.988078 0
M  V30 6100 H 542.049 2.95079 1.33078 0
M  V30 6101 H 540.956 3.63526 -0.883144 0
M  V30 6102 H 542.289 4.78749 -1.1428 0
M  V30 6103 N 543.941 0.601185 1.45683 0
M  V30 6104 C 545.166 0.0982245 2.07167 0
M  V30 6105 C 545.591 -1.20546 1.44396 0
M  V30 6106 O 544.949 -1.73247 0.534347 0
M  V30 6107 C 544.997 -0.0346976 3.60583 0
M  V30 6108 O 544.101 -1.08657 3.97828 0
M  V30 6109 H 543.442 0.0711618 0.660176 0
M  V30 6110 H 545.972 0.829376 1.87036 0
M  V30 6111 H 545.982 -0.234969 4.07323 0
M  V30 6112 H 544.657 0.917265 4.05659 0
M  V30 6113 H 543.234 -0.863275 3.6277 0
M  V30 6114 N 545.419 -1.53889 0.339982 0
M  V30 6115 C 546.369 -2.2165 -0.534354 0
M  V30 6116 C 547.353 -1.20266 -1.06887 0
M  V30 6117 O 548.545 -1.45827 -1.00316 0
M  V30 6118 C 545.674 -2.99014 -1.68659 0
M  V30 6119 C 544.76 -4.07751 -1.16618 0
M  V30 6120 N 545.151 -5.04469 -0.366717 0
M  V30 6121 C 543.449 -4.21998 -1.4434 0
M  V30 6122 C 544.15 -5.81638 -0.0847275 0
M  V30 6123 N 543.126 -5.39388 -0.675391 0
M  V30 6124 H 546.928 -2.93781 0.0835562 0
M  V30 6125 H 544.442 -1.61736 0.146665 0
M  V30 6126 H 546.439 -3.46056 -2.32489 0
M  V30 6127 H 545.099 -2.28408 -2.30781 0
M  V30 6128 H 546.11 -5.17899 -0.00811038 0
M  V30 6129 H 542.787 -3.62612 -2.06928 0
M  V30 6130 H 544.177 -6.69563 0.559943 0
M  V30 6131 N 546.897 -0.0685191 -1.57451 0
M  V30 6132 C 547.83 0.935736 -2.08133 0
M  V30 6133 C 548.808 1.29317 -0.985698 0
M  V30 6134 O 549.992 1.40304 -1.25886 0
M  V30 6135 C 547.119 2.2448 -2.53627 0
M  V30 6136 C 546.165 2.03917 -3.74593 0
M  V30 6137 S 546.998 1.30154 -5.19442 0
M  V30 6138 C 548.154 2.62346 -5.68265 0
M  V30 6139 H 548.387 0.504473 -2.92989 0
M  V30 6140 H 545.92 0.144169 -1.53725 0
M  V30 6141 H 547.878 2.99718 -2.80499 0
M  V30 6142 H 546.539 2.64731 -1.69045 0
M  V30 6143 H 545.732 3.00788 -4.04404 0
M  V30 6144 H 545.334 1.36815 -3.48077 0
M  V30 6145 H 547.626 3.58448 -5.7491 0
M  V30 6146 H 548.569 2.3715 -6.67207 0
M  V30 6147 H 548.977 2.69401 -4.96068 0
M  V30 6148 N 548.375 1.56261 0.205012 0
M  V30 6149 C 549.605 1.83874 0.942018 0
M  V30 6150 C 550.013 0.647595 1.77772 0
M  V30 6151 O 549.356 -0.393098 1.79445 0
M  V30 6152 C 549.418 3.05453 1.89575 0
M  V30 6153 C 549.082 4.39772 1.24296 0
M  V30 6154 C 550.079 5.16133 0.624724 0
M  V30 6155 C 547.764 4.86504 1.24978 0
M  V30 6156 C 549.758 6.37396 0.0220117 0
M  V30 6157 C 547.445 6.07705 0.643232 0
M  V30 6158 C 548.443 6.82993 0.0304164 0
M  V30 6159 O 548.131 8.019 -0.566654 0
M  V30 6160 H 547.863 0.614896 0.280854 0
M  V30 6161 H 550.417 2.04215 0.220285 0
M  V30 6162 H 548.647 2.80972 2.65691 0
M  V30 6163 H 550.336 3.19797 2.4997 0
M  V30 6164 H 551.102 4.81127 0.611666 0
M  V30 6165 H 546.981 4.27865 1.71616 0
M  V30 6166 H 550.525 6.96102 -0.456926 0
M  V30 6167 H 546.422 6.42181 0.653759 0
M  V30 6168 H 547.19 8.17192 -0.462588 0
M  V30 6169 N 549.853 -0.472356 1.50355 0
M  V30 6170 C 550.783 -1.57859 1.72055 0
M  V30 6171 C 551.764 -1.60283 0.569505 0
M  V30 6172 O 552.949 -1.7657 0.808503 0
M  V30 6173 C 550.079 -2.96191 1.81351 0
M  V30 6174 C 549.033 -3.08633 2.96529 0
M  V30 6175 C 548.359 -4.486 2.90968 0
M  V30 6176 C 549.659 -2.85969 4.37057 0
M  V30 6177 H 551.353 -1.39953 2.64676 0
M  V30 6178 H 548.899 -0.671846 1.27367 0
M  V30 6179 H 550.852 -3.73507 1.95117 0
M  V30 6180 H 549.576 -3.15251 0.853502 0
M  V30 6181 H 548.235 -2.33749 2.82413 0
M  V30 6182 H 547.883 -4.64577 1.92815 0
M  V30 6183 H 547.583 -4.57861 3.68289 0
M  V30 6184 H 549.107 -5.27938 3.0678 0
M  V30 6185 H 550.521 -3.53036 4.51706 0
M  V30 6186 H 548.918 -3.06677 5.15819 0
M  V30 6187 H 549.988 -1.81838 4.49514 0
M  V30 6188 N 551.331 -1.39911 -0.725443 0
M  V30 6189 C 552.278 -1.39393 -1.83952 0
M  V30 6190 C 553.248 -0.252249 -1.64173 0
M  V30 6191 O 554.433 -0.44882 -1.85446 0
M  V30 6192 C 551.573 -1.25262 -3.21564 0
M  V30 6193 C 550.686 -2.49054 -3.52982 0
M  V30 6194 C 549.821 -2.27439 -4.80047 0
M  V30 6195 C 548.86 -3.46857 -5.04338 0
M  V30 6196 N 547.997 -3.24499 -6.22611 0
M  V30 6197 H 552.837 -2.34622 -1.83729 0
M  V30 6198 H 550.374 -1.16537 -0.897636 0
M  V30 6199 H 552.332 -1.15077 -4.01015 0
M  V30 6200 H 550.962 -0.33657 -3.21041 0
M  V30 6201 H 550.014 -2.69805 -2.6816 0
M  V30 6202 H 551.326 -3.37973 -3.66846 0
M  V30 6203 H 550.48 -2.14551 -5.67497 0
M  V30 6204 H 549.219 -1.35929 -4.68374 0
M  V30 6205 H 548.224 -3.60232 -4.15346 0
M  V30 6206 H 549.449 -4.3928 -5.17889 0
M  V30 6207 H 547.395 -2.35663 -6.12208 0
M  V30 6208 H 547.312 -4.06978 -6.37106 0
M  V30 6209 H 548.58 -3.15325 -7.12875 0
M  V30 6210 N 552.809 0.956637 -1.25245 0
M  V30 6211 C 553.772 2.03457 -1.05537 0
M  V30 6212 C 554.772 1.60798 -0.00886317 0
M  V30 6213 O 555.962 1.72384 -0.250865 0
M  V30 6214 C 553.094 3.35543 -0.601965 0
M  V30 6215 H 554.287 2.22372 -2.01223 0
M  V30 6216 H 551.84 1.13344 -1.07623 0
M  V30 6217 H 552.575 3.22323 0.357584 0
M  V30 6218 H 552.36 3.67854 -1.35743 0
M  V30 6219 H 553.85 4.14769 -0.485454 0
M  V30 6220 N 554.287 1.06798 1.15896 0
M  V30 6221 C 555.533 0.788934 1.86825 0
M  V30 6222 C 555.866 -0.683084 1.8179 0
M  V30 6223 O 555.141 -1.50086 1.23711 0
M  V30 6224 C 555.424 1.29065 3.36176 0
M  V30 6225 C 555.277 2.8268 3.49874 0
M  V30 6226 C 556.596 0.902655 4.30744 0
M  V30 6227 H 553.715 0.288066 0.678371 0
M  V30 6228 H 556.357 1.32479 1.36195 0
M  V30 6229 H 554.507 0.834806 3.79425 0
M  V30 6230 H 556.179 3.36511 3.15528 0
M  V30 6231 H 554.422 3.21157 2.91617 0
M  V30 6232 H 555.093 3.12852 4.54783 0
M  V30 6233 H 557.569 1.29535 3.95424 0
M  V30 6234 H 556.445 1.28111 5.3374 0
M  V30 6235 H 556.706 -0.191951 4.41683 0
M  V30 6236 N 555.766 -1.3263 0.851289 0
M  V30 6237 C 556.713 -2.28952 0.291469 0
M  V30 6238 C 557.683 -1.54897 -0.599676 0
M  V30 6239 O 558.868 -1.83137 -0.535305 0
M  V30 6240 C 556.008 -3.41206 -0.516992 0
M  V30 6241 C 555.121 -4.30148 0.399566 0
M  V30 6242 C 554.256 -5.29527 -0.4212 0
M  V30 6243 C 553.295 -6.10112 0.492969 0
M  V30 6244 N 552.432 -7.01499 -0.290414 0
M  V30 6245 H 557.272 -2.76228 1.11813 0
M  V30 6246 H 554.809 -1.35907 0.562826 0
M  V30 6247 H 556.767 -4.05005 -1.00132 0
M  V30 6248 H 555.397 -2.9509 -1.30851 0
M  V30 6249 H 554.449 -3.66959 1.00227 0
M  V30 6250 H 555.761 -4.8649 1.1013 0
M  V30 6251 H 554.915 -5.98914 -0.968832 0
M  V30 6252 H 553.654 -4.73794 -1.15632 0
M  V30 6253 H 552.659 -5.39632 1.05251 0
M  V30 6254 H 553.884 -6.6793 1.22664 0
M  V30 6255 H 551.83 -6.48199 -1.00868 0
M  V30 6256 H 551.747 -7.55178 0.352354 0
M  V30 6257 H 553.015 -7.75176 -0.819882 0
M  V30 6258 N 557.244 -0.608902 -1.45362 0
M  V30 6259 C 558.207 0.0992563 -2.28985 0
M  V30 6260 C 559.207 0.793841 -1.39838 0
M  V30 6261 O 560.397 0.641804 -1.61946 0
M  V30 6262 C 557.529 1.15073 -3.20891 0
M  V30 6263 H 558.722 -0.635964 -2.93079 0
M  V30 6264 H 556.275 -0.368007 -1.51906 0
M  V30 6265 H 557.01 1.91667 -2.616 0
M  V30 6266 H 556.795 0.656867 -3.86559 0
M  V30 6267 H 558.285 1.64665 -3.83765 0
M  V30 6268 N 558.722 1.53707 -0.348139 0
M  V30 6269 C 559.95 2.05406 0.248224 0
M  V30 6270 C 560.365 1.22282 1.43849 0
M  V30 6271 O 559.722 0.259244 1.80649 0
M  V30 6272 C 559.773 3.55446 0.658793 0
M  V30 6273 O 559.494 4.35417 -0.484149 0
M  V30 6274 C 560.995 4.23335 1.31539 0
M  V30 6275 H 558.215 0.669344 0.0471075 0
M  V30 6276 H 560.759 1.98257 -0.501456 0
M  V30 6277 H 558.914 3.62803 1.35841 0
M  V30 6278 H 559.328 5.24268 -0.155949 0
M  V30 6279 H 560.802 5.29692 1.55338 0
M  V30 6280 H 561.279 3.75967 2.27036 0
M  V30 6281 H 561.885 4.20184 0.657683 0
M  V30 6282 N 560.2 0.0768682 1.57412 0
M  V30 6283 C 561.133 -0.924685 2.08626 0
M  V30 6284 C 562.111 -1.28792 0.992542 0
M  V30 6285 O 563.295 -1.39634 1.26628 0
M  V30 6286 C 560.422 -2.23131 2.54814 0
M  V30 6287 C 559.468 -2.01928 3.75669 0
M  V30 6288 S 560.301 -1.27397 5.20125 0
M  V30 6289 C 561.457 -2.59329 5.69648 0
M  V30 6290 H 561.69 -0.488928 2.93252 0
M  V30 6291 H 559.223 -0.136014 1.538 0
M  V30 6292 H 561.181 -2.98226 2.82084 0
M  V30 6293 H 559.842 -2.63831 1.70447 0
M  V30 6294 H 559.035 -2.98639 4.05993 0
M  V30 6295 H 558.637 -1.34967 3.48798 0
M  V30 6296 H 560.929 -3.55394 5.76803 0
M  V30 6297 H 561.872 -2.33608 6.68456 0
M  V30 6298 H 562.28 -2.66767 4.9749 0
M  V30 6299 N 561.678 -1.56367 -0.196722 0
M  V30 6300 C 562.927 -1.79724 -0.915539 0
M  V30 6301 C 563.24 -0.649804 -1.84491 0
M  V30 6302 O 564.446 -0.767631 -2.60422 0
M  V30 6303 C 562.902 -3.18369 -1.67836 0
M  V30 6304 C 562.51 -4.4091 -0.793897 0
M  V30 6305 C 564.254 -3.51037 -2.38691 0
M  V30 6306 C 562.161 -5.70577 -1.55549 0
M  V30 6307 H 561.091 -0.67013 -0.345604 0
M  V30 6308 H 563.742 -1.82721 -0.168856 0
M  V30 6309 H 562.124 -3.09617 -2.46887 0
M  V30 6310 H 563.298 -4.60781 -0.042163 0
M  V30 6311 H 561.613 -4.15937 -0.19626 0
M  V30 6312 H 564.21 -4.4515 -2.96219 0
M  V30 6313 H 564.553 -2.74704 -3.12799 0
M  V30 6314 H 565.086 -3.61229 -1.66608 0
M  V30 6315 H 561.825 -6.49871 -0.857226 0
M  V30 6316 H 561.345 -5.54726 -2.2812 0
M  V30 6317 H 563.024 -6.11637 -2.10971 0
M  V30 6318 N 563.156 0.464375 -1.50603 0
M  V30 6319 C 564.086 1.56944 -1.72889 0
M  V30 6320 C 565.067 1.59979 -0.577997 0
M  V30 6321 O 566.252 1.76138 -0.817855 0
M  V30 6322 C 563.382 2.95225 -1.8292 0
M  V30 6323 C 562.336 3.07056 -2.98162 0
M  V30 6324 C 561.662 4.47051 -2.93343 0
M  V30 6325 C 562.962 2.83648 -4.38567 0
M  V30 6326 H 564.656 1.38547 -2.65415 0
M  V30 6327 H 562.202 0.665082 -1.27721 0
M  V30 6328 H 564.155 3.72467 -1.97095 0
M  V30 6329 H 562.879 3.14793 -0.870209 0
M  V30 6330 H 561.538 2.32248 -2.83648 0
M  V30 6331 H 561.186 4.63547 -1.95276 0
M  V30 6332 H 560.886 4.55902 -3.70712 0
M  V30 6333 H 562.41 5.26304 -3.09575 0
M  V30 6334 H 563.824 3.50636 -4.53572 0
M  V30 6335 H 562.221 3.03937 -5.17438 0
M  V30 6336 H 563.291 1.79451 -4.50472 0
M  V30 6337 N 564.634 1.40294 0.718013 0
M  V30 6338 C 565.88 1.38645 1.48005 0
M  V30 6339 C 566.213 -0.0121202 1.94196 0
M  V30 6340 O 565.488 -0.980309 1.67989 0
M  V30 6341 C 565.771 2.37379 2.70782 0
M  V30 6342 C 565.624 3.8625 2.30501 0
M  V30 6343 C 566.943 2.33685 3.72933 0
M  V30 6344 H 564.062 0.504928 0.536858 0
M  V30 6345 H 566.704 1.71411 0.819649 0
M  V30 6346 H 564.854 2.09568 3.27129 0
M  V30 6347 H 566.526 4.24879 1.79655 0
M  V30 6348 H 564.769 4.02202 1.6253 0
M  V30 6349 H 565.44 4.50847 3.18498 0
M  V30 6350 H 567.916 2.58314 3.2621 0
M  V30 6351 H 566.792 3.0482 4.56482 0
M  V30 6352 H 567.053 1.34765 4.21059 0
M  V30 6353 N 566.112 -0.949982 1.2575 0
M  V30 6354 C 567.523 -1.50989 1.09815 0
M  V30 6355 C 567.874 -1.93497 -0.324556 0
M  V30 6356 O 566.999 -1.79068 -1.21506 0
M  V30 6357 C 567.594 -2.74394 1.98729 0
M  V30 6358 C 566.153 -3.26682 1.86965 0
M  V30 6359 C 565.3 -1.99498 1.92603 0
M  V30 6360 H 568.251 -0.766387 1.38968 0
M  V30 6361 H 568.272 -3.48383 1.53001 0
M  V30 6362 H 567.784 -2.43425 3.02268 0
M  V30 6363 H 565.885 -3.62461 0.863279 0
M  V30 6364 H 565.998 -3.94383 2.72027 0
M  V30 6365 H 564.362 -2.15005 1.36546 0
M  V30 6366 H 565.145 -1.70871 2.97755 0
M  V30 6367 N 567.59 -1.07411 -1.15328 0
M  V30 6368 C 568.52 -0.716472 -2.22236 0
M  V30 6369 C 569.501 0.296373 -1.67498 0
M  V30 6370 O 570.686 0.168989 -1.93463 0
M  V30 6371 C 567.816 -0.114142 -3.47112 0
M  V30 6372 C 566.77 -1.05421 -4.14814 0
M  V30 6373 C 566.096 -0.314604 -5.33774 0
M  V30 6374 C 567.396 -2.38808 -4.64508 0
M  V30 6375 H 569.09 -1.61029 -2.52408 0
M  V30 6376 H 566.636 -0.775702 -1.21321 0
M  V30 6377 H 568.589 0.148001 -4.2114 0
M  V30 6378 H 567.313 0.814755 -3.16274 0
M  V30 6379 H 565.972 -1.30128 -3.42728 0
M  V30 6380 H 565.62 0.617772 -4.99192 0
M  V30 6381 H 565.32 -0.941209 -5.80013 0
M  V30 6382 H 566.844 -0.0602747 -6.1057 0
M  V30 6383 H 568.258 -2.18424 -5.3006 0
M  V30 6384 H 566.655 -2.97069 -5.21412 0
M  V30 6385 H 567.725 -3.01067 -3.80114 0
M  V30 6386 N 569.068 1.32177 -0.85831 0
M  V30 6387 C 569.998 2.31282 -0.321041 0
M  V30 6388 C 570.979 1.59841 0.581786 0
M  V30 6389 O 572.164 1.87619 0.501262 0
M  V30 6390 C 569.294 3.4385 0.48832 0
M  V30 6391 C 568.248 4.26799 -0.320391 0
M  V30 6392 C 567.574 5.31164 0.613934 0
M  V30 6393 C 568.874 4.98829 -1.54813 0
M  V30 6394 H 570.568 2.76469 -1.14915 0
M  V30 6395 H 568.114 1.32916 -0.554028 0
M  V30 6396 H 570.067 4.12224 0.874626 0
M  V30 6397 H 568.791 2.97401 1.34983 0
M  V30 6398 H 567.45 3.60077 -0.688497 0
M  V30 6399 H 567.098 4.80967 1.47239 0
M  V30 6400 H 566.798 5.8755 0.0768097 0
M  V30 6401 H 568.322 6.024 0.997336 0
M  V30 6402 H 569.736 5.59864 -1.23392 0
M  V30 6403 H 568.133 5.64957 -2.02346 0
M  V30 6404 H 569.203 4.26483 -2.30739 0
M  V30 6405 N 570.547 0.616602 1.45037 0
M  V30 6406 C 571.795 0.115103 2.01772 0
M  V30 6407 C 572.116 -1.2622 1.48639 0
M  V30 6408 O 571.386 -1.83563 0.684199 0
M  V30 6409 H 569.966 0.0395607 0.745952 0
M  V30 6410 H 572.628 0.800032 1.77723 0
M  V30 6411 H 571.724 0.0717274 3.12018 0
M  V30 6412 N 572.025 -1.5352 0.356285 0
M  V30 6413 C 573.274 -2.00298 -0.237373 0
M  V30 6414 C 573.587 -1.24784 -1.50627 0
M  V30 6415 O 574.793 -1.62103 -2.17795 0
M  V30 6416 C 573.249 -3.56771 -0.473545 0
M  V30 6417 C 572.857 -4.41154 0.780183 0
M  V30 6418 C 574.601 -4.1193 -1.02537 0
M  V30 6419 C 572.508 -5.89161 0.514108 0
M  V30 6420 H 571.438 -0.748307 -0.092478 0
M  V30 6421 H 574.089 -1.77283 0.473588 0
M  V30 6422 H 572.471 -3.75902 -1.24553 0
M  V30 6423 H 573.645 -4.33797 1.55425 0
M  V30 6424 H 571.96 -3.97052 1.25455 0
M  V30 6425 H 574.557 -5.20133 -1.2396 0
M  V30 6426 H 574.9 -3.65943 -1.98473 0
M  V30 6427 H 575.433 -3.96561 -0.313775 0
M  V30 6428 H 572.172 -6.39408 1.44355 0
M  V30 6429 H 571.692 -5.9939 -0.221632 0
M  V30 6430 H 573.371 -6.46857 0.136122 0
M  V30 6431 N 573.503 -0.0852151 -1.57369 0
M  V30 6432 C 574.435 0.907099 -2.10486 0
M  V30 6433 C 575.448 1.25259 -1.03991 0
M  V30 6434 O 576.637 1.20743 -1.31467 0
M  V30 6435 C 573.737 2.21908 -2.56145 0
M  V30 6436 C 572.91 2.05042 -3.86363 0
M  V30 6437 C 571.969 3.19664 -4.17973 0
M  V30 6438 O 570.995 2.94062 -4.87356 0
M  V30 6439 N 572.197 4.45151 -3.72587 0
M  V30 6440 H 574.962 0.453505 -2.96249 0
M  V30 6441 H 572.523 0.100157 -1.6159 0
M  V30 6442 H 574.515 2.97519 -2.74343 0
M  V30 6443 H 573.085 2.58723 -1.75446 0
M  V30 6444 H 572.305 1.13819 -3.77411 0
M  V30 6445 H 573.593 1.91039 -4.71574 0
M  V30 6446 H 572.991 4.68834 -3.16561 0
M  V30 6447 H 571.548 5.17744 -3.9596 0
M  V30 6448 N 574.981 1.5647 0.188427 0
M  V30 6449 C 576.228 1.81013 0.907779 0
M  V30 6450 C 576.556 0.65953 1.82977 0
M  V30 6451 O 575.811 -0.354308 1.92466 0
M  V30 6452 C 576.11 3.11596 1.7505 0
M  V30 6453 C 575.776 4.40145 0.978922 0
M  V30 6454 C 574.438 4.75066 0.765912 0
M  V30 6455 C 576.79 5.19369 0.436498 0
M  V30 6456 C 574.118 5.867 -0.00089868 0
M  V30 6457 C 576.47 6.31805 -0.317136 0
M  V30 6458 C 575.134 6.65303 -0.541103 0
M  V30 6459 H 574.404 0.662373 0.33218 0
M  V30 6460 H 577.051 1.9071 0.173732 0
M  V30 6461 H 575.356 2.97165 2.55343 0
M  V30 6462 H 577.053 3.27793 2.30983 0
M  V30 6463 H 573.643 4.12745 1.15497 0
M  V30 6464 H 577.827 4.92799 0.588449 0
M  V30 6465 H 573.083 6.11122 -0.184329 0
M  V30 6466 H 577.257 6.92406 -0.744788 0
M  V30 6467 H 574.884 7.51646 -1.13718 0
M  V30 6468 N 576.459 -0.456382 1.50847 0
M  V30 6469 C 577.705 -1.20914 1.62811 0
M  V30 6470 C 578.038 -1.91301 0.334304 0
M  V30 6471 O 577.313 -1.82775 -0.665098 0
M  V30 6472 C 577.596 -2.24122 2.81853 0
M  V30 6473 C 577.449 -1.57944 4.21158 0
M  V30 6474 C 578.768 -3.25295 2.96431 0
M  V30 6475 H 575.887 -0.438233 0.592554 0
M  V30 6476 H 578.529 -0.50091 1.83278 0
M  V30 6477 H 576.679 -2.84524 2.64534 0
M  V30 6478 H 578.351 -1.01025 4.50102 0
M  V30 6479 H 576.594 -0.882185 4.24735 0
M  V30 6480 H 577.265 -2.33014 5.00408 0
M  V30 6481 H 579.741 -2.7493 3.12335 0
M  V30 6482 H 578.617 -3.94822 3.81322 0
M  V30 6483 H 578.878 -3.90286 2.07676 0
M  V30 6484 N 577.937 -1.40673 -0.710563 0
M  V30 6485 C 579.183 -1.39428 -1.47267 0
M  V30 6486 C 579.516 0.00182129 -1.942 0
M  V30 6487 O 578.791 0.971387 -1.68506 0
M  V30 6488 C 579.074 -2.38812 -2.6952 0
M  V30 6489 C 578.927 -3.87467 -2.28449 0
M  V30 6490 C 580.246 -2.3566 -3.71689 0
M  V30 6491 H 577.365 -0.507768 -0.534173 0
M  V30 6492 H 580.007 -1.71843 -0.810547 0
M  V30 6493 H 578.157 -2.113 -3.26013 0
M  V30 6494 H 579.829 -4.25825 -1.77399 0
M  V30 6495 H 578.072 -4.03058 -1.60395 0
M  V30 6496 H 578.743 -4.5253 -3.16103 0
M  V30 6497 H 581.219 -2.6004 -3.24836 0
M  V30 6498 H 580.095 -3.07237 -4.54859 0
M  V30 6499 H 580.356 -1.36996 -4.20339 0
M  V30 6500 N 579.415 0.9433 -1.26252 0
M  V30 6501 C 580.662 1.68925 -1.11672 0
M  V30 6502 C 580.99 1.91499 0.340329 0
M  V30 6503 O 580.245 1.49189 1.26653 0
M  V30 6504 C 580.544 3.07073 -1.82868 0
M  V30 6505 C 580.21 3.04262 -3.32769 0
M  V30 6506 C 578.872 3.03203 -3.7366 0
M  V30 6507 C 581.224 2.96729 -4.28487 0
M  V30 6508 C 578.552 2.92373 -5.0866 0
M  V30 6509 C 580.904 2.87442 -5.63525 0
M  V30 6510 C 579.568 2.84724 -6.03729 0
M  V30 6511 H 578.838 0.618141 -0.408635 0
M  V30 6512 H 581.485 1.10124 -1.56668 0
M  V30 6513 H 579.79 3.69486 -1.30335 0
M  V30 6514 H 581.487 3.63635 -1.69029 0
M  V30 6515 H 578.077 3.05865 -3.00241 0
M  V30 6516 H 582.261 2.96658 -3.97879 0
M  V30 6517 H 577.517 2.88645 -5.38975 0
M  V30 6518 H 581.691 2.80576 -6.37377 0
M  V30 6519 H 579.318 2.76089 -7.08293 0
M  V30 6520 N 580.893 1.08022 1.14757 0
M  V30 6521 C 582.304 0.829144 1.67279 0
M  V30 6522 C 582.655 -0.644721 1.85305 0
M  V30 6523 O 581.78 -1.49838 1.56133 0
M  V30 6524 C 582.375 1.49855 3.03857 0
M  V30 6525 C 580.934 1.29482 3.53428 0
M  V30 6526 C 580.081 1.56386 2.28995 0
M  V30 6527 H 583.032 1.24134 0.988762 0
M  V30 6528 H 583.053 0.923572 3.69121 0
M  V30 6529 H 582.565 2.57123 2.90705 0
M  V30 6530 H 580.666 0.242669 3.71809 0
M  V30 6531 H 580.779 2.01974 4.34446 0
M  V30 6532 H 579.143 0.985217 2.34874 0
M  V30 6533 H 579.926 2.64851 2.18423 0
M  V30 6534 N 582.371 -1.3172 0.865308 0
M  V30 6535 C 583.617 -1.97559 0.483944 0
M  V30 6536 C 583.972 -1.67181 -0.95227 0
M  V30 6537 O 583.265 -0.955392 -1.66081 0
M  V30 6538 C 583.459 -3.5102 0.672283 0
M  V30 6539 C 583.288 -3.96312 2.12525 0
M  V30 6540 C 582.058 -4.22877 2.76591 0
M  V30 6541 C 584.256 -4.10596 3.09702 0
M  V30 6542 N 582.238 -4.5449 4.12689 0
M  V30 6543 C 583.609 -4.45867 4.30816 0
M  V30 6544 C 585.664 -3.92961 3.05755 0
M  V30 6545 C 584.367 -4.65344 5.48495 0
M  V30 6546 C 586.393 -4.13628 4.22688 0
M  V30 6547 C 585.755 -4.49227 5.42563 0
M  V30 6548 H 581.854 -0.74862 0.226035 0
M  V30 6549 H 584.438 -1.59336 1.11893 0
M  V30 6550 H 582.609 -3.88342 0.0669224 0
M  V30 6551 H 584.341 -4.03865 0.259765 0
M  V30 6552 H 581.096 -4.15343 2.27567 0
M  V30 6553 H 581.52 -4.74464 4.82921 0
M  V30 6554 H 586.162 -3.64531 2.14188 0
M  V30 6555 H 583.88 -4.92624 6.40584 0
M  V30 6556 H 587.466 -4.01474 4.21082 0
M  V30 6557 H 586.346 -4.64895 6.31539 0
M  V30 6558 N 583.85 -0.624285 -1.44708 0
M  V30 6559 C 585.266 -0.289322 -1.56956 0
M  V30 6560 C 585.466 1.20773 -1.61295 0
M  V30 6561 O 584.522 1.9915 -1.55227 0
M  V30 6562 C 585.835 -0.975215 -2.84447 0
M  V30 6563 C 587.383 -0.952709 -2.98148 0
M  V30 6564 C 587.858 -1.61893 -4.28433 0
M  V30 6565 N 589.349 -1.5852 -4.35231 0
M  V30 6566 C 590.084 -2.06969 -5.34744 0
M  V30 6567 N 589.58 -2.63579 -6.40701 0
M  V30 6568 N 591.373 -1.97638 -5.26209 0
M  V30 6569 H 583.524 -1.59612 -1.40135 0
M  V30 6570 H 585.787 -0.669592 -0.671081 0
M  V30 6571 H 585.493 -2.02999 -2.87201 0
M  V30 6572 H 585.367 -0.508749 -3.73753 0
M  V30 6573 H 587.754 0.093568 -2.94952 0
M  V30 6574 H 587.835 -1.4576 -2.10209 0
M  V30 6575 H 587.479 -2.66463 -4.32389 0
M  V30 6576 H 587.409 -1.08893 -5.15218 0
M  V30 6577 H 589.899 -1.17183 -3.59272 0
M  V30 6578 H 590.213 -2.98298 -7.12908 0
M  V30 6579 H 588.558 -2.67626 -6.41406 0
M  V30 6580 H 591.749 -1.5314 -4.42341 0
M  V30 6581 H 591.922 -2.35708 -6.03611 0
M  V30 6582 N 585.328 1.53329 -0.364422 0
M  V30 6583 C 586.739 1.86345 0.115039 0
M  V30 6584 C 587.09 1.28505 1.4826 0
M  V30 6585 O 586.215 0.606639 2.07723 0
M  V30 6586 C 586.81 3.38114 0.215522 0
M  V30 6587 C 585.369 3.70932 0.639237 0
M  V30 6588 C 584.516 2.76471 -0.214261 0
M  V30 6589 H 587.467 1.47593 -0.583258 0
M  V30 6590 H 587.488 3.66031 1.0393 0
M  V30 6591 H 587 3.80182 -0.779948 0
M  V30 6592 H 585.101 3.3442 1.64298 0
M  V30 6593 H 585.214 4.77302 0.41465 0
M  V30 6594 H 583.578 2.52724 0.316678 0
M  V30 6595 H 584.361 3.21373 -1.20725 0
M  V30 6596 N 586.806 0.0935595 1.57322 0
M  V30 6597 C 588.031 -0.582324 1.99057 0
M  V30 6598 C 588.456 -1.61025 0.972242 0
M  V30 6599 O 587.814 -1.81202 -0.0594622 0
M  V30 6600 C 587.862 -1.20799 3.39765 0
M  V30 6601 O 586.966 -2.32382 3.40694 0
M  V30 6602 H 586.307 -0.147884 0.647323 0
M  V30 6603 H 588.837 0.174516 2.03854 0
M  V30 6604 H 588.847 -1.54966 3.77425 0
M  V30 6605 H 587.522 -0.454914 4.13405 0
M  V30 6606 H 586.099 -1.99845 3.14827 0
M  V30 6607 N 588.284 -1.56567 -0.180126 0
M  V30 6608 C 589.232 -1.96632 -1.24251 0
M  V30 6609 C 590.226 -0.853818 -1.46309 0
M  V30 6610 O 591.432 -1.0389 -1.46993 0
M  V30 6611 H 587.807 -0.625476 -0.417473 0
M  V30 6612 H 589.778 -2.85201 -0.877679 0
M  V30 6613 C 588.527 -2.33486 -2.57642 0
M  V30 6614 H 587.85 -3.18626 -2.4149 0
M  V30 6615 H 589.29 -2.65371 -3.30688 0
M  V30 6616 C 587.749 -1.17499 -3.15746 0
M  V30 6617 O 588.279 -0.457956 -3.99081 0
M  V30 6618 N 586.485 -0.94786 -2.74707 0
M  V30 6619 H 586.032 -1.53269 -2.07042 0
M  V30 6620 H 585.99 -0.173626 -3.1392 0
M  V30 6621 N 589.762 0.448376 -1.51087 0
M  V30 6622 C 590.709 1.54341 -1.71603 0
M  V30 6623 C 591.679 1.56463 -0.557536 0
M  V30 6624 O 592.864 1.73644 -0.79072 0
M  V30 6625 C 590.004 2.92148 -1.83695 0
M  V30 6626 C 589.117 2.99639 -3.11192 0
M  V30 6627 C 588.252 4.285 -3.13944 0
M  V30 6628 C 587.291 4.29819 -4.35801 0
M  V30 6629 N 586.428 5.50186 -4.36164 0
M  V30 6630 H 591.268 1.36151 -2.65079 0
M  V30 6631 H 588.805 0.661585 -1.31383 0
M  V30 6632 H 590.763 3.72093 -1.88687 0
M  V30 6633 H 589.393 3.0892 -0.936374 0
M  V30 6634 H 588.445 2.12425 -3.15562 0
M  V30 6635 H 589.757 2.96474 -4.01129 0
M  V30 6636 H 588.911 5.16811 -3.17791 0
M  V30 6637 H 587.65 4.34307 -2.21876 0
M  V30 6638 H 586.655 3.39902 -4.32142 0
M  V30 6639 H 587.88 4.25685 -5.29121 0
M  V30 6640 H 585.826 5.56735 -3.46961 0
M  V30 6641 H 585.743 5.48856 -5.19897 0
M  V30 6642 H 587.011 6.40559 -4.44189 0
M  V30 6643 N 591.24 1.41047 0.703093 0
M  V30 6644 C 592.173 1.36713 1.82715 0
M  V30 6645 C 593.151 0.235533 1.60885 0
M  V30 6646 O 594.335 0.421227 1.83733 0
M  V30 6647 C 591.462 1.13069 3.1927 0
M  V30 6648 C 590.508 2.28846 3.59905 0
M  V30 6649 S 591.341 3.91297 3.65578 0
M  V30 6650 C 592.497 3.69941 5.04871 0
M  V30 6651 H 592.73 2.31838 1.86114 0
M  V30 6652 H 590.263 1.27481 0.871083 0
M  V30 6653 H 592.221 1.00113 3.98105 0
M  V30 6654 H 590.882 0.195763 3.13489 0
M  V30 6655 H 590.075 2.07977 4.59088 0
M  V30 6656 H 589.677 2.3817 2.88359 0
M  V30 6657 H 591.969 3.29181 5.92154 0
M  V30 6658 H 592.912 4.68699 5.30779 0
M  V30 6659 H 593.32 3.03369 4.76054 0
M  V30 6660 N 592.718 -0.936591 1.26751 0
M  V30 6661 C 593.648 -2.05315 1.11212 0
M  V30 6662 C 594.629 -1.70092 0.0160262 0
M  V30 6663 O 595.814 -1.93279 0.188894 0
M  V30 6664 C 592.944 -3.39123 0.749171 0
M  V30 6665 C 591.898 -3.88425 1.79751 0
M  V30 6666 C 591.224 -5.18936 1.28876 0
M  V30 6667 C 592.524 -4.12798 3.19992 0
M  V30 6668 H 594.218 -2.18573 2.04613 0
M  V30 6669 H 591.764 -1.05027 0.985159 0
M  V30 6670 H 593.717 -4.16704 0.627323 0
M  V30 6671 H 592.441 -3.25855 -0.220543 0
M  V30 6672 H 591.1 -3.13028 1.90811 0
M  V30 6673 H 590.748 -5.02051 0.308757 0
M  V30 6674 H 590.448 -5.52892 1.98958 0
M  V30 6675 H 591.972 -5.99096 1.17967 0
M  V30 6676 H 593.386 -4.80977 3.11983 0
M  V30 6677 H 591.783 -4.58044 3.87705 0
M  V30 6678 H 592.853 -3.18412 3.65707 0
M  V30 6679 N 594.196 -1.08629 -1.14182 0
M  V30 6680 C 595.444 -0.815731 -1.84906 0
M  V30 6681 C 595.765 0.660441 -1.83475 0
M  V30 6682 O 595.035 1.47888 -1.28476 0
M  V30 6683 H 593.615 -0.298773 -0.684648 0
M  V30 6684 H 596.277 -1.37274 -1.38354 0
M  V30 6685 H 595.373 -1.16193 -2.89665 0
M  V30 6686 N 595.674 1.31259 -0.872281 0
M  V30 6687 C 596.621 2.28459 -0.327857 0
M  V30 6688 C 597.591 1.55831 0.574957 0
M  V30 6689 O 598.776 1.83965 0.506101 0
M  V30 6690 C 595.916 3.41985 0.462644 0
M  V30 6691 C 595.029 4.29458 -0.467949 0
M  V30 6692 C 594.164 5.30131 0.336903 0
M  V30 6693 C 593.203 6.0925 -0.58997 0
M  V30 6694 N 592.34 7.01872 0.178775 0
M  V30 6695 H 597.18 2.74414 -1.16193 0
M  V30 6696 H 594.717 1.34994 -0.584376 0
M  V30 6697 H 596.675 4.06547 0.936759 0
M  V30 6698 H 595.305 2.97134 1.2614 0
M  V30 6699 H 594.357 3.65318 -1.06052 0
M  V30 6700 H 595.669 4.84677 -1.17856 0
M  V30 6701 H 594.823 6.0038 0.873427 0
M  V30 6702 H 593.562 4.75573 1.08079 0
M  V30 6703 H 592.567 5.37889 -1.13823 0
M  V30 6704 H 593.792 6.65894 -1.33275 0
M  V30 6705 H 591.738 6.49721 0.905435 0
M  V30 6706 H 591.655 7.54522 -0.472452 0
M  V30 6707 H 592.923 7.76382 0.696454 0
M  V30 6708 N 597.152 0.631951 1.44375 0
M  V30 6709 C 598.401 0.134214 2.01253 0
M  V30 6710 C 598.714 -1.25171 1.50305 0
M  V30 6711 O 599.92 -1.8435 1.99317 0
M  V30 6712 C 598.376 0.189187 3.59402 0
M  V30 6713 C 597.984 1.57647 4.19346 0
M  V30 6714 C 599.728 -0.252044 4.23751 0
M  V30 6715 C 597.635 1.58651 5.69722 0
M  V30 6716 H 596.565 0.0464101 0.75257 0
M  V30 6717 H 599.216 0.790868 1.65582 0
M  V30 6718 H 597.598 -0.534584 3.92375 0
M  V30 6719 H 598.772 2.32389 3.97909 0
M  V30 6720 H 597.087 1.96186 3.67288 0
M  V30 6721 H 599.684 -0.264084 5.34047 0
M  V30 6722 H 600.027 -1.27951 3.96149 0
M  V30 6723 H 600.56 0.41926 3.95584 0
M  V30 6724 H 597.299 2.59237 6.0206 0
M  V30 6725 H 596.819 0.882039 5.93279 0
M  V30 6726 H 598.498 1.32082 6.33375 0
M  V30 6727 N 598.631 -1.53133 0.372548 0
M  V30 6728 C 599.861 -2.05476 -0.215202 0
M  V30 6729 C 600.269 -1.24534 -1.42436 0
M  V30 6730 O 599.612 -0.280771 -1.81542 0
M  V30 6731 C 599.674 -3.53276 -0.666068 0
M  V30 6732 C 599.338 -4.54998 0.427342 0
M  V30 6733 C 600.335 -5.03911 1.27944 0
M  V30 6734 C 598.02 -4.98828 0.589579 0
M  V30 6735 C 600.014 -5.95263 2.27905 0
M  V30 6736 C 597.701 -5.89984 1.59255 0
M  V30 6737 C 598.699 -6.38093 2.43571 0
M  V30 6738 O 598.387 -7.27451 3.42156 0
M  V30 6739 H 598.119 -0.67481 -0.040099 0
M  V30 6740 H 600.673 -1.98409 0.531312 0
M  V30 6741 H 598.903 -3.57904 -1.4643 0
M  V30 6742 H 600.592 -3.88442 -1.1776 0
M  V30 6743 H 601.358 -4.70792 1.16532 0
M  V30 6744 H 597.237 -4.60965 -0.0569456 0
M  V30 6745 H 600.781 -6.32736 2.93753 0
M  V30 6746 H 596.678 -6.22518 1.70711 0
M  V30 6747 H 597.446 -7.45467 3.37967 0
M  V30 6748 N 600.109 -0.101901 -1.5727 0
M  V30 6749 C 601.386 0.602832 -1.86079 0
M  V30 6750 C 601.766 1.85912 -1 0
M  V30 6751 O 601.114 2.28379 -0.0742488 0
M  V30 6752 C 601.324 0.911694 -3.36881 0
M  V30 6753 C 602.672 1.2722 -4.05093 0
M  V30 6754 O 603.696 1.0025 -3.41802 0
M  V30 6755 O 602.555 1.7776 -5.16782 0
M  V30 6756 H 599.649 0.302366 -0.769743 0
M  V30 6757 H 602.195 -0.135113 -1.69161 0
M  V30 6758 H 600.967 0.0207256 -3.91295 0
M  V30 6759 H 600.59 1.70538 -3.59169 0
M  V30 6760 N 601.587 1.56661 0.17182 0
M  V30 6761 C 602.817 1.85831 0.902804 0
M  V30 6762 C 603.225 0.685157 1.76358 0
M  V30 6763 O 602.568 -0.354947 1.80238 0
M  V30 6764 C 602.63 3.09406 1.83053 0
M  V30 6765 C 602.294 4.4231 1.1494 0
M  V30 6766 C 603.291 5.17342 0.515104 0
M  V30 6767 C 600.976 4.89045 1.14631 0
M  V30 6768 C 602.97 6.37299 -0.113194 0
M  V30 6769 C 600.657 6.08933 0.514184 0
M  V30 6770 C 601.655 6.82904 -0.114463 0
M  V30 6771 O 601.343 8.00518 -0.736622 0
M  V30 6772 H 601.075 0.620715 0.267748 0
M  V30 6773 H 603.629 2.04637 0.176918 0
M  V30 6774 H 601.859 2.86544 2.59672 0
M  V30 6775 H 603.548 3.25027 2.4313 0
M  V30 6776 H 604.314 4.82317 0.509474 0
M  V30 6777 H 600.193 4.31409 1.62502 0
M  V30 6778 H 603.737 6.94976 -0.604477 0
M  V30 6779 H 599.634 6.43423 0.517395 0
M  V30 6780 H 600.402 8.16027 -0.635822 0
M  V30 6781 N 603.065 -0.440357 1.51323 0
M  V30 6782 C 604.311 -1.19181 1.64085 0
M  V30 6783 C 604.644 -1.90936 0.354575 0
M  V30 6784 O 603.919 -1.8347 -0.645675 0
M  V30 6785 C 604.202 -2.2112 2.84215 0
M  V30 6786 C 604.055 -1.53468 4.22809 0
M  V30 6787 C 605.374 -3.22133 2.99864 0
M  V30 6788 H 602.493 -0.431924 0.597169 0
M  V30 6789 H 605.135 -0.481443 1.83799 0
M  V30 6790 H 603.285 -2.81703 2.67537 0
M  V30 6791 H 604.957 -0.962455 4.51148 0
M  V30 6792 H 603.2 -0.837086 4.25647 0
M  V30 6793 H 603.871 -2.27694 5.02852 0
M  V30 6794 H 606.347 -2.71601 3.15233 0
M  V30 6795 H 605.223 -3.90756 3.85488 0
M  V30 6796 H 605.484 -3.88061 2.11804 0
M  V30 6797 N 604.543 -1.41418 -0.695603 0
M  V30 6798 C 605.476 -1.3768 -1.81988 0
M  V30 6799 C 606.454 -0.244061 -1.60758 0
M  V30 6800 O 607.638 -0.430965 -1.83507 0
M  V30 6801 C 604.765 -1.1476 -3.18666 0
M  V30 6802 C 603.811 -2.30752 -3.58686 0
M  V30 6803 S 604.644 -3.9323 -3.63498 0
M  V30 6804 C 605.8 -3.72613 -5.02902 0
M  V30 6805 H 606.033 -2.32822 -1.84882 0
M  V30 6806 H 603.566 -1.27942 -0.86431 0
M  V30 6807 H 605.524 -1.02223 -3.97569 0
M  V30 6808 H 604.185 -0.212385 -3.13381 0
M  V30 6809 H 603.378 -2.10409 -4.57978 0
M  V30 6810 H 602.98 -2.39696 -2.87092 0
M  V30 6811 H 605.272 -3.32317 -5.904 0
M  V30 6812 H 606.215 -4.71507 -5.28286 0
M  V30 6813 H 606.623 -3.0589 -4.74438 0
M  V30 6814 N 606.021 0.929856 -1.27246 0
M  V30 6815 C 606.971 2.01629 -1.06442 0
M  V30 6816 C 607.955 1.60899 0.00687842 0
M  V30 6817 O 609.147 1.75733 -0.211407 0
M  V30 6818 C 606.276 3.35849 -0.711361 0
M  V30 6819 C 605.362 3.8303 -1.82069 0
M  V30 6820 N 605.753 4.02743 -3.05993 0
M  V30 6821 C 604.051 4.12046 -1.70687 0
M  V30 6822 C 604.752 4.42001 -3.78167 0
M  V30 6823 N 603.728 4.4935 -3.05918 0
M  V30 6824 H 607.53 2.14898 -2.00489 0
M  V30 6825 H 605.044 1.11654 -1.17929 0
M  V30 6826 H 607.041 4.13343 -0.543442 0
M  V30 6827 H 605.701 3.23944 0.221517 0
M  V30 6828 H 606.712 3.89112 -3.41778 0
M  V30 6829 H 603.389 4.08866 -0.844681 0
M  V30 6830 H 604.779 4.6535 -4.84664 0
M  V30 6831 N 607.499 1.09233 1.13605 0
M  V30 6832 C 608.724 0.849067 1.89224 0
M  V30 6833 C 609.149 -0.593875 1.78479 0
M  V30 6834 O 608.507 -1.41703 1.13092 0
M  V30 6835 C 608.555 1.28642 3.36873 0
M  V30 6836 O 607.659 0.44363 4.10007 0
M  V30 6837 H 607 0.30767 0.588417 0
M  V30 6838 H 609.53 1.45595 1.43748 0
M  V30 6839 H 609.54 1.27096 3.87699 0
M  V30 6840 H 608.215 2.33729 3.44011 0
M  V30 6841 H 606.792 0.523241 3.69211 0
M  V30 6842 N 608.977 -1.30795 0.87923 0
M  V30 6843 C 609.907 -2.30742 0.357796 0
M  V30 6844 C 610.888 -1.60747 -0.556283 0
M  V30 6845 O 612.073 -1.88393 -0.47135 0
M  V30 6846 C 609.203 -3.44583 -0.433555 0
M  V30 6847 C 608.157 -4.26235 0.388251 0
M  V30 6848 C 607.483 -5.32073 -0.529352 0
M  V30 6849 C 608.783 -4.96303 1.62729 0
M  V30 6850 H 610.477 -2.74605 1.19299 0
M  V30 6851 H 608.023 -1.32017 0.575104 0
M  V30 6852 H 609.976 -4.13563 -0.808934 0
M  V30 6853 H 608.7 -2.99511 -1.30234 0
M  V30 6854 H 607.359 -3.58936 0.745695 0
M  V30 6855 H 607.007 -4.83249 -1.39569 0
M  V30 6856 H 606.707 -5.87598 0.0166741 0
M  V30 6857 H 608.231 -6.0391 -0.901373 0
M  V30 6858 H 609.645 -5.5783 1.32283 0
M  V30 6859 H 608.042 -5.61666 2.11309 0
M  V30 6860 H 609.112 -4.22758 2.37494 0
M  V30 6861 N 610.455 -0.639598 -1.44038 0
M  V30 6862 C 611.704 -0.144885 -2.01179 0
M  V30 6863 C 612.017 1.24372 -1.50967 0
M  V30 6864 O 613.223 1.83291 -2.00292 0
M  V30 6865 C 611.679 -0.208244 -3.59297 0
M  V30 6866 C 611.287 -1.59869 -4.18504 0
M  V30 6867 C 613.031 0.229568 -4.23879 0
M  V30 6868 C 610.938 -1.61671 -5.68873 0
M  V30 6869 H 609.868 -0.0504005 -0.752314 0
M  V30 6870 H 612.519 -0.799639 -1.65161 0
M  V30 6871 H 610.901 0.513767 -3.92653 0
M  V30 6872 H 612.075 -2.34496 -3.96671 0
M  V30 6873 H 610.39 -1.98131 -3.66242 0
M  V30 6874 H 612.987 0.235758 -5.3418 0
M  V30 6875 H 613.33 1.25848 -3.96822 0
M  V30 6876 H 613.863 -0.440233 -3.95357 0
M  V30 6877 H 610.602 -2.62427 -6.00677 0
M  V30 6878 H 610.122 -0.913489 -5.92803 0
M  V30 6879 H 611.801 -1.35439 -6.32665 0
M  V30 6880 N 611.933 1.52934 -0.380664 0
M  V30 6881 C 612.883 2.22989 0.475399 0
M  V30 6882 C 613.867 1.23058 1.03661 0
M  V30 6883 O 615.059 1.48436 0.964146 0
M  V30 6884 C 612.188 3.0338 1.60671 0
M  V30 6885 C 611.274 4.107 1.05766 0
M  V30 6886 N 611.665 5.05264 0.232837 0
M  V30 6887 C 609.963 4.25676 1.33101 0
M  V30 6888 C 610.664 5.81658 -0.0695134 0
M  V30 6889 N 609.64 5.40989 0.532144 0
M  V30 6890 H 613.442 2.93456 -0.161418 0
M  V30 6891 H 610.956 1.61291 -0.189495 0
M  V30 6892 H 612.953 3.52098 2.23232 0
M  V30 6893 H 611.613 2.34446 2.24644 0
M  V30 6894 H 612.624 5.17739 -0.129204 0
M  V30 6895 H 609.301 3.6797 1.97241 0
M  V30 6896 H 610.691 6.67843 -0.737269 0
M  V30 6897 N 613.412 0.11024 1.57214 0
M  V30 6898 C 614.659 -0.54987 1.94891 0
M  V30 6899 C 614.987 -1.67243 0.992984 0
M  V30 6900 O 614.242 -1.95694 0.0152703 0
M  V30 6901 C 614.541 -1.13102 3.39032 0
M  V30 6902 C 614.207 -0.130713 4.5071 0
M  V30 6903 C 612.869 0.14437 4.80983 0
M  V30 6904 C 615.221 0.551472 5.18274 0
M  V30 6905 C 612.549 1.10807 5.76141 0
M  V30 6906 C 614.901 1.50375 6.14467 0
M  V30 6907 C 613.565 1.78691 6.43138 0
M  V30 6908 H 612.835 -0.201212 0.713158 0
M  V30 6909 H 615.482 0.189288 1.90562 0
M  V30 6910 H 613.787 -1.94675 3.40013 0
M  V30 6911 H 615.484 -1.64973 3.65493 0
M  V30 6912 H 612.074 -0.355301 4.27125 0
M  V30 6913 H 616.258 0.35211 4.95049 0
M  V30 6914 H 611.514 1.3343 5.96663 0
M  V30 6915 H 615.688 2.03808 6.65909 0
M  V30 6916 H 613.315 2.53522 7.1668 0
M  V30 6917 N 614.89 -1.56749 -0.16351 0
M  V30 6918 C 615.822 -1.93587 -1.22705 0
M  V30 6919 C 616.835 -0.829824 -1.40063 0
M  V30 6920 O 618.024 -1.10826 -1.39928 0
M  V30 6921 C 615.124 -2.1803 -2.59454 0
M  V30 6922 C 614.297 -3.4928 -2.63292 0
M  V30 6923 C 613.356 -3.62457 -3.8146 0
M  V30 6924 O 612.382 -4.35004 -3.67096 0
M  V30 6925 N 613.584 -2.97888 -4.9824 0
M  V30 6926 H 616.349 -2.8542 -0.914081 0
M  V30 6927 H 613.91 -1.58 -0.353214 0
M  V30 6928 H 615.902 -2.24102 -3.36987 0
M  V30 6929 H 614.472 -1.32543 -2.8311 0
M  V30 6930 H 613.692 -3.54795 -1.71796 0
M  V30 6931 H 614.98 -4.35632 -2.62873 0
M  V30 6932 H 614.378 -2.38833 -5.12811 0
M  V30 6933 H 612.935 -3.09545 -5.73607 0
M  V30 6934 N 616.368 0.432326 -1.51554 0
M  V30 6935 C 617.616 1.17901 -1.64146 0
M  V30 6936 C 617.937 1.91604 -0.362367 0
M  V30 6937 O 617.207 1.85764 0.621968 0
M  V30 6938 H 615.787 0.438206 -0.604966 0
M  V30 6939 H 618.449 0.495172 -1.88505 0
M  V30 6940 H 617.545 1.90584 -2.47152 0
M  V30 6941 N 617.846 1.41785 0.688094 0
M  V30 6942 C 619.093 1.41544 1.44816 0
M  V30 6943 C 619.421 0.0271746 1.94481 0
M  V30 6944 O 618.676 -0.962235 1.7041 0
M  V30 6945 C 618.975 2.37532 2.67046 0
M  V30 6946 C 618.641 3.84209 2.35996 0
M  V30 6947 C 617.303 4.24165 2.27239 0
M  V30 6948 C 619.655 4.76785 2.10536 0
M  V30 6949 C 616.983 5.54695 1.91128 0
M  V30 6950 C 619.335 6.07644 1.75931 0
M  V30 6951 C 617.999 6.46613 1.65675 0
M  V30 6952 H 617.269 0.517945 0.529919 0
M  V30 6953 H 619.916 1.74635 0.785797 0
M  V30 6954 H 618.221 1.9772 3.38251 0
M  V30 6955 H 619.918 2.34615 3.25203 0
M  V30 6956 H 616.508 3.52567 2.4371 0
M  V30 6957 H 620.692 4.46714 2.16242 0
M  V30 6958 H 615.948 5.83762 1.81746 0
M  V30 6959 H 620.122 6.78874 1.55252 0
M  V30 6960 H 617.749 7.47668 1.37463 0
M  V30 6961 N 619.324 -0.923095 1.27737 0
M  V30 6962 C 620.571 -1.67127 1.14345 0
M  V30 6963 C 620.899 -1.92017 -0.30982 0
M  V30 6964 O 620.154 -1.51185 -1.24264 0
M  V30 6965 C 620.453 -3.04125 1.8773 0
M  V30 6966 C 620.119 -2.98929 3.37568 0
M  V30 6967 C 618.781 -2.9722 3.78436 0
M  V30 6968 C 621.133 -2.89875 4.33154 0
M  V30 6969 C 618.461 -2.84244 5.13247 0
M  V30 6970 C 620.813 -2.7844 5.68026 0
M  V30 6971 C 619.477 -2.75083 6.08182 0
M  V30 6972 H 618.747 -0.611562 0.418417 0
M  V30 6973 H 621.394 -1.07618 1.584 0
M  V30 6974 H 619.699 -3.67366 1.36196 0
M  V30 6975 H 621.396 -3.609 1.74792 0
M  V30 6976 H 617.986 -3.0105 3.05069 0
M  V30 6977 H 622.17 -2.9029 4.02548 0
M  V30 6978 H 617.426 -2.80034 5.43499 0
M  V30 6979 H 621.6 -2.70401 6.4176 0
M  V30 6980 H 619.227 -2.64786 7.12596 0
M  V30 6981 N 620.802 -1.09834 -1.13024 0
M  V30 6982 C 622.048 -0.83819 -1.84668 0
M  V30 6983 C 622.381 0.634645 -1.83537 0
M  V30 6984 O 621.656 1.46753 -1.27647 0
M  V30 6985 C 621.939 -1.37933 -3.32636 0
M  V30 6986 C 621.792 -2.91857 -3.42257 0
M  V30 6987 C 623.111 -1.01654 -4.28199 0
M  V30 6988 H 620.23 -0.30595 -0.670495 0
M  V30 6989 H 622.872 -1.36044 -1.32635 0
M  V30 6990 H 621.022 -0.935111 -3.77078 0
M  V30 6991 H 622.694 -3.44759 -3.06495 0
M  V30 6992 H 620.937 -3.28776 -2.83 0
M  V30 6993 H 621.608 -3.24799 -4.46329 0
M  V30 6994 H 624.084 -1.39973 -3.9185 0
M  V30 6995 H 622.96 -1.42217 -5.30156 0
M  V30 6996 H 623.221 0.0747794 -4.42037 0
M  V30 6997 N 622.28 1.30327 -0.886154 0
M  V30 6998 C 623.243 2.26376 -0.358687 0
M  V30 6999 C 624.243 1.52845 0.499498 0
M  V30 7000 O 625.433 1.71483 0.306485 0
M  V30 7001 C 622.565 3.37379 0.488726 0
M  V30 7002 H 623.758 2.74547 -1.20681 0
M  V30 7003 H 621.311 1.41536 -0.663113 0
M  V30 7004 H 622.046 2.94526 1.35739 0
M  V30 7005 H 621.831 3.91897 -0.126003 0
M  V30 7006 H 623.321 4.08868 0.84952 0
M  V30 7007 N 623.758 0.647228 1.43697 0
M  V30 7008 C 624.986 0.16575 2.06235 0
M  V30 7009 C 625.401 -1.1662 1.48476 0
M  V30 7010 O 624.758 -1.7187 0.613762 0
M  V30 7011 C 624.809 0.0621651 3.61447 0
M  V30 7012 O 624.53 1.34146 4.17057 0
M  V30 7013 C 626.031 -0.446102 4.4105 0
M  V30 7014 H 623.251 0.0871158 0.665321 0
M  V30 7015 H 625.795 0.886183 1.84301 0
M  V30 7016 H 623.95 -0.608794 3.82587 0
M  V30 7017 H 624.364 1.19675 5.10664 0
M  V30 7018 H 625.838 -0.46755 5.50016 0
M  V30 7019 H 626.315 -1.47627 4.13646 0
M  V30 7020 H 626.921 0.192159 4.24866 0
M  V30 7021 N 625.236 -1.5273 0.388769 0
M  V30 7022 C 626.485 -2.00757 -0.194833 0
M  V30 7023 C 626.798 -1.27951 -1.47946 0
M  V30 7024 O 628.004 -1.66686 -2.14308 0
M  V30 7025 C 626.46 -3.57695 -0.397762 0
M  V30 7026 C 626.068 -4.394 0.873583 0
M  V30 7027 C 627.812 -4.14012 -0.937759 0
M  V30 7028 C 625.719 -5.87938 0.638962 0
M  V30 7029 H 624.649 -0.750101 -0.0765845 0
M  V30 7030 H 627.3 -1.76239 0.511086 0
M  V30 7031 H 625.682 -3.7846 -1.16552 0
M  V30 7032 H 626.856 -4.30403 1.64591 0
M  V30 7033 H 625.171 -3.94301 1.33849 0
M  V30 7034 H 627.768 -5.22645 -1.12899 0
M  V30 7035 H 628.111 -3.7007 -1.90666 0
M  V30 7036 H 628.644 -3.97137 -0.229588 0
M  V30 7037 H 625.383 -6.36202 1.57885 0
M  V30 7038 H 624.903 -5.99726 -0.094443 0
M  V30 7039 H 626.582 -6.46423 0.273299 0
M  V30 7040 N 626.714 -0.118576 -1.57153 0
M  V30 7041 C 627.944 0.546466 -1.99242 0
M  V30 7042 C 628.352 1.60791 -0.997148 0
M  V30 7043 O 627.695 1.83691 0.0181745 0
M  V30 7044 C 627.757 1.23167 -3.37743 0
M  V30 7045 C 627.421 0.318226 -4.55891 0
M  V30 7046 C 628.418 -0.442988 -5.18009 0
M  V30 7047 C 626.103 0.229421 -5.01776 0
M  V30 7048 C 628.097 -1.28074 -6.244 0
M  V30 7049 C 625.784 -0.611966 -6.08028 0
M  V30 7050 C 626.782 -1.36568 -6.69207 0
M  V30 7051 O 626.47 -2.1931 -7.73407 0
M  V30 7052 H 626.202 0.149297 -0.659307 0
M  V30 7053 H 628.756 -0.201603 -2.04408 0
M  V30 7054 H 626.986 2.0268 -3.29329 0
M  V30 7055 H 628.675 1.79358 -3.64123 0
M  V30 7056 H 629.441 -0.38425 -4.83475 0
M  V30 7057 H 625.32 0.805771 -4.53903 0
M  V30 7058 H 628.864 -1.86952 -6.72082 0
M  V30 7059 H 624.761 -0.6721 -6.41991 0
M  V30 7060 H 625.529 -2.12247 -7.90502 0
M  V30 7061 N 628.193 1.56834 0.155195 0
M  V30 7062 C 629.433 1.84701 0.875488 0
M  V30 7063 C 629.797 0.701747 1.78716 0
M  V30 7064 O 630.998 0.861263 2.54629 0
M  V30 7065 C 629.269 3.1773 1.63654 0
M  V30 7066 S 630.828 3.67128 2.40338 0
M  V30 7067 H 627.646 0.647856 0.292923 0
M  V30 7068 H 630.248 1.95026 0.136024 0
M  V30 7069 H 628.952 3.99059 0.958117 0
M  V30 7070 H 628.483 3.10388 2.41708 0
M  V30 7071 H 630.498 3.35739 3.65368 0
M  V30 7072 N 629.671 -0.424282 1.51781 0
M  V30 7073 C 630.918 -1.1726 1.65095 0
M  V30 7074 C 631.246 -1.90881 0.373477 0
M  V30 7075 O 630.501 -1.84835 -0.642997 0
M  V30 7076 C 630.8 -2.20418 2.81337 0
M  V30 7077 C 630.466 -1.63715 4.20129 0
M  V30 7078 C 629.128 -1.47975 4.57883 0
M  V30 7079 C 631.48 -1.22157 5.06682 0
M  V30 7080 C 628.808 -0.891703 5.79884 0
M  V30 7081 C 631.16 -0.647767 6.29275 0
M  V30 7082 C 629.824 -0.477371 6.65791 0
M  V30 7083 H 629.094 -0.429085 0.604125 0
M  V30 7084 H 631.741 -0.461852 1.85847 0
M  V30 7085 H 630.046 -2.97581 2.54859 0
M  V30 7086 H 631.743 -2.78163 2.88836 0
M  V30 7087 H 628.333 -1.76946 3.90369 0
M  V30 7088 H 632.517 -1.33133 4.7811 0
M  V30 7089 H 627.773 -0.747563 6.06813 0
M  V30 7090 H 631.947 -0.317291 6.95677 0
M  V30 7091 H 629.574 -0.0195936 7.60197 0
M  V30 7092 N 631.149 -1.42148 -0.680565 0
M  V30 7093 C 632.389 -1.4379 -1.45271 0
M  V30 7094 C 632.753 -0.0504426 -1.91934 0
M  V30 7095 O 633.954 0.0583916 -2.68737 0
M  V30 7096 C 632.225 -2.42904 -2.62168 0
M  V30 7097 S 633.784 -2.63201 -3.51099 0
M  V30 7098 H 630.602 -0.509185 -0.496237 0
M  V30 7099 H 633.204 -1.78706 -0.792744 0
M  V30 7100 H 631.908 -3.4249 -2.26116 0
M  V30 7101 H 631.439 -2.09394 -3.33043 0
M  V30 7102 H 633.454 -1.91068 -4.57938 0
M  V30 7103 N 632.627 0.916307 -1.28225 0
M  V30 7104 C 633.575 2.03977 -1.11786 0
M  V30 7105 C 634.569 1.69358 -0.0378265 0
M  V30 7106 O 635.775 1.78925 -0.196405 0
M  V30 7107 H 632.15 0.66829 -0.344809 0
M  V30 7108 H 634.121 2.14985 -2.06939 0
M  V30 7109 C 632.87 3.38518 -0.7938 0
M  V30 7110 H 632.193 3.65649 -1.61682 0
M  V30 7111 H 633.633 4.17864 -0.718719 0
M  V30 7112 C 632.092 3.33134 0.502353 0
M  V30 7113 O 632.622 3.71281 1.53341 0
M  V30 7114 N 630.828 2.86229 0.502147 0
M  V30 7115 H 630.375 2.55382 -0.337338 0
M  V30 7116 H 630.333 2.83009 1.36942 0
M  V30 7117 N 634.105 1.10431 1.1244 0
M  V30 7118 C 635.053 0.747974 2.20246 0
M  V30 7119 C 636.047 -0.255848 1.67457 0
M  V30 7120 O 637.253 -0.116221 1.79624 0
M  V30 7121 H 633.628 0.223946 0.71788 0
M  V30 7122 H 635.599 1.6661 2.47556 0
M  V30 7123 C 634.348 0.195957 3.47147 0
M  V30 7124 H 633.671 0.959606 3.88113 0
M  V30 7125 H 635.111 -0.0153154 4.23997 0
M  V30 7126 C 633.57 -1.07132 3.19413 0
M  V30 7127 O 634.1 -2.15284 3.3914 0
M  V30 7128 N 632.306 -0.98994 2.73219 0
M  V30 7129 H 631.853 -0.109736 2.57366 0
M  V30 7130 H 631.811 -1.83856 2.55038 0
M  V30 7131 N 635.583 -1.29855 0.893053 0
M  V30 7132 C 636.493 -2.31661 0.370157 0
M  V30 7133 C 637.509 -1.65677 -0.531723 0
M  V30 7134 O 638.685 -1.9691 -0.422902 0
M  V30 7135 C 635.75 -3.44388 -0.399741 0
M  V30 7136 C 634.811 -4.2598 0.532861 0
M  V30 7137 C 634.044 -5.33324 -0.200388 0
M  V30 7138 O 634.267 -5.52305 -1.42531 0
M  V30 7139 O 633.201 -6.00188 0.453668 0
M  V30 7140 H 637.027 -2.78354 1.2146 0
M  V30 7141 H 634.612 -1.34171 0.657153 0
M  V30 7142 H 636.494 -4.13037 -0.835358 0
M  V30 7143 H 635.169 -2.99815 -1.22035 0
M  V30 7144 H 634.076 -3.59998 1.01746 0
M  V30 7145 H 635.409 -4.74178 1.3197 0
M  V30 7146 N 637.061 -0.65484 -1.43351 0
M  V30 7147 C 638.307 -0.169142 -2.02093 0
M  V30 7148 C 638.64 1.21431 -1.51553 0
M  V30 7149 O 637.915 1.81105 -0.709317 0
M  V30 7150 C 638.198 -0.181775 -3.59641 0
M  V30 7151 C 638.051 -1.59926 -4.20409 0
M  V30 7152 C 639.37 0.480945 -4.37464 0
M  V30 7153 H 636.489 -0.0629371 -0.734308 0
M  V30 7154 H 639.131 -0.835833 -1.70628 0
M  V30 7155 H 637.281 0.385918 -3.86578 0
M  V30 7156 H 638.953 -2.21766 -4.04497 0
M  V30 7157 H 637.196 -2.14605 -3.76998 0
M  V30 7158 H 637.867 -1.55994 -5.295 0
M  V30 7159 H 640.343 -0.00208273 -4.161 0
M  V30 7160 H 639.219 0.441384 -5.47122 0
M  V30 7161 H 639.48 1.55533 -4.13838 0
M  V30 7162 N 638.539 1.52521 -0.396863 0
M  V30 7163 C 639.471 2.24333 0.469814 0
M  V30 7164 C 640.484 1.2685 1.02043 0
M  V30 7165 O 641.673 1.52876 0.92147 0
M  V30 7166 C 638.773 2.95202 1.66461 0
M  V30 7167 C 637.946 4.19454 1.24003 0
M  V30 7168 C 637.005 4.73255 2.30036 0
M  V30 7169 O 636.031 5.36151 1.91131 0
M  V30 7170 N 637.233 4.53765 3.62047 0
M  V30 7171 H 639.998 2.99347 -0.145468 0
M  V30 7172 H 637.559 1.60348 -0.223606 0
M  V30 7173 H 639.551 3.28092 2.36934 0
M  V30 7174 H 638.121 2.2345 2.18607 0
M  V30 7175 H 637.341 3.92517 0.363892 0
M  V30 7176 H 638.629 5.0017 0.933135 0
M  V30 7177 H 638.027 4.03576 3.96412 0
M  V30 7178 H 636.584 4.91124 4.28533 0
M  V30 7179 N 640.017 0.126909 1.57088 0
M  V30 7180 C 641.245 -0.53667 1.99819 0
M  V30 7181 C 641.66 -1.5972 1.00673 0
M  V30 7182 O 641.017 -1.825 0.000747365 0
M  V30 7183 C 641.068 -1.15563 3.42531 0
M  V30 7184 O 640.789 -0.137483 4.37884 0
M  V30 7185 C 642.29 -1.90176 4.00435 0
M  V30 7186 H 639.51 -0.141443 0.655923 0
M  V30 7187 H 642.054 0.215578 2.03361 0
M  V30 7188 H 640.209 -1.85861 3.39904 0
M  V30 7189 H 640.623 -0.588229 5.21191 0
M  V30 7190 H 642.097 -2.28801 5.02349 0
M  V30 7191 H 642.574 -2.78002 3.40017 0
M  V30 7192 H 643.18 -1.24623 4.06632 0
M  V30 7193 N 641.495 -1.56914 -0.146875 0
M  V30 7194 C 642.723 -1.87515 -0.874394 0
M  V30 7195 C 643.138 -0.715116 -1.74733 0
M  V30 7196 O 642.495 0.315113 -1.79759 0
M  V30 7197 C 642.546 -3.17362 -1.731 0
M  V30 7198 O 642.267 -4.28897 -0.893245 0
M  V30 7199 C 643.768 -3.61479 -2.56609 0
M  V30 7200 H 640.988 -0.621546 -0.252827 0
M  V30 7201 H 643.532 -2.04023 -0.139627 0
M  V30 7202 H 641.687 -3.02608 -2.41883 0
M  V30 7203 H 642.101 -5.03146 -1.48137 0
M  V30 7204 H 643.575 -4.5517 -3.12289 0
M  V30 7205 H 644.052 -2.86773 -3.32653 0
M  V30 7206 H 644.658 -3.78927 -1.93117 0
M  V30 7207 N 642.974 0.416227 -1.52004 0
M  V30 7208 C 644.22 1.16555 -1.6596 0
M  V30 7209 C 644.553 1.90347 -0.384906 0
M  V30 7210 O 643.828 1.84474 0.616405 0
M  V30 7211 C 644.111 2.1657 -2.87696 0
M  V30 7212 C 643.964 1.46722 -4.25197 0
M  V30 7213 C 645.283 3.17321 -3.04951 0
M  V30 7214 H 642.402 0.422369 -0.603965 0
M  V30 7215 H 645.044 0.452141 -1.84542 0
M  V30 7216 H 643.194 2.77411 -2.71985 0
M  V30 7217 H 644.866 0.89056 -4.52622 0
M  V30 7218 H 643.109 0.769263 -4.26925 0
M  V30 7219 H 643.78 2.19665 -5.0641 0
M  V30 7220 H 646.256 2.66552 -3.19514 0
M  V30 7221 H 645.132 3.84573 -3.91656 0
M  V30 7222 H 645.393 3.84643 -2.17951 0
M  V30 7223 N 644.452 1.42507 0.673017 0
M  V30 7224 C 645.399 1.46124 1.78651 0
M  V30 7225 C 646.369 0.313007 1.63124 0
M  V30 7226 O 647.554 0.517337 1.83653 0
M  V30 7227 C 644.694 1.3711 3.16694 0
M  V30 7228 C 643.807 2.61983 3.43495 0
M  V30 7229 C 642.942 2.45098 4.71275 0
M  V30 7230 C 641.981 3.65336 4.91117 0
M  V30 7231 N 641.118 3.47383 6.10139 0
M  V30 7232 H 645.958 2.4128 1.74895 0
M  V30 7233 H 643.495 1.19788 0.853766 0
M  V30 7234 H 645.453 1.29881 3.96468 0
M  V30 7235 H 644.083 0.45549 3.1957 0
M  V30 7236 H 643.135 2.79571 2.57961 0
M  V30 7237 H 644.447 3.51355 3.5405 0
M  V30 7238 H 643.601 2.35466 5.59143 0
M  V30 7239 H 642.34 1.53219 4.63007 0
M  V30 7240 H 641.345 3.754 4.0169 0
M  V30 7241 H 642.57 4.58199 5.01229 0
M  V30 7242 H 640.516 2.58222 6.0304 0
M  V30 7243 H 640.433 4.30344 6.21563 0
M  V30 7244 H 641.701 3.41565 7.00681 0
M  V30 7245 N 645.93 -0.909495 1.28709 0
M  V30 7246 C 647.346 -1.18862 1.06508 0
M  V30 7247 C 647.546 -2.00604 -0.189864 0
M  V30 7248 O 646.602 -2.36281 -0.890355 0
M  V30 7249 C 647.915 -1.91908 2.31499 0
M  V30 7250 C 649.463 -2.04773 2.36721 0
M  V30 7251 C 649.938 -2.81228 3.6149 0
M  V30 7252 N 651.429 -2.88787 3.62155 0
M  V30 7253 C 652.164 -3.48455 4.55375 0
M  V30 7254 N 651.66 -4.09369 5.58918 0
M  V30 7255 N 653.453 -3.46035 4.42963 0
M  V30 7256 H 645.604 -0.363867 2.0926 0
M  V30 7257 H 647.867 -0.223649 0.921241 0
M  V30 7258 H 647.573 -1.39275 3.22948 0
M  V30 7259 H 647.447 -2.92436 2.38245 0
M  V30 7260 H 649.834 -2.56585 1.45767 0
M  V30 7261 H 649.915 -1.03408 2.33967 0
M  V30 7262 H 649.559 -2.30094 4.5279 0
M  V30 7263 H 649.489 -3.82917 3.61499 0
M  V30 7264 H 651.98 -2.45514 2.87283 0
M  V30 7265 H 652.293 -4.52891 6.26187 0
M  V30 7266 H 650.638 -4.0786 5.62739 0
M  V30 7267 H 653.829 -2.9766 3.6127 0
M  V30 7268 H 654.002 -3.92244 5.15799 0
M  V30 7269 N 647.408 -1.11026 -1.11852 0
M  V30 7270 C 648.34 -0.72249 -2.17515 0
M  V30 7271 C 649.353 0.243782 -1.60964 0
M  V30 7272 O 650.542 0.0273252 -1.78479 0
M  V30 7273 C 647.642 -0.0463979 -3.38868 0
M  V30 7274 C 646.815 -1.0384 -4.24895 0
M  V30 7275 C 645.874 -0.392659 -5.24733 0
M  V30 7276 O 644.9 -1.0453 -5.5952 0
M  V30 7277 N 646.102 0.846296 -5.74298 0
M  V30 7278 H 648.867 -1.63161 -2.51393 0
M  V30 7279 H 646.428 -0.999899 -1.27333 0
M  V30 7280 H 648.42 0.397215 -4.02746 0
M  V30 7281 H 646.99 0.765231 -3.03089 0
M  V30 7282 H 646.21 -1.6601 -3.57539 0
M  V30 7283 H 647.498 -1.70968 -4.79215 0
M  V30 7284 H 646.896 1.39578 -5.4821 0
M  V30 7285 H 645.453 1.23296 -6.40032 0
M  V30 7286 N 648.886 1.2938 -0.899927 0
M  V30 7287 C 650.132 1.96206 -0.536153 0
M  V30 7288 C 650.487 1.69647 0.90761 0
M  V30 7289 O 649.78 0.999089 1.63489 0
M  V30 7290 C 649.974 3.49114 -0.765113 0
M  V30 7291 C 649.803 3.90538 -2.22958 0
M  V30 7292 C 648.573 4.15395 -2.87706 0
M  V30 7293 C 650.771 4.0224 -3.20479 0
M  V30 7294 N 648.753 4.43389 -4.24593 0
M  V30 7295 C 650.124 4.34288 -4.42486 0
M  V30 7296 C 652.179 3.84716 -3.16066 0
M  V30 7297 C 650.882 4.50638 -5.6064 0
M  V30 7298 C 652.908 4.02276 -4.33507 0
M  V30 7299 C 652.27 4.34684 -5.54283 0
M  V30 7300 H 648.369 0.742364 -0.245804 0
M  V30 7301 H 650.953 1.56314 -1.16078 0
M  V30 7302 H 649.124 3.88028 -0.169861 0
M  V30 7303 H 650.856 4.03035 -0.366751 0
M  V30 7304 H 647.611 4.09164 -2.385 0
M  V30 7305 H 648.035 4.61494 -4.95331 0
M  V30 7306 H 652.677 3.58724 -2.23778 0
M  V30 7307 H 650.395 4.75467 -6.5342 0
M  V30 7308 H 653.981 3.90169 -4.31578 0
M  V30 7309 H 652.861 4.47988 -6.43643 0
M  V30 7310 N 650.364 0.662433 1.43002 0
M  V30 7311 C 651.327 -0.0142016 2.29196 0
M  V30 7312 C 652.327 -0.741394 1.42688 0
M  V30 7313 O 653.517 -0.581257 1.64216 0
M  V30 7314 C 650.649 -1.03084 3.24941 0
M  V30 7315 H 651.842 0.7443 2.90517 0
M  V30 7316 H 649.395 0.424133 1.50435 0
M  V30 7317 H 650.13 -1.81826 2.68533 0
M  V30 7318 H 649.915 -0.512946 3.8873 0
M  V30 7319 H 651.405 -1.50308 3.89612 0
M  V30 7320 N 651.842 -1.52309 0.404946 0
M  V30 7321 C 652.774 -2.24579 -0.45791 0
M  V30 7322 C 653.787 -1.2739 -1.01369 0
M  V30 7323 O 654.976 -1.53363 -0.91335 0
M  V30 7324 C 652.076 -2.9608 -1.64893 0
M  V30 7325 C 651.249 -4.20106 -1.21777 0
M  V30 7326 C 650.308 -4.74468 -2.27523 0
M  V30 7327 O 649.334 -5.37157 -1.88285 0
M  V30 7328 N 650.536 -4.55678 -3.59635 0
M  V30 7329 H 653.301 -2.99265 0.161341 0
M  V30 7330 H 650.862 -1.60228 0.232107 0
M  V30 7331 H 652.854 -3.29344 -2.35191 0
M  V30 7332 H 651.424 -2.24606 -2.17419 0
M  V30 7333 H 650.644 -3.92704 -0.343071 0
M  V30 7334 H 651.932 -5.00658 -0.906596 0
M  V30 7335 H 651.33 -4.05673 -3.94266 0
M  V30 7336 H 649.887 -4.9339 -4.25922 0
M  V30 7337 N 653.32 -0.135238 -1.57019 0
M  V30 7338 C 654.567 0.518794 -1.95742 0
M  V30 7339 C 654.895 1.65642 -1.01947 0
M  V30 7340 O 654.15 1.95645 -0.0464016 0
M  V30 7341 C 654.449 1.07694 -3.40788 0
M  V30 7342 C 654.115 0.058992 -4.50861 0
M  V30 7343 C 652.777 -0.220872 -4.80693 0
M  V30 7344 C 655.129 -0.633856 -5.17331 0
M  V30 7345 C 652.457 -1.19959 -5.74305 0
M  V30 7346 C 654.809 -1.60131 -6.11997 0
M  V30 7347 C 653.473 -1.889 -6.40213 0
M  V30 7348 H 652.743 0.18984 -0.716269 0
M  V30 7349 H 655.39 -0.219581 -1.90237 0
M  V30 7350 H 653.695 1.89241 -3.43067 0
M  V30 7351 H 655.392 1.59137 -3.68071 0
M  V30 7352 H 651.982 0.287304 -4.27636 0
M  V30 7353 H 656.166 -0.430823 -4.94427 0
M  V30 7354 H 651.422 -1.42905 -5.94465 0
M  V30 7355 H 655.596 -2.14376 -6.62583 0
M  V30 7356 H 653.223 -2.64891 -7.12556 0
M  V30 7357 N 654.798 1.5699 0.138552 0
M  V30 7358 C 655.745 1.98899 1.17081 0
M  V30 7359 C 656.715 0.857922 1.42228 0
M  V30 7360 O 657.9 1.12065 1.54422 0
M  V30 7361 C 655.04 2.38189 2.4972 0
M  V30 7362 C 654.153 3.64624 2.31674 0
M  V30 7363 C 653.288 3.9298 3.57407 0
M  V30 7364 C 652.327 5.1266 3.34435 0
M  V30 7365 N 651.464 5.36983 4.5232 0
M  V30 7366 H 656.304 2.86881 0.80642 0
M  V30 7367 H 653.841 1.41925 0.386727 0
M  V30 7368 H 655.799 2.59 3.2707 0
M  V30 7369 H 654.429 1.53275 2.84089 0
M  V30 7370 H 653.481 3.51542 1.45337 0
M  V30 7371 H 654.793 4.52131 2.10664 0
M  V30 7372 H 653.947 4.14335 4.43183 0
M  V30 7373 H 652.686 3.03912 3.8143 0
M  V30 7374 H 651.691 4.9117 2.47048 0
M  V30 7375 H 652.916 6.03288 3.11802 0
M  V30 7376 H 650.862 4.50871 4.76499 0
M  V30 7377 H 650.779 6.18775 4.34343 0
M  V30 7378 H 652.047 5.62842 5.39285 0
M  V30 7379 N 656.276 -0.40816 1.52223 0
M  V30 7380 C 657.525 -1.15212 1.65557 0
M  V30 7381 C 657.838 -1.9163 0.392096 0
M  V30 7382 O 659.044 -2.68458 0.405256 0
M  V30 7383 C 657.5 -2.09691 2.92502 0
M  V30 7384 C 657.108 -1.38785 4.25961 0
M  V30 7385 C 658.852 -2.8434 3.152 0
M  V30 7386 C 656.759 -2.31919 5.44029 0
M  V30 7387 H 655.689 -0.433776 0.616729 0
M  V30 7388 H 658.34 -0.4165 1.78711 0
M  V30 7389 H 656.722 -2.8681 2.7305 0
M  V30 7390 H 657.896 -0.670248 4.55899 0
M  V30 7391 H 656.211 -0.761741 4.09373 0
M  V30 7392 H 658.808 -3.54166 4.00587 0
M  V30 7393 H 659.151 -3.47344 2.29473 0
M  V30 7394 H 659.684 -2.14321 3.35129 0
M  V30 7395 H 656.423 -1.7356 6.32105 0
M  V30 7396 H 655.943 -3.0165 5.18428 0
M  V30 7397 H 657.622 -2.92424 5.77146 0
M  V30 7398 N 657.755 -1.42862 -0.66545 0
M  V30 7399 C 658.687 -1.43026 -1.79098 0
M  V30 7400 C 659.7 -0.32803 -1.59461 0
M  V30 7401 O 660.889 -0.591709 -1.68407 0
M  V30 7402 C 657.989 -1.21566 -3.16346 0
M  V30 7403 C 657.162 -2.44399 -3.62751 0
M  V30 7404 C 656.221 -2.18344 -4.78761 0
M  V30 7405 O 655.247 -2.91611 -4.88827 0
M  V30 7406 N 656.449 -1.1924 -5.68122 0
M  V30 7407 H 659.214 -2.40045 -1.79439 0
M  V30 7408 H 656.775 -1.37861 -0.848872 0
M  V30 7409 H 658.767 -1.02037 -3.91625 0
M  V30 7410 H 657.337 -0.330368 -3.10849 0
M  V30 7411 H 656.557 -2.79433 -2.78048 0
M  V30 7412 H 657.845 -3.26173 -3.90498 0
M  V30 7413 H 657.243 -0.586603 -5.6265 0
M  V30 7414 H 655.8 -1.05698 -6.43173 0
M  V30 7415 N 659.233 0.902656 -1.29189 0
M  V30 7416 C 660.479 1.6555 -1.18172 0
M  V30 7417 C 660.834 1.90569 0.264788 0
M  V30 7418 O 660.127 1.50292 1.1884 0
M  V30 7419 C 660.321 3.011 -1.92545 0
M  V30 7420 C 660.15 2.89312 -3.4428 0
M  V30 7421 C 658.92 2.90239 -4.1363 0
M  V30 7422 C 661.118 2.6656 -4.3983 0
M  V30 7423 N 659.1 2.69156 -5.5175 0
M  V30 7424 C 660.471 2.54429 -5.6539 0
M  V30 7425 C 662.526 2.51644 -4.29627 0
M  V30 7426 C 661.229 2.289 -6.81907 0
M  V30 7427 C 663.255 2.27498 -5.45892 0
M  V30 7428 C 662.617 2.16129 -6.70423 0
M  V30 7429 H 658.716 0.611519 -0.48741 0
M  V30 7430 H 661.3 1.06514 -1.62981 0
M  V30 7431 H 659.471 3.58202 -1.50154 0
M  V30 7432 H 661.203 3.65471 -1.73818 0
M  V30 7433 H 657.958 3.01412 -3.65305 0
M  V30 7434 H 658.382 2.61676 -6.24383 0
M  V30 7435 H 663.024 2.59178 -3.34045 0
M  V30 7436 H 660.742 2.20104 -7.77547 0
M  V30 7437 H 664.328 2.16805 -5.39895 0
M  V30 7438 H 663.208 1.97703 -7.5887 0
M  V30 7439 N 660.711 1.11618 1.11262 0
M  V30 7440 C 661.659 0.771291 2.1944 0
M  V30 7441 C 662.653 -0.238073 1.67719 0
M  V30 7442 O 663.859 -0.0971628 1.79738 0
M  V30 7443 H 660.234 0.231548 0.715465 0
M  V30 7444 H 662.205 1.69226 2.45775 0
M  V30 7445 C 660.954 0.232765 3.4692 0
M  V30 7446 H 660.277 1.00072 3.87073 0
M  V30 7447 H 661.717 0.0296561 4.2399 0
M  V30 7448 C 660.176 -1.03738 3.20531 0
M  V30 7449 O 660.706 -2.11675 3.41404 0
M  V30 7450 N 658.912 -0.960906 2.74253 0
M  V30 7451 H 658.459 -0.0824323 2.57468 0
M  V30 7452 H 658.417 -1.8114 2.56974 0
M  V30 7453 N 662.189 -1.289 0.906776 0
M  V30 7454 C 663.121 -2.26556 0.347159 0
M  V30 7455 C 664.134 -1.54589 -0.51049 0
M  V30 7456 O 665.323 -1.75489 -0.326501 0
M  V30 7457 C 662.423 -3.3484 -0.523024 0
M  V30 7458 C 661.596 -4.36296 0.310515 0
M  V30 7459 C 660.655 -5.23879 -0.493634 0
M  V30 7460 O 659.681 -5.69127 0.0913569 0
M  V30 7461 N 660.883 -5.51946 -1.7982 0
M  V30 7462 H 663.648 -2.75212 1.18652 0
M  V30 7463 H 661.209 -1.42309 0.771996 0
M  V30 7464 H 663.201 -3.90366 -1.06756 0
M  V30 7465 H 661.771 -2.85946 -1.26309 0
M  V30 7466 H 660.991 -3.80331 1.03644 0
M  V30 7467 H 662.279 -5.01113 0.881106 0
M  V30 7468 H 661.677 -5.17006 -2.2961 0
M  V30 7469 H 660.234 -6.10258 -2.28971 0
M  V30 7470 N 663.667 -0.670007 -1.42649 0
M  V30 7471 C 665.083 -0.33911 -1.55956 0
M  V30 7472 C 665.283 1.1558 -1.65056 0
M  V30 7473 O 664.339 1.94111 -1.61485 0
M  V30 7474 C 665.652 -1.06522 -2.812 0
M  V30 7475 C 667.2 -1.04708 -2.94966 0
M  V30 7476 C 667.675 -1.75442 -4.23065 0
M  V30 7477 N 669.166 -1.72286 -4.29967 0
M  V30 7478 C 669.901 -2.23877 -5.27889 0
M  V30 7479 N 669.397 -2.83829 -6.31991 0
M  V30 7480 N 671.19 -2.14279 -5.19654 0
M  V30 7481 H 663.341 -1.6399 -1.34986 0
M  V30 7482 H 665.604 -0.690603 -0.649439 0
M  V30 7483 H 665.31 -2.12033 -2.80597 0
M  V30 7484 H 665.184 -0.627398 -3.71946 0
M  V30 7485 H 667.571 -0.000315966 -2.951 0
M  V30 7486 H 667.652 -1.52374 -2.05465 0
M  V30 7487 H 667.296 -2.80084 -4.23693 0
M  V30 7488 H 667.226 -1.25229 -5.11493 0
M  V30 7489 H 669.717 -1.28554 -3.55362 0
M  V30 7490 H 670.03 -3.20827 -7.03057 0
M  V30 7491 H 668.375 -2.87896 -6.32567 0
M  V30 7492 H 671.566 -1.67135 -4.37245 0
M  V30 7493 H 671.739 -2.54792 -5.95806 0
M  V30 7494 N 665.145 1.52092 -0.413018 0
M  V30 7495 C 666.391 2.02815 0.154104 0
M  V30 7496 C 666.746 1.293 1.42475 0
M  V30 7497 O 666.039 0.391835 1.87551 0
M  V30 7498 C 666.233 3.54529 0.4521 0
M  V30 7499 C 666.062 4.4274 -0.788116 0
M  V30 7500 C 664.832 4.87903 -1.31447 0
M  V30 7501 C 667.03 4.86522 -1.66735 0
M  V30 7502 N 665.012 5.60254 -2.50976 0
M  V30 7503 C 666.383 5.57692 -2.70886 0
M  V30 7504 C 668.438 4.68534 -1.68465 0
M  V30 7505 C 667.141 6.12783 -3.76682 0
M  V30 7506 C 669.167 5.24524 -2.73182 0
M  V30 7507 C 668.529 5.9562 -3.76054 0
M  V30 7508 H 664.628 0.781796 0.0178567 0
M  V30 7509 H 667.212 1.86223 -0.568237 0
M  V30 7510 H 665.383 3.71186 1.14348 0
M  V30 7511 H 667.115 3.91934 1.00844 0
M  V30 7512 H 663.87 4.65504 -0.871931 0
M  V30 7513 H 664.294 6.01069 -3.11521 0
M  V30 7514 H 668.936 4.13051 -0.902708 0
M  V30 7515 H 666.654 6.67335 -4.55729 0
M  V30 7516 H 670.24 5.12473 -2.75433 0
M  V30 7517 H 669.12 6.38169 -4.55752 0
M  V30 7518 N 666.623 0.143563 1.56945 0
M  V30 7519 C 667.871 -0.507402 1.95627 0
M  V30 7520 C 668.192 -1.65626 1.02922 0
M  V30 7521 O 667.462 -1.95693 0.0901136 0
M  V30 7522 H 666.042 -0.190436 0.722318 0
M  V30 7523 H 668.704 0.218257 1.93674 0
M  V30 7524 H 667.8 -0.885816 2.99265 0
M  V30 7525 N 668.101 -1.57061 -0.130224 0
M  V30 7526 C 669.517 -1.52103 -0.483413 0
M  V30 7527 C 669.717 -0.854752 -1.82473 0
M  V30 7528 O 668.773 -0.432342 -2.48771 0
M  V30 7529 C 670.086 -2.96872 -0.47825 0
M  V30 7530 C 671.634 -3.07902 -0.562592 0
M  V30 7531 C 672.109 -4.54211 -0.587929 0
M  V30 7532 N 673.6 -4.58621 -0.649684 0
M  V30 7533 C 674.335 -5.69227 -0.690551 0
M  V30 7534 N 673.831 -6.89358 -0.689743 0
M  V30 7535 N 675.624 -5.57304 -0.732708 0
M  V30 7536 H 667.775 -1.98764 0.748779 0
M  V30 7537 H 670.038 -0.907248 0.274965 0
M  V30 7538 H 669.744 -3.48944 0.439444 0
M  V30 7539 H 669.618 -3.53716 -1.31013 0
M  V30 7540 H 672.005 -2.5584 -1.47071 0
M  V30 7541 H 672.086 -2.54073 0.296764 0
M  V30 7542 H 671.73 -5.06915 0.316096 0
M  V30 7543 H 671.66 -5.0584 -1.46401 0
M  V30 7544 H 674.151 -3.72146 -0.656927 0
M  V30 7545 H 674.464 -7.69408 -0.723239 0
M  V30 7546 H 672.809 -6.91884 -0.657347 0
M  V30 7547 H 676 -4.62363 -0.730625 0
M  V30 7548 H 676.173 -6.43515 -0.76109 0
M  V30 7549 N 669.579 0.400081 -1.52437 0
M  V30 7550 C 670.995 0.739359 -1.41441 0
M  V30 7551 C 671.195 1.94512 -0.526053 0
M  V30 7552 O 670.251 2.525 0.00472502 0
M  V30 7553 C 671.564 0.984824 -2.84116 0
M  V30 7554 C 673.112 1.08698 -2.93519 0
M  V30 7555 C 673.587 1.36515 -4.37181 0
M  V30 7556 N 675.078 1.43361 -4.40457 0
M  V30 7557 C 675.813 1.66528 -5.48686 0
M  V30 7558 N 675.309 1.87239 -6.67018 0
M  V30 7559 N 677.102 1.68617 -5.36213 0
M  V30 7560 H 669.253 -0.393484 -2.08723 0
M  V30 7561 H 671.516 -0.1138 -0.941145 0
M  V30 7562 H 671.222 0.171096 -3.51284 0
M  V30 7563 H 671.096 1.90253 -3.25705 0
M  V30 7564 H 673.483 1.89129 -2.26526 0
M  V30 7565 H 673.564 0.147432 -2.55375 0
M  V30 7566 H 673.208 0.565982 -5.04737 0
M  V30 7567 H 673.138 2.31737 -4.7287 0
M  V30 7568 H 675.629 1.29108 -3.55161 0
M  V30 7569 H 675.942 2.04392 -7.45281 0
M  V30 7570 H 674.287 1.84486 -6.70067 0
M  V30 7571 H 677.478 1.5198 -4.42741 0
M  V30 7572 H 677.651 1.86332 -6.20632 0
M  V30 7573 N 671.057 1.43213 0.657864 0
M  V30 7574 C 672.468 1.39669 1.23893 0
M  V30 7575 C 672.819 0.0984217 1.95953 0
M  V30 7576 O 671.944 -0.8023 2.00978 0
M  V30 7577 C 672.539 2.53004 2.25332 0
M  V30 7578 C 671.098 2.5274 2.78926 0
M  V30 7579 C 670.245 2.30941 1.53497 0
M  V30 7580 H 673.196 1.52181 0.450172 0
M  V30 7581 H 673.217 2.24226 3.07413 0
M  V30 7582 H 672.729 3.4748 1.72856 0
M  V30 7583 H 670.83 1.6213 3.35477 0
M  V30 7584 H 670.943 3.50352 3.26787 0
M  V30 7585 H 669.307 1.7952 1.80678 0
M  V30 7586 H 670.09 3.27496 1.02963 0
M  V30 7587 N 672.536 -0.895792 1.29666 0
M  V30 7588 C 673.761 -1.68528 1.20885 0
M  V30 7589 C 674.186 -1.8673 -0.226595 0
M  V30 7590 O 673.544 -1.39044 -1.16347 0
M  V30 7591 C 673.592 -3.04512 1.93144 0
M  V30 7592 O 672.696 -3.92963 1.25115 0
M  V30 7593 H 672.037 -0.515371 0.418675 0
M  V30 7594 H 674.567 -1.11878 1.71302 0
M  V30 7595 H 674.577 -3.54628 2.0175 0
M  V30 7596 H 673.252 -2.90582 2.97548 0
M  V30 7597 H 671.829 -3.51399 1.24794 0
M  V30 7598 N 674.014 -1.12206 -1.10668 0
M  V30 7599 C 674.962 -0.782918 -2.19028 0
M  V30 7600 C 675.956 0.229175 -1.67843 0
M  V30 7601 O 677.162 0.0876295 -1.79787 0
M  V30 7602 H 673.537 -0.235339 -0.714227 0
M  V30 7603 H 675.508 -1.70527 -2.44874 0
M  V30 7604 C 674.257 -0.25116 -3.46792 0
M  V30 7605 H 673.58 -1.02123 -3.86537 0
M  V30 7606 H 675.02 -0.0521409 -4.23968 0
M  V30 7607 C 673.479 1.02037 -3.21076 0
M  V30 7608 O 674.009 2.09862 -3.42522 0
M  V30 7609 N 672.215 0.946348 -2.74759 0
M  V30 7610 H 671.762 0.068777 -2.57508 0
M  V30 7611 H 671.72 1.79775 -2.57931 0
M  V30 7612 N 675.492 1.28418 -0.913599 0
M  V30 7613 C 676.908 1.47411 -0.611728 0
M  V30 7614 C 677.108 1.83018 0.843008 0
M  V30 7615 O 676.164 1.93505 1.6221 0
M  V30 7616 C 677.477 2.57703 -1.5495 0
M  V30 7617 C 679.025 2.71572 -1.5562 0
M  V30 7618 C 679.5 3.85008 -2.48058 0
M  V30 7619 N 680.991 3.92361 -2.46184 0
M  V30 7620 C 681.726 4.79516 -3.14407 0
M  V30 7621 N 681.222 5.71262 -3.91958 0
M  V30 7622 N 683.015 4.73125 -3.03495 0
M  V30 7623 H 675.166 1.03585 -1.85429 0
M  V30 7624 H 677.429 0.515907 -0.795326 0
M  V30 7625 H 677.135 2.38298 -2.58663 0
M  V30 7626 H 677.009 3.54801 -1.28048 0
M  V30 7627 H 679.396 2.90366 -0.526441 0
M  V30 7628 H 679.477 1.75006 -1.86565 0
M  V30 7629 H 679.121 3.66969 -3.51136 0
M  V30 7630 H 679.051 4.80971 -2.14416 0
M  V30 7631 H 681.542 3.26749 -1.89851 0
M  V30 7632 H 681.855 6.34593 -4.41034 0
M  V30 7633 H 680.2 5.71103 -3.96063 0
M  V30 7634 H 683.391 4.00442 -2.42413 0
M  V30 7635 H 683.564 5.40834 -3.56935 0
M  V30 7636 N 676.97 0.677563 1.42291 0
M  V30 7637 C 678.195 0.207901 2.06355 0
M  V30 7638 C 678.62 -1.12723 1.50583 0
M  V30 7639 O 677.978 -1.70171 0.62543 0
M  V30 7640 C 678.026 0.156489 3.6026 0
M  V30 7641 O 677.13 -0.874162 4.03029 0
M  V30 7642 H 676.471 0.106056 0.655475 0
M  V30 7643 H 679.001 0.927354 1.82377 0
M  V30 7644 H 679.011 -0.0187258 4.07996 0
M  V30 7645 H 677.686 1.13101 4.00226 0
M  V30 7646 H 676.263 -0.669764 3.66836 0
M  V30 7647 N 678.448 -1.51871 0.421078 0
M  V30 7648 C 679.411 -2.25914 -0.386712 0
M  V30 7649 C 680.411 -1.28733 -0.963555 0
M  V30 7650 O 681.601 -1.52579 -0.840556 0
M  V30 7651 C 678.733 -3.03853 -1.54551 0
M  V30 7652 H 679.926 -2.98754 0.261978 0
M  V30 7653 H 677.479 -1.5533 0.173862 0
M  V30 7654 H 678.214 -2.35392 -2.23072 0
M  V30 7655 H 677.999 -3.75215 -1.13824 0
M  V30 7656 H 679.489 -3.59984 -2.11663 0
M  V30 7657 N 679.926 -0.151884 -1.56866 0
M  V30 7658 C 681.342 0.204486 -1.58285 0
M  V30 7659 C 681.542 1.6431 -1.16639 0
M  V30 7660 O 680.598 2.37077 -0.868946 0
M  V30 7661 C 681.911 -0.0587019 -3.00643 0
M  V30 7662 C 683.459 0.00462303 -3.13 0
M  V30 7663 C 683.934 -0.231297 -4.57416 0
M  V30 7664 N 685.425 -0.178394 -4.62856 0
M  V30 7665 C 686.16 -0.335379 -5.72418 0
M  V30 7666 N 685.656 -0.550355 -6.90611 0
M  V30 7667 N 687.449 -0.272641 -5.61438 0
M  V30 7668 H 679.6 -1.09116 -1.82229 0
M  V30 7669 H 681.863 -0.432311 -0.843689 0
M  V30 7670 H 681.569 -1.05453 -3.35518 0
M  V30 7671 H 681.443 0.658508 -3.71407 0
M  V30 7672 H 683.83 0.991009 -2.77962 0
M  V30 7673 H 683.911 -0.744992 -2.44711 0
M  V30 7674 H 683.555 -1.2148 -4.93158 0
M  V30 7675 H 683.485 0.5387 -5.23837 0
M  V30 7676 H 685.976 -0.0170923 -3.77896 0
M  V30 7677 H 686.289 -0.660116 -7.69976 0
M  V30 7678 H 684.634 -0.586736 -6.92519 0
M  V30 7679 H 687.825 -0.105421 -4.67981 0
M  V30 7680 H 687.998 -0.398418 -6.46774 0
M  V30 7681 N 681.404 1.57128 0.121893 0
M  V30 7682 C 682.367 1.99197 1.13372 0
M  V30 7683 C 683.367 0.881728 1.3447 0
M  V30 7684 O 684.557 1.14783 1.31036 0
M  V30 7685 C 681.689 2.32963 2.4888 0
M  V30 7686 H 682.882 2.89788 0.772204 0
M  V30 7687 H 680.435 1.51952 0.366093 0
M  V30 7688 H 681.17 1.45243 2.89957 0
M  V30 7689 H 680.955 3.13934 2.34921 0
M  V30 7690 H 682.445 2.66261 3.21706 0
M  V30 7691 N 682.882 -0.391992 1.52647 0
M  V30 7692 C 683.845 -1.46135 1.7657 0
M  V30 7693 C 684.845 -1.47701 0.635698 0
M  V30 7694 O 686.035 -1.48924 0.903728 0
M  V30 7695 C 683.167 -2.85443 1.86374 0
M  V30 7696 H 684.36 -1.26208 2.72051 0
M  V30 7697 H 681.913 -0.623549 1.43323 0
M  V30 7698 H 682.648 -3.10718 0.928685 0
M  V30 7699 H 682.433 -2.85708 2.68539 0
M  V30 7700 H 683.923 -3.62933 2.06566 0
M  V30 7701 N 684.36 -1.4356 -0.65026 0
M  V30 7702 C 685.323 -1.48615 -1.74489 0
M  V30 7703 C 686.323 -0.370483 -1.56474 0
M  V30 7704 O 687.513 -0.632351 -1.62317 0
M  V30 7705 C 684.645 -1.34161 -3.13391 0
M  V30 7706 H 685.838 -2.46103 -1.71387 0
M  V30 7707 H 683.391 -1.30369 -0.862186 0
M  V30 7708 H 684.126 -0.376918 -3.22102 0
M  V30 7709 H 683.911 -2.1504 -3.27872 0
M  V30 7710 H 685.401 -1.40637 -3.93206 0
M  V30 7711 N 685.838 0.888903 -1.30139 0
M  V30 7712 C 686.801 1.97576 -1.16174 0
M  V30 7713 C 687.801 1.60525 -0.094086 0
M  V30 7714 O 688.991 1.70812 -0.341889 0
M  V30 7715 C 686.123 3.3188 -0.778983 0
M  V30 7716 H 687.316 2.11393 -2.12728 0
M  V30 7717 H 684.869 1.0748 -1.1348 0
M  V30 7718 H 685.604 3.23765 0.186225 0
M  V30 7719 H 685.389 3.60141 -1.55051 0
M  V30 7720 H 686.879 4.11612 -0.704631 0
M  V30 7721 N 687.317 1.12792 1.10072 0
M  V30 7722 C 688.28 0.802264 2.14701 0
M  V30 7723 C 689.28 -0.18515 1.59731 0
M  V30 7724 O 690.47 0.041109 1.74151 0
M  V30 7725 C 687.602 0.19285 3.40354 0
M  V30 7726 H 688.795 1.72932 2.45019 0
M  V30 7727 H 686.348 0.931662 1.25498 0
M  V30 7728 H 687.083 -0.743748 3.15656 0
M  V30 7729 H 686.868 0.903827 3.81541 0
M  V30 7730 H 688.358 -0.0183704 4.17596 0
M  V30 7731 N 688.795 -1.27931 0.920396 0
M  V30 7732 C 689.758 -2.25345 0.41858 0
M  V30 7733 C 690.758 -1.54116 -0.458798 0
M  V30 7734 O 691.948 -1.72235 -0.260912 0
M  V30 7735 C 689.08 -3.38556 -0.399104 0
M  V30 7736 H 690.273 -2.71251 1.27918 0
M  V30 7737 H 687.826 -1.39728 0.700406 0
M  V30 7738 H 688.561 -2.98021 -1.27882 0
M  V30 7739 H 688.346 -3.91426 0.229863 0
M  V30 7740 H 689.836 -4.10976 -0.740817 0
M  V30 7741 N 690.273 -0.685099 -1.4193 0
M  V30 7742 C 691.183 -0.013404 -2.34596 0
M  V30 7743 C 692.199 0.777589 -1.55658 0
M  V30 7744 O 693.375 0.717553 -1.88184 0
M  V30 7745 C 690.44 0.919031 -3.34297 0
M  V30 7746 C 689.501 0.121417 -4.29128 0
M  V30 7747 C 688.734 1.00944 -5.24067 0
M  V30 7748 O 688.957 2.24898 -5.24192 0
M  V30 7749 O 687.891 0.464724 -6.00103 0
M  V30 7750 H 691.717 -0.776978 -2.93593 0
M  V30 7751 H 689.302 -0.445379 -1.42607 0
M  V30 7752 H 691.184 1.45402 -3.9552 0
M  V30 7753 H 689.859 1.66228 -2.77759 0
M  V30 7754 H 688.766 -0.45792 -3.71287 0
M  V30 7755 H 690.099 -0.582937 -4.88736 0
M  V30 7756 N 691.751 1.51645 -0.429126 0
M  V30 7757 C 692.714 2.26116 0.374726 0
M  V30 7758 C 693.714 1.29242 0.956714 0
M  V30 7759 O 694.904 1.53022 0.832452 0
M  V30 7760 C 692.036 3.04669 1.52937 0
M  V30 7761 H 693.229 2.9861 -0.277818 0
M  V30 7762 H 690.782 1.55236 -0.182097 0
M  V30 7763 H 691.517 2.36571 2.21821 0
M  V30 7764 H 691.302 3.75814 1.11833 0
M  V30 7765 H 692.792 3.61102 2.09751 0
M  V30 7766 N 693.229 0.160201 1.56784 0
M  V30 7767 C 694.477 -0.486625 1.96154 0
M  V30 7768 C 694.798 -1.64525 1.04673 0
M  V30 7769 O 694.068 -1.95586 0.110864 0
M  V30 7770 H 692.648 -0.182764 0.724297 0
M  V30 7771 H 695.31 0.238787 1.93432 0
M  V30 7772 H 694.406 -0.854025 3.00188 0
M  V30 7773 N 694.707 -1.5719 -0.113559 0
M  V30 7774 C 695.984 -1.76117 -0.850999 0
M  V30 7775 C 696.364 -0.737085 -1.97814 0
M  V30 7776 O 695.712 0.237942 -2.27258 0
M  V30 7777 C 695.922 -3.21298 -1.36266 0
M  V30 7778 C 697.27 -3.83955 -1.81283 0
M  V30 7779 O 698.294 -3.24934 -1.45933 0
M  V30 7780 O 697.153 -4.87707 -2.46585 0
M  V30 7781 H 694.247 -0.721308 -0.404529 0
M  V30 7782 H 696.793 -1.69423 -0.0968756 0
M  V30 7783 H 695.565 -3.87355 -0.554235 0
M  V30 7784 H 695.188 -3.32552 -2.17933 0
M  V30 7785 N 696.185 0.383891 -1.52853 0
M  V30 7786 C 697.434 1.12563 -1.67369 0
M  V30 7787 C 697.747 1.90982 -0.422533 0
M  V30 7788 O 698.953 2.6778 -0.447914 0
M  V30 7789 C 697.409 2.05011 -2.95801 0
M  V30 7790 C 697.017 1.31991 -4.28115 0
M  V30 7791 C 698.761 2.79289 -3.19684 0
M  V30 7792 C 696.668 2.23235 -5.4765 0
M  V30 7793 H 695.598 0.42391 -0.623552 0
M  V30 7794 H 698.249 0.388016 -1.79351 0
M  V30 7795 H 696.631 2.82429 -2.77578 0
M  V30 7796 H 697.805 0.597633 -4.56908 0
M  V30 7797 H 696.12 0.696517 -4.10533 0
M  V30 7798 H 698.717 3.47749 -4.06171 0
M  V30 7799 H 699.06 3.43649 -2.3497 0
M  V30 7800 H 699.593 2.08962 -3.38496 0
M  V30 7801 H 696.332 1.63482 -6.34786 0
M  V30 7802 H 695.852 2.93364 -5.23161 0
M  V30 7803 H 697.531 2.83205 -5.81725 0
M  V30 7804 N 697.663 1.43903 0.642637 0
M  V30 7805 C 699.074 1.40975 1.22404 0
M  V30 7806 C 699.425 0.1192 1.95838 0
M  V30 7807 O 698.55 -0.780939 2.01818 0
M  V30 7808 C 699.145 2.5538 2.22636 0
M  V30 7809 C 697.704 2.55684 2.76229 0
M  V30 7810 C 696.851 2.32556 1.51039 0
M  V30 7811 H 699.802 1.5265 0.434006 0
M  V30 7812 H 699.823 2.27474 3.05017 0
M  V30 7813 H 699.335 3.49294 1.69161 0
M  V30 7814 H 697.436 1.65679 3.33738 0
M  V30 7815 H 697.549 3.53799 3.23053 0
M  V30 7816 H 695.913 1.81427 1.78764 0
M  V30 7817 H 696.696 3.28569 0.99484 0
M  V30 7818 N 699.141 -0.881989 1.30609 0
M  V30 7819 C 700.39 -1.62878 1.18969 0
M  V30 7820 C 700.703 -1.93946 -0.253859 0
M  V30 7821 O 701.909 -2.67008 -0.491813 0
M  V30 7822 C 700.365 -2.93573 2.0819 0
M  V30 7823 C 699.973 -2.70034 3.57471 0
M  V30 7824 C 701.717 -3.71543 2.0532 0
M  V30 7825 C 699.624 -3.96563 4.38739 0
M  V30 7826 H 698.554 -0.611092 0.441682 0
M  V30 7827 H 701.205 -0.976201 1.55379 0
M  V30 7828 H 699.587 -3.6014 1.64666 0
M  V30 7829 H 700.761 -2.11949 4.09163 0
M  V30 7830 H 699.076 -2.05435 3.62195 0
M  V30 7831 H 701.673 -4.65386 2.63288 0
M  V30 7832 H 702.016 -4.03167 1.03739 0
M  V30 7833 H 702.549 -3.11842 2.46981 0
M  V30 7834 H 699.288 -3.70095 5.41027 0
M  V30 7835 H 698.808 -4.54142 3.9181 0
M  V30 7836 H 700.487 -4.64557 4.50329 0
M  V30 7837 N 700.619 -1.13374 -1.09472 0
M  V30 7838 C 701.849 -0.917019 -1.85133 0
M  V30 7839 C 702.257 0.537568 -1.81402 0
M  V30 7840 O 701.6 1.38385 -1.20811 0
M  V30 7841 C 701.662 -1.32646 -3.34134 0
M  V30 7842 C 701.326 -2.79437 -3.61613 0
M  V30 7843 C 702.323 -3.77596 -3.57375 0
M  V30 7844 C 700.008 -3.16586 -3.89973 0
M  V30 7845 C 702.002 -5.10916 -3.81108 0
M  V30 7846 C 699.689 -4.50085 -4.13361 0
M  V30 7847 C 700.687 -5.47059 -4.0892 0
M  V30 7848 O 700.375 -6.78149 -4.31705 0
M  V30 7849 H 700.107 -0.326997 -0.591649 0
M  V30 7850 H 702.661 -1.51002 -1.39239 0
M  V30 7851 H 700.891 -0.676719 -3.80733 0
M  V30 7852 H 702.58 -1.08229 -3.91205 0
M  V30 7853 H 703.346 -3.50242 -3.35493 0
M  V30 7854 H 699.225 -2.41707 -3.92554 0
M  V30 7855 H 702.769 -5.86597 -3.77558 0
M  V30 7856 H 698.666 -4.77163 -4.34724 0
M  V30 7857 H 699.434 -6.84244 -4.49168 0
M  V30 7858 N 702.098 1.27442 -0.927168 0
M  V30 7859 C 703.347 1.93679 -0.563146 0
M  V30 7860 C 703.66 1.73673 0.899837 0
M  V30 7861 O 704.866 2.34247 1.37262 0
M  V30 7862 C 703.322 3.46961 -0.95636 0
M  V30 7863 C 702.93 3.75724 -2.43999 0
M  V30 7864 C 704.674 4.19282 -0.663565 0
M  V30 7865 C 702.581 5.22378 -2.77263 0
M  V30 7866 H 701.511 0.725059 -0.206894 0
M  V30 7867 H 704.162 1.44743 -1.12791 0
M  V30 7868 H 702.544 3.94703 -0.320254 0
M  V30 7869 H 703.718 3.38741 -3.12396 0
M  V30 7870 H 702.033 3.16605 -2.70463 0
M  V30 7871 H 704.63 5.27265 -0.888596 0
M  V30 7872 H 704.973 4.14382 0.399198 0
M  V30 7873 H 705.506 3.7736 -1.25875 0
M  V30 7874 H 702.245 5.32367 -3.82446 0
M  V30 7875 H 701.765 5.6051 -2.13516 0
M  V30 7876 H 703.444 5.9025 -2.64979 0
M  V30 7877 N 703.576 0.692616 1.41565 0
M  V30 7878 C 704.816 0.226453 2.03142 0
M  V30 7879 C 705.18 -1.1512 1.5366 0
M  V30 7880 O 706.381 -1.71305 2.07143 0
M  V30 7881 C 704.652 0.27855 3.56313 0
M  V30 7882 S 706.211 -0.114001 4.38652 0
M  V30 7883 H 703.029 0.0914767 0.705091 0
M  V30 7884 H 705.631 0.909737 1.73043 0
M  V30 7885 H 704.335 1.28325 3.89821 0
M  V30 7886 H 703.866 -0.423981 3.91109 0
M  V30 7887 H 705.881 -1.34256 4.77692 0
M  V30 7888 N 705.054 -1.51416 0.437162 0
M  V30 7889 C 706.004 -2.24599 -0.392311 0
M  V30 7890 C 706.988 -1.2682 -0.990221 0
M  V30 7891 O 708.18 -1.51912 -0.908391 0
M  V30 7892 C 705.309 -3.09134 -1.49301 0
M  V30 7893 C 704.395 -4.14342 -0.904503 0
M  V30 7894 N 704.786 -5.0578 -0.0451511 0
M  V30 7895 C 703.084 -4.30323 -1.1721 0
M  V30 7896 C 703.785 -5.81 0.285344 0
M  V30 7897 N 702.761 -5.42591 -0.330993 0
M  V30 7898 H 706.563 -2.92655 0.270221 0
M  V30 7899 H 704.077 -1.60476 0.249226 0
M  V30 7900 H 706.074 -3.6014 -2.10011 0
M  V30 7901 H 704.734 -2.42622 -2.15788 0
M  V30 7902 H 705.745 -5.16903 0.321271 0
M  V30 7903 H 702.422 -3.75037 -1.83448 0
M  V30 7904 H 703.812 -6.64646 0.984626 0
M  V30 7905 N 706.532 -0.168513 -1.56696 0
M  V30 7906 C 707.464 0.794249 -2.14998 0
M  V30 7907 C 708.477 1.1957 -1.10485 0
M  V30 7908 O 709.666 1.13604 -1.37682 0
M  V30 7909 C 706.766 2.08018 -2.67547 0
M  V30 7910 C 705.939 1.84274 -3.96689 0
M  V30 7911 C 704.998 2.97059 -4.3433 0
M  V30 7912 O 704.024 2.67815 -5.02259 0
M  V30 7913 N 705.226 4.24775 -3.9566 0
M  V30 7914 H 707.991 0.295832 -2.98236 0
M  V30 7915 H 705.552 0.0143611 -1.61894 0
M  V30 7916 H 707.544 2.82559 -2.89729 0
M  V30 7917 H 706.114 2.49059 -1.88914 0
M  V30 7918 H 705.334 0.936528 -3.82914 0
M  V30 7919 H 706.622 1.65773 -4.81037 0
M  V30 7920 H 706.02 4.51395 -3.40968 0
M  V30 7921 H 704.577 4.96027 -4.22848 0
M  V30 7922 N 708.01 1.57248 0.105221 0
M  V30 7923 C 708.92 2.04653 1.14693 0
M  V30 7924 C 709.936 0.969488 1.44489 0
M  V30 7925 O 711.112 1.28196 1.55331 0
M  V30 7926 C 708.177 2.45297 2.45011 0
M  V30 7927 C 707.238 3.67148 2.22489 0
M  V30 7928 C 706.471 4.05844 3.46592 0
M  V30 7929 O 706.694 3.44736 4.54437 0
M  V30 7930 O 705.628 4.98862 3.36779 0
M  V30 7931 H 709.454 2.93663 0.774336 0
M  V30 7932 H 707.039 1.45998 0.31701 0
M  V30 7933 H 708.921 2.72112 3.21766 0
M  V30 7934 H 707.596 1.59429 2.81717 0
M  V30 7935 H 706.503 3.45463 1.43547 0
M  V30 7936 H 707.836 4.53764 1.9068 0
M  V30 7937 N 709.488 -0.375779 1.53054 0
M  V30 7938 C 710.899 -0.95309 1.6054 0
M  V30 7939 C 711.25 -1.90575 0.466446 0
M  V30 7940 O 710.375 -2.12507 -0.408609 0
M  V30 7941 C 710.97 -1.73537 2.90982 0
M  V30 7942 C 709.529 -2.26218 3.00836 0
M  V30 7943 C 708.676 -1.07157 2.55759 0
M  V30 7944 H 711.627 -0.154895 1.57942 0
M  V30 7945 H 711.648 -2.59574 2.78211 0
M  V30 7946 H 711.16 -1.04176 3.73857 0
M  V30 7947 H 709.261 -2.98852 2.22527 0
M  V30 7948 H 709.374 -2.54799 4.05727 0
M  V30 7949 H 707.738 -1.43553 2.10391 0
M  V30 7950 H 708.521 -0.393099 3.41042 0
M  V30 7951 N 710.966 -1.44241 -0.634997 0
M  V30 7952 C 712.382 -1.28043 -0.952742 0
M  V30 7953 C 712.582 -0.21338 -2.00367 0
M  V30 7954 O 711.638 0.402042 -2.49279 0
M  V30 7955 C 712.951 -2.65076 -1.41968 0
M  V30 7956 C 714.499 -2.72755 -1.53537 0
M  V30 7957 C 714.974 -4.10249 -2.03616 0
M  V30 7958 N 716.465 -4.12406 -2.10892 0
M  V30 7959 C 717.2 -5.15641 -2.50803 0
M  V30 7960 N 716.696 -6.29239 -2.89879 0
M  V30 7961 N 718.489 -5.02995 -2.50903 0
M  V30 7962 H 710.64 -2.12315 0.060098 0
M  V30 7963 H 712.903 -0.947326 -0.0357325 0
M  V30 7964 H 712.609 -3.44213 -0.721804 0
M  V30 7965 H 712.483 -2.91704 -2.39141 0
M  V30 7966 H 714.87 -1.93939 -2.22422 0
M  V30 7967 H 714.951 -2.49872 -0.547496 0
M  V30 7968 H 714.595 -4.8954 -1.35327 0
M  V30 7969 H 714.525 -4.30507 -3.03268 0
M  V30 7970 H 717.016 -3.30417 -1.83393 0
M  V30 7971 H 717.329 -7.03827 -3.19135 0
M  V30 7972 H 715.674 -6.32683 -2.8764 0
M  V30 7973 H 718.865 -4.13306 -2.19763 0
M  V30 7974 H 719.038 -5.83574 -2.81683 0
M  V30 7975 N 712.444 0.87505 -1.31075 0
M  V30 7976 C 713.392 2.00317 -1.18219 0
M  V30 7977 C 714.386 1.69152 -0.0916872 0
M  V30 7978 O 715.592 1.7821 -0.253229 0
M  V30 7979 H 711.967 0.656981 -0.365895 0
M  V30 7980 H 713.938 2.08293 -2.13674 0
M  V30 7981 C 712.687 3.35821 -0.901095 0
M  V30 7982 H 712.01 3.6032 -1.73233 0
M  V30 7983 H 713.45 4.15366 -0.851295 0
M  V30 7984 C 711.909 3.34563 0.396114 0
M  V30 7985 O 712.439 3.75971 1.41452 0
M  V30 7986 N 710.645 2.87681 0.410832 0
M  V30 7987 H 710.192 2.54179 -0.418415 0
M  V30 7988 H 710.15 2.87223 1.27869 0
M  V30 7989 N 713.922 1.13953 1.08869 0
M  V30 7990 C 714.832 0.835666 2.19212 0
M  V30 7991 C 715.848 -0.182005 1.73045 0
M  V30 7992 O 717.024 -0.0116661 2.01397 0
M  V30 7993 C 714.089 0.312325 3.4529 0
M  V30 7994 C 713.15 1.39196 4.06107 0
M  V30 7995 C 712.383 0.893496 5.26168 0
M  V30 7996 O 712.606 -0.266807 5.69776 0
M  V30 7997 O 711.54 1.67037 5.78258 0
M  V30 7998 H 715.366 1.75769 2.47667 0
M  V30 7999 H 712.951 0.917421 1.17914 0
M  V30 8000 H 714.833 0.0261582 4.21392 0
M  V30 8001 H 713.508 -0.582042 3.18424 0
M  V30 8002 H 712.415 1.73152 3.31616 0
M  V30 8003 H 713.748 2.26068 4.37212 0
M  V30 8004 N 715.4 -1.26948 0.933913 0
M  V30 8005 C 716.811 -1.76058 0.621324 0
M  V30 8006 C 717.162 -1.76175 -0.863522 0
M  V30 8007 O 716.287 -1.36921 -1.67576 0
M  V30 8008 C 716.882 -3.19713 1.12111 0
M  V30 8009 C 715.441 -3.66465 0.859074 0
M  V30 8010 C 714.588 -2.46186 1.27624 0
M  V30 8011 H 717.539 -1.13127 1.11301 0
M  V30 8012 H 717.56 -3.77566 0.471608 0
M  V30 8013 H 717.072 -3.19596 2.20182 0
M  V30 8014 H 715.173 -3.72021 -0.207566 0
M  V30 8015 H 715.286 -4.55636 1.48098 0
M  V30 8016 H 713.65 -2.45042 0.694727 0
M  V30 8017 H 714.433 -2.48774 2.36572 0
M  V30 8018 N 716.879 -0.700114 -1.41195 0
M  V30 8019 C 717.842 -0.0465706 -2.29153 0
M  V30 8020 C 718.842 0.703302 -1.44604 0
M  V30 8021 O 720.032 0.537513 -1.657 0
M  V30 8022 C 717.164 0.944324 -3.2756 0
M  V30 8023 H 718.357 -0.821064 -2.88442 0
M  V30 8024 H 715.91 -0.463869 -1.49258 0
M  V30 8025 H 716.645 1.74642 -2.73259 0
M  V30 8026 H 716.43 0.409701 -3.89954 0
M  V30 8027 H 717.92 1.39925 -3.9346 0
M  V30 8028 N 718.357 1.51182 -0.445186 0
M  V30 8029 C 719.305 2.29531 0.376597 0
M  V30 8030 C 720.299 1.35711 1.01385 0
M  V30 8031 O 721.505 1.53018 0.947922 0
M  V30 8032 H 717.88 0.738803 0.140267 0
M  V30 8033 H 719.851 2.96838 -0.304958 0
M  V30 8034 C 718.6 3.1552 1.4609 0
M  V30 8035 H 717.923 3.87605 0.979912 0
M  V30 8036 H 719.363 3.73384 2.009 0
M  V30 8037 C 717.822 2.31406 2.44852 0
M  V30 8038 O 718.352 1.97912 3.49562 0
M  V30 8039 N 716.558 1.94478 2.15932 0
M  V30 8040 H 716.105 2.21917 1.30808 0
M  V30 8041 H 716.063 1.38498 2.82251 0
M  V30 8042 N 719.835 0.176821 1.56605 0
M  V30 8043 C 720.783 -0.768159 2.1955 0
M  V30 8044 C 721.777 -1.23343 1.16116 0
M  V30 8045 O 722.983 -1.19844 1.34303 0
M  V30 8046 H 719.358 -0.266013 0.703378 0
M  V30 8047 H 721.329 -0.213374 2.97636 0
M  V30 8048 C 720.078 -1.98492 2.85475 0
M  V30 8049 H 719.401 -1.63595 3.64797 0
M  V30 8050 H 720.841 -2.62489 3.3298 0
M  V30 8051 C 719.3 -2.81207 1.85538 0
M  V30 8052 O 719.83 -3.7854 1.34427 0
M  V30 8053 N 718.036 -2.46331 1.54173 0
M  V30 8054 H 717.583 -1.67241 1.95929 0
M  V30 8055 H 717.541 -3.01961 0.875595 0
M  V30 8056 N 721.313 -1.57302 -0.09688 0
M  V30 8057 C 722.245 -1.98618 -1.14384 0
M  V30 8058 C 723.258 -0.888483 -1.36418 0
M  V30 8059 O 724.447 -1.16661 -1.35101 0
M  V30 8060 C 721.547 -2.28838 -2.49973 0
M  V30 8061 C 720.72 -3.60132 -2.48241 0
M  V30 8062 C 719.779 -3.7831 -3.65743 0
M  V30 8063 O 718.805 -4.50183 -3.48316 0
M  V30 8064 N 720.007 -3.18752 -4.85157 0
M  V30 8065 H 722.772 -2.8904 -0.792202 0
M  V30 8066 H 720.333 -1.59356 -0.285883 0
M  V30 8067 H 722.325 -2.38193 -3.27179 0
M  V30 8068 H 720.895 -1.44431 -2.77233 0
M  V30 8069 H 720.115 -3.61763 -1.56593 0
M  V30 8070 H 721.403 -4.46389 -2.4416 0
M  V30 8071 H 720.801 -2.60368 -5.0222 0
M  V30 8072 H 719.358 -3.33595 -5.59962 0
M  V30 8073 N 722.791 0.367657 -1.53252 0
M  V30 8074 C 724.039 1.10832 -1.68999 0
M  V30 8075 C 724.36 1.89894 -0.443306 0
M  V30 8076 O 723.63 1.88235 0.54262 0
M  V30 8077 H 722.21 0.412153 -0.623008 0
M  V30 8078 H 724.872 0.414775 -1.90435 0
M  V30 8079 H 723.968 1.7993 -2.55013 0
M  V30 8080 N 724.269 1.44576 0.627338 0
M  V30 8081 C 725.179 1.54232 1.76776 0
M  V30 8082 C 726.195 0.427782 1.6866 0
M  V30 8083 O 727.371 0.685671 1.89369 0
M  V30 8084 C 724.436 1.48738 3.13174 0
M  V30 8085 C 723.497 2.71074 3.32893 0
M  V30 8086 C 722.73 2.65832 4.62784 0
M  V30 8087 O 722.953 1.72048 5.43834 0
M  V30 8088 O 721.887 3.56742 4.84787 0
M  V30 8089 H 725.713 2.50586 1.71582 0
M  V30 8090 H 723.298 1.26865 0.789028 0
M  V30 8091 H 725.18 1.48211 3.94476 0
M  V30 8092 H 723.855 0.555292 3.18902 0
M  V30 8093 H 722.762 2.77168 2.51254 0
M  V30 8094 H 724.095 3.63342 3.32029 0
M  V30 8095 N 725.747 -0.868086 1.31537 0
M  V30 8096 C 726.657 -2.00801 1.21311 0
M  V30 8097 C 727.673 -1.73518 0.129431 0
M  V30 8098 O 728.849 -1.98378 0.347588 0
M  V30 8099 C 725.914 -3.3419 0.922935 0
M  V30 8100 C 724.975 -3.74783 2.0937 0
M  V30 8101 C 724.208 -5.01807 1.81728 0
M  V30 8102 O 724.431 -5.65404 0.753313 0
M  V30 8103 O 723.365 -5.39213 2.67457 0
M  V30 8104 H 727.191 -2.12361 2.17109 0
M  V30 8105 H 724.776 -0.996684 1.11295 0
M  V30 8106 H 726.658 -4.14174 0.777033 0
M  V30 8107 H 725.333 -3.237 -0.00500301 0
M  V30 8108 H 724.24 -2.95432 2.29501 0
M  V30 8109 H 725.573 -3.89902 3.00396 0
M  V30 8110 N 727.225 -1.14528 -1.08264 0
M  V30 8111 C 728.45 -0.938381 -1.84957 0
M  V30 8112 C 728.875 0.508044 -1.81109 0
M  V30 8113 O 728.233 1.36146 -1.19724 0
M  V30 8114 C 728.281 -1.44568 -3.30352 0
M  V30 8115 O 727.385 -0.638745 -4.07423 0
M  V30 8116 H 726.726 -0.335394 -0.573068 0
M  V30 8117 H 729.256 -1.52287 -1.36637 0
M  V30 8118 H 729.266 -1.45449 -3.81194 0
M  V30 8119 H 727.941 -2.49876 -3.32468 0
M  V30 8120 H 726.518 -0.698801 -3.66294 0
M  V30 8121 N 728.703 1.26451 -0.940633 0
M  V30 8122 C 729.666 2.24651 -0.454378 0
M  V30 8123 C 730.666 1.54826 0.434222 0
M  V30 8124 O 731.856 1.72628 0.233477 0
M  V30 8125 C 728.988 3.39148 0.345192 0
M  V30 8126 H 730.181 2.69182 -1.32217 0
M  V30 8127 H 727.734 1.38596 -0.722547 0
M  V30 8128 H 728.469 3.00018 1.23125 0
M  V30 8129 H 728.254 3.9101 -0.292107 0
M  V30 8130 H 729.744 4.12103 0.675341 0
M  V30 8131 N 730.181 0.707592 1.40822 0
M  V30 8132 C 731.091 0.0507246 2.34545 0
M  V30 8133 C 732.107 -0.752727 1.56876 0
M  V30 8134 O 733.283 -0.687524 1.89302 0
M  V30 8135 C 730.348 -0.865731 3.35717 0
M  V30 8136 C 729.409 -0.0531313 4.29267 0
M  V30 8137 C 728.642 -0.925939 5.25606 0
M  V30 8138 O 728.865 -2.16531 5.27703 0
M  V30 8139 O 727.799 -0.369194 6.00767 0
M  V30 8140 H 731.625 0.823587 2.9232 0
M  V30 8141 H 729.21 0.46801 1.4188 0
M  V30 8142 H 731.092 -1.39091 3.97783 0
M  V30 8143 H 729.767 -1.61788 2.80368 0
M  V30 8144 H 728.674 0.516931 3.70511 0
M  V30 8145 H 730.007 0.660617 4.87747 0
M  V30 8146 N 731.66 -1.50943 0.453197 0
M  V30 8147 C 732.909 -2.01402 -0.10951 0
M  V30 8148 C 733.222 -1.3411 -1.42386 0
M  V30 8149 O 734.428 -1.75626 -2.07045 0
M  V30 8150 C 732.884 -3.5906 -0.245693 0
M  V30 8151 C 732.492 -4.353 1.05916 0
M  V30 8152 C 734.236 -4.17617 -0.761318 0
M  V30 8153 C 732.143 -5.84699 0.887752 0
M  V30 8154 H 731.073 -0.752674 -0.0447013 0
M  V30 8155 H 733.724 -1.73913 0.585375 0
M  V30 8156 H 732.106 -3.83062 -1.00395 0
M  V30 8157 H 733.28 -4.23034 1.82698 0
M  V30 8158 H 731.595 -3.88269 1.50452 0
M  V30 8159 H 734.192 -5.26963 -0.906306 0
M  V30 8160 H 734.535 -3.77824 -1.74799 0
M  V30 8161 H 735.068 -3.97753 -0.0609416 0
M  V30 8162 H 731.807 -6.28933 1.84726 0
M  V30 8163 H 731.327 -5.99587 0.160006 0
M  V30 8164 H 733.006 -6.44682 0.547223 0
M  V30 8165 N 733.138 -0.185124 -1.56509 0
M  V30 8166 C 734.387 0.456421 -1.96468 0
M  V30 8167 C 734.7 1.63448 -1.07444 0
M  V30 8168 O 735.906 2.34316 -1.37143 0
M  V30 8169 C 734.362 0.863404 -3.4939 0
M  V30 8170 C 733.97 -0.289815 -4.47062 0
M  V30 8171 C 735.714 1.47259 -3.98139 0
M  V30 8172 C 733.621 0.137571 -5.9124 0
M  V30 8173 H 732.551 0.17429 -0.733579 0
M  V30 8174 H 735.202 -0.275554 -1.81419 0
M  V30 8175 H 733.584 1.65176 -3.59907 0
M  V30 8176 H 734.758 -1.06728 -4.4827 0
M  V30 8177 H 733.073 -0.809851 -4.08449 0
M  V30 8178 H 735.67 1.80463 -5.03326 0
M  V30 8179 H 736.013 2.3755 -3.41871 0
M  V30 8180 H 736.546 0.748405 -3.90696 0
M  V30 8181 H 733.285 -0.730907 -6.51412 0
M  V30 8182 H 732.805 0.8801 -5.93308 0
M  V30 8183 H 734.484 0.576771 -6.44424 0
M  V30 8184 N 734.616 1.57351 0.0885366 0
M  V30 8185 C 736.027 1.75303 0.642308 0
M  V30 8186 C 736.378 0.808238 1.78779 0
M  V30 8187 O 735.503 -0.01171 2.16397 0
M  V30 8188 C 736.098 3.17885 1.17194 0
M  V30 8189 C 734.657 3.37239 1.67172 0
M  V30 8190 C 733.804 2.7108 0.584045 0
M  V30 8191 H 736.755 1.58103 -0.137567 0
M  V30 8192 H 736.776 3.2112 2.04114 0
M  V30 8193 H 736.288 3.86625 0.338024 0
M  V30 8194 H 734.389 2.73588 2.52943 0
M  V30 8195 H 734.502 4.45594 1.76019 0
M  V30 8196 H 732.866 2.33161 1.02508 0
M  V30 8197 H 733.649 3.42464 -0.239403 0
M  V30 8198 N 736.094 -0.359525 1.53444 0
M  V30 8199 C 737.024 -1.44662 1.8329 0
M  V30 8200 C 738.005 -1.55617 0.68683 0
M  V30 8201 O 739.19 -1.70086 0.93725 0
M  V30 8202 C 736.32 -2.81923 2.02822 0
M  V30 8203 C 735.274 -2.85787 3.18606 0
M  V30 8204 C 734.6 -4.25781 3.23442 0
M  V30 8205 C 735.9 -2.52762 4.57065 0
M  V30 8206 H 737.594 -1.19934 2.74329 0
M  V30 8207 H 735.14 -0.575517 1.31999 0
M  V30 8208 H 737.093 -3.58005 2.22285 0
M  V30 8209 H 735.817 -3.08051 1.085 0
M  V30 8210 H 734.476 -2.12157 2.98973 0
M  V30 8211 H 734.124 -4.48994 2.26745 0
M  V30 8212 H 733.824 -4.29281 4.01238 0
M  V30 8213 H 735.348 -5.03727 3.45096 0
M  V30 8214 H 736.762 -3.18557 4.76649 0
M  V30 8215 H 735.159 -2.67569 5.37147 0
M  V30 8216 H 736.229 -1.47993 4.61764 0
M  V30 8217 N 737.572 -1.44907 -0.619662 0
M  V30 8218 C 738.52 -1.52971 -1.75222 0
M  V30 8219 C 739.514 -0.400531 -1.64597 0
M  V30 8220 O 740.72 -0.575952 -1.70537 0
M  V30 8221 H 737.095 -0.480241 -0.578682 0
M  V30 8222 H 739.066 -2.48269 -1.65545 0
M  V30 8223 C 737.815 -1.50204 -3.13583 0
M  V30 8224 H 737.138 -2.36412 -3.22412 0
M  V30 8225 H 738.578 -1.59905 -3.92691 0
M  V30 8226 C 737.037 -0.22455 -3.36151 0
M  V30 8227 O 737.567 0.700574 -3.95544 0
M  V30 8228 N 735.773 -0.124052 -2.90335 0
M  V30 8229 H 735.32 -0.87774 -2.42185 0
M  V30 8230 H 735.278 0.729914 -3.0581 0
M  V30 8231 N 739.05 0.861098 -1.31996 0
M  V30 8232 C 740.299 1.60965 -1.21545 0
M  V30 8233 C 740.612 1.94325 0.222972 0
M  V30 8234 O 741.818 2.67757 0.449272 0
M  V30 8235 C 740.274 2.90223 -2.12834 0
M  V30 8236 C 739.882 2.64313 -3.61722 0
M  V30 8237 C 741.626 3.68229 -2.11205 0
M  V30 8238 C 739.533 3.89532 -4.44993 0
M  V30 8239 H 738.463 0.603988 -0.451348 0
M  V30 8240 H 741.114 0.951358 -1.56912 0
M  V30 8241 H 739.496 3.57475 -1.70375 0
M  V30 8242 H 740.67 2.05413 -4.12483 0
M  V30 8243 H 738.985 1.99647 -3.65418 0
M  V30 8244 H 741.582 4.61138 -2.70658 0
M  V30 8245 H 741.925 4.01466 -1.1014 0
M  V30 8246 H 742.458 3.07873 -2.51911 0
M  V30 8247 H 739.197 3.61441 -5.46846 0
M  V30 8248 H 738.717 4.47851 -3.98985 0
M  V30 8249 H 740.396 4.57334 -4.57663 0
M  V30 8250 N 740.528 1.15101 1.07655 0
M  V30 8251 C 741.777 0.918528 1.79572 0
M  V30 8252 C 742.09 -0.555922 1.87534 0
M  V30 8253 O 743.296 -0.905893 2.55941 0
M  V30 8254 C 741.752 1.59394 3.22679 0
M  V30 8255 C 741.36 3.1052 3.22927 0
M  V30 8256 C 743.104 1.44289 3.99225 0
M  V30 8257 C 741.011 3.70862 4.60668 0
M  V30 8258 H 739.941 0.340006 0.672987 0
M  V30 8259 H 742.592 1.38079 1.20857 0
M  V30 8260 H 740.974 1.05936 3.81567 0
M  V30 8261 H 742.148 3.70708 2.737 0
M  V30 8262 H 740.463 3.25351 2.59876 0
M  V30 8263 H 743.06 1.86766 5.01022 0
M  V30 8264 H 743.403 0.389975 4.14469 0
M  V30 8265 H 743.936 1.94826 3.46825 0
M  V30 8266 H 740.675 4.7604 4.50628 0
M  V30 8267 H 740.195 3.15456 5.10145 0
M  V30 8268 H 741.874 3.71607 5.29639 0
M  V30 8269 N 742.006 -1.2595 0.947325 0
M  V30 8270 C 742.916 -2.29883 0.468079 0
M  V30 8271 C 743.932 -1.67783 -0.460975 0
M  V30 8272 O 745.108 -1.98526 -0.339006 0
M  V30 8273 C 742.173 -3.45773 -0.253315 0
M  V30 8274 C 741.234 -4.23337 0.713054 0
M  V30 8275 C 740.467 -5.33694 0.025993 0
M  V30 8276 O 740.69 -5.57853 -1.18978 0
M  V30 8277 O 739.624 -5.97724 0.70782 0
M  V30 8278 H 743.45 -2.72952 1.33156 0
M  V30 8279 H 741.035 -1.31263 0.713468 0
M  V30 8280 H 742.917 -4.16209 -0.659423 0
M  V30 8281 H 741.592 -3.04721 -1.09209 0
M  V30 8282 H 740.499 -3.55359 1.16923 0
M  V30 8283 H 741.832 -4.68154 1.51963 0
M  V30 8284 N 743.484 -0.715051 -1.40445 0
M  V30 8285 C 744.416 -0.0227516 -2.29189 0
M  V30 8286 C 745.429 0.724313 -1.458 0
M  V30 8287 O 746.618 0.571781 -1.69094 0
M  V30 8288 C 743.718 0.992038 -3.24055 0
M  V30 8289 C 742.891 0.310613 -4.36296 0
M  V30 8290 C 741.95 1.23071 -5.11605 0
M  V30 8291 O 740.976 0.71571 -5.64682 0
M  V30 8292 N 742.178 2.56188 -5.2091 0
M  V30 8293 H 744.943 -0.78473 -2.89244 0
M  V30 8294 H 742.504 -0.562637 -1.51809 0
M  V30 8295 H 744.496 1.60973 -3.71308 0
M  V30 8296 H 743.066 1.65538 -2.65171 0
M  V30 8297 H 742.286 -0.487269 -3.91177 0
M  V30 8298 H 743.574 -0.162415 -5.08541 0
M  V30 8299 H 742.972 3.00527 -4.7927 0
M  V30 8300 H 741.529 3.13103 -5.71673 0
M  V30 8301 N 744.962 1.50701 -0.461195 0
M  V30 8302 C 745.872 2.32069 0.343661 0
M  V30 8303 C 746.888 1.42016 1.00535 0
M  V30 8304 O 748.064 1.75077 0.995498 0
M  V30 8305 C 745.129 3.16424 1.41692 0
M  V30 8306 C 744.19 4.22286 0.772869 0
M  V30 8307 C 743.423 5.02609 1.79499 0
M  V30 8308 O 743.646 4.83874 3.0203 0
M  V30 8309 O 742.58 5.86047 1.3723 0
M  V30 8310 H 746.406 3.01996 -0.321268 0
M  V30 8311 H 743.991 1.47723 -0.223235 0
M  V30 8312 H 745.873 3.68795 2.03883 0
M  V30 8313 H 744.548 2.49236 2.0655 0
M  V30 8314 H 743.455 3.73931 0.112277 0
M  V30 8315 H 744.788 4.91915 0.167399 0
M  V30 8316 N 746.441 0.193421 1.56409 0
M  V30 8317 C 747.666 -0.454552 2.02358 0
M  V30 8318 C 748.091 -1.54516 1.07268 0
M  V30 8319 O 747.449 -1.81214 0.0558962 0
M  V30 8320 C 747.497 -0.989469 3.46759 0
M  V30 8321 O 746.601 -2.10244 3.54783 0
M  V30 8322 H 745.942 -0.106417 0.655417 0
M  V30 8323 H 748.472 0.303807 2.02332 0
M  V30 8324 H 748.482 -1.30649 3.86516 0
M  V30 8325 H 747.157 -0.191083 4.15461 0
M  V30 8326 H 745.734 -1.79419 3.26899 0
M  V30 8327 N 747.919 -1.57396 -0.0801906 0
M  V30 8328 C 749.144 -1.91437 -0.797909 0
M  V30 8329 C 749.569 -0.789075 -1.70749 0
M  V30 8330 O 748.927 0.25857 -1.79447 0
M  V30 8331 C 748.975 -3.24402 -1.57467 0
M  V30 8332 O 748.079 -3.13043 -2.68473 0
M  V30 8333 H 747.42 -0.627109 -0.218243 0
M  V30 8334 H 749.95 -2.04537 -0.050949 0
M  V30 8335 H 749.96 -3.58072 -1.95571 0
M  V30 8336 H 748.635 -4.05884 -0.907229 0
M  V30 8337 H 747.212 -2.90915 -2.33287 0
M  V30 8338 N 749.397 0.351382 -1.53633 0
M  V30 8339 C 750.36 1.41403 -1.80383 0
M  V30 8340 C 751.36 1.45963 -0.674635 0
M  V30 8341 O 752.55 1.46476 -0.942895 0
M  V30 8342 C 749.682 2.80401 -1.93876 0
M  V30 8343 H 750.875 1.18951 -2.75301 0
M  V30 8344 H 748.428 0.58533 -1.44926 0
M  V30 8345 H 749.163 3.08147 -1.01074 0
M  V30 8346 H 748.948 2.78488 -2.7602 0
M  V30 8347 H 750.438 3.57329 -2.16116 0
M  V30 8348 O 750.914 1.53651 0.497361 0
M  V30 8349 H 751.605 1.55706 1.15218 0
M  V30 END ATOM
M  V30 BEGIN BOND
M  V30 END BOND
M  V30 END CTAB
M  END
$$$$
